0
                    3D
 Structure written by MMmdl.
153161  0  0  1  0            999 V2000
  -30.5276  -15.0728   20.3439 C   0  0  0  0  0  0
  -30.4432  -12.6698   19.4803 C   0  0  0  0  0  0
  -29.5175  -12.5073   18.2531 C   0  0  0  0  0  0
  -28.0601  -12.2668   18.6933 C   0  0  0  0  0  0
  -27.6127  -13.2273   19.8238 C   0  0  2  0  0  0
  -28.6701  -13.3682   20.9398 C   0  0  0  0  0  0
  -25.2449  -13.8124   20.5785 C   0  0  0  0  0  0
  -24.1743  -13.0380   20.9261 C   0  0  0  0  0  0
  -24.6345  -11.6864   20.8793 C   0  0  0  0  0  0
  -23.9037  -10.4254   21.0430 C   0  0  0  0  0  0
  -24.3600   -9.4174   21.9203 C   0  0  0  0  0  0
  -23.6275   -8.2213   22.0763 C   0  0  0  0  0  0
  -22.4261   -8.0259   21.3544 C   0  0  0  0  0  0
  -21.9893   -9.0233   20.4651 C   0  0  0  0  0  0
  -22.7220  -10.2109   20.3066 C   0  0  0  0  0  0
  -21.6841   -6.0726   22.5279 C   0  0  0  0  0  0
  -21.4008   -6.5634   23.8210 C   0  0  0  0  0  0
  -21.3659   -5.6788   24.9174 C   0  0  0  0  0  0
  -21.6046   -4.3051   24.7224 C   0  0  0  0  0  0
  -21.8822   -3.8141   23.4348 C   0  0  0  0  0  0
  -21.9189   -4.6956   22.3401 C   0  0  0  0  0  0
  -22.7774  -13.5186   21.1894 C   0  0  0  0  0  0
  -22.1665   -4.2143   21.0978 F   0  0  0  0  0  0
  -21.5626   -3.4539   25.7738 F   0  0  0  0  0  0
  -29.9188  -13.8060   20.2949 N   0  0  0  0  0  0
  -26.2832  -12.9295   20.3307 N   0  0  0  0  0  0
  -25.9274  -11.6458   20.5805 N   0  0  0  0  0  0
  -22.0409  -12.8190   22.0446 N   0  0  0  0  0  0
  -25.4135  -15.1857   20.4256 N   0  0  0  0  0  0
  -31.7633  -15.0696   20.2920 O   0  0  0  0  0  0
  -21.6625   -6.8860   21.4238 O   0  0  0  0  0  0
  -22.3479  -14.5496   20.6730 O   0  0  0  0  0  0
  -24.6493  -31.8392   23.1840 C   0  0  0  0  0  0
  -25.9237  -32.4670   23.8249 C   0  0  1  0  0  0
  -27.2222  -27.0731   20.1409 C   0  0  0  0  0  0
  -25.5965  -33.8480   24.2163 N   0  0  0  0  0  0
  -23.4555  -30.4583   21.5318 C   0  0  2  0  0  0
  -24.9041  -28.8792   20.1098 C   0  0  0  0  0  0
  -22.7597  -29.4523   22.4837 C   0  0  0  0  0  0
  -18.0308  -28.1392   22.8476 C   0  0  0  0  0  0
  -24.1496  -36.7245   23.2643 C   0  0  0  0  0  0
  -26.0175  -30.6927   21.3926 C   0  0  0  0  0  0
  -26.0861  -29.2996   20.7298 C   0  0  0  0  0  0
  -27.2385  -28.4148   20.7284 C   0  0  0  0  0  0
  -25.9961  -26.7729   19.4964 C   0  0  0  0  0  0
  -24.8756  -27.6300   19.4791 C   0  0  0  0  0  0
  -23.6849  -29.7888   20.1518 C   0  0  0  0  0  0
  -25.4131  -36.3019   24.0310 C   0  0  1  0  0  0
  -20.5926  -28.3730   23.1220 C   0  0  2  0  0  0
  -20.6795  -26.9428   22.5399 C   0  0  0  0  0  0
  -19.5767  -26.6379   21.5210 C   0  0  0  0  0  0
  -18.1949  -26.7930   22.1623 C   0  0  0  0  0  0
  -19.1567  -28.8878   23.2838 C   0  0  0  0  0  0
  -18.9484  -30.1472   23.8867 C   0  0  0  0  0  0
  -17.6481  -30.6590   24.0557 C   0  0  0  0  0  0
  -25.9083  -34.9394   23.5049 C   0  0  0  0  0  0
  -16.5371  -29.9081   23.6337 C   0  0  0  0  0  0
  -16.7293  -28.6497   23.0362 C   0  0  0  0  0  0
  -26.4539  -31.6555   25.0712 C   0  0  0  0  0  0
  -25.3703  -31.3764   26.1392 C   0  0  0  0  0  0
  -27.0415  -30.2941   24.6338 C   0  0  0  0  0  0
  -27.6054  -32.4335   25.7508 C   0  0  0  0  0  0
  -27.5575  -37.1783   24.8466 C   0  0  0  0  0  0
  -21.4280  -29.3054   22.3589 N   0  0  0  0  0  0
  -26.4290  -37.3736   23.9403 N   0  0  0  0  0  0
  -24.7280  -31.0192   22.0907 N   0  0  0  0  0  0
  -23.4217  -28.8065   23.3002 O   0  0  0  0  0  0
  -28.2824  -26.0651   20.2544 O   0  0  0  0  0  0
  -26.5673  -34.8902   22.4631 O   0  0  0  0  0  0
  -23.5596  -32.1296   23.7022 O   0  0  0  0  0  0
  -27.7743  -23.1963   18.1933 C   0  0  0  0  0  0
  -28.7852  -22.2997   19.9933 C   0  0  0  0  0  0
  -28.2326  -24.6642   19.8432 C   0  0  0  0  0  0
  -27.1730  -22.9662   16.8232 C   0  0  0  0  0  0
  -28.8274  -16.3738   19.1067 C   0  0  0  0  0  0
  -29.4802  -20.9129   20.6252 C   0  0  0  0  0  0
  -29.2736  -19.2822   20.1080 C   0  0  0  0  0  0
  -30.0928  -17.8475   20.6348 C   0  0  0  0  0  0
  -28.2601  -22.1099   18.7921 N   0  0  0  0  0  0
  -27.7540  -24.4556   18.6237 N   0  0  0  0  0  0
  -28.8074  -23.5941   20.5575 N   0  0  0  0  0  0
  -29.7856  -16.3219   20.2135 N   0  0  0  0  0  0
  -31.4659  -12.8542   19.1471 H   0  0  0  0  0  0
  -30.4797  -11.7518   20.0695 H   0  0  0  0  0  0
  -29.8589  -11.6801   17.6295 H   0  0  0  0  0  0
  -29.5721  -13.3989   17.6282 H   0  0  0  0  0  0
  -27.9914  -11.2365   19.0444 H   0  0  0  0  0  0
  -27.3859  -12.3414   17.8392 H   0  0  0  0  0  0
  -27.5088  -14.1852   19.3341 H   0  0  0  0  0  0
  -28.8062  -12.4299   21.4795 H   0  0  0  0  0  0
  -28.3513  -14.1106   21.6731 H   0  0  0  0  0  0
  -25.2747   -9.5649   22.4774 H   0  0  0  0  0  0
  -23.9982   -7.4604   22.7484 H   0  0  0  0  0  0
  -21.0826   -8.8750   19.8960 H   0  0  0  0  0  0
  -22.3686  -10.9649   19.6175 H   0  0  0  0  0  0
  -21.2002   -7.6144   23.9708 H   0  0  0  0  0  0
  -21.1481   -6.0523   25.9076 H   0  0  0  0  0  0
  -22.0602   -2.7602   23.2846 H   0  0  0  0  0  0
  -22.4020  -11.9860   22.4853 H   0  0  0  0  0  0
  -21.1023  -13.1219   22.2636 H   0  0  0  0  0  0
  -24.6509  -15.8410   20.5594 H   0  0  0  0  0  0
  -26.2780  -15.6322   20.1508 H   0  0  0  0  0  0
  -26.7301  -32.5257   23.0969 H   0  0  0  0  0  0
  -25.0087  -33.9589   25.0295 H   0  0  0  0  0  0
  -22.7609  -31.2861   21.3748 H   0  0  0  0  0  0
  -23.3764  -35.9571   23.3296 H   0  0  0  0  0  0
  -24.3577  -36.8891   22.2060 H   0  0  0  0  0  0
  -23.7249  -37.6436   23.6692 H   0  0  0  0  0  0
  -26.1813  -31.4464   20.6211 H   0  0  0  0  0  0
  -26.8841  -30.7423   22.0403 H   0  0  0  0  0  0
  -28.1352  -28.7344   21.2409 H   0  0  0  0  0  0
  -25.8331  -25.8188   19.0254 H   0  0  0  0  0  0
  -23.9702  -27.2965   18.9906 H   0  0  0  0  0  0
  -23.8285  -30.5638   19.3977 H   0  0  0  0  0  0
  -22.7980  -29.2361   19.8372 H   0  0  0  0  0  0
  -25.1325  -36.1842   25.0802 H   0  0  0  0  0  0
  -21.0014  -28.3323   24.1342 H   0  0  0  0  0  0
  -20.5689  -26.2344   23.3623 H   0  0  0  0  0  0
  -21.6660  -26.7431   22.1198 H   0  0  0  0  0  0
  -19.6933  -25.6282   21.1259 H   0  0  0  0  0  0
  -19.6701  -27.3171   20.6727 H   0  0  0  0  0  0
  -17.4218  -26.6667   21.4028 H   0  0  0  0  0  0
  -18.0354  -26.0075   22.9023 H   0  0  0  0  0  0
  -19.7960  -30.7293   24.2226 H   0  0  0  0  0  0
  -17.5034  -31.6269   24.5161 H   0  0  0  0  0  0
  -15.5370  -30.2978   23.7675 H   0  0  0  0  0  0
  -15.8691  -28.0804   22.7104 H   0  0  0  0  0  0
  -24.5890  -30.7106   25.7708 H   0  0  0  0  0  0
  -24.8883  -32.2954   26.4739 H   0  0  0  0  0  0
  -25.7966  -30.8986   27.0221 H   0  0  0  0  0  0
  -26.3050  -29.6647   24.1330 H   0  0  0  0  0  0
  -27.3987  -29.7263   25.4940 H   0  0  0  0  0  0
  -27.8977  -30.4162   23.9700 H   0  0  0  0  0  0
  -27.2633  -33.3659   26.2013 H   0  0  0  0  0  0
  -28.3906  -32.6855   25.0367 H   0  0  0  0  0  0
  -28.0673  -31.8506   26.5487 H   0  0  0  0  0  0
  -28.2589  -38.0084   24.7505 H   0  0  0  0  0  0
  -28.1076  -36.2610   24.6308 H   0  0  0  0  0  0
  -27.2286  -37.1447   25.8868 H   0  0  0  0  0  0
  -20.9494  -29.8769   21.6765 H   0  0  0  0  0  0
  -26.0153  -38.2804   24.1399 H   0  0  0  0  0  0
  -26.6061  -22.0356   16.8003 H   0  0  0  0  0  0
  -27.9587  -22.9081   16.0707 H   0  0  0  0  0  0
  -26.4948  -23.7733   16.5458 H   0  0  0  0  0  0
  -27.8093  -16.4551   19.4826 H   0  0  0  0  0  0
  -28.9009  -15.5181   18.4369 H   0  0  0  0  0  0
  -29.0086  -17.2261   18.4543 H   0  0  0  0  0  0
  -29.2319  -20.9341   21.6858 H   0  0  0  0  0  0
  -30.5514  -21.1102   20.5959 H   0  0  0  0  0  0
  -29.4367  -19.3328   19.0316 H   0  0  0  0  0  0
  -28.2074  -19.0817   20.2116 H   0  0  0  0  0  0
  -30.0359  -17.8451   21.7237 H   0  0  0  0  0  0
  -31.1525  -17.9961   20.4224 H   0  0  0  0  0  0
  1 25  1  0  0  0
  1 30  2  0  0  0
  1 82  1  0  0  0
  2  3  1  0  0  0
  2 25  1  0  0  0
  2 83  1  0  0  0
  2 84  1  0  0  0
  3  4  1  0  0  0
  3 85  1  0  0  0
  3 86  1  0  0  0
  4  5  1  0  0  0
  4 87  1  0  0  0
  4 88  1  0  0  0
  5  6  1  0  0  0
  5 26  1  0  0  0
  5 89  1  0  0  0
  6 25  1  0  0  0
  6 90  1  0  0  0
  6 91  1  0  0  0
  7  8  2  0  0  0
  7 26  1  0  0  0
  7 29  1  0  0  0
  8  9  1  0  0  0
  8 22  1  0  0  0
  9 10  1  0  0  0
  9 27  2  0  0  0
 10 11  2  0  0  0
 10 15  1  0  0  0
 11 12  1  0  0  0
 11 92  1  0  0  0
 12 13  2  0  0  0
 12 93  1  0  0  0
 13 14  1  0  0  0
 13 31  1  0  0  0
 14 15  2  0  0  0
 14 94  1  0  0  0
 15 95  1  0  0  0
 16 17  2  0  0  0
 16 21  1  0  0  0
 16 31  1  0  0  0
 17 18  1  0  0  0
 17 96  1  0  0  0
 18 19  2  0  0  0
 18 97  1  0  0  0
 19 20  1  0  0  0
 19 24  1  0  0  0
 20 21  2  0  0  0
 20 98  1  0  0  0
 21 23  1  0  0  0
 22 28  1  0  0  0
 22 32  2  0  0  0
 26 27  1  0  0  0
 28 99  1  0  0  0
 28100  1  0  0  0
 29101  1  0  0  0
 29102  1  0  0  0
 33 34  1  0  0  0
 33 66  1  0  0  0
 33 70  2  0  0  0
 34 36  1  0  0  0
 34 59  1  0  0  0
 34103  1  0  0  0
 35 44  2  0  0  0
 35 45  1  0  0  0
 35 68  1  0  0  0
 36 56  1  0  0  0
 36104  1  0  0  0
 37 39  1  0  0  0
 37 47  1  0  0  0
 37 66  1  0  0  0
 37105  1  0  0  0
 38 43  2  0  0  0
 38 46  1  0  0  0
 38 47  1  0  0  0
 39 64  1  0  0  0
 39 67  2  0  0  0
 40 52  1  0  0  0
 40 53  2  0  0  0
 40 58  1  0  0  0
 41106  1  0  0  0
 41107  1  0  0  0
 41108  1  0  0  0
 41 48  1  0  0  0
 42 43  1  0  0  0
 42 66  1  0  0  0
 42109  1  0  0  0
 42110  1  0  0  0
 43 44  1  0  0  0
 44111  1  0  0  0
 45 46  2  0  0  0
 45112  1  0  0  0
 46113  1  0  0  0
 47114  1  0  0  0
 47115  1  0  0  0
 48 56  1  0  0  0
 48 65  1  0  0  0
 48116  1  0  0  0
 49 50  1  0  0  0
 49 53  1  0  0  0
 49 64  1  0  0  0
 49117  1  0  0  0
 50 51  1  0  0  0
 50118  1  0  0  0
 50119  1  0  0  0
 51 52  1  0  0  0
 51120  1  0  0  0
 51121  1  0  0  0
 52122  1  0  0  0
 52123  1  0  0  0
 53 54  1  0  0  0
 54 55  2  0  0  0
 54124  1  0  0  0
 55 57  1  0  0  0
 55125  1  0  0  0
 56 69  2  0  0  0
 57 58  2  0  0  0
 57126  1  0  0  0
 58127  1  0  0  0
 59 60  1  0  0  0
 59 61  1  0  0  0
 59 62  1  0  0  0
 60128  1  0  0  0
 60129  1  0  0  0
 60130  1  0  0  0
 61131  1  0  0  0
 61132  1  0  0  0
 61133  1  0  0  0
 62134  1  0  0  0
 62135  1  0  0  0
 62136  1  0  0  0
 63 65  1  0  0  0
 63137  1  0  0  0
 63138  1  0  0  0
 63139  1  0  0  0
 64140  1  0  0  0
 65141  1  0  0  0
 68 73  1  0  0  0
 71 74  1  0  0  0
 71 79  2  0  0  0
 71 80  1  0  0  0
 72 76  1  0  0  0
 72 79  1  0  0  0
 72 81  2  0  0  0
 73 80  2  0  0  0
 73 81  1  0  0  0
 74142  1  0  0  0
 74143  1  0  0  0
 74144  1  0  0  0
 75 82  1  0  0  0
 75145  1  0  0  0
 75146  1  0  0  0
 75147  1  0  0  0
 76 77  1  0  0  0
 76148  1  0  0  0
 76149  1  0  0  0
 77 78  1  0  0  0
 77150  1  0  0  0
 77151  1  0  0  0
 78 82  1  0  0  0
 78152  1  0  0  0
 78153  1  0  0  0
M  ISO  4   1 100  68 101  73 101  82 100
M  END
> <chiral flag>
0

> <version>
0

> <s_m_source_file>
/data/baiqing/PycharmProjects/Reinvent-master-3.2/result/LINK_invent/BTK/process_docking_weight1_custom_sum_contain_oxygen_bond_distance_aromatic_linkinvent_7_9_3/rearranged_h_0059.sdf

> <i_m_source_file_index>
1

> <r_mmod_Potential_Energy-OPLS-2005>
241.752395629883

> <r_mmod_Stretch_Energy-OPLS-2005>
335.778625488281

> <r_mmod_Bend_Energy-OPLS-2005>
300.573364257812

> <r_mmod_Torsional_Energy-OPLS-2005>
300.67431640625

> <r_mmod_Improper_Torsional_Energy-OPLS-2005>
7.82080793380737

> <r_mmod_Van_der_Waal_Energy-OPLS-2005>
157.519927978516

> <r_mmod_Electrostatic_Energy-OPLS-2005>
-912.124938964844

> <r_mmod_Solvation_Energy-OPLS-2005>
-226.960067749023

> <b_mmod_Minimization_Converged-OPLS-2005>
0

> <r_mmod_RMS_Derivative-OPLS-2005>
0.761183321475983

$$$$
1
                    3D
 Structure written by MMmdl.
160168  0  0  1  0            999 V2000
  -30.7243  -14.5000   20.6289 C   0  0  0  0  0  0
  -30.4248  -12.3546   19.4175 C   0  0  0  0  0  0
  -29.4915  -12.5278   18.1987 C   0  0  0  0  0  0
  -28.0083  -12.3875   18.5998 C   0  0  0  0  0  0
  -27.6572  -13.2058   19.8699 C   0  0  2  0  0  0
  -28.6969  -12.9278   20.9698 C   0  0  0  0  0  0
  -25.2591  -13.8161   20.5682 C   0  0  0  0  0  0
  -24.1827  -13.0439   20.9146 C   0  0  0  0  0  0
  -24.6372  -11.6906   20.8700 C   0  0  0  0  0  0
  -23.9043  -10.4296   21.0383 C   0  0  0  0  0  0
  -24.3612   -9.4217   21.9165 C   0  0  0  0  0  0
  -23.6293   -8.2255   22.0756 C   0  0  0  0  0  0
  -22.4275   -8.0286   21.3545 C   0  0  0  0  0  0
  -21.9897   -9.0251   20.4649 C   0  0  0  0  0  0
  -22.7214  -10.2131   20.3037 C   0  0  0  0  0  0
  -21.6853   -6.0747   22.5286 C   0  0  0  0  0  0
  -21.4012   -6.5646   23.8220 C   0  0  0  0  0  0
  -21.3655   -5.6794   24.9180 C   0  0  0  0  0  0
  -21.6042   -4.3059   24.7224 C   0  0  0  0  0  0
  -21.8818   -3.8155   23.4346 C   0  0  0  0  0  0
  -21.9188   -4.6977   22.3404 C   0  0  0  0  0  0
  -22.7852  -13.5252   21.1807 C   0  0  0  0  0  0
  -22.1662   -4.2169   21.0984 F   0  0  0  0  0  0
  -21.5623   -3.4536   25.7735 F   0  0  0  0  0  0
  -30.0189  -13.3310   20.4547 N   0  0  0  0  0  0
  -26.2994  -12.9308   20.3316 N   0  0  0  0  0  0
  -25.9291  -11.6470   20.5713 N   0  0  0  0  0  0
  -22.0493  -12.8261   22.0384 N   0  0  0  0  0  0
  -25.4364  -15.1883   20.4191 N   0  0  0  0  0  0
  -31.8244  -14.6341   20.0821 O   0  0  0  0  0  0
  -21.6635   -6.8889   21.4247 O   0  0  0  0  0  0
  -22.3547  -14.5551   20.6644 O   0  0  0  0  0  0
  -24.6189  -31.8680   23.2110 C   0  0  0  0  0  0
  -25.9083  -32.4818   23.8388 C   0  0  1  0  0  0
  -27.2202  -27.4058   20.0770 C   0  0  0  0  0  0
  -25.5928  -33.8613   24.2319 N   0  0  0  0  0  0
  -23.4059  -30.4984   21.5525 C   0  0  2  0  0  0
  -24.8471  -28.9732   20.1102 C   0  0  0  0  0  0
  -22.7431  -29.4676   22.4958 C   0  0  0  0  0  0
  -18.0283  -28.1373   22.8502 C   0  0  0  0  0  0
  -24.1487  -36.7309   23.2638 C   0  0  0  0  0  0
  -25.9421  -30.8250   21.3708 C   0  0  0  0  0  0
  -26.0157  -29.4620   20.7080 C   0  0  0  0  0  0
  -27.2051  -28.6879   20.6875 C   0  0  0  0  0  0
  -26.0231  -26.9541   19.4645 C   0  0  0  0  0  0
  -24.8484  -27.7202   19.4856 C   0  0  0  0  0  0
  -23.6134  -29.8439   20.1639 C   0  0  0  0  0  0
  -25.4108  -36.3102   24.0335 C   0  0  1  0  0  0
  -20.5878  -28.3672   23.1301 C   0  0  2  0  0  0
  -20.6770  -26.9403   22.5409 C   0  0  0  0  0  0
  -19.5736  -26.6382   21.5217 C   0  0  0  0  0  0
  -18.1921  -26.7917   22.1640 C   0  0  0  0  0  0
  -19.1536  -28.8835   23.2903 C   0  0  0  0  0  0
  -18.9465  -30.1440   23.8911 C   0  0  0  0  0  0
  -17.6469  -30.6582   24.0566 C   0  0  0  0  0  0
  -25.9044  -34.9473   23.5121 C   0  0  0  0  0  0
  -16.5358  -29.9085   23.6324 C   0  0  0  0  0  0
  -16.7275  -28.6501   23.0350 C   0  0  0  0  0  0
  -26.4492  -31.6600   25.0724 C   0  0  0  0  0  0
  -25.3749  -31.3733   26.1469 C   0  0  0  0  0  0
  -27.0332  -30.3035   24.6134 C   0  0  0  0  0  0
  -27.6057  -32.4328   25.7491 C   0  0  0  0  0  0
  -27.5578  -37.1809   24.8466 C   0  0  0  0  0  0
  -21.4155  -29.3048   22.3705 N   0  0  0  0  0  0
  -26.4293  -37.3790   23.9408 N   0  0  0  0  0  0
  -24.6743  -31.0768   22.1025 N   0  0  0  0  0  0
  -23.4202  -28.8196   23.2987 O   0  0  0  0  0  0
  -28.3682  -26.6172   20.0968 O   0  0  0  0  0  0
  -26.5605  -34.8932   22.4680 O   0  0  0  0  0  0
  -23.5379  -32.1443   23.7493 O   0  0  0  0  0  0
  -31.2484  -21.8626   19.5564 C   0  0  0  0  0  0
  -32.0795  -20.7427   19.4301 C   0  0  0  0  0  0
  -29.9095  -21.6306   19.9016 C   0  0  0  0  0  0
  -30.3385  -19.3518   19.9747 C   0  0  0  0  0  0
  -33.5387  -20.8781   19.0543 C   0  0  0  0  0  0
  -29.2957  -15.5456   22.4195 C   0  0  0  0  0  0
  -28.8566  -22.7474   19.9323 C   0  0  0  0  0  0
  -29.8173  -17.9071   20.1107 C   0  0  0  0  0  0
  -29.3291  -24.2275   20.1075 C   0  0  0  0  0  0
  -30.6841  -16.9802   21.0143 C   0  0  0  0  0  0
  -28.1702  -25.2112   19.8089 C   0  0  0  0  0  0
  -31.6127  -19.4950   19.6223 N   0  0  0  0  0  0
  -29.4733  -20.3641   20.1211 N   0  0  0  0  0  0
  -30.1370  -15.5998   21.2158 N   0  0  0  0  0  0
  -31.4641  -12.4656   19.1034 H   0  0  0  0  0  0
  -30.3609  -11.3376   19.8063 H   0  0  0  0  0  0
  -29.7394  -11.7944   17.4292 H   0  0  0  0  0  0
  -29.6554  -13.5087   17.7488 H   0  0  0  0  0  0
  -27.8069  -11.3286   18.7720 H   0  0  0  0  0  0
  -27.3636  -12.6877   17.7724 H   0  0  0  0  0  0
  -27.7127  -14.2626   19.6073 H   0  0  0  0  0  0
  -28.7079  -11.8590   21.1863 H   0  0  0  0  0  0
  -28.3959  -13.3502   21.9171 H   0  0  0  0  0  0
  -25.2772   -9.5697   22.4715 H   0  0  0  0  0  0
  -23.9999   -7.4651   22.7486 H   0  0  0  0  0  0
  -21.0815   -8.8748   19.8977 H   0  0  0  0  0  0
  -22.3658  -10.9648   19.6132 H   0  0  0  0  0  0
  -21.2008   -7.6155   23.9733 H   0  0  0  0  0  0
  -21.1474   -6.0521   25.9083 H   0  0  0  0  0  0
  -22.0603   -2.7620   23.2830 H   0  0  0  0  0  0
  -22.4101  -11.9917   22.4756 H   0  0  0  0  0  0
  -21.1121  -13.1300   22.2616 H   0  0  0  0  0  0
  -24.6817  -15.8499   20.5623 H   0  0  0  0  0  0
  -26.3071  -15.6330   20.1558 H   0  0  0  0  0  0
  -26.7152  -32.5519   23.1142 H   0  0  0  0  0  0
  -25.0054  -33.9759   25.0448 H   0  0  0  0  0  0
  -22.6969  -31.3179   21.4185 H   0  0  0  0  0  0
  -23.3748  -35.9644   23.3309 H   0  0  0  0  0  0
  -24.3573  -36.8920   22.2052 H   0  0  0  0  0  0
  -23.7253  -37.6520   23.6650 H   0  0  0  0  0  0
  -26.0653  -31.5980   20.6100 H   0  0  0  0  0  0
  -26.8259  -30.8672   21.9956 H   0  0  0  0  0  0
  -28.1052  -29.0626   21.1555 H   0  0  0  0  0  0
  -25.9536  -26.0044   18.9565 H   0  0  0  0  0  0
  -23.9517  -27.3434   19.0130 H   0  0  0  0  0  0
  -23.7256  -30.6242   19.4101 H   0  0  0  0  0  0
  -22.7344  -29.2708   19.8631 H   0  0  0  0  0  0
  -25.1287  -36.1955   25.0830 H   0  0  0  0  0  0
  -20.9985  -28.3241   24.1416 H   0  0  0  0  0  0
  -20.5667  -26.2285   23.3605 H   0  0  0  0  0  0
  -21.6638  -26.7426   22.1203 H   0  0  0  0  0  0
  -19.6891  -25.6296   21.1232 H   0  0  0  0  0  0
  -19.6661  -27.3208   20.6757 H   0  0  0  0  0  0
  -17.4186  -26.6677   21.4047 H   0  0  0  0  0  0
  -18.0321  -26.0045   22.9025 H   0  0  0  0  0  0
  -19.7941  -30.7253   24.2287 H   0  0  0  0  0  0
  -17.5024  -31.6263   24.5165 H   0  0  0  0  0  0
  -15.5358  -30.2996   23.7624 H   0  0  0  0  0  0
  -15.8679  -28.0824   22.7049 H   0  0  0  0  0  0
  -24.5874  -30.7142   25.7799 H   0  0  0  0  0  0
  -24.9001  -32.2913   26.4944 H   0  0  0  0  0  0
  -25.8074  -30.8854   27.0212 H   0  0  0  0  0  0
  -26.2893  -29.6782   24.1183 H   0  0  0  0  0  0
  -27.4092  -29.7283   25.4607 H   0  0  0  0  0  0
  -27.8730  -30.4340   23.9303 H   0  0  0  0  0  0
  -27.2660  -33.3614   26.2090 H   0  0  0  0  0  0
  -28.3853  -32.6920   25.0314 H   0  0  0  0  0  0
  -28.0743  -31.8446   26.5392 H   0  0  0  0  0  0
  -28.2604  -38.0097   24.7506 H   0  0  0  0  0  0
  -28.1064  -36.2631   24.6294 H   0  0  0  0  0  0
  -27.2292  -37.1466   25.8869 H   0  0  0  0  0  0
  -20.9305  -29.8801   21.6958 H   0  0  0  0  0  0
  -26.0178  -38.2868   24.1404 H   0  0  0  0  0  0
  -31.6324  -22.8548   19.3624 H   0  0  0  0  0  0
  -33.7109  -21.7845   18.4743 H   0  0  0  0  0  0
  -33.8697  -20.0302   18.4547 H   0  0  0  0  0  0
  -34.1529  -20.9271   19.9529 H   0  0  0  0  0  0
  -29.5755  -14.7084   23.0616 H   0  0  0  0  0  0
  -28.2436  -15.4705   22.1442 H   0  0  0  0  0  0
  -29.3701  -16.4290   23.0516 H   0  0  0  0  0  0
  -28.1417  -22.5140   20.7223 H   0  0  0  0  0  0
  -28.3019  -22.6645   18.9958 H   0  0  0  0  0  0
  -29.7328  -17.4787   19.1118 H   0  0  0  0  0  0
  -28.8038  -17.9430   20.5106 H   0  0  0  0  0  0
  -30.1460  -24.4583   19.4265 H   0  0  0  0  0  0
  -29.7060  -24.3740   21.1195 H   0  0  0  0  0  0
  -31.6911  -16.9511   20.5984 H   0  0  0  0  0  0
  -30.8351  -17.4784   21.9720 H   0  0  0  0  0  0
  -27.3093  -24.8581   20.3792 H   0  0  0  0  0  0
  -27.9260  -25.1085   18.7500 H   0  0  0  0  0  0
  1 25  1  0  0  0
  1 30  2  0  0  0
  1 84  1  0  0  0
  2  3  1  0  0  0
  2 25  1  0  0  0
  2 85  1  0  0  0
  2 86  1  0  0  0
  3  4  1  0  0  0
  3 87  1  0  0  0
  3 88  1  0  0  0
  4  5  1  0  0  0
  4 89  1  0  0  0
  4 90  1  0  0  0
  5  6  1  0  0  0
  5 26  1  0  0  0
  5 91  1  0  0  0
  6 25  1  0  0  0
  6 92  1  0  0  0
  6 93  1  0  0  0
  7  8  2  0  0  0
  7 26  1  0  0  0
  7 29  1  0  0  0
  8  9  1  0  0  0
  8 22  1  0  0  0
  9 10  1  0  0  0
  9 27  2  0  0  0
 10 11  2  0  0  0
 10 15  1  0  0  0
 11 12  1  0  0  0
 11 94  1  0  0  0
 12 13  2  0  0  0
 12 95  1  0  0  0
 13 14  1  0  0  0
 13 31  1  0  0  0
 14 15  2  0  0  0
 14 96  1  0  0  0
 15 97  1  0  0  0
 16 17  2  0  0  0
 16 21  1  0  0  0
 16 31  1  0  0  0
 17 18  1  0  0  0
 17 98  1  0  0  0
 18 19  2  0  0  0
 18 99  1  0  0  0
 19 20  1  0  0  0
 19 24  1  0  0  0
 20 21  2  0  0  0
 20100  1  0  0  0
 21 23  1  0  0  0
 22 28  1  0  0  0
 22 32  2  0  0  0
 26 27  1  0  0  0
 28101  1  0  0  0
 28102  1  0  0  0
 29103  1  0  0  0
 29104  1  0  0  0
 33 34  1  0  0  0
 33 66  1  0  0  0
 33 70  2  0  0  0
 34 36  1  0  0  0
 34 59  1  0  0  0
 34105  1  0  0  0
 35 44  2  0  0  0
 35 45  1  0  0  0
 35 68  1  0  0  0
 36 56  1  0  0  0
 36106  1  0  0  0
 37 39  1  0  0  0
 37 47  1  0  0  0
 37 66  1  0  0  0
 37107  1  0  0  0
 38 43  2  0  0  0
 38 46  1  0  0  0
 38 47  1  0  0  0
 39 64  1  0  0  0
 39 67  2  0  0  0
 40 52  1  0  0  0
 40 53  2  0  0  0
 40 58  1  0  0  0
 41108  1  0  0  0
 41109  1  0  0  0
 41110  1  0  0  0
 41 48  1  0  0  0
 42 43  1  0  0  0
 42 66  1  0  0  0
 42111  1  0  0  0
 42112  1  0  0  0
 43 44  1  0  0  0
 44113  1  0  0  0
 45 46  2  0  0  0
 45114  1  0  0  0
 46115  1  0  0  0
 47116  1  0  0  0
 47117  1  0  0  0
 48 56  1  0  0  0
 48 65  1  0  0  0
 48118  1  0  0  0
 49 50  1  0  0  0
 49 53  1  0  0  0
 49 64  1  0  0  0
 49119  1  0  0  0
 50 51  1  0  0  0
 50120  1  0  0  0
 50121  1  0  0  0
 51 52  1  0  0  0
 51122  1  0  0  0
 51123  1  0  0  0
 52124  1  0  0  0
 52125  1  0  0  0
 53 54  1  0  0  0
 54 55  2  0  0  0
 54126  1  0  0  0
 55 57  1  0  0  0
 55127  1  0  0  0
 56 69  2  0  0  0
 57 58  2  0  0  0
 57128  1  0  0  0
 58129  1  0  0  0
 59 60  1  0  0  0
 59 61  1  0  0  0
 59 62  1  0  0  0
 60130  1  0  0  0
 60131  1  0  0  0
 60132  1  0  0  0
 61133  1  0  0  0
 61134  1  0  0  0
 61135  1  0  0  0
 62136  1  0  0  0
 62137  1  0  0  0
 62138  1  0  0  0
 63 65  1  0  0  0
 63139  1  0  0  0
 63140  1  0  0  0
 63141  1  0  0  0
 64142  1  0  0  0
 65143  1  0  0  0
 68 81  1  0  0  0
 71 72  2  0  0  0
 71 73  1  0  0  0
 71144  1  0  0  0
 72 75  1  0  0  0
 72 82  1  0  0  0
 73 77  1  0  0  0
 73 83  2  0  0  0
 74 78  1  0  0  0
 74 82  2  0  0  0
 74 83  1  0  0  0
 75145  1  0  0  0
 75146  1  0  0  0
 75147  1  0  0  0
 76 84  1  0  0  0
 76148  1  0  0  0
 76149  1  0  0  0
 76150  1  0  0  0
 77 79  1  0  0  0
 77151  1  0  0  0
 77152  1  0  0  0
 78 80  1  0  0  0
 78153  1  0  0  0
 78154  1  0  0  0
 79 81  1  0  0  0
 79155  1  0  0  0
 79156  1  0  0  0
 80 84  1  0  0  0
 80157  1  0  0  0
 80158  1  0  0  0
 81159  1  0  0  0
 81160  1  0  0  0
M  ISO  4   1 100  68 101  81 101  84 100
M  END
> <chiral flag>
0

> <version>
0

> <s_m_source_file>
/data/baiqing/PycharmProjects/Reinvent-master-3.2/result/LINK_invent/BTK/process_docking_weight1_custom_sum_contain_oxygen_bond_distance_aromatic_linkinvent_7_9_3/rearranged_h_0059.sdf

> <i_m_source_file_index>
2

> <r_mmod_Potential_Energy-OPLS-2005>
-324.557159423828

> <r_mmod_Stretch_Energy-OPLS-2005>
50.8294868469238

> <r_mmod_Bend_Energy-OPLS-2005>
130.308044433594

> <r_mmod_Torsional_Energy-OPLS-2005>
236.968490600586

> <r_mmod_Improper_Torsional_Energy-OPLS-2005>
6.32247734069824

> <r_mmod_Van_der_Waal_Energy-OPLS-2005>
186.393707275391

> <r_mmod_Electrostatic_Energy-OPLS-2005>
-727.096069335938

> <r_mmod_Solvation_Energy-OPLS-2005>
-225.834945678711

> <b_mmod_Minimization_Converged-OPLS-2005>
0

> <r_mmod_RMS_Derivative-OPLS-2005>
1.66014349460602

$$$$
2
                    3D
 Structure written by MMmdl.
151159  0  0  1  0            999 V2000
  -30.5460  -14.9591   20.4103 C   0  0  0  0  0  0
  -30.4288  -12.5817   19.5307 C   0  0  0  0  0  0
  -29.5271  -12.5303   18.2743 C   0  0  0  0  0  0
  -28.0574  -12.3176   18.6781 C   0  0  0  0  0  0
  -27.6266  -13.2549   19.8362 C   0  0  2  0  0  0
  -28.6575  -13.2972   20.9817 C   0  0  0  0  0  0
  -25.2450  -13.8237   20.5717 C   0  0  0  0  0  0
  -24.1765  -13.0448   20.9207 C   0  0  0  0  0  0
  -24.6386  -11.6935   20.8727 C   0  0  0  0  0  0
  -23.9075  -10.4301   21.0392 C   0  0  0  0  0  0
  -24.3626   -9.4222   21.9174 C   0  0  0  0  0  0
  -23.6302   -8.2254   22.0749 C   0  0  0  0  0  0
  -22.4282   -8.0284   21.3542 C   0  0  0  0  0  0
  -21.9914   -9.0252   20.4643 C   0  0  0  0  0  0
  -22.7241  -10.2134   20.3050 C   0  0  0  0  0  0
  -21.6862   -6.0738   22.5275 C   0  0  0  0  0  0
  -21.4023   -6.5641   23.8209 C   0  0  0  0  0  0
  -21.3661   -5.6790   24.9168 C   0  0  0  0  0  0
  -21.6045   -4.3052   24.7217 C   0  0  0  0  0  0
  -21.8821   -3.8147   23.4338 C   0  0  0  0  0  0
  -21.9196   -4.6965   22.3397 C   0  0  0  0  0  0
  -22.7787  -13.5214   21.1870 C   0  0  0  0  0  0
  -22.1665   -4.2152   21.0973 F   0  0  0  0  0  0
  -21.5625   -3.4536   25.7730 F   0  0  0  0  0  0
  -29.9459  -13.6953   20.4053 N   0  0  0  0  0  0
  -26.2862  -12.9476   20.3213 N   0  0  0  0  0  0
  -25.9319  -11.6597   20.5709 N   0  0  0  0  0  0
  -22.0452  -12.8196   22.0434 N   0  0  0  0  0  0
  -25.4150  -15.1965   20.4209 N   0  0  0  0  0  0
  -31.7292  -14.9788   20.0474 O   0  0  0  0  0  0
  -21.6651   -6.8877   21.4237 O   0  0  0  0  0  0
  -22.3463  -14.5515   20.6718 O   0  0  0  0  0  0
  -24.6430  -31.8408   23.1843 C   0  0  0  0  0  0
  -25.9200  -32.4673   23.8241 C   0  0  1  0  0  0
  -27.2203  -27.1250   20.1524 C   0  0  0  0  0  0
  -25.5943  -33.8480   24.2162 N   0  0  0  0  0  0
  -23.4473  -30.4573   21.5293 C   0  0  2  0  0  0
  -24.8970  -28.8771   20.1044 C   0  0  0  0  0  0
  -22.7562  -29.4526   22.4848 C   0  0  0  0  0  0
  -18.0301  -28.1397   22.8478 C   0  0  0  0  0  0
  -24.1494  -36.7249   23.2645 C   0  0  0  0  0  0
  -26.0011  -30.7106   21.3835 C   0  0  0  0  0  0
  -26.0699  -29.3199   20.7263 C   0  0  0  0  0  0
  -27.2269  -28.4568   20.7363 C   0  0  0  0  0  0
  -26.0237  -26.7783   19.4910 C   0  0  0  0  0  0
  -24.8867  -27.6212   19.4725 C   0  0  0  0  0  0
  -23.6730  -29.7806   20.1492 C   0  0  0  0  0  0
  -25.4126  -36.3019   24.0314 C   0  0  1  0  0  0
  -20.5914  -28.3717   23.1242 C   0  0  2  0  0  0
  -20.6788  -26.9419   22.5411 C   0  0  0  0  0  0
  -19.5766  -26.6381   21.5216 C   0  0  0  0  0  0
  -18.1944  -26.7937   22.1621 C   0  0  0  0  0  0
  -19.1559  -28.8877   23.2851 C   0  0  0  0  0  0
  -18.9475  -30.1474   23.8873 C   0  0  0  0  0  0
  -17.6473  -30.6593   24.0560 C   0  0  0  0  0  0
  -25.9074  -34.9395   23.5051 C   0  0  0  0  0  0
  -16.5362  -29.9086   23.6340 C   0  0  0  0  0  0
  -16.7287  -28.6507   23.0355 C   0  0  0  0  0  0
  -26.4523  -31.6553   25.0693 C   0  0  0  0  0  0
  -25.3711  -31.3745   26.1390 C   0  0  0  0  0  0
  -27.0401  -30.2953   24.6286 C   0  0  0  0  0  0
  -27.6047  -32.4330   25.7480 C   0  0  0  0  0  0
  -27.5575  -37.1779   24.8466 C   0  0  0  0  0  0
  -21.4254  -29.3033   22.3603 N   0  0  0  0  0  0
  -26.4288  -37.3735   23.9406 N   0  0  0  0  0  0
  -24.7169  -31.0256   22.0875 N   0  0  0  0  0  0
  -23.4201  -28.8092   23.3016 O   0  0  0  0  0  0
  -28.2942  -26.1710   20.2789 O   0  0  0  0  0  0
  -26.5668  -34.8902   22.4635 O   0  0  0  0  0  0
  -23.5550  -32.1286   23.7064 O   0  0  0  0  0  0
  -29.7729  -17.5543   19.8389 C   0  0  0  0  0  0
  -29.8511  -16.4048   20.6736 C   0  0  0  0  0  0
  -29.1940  -18.7150   20.5718 C   0  0  0  0  0  0
  -29.2665  -16.2418   23.1633 C   0  0  0  0  0  0
  -28.5326  -20.1943   20.1808 C   0  0  0  0  0  0
  -29.1328  -21.7739   20.2774 C   0  0  0  0  0  0
  -28.2269  -23.2044   20.4990 C   0  0  0  0  0  0
  -28.4016  -24.7090   19.7373 C   0  0  0  0  0  0
  -28.9999  -18.2419   21.8114 N   0  0  0  0  0  0
  -29.3808  -16.9112   21.8810 N   0  0  0  0  0  0
  -31.4708  -12.7041   19.2330 H   0  0  0  0  0  0
  -30.3915  -11.6321   20.0673 H   0  0  0  0  0  0
  -29.8515  -11.7306   17.6073 H   0  0  0  0  0  0
  -29.6241  -13.4601   17.7121 H   0  0  0  0  0  0
  -27.9510  -11.2771   18.9871 H   0  0  0  0  0  0
  -27.4014  -12.4473   17.8165 H   0  0  0  0  0  0
  -27.5888  -14.2559   19.4052 H   0  0  0  0  0  0
  -28.7316  -12.3306   21.4822 H   0  0  0  0  0  0
  -28.3424  -14.0129   21.7395 H   0  0  0  0  0  0
  -25.2772   -9.5706   22.4746 H   0  0  0  0  0  0
  -24.0016   -7.4652   22.7475 H   0  0  0  0  0  0
  -21.0843   -8.8762   19.8954 H   0  0  0  0  0  0
  -22.3686  -10.9666   19.6159 H   0  0  0  0  0  0
  -21.2022   -7.6149   23.9712 H   0  0  0  0  0  0
  -21.1483   -6.0520   25.9071 H   0  0  0  0  0  0
  -22.0600   -2.7610   23.2832 H   0  0  0  0  0  0
  -22.4084  -11.9864   22.4816 H   0  0  0  0  0  0
  -21.1069  -13.1208   22.2656 H   0  0  0  0  0  0
  -24.6526  -15.8527   20.5503 H   0  0  0  0  0  0
  -26.2766  -15.6441   20.1330 H   0  0  0  0  0  0
  -26.7262  -32.5275   23.0961 H   0  0  0  0  0  0
  -25.0063  -33.9589   25.0291 H   0  0  0  0  0  0
  -22.7504  -31.2829   21.3720 H   0  0  0  0  0  0
  -23.3760  -35.9577   23.3293 H   0  0  0  0  0  0
  -24.3578  -36.8896   22.2062 H   0  0  0  0  0  0
  -23.7247  -37.6439   23.6694 H   0  0  0  0  0  0
  -26.1585  -31.4639   20.6103 H   0  0  0  0  0  0
  -26.8707  -30.7606   22.0271 H   0  0  0  0  0  0
  -28.1185  -28.7870   21.2504 H   0  0  0  0  0  0
  -25.9328  -25.8101   19.0218 H   0  0  0  0  0  0
  -23.9875  -27.2768   18.9803 H   0  0  0  0  0  0
  -23.8069  -30.5521   19.3899 H   0  0  0  0  0  0
  -22.7882  -29.2202   19.8425 H   0  0  0  0  0  0
  -25.1318  -36.1841   25.0807 H   0  0  0  0  0  0
  -21.0005  -28.3310   24.1364 H   0  0  0  0  0  0
  -20.5687  -26.2324   23.3625 H   0  0  0  0  0  0
  -21.6654  -26.7430   22.1206 H   0  0  0  0  0  0
  -19.6928  -25.6287   21.1258 H   0  0  0  0  0  0
  -19.6714  -27.3182   20.6739 H   0  0  0  0  0  0
  -17.4215  -26.6681   21.4021 H   0  0  0  0  0  0
  -18.0341  -26.0084   22.9024 H   0  0  0  0  0  0
  -19.7951  -30.7300   24.2228 H   0  0  0  0  0  0
  -17.5024  -31.6271   24.5164 H   0  0  0  0  0  0
  -15.5362  -30.2978   23.7684 H   0  0  0  0  0  0
  -15.8686  -28.0821   22.7079 H   0  0  0  0  0  0
  -24.5897  -30.7084   25.7712 H   0  0  0  0  0  0
  -24.8894  -32.2929   26.4758 H   0  0  0  0  0  0
  -25.7998  -30.8956   27.0202 H   0  0  0  0  0  0
  -26.3023  -29.6657   24.1300 H   0  0  0  0  0  0
  -27.4020  -29.7269   25.4863 H   0  0  0  0  0  0
  -27.8922  -30.4190   23.9600 H   0  0  0  0  0  0
  -27.2631  -33.3649   26.1994 H   0  0  0  0  0  0
  -28.3887  -32.6858   25.0330 H   0  0  0  0  0  0
  -28.0681  -31.8499   26.5445 H   0  0  0  0  0  0
  -28.2583  -38.0083   24.7509 H   0  0  0  0  0  0
  -28.1080  -36.2611   24.6299 H   0  0  0  0  0  0
  -27.2291  -37.1430   25.8868 H   0  0  0  0  0  0
  -20.9463  -29.8722   21.6762 H   0  0  0  0  0  0
  -26.0152  -38.2803   24.1407 H   0  0  0  0  0  0
  -30.0561  -17.5517   18.7958 H   0  0  0  0  0  0
  -29.9644  -15.4067   23.2249 H   0  0  0  0  0  0
  -28.2509  -15.8670   23.2916 H   0  0  0  0  0  0
  -29.4904  -16.9359   23.9740 H   0  0  0  0  0  0
  -27.6100  -20.2444   20.7599 H   0  0  0  0  0  0
  -28.1630  -20.0999   19.1594 H   0  0  0  0  0  0
  -29.7597  -21.9195   19.3973 H   0  0  0  0  0  0
  -29.8465  -21.7624   21.1015 H   0  0  0  0  0  0
  -28.2843  -23.4143   21.5674 H   0  0  0  0  0  0
  -27.1821  -22.9272   20.3567 H   0  0  0  0  0  0
  -27.8310  -24.6643   18.8101 H   0  0  0  0  0  0
  -29.4322  -24.6917   19.3827 H   0  0  0  0  0  0
  1 25  1  0  0  0
  1 30  2  0  0  0
  1 72  1  0  0  0
  2  3  1  0  0  0
  2 25  1  0  0  0
  2 81  1  0  0  0
  2 82  1  0  0  0
  3  4  1  0  0  0
  3 83  1  0  0  0
  3 84  1  0  0  0
  4  5  1  0  0  0
  4 85  1  0  0  0
  4 86  1  0  0  0
  5  6  1  0  0  0
  5 26  1  0  0  0
  5 87  1  0  0  0
  6 25  1  0  0  0
  6 88  1  0  0  0
  6 89  1  0  0  0
  7  8  2  0  0  0
  7 26  1  0  0  0
  7 29  1  0  0  0
  8  9  1  0  0  0
  8 22  1  0  0  0
  9 10  1  0  0  0
  9 27  2  0  0  0
 10 11  2  0  0  0
 10 15  1  0  0  0
 11 12  1  0  0  0
 11 90  1  0  0  0
 12 13  2  0  0  0
 12 91  1  0  0  0
 13 14  1  0  0  0
 13 31  1  0  0  0
 14 15  2  0  0  0
 14 92  1  0  0  0
 15 93  1  0  0  0
 16 17  2  0  0  0
 16 21  1  0  0  0
 16 31  1  0  0  0
 17 18  1  0  0  0
 17 94  1  0  0  0
 18 19  2  0  0  0
 18 95  1  0  0  0
 19 20  1  0  0  0
 19 24  1  0  0  0
 20 21  2  0  0  0
 20 96  1  0  0  0
 21 23  1  0  0  0
 22 28  1  0  0  0
 22 32  2  0  0  0
 26 27  1  0  0  0
 28 97  1  0  0  0
 28 98  1  0  0  0
 29 99  1  0  0  0
 29100  1  0  0  0
 33 34  1  0  0  0
 33 66  1  0  0  0
 33 70  2  0  0  0
 34 36  1  0  0  0
 34 59  1  0  0  0
 34101  1  0  0  0
 35 44  2  0  0  0
 35 45  1  0  0  0
 35 68  1  0  0  0
 36 56  1  0  0  0
 36102  1  0  0  0
 37 39  1  0  0  0
 37 47  1  0  0  0
 37 66  1  0  0  0
 37103  1  0  0  0
 38 43  2  0  0  0
 38 46  1  0  0  0
 38 47  1  0  0  0
 39 64  1  0  0  0
 39 67  2  0  0  0
 40 52  1  0  0  0
 40 53  2  0  0  0
 40 58  1  0  0  0
 41104  1  0  0  0
 41105  1  0  0  0
 41106  1  0  0  0
 41 48  1  0  0  0
 42 43  1  0  0  0
 42 66  1  0  0  0
 42107  1  0  0  0
 42108  1  0  0  0
 43 44  1  0  0  0
 44109  1  0  0  0
 45 46  2  0  0  0
 45110  1  0  0  0
 46111  1  0  0  0
 47112  1  0  0  0
 47113  1  0  0  0
 48 56  1  0  0  0
 48 65  1  0  0  0
 48114  1  0  0  0
 49 50  1  0  0  0
 49 53  1  0  0  0
 49 64  1  0  0  0
 49115  1  0  0  0
 50 51  1  0  0  0
 50116  1  0  0  0
 50117  1  0  0  0
 51 52  1  0  0  0
 51118  1  0  0  0
 51119  1  0  0  0
 52120  1  0  0  0
 52121  1  0  0  0
 53 54  1  0  0  0
 54 55  2  0  0  0
 54122  1  0  0  0
 55 57  1  0  0  0
 55123  1  0  0  0
 56 69  2  0  0  0
 57 58  2  0  0  0
 57124  1  0  0  0
 58125  1  0  0  0
 59 60  1  0  0  0
 59 61  1  0  0  0
 59 62  1  0  0  0
 60126  1  0  0  0
 60127  1  0  0  0
 60128  1  0  0  0
 61129  1  0  0  0
 61130  1  0  0  0
 61131  1  0  0  0
 62132  1  0  0  0
 62133  1  0  0  0
 62134  1  0  0  0
 63 65  1  0  0  0
 63135  1  0  0  0
 63136  1  0  0  0
 63137  1  0  0  0
 64138  1  0  0  0
 65139  1  0  0  0
 68 78  1  0  0  0
 71 72  2  0  0  0
 71 73  1  0  0  0
 71140  1  0  0  0
 72 80  1  0  0  0
 73 75  1  0  0  0
 73 79  2  0  0  0
 74 80  1  0  0  0
 74141  1  0  0  0
 74142  1  0  0  0
 74143  1  0  0  0
 75 76  1  0  0  0
 75144  1  0  0  0
 75145  1  0  0  0
 76 77  1  0  0  0
 76146  1  0  0  0
 76147  1  0  0  0
 77 78  1  0  0  0
 77148  1  0  0  0
 77149  1  0  0  0
 78150  1  0  0  0
 78151  1  0  0  0
 79 80  1  0  0  0
M  ISO  4   1 100  68 101  72 100  78 101
M  END
> <chiral flag>
0

> <version>
0

> <s_m_source_file>
/data/baiqing/PycharmProjects/Reinvent-master-3.2/result/LINK_invent/BTK/process_docking_weight1_custom_sum_contain_oxygen_bond_distance_aromatic_linkinvent_7_9_3/rearranged_h_0059.sdf

> <i_m_source_file_index>
3

> <r_mmod_Potential_Energy-OPLS-2005>
647.022583007812

> <r_mmod_Stretch_Energy-OPLS-2005>
280.826873779297

> <r_mmod_Bend_Energy-OPLS-2005>
322.082641601562

> <r_mmod_Torsional_Energy-OPLS-2005>
223.071960449219

> <r_mmod_Improper_Torsional_Energy-OPLS-2005>
5.30469512939453

> <r_mmod_Van_der_Waal_Energy-OPLS-2005>
104.361236572266

> <r_mmod_Electrostatic_Energy-OPLS-2005>
-282.765228271484

> <r_mmod_Solvation_Energy-OPLS-2005>
-203.11506652832

> <b_mmod_Minimization_Converged-OPLS-2005>
0

> <r_mmod_RMS_Derivative-OPLS-2005>
0.641825735569

$$$$
3
                    3D
 Structure written by MMmdl.
145153  0  0  1  0            999 V2000
  -30.3892  -15.3747   20.3576 C   0  0  0  0  0  0
  -30.4312  -12.8933   19.5088 C   0  0  0  0  0  0
  -29.5353  -12.5965   18.2785 C   0  0  0  0  0  0
  -28.0865  -12.3070   18.7071 C   0  0  0  0  0  0
  -27.6012  -13.2833   19.8060 C   0  0  2  0  0  0
  -28.6322  -13.5060   20.9314 C   0  0  0  0  0  0
  -25.2345  -13.8249   20.5736 C   0  0  0  0  0  0
  -24.1718  -13.0435   20.9261 C   0  0  0  0  0  0
  -24.6378  -11.6928   20.8753 C   0  0  0  0  0  0
  -23.9076  -10.4270   21.0407 C   0  0  0  0  0  0
  -24.3622   -9.4183   21.9179 C   0  0  0  0  0  0
  -23.6283   -8.2222   22.0762 C   0  0  0  0  0  0
  -22.4275   -8.0249   21.3539 C   0  0  0  0  0  0
  -21.9912   -9.0232   20.4653 C   0  0  0  0  0  0
  -22.7249  -10.2105   20.3055 C   0  0  0  0  0  0
  -21.6848   -6.0712   22.5271 C   0  0  0  0  0  0
  -21.4025   -6.5637   23.8195 C   0  0  0  0  0  0
  -21.3667   -5.6792   24.9159 C   0  0  0  0  0  0
  -21.6042   -4.3053   24.7230 C   0  0  0  0  0  0
  -21.8817   -3.8133   23.4359 C   0  0  0  0  0  0
  -21.9192   -4.6939   22.3410 C   0  0  0  0  0  0
  -22.7732  -13.5180   21.1902 C   0  0  0  0  0  0
  -22.1671   -4.2118   21.0989 F   0  0  0  0  0  0
  -21.5613   -3.4546   25.7753 F   0  0  0  0  0  0
  -29.8401  -14.0516   20.2834 N   0  0  0  0  0  0
  -26.2766  -12.9536   20.3139 N   0  0  0  0  0  0
  -25.9315  -11.6643   20.5664 N   0  0  0  0  0  0
  -22.0396  -12.8157   22.0457 N   0  0  0  0  0  0
  -25.3951  -15.1989   20.4172 N   0  0  0  0  0  0
  -31.6253  -15.3532   20.2448 O   0  0  0  0  0  0
  -21.6635   -6.8853   21.4229 O   0  0  0  0  0  0
  -22.3403  -14.5477   20.6735 O   0  0  0  0  0  0
  -24.6717  -31.8152   23.1625 C   0  0  0  0  0  0
  -25.9345  -32.4550   23.8136 C   0  0  1  0  0  0
  -27.2191  -26.8567   20.1962 C   0  0  0  0  0  0
  -25.5971  -33.8366   24.2031 N   0  0  0  0  0  0
  -23.4887  -30.4248   21.5146 C   0  0  2  0  0  0
  -24.9415  -28.7930   20.1214 C   0  0  0  0  0  0
  -22.7715  -29.4402   22.4759 C   0  0  0  0  0  0
  -18.0342  -28.1418   22.8455 C   0  0  0  0  0  0
  -24.1518  -36.7221   23.2643 C   0  0  0  0  0  0
  -26.0635  -30.5991   21.4035 C   0  0  0  0  0  0
  -26.1300  -29.1797   20.7539 C   0  0  0  0  0  0
  -27.2642  -28.2370   20.7583 C   0  0  0  0  0  0
  -25.9974  -26.6375   19.5183 C   0  0  0  0  0  0
  -24.9041  -27.5426   19.4837 C   0  0  0  0  0  0
  -23.7331  -29.7314   20.1460 C   0  0  0  0  0  0
  -25.4145  -36.2945   24.0287 C   0  0  1  0  0  0
  -20.5968  -28.3776   23.1157 C   0  0  2  0  0  0
  -20.6814  -26.9441   22.5402 C   0  0  0  0  0  0
  -19.5782  -26.6377   21.5213 C   0  0  0  0  0  0
  -18.1964  -26.7946   22.1625 C   0  0  0  0  0  0
  -19.1598  -28.8914   23.2792 C   0  0  0  0  0  0
  -18.9495  -30.1499   23.8839 C   0  0  0  0  0  0
  -17.6478  -30.6592   24.0553 C   0  0  0  0  0  0
  -25.9113  -34.9328   23.4991 C   0  0  0  0  0  0
  -16.5375  -29.9077   23.6340 C   0  0  0  0  0  0
  -16.7312  -28.6503   23.0347 C   0  0  0  0  0  0
  -26.4553  -31.6522   25.0699 C   0  0  0  0  0  0
  -25.3655  -31.3782   26.1342 C   0  0  0  0  0  0
  -27.0448  -30.2883   24.6463 C   0  0  0  0  0  0
  -27.6035  -32.4349   25.7504 C   0  0  0  0  0  0
  -27.5574  -37.1767   24.8446 C   0  0  0  0  0  0
  -21.4376  -29.3042   22.3507 N   0  0  0  0  0  0
  -26.4281  -37.3681   23.9387 N   0  0  0  0  0  0
  -24.7639  -30.9760   22.0803 N   0  0  0  0  0  0
  -23.4229  -28.7973   23.3028 O   0  0  0  0  0  0
  -28.2180  -25.7242   20.1848 O   0  0  0  0  0  0
  -26.5754  -34.8867   22.4614 O   0  0  0  0  0  0
  -23.5771  -32.1146   23.6684 O   0  0  0  0  0  0
  -29.0718  -19.9918   18.6207 C   0  0  0  0  0  0
  -28.5567  -22.3330   18.5728 C   0  0  0  0  0  0
  -29.1850  -19.8931   20.0260 C   0  0  0  0  0  0
  -28.5922  -22.5251   19.9724 C   0  0  0  0  0  0
  -29.7721  -18.3383   20.6778 C   0  0  0  0  0  0
  -27.9855  -24.0987   20.5555 C   0  0  0  0  0  0
  -28.7800  -21.1409   17.9374 N   0  0  0  0  0  0
  -28.9182  -21.2283   20.6612 N   0  0  0  0  0  0
  -29.6119  -16.6661   20.3606 N   0  0  0  0  0  0
  -31.4416  -13.1206   19.1686 H   0  0  0  0  0  0
  -30.5258  -12.0088   20.1394 H   0  0  0  0  0  0
  -29.9373  -11.7543   17.7134 H   0  0  0  0  0  0
  -29.5467  -13.4550   17.6052 H   0  0  0  0  0  0
  -28.0517  -11.2816   19.0774 H   0  0  0  0  0  0
  -27.4191  -12.3462   17.8447 H   0  0  0  0  0  0
  -27.4976  -14.2378   19.2880 H   0  0  0  0  0  0
  -28.8290  -12.5866   21.4855 H   0  0  0  0  0  0
  -28.2455  -14.2262   21.6543 H   0  0  0  0  0  0
  -25.2775   -9.5651   22.4756 H   0  0  0  0  0  0
  -23.9982   -7.4638   22.7534 H   0  0  0  0  0  0
  -21.0816   -8.8753   19.8990 H   0  0  0  0  0  0
  -22.3708  -10.9635   19.6154 H   0  0  0  0  0  0
  -21.2042   -7.6148   23.9692 H   0  0  0  0  0  0
  -21.1486   -6.0527   25.9052 H   0  0  0  0  0  0
  -22.0595   -2.7593   23.2873 H   0  0  0  0  0  0
  -22.4052  -11.9830   22.4824 H   0  0  0  0  0  0
  -21.1010  -13.1134   22.2689 H   0  0  0  0  0  0
  -24.6177  -15.8420   20.5277 H   0  0  0  0  0  0
  -26.2197  -15.6401   20.0325 H   0  0  0  0  0  0
  -26.7429  -32.5073   23.0865 H   0  0  0  0  0  0
  -24.9987  -33.9436   25.0088 H   0  0  0  0  0  0
  -22.8059  -31.2578   21.3331 H   0  0  0  0  0  0
  -23.3770  -35.9563   23.3270 H   0  0  0  0  0  0
  -24.3591  -36.8922   22.2064 H   0  0  0  0  0  0
  -23.7299  -37.6400   23.6748 H   0  0  0  0  0  0
  -26.2512  -31.3292   20.6158 H   0  0  0  0  0  0
  -26.9239  -30.6654   22.0580 H   0  0  0  0  0  0
  -28.1698  -28.5394   21.2662 H   0  0  0  0  0  0
  -25.8638  -25.6892   19.0159 H   0  0  0  0  0  0
  -24.0030  -27.2386   18.9688 H   0  0  0  0  0  0
  -23.8959  -30.4926   19.3812 H   0  0  0  0  0  0
  -22.8413  -29.1866   19.8312 H   0  0  0  0  0  0
  -25.1362  -36.1720   25.0777 H   0  0  0  0  0  0
  -21.0047  -28.3394   24.1282 H   0  0  0  0  0  0
  -20.5677  -26.2396   23.3661 H   0  0  0  0  0  0
  -21.6675  -26.7398   22.1203 H   0  0  0  0  0  0
  -19.6929  -25.6268   21.1277 H   0  0  0  0  0  0
  -19.6716  -27.3172   20.6727 H   0  0  0  0  0  0
  -17.4230  -26.6678   21.4036 H   0  0  0  0  0  0
  -18.0348  -26.0116   22.9050 H   0  0  0  0  0  0
  -19.7959  -30.7339   24.2180 H   0  0  0  0  0  0
  -17.5019  -31.6258   24.5186 H   0  0  0  0  0  0
  -15.5366  -30.2951   23.7688 H   0  0  0  0  0  0
  -15.8724  -28.0806   22.7075 H   0  0  0  0  0  0
  -24.5863  -30.7109   25.7642 H   0  0  0  0  0  0
  -24.8800  -32.2983   26.4609 H   0  0  0  0  0  0
  -25.7857  -30.9045   27.0228 H   0  0  0  0  0  0
  -26.3125  -29.6566   24.1423 H   0  0  0  0  0  0
  -27.3917  -29.7231   25.5121 H   0  0  0  0  0  0
  -27.9104  -30.4069   23.9940 H   0  0  0  0  0  0
  -27.2591  -33.3691   26.1963 H   0  0  0  0  0  0
  -28.3902  -32.6853   25.0374 H   0  0  0  0  0  0
  -28.0669  -31.8567   26.5510 H   0  0  0  0  0  0
  -28.2548  -38.0099   24.7494 H   0  0  0  0  0  0
  -28.1125  -36.2625   24.6292 H   0  0  0  0  0  0
  -27.2298  -37.1428   25.8848 H   0  0  0  0  0  0
  -20.9659  -29.8740   21.6627 H   0  0  0  0  0  0
  -26.0132  -38.2748   24.1357 H   0  0  0  0  0  0
  -29.2606  -19.1204   18.0102 H   0  0  0  0  0  0
  -28.2730  -23.1551   17.9320 H   0  0  0  0  0  0
  -29.4967  -18.4085   21.7304 H   0  0  0  0  0  0
  -30.8531  -18.4816   20.6872 H   0  0  0  0  0  0
  -28.1552  -24.0577   21.6302 H   0  0  0  0  0  0
  -26.9069  -23.9757   20.4632 H   0  0  0  0  0  0
  -28.6334  -16.4431   20.2532 H   0  0  0  0  0  0
  1 25  1  0  0  0
  1 30  2  0  0  0
  1 79  1  0  0  0
  2  3  1  0  0  0
  2 25  1  0  0  0
  2 80  1  0  0  0
  2 81  1  0  0  0
  3  4  1  0  0  0
  3 82  1  0  0  0
  3 83  1  0  0  0
  4  5  1  0  0  0
  4 84  1  0  0  0
  4 85  1  0  0  0
  5  6  1  0  0  0
  5 26  1  0  0  0
  5 86  1  0  0  0
  6 25  1  0  0  0
  6 87  1  0  0  0
  6 88  1  0  0  0
  7  8  2  0  0  0
  7 26  1  0  0  0
  7 29  1  0  0  0
  8  9  1  0  0  0
  8 22  1  0  0  0
  9 10  1  0  0  0
  9 27  2  0  0  0
 10 11  2  0  0  0
 10 15  1  0  0  0
 11 12  1  0  0  0
 11 89  1  0  0  0
 12 13  2  0  0  0
 12 90  1  0  0  0
 13 14  1  0  0  0
 13 31  1  0  0  0
 14 15  2  0  0  0
 14 91  1  0  0  0
 15 92  1  0  0  0
 16 17  2  0  0  0
 16 21  1  0  0  0
 16 31  1  0  0  0
 17 18  1  0  0  0
 17 93  1  0  0  0
 18 19  2  0  0  0
 18 94  1  0  0  0
 19 20  1  0  0  0
 19 24  1  0  0  0
 20 21  2  0  0  0
 20 95  1  0  0  0
 21 23  1  0  0  0
 22 28  1  0  0  0
 22 32  2  0  0  0
 26 27  1  0  0  0
 28 96  1  0  0  0
 28 97  1  0  0  0
 29 98  1  0  0  0
 29 99  1  0  0  0
 33 34  1  0  0  0
 33 66  1  0  0  0
 33 70  2  0  0  0
 34 36  1  0  0  0
 34 59  1  0  0  0
 34100  1  0  0  0
 35 44  2  0  0  0
 35 45  1  0  0  0
 35 68  1  0  0  0
 36 56  1  0  0  0
 36101  1  0  0  0
 37 39  1  0  0  0
 37 47  1  0  0  0
 37 66  1  0  0  0
 37102  1  0  0  0
 38 43  2  0  0  0
 38 46  1  0  0  0
 38 47  1  0  0  0
 39 64  1  0  0  0
 39 67  2  0  0  0
 40 52  1  0  0  0
 40 53  2  0  0  0
 40 58  1  0  0  0
 41103  1  0  0  0
 41104  1  0  0  0
 41105  1  0  0  0
 41 48  1  0  0  0
 42 43  1  0  0  0
 42 66  1  0  0  0
 42106  1  0  0  0
 42107  1  0  0  0
 43 44  1  0  0  0
 44108  1  0  0  0
 45 46  2  0  0  0
 45109  1  0  0  0
 46110  1  0  0  0
 47111  1  0  0  0
 47112  1  0  0  0
 48 56  1  0  0  0
 48 65  1  0  0  0
 48113  1  0  0  0
 49 50  1  0  0  0
 49 53  1  0  0  0
 49 64  1  0  0  0
 49114  1  0  0  0
 50 51  1  0  0  0
 50115  1  0  0  0
 50116  1  0  0  0
 51 52  1  0  0  0
 51117  1  0  0  0
 51118  1  0  0  0
 52119  1  0  0  0
 52120  1  0  0  0
 53 54  1  0  0  0
 54 55  2  0  0  0
 54121  1  0  0  0
 55 57  1  0  0  0
 55122  1  0  0  0
 56 69  2  0  0  0
 57 58  2  0  0  0
 57123  1  0  0  0
 58124  1  0  0  0
 59 60  1  0  0  0
 59 61  1  0  0  0
 59 62  1  0  0  0
 60125  1  0  0  0
 60126  1  0  0  0
 60127  1  0  0  0
 61128  1  0  0  0
 61129  1  0  0  0
 61130  1  0  0  0
 62131  1  0  0  0
 62132  1  0  0  0
 62133  1  0  0  0
 63 65  1  0  0  0
 63134  1  0  0  0
 63135  1  0  0  0
 63136  1  0  0  0
 64137  1  0  0  0
 65138  1  0  0  0
 68 76  1  0  0  0
 71 73  2  0  0  0
 71 77  1  0  0  0
 71139  1  0  0  0
 72 74  1  0  0  0
 72 77  2  0  0  0
 72140  1  0  0  0
 73 75  1  0  0  0
 73 78  1  0  0  0
 74 76  1  0  0  0
 74 78  2  0  0  0
 75 79  1  0  0  0
 75141  1  0  0  0
 75142  1  0  0  0
 76143  1  0  0  0
 76144  1  0  0  0
 79145  1  0  0  0
M  ISO  4   1 100  68 101  76 101  79 100
M  END
> <chiral flag>
0

> <version>
0

> <s_m_source_file>
/data/baiqing/PycharmProjects/Reinvent-master-3.2/result/LINK_invent/BTK/process_docking_weight1_custom_sum_contain_oxygen_bond_distance_aromatic_linkinvent_7_9_3/rearranged_h_0059.sdf

> <i_m_source_file_index>
4

> <r_mmod_Potential_Energy-OPLS-2005>
1589.69372558594

> <r_mmod_Stretch_Energy-OPLS-2005>
702.657958984375

> <r_mmod_Bend_Energy-OPLS-2005>
493.006134033203

> <r_mmod_Torsional_Energy-OPLS-2005>
234.89241027832

> <r_mmod_Improper_Torsional_Energy-OPLS-2005>
6.64729690551758

> <r_mmod_Van_der_Waal_Energy-OPLS-2005>
121.528007507324

> <r_mmod_Electrostatic_Energy-OPLS-2005>
-303.332366943359

> <r_mmod_Solvation_Energy-OPLS-2005>
-240.911651611328

> <b_mmod_Minimization_Converged-OPLS-2005>
0

> <r_mmod_RMS_Derivative-OPLS-2005>
2.4058358669281

$$$$
4
                    3D
 Structure written by MMmdl.
178186  0  0  1  0            999 V2000
  -30.6389  -14.7524   20.4902 C   0  0  0  0  0  0
  -30.4313  -12.4554   19.5333 C   0  0  0  0  0  0
  -29.5430  -12.4744   18.2604 C   0  0  0  0  0  0
  -28.0452  -12.7280   18.5394 C   0  0  0  0  0  0
  -27.7219  -12.7014   20.0377 C   0  0  2  0  0  0
  -28.6935  -13.2798   21.0667 C   0  0  0  0  0  0
  -25.3266  -13.7385   20.5661 C   0  0  0  0  0  0
  -24.1952  -13.0379   20.9406 C   0  0  0  0  0  0
  -24.5728  -11.6595   20.9209 C   0  0  0  0  0  0
  -23.8369  -10.4113   21.0734 C   0  0  0  0  0  0
  -24.3163   -9.3803   21.9123 C   0  0  0  0  0  0
  -23.5885   -8.1789   22.0443 C   0  0  0  0  0  0
  -22.3820   -8.0079   21.3300 C   0  0  0  0  0  0
  -21.9410   -9.0087   20.4447 C   0  0  0  0  0  0
  -22.6684  -10.2115   20.3169 C   0  0  0  0  0  0
  -21.6607   -6.0724   22.5156 C   0  0  0  0  0  0
  -21.3930   -6.5752   23.8147 C   0  0  0  0  0  0
  -21.3698   -5.6957   24.9189 C   0  0  0  0  0  0
  -21.6119   -4.3195   24.7237 C   0  0  0  0  0  0
  -21.8794   -3.8239   23.4392 C   0  0  0  0  0  0
  -21.8990   -4.6968   22.3388 C   0  0  0  0  0  0
  -22.7994  -13.5475   21.1811 C   0  0  0  0  0  0
  -22.1524   -4.2197   21.0954 F   0  0  0  0  0  0
  -21.5734   -3.4688   25.7772 F   0  0  0  0  0  0
  -29.9963  -13.5430   20.4431 N   0  0  0  0  0  0
  -26.3126  -12.7565   20.3972 N   0  0  0  0  0  0
  -25.8354  -11.5298   20.6268 N   0  0  0  0  0  0
  -22.0392  -12.8646   22.0314 N   0  0  0  0  0  0
  -25.5831  -15.0934   20.3372 N   0  0  0  0  0  0
  -31.7772  -14.8601   20.0324 O   0  0  0  0  0  0
  -21.6178   -6.8728   21.4102 O   0  0  0  0  0  0
  -22.3726  -14.5624   20.6319 O   0  0  0  0  0  0
  -24.6488  -31.8481   23.1961 C   0  0  0  0  0  0
  -25.9272  -32.4662   23.8315 C   0  0  1  0  0  0
  -27.2085  -27.2350   20.1136 C   0  0  0  0  0  0
  -25.5982  -33.8478   24.2153 N   0  0  0  0  0  0
  -23.4396  -30.4802   21.5420 C   0  0  2  0  0  0
  -24.8723  -28.9237   20.1061 C   0  0  0  0  0  0
  -22.7560  -29.4621   22.4860 C   0  0  0  0  0  0
  -18.0310  -28.1510   22.8374 C   0  0  0  0  0  0
  -24.1521  -36.7267   23.2663 C   0  0  0  0  0  0
  -25.9867  -30.7596   21.3614 C   0  0  0  0  0  0
  -26.0518  -29.3800   20.7037 C   0  0  0  0  0  0
  -27.2272  -28.5559   20.6881 C   0  0  0  0  0  0
  -26.0031  -26.8478   19.4951 C   0  0  0  0  0  0
  -24.8514  -27.6594   19.4885 C   0  0  0  0  0  0
  -23.6489  -29.8281   20.1534 C   0  0  0  0  0  0
  -25.4124  -36.2988   24.0326 C   0  0  1  0  0  0
  -20.5922  -28.3773   23.1196 C   0  0  2  0  0  0
  -20.6791  -26.9447   22.5383 C   0  0  0  0  0  0
  -19.5749  -26.6446   21.5186 C   0  0  0  0  0  0
  -18.1950  -26.8015   22.1618 C   0  0  0  0  0  0
  -19.1570  -28.8943   23.2741 C   0  0  0  0  0  0
  -18.9482  -30.1551   23.8740 C   0  0  0  0  0  0
  -17.6456  -30.6592   24.0621 C   0  0  0  0  0  0
  -25.9075  -34.9397   23.5049 C   0  0  0  0  0  0
  -16.5336  -29.9088   23.6338 C   0  0  0  0  0  0
  -16.7296  -28.6598   23.0175 C   0  0  0  0  0  0
  -26.4530  -31.6544   25.0777 C   0  0  0  0  0  0
  -25.3708  -31.3758   26.1465 C   0  0  0  0  0  0
  -27.0458  -30.2979   24.6349 C   0  0  0  0  0  0
  -27.6112  -32.4329   25.7476 C   0  0  0  0  0  0
  -27.5529  -37.1797   24.8424 C   0  0  0  0  0  0
  -21.4299  -29.3046   22.3570 N   0  0  0  0  0  0
  -26.4208  -37.3729   23.9434 N   0  0  0  0  0  0
  -24.7150  -31.0538   22.0887 N   0  0  0  0  0  0
  -23.4206  -28.8193   23.3050 O   0  0  0  0  0  0
  -28.3195  -26.3512   20.1848 O   0  0  0  0  0  0
  -26.5703  -34.8897   22.4630 O   0  0  0  0  0  0
  -23.5641  -32.1229   23.7260 O   0  0  0  0  0  0
  -29.2992  -18.3786   21.0086 C   0  0  0  0  0  0
  -29.6258  -17.1468   20.4212 C   0  0  0  0  0  0
  -28.6610  -18.4440   18.8654 C   0  0  0  0  0  0
  -25.3534  -20.1164   20.0695 C   0  0  0  0  0  0
  -28.4529  -19.5869   16.5203 C   0  0  0  0  0  0
  -26.4243  -18.2477   17.5097 C   0  0  0  0  0  0
  -28.3853  -17.1283   16.6313 C   0  0  0  0  0  0
  -29.3098  -23.9721   21.8613 C   0  0  0  0  0  0
  -26.8839  -23.6893   21.4286 C   0  0  0  0  0  0
  -27.5946  -20.5763   21.9046 C   0  0  0  0  0  0
  -26.6486  -20.8136   19.5695 C   0  0  0  0  0  0
  -28.7400  -22.1021   20.1637 C   0  0  0  0  0  0
  -28.3365  -24.8963   19.7280 C   0  0  0  0  0  0
  -27.9868  -18.4255   17.4506 C   0  0  0  0  0  0
  -28.2859  -23.6170   20.7487 C   0  0  0  0  0  0
  -27.9641  -20.6422   20.3883 C   0  0  1  0  0  0
  -28.6619  -19.2131   20.0445 N   0  0  0  0  0  0
  -29.3737  -17.3253   19.1117 N   0  3  0  0  0  0
  -29.9649  -15.8402   21.0149 N   0  0  0  0  0  0
  -31.4862  -12.5241   19.2570 H   0  0  0  0  0  0
  -30.3565  -11.4997   20.0500 H   0  0  0  0  0  0
  -29.6799  -11.5296   17.7249 H   0  0  0  0  0  0
  -29.9031  -13.2492   17.5830 H   0  0  0  0  0  0
  -27.4262  -12.0026   18.0062 H   0  0  0  0  0  0
  -27.7596  -13.6976   18.1330 H   0  0  0  0  0  0
  -27.9941  -11.6523   20.1829 H   0  0  0  0  0  0
  -28.8233  -12.6206   21.9292 H   0  0  0  0  0  0
  -28.2354  -14.1760   21.4758 H   0  0  0  0  0  0
  -25.2522   -9.4939   22.4449 H   0  0  0  0  0  0
  -23.9683   -7.3891   22.6766 H   0  0  0  0  0  0
  -21.0470   -8.8591   19.8536 H   0  0  0  0  0  0
  -22.3139  -10.9829   19.6420 H   0  0  0  0  0  0
  -21.2040   -7.6284   23.9616 H   0  0  0  0  0  0
  -21.1802   -6.0891   25.9118 H   0  0  0  0  0  0
  -22.0632   -2.7727   23.2986 H   0  0  0  0  0  0
  -22.3931  -12.0345   22.4985 H   0  0  0  0  0  0
  -21.0973  -13.1724   22.2193 H   0  0  0  0  0  0
  -24.7721  -15.6960   20.2944 H   0  0  0  0  0  0
  -26.1586  -15.2558   19.5197 H   0  0  0  0  0  0
  -26.7448  -32.5294   23.1161 H   0  0  0  0  0  0
  -25.0034  -33.9564   25.0235 H   0  0  0  0  0  0
  -22.7349  -31.3027   21.3973 H   0  0  0  0  0  0
  -23.3697  -35.9661   23.3236 H   0  0  0  0  0  0
  -24.3614  -36.8977   22.2087 H   0  0  0  0  0  0
  -23.7331  -37.6502   23.6695 H   0  0  0  0  0  0
  -26.1324  -31.5135   20.5945 H   0  0  0  0  0  0
  -26.8661  -30.8111   21.9905 H   0  0  0  0  0  0
  -28.1366  -28.9126   21.1496 H   0  0  0  0  0  0
  -25.9108  -25.8859   19.0228 H   0  0  0  0  0  0
  -23.9526  -27.2990   19.0177 H   0  0  0  0  0  0
  -23.8013  -30.6206   19.4171 H   0  0  0  0  0  0
  -22.7559  -29.2953   19.8227 H   0  0  0  0  0  0
  -25.1307  -36.1756   25.0797 H   0  0  0  0  0  0
  -20.9945  -28.3444   24.1352 H   0  0  0  0  0  0
  -20.5722  -26.2376   23.3649 H   0  0  0  0  0  0
  -21.6682  -26.7498   22.1182 H   0  0  0  0  0  0
  -19.6915  -25.6355   21.1237 H   0  0  0  0  0  0
  -19.6776  -27.3266   20.6736 H   0  0  0  0  0  0
  -17.4235  -26.6659   21.4043 H   0  0  0  0  0  0
  -18.0368  -26.0254   22.9124 H   0  0  0  0  0  0
  -19.7943  -30.7465   24.1986 H   0  0  0  0  0  0
  -17.4998  -31.6250   24.5329 H   0  0  0  0  0  0
  -15.5329  -30.2948   23.7786 H   0  0  0  0  0  0
  -15.8728  -28.1051   22.6663 H   0  0  0  0  0  0
  -24.5819  -30.7189   25.7715 H   0  0  0  0  0  0
  -24.8970  -32.2983   26.4878 H   0  0  0  0  0  0
  -25.7978  -30.8902   27.0247 H   0  0  0  0  0  0
  -26.3167  -29.6636   24.1308 H   0  0  0  0  0  0
  -27.4053  -29.7287   25.4912 H   0  0  0  0  0  0
  -27.9010  -30.4236   23.9712 H   0  0  0  0  0  0
  -27.2731  -33.3631   26.2024 H   0  0  0  0  0  0
  -28.3867  -32.6874   25.0239 H   0  0  0  0  0  0
  -28.0827  -31.8479   26.5363 H   0  0  0  0  0  0
  -28.2538  -38.0113   24.7456 H   0  0  0  0  0  0
  -28.1045  -36.2634   24.6236 H   0  0  0  0  0  0
  -27.2257  -37.1449   25.8833 H   0  0  0  0  0  0
  -20.9483  -29.8735   21.6751 H   0  0  0  0  0  0
  -26.0045  -38.2759   24.1511 H   0  0  0  0  0  0
  -29.3975  -18.6656   22.0409 H   0  0  0  0  0  0
  -24.5739  -20.0975   19.3006 H   0  0  0  0  0  0
  -24.9403  -20.6649   20.9171 H   0  0  0  0  0  0
  -25.5250  -19.0813   20.3841 H   0  0  0  0  0  0
  -28.2480  -20.5931   16.8867 H   0  0  0  0  0  0
  -27.9599  -19.5080   15.5511 H   0  0  0  0  0  0
  -29.5243  -19.5381   16.3041 H   0  0  0  0  0  0
  -26.1136  -17.5670   18.3079 H   0  0  0  0  0  0
  -26.0379  -17.7790   16.6000 H   0  0  0  0  0  0
  -25.8489  -19.1666   17.5834 H   0  0  0  0  0  0
  -27.9634  -17.1421   15.6240 H   0  0  0  0  0  0
  -27.9801  -16.2100   17.0771 H   0  0  0  0  0  0
  -29.4542  -16.9957   16.4695 H   0  0  0  0  0  0
  -29.3829  -23.1789   22.6051 H   0  0  0  0  0  0
  -29.0309  -24.8797   22.3894 H   0  0  0  0  0  0
  -30.3209  -24.1492   21.4794 H   0  0  0  0  0  0
  -26.8970  -23.2962   22.4475 H   0  0  0  0  0  0
  -26.0555  -23.2228   20.8944 H   0  0  0  0  0  0
  -26.5974  -24.7315   21.5432 H   0  0  0  0  0  0
  -26.7430  -21.2101   22.1432 H   0  0  0  0  0  0
  -28.4142  -20.9032   22.5548 H   0  0  0  0  0  0
  -27.2846  -19.5847   22.2376 H   0  0  0  0  0  0
  -26.4150  -21.8680   19.4429 H   0  0  0  0  0  0
  -26.9028  -20.5954   18.5487 H   0  0  0  0  0  0
  -29.7718  -21.9588   20.4882 H   0  0  0  0  0  0
  -28.8502  -22.2278   19.0870 H   0  0  0  0  0  0
  -29.3019  -24.8103   19.2168 H   0  0  0  0  0  0
  -27.6188  -24.7361   18.9263 H   0  0  0  0  0  0
  -29.5893  -16.6496   18.3842 H   0  0  0  0  0  0
  -29.2624  -15.5079   21.6579 H   0  0  0  0  0  0
  1 25  1  0  0  0
  1 30  2  0  0  0
  1 89  1  0  0  0
  2  3  1  0  0  0
  2 25  1  0  0  0
  2 90  1  0  0  0
  2 91  1  0  0  0
  3  4  1  0  0  0
  3 92  1  0  0  0
  3 93  1  0  0  0
  4  5  1  0  0  0
  4 94  1  0  0  0
  4 95  1  0  0  0
  5  6  1  0  0  0
  5 26  1  0  0  0
  5 96  1  0  0  0
  6 25  1  0  0  0
  6 97  1  0  0  0
  6 98  1  0  0  0
  7  8  2  0  0  0
  7 26  1  0  0  0
  7 29  1  0  0  0
  8  9  1  0  0  0
  8 22  1  0  0  0
  9 10  1  0  0  0
  9 27  2  0  0  0
 10 11  2  0  0  0
 10 15  1  0  0  0
 11 12  1  0  0  0
 11 99  1  0  0  0
 12 13  2  0  0  0
 12100  1  0  0  0
 13 14  1  0  0  0
 13 31  1  0  0  0
 14 15  2  0  0  0
 14101  1  0  0  0
 15102  1  0  0  0
 16 17  2  0  0  0
 16 21  1  0  0  0
 16 31  1  0  0  0
 17 18  1  0  0  0
 17103  1  0  0  0
 18 19  2  0  0  0
 18104  1  0  0  0
 19 20  1  0  0  0
 19 24  1  0  0  0
 20 21  2  0  0  0
 20105  1  0  0  0
 21 23  1  0  0  0
 22 28  1  0  0  0
 22 32  2  0  0  0
 26 27  1  0  0  0
 28106  1  0  0  0
 28107  1  0  0  0
 29108  1  0  0  0
 29109  1  0  0  0
 33 34  1  0  0  0
 33 66  1  0  0  0
 33 70  2  0  0  0
 34 36  1  0  0  0
 34 59  1  0  0  0
 34110  1  0  0  0
 35 44  2  0  0  0
 35 45  1  0  0  0
 35 68  1  0  0  0
 36 56  1  0  0  0
 36111  1  0  0  0
 37 39  1  0  0  0
 37 47  1  0  0  0
 37 66  1  0  0  0
 37112  1  0  0  0
 38 43  2  0  0  0
 38 46  1  0  0  0
 38 47  1  0  0  0
 39 64  1  0  0  0
 39 67  2  0  0  0
 40 52  1  0  0  0
 40 53  2  0  0  0
 40 58  1  0  0  0
 41113  1  0  0  0
 41114  1  0  0  0
 41115  1  0  0  0
 41 48  1  0  0  0
 42 43  1  0  0  0
 42 66  1  0  0  0
 42116  1  0  0  0
 42117  1  0  0  0
 43 44  1  0  0  0
 44118  1  0  0  0
 45 46  2  0  0  0
 45119  1  0  0  0
 46120  1  0  0  0
 47121  1  0  0  0
 47122  1  0  0  0
 48 56  1  0  0  0
 48 65  1  0  0  0
 48123  1  0  0  0
 49 50  1  0  0  0
 49 53  1  0  0  0
 49 64  1  0  0  0
 49124  1  0  0  0
 50 51  1  0  0  0
 50125  1  0  0  0
 50126  1  0  0  0
 51 52  1  0  0  0
 51127  1  0  0  0
 51128  1  0  0  0
 52129  1  0  0  0
 52130  1  0  0  0
 53 54  1  0  0  0
 54 55  2  0  0  0
 54131  1  0  0  0
 55 57  1  0  0  0
 55132  1  0  0  0
 56 69  2  0  0  0
 57 58  2  0  0  0
 57133  1  0  0  0
 58134  1  0  0  0
 59 60  1  0  0  0
 59 61  1  0  0  0
 59 62  1  0  0  0
 60135  1  0  0  0
 60136  1  0  0  0
 60137  1  0  0  0
 61138  1  0  0  0
 61139  1  0  0  0
 61140  1  0  0  0
 62141  1  0  0  0
 62142  1  0  0  0
 62143  1  0  0  0
 63 65  1  0  0  0
 63144  1  0  0  0
 63145  1  0  0  0
 63146  1  0  0  0
 64147  1  0  0  0
 65148  1  0  0  0
 68 83  1  0  0  0
 71 72  2  0  0  0
 71 87  1  0  0  0
 71149  1  0  0  0
 72 88  1  0  0  0
 72 89  1  0  0  0
 73 84  1  0  0  0
 73 87  1  0  0  0
 73 88  2  0  0  0
 74 81  1  0  0  0
 74150  1  0  0  0
 74151  1  0  0  0
 74152  1  0  0  0
 75153  1  0  0  0
 75154  1  0  0  0
 75155  1  0  0  0
 75 84  1  0  0  0
 76 84  1  0  0  0
 76156  1  0  0  0
 76157  1  0  0  0
 76158  1  0  0  0
 77 84  1  0  0  0
 77159  1  0  0  0
 77160  1  0  0  0
 77161  1  0  0  0
 78162  1  0  0  0
 78163  1  0  0  0
 78164  1  0  0  0
 78 85  1  0  0  0
 79 85  1  0  0  0
 79165  1  0  0  0
 79166  1  0  0  0
 79167  1  0  0  0
 80168  1  0  0  0
 80169  1  0  0  0
 80170  1  0  0  0
 80 86  1  0  0  0
 81 86  1  0  0  0
 81171  1  0  0  0
 81172  1  0  0  0
 82 85  1  0  0  0
 82 86  1  0  0  0
 82173  1  0  0  0
 82174  1  0  0  0
 83 85  1  0  0  0
 83175  1  0  0  0
 83176  1  0  0  0
 86 87  1  0  0  0
 88177  1  0  0  0
 89178  1  0  0  0
M  CHG  1  88   1
M  ISO  4   1 100  68 101  83 101  89 100
M  END
> <chiral flag>
0

> <version>
0

> <s_m_source_file>
/data/baiqing/PycharmProjects/Reinvent-master-3.2/result/LINK_invent/BTK/process_docking_weight1_custom_sum_contain_oxygen_bond_distance_aromatic_linkinvent_7_9_3/rearranged_h_0059.sdf

> <i_m_source_file_index>
5

> <r_mmod_Potential_Energy-OPLS-2005>
620.341003417969

> <r_mmod_Stretch_Energy-OPLS-2005>
215.370422363281

> <r_mmod_Bend_Energy-OPLS-2005>
352.150115966797

> <r_mmod_Torsional_Energy-OPLS-2005>
393.815979003906

> <r_mmod_Improper_Torsional_Energy-OPLS-2005>
12.0810384750366

> <r_mmod_Van_der_Waal_Energy-OPLS-2005>
152.814163208008

> <r_mmod_Electrostatic_Energy-OPLS-2005>
-271.946655273438

> <r_mmod_Solvation_Energy-OPLS-2005>
-390.500579833984

> <b_mmod_Minimization_Converged-OPLS-2005>
0

> <r_mmod_RMS_Derivative-OPLS-2005>
15.3340148925781

$$$$
5
                    3D
 Structure written by MMmdl.
168176  0  0  1  0            999 V2000
  -30.7132  -14.4140   20.5922 C   0  0  0  0  0  0
  -30.4187  -12.2773   19.4097 C   0  0  0  0  0  0
  -29.4925  -12.5063   18.1979 C   0  0  0  0  0  0
  -28.0107  -12.3789   18.6076 C   0  0  0  0  0  0
  -27.6657  -13.2019   19.8778 C   0  0  2  0  0  0
  -28.7045  -12.9481   20.9940 C   0  0  0  0  0  0
  -25.2627  -13.8166   20.5680 C   0  0  0  0  0  0
  -24.1858  -13.0448   20.9168 C   0  0  0  0  0  0
  -24.6398  -11.6913   20.8714 C   0  0  0  0  0  0
  -23.9065  -10.4304   21.0393 C   0  0  0  0  0  0
  -24.3623   -9.4223   21.9171 C   0  0  0  0  0  0
  -23.6302   -8.2255   22.0744 C   0  0  0  0  0  0
  -22.4282   -8.0293   21.3542 C   0  0  0  0  0  0
  -21.9915   -9.0266   20.4649 C   0  0  0  0  0  0
  -22.7238  -10.2146   20.3054 C   0  0  0  0  0  0
  -21.6854   -6.0746   22.5274 C   0  0  0  0  0  0
  -21.4012   -6.5643   23.8211 C   0  0  0  0  0  0
  -21.3658   -5.6791   24.9167 C   0  0  0  0  0  0
  -21.6039   -4.3055   24.7208 C   0  0  0  0  0  0
  -21.8820   -3.8154   23.4326 C   0  0  0  0  0  0
  -21.9195   -4.6973   22.3388 C   0  0  0  0  0  0
  -22.7878  -13.5265   21.1823 C   0  0  0  0  0  0
  -22.1666   -4.2159   21.0962 F   0  0  0  0  0  0
  -21.5634   -3.4539   25.7720 F   0  0  0  0  0  0
  -30.0397  -13.2450   20.4484 N   0  0  0  0  0  0
  -26.3056  -12.9321   20.3391 N   0  0  0  0  0  0
  -25.9330  -11.6482   20.5765 N   0  0  0  0  0  0
  -22.0514  -12.8269   22.0388 N   0  0  0  0  0  0
  -25.4398  -15.1870   20.4074 N   0  0  0  0  0  0
  -31.8188  -14.6227   20.0855 O   0  0  0  0  0  0
  -21.6639   -6.8894   21.4242 O   0  0  0  0  0  0
  -22.3550  -14.5556   20.6663 O   0  0  0  0  0  0
  -24.6095  -31.8718   23.2097 C   0  0  0  0  0  0
  -25.9020  -32.4824   23.8392 C   0  0  1  0  0  0
  -27.2382  -27.4616   20.0870 C   0  0  0  0  0  0
  -25.5926  -33.8623   24.2355 N   0  0  0  0  0  0
  -23.3954  -30.4910   21.5512 C   0  0  2  0  0  0
  -24.8377  -28.9534   20.1161 C   0  0  0  0  0  0
  -22.7381  -29.4668   22.5027 C   0  0  0  0  0  0
  -18.0267  -28.1389   22.8496 C   0  0  0  0  0  0
  -24.1525  -36.7276   23.2642 C   0  0  0  0  0  0
  -25.9183  -30.8413   21.3577 C   0  0  0  0  0  0
  -25.9942  -29.4753   20.7084 C   0  0  0  0  0  0
  -27.1914  -28.7335   20.6935 C   0  0  0  0  0  0
  -26.0648  -26.9400   19.4950 C   0  0  0  0  0  0
  -24.8667  -27.6825   19.5112 C   0  0  0  0  0  0
  -23.5990  -29.8185   20.1660 C   0  0  0  0  0  0
  -25.4145  -36.3107   24.0357 C   0  0  1  0  0  0
  -20.5852  -28.3659   23.1371 C   0  0  2  0  0  0
  -20.6764  -26.9411   22.5453 C   0  0  0  0  0  0
  -19.5747  -26.6398   21.5245 C   0  0  0  0  0  0
  -18.1920  -26.7940   22.1636 C   0  0  0  0  0  0
  -19.1522  -28.8842   23.2929 C   0  0  0  0  0  0
  -18.9448  -30.1446   23.8931 C   0  0  0  0  0  0
  -17.6450  -30.6600   24.0573 C   0  0  0  0  0  0
  -25.9059  -34.9474   23.5151 C   0  0  0  0  0  0
  -16.5339  -29.9106   23.6317 C   0  0  0  0  0  0
  -16.7260  -28.6532   23.0330 C   0  0  0  0  0  0
  -26.4418  -31.6545   25.0690 C   0  0  0  0  0  0
  -25.3708  -31.3717   26.1479 C   0  0  0  0  0  0
  -27.0148  -30.2966   24.5989 C   0  0  0  0  0  0
  -27.6029  -32.4175   25.7493 C   0  0  0  0  0  0
  -27.5616  -37.1790   24.8480 C   0  0  0  0  0  0
  -21.4121  -29.3016   22.3764 N   0  0  0  0  0  0
  -26.4339  -37.3778   23.9411 N   0  0  0  0  0  0
  -24.6591  -31.0832   22.0979 N   0  0  0  0  0  0
  -23.4175  -28.8212   23.3065 O   0  0  0  0  0  0
  -28.4490  -26.8119   20.0950 O   0  0  0  0  0  0
  -26.5609  -34.8918   22.4703 O   0  0  0  0  0  0
  -23.5310  -32.1466   23.7523 O   0  0  0  0  0  0
  -31.2394  -23.1959   19.1753 C   0  0  0  0  0  0
  -31.3756  -21.8492   19.3374 C   0  0  0  0  0  0
  -30.2745  -23.5663   20.1476 C   0  0  0  0  0  0
  -30.3272  -18.8292   18.6475 C   0  0  0  0  0  0
  -28.2269  -19.7372   19.5607 C   0  0  0  0  0  0
  -29.6902  -20.1947   22.3292 C   0  0  0  0  0  0
  -31.8375  -19.6365   21.2450 C   0  0  0  0  0  0
  -29.8347  -24.9641   20.4945 C   0  0  0  0  0  0
  -30.3752  -16.8066   21.1559 C   0  0  0  0  0  0
  -28.5284  -25.4168   19.8248 C   0  0  0  0  0  0
  -29.5726  -19.0829   19.9837 C   0  0  0  0  0  0
  -30.3821  -20.0861   20.9434 C   0  0  0  0  0  0
  -29.2100  -17.6677   20.6002 C   0  0  0  0  0  0
  -29.8206  -22.5144   20.8197 N   0  0  0  0  0  0
  -30.5236  -21.4439   20.3523 N   0  0  0  0  0  0
  -30.0323  -15.3859   21.2114 N   0  0  0  0  0  0
  -28.6027  -16.9468   19.6518 F   0  0  0  0  0  0
  -28.3183  -17.7894   21.5850 F   0  0  0  0  0  0
  -31.4658  -12.3676   19.1139 H   0  0  0  0  0  0
  -30.3071  -11.2607   19.7898 H   0  0  0  0  0  0
  -29.7228  -11.7936   17.4045 H   0  0  0  0  0  0
  -29.6761  -13.4946   17.7755 H   0  0  0  0  0  0
  -27.8070  -11.3225   18.7853 H   0  0  0  0  0  0
  -27.3647  -12.6752   17.7798 H   0  0  0  0  0  0
  -27.7222  -14.2536   19.5962 H   0  0  0  0  0  0
  -28.6689  -11.9059   21.3122 H   0  0  0  0  0  0
  -28.4716  -13.5276   21.8881 H   0  0  0  0  0  0
  -25.2774   -9.5690   22.4739 H   0  0  0  0  0  0
  -24.0010   -7.4638   22.7450 H   0  0  0  0  0  0
  -21.0854   -8.8794   19.8945 H   0  0  0  0  0  0
  -22.3712  -10.9687   19.6162 H   0  0  0  0  0  0
  -21.2011   -7.6150   23.9725 H   0  0  0  0  0  0
  -21.1481   -6.0512   25.9073 H   0  0  0  0  0  0
  -22.0604   -2.7615   23.2822 H   0  0  0  0  0  0
  -22.4139  -11.9962   22.4814 H   0  0  0  0  0  0
  -21.1126  -13.1294   22.2555 H   0  0  0  0  0  0
  -24.6860  -15.8536   20.5303 H   0  0  0  0  0  0
  -26.3124  -15.6263   20.1387 H   0  0  0  0  0  0
  -26.7101  -32.5534   23.1169 H   0  0  0  0  0  0
  -25.0101  -33.9780   25.0514 H   0  0  0  0  0  0
  -22.6827  -31.3060   21.4123 H   0  0  0  0  0  0
  -23.3822  -35.9571   23.3321 H   0  0  0  0  0  0
  -24.3629  -36.8853   22.2054 H   0  0  0  0  0  0
  -23.7250  -37.6475   23.6615 H   0  0  0  0  0  0
  -26.0229  -31.6043   20.5856 H   0  0  0  0  0  0
  -26.8105  -30.8995   21.9698 H   0  0  0  0  0  0
  -28.0855  -29.1315   21.1510 H   0  0  0  0  0  0
  -26.0644  -25.9737   19.0128 H   0  0  0  0  0  0
  -23.9761  -27.2751   19.0534 H   0  0  0  0  0  0
  -23.7062  -30.5909   19.4040 H   0  0  0  0  0  0
  -22.7219  -29.2377   19.8741 H   0  0  0  0  0  0
  -25.1322  -36.1979   25.0854 H   0  0  0  0  0  0
  -20.9937  -28.3235   24.1497 H   0  0  0  0  0  0
  -20.5707  -26.2267   23.3628 H   0  0  0  0  0  0
  -21.6627  -26.7479   22.1224 H   0  0  0  0  0  0
  -19.6924  -25.6323   21.1252 H   0  0  0  0  0  0
  -19.6709  -27.3227   20.6795 H   0  0  0  0  0  0
  -17.4198  -26.6716   21.4021 H   0  0  0  0  0  0
  -18.0294  -26.0083   22.9030 H   0  0  0  0  0  0
  -19.7922  -30.7259   24.2327 H   0  0  0  0  0  0
  -17.5005  -31.6278   24.5172 H   0  0  0  0  0  0
  -15.5344  -30.3022   23.7625 H   0  0  0  0  0  0
  -15.8656  -28.0869   22.7009 H   0  0  0  0  0  0
  -24.5723  -30.7242   25.7859 H   0  0  0  0  0  0
  -24.9114  -32.2928   26.5070 H   0  0  0  0  0  0
  -25.8053  -30.8745   27.0156 H   0  0  0  0  0  0
  -27.3517  -29.6925   25.4420 H   0  0  0  0  0  0
  -27.8725  -30.4252   23.9371 H   0  0  0  0  0  0
  -26.2719  -29.6980   24.0695 H   0  0  0  0  0  0
  -27.2676  -33.3466   26.2108 H   0  0  0  0  0  0
  -28.3889  -32.6711   25.0366 H   0  0  0  0  0  0
  -28.0607  -31.8228   26.5414 H   0  0  0  0  0  0
  -28.2636  -38.0085   24.7532 H   0  0  0  0  0  0
  -28.1123  -36.2619   24.6319 H   0  0  0  0  0  0
  -27.2327  -37.1446   25.8883 H   0  0  0  0  0  0
  -20.9288  -29.8694   21.6946 H   0  0  0  0  0  0
  -26.0253  -38.2872   24.1395 H   0  0  0  0  0  0
  -31.7899  -23.8318   18.4959 H   0  0  0  0  0  0
  -32.0417  -21.1601   18.8381 H   0  0  0  0  0  0
  -30.5033  -19.7388   18.0794 H   0  0  0  0  0  0
  -29.7498  -18.1894   17.9814 H   0  0  0  0  0  0
  -31.2845  -18.3296   18.7844 H   0  0  0  0  0  0
  -28.3599  -20.7100   19.0896 H   0  0  0  0  0  0
  -27.5535  -19.8746   20.4057 H   0  0  0  0  0  0
  -27.6939  -19.1216   18.8358 H   0  0  0  0  0  0
  -29.6852  -19.2457   22.8608 H   0  0  0  0  0  0
  -28.6575  -20.5314   22.2526 H   0  0  0  0  0  0
  -30.2094  -20.8978   22.9803 H   0  0  0  0  0  0
  -31.9035  -18.7883   21.9169 H   0  0  0  0  0  0
  -32.3881  -20.4329   21.7474 H   0  0  0  0  0  0
  -32.4027  -19.3949   20.3469 H   0  0  0  0  0  0
  -30.6287  -25.6562   20.2088 H   0  0  0  0  0  0
  -29.7375  -25.0697   21.5758 H   0  0  0  0  0  0
  -30.6173  -17.1095   22.1724 H   0  0  0  0  0  0
  -31.2728  -16.9571   20.5558 H   0  0  0  0  0  0
  -27.6852  -24.8557   20.2318 H   0  0  0  0  0  0
  -28.5668  -25.2576   18.7453 H   0  0  0  0  0  0
  -29.1310  -15.1493   21.5938 H   0  0  0  0  0  0
  1 25  1  0  0  0
  1 30  2  0  0  0
  1 86  1  0  0  0
  2  3  1  0  0  0
  2 25  1  0  0  0
  2 89  1  0  0  0
  2 90  1  0  0  0
  3  4  1  0  0  0
  3 91  1  0  0  0
  3 92  1  0  0  0
  4  5  1  0  0  0
  4 93  1  0  0  0
  4 94  1  0  0  0
  5  6  1  0  0  0
  5 26  1  0  0  0
  5 95  1  0  0  0
  6 25  1  0  0  0
  6 96  1  0  0  0
  6 97  1  0  0  0
  7  8  2  0  0  0
  7 26  1  0  0  0
  7 29  1  0  0  0
  8  9  1  0  0  0
  8 22  1  0  0  0
  9 10  1  0  0  0
  9 27  2  0  0  0
 10 11  2  0  0  0
 10 15  1  0  0  0
 11 12  1  0  0  0
 11 98  1  0  0  0
 12 13  2  0  0  0
 12 99  1  0  0  0
 13 14  1  0  0  0
 13 31  1  0  0  0
 14 15  2  0  0  0
 14100  1  0  0  0
 15101  1  0  0  0
 16 17  2  0  0  0
 16 21  1  0  0  0
 16 31  1  0  0  0
 17 18  1  0  0  0
 17102  1  0  0  0
 18 19  2  0  0  0
 18103  1  0  0  0
 19 20  1  0  0  0
 19 24  1  0  0  0
 20 21  2  0  0  0
 20104  1  0  0  0
 21 23  1  0  0  0
 22 28  1  0  0  0
 22 32  2  0  0  0
 26 27  1  0  0  0
 28105  1  0  0  0
 28106  1  0  0  0
 29107  1  0  0  0
 29108  1  0  0  0
 33 34  1  0  0  0
 33 66  1  0  0  0
 33 70  2  0  0  0
 34 36  1  0  0  0
 34 59  1  0  0  0
 34109  1  0  0  0
 35 44  2  0  0  0
 35 45  1  0  0  0
 35 68  1  0  0  0
 36 56  1  0  0  0
 36110  1  0  0  0
 37 39  1  0  0  0
 37 47  1  0  0  0
 37 66  1  0  0  0
 37111  1  0  0  0
 38 43  2  0  0  0
 38 46  1  0  0  0
 38 47  1  0  0  0
 39 64  1  0  0  0
 39 67  2  0  0  0
 40 52  1  0  0  0
 40 53  2  0  0  0
 40 58  1  0  0  0
 41112  1  0  0  0
 41113  1  0  0  0
 41114  1  0  0  0
 41 48  1  0  0  0
 42 43  1  0  0  0
 42 66  1  0  0  0
 42115  1  0  0  0
 42116  1  0  0  0
 43 44  1  0  0  0
 44117  1  0  0  0
 45 46  2  0  0  0
 45118  1  0  0  0
 46119  1  0  0  0
 47120  1  0  0  0
 47121  1  0  0  0
 48 56  1  0  0  0
 48 65  1  0  0  0
 48122  1  0  0  0
 49 50  1  0  0  0
 49 53  1  0  0  0
 49 64  1  0  0  0
 49123  1  0  0  0
 50 51  1  0  0  0
 50124  1  0  0  0
 50125  1  0  0  0
 51 52  1  0  0  0
 51126  1  0  0  0
 51127  1  0  0  0
 52128  1  0  0  0
 52129  1  0  0  0
 53 54  1  0  0  0
 54 55  2  0  0  0
 54130  1  0  0  0
 55 57  1  0  0  0
 55131  1  0  0  0
 56 69  2  0  0  0
 57 58  2  0  0  0
 57132  1  0  0  0
 58133  1  0  0  0
 59 60  1  0  0  0
 59 61  1  0  0  0
 59 62  1  0  0  0
 60134  1  0  0  0
 60135  1  0  0  0
 60136  1  0  0  0
 61137  1  0  0  0
 61138  1  0  0  0
 61139  1  0  0  0
 62140  1  0  0  0
 62141  1  0  0  0
 62142  1  0  0  0
 63 65  1  0  0  0
 63143  1  0  0  0
 63144  1  0  0  0
 63145  1  0  0  0
 64146  1  0  0  0
 65147  1  0  0  0
 68 80  1  0  0  0
 71 72  2  0  0  0
 71 73  1  0  0  0
 71148  1  0  0  0
 72 85  1  0  0  0
 72149  1  0  0  0
 73 78  1  0  0  0
 73 84  2  0  0  0
 74150  1  0  0  0
 74151  1  0  0  0
 74152  1  0  0  0
 74 81  1  0  0  0
 75 81  1  0  0  0
 75153  1  0  0  0
 75154  1  0  0  0
 75155  1  0  0  0
 76156  1  0  0  0
 76157  1  0  0  0
 76158  1  0  0  0
 76 82  1  0  0  0
 77 82  1  0  0  0
 77159  1  0  0  0
 77160  1  0  0  0
 77161  1  0  0  0
 78 80  1  0  0  0
 78162  1  0  0  0
 78163  1  0  0  0
 79 83  1  0  0  0
 79 86  1  0  0  0
 79164  1  0  0  0
 79165  1  0  0  0
 80166  1  0  0  0
 80167  1  0  0  0
 81 82  1  0  0  0
 81 83  1  0  0  0
 82 85  1  0  0  0
 83 87  1  0  0  0
 83 88  1  0  0  0
 84 85  1  0  0  0
 86168  1  0  0  0
M  ISO  4   1 100  68 101  80 101  86 100
M  END
> <chiral flag>
0

> <version>
0

> <s_m_source_file>
/data/baiqing/PycharmProjects/Reinvent-master-3.2/result/LINK_invent/BTK/process_docking_weight1_custom_sum_contain_oxygen_bond_distance_aromatic_linkinvent_7_9_3/rearranged_h_0059.sdf

> <i_m_source_file_index>
6

> <r_mmod_Potential_Energy-OPLS-2005>
-60.1181983947754

> <r_mmod_Stretch_Energy-OPLS-2005>
46.1689033508301

> <r_mmod_Bend_Energy-OPLS-2005>
123.08716583252

> <r_mmod_Torsional_Energy-OPLS-2005>
253.901489257812

> <r_mmod_Improper_Torsional_Energy-OPLS-2005>
3.61734509468079

> <r_mmod_Van_der_Waal_Energy-OPLS-2005>
159.986282348633

> <r_mmod_Electrostatic_Energy-OPLS-2005>
-458.619079589844

> <r_mmod_Solvation_Energy-OPLS-2005>
-198.10041809082

> <b_mmod_Minimization_Converged-OPLS-2005>
0

> <r_mmod_RMS_Derivative-OPLS-2005>
2.46255731582642

$$$$
6
                    3D
 Structure written by MMmdl.
149157  0  0  1  0            999 V2000
  -30.4329  -15.2850   20.3629 C   0  0  0  0  0  0
  -30.4399  -12.8244   19.5165 C   0  0  0  0  0  0
  -29.5345  -12.5824   18.2824 C   0  0  0  0  0  0
  -28.0834  -12.3033   18.7119 C   0  0  0  0  0  0
  -27.6096  -13.2776   19.8193 C   0  0  2  0  0  0
  -28.6462  -13.4625   20.9482 C   0  0  0  0  0  0
  -25.2371  -13.8222   20.5767 C   0  0  0  0  0  0
  -24.1733  -13.0408   20.9277 C   0  0  0  0  0  0
  -24.6406  -11.6916   20.8771 C   0  0  0  0  0  0
  -23.9101  -10.4280   21.0405 C   0  0  0  0  0  0
  -24.3643   -9.4197   21.9187 C   0  0  0  0  0  0
  -23.6305   -8.2238   22.0758 C   0  0  0  0  0  0
  -22.4286   -8.0283   21.3546 C   0  0  0  0  0  0
  -21.9927   -9.0258   20.4647 C   0  0  0  0  0  0
  -22.7267  -10.2130   20.3055 C   0  0  0  0  0  0
  -21.6858   -6.0739   22.5278 C   0  0  0  0  0  0
  -21.4017   -6.5642   23.8211 C   0  0  0  0  0  0
  -21.3656   -5.6793   24.9173 C   0  0  0  0  0  0
  -21.6044   -4.3057   24.7225 C   0  0  0  0  0  0
  -21.8817   -3.8151   23.4345 C   0  0  0  0  0  0
  -21.9194   -4.6965   22.3402 C   0  0  0  0  0  0
  -22.7754  -13.5168   21.1908 C   0  0  0  0  0  0
  -22.1663   -4.2155   21.0979 F   0  0  0  0  0  0
  -21.5626   -3.4538   25.7734 F   0  0  0  0  0  0
  -29.8737  -13.9741   20.3150 N   0  0  0  0  0  0
  -26.2810  -12.9521   20.3213 N   0  0  0  0  0  0
  -25.9339  -11.6620   20.5707 N   0  0  0  0  0  0
  -22.0414  -12.8157   22.0469 N   0  0  0  0  0  0
  -25.3919  -15.1949   20.4227 N   0  0  0  0  0  0
  -31.6585  -15.2836   20.1781 O   0  0  0  0  0  0
  -21.6643   -6.8885   21.4244 O   0  0  0  0  0  0
  -22.3433  -14.5471   20.6747 O   0  0  0  0  0  0
  -24.6641  -31.8217   23.1682 C   0  0  0  0  0  0
  -25.9315  -32.4575   23.8153 C   0  0  1  0  0  0
  -27.2219  -26.9161   20.1834 C   0  0  0  0  0  0
  -25.5977  -33.8389   24.2058 N   0  0  0  0  0  0
  -23.4792  -30.4319   21.5180 C   0  0  2  0  0  0
  -24.9335  -28.8151   20.1111 C   0  0  0  0  0  0
  -22.7671  -29.4432   22.4778 C   0  0  0  0  0  0
  -18.0323  -28.1410   22.8466 C   0  0  0  0  0  0
  -24.1494  -36.7198   23.2648 C   0  0  0  0  0  0
  -26.0488  -30.6236   21.4005 C   0  0  0  0  0  0
  -26.1171  -29.2125   20.7449 C   0  0  0  0  0  0
  -27.2548  -28.2846   20.7549 C   0  0  0  0  0  0
  -26.0098  -26.6733   19.4988 C   0  0  0  0  0  0
  -24.9062  -27.5669   19.4672 C   0  0  0  0  0  0
  -23.7192  -29.7441   20.1455 C   0  0  0  0  0  0
  -25.4138  -36.2960   24.0297 C   0  0  1  0  0  0
  -20.5947  -28.3756   23.1184 C   0  0  2  0  0  0
  -20.6799  -26.9436   22.5404 C   0  0  0  0  0  0
  -19.5775  -26.6377   21.5215 C   0  0  0  0  0  0
  -18.1956  -26.7942   22.1620 C   0  0  0  0  0  0
  -19.1584  -28.8906   23.2811 C   0  0  0  0  0  0
  -18.9495  -30.1494   23.8846 C   0  0  0  0  0  0
  -17.6489  -30.6599   24.0554 C   0  0  0  0  0  0
  -25.9105  -34.9343   23.5002 C   0  0  0  0  0  0
  -16.5379  -29.9086   23.6345 C   0  0  0  0  0  0
  -16.7305  -28.6508   23.0364 C   0  0  0  0  0  0
  -26.4561  -31.6529   25.0691 C   0  0  0  0  0  0
  -25.3678  -31.3786   26.1339 C   0  0  0  0  0  0
  -27.0466  -30.2893   24.6447 C   0  0  0  0  0  0
  -27.6046  -32.4348   25.7494 C   0  0  0  0  0  0
  -27.5571  -37.1756   24.8466 C   0  0  0  0  0  0
  -21.4339  -29.3039   22.3524 N   0  0  0  0  0  0
  -26.4282  -37.3699   23.9407 N   0  0  0  0  0  0
  -24.7520  -30.9868   22.0823 N   0  0  0  0  0  0
  -23.4212  -28.8015   23.3034 O   0  0  0  0  0  0
  -28.2243  -25.8080   20.2748 O   0  0  0  0  0  0
  -26.5721  -34.8883   22.4603 O   0  0  0  0  0  0
  -23.5710  -32.1195   23.6768 O   0  0  0  0  0  0
  -27.9547  -19.1332   18.8964 C   0  0  0  0  0  0
  -28.8578  -19.5192   19.8682 C   0  0  0  0  0  0
  -29.8609  -18.2270   20.4736 C   0  0  0  0  0  0
  -28.8948  -22.6291   20.4143 C   0  0  0  0  0  0
  -28.0058  -24.1789   20.0379 C   0  0  0  0  0  0
  -27.7696  -17.7821   18.2306 C   0  0  0  0  0  0
  -27.1450  -20.1887   18.4951 N   0  0  0  0  0  0
  -27.4849  -21.2782   19.0725 N   0  0  0  0  0  0
  -28.5413  -21.0805   19.8946 N   0  0  0  0  0  0
  -29.6539  -16.5528   20.4255 N   0  0  0  0  0  0
  -27.2698  -16.8821   19.0785 F   0  0  0  0  0  0
  -26.9275  -17.8471   17.1970 F   0  0  0  0  0  0
  -28.9191  -17.3077   17.7487 F   0  0  0  0  0  0
  -31.4556  -13.0364   19.1793 H   0  0  0  0  0  0
  -30.5159  -11.9236   20.1277 H   0  0  0  0  0  0
  -29.9163  -11.7527   17.6856 H   0  0  0  0  0  0
  -29.5608  -13.4621   17.6373 H   0  0  0  0  0  0
  -28.0398  -11.2791   19.0833 H   0  0  0  0  0  0
  -27.4151  -12.3459   17.8511 H   0  0  0  0  0  0
  -27.5187  -14.2416   19.3185 H   0  0  0  0  0  0
  -28.8205  -12.5321   21.4901 H   0  0  0  0  0  0
  -28.2831  -14.1858   21.6801 H   0  0  0  0  0  0
  -25.2786   -9.5672   22.4769 H   0  0  0  0  0  0
  -24.0009   -7.4628   22.7481 H   0  0  0  0  0  0
  -21.0855   -8.8783   19.8955 H   0  0  0  0  0  0
  -22.3728  -10.9675   19.6168 H   0  0  0  0  0  0
  -21.2013   -7.6150   23.9717 H   0  0  0  0  0  0
  -21.1478   -6.0524   25.9076 H   0  0  0  0  0  0
  -22.0601   -2.7615   23.2842 H   0  0  0  0  0  0
  -22.4050  -11.9831   22.4862 H   0  0  0  0  0  0
  -21.1028  -13.1172   22.2671 H   0  0  0  0  0  0
  -24.6057  -15.8265   20.5213 H   0  0  0  0  0  0
  -26.2047  -15.6435   20.0189 H   0  0  0  0  0  0
  -26.7383  -32.5108   23.0864 H   0  0  0  0  0  0
  -25.0058  -33.9463   25.0164 H   0  0  0  0  0  0
  -22.7931  -31.2641   21.3456 H   0  0  0  0  0  0
  -23.3771  -35.9515   23.3281 H   0  0  0  0  0  0
  -24.3568  -36.8876   22.2069 H   0  0  0  0  0  0
  -23.7237  -37.6372   23.6727 H   0  0  0  0  0  0
  -26.2332  -31.3651   20.6221 H   0  0  0  0  0  0
  -26.9067  -30.6787   22.0583 H   0  0  0  0  0  0
  -28.1506  -28.5884   21.2784 H   0  0  0  0  0  0
  -25.8812  -25.7191   19.0084 H   0  0  0  0  0  0
  -24.0076  -27.2578   18.9517 H   0  0  0  0  0  0
  -23.8727  -30.5110   19.3853 H   0  0  0  0  0  0
  -22.8285  -29.1980   19.8301 H   0  0  0  0  0  0
  -25.1338  -36.1753   25.0789 H   0  0  0  0  0  0
  -21.0035  -28.3370   24.1308 H   0  0  0  0  0  0
  -20.5680  -26.2378   23.3647 H   0  0  0  0  0  0
  -21.6664  -26.7412   22.1211 H   0  0  0  0  0  0
  -19.6935  -25.6275   21.1278 H   0  0  0  0  0  0
  -19.6714  -27.3158   20.6722 H   0  0  0  0  0  0
  -17.4225  -26.6684   21.4023 H   0  0  0  0  0  0
  -18.0352  -26.0097   22.9030 H   0  0  0  0  0  0
  -19.7971  -30.7325   24.2191 H   0  0  0  0  0  0
  -17.5040  -31.6274   24.5166 H   0  0  0  0  0  0
  -15.5376  -30.2972   23.7700 H   0  0  0  0  0  0
  -15.8705  -28.0808   22.7108 H   0  0  0  0  0  0
  -24.5873  -30.7126   25.7639 H   0  0  0  0  0  0
  -24.8851  -32.2990   26.4635 H   0  0  0  0  0  0
  -25.7896  -30.9031   27.0201 H   0  0  0  0  0  0
  -26.3142  -29.6555   24.1435 H   0  0  0  0  0  0
  -27.3967  -29.7275   25.5115 H   0  0  0  0  0  0
  -27.9094  -30.4067   23.9888 H   0  0  0  0  0  0
  -27.2608  -33.3693   26.1940 H   0  0  0  0  0  0
  -28.3921  -32.6840   25.0368 H   0  0  0  0  0  0
  -28.0644  -31.8566   26.5516 H   0  0  0  0  0  0
  -28.2570  -38.0069   24.7515 H   0  0  0  0  0  0
  -28.1085  -36.2594   24.6296 H   0  0  0  0  0  0
  -27.2285  -37.1401   25.8868 H   0  0  0  0  0  0
  -20.9602  -29.8708   21.6629 H   0  0  0  0  0  0
  -26.0127  -38.2757   24.1412 H   0  0  0  0  0  0
  -30.8478  -18.3815   20.0377 H   0  0  0  0  0  0
  -30.0169  -18.4399   21.5316 H   0  0  0  0  0  0
  -28.9552  -22.5646   21.5003 H   0  0  0  0  0  0
  -29.9236  -22.7971   20.0972 H   0  0  0  0  0  0
  -27.0095  -24.0071   20.4457 H   0  0  0  0  0  0
  -27.8559  -24.1322   18.9594 H   0  0  0  0  0  0
  -28.6753  -16.3220   20.5152 H   0  0  0  0  0  0
  1 25  1  0  0  0
  1 30  2  0  0  0
  1 80  1  0  0  0
  2  3  1  0  0  0
  2 25  1  0  0  0
  2 84  1  0  0  0
  2 85  1  0  0  0
  3  4  1  0  0  0
  3 86  1  0  0  0
  3 87  1  0  0  0
  4  5  1  0  0  0
  4 88  1  0  0  0
  4 89  1  0  0  0
  5  6  1  0  0  0
  5 26  1  0  0  0
  5 90  1  0  0  0
  6 25  1  0  0  0
  6 91  1  0  0  0
  6 92  1  0  0  0
  7  8  2  0  0  0
  7 26  1  0  0  0
  7 29  1  0  0  0
  8  9  1  0  0  0
  8 22  1  0  0  0
  9 10  1  0  0  0
  9 27  2  0  0  0
 10 11  2  0  0  0
 10 15  1  0  0  0
 11 12  1  0  0  0
 11 93  1  0  0  0
 12 13  2  0  0  0
 12 94  1  0  0  0
 13 14  1  0  0  0
 13 31  1  0  0  0
 14 15  2  0  0  0
 14 95  1  0  0  0
 15 96  1  0  0  0
 16 17  2  0  0  0
 16 21  1  0  0  0
 16 31  1  0  0  0
 17 18  1  0  0  0
 17 97  1  0  0  0
 18 19  2  0  0  0
 18 98  1  0  0  0
 19 20  1  0  0  0
 19 24  1  0  0  0
 20 21  2  0  0  0
 20 99  1  0  0  0
 21 23  1  0  0  0
 22 28  1  0  0  0
 22 32  2  0  0  0
 26 27  1  0  0  0
 28100  1  0  0  0
 28101  1  0  0  0
 29102  1  0  0  0
 29103  1  0  0  0
 33 34  1  0  0  0
 33 66  1  0  0  0
 33 70  2  0  0  0
 34 36  1  0  0  0
 34 59  1  0  0  0
 34104  1  0  0  0
 35 44  2  0  0  0
 35 45  1  0  0  0
 35 68  1  0  0  0
 36 56  1  0  0  0
 36105  1  0  0  0
 37 39  1  0  0  0
 37 47  1  0  0  0
 37 66  1  0  0  0
 37106  1  0  0  0
 38 43  2  0  0  0
 38 46  1  0  0  0
 38 47  1  0  0  0
 39 64  1  0  0  0
 39 67  2  0  0  0
 40 52  1  0  0  0
 40 53  2  0  0  0
 40 58  1  0  0  0
 41107  1  0  0  0
 41108  1  0  0  0
 41109  1  0  0  0
 41 48  1  0  0  0
 42 43  1  0  0  0
 42 66  1  0  0  0
 42110  1  0  0  0
 42111  1  0  0  0
 43 44  1  0  0  0
 44112  1  0  0  0
 45 46  2  0  0  0
 45113  1  0  0  0
 46114  1  0  0  0
 47115  1  0  0  0
 47116  1  0  0  0
 48 56  1  0  0  0
 48 65  1  0  0  0
 48117  1  0  0  0
 49 50  1  0  0  0
 49 53  1  0  0  0
 49 64  1  0  0  0
 49118  1  0  0  0
 50 51  1  0  0  0
 50119  1  0  0  0
 50120  1  0  0  0
 51 52  1  0  0  0
 51121  1  0  0  0
 51122  1  0  0  0
 52123  1  0  0  0
 52124  1  0  0  0
 53 54  1  0  0  0
 54 55  2  0  0  0
 54125  1  0  0  0
 55 57  1  0  0  0
 55126  1  0  0  0
 56 69  2  0  0  0
 57 58  2  0  0  0
 57127  1  0  0  0
 58128  1  0  0  0
 59 60  1  0  0  0
 59 61  1  0  0  0
 59 62  1  0  0  0
 60129  1  0  0  0
 60130  1  0  0  0
 60131  1  0  0  0
 61132  1  0  0  0
 61133  1  0  0  0
 61134  1  0  0  0
 62135  1  0  0  0
 62136  1  0  0  0
 62137  1  0  0  0
 63 65  1  0  0  0
 63138  1  0  0  0
 63139  1  0  0  0
 63140  1  0  0  0
 64141  1  0  0  0
 65142  1  0  0  0
 68 75  1  0  0  0
 71 72  2  0  0  0
 71 76  1  0  0  0
 71 77  1  0  0  0
 72 73  1  0  0  0
 72 79  1  0  0  0
 73 80  1  0  0  0
 73143  1  0  0  0
 73144  1  0  0  0
 74 75  1  0  0  0
 74 79  1  0  0  0
 74145  1  0  0  0
 74146  1  0  0  0
 75147  1  0  0  0
 75148  1  0  0  0
 76 81  1  0  0  0
 76 82  1  0  0  0
 76 83  1  0  0  0
 77 78  2  0  0  0
 78 79  1  0  0  0
 80149  1  0  0  0
M  ISO  4   1 100  68 101  75 101  80 100
M  END
> <chiral flag>
0

> <version>
0

> <s_m_source_file>
/data/baiqing/PycharmProjects/Reinvent-master-3.2/result/LINK_invent/BTK/process_docking_weight1_custom_sum_contain_oxygen_bond_distance_aromatic_linkinvent_7_9_3/rearranged_h_0059.sdf

> <i_m_source_file_index>
7

> <r_mmod_Potential_Energy-OPLS-2005>
1424.87463378906

> <r_mmod_Stretch_Energy-OPLS-2005>
659.138366699219

> <r_mmod_Bend_Energy-OPLS-2005>
490.651092529297

> <r_mmod_Torsional_Energy-OPLS-2005>
217.290313720703

> <r_mmod_Improper_Torsional_Energy-OPLS-2005>
4.34324884414673

> <r_mmod_Van_der_Waal_Energy-OPLS-2005>
108.04573059082

> <r_mmod_Electrostatic_Energy-OPLS-2005>
-316.766906738281

> <r_mmod_Solvation_Energy-OPLS-2005>
-216.76042175293

> <b_mmod_Minimization_Converged-OPLS-2005>
0

> <r_mmod_RMS_Derivative-OPLS-2005>
0.879707932472229

$$$$
7
                    3D
 Structure written by MMmdl.
157165  0  0  1  0            999 V2000
  -30.5359  -14.9057   20.5054 C   0  0  0  0  0  0
  -30.4571  -12.5773   19.4894 C   0  0  0  0  0  0
  -29.5271  -12.5602   18.2496 C   0  0  0  0  0  0
  -28.0526  -12.3522   18.6516 C   0  0  0  0  0  0
  -27.6454  -13.2326   19.8617 C   0  0  2  0  0  0
  -28.6916  -13.1184   20.9867 C   0  0  0  0  0  0
  -25.2520  -13.8167   20.5691 C   0  0  0  0  0  0
  -24.1817  -13.0415   20.9191 C   0  0  0  0  0  0
  -24.6407  -11.6894   20.8727 C   0  0  0  0  0  0
  -23.9081  -10.4278   21.0401 C   0  0  0  0  0  0
  -24.3625   -9.4192   21.9185 C   0  0  0  0  0  0
  -23.6287   -8.2238   22.0764 C   0  0  0  0  0  0
  -22.4277   -8.0279   21.3546 C   0  0  0  0  0  0
  -21.9908   -9.0254   20.4651 C   0  0  0  0  0  0
  -22.7248  -10.2124   20.3056 C   0  0  0  0  0  0
  -21.6857   -6.0730   22.5276 C   0  0  0  0  0  0
  -21.4013   -6.5637   23.8209 C   0  0  0  0  0  0
  -21.3658   -5.6789   24.9174 C   0  0  0  0  0  0
  -21.6044   -4.3053   24.7222 C   0  0  0  0  0  0
  -21.8819   -3.8144   23.4347 C   0  0  0  0  0  0
  -21.9196   -4.6959   22.3402 C   0  0  0  0  0  0
  -22.7841  -13.5213   21.1860 C   0  0  0  0  0  0
  -22.1667   -4.2146   21.0980 F   0  0  0  0  0  0
  -21.5638   -3.4532   25.7733 F   0  0  0  0  0  0
  -29.9656  -13.6238   20.4377 N   0  0  0  0  0  0
  -26.2957  -12.9373   20.3292 N   0  0  0  0  0  0
  -25.9344  -11.6515   20.5731 N   0  0  0  0  0  0
  -22.0486  -12.8199   22.0414 N   0  0  0  0  0  0
  -25.4214  -15.1892   20.4138 N   0  0  0  0  0  0
  -31.6763  -15.0258   20.0404 O   0  0  0  0  0  0
  -21.6644   -6.8870   21.4235 O   0  0  0  0  0  0
  -22.3527  -14.5522   20.6715 O   0  0  0  0  0  0
  -24.6424  -31.8464   23.1912 C   0  0  0  0  0  0
  -25.9198  -32.4720   23.8297 C   0  0  1  0  0  0
  -27.2180  -27.1490   20.1427 C   0  0  0  0  0  0
  -25.5947  -33.8524   24.2206 N   0  0  0  0  0  0
  -23.4463  -30.4665   21.5379 C   0  0  2  0  0  0
  -24.8967  -28.9041   20.1083 C   0  0  0  0  0  0
  -22.7573  -29.4545   22.4872 C   0  0  0  0  0  0
  -18.0297  -28.1393   22.8480 C   0  0  0  0  0  0
  -24.1492  -36.7258   23.2646 C   0  0  0  0  0  0
  -26.0038  -30.7243   21.3901 C   0  0  0  0  0  0
  -26.0750  -29.3385   20.7281 C   0  0  0  0  0  0
  -27.2368  -28.4767   20.7311 C   0  0  0  0  0  0
  -26.0125  -26.8248   19.4755 C   0  0  0  0  0  0
  -24.8780  -27.6598   19.4668 C   0  0  0  0  0  0
  -23.6712  -29.8014   20.1556 C   0  0  0  0  0  0
  -25.4125  -36.3045   24.0319 C   0  0  1  0  0  0
  -20.5918  -28.3709   23.1246 C   0  0  2  0  0  0
  -20.6787  -26.9412   22.5408 C   0  0  0  0  0  0
  -19.5758  -26.6376   21.5221 C   0  0  0  0  0  0
  -18.1936  -26.7933   22.1625 C   0  0  0  0  0  0
  -19.1557  -28.8869   23.2855 C   0  0  0  0  0  0
  -18.9470  -30.1468   23.8881 C   0  0  0  0  0  0
  -17.6469  -30.6593   24.0556 C   0  0  0  0  0  0
  -25.9066  -34.9421   23.5064 C   0  0  0  0  0  0
  -16.5359  -29.9079   23.6343 C   0  0  0  0  0  0
  -16.7283  -28.6496   23.0365 C   0  0  0  0  0  0
  -26.4513  -31.6590   25.0736 C   0  0  0  0  0  0
  -25.3690  -31.3770   26.1422 C   0  0  0  0  0  0
  -27.0377  -30.2991   24.6313 C   0  0  0  0  0  0
  -27.6056  -32.4350   25.7510 C   0  0  0  0  0  0
  -27.5579  -37.1784   24.8463 C   0  0  0  0  0  0
  -21.4266  -29.3042   22.3632 N   0  0  0  0  0  0
  -26.4289  -37.3758   23.9408 N   0  0  0  0  0  0
  -24.7177  -31.0319   22.0955 N   0  0  0  0  0  0
  -23.4218  -28.8088   23.3020 O   0  0  0  0  0  0
  -28.2555  -26.1469   20.2293 O   0  0  0  0  0  0
  -26.5646  -34.8911   22.4638 O   0  0  0  0  0  0
  -23.5541  -32.1331   23.7129 O   0  0  0  0  0  0
  -28.8341  -21.1689   21.4005 C   0  0  0  0  0  0
  -29.8258  -21.3349   19.3314 C   0  0  0  0  0  0
  -29.5840  -20.4381   20.4230 C   0  0  0  0  0  0
  -28.7256  -23.2651   20.2375 C   0  0  0  0  0  0
  -30.7107  -18.8552   22.1209 C   0  0  0  0  0  0
  -31.5822  -18.9140   19.8313 C   0  0  0  0  0  0
  -28.9885  -15.9983   22.1135 C   0  0  0  0  0  0
  -27.8941  -24.6638   19.9473 C   0  0  0  0  0  0
  -29.5413  -17.4877   20.2239 C   0  0  0  0  0  0
  -30.2691  -18.9364   20.6441 C   0  0  0  0  0  0
  -28.4248  -22.4922   21.3053 N   0  0  0  0  0  0
  -29.4117  -22.6573   19.2445 N   0  0  0  0  0  0
  -29.7783  -16.0628   20.8770 N   0  0  0  0  0  0
  -31.4856  -12.7585   19.1738 H   0  0  0  0  0  0
  -30.4804  -11.5967   19.9670 H   0  0  0  0  0  0
  -29.8389  -11.7825   17.5512 H   0  0  0  0  0  0
  -29.6253  -13.5053   17.7142 H   0  0  0  0  0  0
  -27.9229  -11.2990   18.9040 H   0  0  0  0  0  0
  -27.3962  -12.5433   17.8008 H   0  0  0  0  0  0
  -27.6460  -14.2658   19.5129 H   0  0  0  0  0  0
  -28.7890  -12.0747   21.2903 H   0  0  0  0  0  0
  -28.3654  -13.6078   21.8958 H   0  0  0  0  0  0
  -25.2778   -9.5660   22.4755 H   0  0  0  0  0  0
  -23.9984   -7.4635   22.7492 H   0  0  0  0  0  0
  -21.0841   -8.8785   19.8957 H   0  0  0  0  0  0
  -22.3725  -10.9671   19.6163 H   0  0  0  0  0  0
  -21.2000   -7.6148   23.9703 H   0  0  0  0  0  0
  -21.1489   -6.0533   25.9077 H   0  0  0  0  0  0
  -22.0601   -2.7605   23.2854 H   0  0  0  0  0  0
  -22.4088  -11.9850   22.4786 H   0  0  0  0  0  0
  -21.1114  -13.1245   22.2630 H   0  0  0  0  0  0
  -24.6577  -15.8443   20.5394 H   0  0  0  0  0  0
  -26.2786  -15.6314   20.1066 H   0  0  0  0  0  0
  -26.7271  -32.5326   23.1034 H   0  0  0  0  0  0
  -25.0071  -33.9659   25.0335 H   0  0  0  0  0  0
  -22.7480  -31.2924   21.3869 H   0  0  0  0  0  0
  -23.3766  -35.9578   23.3303 H   0  0  0  0  0  0
  -24.3583  -36.8888   22.2062 H   0  0  0  0  0  0
  -23.7230  -37.6449   23.6676 H   0  0  0  0  0  0
  -26.1583  -31.4839   20.6222 H   0  0  0  0  0  0
  -26.8752  -30.7732   22.0317 H   0  0  0  0  0  0
  -28.1312  -28.8031   21.2423 H   0  0  0  0  0  0
  -25.8924  -25.8814   18.9671 H   0  0  0  0  0  0
  -23.9808  -27.3225   18.9663 H   0  0  0  0  0  0
  -23.7999  -30.5783   19.4012 H   0  0  0  0  0  0
  -22.7880  -29.2388   19.8471 H   0  0  0  0  0  0
  -25.1317  -36.1882   25.0813 H   0  0  0  0  0  0
  -20.9996  -28.3280   24.1374 H   0  0  0  0  0  0
  -20.5689  -26.2313   23.3621 H   0  0  0  0  0  0
  -21.6647  -26.7429   22.1198 H   0  0  0  0  0  0
  -19.6918  -25.6280   21.1262 H   0  0  0  0  0  0
  -19.6702  -27.3177   20.6745 H   0  0  0  0  0  0
  -17.4210  -26.6681   21.4022 H   0  0  0  0  0  0
  -18.0324  -26.0085   22.9027 H   0  0  0  0  0  0
  -19.7946  -30.7287   24.2239 H   0  0  0  0  0  0
  -17.5020  -31.6278   24.5146 H   0  0  0  0  0  0
  -15.5353  -30.2974   23.7690 H   0  0  0  0  0  0
  -15.8679  -28.0810   22.7100 H   0  0  0  0  0  0
  -24.5878  -30.7118   25.7721 H   0  0  0  0  0  0
  -24.8864  -32.2947   26.4796 H   0  0  0  0  0  0
  -25.7956  -30.8963   27.0237 H   0  0  0  0  0  0
  -26.2991  -29.6725   24.1299 H   0  0  0  0  0  0
  -27.3970  -29.7281   25.4886 H   0  0  0  0  0  0
  -27.8910  -30.4237   23.9644 H   0  0  0  0  0  0
  -27.2668  -33.3676   26.2032 H   0  0  0  0  0  0
  -28.3886  -32.6872   25.0344 H   0  0  0  0  0  0
  -28.0708  -31.8513   26.5464 H   0  0  0  0  0  0
  -28.2584  -38.0095   24.7528 H   0  0  0  0  0  0
  -28.1085  -36.2622   24.6267 H   0  0  0  0  0  0
  -27.2296  -37.1404   25.8867 H   0  0  0  0  0  0
  -20.9463  -29.8754   21.6822 H   0  0  0  0  0  0
  -26.0158  -38.2824   24.1426 H   0  0  0  0  0  0
  -28.5666  -20.6889   22.3298 H   0  0  0  0  0  0
  -30.4127  -21.0046   18.4875 H   0  0  0  0  0  0
  -31.3864  -19.6707   22.3831 H   0  0  0  0  0  0
  -31.2470  -17.9283   22.3305 H   0  0  0  0  0  0
  -29.8708  -18.9081   22.8108 H   0  0  0  0  0  0
  -32.2401  -19.7474   20.0843 H   0  0  0  0  0  0
  -31.3936  -18.9574   18.7576 H   0  0  0  0  0  0
  -32.1454  -17.9967   20.0091 H   0  0  0  0  0  0
  -27.9563  -15.7292   21.8912 H   0  0  0  0  0  0
  -28.9356  -16.9513   22.6307 H   0  0  0  0  0  0
  -29.4035  -15.2904   22.8333 H   0  0  0  0  0  0
  -26.9335  -24.4888   20.4330 H   0  0  0  0  0  0
  -27.6872  -24.6241   18.8778 H   0  0  0  0  0  0
  -29.6501  -17.3463   19.1476 H   0  0  0  0  0  0
  -28.4699  -17.6646   20.3312 H   0  0  0  0  0  0
  1 25  1  0  0  0
  1 30  2  0  0  0
  1 83  1  0  0  0
  2  3  1  0  0  0
  2 25  1  0  0  0
  2 84  1  0  0  0
  2 85  1  0  0  0
  3  4  1  0  0  0
  3 86  1  0  0  0
  3 87  1  0  0  0
  4  5  1  0  0  0
  4 88  1  0  0  0
  4 89  1  0  0  0
  5  6  1  0  0  0
  5 26  1  0  0  0
  5 90  1  0  0  0
  6 25  1  0  0  0
  6 91  1  0  0  0
  6 92  1  0  0  0
  7  8  2  0  0  0
  7 26  1  0  0  0
  7 29  1  0  0  0
  8  9  1  0  0  0
  8 22  1  0  0  0
  9 10  1  0  0  0
  9 27  2  0  0  0
 10 11  2  0  0  0
 10 15  1  0  0  0
 11 12  1  0  0  0
 11 93  1  0  0  0
 12 13  2  0  0  0
 12 94  1  0  0  0
 13 14  1  0  0  0
 13 31  1  0  0  0
 14 15  2  0  0  0
 14 95  1  0  0  0
 15 96  1  0  0  0
 16 17  2  0  0  0
 16 21  1  0  0  0
 16 31  1  0  0  0
 17 18  1  0  0  0
 17 97  1  0  0  0
 18 19  2  0  0  0
 18 98  1  0  0  0
 19 20  1  0  0  0
 19 24  1  0  0  0
 20 21  2  0  0  0
 20 99  1  0  0  0
 21 23  1  0  0  0
 22 28  1  0  0  0
 22 32  2  0  0  0
 26 27  1  0  0  0
 28100  1  0  0  0
 28101  1  0  0  0
 29102  1  0  0  0
 29103  1  0  0  0
 33 34  1  0  0  0
 33 66  1  0  0  0
 33 70  2  0  0  0
 34 36  1  0  0  0
 34 59  1  0  0  0
 34104  1  0  0  0
 35 44  2  0  0  0
 35 45  1  0  0  0
 35 68  1  0  0  0
 36 56  1  0  0  0
 36105  1  0  0  0
 37 39  1  0  0  0
 37 47  1  0  0  0
 37 66  1  0  0  0
 37106  1  0  0  0
 38 43  2  0  0  0
 38 46  1  0  0  0
 38 47  1  0  0  0
 39 64  1  0  0  0
 39 67  2  0  0  0
 40 52  1  0  0  0
 40 53  2  0  0  0
 40 58  1  0  0  0
 41107  1  0  0  0
 41108  1  0  0  0
 41109  1  0  0  0
 41 48  1  0  0  0
 42 43  1  0  0  0
 42 66  1  0  0  0
 42110  1  0  0  0
 42111  1  0  0  0
 43 44  1  0  0  0
 44112  1  0  0  0
 45 46  2  0  0  0
 45113  1  0  0  0
 46114  1  0  0  0
 47115  1  0  0  0
 47116  1  0  0  0
 48 56  1  0  0  0
 48 65  1  0  0  0
 48117  1  0  0  0
 49 50  1  0  0  0
 49 53  1  0  0  0
 49 64  1  0  0  0
 49118  1  0  0  0
 50 51  1  0  0  0
 50119  1  0  0  0
 50120  1  0  0  0
 51 52  1  0  0  0
 51121  1  0  0  0
 51122  1  0  0  0
 52123  1  0  0  0
 52124  1  0  0  0
 53 54  1  0  0  0
 54 55  2  0  0  0
 54125  1  0  0  0
 55 57  1  0  0  0
 55126  1  0  0  0
 56 69  2  0  0  0
 57 58  2  0  0  0
 57127  1  0  0  0
 58128  1  0  0  0
 59 60  1  0  0  0
 59 61  1  0  0  0
 59 62  1  0  0  0
 60129  1  0  0  0
 60130  1  0  0  0
 60131  1  0  0  0
 61132  1  0  0  0
 61133  1  0  0  0
 61134  1  0  0  0
 62135  1  0  0  0
 62136  1  0  0  0
 62137  1  0  0  0
 63 65  1  0  0  0
 63138  1  0  0  0
 63139  1  0  0  0
 63140  1  0  0  0
 64141  1  0  0  0
 65142  1  0  0  0
 68 78  1  0  0  0
 71 73  2  0  0  0
 71 81  1  0  0  0
 71143  1  0  0  0
 72 73  1  0  0  0
 72 82  2  0  0  0
 72144  1  0  0  0
 73 80  1  0  0  0
 74 78  1  0  0  0
 74 81  2  0  0  0
 74 82  1  0  0  0
 75145  1  0  0  0
 75146  1  0  0  0
 75147  1  0  0  0
 75 80  1  0  0  0
 76 80  1  0  0  0
 76148  1  0  0  0
 76149  1  0  0  0
 76150  1  0  0  0
 77 83  1  0  0  0
 77151  1  0  0  0
 77152  1  0  0  0
 77153  1  0  0  0
 78154  1  0  0  0
 78155  1  0  0  0
 79 80  1  0  0  0
 79 83  1  0  0  0
 79156  1  0  0  0
 79157  1  0  0  0
M  ISO  4   1 100  68 101  78 101  83 100
M  END
> <chiral flag>
0

> <version>
0

> <s_m_source_file>
/data/baiqing/PycharmProjects/Reinvent-master-3.2/result/LINK_invent/BTK/process_docking_weight1_custom_sum_contain_oxygen_bond_distance_aromatic_linkinvent_7_9_3/rearranged_h_0059.sdf

> <i_m_source_file_index>
8

> <r_mmod_Potential_Energy-OPLS-2005>
300.062438964844

> <r_mmod_Stretch_Energy-OPLS-2005>
239.85481262207

> <r_mmod_Bend_Energy-OPLS-2005>
291.747833251953

> <r_mmod_Torsional_Energy-OPLS-2005>
295.303894042969

> <r_mmod_Improper_Torsional_Energy-OPLS-2005>
9.92443084716797

> <r_mmod_Van_der_Waal_Energy-OPLS-2005>
159.394165039062

> <r_mmod_Electrostatic_Energy-OPLS-2005>
-646.176635742188

> <r_mmod_Solvation_Energy-OPLS-2005>
-217.456588745117

> <b_mmod_Minimization_Converged-OPLS-2005>
0

> <r_mmod_RMS_Derivative-OPLS-2005>
1.65235996246338

$$$$
8
                    3D
 Structure written by MMmdl.
153161  0  0  1  0            999 V2000
  -30.4952  -15.0477   20.4269 C   0  0  0  0  0  0
  -30.4518  -12.6596   19.5041 C   0  0  0  0  0  0
  -29.5408  -12.5619   18.2568 C   0  0  0  0  0  0
  -28.0747  -12.3226   18.6701 C   0  0  0  0  0  0
  -27.6328  -13.2468   19.8374 C   0  0  2  0  0  0
  -28.6728  -13.2435   20.9737 C   0  0  0  0  0  0
  -25.2440  -13.8171   20.5619 C   0  0  0  0  0  0
  -24.1785  -13.0406   20.9195 C   0  0  0  0  0  0
  -24.6404  -11.6893   20.8731 C   0  0  0  0  0  0
  -23.9079  -10.4273   21.0396 C   0  0  0  0  0  0
  -24.3608   -9.4191   21.9189 C   0  0  0  0  0  0
  -23.6262   -8.2239   22.0769 C   0  0  0  0  0  0
  -22.4254   -8.0269   21.3536 C   0  0  0  0  0  0
  -21.9895   -9.0266   20.4660 C   0  0  0  0  0  0
  -22.7244  -10.2133   20.3055 C   0  0  0  0  0  0
  -21.6842   -6.0706   22.5249 C   0  0  0  0  0  0
  -21.4024   -6.5618   23.8176 C   0  0  0  0  0  0
  -21.3669   -5.6781   24.9152 C   0  0  0  0  0  0
  -21.6035   -4.3040   24.7215 C   0  0  0  0  0  0
  -21.8825   -3.8121   23.4339 C   0  0  0  0  0  0
  -21.9197   -4.6931   22.3386 C   0  0  0  0  0  0
  -22.7807  -13.5172   21.1876 C   0  0  0  0  0  0
  -22.1651   -4.2107   21.0971 F   0  0  0  0  0  0
  -21.5637   -3.4534   25.7749 F   0  0  0  0  0  0
  -29.9303  -13.7540   20.3941 N   0  0  0  0  0  0
  -26.2895  -12.9416   20.3167 N   0  0  0  0  0  0
  -25.9332  -11.6544   20.5680 N   0  0  0  0  0  0
  -22.0438  -12.8204   22.0427 N   0  0  0  0  0  0
  -25.4039  -15.1913   20.3999 N   0  0  0  0  0  0
  -31.6701  -15.1051   20.0380 O   0  0  0  0  0  0
  -21.6633   -6.8853   21.4215 O   0  0  0  0  0  0
  -22.3515  -14.5495   20.6717 O   0  0  0  0  0  0
  -24.6462  -31.8361   23.1869 C   0  0  0  0  0  0
  -25.9227  -32.4641   23.8236 C   0  0  1  0  0  0
  -27.2150  -27.0978   20.1380 C   0  0  0  0  0  0
  -25.5994  -33.8454   24.2128 N   0  0  0  0  0  0
  -23.4530  -30.4572   21.5352 C   0  0  2  0  0  0
  -24.9014  -28.8759   20.1176 C   0  0  0  0  0  0
  -22.7580  -29.4482   22.4857 C   0  0  0  0  0  0
  -18.0303  -28.1371   22.8483 C   0  0  0  0  0  0
  -24.1488  -36.7237   23.2643 C   0  0  0  0  0  0
  -26.0143  -30.6954   21.3916 C   0  0  0  0  0  0
  -26.0863  -29.3066   20.7264 C   0  0  0  0  0  0
  -27.2531  -28.4408   20.7075 C   0  0  0  0  0  0
  -26.0045  -26.7762   19.4960 C   0  0  0  0  0  0
  -24.8718  -27.6231   19.4900 C   0  0  0  0  0  0
  -23.6826  -29.7890   20.1564 C   0  0  0  0  0  0
  -25.4121  -36.2964   24.0287 C   0  0  1  0  0  0
  -20.5923  -28.3678   23.1241 C   0  0  2  0  0  0
  -20.6769  -26.9378   22.5384 C   0  0  0  0  0  0
  -19.5733  -26.6342   21.5208 C   0  0  0  0  0  0
  -18.1929  -26.7912   22.1624 C   0  0  0  0  0  0
  -19.1558  -28.8852   23.2855 C   0  0  0  0  0  0
  -18.9479  -30.1461   23.8851 C   0  0  0  0  0  0
  -17.6461  -30.6568   24.0523 C   0  0  0  0  0  0
  -25.9082  -34.9382   23.5017 C   0  0  0  0  0  0
  -16.5365  -29.9049   23.6350 C   0  0  0  0  0  0
  -16.7287  -28.6469   23.0350 C   0  0  0  0  0  0
  -26.4517  -31.6551   25.0727 C   0  0  0  0  0  0
  -25.3696  -31.3728   26.1420 C   0  0  0  0  0  0
  -27.0385  -30.2945   24.6339 C   0  0  0  0  0  0
  -27.6029  -32.4380   25.7485 C   0  0  0  0  0  0
  -27.5563  -37.1710   24.8439 C   0  0  0  0  0  0
  -21.4283  -29.3014   22.3618 N   0  0  0  0  0  0
  -26.4239  -37.3717   23.9447 N   0  0  0  0  0  0
  -24.7255  -31.0163   22.0927 N   0  0  0  0  0  0
  -23.4206  -28.7983   23.2983 O   0  0  0  0  0  0
  -28.2510  -26.0811   20.1277 O   0  0  0  0  0  0
  -26.5638  -34.8875   22.4584 O   0  0  0  0  0  0
  -23.5586  -32.1296   23.7070 O   0  0  0  0  0  0
  -29.1891  -22.0622   18.0631 C   0  0  0  0  0  0
  -29.0095  -20.7516   19.9034 C   0  0  0  0  0  0
  -28.5510  -23.1549   19.9323 C   0  0  0  0  0  0
  -29.5242  -22.1606   16.5870 C   0  0  0  0  0  0
  -28.8832  -16.3178   21.8358 C   0  0  0  0  0  0
  -28.9612  -19.1778   20.4989 C   0  0  0  0  0  0
  -27.9816  -24.5914   20.5879 C   0  0  0  0  0  0
  -29.9407  -17.7987   20.1286 C   0  0  0  0  0  0
  -29.2729  -20.8397   18.6026 N   0  0  0  0  0  0
  -28.8542  -23.2195   18.6401 N   0  0  0  0  0  0
  -28.6084  -21.9086   20.5970 N   0  0  0  0  0  0
  -29.7333  -16.2757   20.6439 N   0  0  0  0  0  0
  -31.4834  -12.8281   19.1953 H   0  0  0  0  0  0
  -30.4698  -11.7037   20.0287 H   0  0  0  0  0  0
  -29.8821  -11.7554   17.6075 H   0  0  0  0  0  0
  -29.6234  -13.4776   17.6676 H   0  0  0  0  0  0
  -27.9944  -11.2803   18.9855 H   0  0  0  0  0  0
  -27.4130  -12.4320   17.8107 H   0  0  0  0  0  0
  -27.5996  -14.2602   19.4347 H   0  0  0  0  0  0
  -28.8023  -12.2326   21.3685 H   0  0  0  0  0  0
  -28.3232  -13.8236   21.8207 H   0  0  0  0  0  0
  -25.2758   -9.5661   22.4783 H   0  0  0  0  0  0
  -23.9956   -7.4630   22.7506 H   0  0  0  0  0  0
  -21.0813   -8.8796   19.8971 H   0  0  0  0  0  0
  -22.3701  -10.9672   19.6174 H   0  0  0  0  0  0
  -21.2021   -7.6128   23.9660 H   0  0  0  0  0  0
  -21.1481   -6.0525   25.9052 H   0  0  0  0  0  0
  -22.0603   -2.7574   23.2860 H   0  0  0  0  0  0
  -22.4068  -11.9891   22.4876 H   0  0  0  0  0  0
  -21.1051  -13.1245   22.2577 H   0  0  0  0  0  0
  -24.6246  -15.8329   20.5057 H   0  0  0  0  0  0
  -26.2371  -15.6378   20.0364 H   0  0  0  0  0  0
  -26.7280  -32.5170   23.0937 H   0  0  0  0  0  0
  -25.0180  -33.9551   25.0278 H   0  0  0  0  0  0
  -22.7622  -31.2892   21.3784 H   0  0  0  0  0  0
  -23.3786  -35.9523   23.3197 H   0  0  0  0  0  0
  -24.3595  -36.9005   22.2087 H   0  0  0  0  0  0
  -23.7214  -37.6367   23.6798 H   0  0  0  0  0  0
  -26.1725  -31.4463   20.6187 H   0  0  0  0  0  0
  -26.8872  -30.7415   22.0307 H   0  0  0  0  0  0
  -28.1653  -28.7842   21.1745 H   0  0  0  0  0  0
  -25.9127  -25.8208   19.0028 H   0  0  0  0  0  0
  -23.9684  -27.2795   19.0084 H   0  0  0  0  0  0
  -23.8324  -30.5686   19.4085 H   0  0  0  0  0  0
  -22.7966  -29.2392   19.8338 H   0  0  0  0  0  0
  -25.1275  -36.1735   25.0761 H   0  0  0  0  0  0
  -21.0017  -28.3238   24.1357 H   0  0  0  0  0  0
  -20.5646  -26.2285   23.3586 H   0  0  0  0  0  0
  -21.6633  -26.7317   22.1173 H   0  0  0  0  0  0
  -19.6871  -25.6247   21.1250 H   0  0  0  0  0  0
  -19.6701  -27.3157   20.6755 H   0  0  0  0  0  0
  -17.4182  -26.6705   21.4007 H   0  0  0  0  0  0
  -18.0291  -26.0018   22.9001 H   0  0  0  0  0  0
  -19.7933  -30.7309   24.2196 H   0  0  0  0  0  0
  -17.4998  -31.6252   24.5126 H   0  0  0  0  0  0
  -15.5366  -30.2901   23.7731 H   0  0  0  0  0  0
  -15.8678  -28.0792   22.7062 H   0  0  0  0  0  0
  -24.5911  -30.7030   25.7737 H   0  0  0  0  0  0
  -24.8833  -32.2894   26.4777 H   0  0  0  0  0  0
  -25.7971  -30.8941   27.0242 H   0  0  0  0  0  0
  -26.2982  -29.6671   24.1372 H   0  0  0  0  0  0
  -27.4024  -29.7234   25.4885 H   0  0  0  0  0  0
  -27.8868  -30.4168   23.9614 H   0  0  0  0  0  0
  -27.2644  -33.3824   26.1773 H   0  0  0  0  0  0
  -28.3953  -32.6745   25.0368 H   0  0  0  0  0  0
  -28.0557  -31.8707   26.5620 H   0  0  0  0  0  0
  -28.2410  -38.0151   24.7649 H   0  0  0  0  0  0
  -28.1207  -36.2693   24.6052 H   0  0  0  0  0  0
  -27.2302  -37.1079   25.8825 H   0  0  0  0  0  0
  -20.9510  -29.8813   21.6854 H   0  0  0  0  0  0
  -26.0070  -38.2708   24.1665 H   0  0  0  0  0  0
  -30.1469  -21.3278   16.2653 H   0  0  0  0  0  0
  -30.0857  -23.0710   16.3822 H   0  0  0  0  0  0
  -28.6190  -22.1658   15.9766 H   0  0  0  0  0  0
  -27.8296  -16.1727   21.5873 H   0  0  0  0  0  0
  -28.9789  -17.2683   22.3544 H   0  0  0  0  0  0
  -29.1861  -15.5938   22.5899 H   0  0  0  0  0  0
  -27.9323  -18.8578   20.3340 H   0  0  0  0  0  0
  -29.0259  -19.3187   21.5774 H   0  0  0  0  0  0
  -28.3207  -24.5772   21.6267 H   0  0  0  0  0  0
  -26.9010  -24.4642   20.6658 H   0  0  0  0  0  0
  -30.9567  -18.0662   20.4245 H   0  0  0  0  0  0
  -29.9693  -17.7305   19.0407 H   0  0  0  0  0  0
  1 25  1  0  0  0
  1 30  2  0  0  0
  1 82  1  0  0  0
  2  3  1  0  0  0
  2 25  1  0  0  0
  2 83  1  0  0  0
  2 84  1  0  0  0
  3  4  1  0  0  0
  3 85  1  0  0  0
  3 86  1  0  0  0
  4  5  1  0  0  0
  4 87  1  0  0  0
  4 88  1  0  0  0
  5  6  1  0  0  0
  5 26  1  0  0  0
  5 89  1  0  0  0
  6 25  1  0  0  0
  6 90  1  0  0  0
  6 91  1  0  0  0
  7  8  2  0  0  0
  7 26  1  0  0  0
  7 29  1  0  0  0
  8  9  1  0  0  0
  8 22  1  0  0  0
  9 10  1  0  0  0
  9 27  2  0  0  0
 10 11  2  0  0  0
 10 15  1  0  0  0
 11 12  1  0  0  0
 11 92  1  0  0  0
 12 13  2  0  0  0
 12 93  1  0  0  0
 13 14  1  0  0  0
 13 31  1  0  0  0
 14 15  2  0  0  0
 14 94  1  0  0  0
 15 95  1  0  0  0
 16 17  2  0  0  0
 16 21  1  0  0  0
 16 31  1  0  0  0
 17 18  1  0  0  0
 17 96  1  0  0  0
 18 19  2  0  0  0
 18 97  1  0  0  0
 19 20  1  0  0  0
 19 24  1  0  0  0
 20 21  2  0  0  0
 20 98  1  0  0  0
 21 23  1  0  0  0
 22 28  1  0  0  0
 22 32  2  0  0  0
 26 27  1  0  0  0
 28 99  1  0  0  0
 28100  1  0  0  0
 29101  1  0  0  0
 29102  1  0  0  0
 33 34  1  0  0  0
 33 66  1  0  0  0
 33 70  2  0  0  0
 34 36  1  0  0  0
 34 59  1  0  0  0
 34103  1  0  0  0
 35 44  2  0  0  0
 35 45  1  0  0  0
 35 68  1  0  0  0
 36 56  1  0  0  0
 36104  1  0  0  0
 37 39  1  0  0  0
 37 47  1  0  0  0
 37 66  1  0  0  0
 37105  1  0  0  0
 38 43  2  0  0  0
 38 46  1  0  0  0
 38 47  1  0  0  0
 39 64  1  0  0  0
 39 67  2  0  0  0
 40 52  1  0  0  0
 40 53  2  0  0  0
 40 58  1  0  0  0
 41106  1  0  0  0
 41107  1  0  0  0
 41108  1  0  0  0
 41 48  1  0  0  0
 42 43  1  0  0  0
 42 66  1  0  0  0
 42109  1  0  0  0
 42110  1  0  0  0
 43 44  1  0  0  0
 44111  1  0  0  0
 45 46  2  0  0  0
 45112  1  0  0  0
 46113  1  0  0  0
 47114  1  0  0  0
 47115  1  0  0  0
 48 56  1  0  0  0
 48 65  1  0  0  0
 48116  1  0  0  0
 49 50  1  0  0  0
 49 53  1  0  0  0
 49 64  1  0  0  0
 49117  1  0  0  0
 50 51  1  0  0  0
 50118  1  0  0  0
 50119  1  0  0  0
 51 52  1  0  0  0
 51120  1  0  0  0
 51121  1  0  0  0
 52122  1  0  0  0
 52123  1  0  0  0
 53 54  1  0  0  0
 54 55  2  0  0  0
 54124  1  0  0  0
 55 57  1  0  0  0
 55125  1  0  0  0
 56 69  2  0  0  0
 57 58  2  0  0  0
 57126  1  0  0  0
 58127  1  0  0  0
 59 60  1  0  0  0
 59 61  1  0  0  0
 59 62  1  0  0  0
 60128  1  0  0  0
 60129  1  0  0  0
 60130  1  0  0  0
 61131  1  0  0  0
 61132  1  0  0  0
 61133  1  0  0  0
 62134  1  0  0  0
 62135  1  0  0  0
 62136  1  0  0  0
 63 65  1  0  0  0
 63137  1  0  0  0
 63138  1  0  0  0
 63139  1  0  0  0
 64140  1  0  0  0
 65141  1  0  0  0
 68 77  1  0  0  0
 71 74  1  0  0  0
 71 79  2  0  0  0
 71 80  1  0  0  0
 72 76  1  0  0  0
 72 79  1  0  0  0
 72 81  2  0  0  0
 73 77  1  0  0  0
 73 80  2  0  0  0
 73 81  1  0  0  0
 74142  1  0  0  0
 74143  1  0  0  0
 74144  1  0  0  0
 75 82  1  0  0  0
 75145  1  0  0  0
 75146  1  0  0  0
 75147  1  0  0  0
 76 78  1  0  0  0
 76148  1  0  0  0
 76149  1  0  0  0
 77150  1  0  0  0
 77151  1  0  0  0
 78 82  1  0  0  0
 78152  1  0  0  0
 78153  1  0  0  0
M  ISO  4   1 100  68 101  77 101  82 100
M  END
> <chiral flag>
0

> <version>
0

> <s_m_source_file>
/data/baiqing/PycharmProjects/Reinvent-master-3.2/result/LINK_invent/BTK/process_docking_weight1_custom_sum_contain_oxygen_bond_distance_aromatic_linkinvent_7_9_3/rearranged_h_0059.sdf

> <i_m_source_file_index>
9

> <r_mmod_Potential_Energy-OPLS-2005>
213.421096801758

> <r_mmod_Stretch_Energy-OPLS-2005>
345.976318359375

> <r_mmod_Bend_Energy-OPLS-2005>
304.587432861328

> <r_mmod_Torsional_Energy-OPLS-2005>
281.327758789062

> <r_mmod_Improper_Torsional_Energy-OPLS-2005>
8.27653026580811

> <r_mmod_Van_der_Waal_Energy-OPLS-2005>
150.678176879883

> <r_mmod_Electrostatic_Energy-OPLS-2005>
-877.910095214844

> <r_mmod_Solvation_Energy-OPLS-2005>
-240.868743896484

> <b_mmod_Minimization_Converged-OPLS-2005>
0

> <r_mmod_RMS_Derivative-OPLS-2005>
5.69999933242798

$$$$
9
                    3D
 Structure written by MMmdl.
164172  0  0  1  0            999 V2000
  -30.6122  -14.7588   20.5201 C   0  0  0  0  0  0
  -30.4346  -12.4748   19.4842 C   0  0  0  0  0  0
  -29.5152  -12.5291   18.2430 C   0  0  0  0  0  0
  -28.0410  -12.3414   18.6482 C   0  0  0  0  0  0
  -27.6441  -13.2312   19.8549 C   0  0  2  0  0  0
  -28.6808  -13.1422   20.9936 C   0  0  0  0  0  0
  -25.2515  -13.8193   20.5696 C   0  0  0  0  0  0
  -24.1798  -13.0437   20.9190 C   0  0  0  0  0  0
  -24.6388  -11.6914   20.8725 C   0  0  0  0  0  0
  -23.9066  -10.4289   21.0392 C   0  0  0  0  0  0
  -24.3617   -9.4206   21.9173 C   0  0  0  0  0  0
  -23.6294   -8.2242   22.0748 C   0  0  0  0  0  0
  -22.4276   -8.0277   21.3542 C   0  0  0  0  0  0
  -21.9906   -9.0247   20.4643 C   0  0  0  0  0  0
  -22.7234  -10.2126   20.3045 C   0  0  0  0  0  0
  -21.6855   -6.0732   22.5280 C   0  0  0  0  0  0
  -21.4017   -6.5634   23.8215 C   0  0  0  0  0  0
  -21.3662   -5.6785   24.9175 C   0  0  0  0  0  0
  -21.6045   -4.3049   24.7225 C   0  0  0  0  0  0
  -21.8819   -3.8142   23.4346 C   0  0  0  0  0  0
  -21.9194   -4.6959   22.3402 C   0  0  0  0  0  0
  -22.7821  -13.5220   21.1863 C   0  0  0  0  0  0
  -22.1660   -4.2143   21.0980 F   0  0  0  0  0  0
  -21.5631   -3.4532   25.7739 F   0  0  0  0  0  0
  -29.9882  -13.5248   20.4366 N   0  0  0  0  0  0
  -26.2937  -12.9398   20.3270 N   0  0  0  0  0  0
  -25.9316  -11.6539   20.5717 N   0  0  0  0  0  0
  -22.0470  -12.8212   22.0424 N   0  0  0  0  0  0
  -25.4227  -15.1919   20.4169 N   0  0  0  0  0  0
  -31.7353  -14.8969   20.0241 O   0  0  0  0  0  0
  -21.6642   -6.8874   21.4242 O   0  0  0  0  0  0
  -22.3499  -14.5523   20.6712 O   0  0  0  0  0  0
  -24.6339  -31.8530   23.1970 C   0  0  0  0  0  0
  -25.9157  -32.4738   23.8324 C   0  0  1  0  0  0
  -27.2164  -27.2320   20.1267 C   0  0  0  0  0  0
  -25.5940  -33.8542   24.2242 N   0  0  0  0  0  0
  -23.4310  -30.4761   21.5413 C   0  0  2  0  0  0
  -24.8770  -28.9204   20.1080 C   0  0  0  0  0  0
  -22.7511  -29.4592   22.4903 C   0  0  0  0  0  0
  -18.0294  -28.1389   22.8482 C   0  0  0  0  0  0
  -24.1492  -36.7278   23.2639 C   0  0  0  0  0  0
  -25.9795  -30.7539   21.3836 C   0  0  0  0  0  0
  -26.0486  -29.3749   20.7247 C   0  0  0  0  0  0
  -27.2164  -28.5419   20.7255 C   0  0  0  0  0  0
  -26.0239  -26.8650   19.4596 C   0  0  0  0  0  0
  -24.8721  -27.6753   19.4644 C   0  0  0  0  0  0
  -23.6502  -29.8117   20.1568 C   0  0  0  0  0  0
  -25.4119  -36.3060   24.0324 C   0  0  1  0  0  0
  -20.5900  -28.3703   23.1260 C   0  0  2  0  0  0
  -20.6784  -26.9415   22.5409 C   0  0  0  0  0  0
  -19.5759  -26.6380   21.5213 C   0  0  0  0  0  0
  -18.1938  -26.7931   22.1624 C   0  0  0  0  0  0
  -19.1549  -28.8864   23.2865 C   0  0  0  0  0  0
  -18.9468  -30.1463   23.8885 C   0  0  0  0  0  0
  -17.6467  -30.6588   24.0561 C   0  0  0  0  0  0
  -25.9062  -34.9429   23.5088 C   0  0  0  0  0  0
  -16.5358  -29.9085   23.6332 C   0  0  0  0  0  0
  -16.7280  -28.6503   23.0353 C   0  0  0  0  0  0
  -26.4515  -31.6573   25.0725 C   0  0  0  0  0  0
  -25.3730  -31.3737   26.1441 C   0  0  0  0  0  0
  -27.0365  -30.2980   24.6243 C   0  0  0  0  0  0
  -27.6058  -32.4327   25.7500 C   0  0  0  0  0  0
  -27.5578  -37.1796   24.8464 C   0  0  0  0  0  0
  -21.4218  -29.3046   22.3645 N   0  0  0  0  0  0
  -26.4290  -37.3764   23.9409 N   0  0  0  0  0  0
  -24.7007  -31.0471   22.0963 N   0  0  0  0  0  0
  -23.4198  -28.8139   23.3015 O   0  0  0  0  0  0
  -28.3147  -26.3319   20.2135 O   0  0  0  0  0  0
  -26.5635  -34.8909   22.4658 O   0  0  0  0  0  0
  -23.5484  -32.1367   23.7251 O   0  0  0  0  0  0
  -29.1075  -20.0078   20.6767 C   0  0  0  0  0  0
  -27.5273  -21.4071   21.0410 C   0  0  0  0  0  0
  -26.4883  -21.8785   23.2601 C   0  0  0  0  0  0
  -25.0880  -20.8805   21.4332 C   0  0  0  0  0  0
  -25.7103  -23.2474   21.3232 C   0  0  0  0  0  0
  -29.7685  -15.9604   22.4601 C   0  0  0  0  0  0
  -29.9292  -18.6747   20.9576 C   0  0  0  0  0  0
  -28.8826  -23.6961   20.8071 C   0  0  0  0  0  0
  -29.5776  -17.2143   20.3013 C   0  0  0  0  0  0
  -28.2209  -24.8539   19.8642 C   0  0  0  0  0  0
  -26.2430  -21.8661   21.7390 C   0  0  0  0  0  0
  -27.7887  -20.0835   21.0012 N   0  0  0  0  0  0
  -29.6268  -21.2467   20.4394 N   0  0  0  0  0  0
  -28.5944  -22.1777   20.6747 N   0  0  0  0  0  0
  -29.9093  -15.8709   21.0039 N   0  0  0  0  0  0
  -31.4752  -12.6039   19.1829 H   0  0  0  0  0  0
  -30.3866  -11.4921   19.9557 H   0  0  0  0  0  0
  -29.8058  -11.7628   17.5232 H   0  0  0  0  0  0
  -29.6385  -13.4884   17.7375 H   0  0  0  0  0  0
  -27.9019  -11.2904   18.9044 H   0  0  0  0  0  0
  -27.3850  -12.5365   17.7989 H   0  0  0  0  0  0
  -27.6461  -14.2589   19.4905 H   0  0  0  0  0  0
  -28.7206  -12.1319   21.4035 H   0  0  0  0  0  0
  -28.3749  -13.7857   21.8160 H   0  0  0  0  0  0
  -25.2758   -9.5690   22.4746 H   0  0  0  0  0  0
  -24.0004   -7.4637   22.7464 H   0  0  0  0  0  0
  -21.0837   -8.8764   19.8951 H   0  0  0  0  0  0
  -22.3687  -10.9663   19.6153 H   0  0  0  0  0  0
  -21.2009   -7.6141   23.9716 H   0  0  0  0  0  0
  -21.1485   -6.0516   25.9079 H   0  0  0  0  0  0
  -22.0598   -2.7604   23.2849 H   0  0  0  0  0  0
  -22.4088  -11.9880   22.4825 H   0  0  0  0  0  0
  -21.1083  -13.1230   22.2624 H   0  0  0  0  0  0
  -24.6629  -15.8515   20.5435 H   0  0  0  0  0  0
  -26.2879  -15.6348   20.1352 H   0  0  0  0  0  0
  -26.7219  -32.5376   23.1058 H   0  0  0  0  0  0
  -25.0080  -33.9678   25.0384 H   0  0  0  0  0  0
  -22.7292  -31.2998   21.3958 H   0  0  0  0  0  0
  -23.3754  -35.9610   23.3293 H   0  0  0  0  0  0
  -24.3577  -36.8908   22.2054 H   0  0  0  0  0  0
  -23.7248  -37.6476   23.6672 H   0  0  0  0  0  0
  -26.1256  -31.5130   20.6141 H   0  0  0  0  0  0
  -26.8543  -30.7997   22.0207 H   0  0  0  0  0  0
  -28.1093  -28.8839   21.2300 H   0  0  0  0  0  0
  -25.9346  -25.9354   18.9222 H   0  0  0  0  0  0
  -23.9796  -27.3290   18.9613 H   0  0  0  0  0  0
  -23.7786  -30.5892   19.4028 H   0  0  0  0  0  0
  -22.7675  -29.2485   19.8491 H   0  0  0  0  0  0
  -25.1306  -36.1901   25.0817 H   0  0  0  0  0  0
  -20.9991  -28.3286   24.1378 H   0  0  0  0  0  0
  -20.5670  -26.2316   23.3620 H   0  0  0  0  0  0
  -21.6654  -26.7427   22.1216 H   0  0  0  0  0  0
  -19.6914  -25.6285   21.1254 H   0  0  0  0  0  0
  -19.6700  -27.3179   20.6732 H   0  0  0  0  0  0
  -17.4210  -26.6673   21.4023 H   0  0  0  0  0  0
  -18.0334  -26.0075   22.9020 H   0  0  0  0  0  0
  -19.7943  -30.7282   24.2247 H   0  0  0  0  0  0
  -17.5021  -31.6266   24.5168 H   0  0  0  0  0  0
  -15.5359  -30.2985   23.7658 H   0  0  0  0  0  0
  -15.8679  -28.0819   22.7075 H   0  0  0  0  0  0
  -24.5916  -30.7070   25.7776 H   0  0  0  0  0  0
  -24.8913  -32.2910   26.4834 H   0  0  0  0  0  0
  -25.8043  -30.8944   27.0237 H   0  0  0  0  0  0
  -26.2956  -29.6716   24.1259 H   0  0  0  0  0  0
  -27.4012  -29.7259   25.4785 H   0  0  0  0  0  0
  -27.8853  -30.4230   23.9515 H   0  0  0  0  0  0
  -27.2653  -33.3634   26.2047 H   0  0  0  0  0  0
  -28.3881  -32.6871   25.0337 H   0  0  0  0  0  0
  -28.0711  -31.8474   26.5440 H   0  0  0  0  0  0
  -28.2599  -38.0092   24.7511 H   0  0  0  0  0  0
  -28.1073  -36.2623   24.6294 H   0  0  0  0  0  0
  -27.2294  -37.1447   25.8866 H   0  0  0  0  0  0
  -20.9401  -29.8765   21.6849 H   0  0  0  0  0  0
  -26.0163  -38.2835   24.1410 H   0  0  0  0  0  0
  -26.7776  -20.8915   23.6221 H   0  0  0  0  0  0
  -25.5968  -22.1797   23.8106 H   0  0  0  0  0  0
  -27.2893  -22.5685   23.5268 H   0  0  0  0  0  0
  -25.3004  -19.8739   21.7945 H   0  0  0  0  0  0
  -24.9033  -20.8098   20.3605 H   0  0  0  0  0  0
  -24.1559  -21.1894   21.9072 H   0  0  0  0  0  0
  -26.3596  -24.0577   21.6451 H   0  0  0  0  0  0
  -24.7482  -23.4531   21.7932 H   0  0  0  0  0  0
  -25.5462  -23.3015   20.2474 H   0  0  0  0  0  0
  -30.5556  -16.5857   22.8812 H   0  0  0  0  0  0
  -29.8492  -14.9937   22.9601 H   0  0  0  0  0  0
  -28.8029  -16.3899   22.7294 H   0  0  0  0  0  0
  -29.9045  -18.5726   22.0403 H   0  0  0  0  0  0
  -30.9760  -18.8861   20.7375 H   0  0  0  0  0  0
  -28.6419  -23.9504   21.8387 H   0  0  0  0  0  0
  -29.9641  -23.8192   20.7515 H   0  0  0  0  0  0
  -29.9689  -17.1856   19.2837 H   0  0  0  0  0  0
  -28.4945  -17.1903   20.1799 H   0  0  0  0  0  0
  -27.2010  -24.5622   19.6778 H   0  0  0  0  0  0
  -28.6855  -24.7604   18.8825 H   0  0  0  0  0  0
  1 25  1  0  0  0
  1 30  2  0  0  0
  1 85  1  0  0  0
  2  3  1  0  0  0
  2 25  1  0  0  0
  2 86  1  0  0  0
  2 87  1  0  0  0
  3  4  1  0  0  0
  3 88  1  0  0  0
  3 89  1  0  0  0
  4  5  1  0  0  0
  4 90  1  0  0  0
  4 91  1  0  0  0
  5  6  1  0  0  0
  5 26  1  0  0  0
  5 92  1  0  0  0
  6 25  1  0  0  0
  6 93  1  0  0  0
  6 94  1  0  0  0
  7  8  2  0  0  0
  7 26  1  0  0  0
  7 29  1  0  0  0
  8  9  1  0  0  0
  8 22  1  0  0  0
  9 10  1  0  0  0
  9 27  2  0  0  0
 10 11  2  0  0  0
 10 15  1  0  0  0
 11 12  1  0  0  0
 11 95  1  0  0  0
 12 13  2  0  0  0
 12 96  1  0  0  0
 13 14  1  0  0  0
 13 31  1  0  0  0
 14 15  2  0  0  0
 14 97  1  0  0  0
 15 98  1  0  0  0
 16 17  2  0  0  0
 16 21  1  0  0  0
 16 31  1  0  0  0
 17 18  1  0  0  0
 17 99  1  0  0  0
 18 19  2  0  0  0
 18100  1  0  0  0
 19 20  1  0  0  0
 19 24  1  0  0  0
 20 21  2  0  0  0
 20101  1  0  0  0
 21 23  1  0  0  0
 22 28  1  0  0  0
 22 32  2  0  0  0
 26 27  1  0  0  0
 28102  1  0  0  0
 28103  1  0  0  0
 29104  1  0  0  0
 29105  1  0  0  0
 33 34  1  0  0  0
 33 66  1  0  0  0
 33 70  2  0  0  0
 34 36  1  0  0  0
 34 59  1  0  0  0
 34106  1  0  0  0
 35 44  2  0  0  0
 35 45  1  0  0  0
 35 68  1  0  0  0
 36 56  1  0  0  0
 36107  1  0  0  0
 37 39  1  0  0  0
 37 47  1  0  0  0
 37 66  1  0  0  0
 37108  1  0  0  0
 38 43  2  0  0  0
 38 46  1  0  0  0
 38 47  1  0  0  0
 39 64  1  0  0  0
 39 67  2  0  0  0
 40 52  1  0  0  0
 40 53  2  0  0  0
 40 58  1  0  0  0
 41109  1  0  0  0
 41110  1  0  0  0
 41111  1  0  0  0
 41 48  1  0  0  0
 42 43  1  0  0  0
 42 66  1  0  0  0
 42112  1  0  0  0
 42113  1  0  0  0
 43 44  1  0  0  0
 44114  1  0  0  0
 45 46  2  0  0  0
 45115  1  0  0  0
 46116  1  0  0  0
 47117  1  0  0  0
 47118  1  0  0  0
 48 56  1  0  0  0
 48 65  1  0  0  0
 48119  1  0  0  0
 49 50  1  0  0  0
 49 53  1  0  0  0
 49 64  1  0  0  0
 49120  1  0  0  0
 50 51  1  0  0  0
 50121  1  0  0  0
 50122  1  0  0  0
 51 52  1  0  0  0
 51123  1  0  0  0
 51124  1  0  0  0
 52125  1  0  0  0
 52126  1  0  0  0
 53 54  1  0  0  0
 54 55  2  0  0  0
 54127  1  0  0  0
 55 57  1  0  0  0
 55128  1  0  0  0
 56 69  2  0  0  0
 57 58  2  0  0  0
 57129  1  0  0  0
 58130  1  0  0  0
 59 60  1  0  0  0
 59 61  1  0  0  0
 59 62  1  0  0  0
 60131  1  0  0  0
 60132  1  0  0  0
 60133  1  0  0  0
 61134  1  0  0  0
 61135  1  0  0  0
 61136  1  0  0  0
 62137  1  0  0  0
 62138  1  0  0  0
 62139  1  0  0  0
 63 65  1  0  0  0
 63140  1  0  0  0
 63141  1  0  0  0
 63142  1  0  0  0
 64143  1  0  0  0
 65144  1  0  0  0
 68 80  1  0  0  0
 71 77  1  0  0  0
 71 82  1  0  0  0
 71 83  2  0  0  0
 72 81  1  0  0  0
 72 82  2  0  0  0
 72 84  1  0  0  0
 73145  1  0  0  0
 73146  1  0  0  0
 73147  1  0  0  0
 73 81  1  0  0  0
 74 81  1  0  0  0
 74148  1  0  0  0
 74149  1  0  0  0
 74150  1  0  0  0
 75 81  1  0  0  0
 75151  1  0  0  0
 75152  1  0  0  0
 75153  1  0  0  0
 76 85  1  0  0  0
 76154  1  0  0  0
 76155  1  0  0  0
 76156  1  0  0  0
 77 79  1  0  0  0
 77157  1  0  0  0
 77158  1  0  0  0
 78 80  1  0  0  0
 78 84  1  0  0  0
 78159  1  0  0  0
 78160  1  0  0  0
 79 85  1  0  0  0
 79161  1  0  0  0
 79162  1  0  0  0
 80163  1  0  0  0
 80164  1  0  0  0
 83 84  1  0  0  0
M  ISO  4   1 100  68 101  80 101  85 100
M  END
> <chiral flag>
0

> <version>
0

> <s_m_source_file>
/data/baiqing/PycharmProjects/Reinvent-master-3.2/result/LINK_invent/BTK/process_docking_weight1_custom_sum_contain_oxygen_bond_distance_aromatic_linkinvent_7_9_3/rearranged_h_0059.sdf

> <i_m_source_file_index>
10

> <r_mmod_Potential_Energy-OPLS-2005>
394.906372070312

> <r_mmod_Stretch_Energy-OPLS-2005>
158.914657592773

> <r_mmod_Bend_Energy-OPLS-2005>
222.532287597656

> <r_mmod_Torsional_Energy-OPLS-2005>
311.879425048828

> <r_mmod_Improper_Torsional_Energy-OPLS-2005>
10.6666612625122

> <r_mmod_Van_der_Waal_Energy-OPLS-2005>
126.16389465332

> <r_mmod_Electrostatic_Energy-OPLS-2005>
-323.461486816406

> <r_mmod_Solvation_Energy-OPLS-2005>
-206.268463134766

> <b_mmod_Minimization_Converged-OPLS-2005>
0

> <r_mmod_RMS_Derivative-OPLS-2005>
0.758248209953308

$$$$
10
                    3D
 Structure written by MMmdl.
152160  0  0  1  0            999 V2000
  -30.5031  -15.0989   20.3618 C   0  0  0  0  0  0
  -30.4397  -12.6899   19.4884 C   0  0  0  0  0  0
  -29.5218  -12.4924   18.2575 C   0  0  0  0  0  0
  -28.0656  -12.2635   18.6960 C   0  0  0  0  0  0
  -27.6140  -13.2492   19.8047 C   0  0  2  0  0  0
  -28.6551  -13.3859   20.9314 C   0  0  0  0  0  0
  -25.2443  -13.8213   20.5706 C   0  0  0  0  0  0
  -24.1755  -13.0449   20.9227 C   0  0  0  0  0  0
  -24.6354  -11.6933   20.8720 C   0  0  0  0  0  0
  -23.9040  -10.4297   21.0393 C   0  0  0  0  0  0
  -24.3612   -9.4220   21.9175 C   0  0  0  0  0  0
  -23.6292   -8.2255   22.0760 C   0  0  0  0  0  0
  -22.4274   -8.0271   21.3552 C   0  0  0  0  0  0
  -21.9891   -9.0237   20.4665 C   0  0  0  0  0  0
  -22.7206  -10.2128   20.3060 C   0  0  0  0  0  0
  -21.6852   -6.0717   22.5271 C   0  0  0  0  0  0
  -21.4019   -6.5625   23.8198 C   0  0  0  0  0  0
  -21.3674   -5.6778   24.9164 C   0  0  0  0  0  0
  -21.6050   -4.3037   24.7211 C   0  0  0  0  0  0
  -21.8825   -3.8134   23.4322 C   0  0  0  0  0  0
  -21.9196   -4.6949   22.3385 C   0  0  0  0  0  0
  -22.7775  -13.5235   21.1856 C   0  0  0  0  0  0
  -22.1659   -4.2127   21.0960 F   0  0  0  0  0  0
  -21.5643   -3.4533   25.7728 F   0  0  0  0  0  0
  -29.8983  -13.8324   20.2890 N   0  0  0  0  0  0
  -26.2819  -12.9433   20.3136 N   0  0  0  0  0  0
  -25.9286  -11.6567   20.5695 N   0  0  0  0  0  0
  -22.0414  -12.8255   22.0423 N   0  0  0  0  0  0
  -25.4143  -15.1946   20.4184 N   0  0  0  0  0  0
  -31.7391  -15.0783   20.2701 O   0  0  0  0  0  0
  -21.6658   -6.8860   21.4230 O   0  0  0  0  0  0
  -22.3448  -14.5502   20.6635 O   0  0  0  0  0  0
  -24.6537  -31.8338   23.1788 C   0  0  0  0  0  0
  -25.9270  -32.4638   23.8200 C   0  0  1  0  0  0
  -27.2146  -27.0382   20.1776 C   0  0  0  0  0  0
  -25.5988  -33.8449   24.2133 N   0  0  0  0  0  0
  -23.4630  -30.4497   21.5250 C   0  0  2  0  0  0
  -24.9150  -28.8532   20.1184 C   0  0  0  0  0  0
  -22.7608  -29.4512   22.4802 C   0  0  0  0  0  0
  -18.0320  -28.1424   22.8468 C   0  0  0  0  0  0
  -24.1489  -36.7226   23.2637 C   0  0  0  0  0  0
  -26.0256  -30.6776   21.3929 C   0  0  0  0  0  0
  -26.0971  -29.2767   20.7412 C   0  0  0  0  0  0
  -27.2497  -28.3895   20.7439 C   0  0  0  0  0  0
  -26.0038  -26.7347   19.5228 C   0  0  0  0  0  0
  -24.8840  -27.5976   19.4930 C   0  0  0  0  0  0
  -23.6991  -29.7703   20.1487 C   0  0  0  0  0  0
  -25.4124  -36.2999   24.0309 C   0  0  1  0  0  0
  -20.5936  -28.3763   23.1199 C   0  0  2  0  0  0
  -20.6809  -26.9455   22.5394 C   0  0  0  0  0  0
  -19.5786  -26.6395   21.5208 C   0  0  0  0  0  0
  -18.1968  -26.7959   22.1616 C   0  0  0  0  0  0
  -19.1576  -28.8912   23.2822 C   0  0  0  0  0  0
  -18.9490  -30.1502   23.8854 C   0  0  0  0  0  0
  -17.6485  -30.6610   24.0568 C   0  0  0  0  0  0
  -25.9087  -34.9381   23.5035 C   0  0  0  0  0  0
  -16.5376  -29.9099   23.6347 C   0  0  0  0  0  0
  -16.7299  -28.6525   23.0349 C   0  0  0  0  0  0
  -26.4566  -31.6539   25.0678 C   0  0  0  0  0  0
  -25.3721  -31.3764   26.1348 C   0  0  0  0  0  0
  -27.0465  -30.2926   24.6338 C   0  0  0  0  0  0
  -27.6069  -32.4333   25.7475 C   0  0  0  0  0  0
  -27.5579  -37.1755   24.8461 C   0  0  0  0  0  0
  -21.4290  -29.3058   22.3548 N   0  0  0  0  0  0
  -26.4273  -37.3733   23.9429 N   0  0  0  0  0  0
  -24.7349  -31.0096   22.0880 N   0  0  0  0  0  0
  -23.4196  -28.8050   23.2985 O   0  0  0  0  0  0
  -28.2376  -25.9943   20.1569 O   0  0  0  0  0  0
  -26.5665  -34.8901   22.4611 O   0  0  0  0  0  0
  -23.5634  -32.1241   23.6961 O   0  0  0  0  0  0
  -28.4633  -23.0465   20.1710 C   0  0  0  0  0  0
  -28.2824  -21.2192   18.9956 C   0  0  0  0  0  0
  -27.9678  -20.3174   17.8462 C   0  0  0  0  0  0
  -29.8240  -16.5324   18.5261 C   0  0  0  0  0  0
  -28.0164  -24.5516   20.7957 C   0  0  0  0  0  0
  -29.8107  -19.3555   20.2020 C   0  0  0  0  0  0
  -29.3170  -17.7390   20.6149 C   0  0  0  0  0  0
  -27.9215  -22.5343   19.0124 N   0  0  0  0  0  0
  -29.1290  -21.9923   20.8196 N   0  0  0  0  0  0
  -28.9966  -20.7666   20.0548 N   0  0  0  0  0  0
  -29.8017  -16.3219   19.9770 N   0  0  0  0  0  0
  -31.4616  -12.8736   19.1536 H   0  0  0  0  0  0
  -30.4850  -11.7839   20.0933 H   0  0  0  0  0  0
  -29.8670  -11.6421   17.6672 H   0  0  0  0  0  0
  -29.5758  -13.3582   17.5983 H   0  0  0  0  0  0
  -28.0046  -11.2422   19.0745 H   0  0  0  0  0  0
  -27.3929  -12.3076   17.8377 H   0  0  0  0  0  0
  -27.5444  -14.2193   19.3083 H   0  0  0  0  0  0
  -28.7908  -12.4508   21.4755 H   0  0  0  0  0  0
  -28.3236  -14.1335   21.6537 H   0  0  0  0  0  0
  -25.2769   -9.5705   22.4726 H   0  0  0  0  0  0
  -24.0008   -7.4658   22.7489 H   0  0  0  0  0  0
  -21.0815   -8.8746   19.8977 H   0  0  0  0  0  0
  -22.3652  -10.9655   19.6158 H   0  0  0  0  0  0
  -21.2007   -7.6134   23.9682 H   0  0  0  0  0  0
  -21.1498   -6.0518   25.9060 H   0  0  0  0  0  0
  -22.0591   -2.7591   23.2830 H   0  0  0  0  0  0
  -22.4065  -11.9978   22.4895 H   0  0  0  0  0  0
  -21.1007  -13.1268   22.2573 H   0  0  0  0  0  0
  -24.6508  -15.8477   20.5478 H   0  0  0  0  0  0
  -26.2735  -15.6395   20.1235 H   0  0  0  0  0  0
  -26.7329  -32.5212   23.0911 H   0  0  0  0  0  0
  -25.0163  -33.9537   25.0300 H   0  0  0  0  0  0
  -22.7715  -31.2786   21.3609 H   0  0  0  0  0  0
  -23.3766  -35.9539   23.3259 H   0  0  0  0  0  0
  -24.3577  -36.8900   22.2059 H   0  0  0  0  0  0
  -23.7215  -37.6400   23.6696 H   0  0  0  0  0  0
  -26.1917  -31.4239   20.6145 H   0  0  0  0  0  0
  -26.8922  -30.7338   22.0395 H   0  0  0  0  0  0
  -28.1560  -28.7141   21.2360 H   0  0  0  0  0  0
  -25.9087  -25.7715   19.0418 H   0  0  0  0  0  0
  -23.9820  -27.2662   18.9942 H   0  0  0  0  0  0
  -23.8539  -30.5416   19.3926 H   0  0  0  0  0  0
  -22.8100  -29.2220   19.8305 H   0  0  0  0  0  0
  -25.1309  -36.1805   25.0796 H   0  0  0  0  0  0
  -21.0027  -28.3376   24.1321 H   0  0  0  0  0  0
  -20.5722  -26.2371   23.3616 H   0  0  0  0  0  0
  -21.6671  -26.7467   22.1181 H   0  0  0  0  0  0
  -19.6945  -25.6290   21.1278 H   0  0  0  0  0  0
  -19.6733  -27.3168   20.6708 H   0  0  0  0  0  0
  -17.4227  -26.6689   21.4021 H   0  0  0  0  0  0
  -18.0376  -26.0114   22.9030 H   0  0  0  0  0  0
  -19.7967  -30.7345   24.2176 H   0  0  0  0  0  0
  -17.5040  -31.6280   24.5199 H   0  0  0  0  0  0
  -15.5376  -30.2995   23.7703 H   0  0  0  0  0  0
  -15.8698  -28.0849   22.7063 H   0  0  0  0  0  0
  -24.5895  -30.7127   25.7644 H   0  0  0  0  0  0
  -24.8917  -32.2969   26.4682 H   0  0  0  0  0  0
  -25.7969  -30.8971   27.0177 H   0  0  0  0  0  0
  -26.3122  -29.6594   24.1342 H   0  0  0  0  0  0
  -27.4054  -29.7283   25.4954 H   0  0  0  0  0  0
  -27.9033  -30.4139   23.9704 H   0  0  0  0  0  0
  -27.2638  -33.3654   26.1977 H   0  0  0  0  0  0
  -28.3918  -32.6865   25.0334 H   0  0  0  0  0  0
  -28.0697  -31.8508   26.5450 H   0  0  0  0  0  0
  -28.2554  -38.0096   24.7572 H   0  0  0  0  0  0
  -28.1125  -36.2632   24.6211 H   0  0  0  0  0  0
  -27.2312  -37.1306   25.8865 H   0  0  0  0  0  0
  -20.9514  -29.8731   21.6691 H   0  0  0  0  0  0
  -26.0131  -38.2786   24.1479 H   0  0  0  0  0  0
  -27.3779  -19.4652   18.1823 H   0  0  0  0  0  0
  -28.8851  -19.9463   17.3914 H   0  0  0  0  0  0
  -27.4041  -20.8486   17.0777 H   0  0  0  0  0  0
  -30.7226  -17.0765   18.2307 H   0  0  0  0  0  0
  -28.9559  -17.1023   18.1939 H   0  0  0  0  0  0
  -29.8144  -15.5964   17.9672 H   0  0  0  0  0  0
  -28.4882  -24.6162   21.7761 H   0  0  0  0  0  0
  -26.9517  -24.4790   21.0197 H   0  0  0  0  0  0
  -30.3152  -19.2487   19.2434 H   0  0  0  0  0  0
  -30.6390  -19.5803   20.8740 H   0  0  0  0  0  0
  -28.2336  -17.7294   20.4909 H   0  0  0  0  0  0
  -29.4475  -17.6356   21.6928 H   0  0  0  0  0  0
  1 25  1  0  0  0
  1 30  2  0  0  0
  1 81  1  0  0  0
  2  3  1  0  0  0
  2 25  1  0  0  0
  2 82  1  0  0  0
  2 83  1  0  0  0
  3  4  1  0  0  0
  3 84  1  0  0  0
  3 85  1  0  0  0
  4  5  1  0  0  0
  4 86  1  0  0  0
  4 87  1  0  0  0
  5  6  1  0  0  0
  5 26  1  0  0  0
  5 88  1  0  0  0
  6 25  1  0  0  0
  6 89  1  0  0  0
  6 90  1  0  0  0
  7  8  2  0  0  0
  7 26  1  0  0  0
  7 29  1  0  0  0
  8  9  1  0  0  0
  8 22  1  0  0  0
  9 10  1  0  0  0
  9 27  2  0  0  0
 10 11  2  0  0  0
 10 15  1  0  0  0
 11 12  1  0  0  0
 11 91  1  0  0  0
 12 13  2  0  0  0
 12 92  1  0  0  0
 13 14  1  0  0  0
 13 31  1  0  0  0
 14 15  2  0  0  0
 14 93  1  0  0  0
 15 94  1  0  0  0
 16 17  2  0  0  0
 16 21  1  0  0  0
 16 31  1  0  0  0
 17 18  1  0  0  0
 17 95  1  0  0  0
 18 19  2  0  0  0
 18 96  1  0  0  0
 19 20  1  0  0  0
 19 24  1  0  0  0
 20 21  2  0  0  0
 20 97  1  0  0  0
 21 23  1  0  0  0
 22 28  1  0  0  0
 22 32  2  0  0  0
 26 27  1  0  0  0
 28 98  1  0  0  0
 28 99  1  0  0  0
 29100  1  0  0  0
 29101  1  0  0  0
 33 34  1  0  0  0
 33 66  1  0  0  0
 33 70  2  0  0  0
 34 36  1  0  0  0
 34 59  1  0  0  0
 34102  1  0  0  0
 35 44  2  0  0  0
 35 45  1  0  0  0
 35 68  1  0  0  0
 36 56  1  0  0  0
 36103  1  0  0  0
 37 39  1  0  0  0
 37 47  1  0  0  0
 37 66  1  0  0  0
 37104  1  0  0  0
 38 43  2  0  0  0
 38 46  1  0  0  0
 38 47  1  0  0  0
 39 64  1  0  0  0
 39 67  2  0  0  0
 40 52  1  0  0  0
 40 53  2  0  0  0
 40 58  1  0  0  0
 41105  1  0  0  0
 41106  1  0  0  0
 41107  1  0  0  0
 41 48  1  0  0  0
 42 43  1  0  0  0
 42 66  1  0  0  0
 42108  1  0  0  0
 42109  1  0  0  0
 43 44  1  0  0  0
 44110  1  0  0  0
 45 46  2  0  0  0
 45111  1  0  0  0
 46112  1  0  0  0
 47113  1  0  0  0
 47114  1  0  0  0
 48 56  1  0  0  0
 48 65  1  0  0  0
 48115  1  0  0  0
 49 50  1  0  0  0
 49 53  1  0  0  0
 49 64  1  0  0  0
 49116  1  0  0  0
 50 51  1  0  0  0
 50117  1  0  0  0
 50118  1  0  0  0
 51 52  1  0  0  0
 51119  1  0  0  0
 51120  1  0  0  0
 52121  1  0  0  0
 52122  1  0  0  0
 53 54  1  0  0  0
 54 55  2  0  0  0
 54123  1  0  0  0
 55 57  1  0  0  0
 55124  1  0  0  0
 56 69  2  0  0  0
 57 58  2  0  0  0
 57125  1  0  0  0
 58126  1  0  0  0
 59 60  1  0  0  0
 59 61  1  0  0  0
 59 62  1  0  0  0
 60127  1  0  0  0
 60128  1  0  0  0
 60129  1  0  0  0
 61130  1  0  0  0
 61131  1  0  0  0
 61132  1  0  0  0
 62133  1  0  0  0
 62134  1  0  0  0
 62135  1  0  0  0
 63 65  1  0  0  0
 63136  1  0  0  0
 63137  1  0  0  0
 63138  1  0  0  0
 64139  1  0  0  0
 65140  1  0  0  0
 68 75  1  0  0  0
 71 75  1  0  0  0
 71 78  1  0  0  0
 71 79  2  0  0  0
 72 73  1  0  0  0
 72 78  2  0  0  0
 72 80  1  0  0  0
 73141  1  0  0  0
 73142  1  0  0  0
 73143  1  0  0  0
 74 81  1  0  0  0
 74144  1  0  0  0
 74145  1  0  0  0
 74146  1  0  0  0
 75147  1  0  0  0
 75148  1  0  0  0
 76 77  1  0  0  0
 76 80  1  0  0  0
 76149  1  0  0  0
 76150  1  0  0  0
 77 81  1  0  0  0
 77151  1  0  0  0
 77152  1  0  0  0
 79 80  1  0  0  0
M  ISO  4   1 100  68 101  75 101  81 100
M  END
> <chiral flag>
0

> <version>
0

> <s_m_source_file>
/data/baiqing/PycharmProjects/Reinvent-master-3.2/result/LINK_invent/BTK/process_docking_weight1_custom_sum_contain_oxygen_bond_distance_aromatic_linkinvent_7_9_3/rearranged_h_0059.sdf

> <i_m_source_file_index>
11

> <r_mmod_Potential_Energy-OPLS-2005>
1056.51220703125

> <r_mmod_Stretch_Energy-OPLS-2005>
388.264617919922

> <r_mmod_Bend_Energy-OPLS-2005>
378.515838623047

> <r_mmod_Torsional_Energy-OPLS-2005>
357.430328369141

> <r_mmod_Improper_Torsional_Energy-OPLS-2005>
25.0927848815918

> <r_mmod_Van_der_Waal_Energy-OPLS-2005>
102.665954589844

> <r_mmod_Electrostatic_Energy-OPLS-2005>
-277.912750244141

> <r_mmod_Solvation_Energy-OPLS-2005>
-226.821578979492

> <b_mmod_Minimization_Converged-OPLS-2005>
0

> <r_mmod_RMS_Derivative-OPLS-2005>
3.0828869342804

$$$$
11
                    3D
 Structure written by MMmdl.
163171  0  0  1  0            999 V2000
  -30.6846  -14.5221   20.4817 C   0  0  0  0  0  0
  -30.4201  -12.3131   19.4381 C   0  0  0  0  0  0
  -29.4981  -12.4870   18.2126 C   0  0  0  0  0  0
  -28.0143  -12.3600   18.6183 C   0  0  0  0  0  0
  -27.6510  -13.2113   19.8666 C   0  0  2  0  0  0
  -28.6994  -13.0392   20.9888 C   0  0  0  0  0  0
  -25.2537  -13.8146   20.5696 C   0  0  0  0  0  0
  -24.1804  -13.0413   20.9204 C   0  0  0  0  0  0
  -24.6371  -11.6888   20.8766 C   0  0  0  0  0  0
  -23.9031  -10.4280   21.0412 C   0  0  0  0  0  0
  -24.3587   -9.4191   21.9197 C   0  0  0  0  0  0
  -23.6268   -8.2228   22.0749 C   0  0  0  0  0  0
  -22.4250   -8.0263   21.3535 C   0  0  0  0  0  0
  -21.9880   -9.0232   20.4641 C   0  0  0  0  0  0
  -22.7205  -10.2115   20.3054 C   0  0  0  0  0  0
  -21.6822   -6.0727   22.5283 C   0  0  0  0  0  0
  -21.3988   -6.5628   23.8225 C   0  0  0  0  0  0
  -21.3673   -5.6781   24.9194 C   0  0  0  0  0  0
  -21.6052   -4.3041   24.7224 C   0  0  0  0  0  0
  -21.8821   -3.8135   23.4339 C   0  0  0  0  0  0
  -21.9182   -4.6960   22.3404 C   0  0  0  0  0  0
  -22.7822  -13.5189   21.1867 C   0  0  0  0  0  0
  -22.1628   -4.2150   21.0978 F   0  0  0  0  0  0
  -21.5664   -3.4533   25.7740 F   0  0  0  0  0  0
  -30.0186  -13.3351   20.4146 N   0  0  0  0  0  0
  -26.2968  -12.9329   20.3355 N   0  0  0  0  0  0
  -25.9294  -11.6479   20.5788 N   0  0  0  0  0  0
  -22.0430  -12.8198   22.0409 N   0  0  0  0  0  0
  -25.4235  -15.1882   20.4098 N   0  0  0  0  0  0
  -31.8851  -14.6124   20.2099 O   0  0  0  0  0  0
  -21.6615   -6.8857   21.4238 O   0  0  0  0  0  0
  -22.3542  -14.5516   20.6732 O   0  0  0  0  0  0
  -24.6193  -31.8668   23.2074 C   0  0  0  0  0  0
  -25.9081  -32.4815   23.8358 C   0  0  1  0  0  0
  -27.2148  -27.3922   20.0968 C   0  0  0  0  0  0
  -25.5937  -33.8613   24.2292 N   0  0  0  0  0  0
  -23.4070  -30.4943   21.5499 C   0  0  2  0  0  0
  -24.8486  -28.9648   20.1069 C   0  0  0  0  0  0
  -22.7435  -29.4679   22.4973 C   0  0  0  0  0  0
  -18.0293  -28.1389   22.8499 C   0  0  0  0  0  0
  -24.1493  -36.7292   23.2630 C   0  0  0  0  0  0
  -25.9426  -30.8171   21.3710 C   0  0  0  0  0  0
  -26.0146  -29.4538   20.7104 C   0  0  0  0  0  0
  -27.2003  -28.6750   20.7009 C   0  0  0  0  0  0
  -26.0339  -26.9487   19.4527 C   0  0  0  0  0  0
  -24.8569  -27.7147   19.4718 C   0  0  0  0  0  0
  -23.6132  -29.8334   20.1636 C   0  0  0  0  0  0
  -25.4120  -36.3102   24.0325 C   0  0  1  0  0  0
  -20.5882  -28.3681   23.1312 C   0  0  2  0  0  0
  -20.6798  -26.9419   22.5406 C   0  0  0  0  0  0
  -19.5771  -26.6391   21.5221 C   0  0  0  0  0  0
  -18.1946  -26.7942   22.1624 C   0  0  0  0  0  0
  -19.1535  -28.8858   23.2909 C   0  0  0  0  0  0
  -18.9465  -30.1466   23.8913 C   0  0  0  0  0  0
  -17.6467  -30.6598   24.0571 C   0  0  0  0  0  0
  -25.9053  -34.9472   23.5106 C   0  0  0  0  0  0
  -16.5358  -29.9094   23.6339 C   0  0  0  0  0  0
  -16.7281  -28.6507   23.0367 C   0  0  0  0  0  0
  -26.4471  -31.6624   25.0714 C   0  0  0  0  0  0
  -25.3703  -31.3779   26.1445 C   0  0  0  0  0  0
  -27.0280  -30.3050   24.6129 C   0  0  0  0  0  0
  -27.6043  -32.4352   25.7476 C   0  0  0  0  0  0
  -27.5592  -37.1795   24.8462 C   0  0  0  0  0  0
  -21.4160  -29.3053   22.3705 N   0  0  0  0  0  0
  -26.4300  -37.3799   23.9413 N   0  0  0  0  0  0
  -24.6747  -31.0747   22.0995 N   0  0  0  0  0  0
  -23.4203  -28.8224   23.3031 O   0  0  0  0  0  0
  -28.3492  -26.5900   20.1682 O   0  0  0  0  0  0
  -26.5600  -34.8932   22.4650 O   0  0  0  0  0  0
  -23.5379  -32.1443   23.7456 O   0  0  0  0  0  0
  -30.9245  -19.2768   21.8541 C   0  0  0  0  0  0
  -29.6538  -19.1984   21.2450 C   0  0  0  0  0  0
  -30.9692  -21.5830   21.5574 C   0  0  0  0  0  0
  -29.6913  -21.5369   20.9180 C   0  0  0  0  0  0
  -32.6371  -23.2432   20.5704 C   0  0  0  0  0  0
  -30.0086  -16.3077   19.0070 C   0  0  0  0  0  0
  -28.8377  -17.8872   21.1606 C   0  0  0  0  0  0
  -31.7937  -22.8424   21.7884 C   0  0  0  0  0  0
  -28.9428  -22.7193   20.2447 C   0  0  0  0  0  0
  -29.1843  -24.2174   20.6353 C   0  0  0  0  0  0
  -29.5240  -16.4937   21.4556 C   0  0  0  0  0  0
  -28.1537  -25.1652   19.9636 C   0  0  0  0  0  0
  -31.5744  -20.4534   22.0056 N   0  0  0  0  0  0
  -29.0529  -20.3334   20.7779 N   0  0  0  0  0  0
  -29.9052  -15.6274   20.3094 N   0  0  0  0  0  0
  -31.4678  -12.4056   19.1429 H   0  0  0  0  0  0
  -30.3136  -11.3160   19.8669 H   0  0  0  0  0  0
  -29.7425  -11.7491   17.4467 H   0  0  0  0  0  0
  -29.6712  -13.4631   17.7601 H   0  0  0  0  0  0
  -27.8151  -11.3065   18.8142 H   0  0  0  0  0  0
  -27.3715  -12.6352   17.7811 H   0  0  0  0  0  0
  -27.6749  -14.2522   19.5488 H   0  0  0  0  0  0
  -28.6842  -12.0178   21.3715 H   0  0  0  0  0  0
  -28.4777  -13.6796   21.8427 H   0  0  0  0  0  0
  -25.2725   -9.5663   22.4787 H   0  0  0  0  0  0
  -23.9980   -7.4591   22.7437 H   0  0  0  0  0  0
  -21.0812   -8.8720   19.8938 H   0  0  0  0  0  0
  -22.3635  -10.9651   19.6177 H   0  0  0  0  0  0
  -21.1946   -7.6126   23.9753 H   0  0  0  0  0  0
  -21.1512   -6.0484   25.9113 H   0  0  0  0  0  0
  -22.0599   -2.7595   23.2818 H   0  0  0  0  0  0
  -22.3984  -11.9848   22.4825 H   0  0  0  0  0  0
  -21.1093  -13.1315   22.2692 H   0  0  0  0  0  0
  -24.6554  -15.8412   20.5194 H   0  0  0  0  0  0
  -26.2800  -15.6336   20.1086 H   0  0  0  0  0  0
  -26.7146  -32.5511   23.1103 H   0  0  0  0  0  0
  -25.0149  -33.9762   25.0483 H   0  0  0  0  0  0
  -22.6994  -31.3143   21.4132 H   0  0  0  0  0  0
  -23.3775  -35.9608   23.3293 H   0  0  0  0  0  0
  -24.3604  -36.8895   22.2047 H   0  0  0  0  0  0
  -23.7206  -37.6478   23.6641 H   0  0  0  0  0  0
  -26.0719  -31.5870   20.6098 H   0  0  0  0  0  0
  -26.8256  -30.8571   21.9973 H   0  0  0  0  0  0
  -28.0954  -29.0416   21.1843 H   0  0  0  0  0  0
  -25.9914  -26.0030   18.9305 H   0  0  0  0  0  0
  -23.9666  -27.3386   18.9871 H   0  0  0  0  0  0
  -23.7206  -30.6095   19.4052 H   0  0  0  0  0  0
  -22.7347  -29.2565   19.8678 H   0  0  0  0  0  0
  -25.1294  -36.1954   25.0816 H   0  0  0  0  0  0
  -20.9992  -28.3249   24.1428 H   0  0  0  0  0  0
  -20.5760  -26.2279   23.3589 H   0  0  0  0  0  0
  -21.6662  -26.7504   22.1159 H   0  0  0  0  0  0
  -19.6940  -25.6307   21.1249 H   0  0  0  0  0  0
  -19.6714  -27.3208   20.6761 H   0  0  0  0  0  0
  -17.4222  -26.6718   21.4018 H   0  0  0  0  0  0
  -18.0338  -26.0076   22.9009 H   0  0  0  0  0  0
  -19.7946  -30.7285   24.2285 H   0  0  0  0  0  0
  -17.5025  -31.6286   24.5156 H   0  0  0  0  0  0
  -15.5366  -30.3001   23.7665 H   0  0  0  0  0  0
  -15.8683  -28.0831   22.7086 H   0  0  0  0  0  0
  -24.5877  -30.7125   25.7779 H   0  0  0  0  0  0
  -24.8891  -32.2962   26.4837 H   0  0  0  0  0  0
  -25.8017  -30.8976   27.0236 H   0  0  0  0  0  0
  -26.2819  -29.6846   24.1148 H   0  0  0  0  0  0
  -27.3983  -29.7270   25.4603 H   0  0  0  0  0  0
  -27.8693  -30.4345   23.9316 H   0  0  0  0  0  0
  -27.2663  -33.3671   26.2028 H   0  0  0  0  0  0
  -28.3860  -32.6890   25.0302 H   0  0  0  0  0  0
  -28.0697  -31.8488   26.5410 H   0  0  0  0  0  0
  -28.2590  -38.0119   24.7569 H   0  0  0  0  0  0
  -28.1111  -36.2651   24.6221 H   0  0  0  0  0  0
  -27.2320  -37.1351   25.8868 H   0  0  0  0  0  0
  -20.9336  -29.8714   21.6862 H   0  0  0  0  0  0
  -26.0185  -38.2866   24.1461 H   0  0  0  0  0  0
  -31.4279  -18.4114   22.2550 H   0  0  0  0  0  0
  -33.1587  -24.1826   20.7556 H   0  0  0  0  0  0
  -33.3865  -22.4841   20.3472 H   0  0  0  0  0  0
  -32.0285  -23.3761   19.6767 H   0  0  0  0  0  0
  -29.0175  -16.4474   18.5753 H   0  0  0  0  0  0
  -30.5769  -15.7351   18.2714 H   0  0  0  0  0  0
  -30.4998  -17.2771   19.0968 H   0  0  0  0  0  0
  -28.2764  -17.8654   20.2262 H   0  0  0  0  0  0
  -28.0665  -18.0128   21.9194 H   0  0  0  0  0  0
  -32.4695  -22.6648   22.6279 H   0  0  0  0  0  0
  -31.1688  -23.6579   22.1364 H   0  0  0  0  0  0
  -27.8790  -22.5256   20.3858 H   0  0  0  0  0  0
  -29.1154  -22.6175   19.1723 H   0  0  0  0  0  0
  -30.1810  -24.5372   20.3403 H   0  0  0  0  0  0
  -29.1022  -24.3395   21.7162 H   0  0  0  0  0  0
  -28.7840  -15.9130   22.0059 H   0  0  0  0  0  0
  -30.3488  -16.5825   22.1597 H   0  0  0  0  0  0
  -27.1823  -24.8551   20.3510 H   0  0  0  0  0  0
  -28.1390  -24.9769   18.8889 H   0  0  0  0  0  0
  1 25  1  0  0  0
  1 30  2  0  0  0
  1 85  1  0  0  0
  2  3  1  0  0  0
  2 25  1  0  0  0
  2 86  1  0  0  0
  2 87  1  0  0  0
  3  4  1  0  0  0
  3 88  1  0  0  0
  3 89  1  0  0  0
  4  5  1  0  0  0
  4 90  1  0  0  0
  4 91  1  0  0  0
  5  6  1  0  0  0
  5 26  1  0  0  0
  5 92  1  0  0  0
  6 25  1  0  0  0
  6 93  1  0  0  0
  6 94  1  0  0  0
  7  8  2  0  0  0
  7 26  1  0  0  0
  7 29  1  0  0  0
  8  9  1  0  0  0
  8 22  1  0  0  0
  9 10  1  0  0  0
  9 27  2  0  0  0
 10 11  2  0  0  0
 10 15  1  0  0  0
 11 12  1  0  0  0
 11 95  1  0  0  0
 12 13  2  0  0  0
 12 96  1  0  0  0
 13 14  1  0  0  0
 13 31  1  0  0  0
 14 15  2  0  0  0
 14 97  1  0  0  0
 15 98  1  0  0  0
 16 17  2  0  0  0
 16 21  1  0  0  0
 16 31  1  0  0  0
 17 18  1  0  0  0
 17 99  1  0  0  0
 18 19  2  0  0  0
 18100  1  0  0  0
 19 20  1  0  0  0
 19 24  1  0  0  0
 20 21  2  0  0  0
 20101  1  0  0  0
 21 23  1  0  0  0
 22 28  1  0  0  0
 22 32  2  0  0  0
 26 27  1  0  0  0
 28102  1  0  0  0
 28103  1  0  0  0
 29104  1  0  0  0
 29105  1  0  0  0
 33 34  1  0  0  0
 33 66  1  0  0  0
 33 70  2  0  0  0
 34 36  1  0  0  0
 34 59  1  0  0  0
 34106  1  0  0  0
 35 44  2  0  0  0
 35 45  1  0  0  0
 35 68  1  0  0  0
 36 56  1  0  0  0
 36107  1  0  0  0
 37 39  1  0  0  0
 37 47  1  0  0  0
 37 66  1  0  0  0
 37108  1  0  0  0
 38 43  2  0  0  0
 38 46  1  0  0  0
 38 47  1  0  0  0
 39 64  1  0  0  0
 39 67  2  0  0  0
 40 52  1  0  0  0
 40 53  2  0  0  0
 40 58  1  0  0  0
 41109  1  0  0  0
 41110  1  0  0  0
 41111  1  0  0  0
 41 48  1  0  0  0
 42 43  1  0  0  0
 42 66  1  0  0  0
 42112  1  0  0  0
 42113  1  0  0  0
 43 44  1  0  0  0
 44114  1  0  0  0
 45 46  2  0  0  0
 45115  1  0  0  0
 46116  1  0  0  0
 47117  1  0  0  0
 47118  1  0  0  0
 48 56  1  0  0  0
 48 65  1  0  0  0
 48119  1  0  0  0
 49 50  1  0  0  0
 49 53  1  0  0  0
 49 64  1  0  0  0
 49120  1  0  0  0
 50 51  1  0  0  0
 50121  1  0  0  0
 50122  1  0  0  0
 51 52  1  0  0  0
 51123  1  0  0  0
 51124  1  0  0  0
 52125  1  0  0  0
 52126  1  0  0  0
 53 54  1  0  0  0
 54 55  2  0  0  0
 54127  1  0  0  0
 55 57  1  0  0  0
 55128  1  0  0  0
 56 69  2  0  0  0
 57 58  2  0  0  0
 57129  1  0  0  0
 58130  1  0  0  0
 59 60  1  0  0  0
 59 61  1  0  0  0
 59 62  1  0  0  0
 60131  1  0  0  0
 60132  1  0  0  0
 60133  1  0  0  0
 61134  1  0  0  0
 61135  1  0  0  0
 61136  1  0  0  0
 62137  1  0  0  0
 62138  1  0  0  0
 62139  1  0  0  0
 63 65  1  0  0  0
 63140  1  0  0  0
 63141  1  0  0  0
 63142  1  0  0  0
 64143  1  0  0  0
 65144  1  0  0  0
 68 82  1  0  0  0
 71 72  2  0  0  0
 71 83  1  0  0  0
 71145  1  0  0  0
 72 77  1  0  0  0
 72 84  1  0  0  0
 73 74  1  0  0  0
 73 78  1  0  0  0
 73 83  2  0  0  0
 74 79  1  0  0  0
 74 84  2  0  0  0
 75 78  1  0  0  0
 75146  1  0  0  0
 75147  1  0  0  0
 75148  1  0  0  0
 76 85  1  0  0  0
 76149  1  0  0  0
 76150  1  0  0  0
 76151  1  0  0  0
 77 81  1  0  0  0
 77152  1  0  0  0
 77153  1  0  0  0
 78154  1  0  0  0
 78155  1  0  0  0
 79 80  1  0  0  0
 79156  1  0  0  0
 79157  1  0  0  0
 80 82  1  0  0  0
 80158  1  0  0  0
 80159  1  0  0  0
 81 85  1  0  0  0
 81160  1  0  0  0
 81161  1  0  0  0
 82162  1  0  0  0
 82163  1  0  0  0
M  ISO  4   1 100  68 101  82 101  85 100
M  END
> <chiral flag>
0

> <version>
0

> <s_m_source_file>
/data/baiqing/PycharmProjects/Reinvent-master-3.2/result/LINK_invent/BTK/process_docking_weight1_custom_sum_contain_oxygen_bond_distance_aromatic_linkinvent_7_9_3/rearranged_h_0059.sdf

> <i_m_source_file_index>
12

> <r_mmod_Potential_Energy-OPLS-2005>
243.870544433594

> <r_mmod_Stretch_Energy-OPLS-2005>
54.5306510925293

> <r_mmod_Bend_Energy-OPLS-2005>
138.456192016602

> <r_mmod_Torsional_Energy-OPLS-2005>
305.699096679688

> <r_mmod_Improper_Torsional_Energy-OPLS-2005>
20.1302089691162

> <r_mmod_Van_der_Waal_Energy-OPLS-2005>
164.481674194336

> <r_mmod_Electrostatic_Energy-OPLS-2005>
-258.503479003906

> <r_mmod_Solvation_Energy-OPLS-2005>
-210.080215454102

> <b_mmod_Minimization_Converged-OPLS-2005>
0

> <r_mmod_RMS_Derivative-OPLS-2005>
2.95512986183167

$$$$
12
                    3D
 Structure written by MMmdl.
157165  0  0  1  0            999 V2000
  -30.5217  -15.0536   20.3248 C   0  0  0  0  0  0
  -30.4497  -12.6419   19.4896 C   0  0  0  0  0  0
  -29.5262  -12.4590   18.2612 C   0  0  0  0  0  0
  -28.0590  -12.2562   18.6938 C   0  0  0  0  0  0
  -27.6172  -13.2186   19.8261 C   0  0  2  0  0  0
  -28.6739  -13.3532   20.9429 C   0  0  0  0  0  0
  -25.2489  -13.8122   20.5801 C   0  0  0  0  0  0
  -24.1766  -13.0394   20.9271 C   0  0  0  0  0  0
  -24.6350  -11.6869   20.8810 C   0  0  0  0  0  0
  -23.9032  -10.4268   21.0442 C   0  0  0  0  0  0
  -24.3595   -9.4184   21.9210 C   0  0  0  0  0  0
  -23.6277   -8.2220   22.0760 C   0  0  0  0  0  0
  -22.4258   -8.0271   21.3544 C   0  0  0  0  0  0
  -21.9895   -9.0245   20.4649 C   0  0  0  0  0  0
  -22.7218  -10.2127   20.3073 C   0  0  0  0  0  0
  -21.6844   -6.0732   22.5282 C   0  0  0  0  0  0
  -21.4006   -6.5637   23.8214 C   0  0  0  0  0  0
  -21.3660   -5.6791   24.9178 C   0  0  0  0  0  0
  -21.6046   -4.3056   24.7228 C   0  0  0  0  0  0
  -21.8817   -3.8147   23.4349 C   0  0  0  0  0  0
  -21.9187   -4.6960   22.3406 C   0  0  0  0  0  0
  -22.7797  -13.5208   21.1898 C   0  0  0  0  0  0
  -22.1653   -4.2152   21.0981 F   0  0  0  0  0  0
  -21.5637   -3.4536   25.7738 F   0  0  0  0  0  0
  -29.9263  -13.7808   20.3002 N   0  0  0  0  0  0
  -26.2860  -12.9270   20.3329 N   0  0  0  0  0  0
  -25.9274  -11.6444   20.5827 N   0  0  0  0  0  0
  -22.0426  -12.8203   22.0439 N   0  0  0  0  0  0
  -25.4210  -15.1853   20.4273 N   0  0  0  0  0  0
  -31.7572  -15.0711   20.2780 O   0  0  0  0  0  0
  -21.6627   -6.8869   21.4239 O   0  0  0  0  0  0
  -22.3511  -14.5522   20.6739 O   0  0  0  0  0  0
  -24.6463  -31.8414   23.1854 C   0  0  0  0  0  0
  -25.9219  -32.4682   23.8256 C   0  0  1  0  0  0
  -27.2244  -27.1079   20.1579 C   0  0  0  0  0  0
  -25.5955  -33.8488   24.2177 N   0  0  0  0  0  0
  -23.4518  -30.4595   21.5316 C   0  0  2  0  0  0
  -24.9043  -28.8818   20.1105 C   0  0  0  0  0  0
  -22.7584  -29.4533   22.4842 C   0  0  0  0  0  0
  -18.0309  -28.1396   22.8476 C   0  0  0  0  0  0
  -24.1494  -36.7254   23.2644 C   0  0  0  0  0  0
  -26.0103  -30.7065   21.3881 C   0  0  0  0  0  0
  -26.0827  -29.3145   20.7313 C   0  0  0  0  0  0
  -27.2424  -28.4453   20.7361 C   0  0  0  0  0  0
  -26.0175  -26.7858   19.4947 C   0  0  0  0  0  0
  -24.8869  -27.6317   19.4755 C   0  0  0  0  0  0
  -23.6811  -29.7866   20.1522 C   0  0  0  0  0  0
  -25.4124  -36.3023   24.0316 C   0  0  1  0  0  0
  -20.5924  -28.3728   23.1227 C   0  0  2  0  0  0
  -20.6792  -26.9424   22.5406 C   0  0  0  0  0  0
  -19.5765  -26.6376   21.5216 C   0  0  0  0  0  0
  -18.1946  -26.7932   22.1625 C   0  0  0  0  0  0
  -19.1565  -28.8879   23.2844 C   0  0  0  0  0  0
  -18.9481  -30.1477   23.8869 C   0  0  0  0  0  0
  -17.6476  -30.6590   24.0562 C   0  0  0  0  0  0
  -25.9078  -34.9399   23.5056 C   0  0  0  0  0  0
  -16.5368  -29.9080   23.6339 C   0  0  0  0  0  0
  -16.7291  -28.6502   23.0352 C   0  0  0  0  0  0
  -26.4528  -31.6551   25.0706 C   0  0  0  0  0  0
  -25.3707  -31.3745   26.1399 C   0  0  0  0  0  0
  -27.0393  -30.2942   24.6298 C   0  0  0  0  0  0
  -27.6053  -32.4319   25.7493 C   0  0  0  0  0  0
  -27.5574  -37.1783   24.8464 C   0  0  0  0  0  0
  -21.4272  -29.3050   22.3597 N   0  0  0  0  0  0
  -26.4282  -37.3741   23.9409 N   0  0  0  0  0  0
  -24.7229  -31.0239   22.0906 N   0  0  0  0  0  0
  -23.4211  -28.8083   23.3009 O   0  0  0  0  0  0
  -28.2668  -26.1006   20.2384 O   0  0  0  0  0  0
  -26.5667  -34.8903   22.4639 O   0  0  0  0  0  0
  -23.5575  -32.1297   23.7057 O   0  0  0  0  0  0
  -30.2760  -23.4560   20.7477 C   0  0  0  0  0  0
  -31.0951  -22.3288   20.9623 C   0  0  0  0  0  0
  -28.9461  -23.2671   20.3561 C   0  0  0  0  0  0
  -29.4451  -20.8067   20.4076 C   0  0  0  0  0  0
  -28.1578  -19.1729   18.9955 C   0  0  0  0  0  0
  -28.0581  -18.9271   21.4841 C   0  0  0  0  0  0
  -28.9828  -16.1857   18.8638 C   0  0  0  0  0  0
  -27.9416  -24.5684   20.0970 C   0  0  0  0  0  0
  -30.0929  -17.8462   20.3075 C   0  0  0  0  0  0
  -28.9946  -19.1956   20.2956 C   0  0  0  0  0  0
  -30.6881  -21.0439   20.8063 N   0  0  0  0  0  0
  -28.5774  -21.8985   20.2129 N   0  0  0  0  0  0
  -29.7584  -16.2731   20.1066 N   0  0  0  0  0  0
  -31.4725  -12.8252   19.1564 H   0  0  0  0  0  0
  -30.4870  -11.7292   20.0868 H   0  0  0  0  0  0
  -29.8545  -11.5982   17.6775 H   0  0  0  0  0  0
  -29.6121  -13.3099   17.5878 H   0  0  0  0  0  0
  -27.9679  -11.2264   19.0414 H   0  0  0  0  0  0
  -27.3925  -12.3437   17.8353 H   0  0  0  0  0  0
  -27.5150  -14.1749   19.3365 H   0  0  0  0  0  0
  -28.8032  -12.4154   21.4848 H   0  0  0  0  0  0
  -28.3602  -14.0996   21.6743 H   0  0  0  0  0  0
  -25.2735   -9.5665   22.4795 H   0  0  0  0  0  0
  -23.9990   -7.4604   22.7467 H   0  0  0  0  0  0
  -21.0834   -8.8767   19.8944 H   0  0  0  0  0  0
  -22.3681  -10.9679   19.6194 H   0  0  0  0  0  0
  -21.1991   -7.6144   23.9717 H   0  0  0  0  0  0
  -21.1484   -6.0522   25.9080 H   0  0  0  0  0  0
  -22.0595   -2.7611   23.2847 H   0  0  0  0  0  0
  -22.4023  -11.9853   22.4821 H   0  0  0  0  0  0
  -21.1050  -13.1245   22.2641 H   0  0  0  0  0  0
  -24.6620  -15.8435   20.5642 H   0  0  0  0  0  0
  -26.2881  -15.6290   20.1573 H   0  0  0  0  0  0
  -26.7286  -32.5285   23.0984 H   0  0  0  0  0  0
  -25.0073  -33.9602   25.0303 H   0  0  0  0  0  0
  -22.7562  -31.2865   21.3744 H   0  0  0  0  0  0
  -23.3761  -35.9581   23.3285 H   0  0  0  0  0  0
  -24.3581  -36.8908   22.2063 H   0  0  0  0  0  0
  -23.7244  -37.6441   23.6699 H   0  0  0  0  0  0
  -26.1660  -31.4576   20.6123 H   0  0  0  0  0  0
  -26.8814  -30.7616   22.0294 H   0  0  0  0  0  0
  -28.1375  -28.7725   21.2460 H   0  0  0  0  0  0
  -25.9069  -25.8332   19.0003 H   0  0  0  0  0  0
  -23.9888  -27.2947   18.9760 H   0  0  0  0  0  0
  -23.8183  -30.5608   19.3963 H   0  0  0  0  0  0
  -22.7960  -29.2286   19.8416 H   0  0  0  0  0  0
  -25.1311  -36.1847   25.0807 H   0  0  0  0  0  0
  -21.0020  -28.3323   24.1347 H   0  0  0  0  0  0
  -20.5682  -26.2343   23.3631 H   0  0  0  0  0  0
  -21.6657  -26.7419   22.1207 H   0  0  0  0  0  0
  -19.6927  -25.6280   21.1262 H   0  0  0  0  0  0
  -19.6703  -27.3176   20.6739 H   0  0  0  0  0  0
  -17.4216  -26.6681   21.4027 H   0  0  0  0  0  0
  -18.0341  -26.0077   22.9024 H   0  0  0  0  0  0
  -19.7958  -30.7307   24.2216 H   0  0  0  0  0  0
  -17.5028  -31.6268   24.5168 H   0  0  0  0  0  0
  -15.5368  -30.2973   23.7678 H   0  0  0  0  0  0
  -15.8694  -28.0819   22.7069 H   0  0  0  0  0  0
  -24.5906  -30.7068   25.7725 H   0  0  0  0  0  0
  -24.8875  -32.2928   26.4750 H   0  0  0  0  0  0
  -25.7990  -30.8974   27.0224 H   0  0  0  0  0  0
  -26.3016  -29.6660   24.1297 H   0  0  0  0  0  0
  -27.3991  -29.7244   25.4875 H   0  0  0  0  0  0
  -27.8929  -30.4168   23.9627 H   0  0  0  0  0  0
  -27.2647  -33.3652   26.1989 H   0  0  0  0  0  0
  -28.3908  -32.6822   25.0349 H   0  0  0  0  0  0
  -28.0671  -31.8493   26.5475 H   0  0  0  0  0  0
  -28.2575  -38.0094   24.7512 H   0  0  0  0  0  0
  -28.1083  -36.2621   24.6282 H   0  0  0  0  0  0
  -27.2296  -37.1420   25.8869 H   0  0  0  0  0  0
  -20.9486  -29.8759   21.6771 H   0  0  0  0  0  0
  -26.0145  -38.2807   24.1412 H   0  0  0  0  0  0
  -30.6672  -24.4546   20.8892 H   0  0  0  0  0  0
  -32.1211  -22.4632   21.2723 H   0  0  0  0  0  0
  -27.4489  -19.9992   18.9569 H   0  0  0  0  0  0
  -27.5294  -18.2974   18.8950 H   0  0  0  0  0  0
  -28.7966  -19.2645   18.1170 H   0  0  0  0  0  0
  -27.2314  -19.6376   21.5043 H   0  0  0  0  0  0
  -28.5961  -19.0240   22.4272 H   0  0  0  0  0  0
  -27.6326  -17.9244   21.4416 H   0  0  0  0  0  0
  -27.9189  -16.2562   19.0749 H   0  0  0  0  0  0
  -29.1394  -15.2782   18.2881 H   0  0  0  0  0  0
  -29.2614  -16.9674   18.1592 H   0  0  0  0  0  0
  -27.0767  -24.3855   20.7354 H   0  0  0  0  0  0
  -27.5847  -24.4253   19.0779 H   0  0  0  0  0  0
  -30.6362  -17.9018   21.2513 H   0  0  0  0  0  0
  -30.8549  -18.0725   19.5600 H   0  0  0  0  0  0
  1 25  1  0  0  0
  1 30  2  0  0  0
  1 83  1  0  0  0
  2  3  1  0  0  0
  2 25  1  0  0  0
  2 84  1  0  0  0
  2 85  1  0  0  0
  3  4  1  0  0  0
  3 86  1  0  0  0
  3 87  1  0  0  0
  4  5  1  0  0  0
  4 88  1  0  0  0
  4 89  1  0  0  0
  5  6  1  0  0  0
  5 26  1  0  0  0
  5 90  1  0  0  0
  6 25  1  0  0  0
  6 91  1  0  0  0
  6 92  1  0  0  0
  7  8  2  0  0  0
  7 26  1  0  0  0
  7 29  1  0  0  0
  8  9  1  0  0  0
  8 22  1  0  0  0
  9 10  1  0  0  0
  9 27  2  0  0  0
 10 11  2  0  0  0
 10 15  1  0  0  0
 11 12  1  0  0  0
 11 93  1  0  0  0
 12 13  2  0  0  0
 12 94  1  0  0  0
 13 14  1  0  0  0
 13 31  1  0  0  0
 14 15  2  0  0  0
 14 95  1  0  0  0
 15 96  1  0  0  0
 16 17  2  0  0  0
 16 21  1  0  0  0
 16 31  1  0  0  0
 17 18  1  0  0  0
 17 97  1  0  0  0
 18 19  2  0  0  0
 18 98  1  0  0  0
 19 20  1  0  0  0
 19 24  1  0  0  0
 20 21  2  0  0  0
 20 99  1  0  0  0
 21 23  1  0  0  0
 22 28  1  0  0  0
 22 32  2  0  0  0
 26 27  1  0  0  0
 28100  1  0  0  0
 28101  1  0  0  0
 29102  1  0  0  0
 29103  1  0  0  0
 33 34  1  0  0  0
 33 66  1  0  0  0
 33 70  2  0  0  0
 34 36  1  0  0  0
 34 59  1  0  0  0
 34104  1  0  0  0
 35 44  2  0  0  0
 35 45  1  0  0  0
 35 68  1  0  0  0
 36 56  1  0  0  0
 36105  1  0  0  0
 37 39  1  0  0  0
 37 47  1  0  0  0
 37 66  1  0  0  0
 37106  1  0  0  0
 38 43  2  0  0  0
 38 46  1  0  0  0
 38 47  1  0  0  0
 39 64  1  0  0  0
 39 67  2  0  0  0
 40 52  1  0  0  0
 40 53  2  0  0  0
 40 58  1  0  0  0
 41107  1  0  0  0
 41108  1  0  0  0
 41109  1  0  0  0
 41 48  1  0  0  0
 42 43  1  0  0  0
 42 66  1  0  0  0
 42110  1  0  0  0
 42111  1  0  0  0
 43 44  1  0  0  0
 44112  1  0  0  0
 45 46  2  0  0  0
 45113  1  0  0  0
 46114  1  0  0  0
 47115  1  0  0  0
 47116  1  0  0  0
 48 56  1  0  0  0
 48 65  1  0  0  0
 48117  1  0  0  0
 49 50  1  0  0  0
 49 53  1  0  0  0
 49 64  1  0  0  0
 49118  1  0  0  0
 50 51  1  0  0  0
 50119  1  0  0  0
 50120  1  0  0  0
 51 52  1  0  0  0
 51121  1  0  0  0
 51122  1  0  0  0
 52123  1  0  0  0
 52124  1  0  0  0
 53 54  1  0  0  0
 54 55  2  0  0  0
 54125  1  0  0  0
 55 57  1  0  0  0
 55126  1  0  0  0
 56 69  2  0  0  0
 57 58  2  0  0  0
 57127  1  0  0  0
 58128  1  0  0  0
 59 60  1  0  0  0
 59 61  1  0  0  0
 59 62  1  0  0  0
 60129  1  0  0  0
 60130  1  0  0  0
 60131  1  0  0  0
 61132  1  0  0  0
 61133  1  0  0  0
 61134  1  0  0  0
 62135  1  0  0  0
 62136  1  0  0  0
 62137  1  0  0  0
 63 65  1  0  0  0
 63138  1  0  0  0
 63139  1  0  0  0
 63140  1  0  0  0
 64141  1  0  0  0
 65142  1  0  0  0
 68 78  1  0  0  0
 71 72  2  0  0  0
 71 73  1  0  0  0
 71143  1  0  0  0
 72 81  1  0  0  0
 72144  1  0  0  0
 73 78  1  0  0  0
 73 82  2  0  0  0
 74 80  1  0  0  0
 74 81  2  0  0  0
 74 82  1  0  0  0
 75145  1  0  0  0
 75146  1  0  0  0
 75147  1  0  0  0
 75 80  1  0  0  0
 76 80  1  0  0  0
 76148  1  0  0  0
 76149  1  0  0  0
 76150  1  0  0  0
 77 83  1  0  0  0
 77151  1  0  0  0
 77152  1  0  0  0
 77153  1  0  0  0
 78154  1  0  0  0
 78155  1  0  0  0
 79 80  1  0  0  0
 79 83  1  0  0  0
 79156  1  0  0  0
 79157  1  0  0  0
M  ISO  4   1 100  68 101  78 101  83 100
M  END
> <chiral flag>
0

> <version>
0

> <s_m_source_file>
/data/baiqing/PycharmProjects/Reinvent-master-3.2/result/LINK_invent/BTK/process_docking_weight1_custom_sum_contain_oxygen_bond_distance_aromatic_linkinvent_7_9_3/rearranged_h_0059.sdf

> <i_m_source_file_index>
13

> <r_mmod_Potential_Energy-OPLS-2005>
388.067932128906

> <r_mmod_Stretch_Energy-OPLS-2005>
326.081268310547

> <r_mmod_Bend_Energy-OPLS-2005>
292.55712890625

> <r_mmod_Torsional_Energy-OPLS-2005>
300.861267089844

> <r_mmod_Improper_Torsional_Energy-OPLS-2005>
10.5639190673828

> <r_mmod_Van_der_Waal_Energy-OPLS-2005>
153.229721069336

> <r_mmod_Electrostatic_Energy-OPLS-2005>
-729.795166015625

> <r_mmod_Solvation_Energy-OPLS-2005>
-223.816757202148

> <b_mmod_Minimization_Converged-OPLS-2005>
0

> <r_mmod_RMS_Derivative-OPLS-2005>
0.783071517944336

$$$$
13
                    3D
 Structure written by MMmdl.
155163  0  0  1  0            999 V2000
  -30.7044  -14.5279   20.6045 C   0  0  0  0  0  0
  -30.4257  -12.3529   19.4379 C   0  0  0  0  0  0
  -29.5008  -12.5162   18.2133 C   0  0  0  0  0  0
  -28.0209  -12.3684   18.6174 C   0  0  0  0  0  0
  -27.6571  -13.2128   19.8665 C   0  0  2  0  0  0
  -28.6933  -13.0088   20.9898 C   0  0  0  0  0  0
  -25.2555  -13.8167   20.5615 C   0  0  0  0  0  0
  -24.1828  -13.0436   20.9170 C   0  0  0  0  0  0
  -24.6400  -11.6907   20.8733 C   0  0  0  0  0  0
  -23.9078  -10.4285   21.0412 C   0  0  0  0  0  0
  -24.3631   -9.4200   21.9186 C   0  0  0  0  0  0
  -23.6294   -8.2242   22.0763 C   0  0  0  0  0  0
  -22.4269   -8.0284   21.3554 C   0  0  0  0  0  0
  -21.9920   -9.0259   20.4650 C   0  0  0  0  0  0
  -22.7257  -10.2130   20.3054 C   0  0  0  0  0  0
  -21.6855   -6.0734   22.5277 C   0  0  0  0  0  0
  -21.4015   -6.5636   23.8209 C   0  0  0  0  0  0
  -21.3659   -5.6790   24.9167 C   0  0  0  0  0  0
  -21.6046   -4.3052   24.7220 C   0  0  0  0  0  0
  -21.8825   -3.8143   23.4341 C   0  0  0  0  0  0
  -21.9196   -4.6961   22.3396 C   0  0  0  0  0  0
  -22.7848  -13.5233   21.1834 C   0  0  0  0  0  0
  -22.1671   -4.2148   21.0974 F   0  0  0  0  0  0
  -21.5628   -3.4533   25.7734 F   0  0  0  0  0  0
  -30.0232  -13.3481   20.4526 N   0  0  0  0  0  0
  -26.2993  -12.9346   20.3298 N   0  0  0  0  0  0
  -25.9324  -11.6502   20.5742 N   0  0  0  0  0  0
  -22.0497  -12.8229   22.0400 N   0  0  0  0  0  0
  -25.4260  -15.1871   20.3941 N   0  0  0  0  0  0
  -31.7939  -14.7113   20.0491 O   0  0  0  0  0  0
  -21.6635   -6.8878   21.4243 O   0  0  0  0  0  0
  -22.3530  -14.5542   20.6701 O   0  0  0  0  0  0
  -24.6173  -31.8623   23.2076 C   0  0  0  0  0  0
  -25.9045  -32.4794   23.8380 C   0  0  1  0  0  0
  -27.2384  -27.3909   20.1035 C   0  0  0  0  0  0
  -25.5887  -33.8598   24.2304 N   0  0  0  0  0  0
  -23.4077  -30.4856   21.5474 C   0  0  2  0  0  0
  -24.8540  -28.9438   20.1142 C   0  0  0  0  0  0
  -22.7424  -29.4623   22.4965 C   0  0  0  0  0  0
  -18.0269  -28.1369   22.8474 C   0  0  0  0  0  0
  -24.1484  -36.7322   23.2638 C   0  0  0  0  0  0
  -25.9387  -30.8152   21.3645 C   0  0  0  0  0  0
  -26.0144  -29.4450   20.7147 C   0  0  0  0  0  0
  -27.2034  -28.6743   20.7084 C   0  0  0  0  0  0
  -26.0489  -26.9054   19.5116 C   0  0  0  0  0  0
  -24.8677  -27.6743   19.5121 C   0  0  0  0  0  0
  -23.6184  -29.8165   20.1620 C   0  0  0  0  0  0
  -25.4098  -36.3098   24.0335 C   0  0  1  0  0  0
  -20.5861  -28.3646   23.1313 C   0  0  2  0  0  0
  -20.6757  -26.9379   22.5417 C   0  0  0  0  0  0
  -19.5744  -26.6374   21.5205 C   0  0  0  0  0  0
  -18.1918  -26.7914   22.1611 C   0  0  0  0  0  0
  -19.1518  -28.8824   23.2891 C   0  0  0  0  0  0
  -18.9452  -30.1435   23.8902 C   0  0  0  0  0  0
  -17.6449  -30.6574   24.0551 C   0  0  0  0  0  0
  -25.9026  -34.9464   23.5123 C   0  0  0  0  0  0
  -16.5339  -29.9071   23.6332 C   0  0  0  0  0  0
  -16.7259  -28.6497   23.0340 C   0  0  0  0  0  0
  -26.4465  -31.6606   25.0738 C   0  0  0  0  0  0
  -25.3725  -31.3702   26.1493 C   0  0  0  0  0  0
  -27.0290  -30.3046   24.6129 C   0  0  0  0  0  0
  -27.6066  -32.4314   25.7482 C   0  0  0  0  0  0
  -27.5573  -37.1808   24.8456 C   0  0  0  0  0  0
  -21.4145  -29.3009   22.3718 N   0  0  0  0  0  0
  -26.4281  -37.3787   23.9408 N   0  0  0  0  0  0
  -24.6729  -31.0701   22.0987 N   0  0  0  0  0  0
  -23.4185  -28.8154   23.3004 O   0  0  0  0  0  0
  -28.4238  -26.6668   20.1401 O   0  0  0  0  0  0
  -26.5597  -34.8924   22.4690 O   0  0  0  0  0  0
  -23.5362  -32.1389   23.7459 O   0  0  0  0  0  0
  -28.6840  -20.2928   19.8262 C   0  0  0  0  0  0
  -29.2703  -19.4388   20.7304 C   0  0  0  0  0  0
  -29.8786  -15.4910   22.6773 C   0  0  0  0  0  0
  -29.0493  -17.9420   20.9762 C   0  0  0  0  0  0
  -28.5920  -24.1088   20.2628 C   0  0  0  0  0  0
  -28.9697  -22.8409   19.4230 C   0  0  0  0  0  0
  -30.2802  -16.9897   20.7807 C   0  0  0  0  0  0
  -28.6004  -25.4248   19.4149 C   0  0  0  0  0  0
  -30.0801  -20.2246   21.5562 N   0  0  0  0  0  0
  -30.0288  -21.4746   21.1827 N   0  0  0  0  0  0
  -29.1635  -21.5624   20.1420 N   0  0  0  0  0  0
  -30.0645  -15.5721   21.2203 N   0  0  0  0  0  0
  -31.4694  -12.4586   19.1367 H   0  0  0  0  0  0
  -30.3428  -11.3452   19.8490 H   0  0  0  0  0  0
  -29.7543  -11.7787   17.4508 H   0  0  0  0  0  0
  -29.6632  -13.4953   17.7594 H   0  0  0  0  0  0
  -27.8355  -11.3126   18.8188 H   0  0  0  0  0  0
  -27.3745  -12.6365   17.7811 H   0  0  0  0  0  0
  -27.6980  -14.2600   19.5661 H   0  0  0  0  0  0
  -28.6886  -11.9723   21.3302 H   0  0  0  0  0  0
  -28.4093  -13.5945   21.8600 H   0  0  0  0  0  0
  -25.2790   -9.5653   22.4747 H   0  0  0  0  0  0
  -23.9986   -7.4636   22.7498 H   0  0  0  0  0  0
  -21.0851   -8.8788   19.8959 H   0  0  0  0  0  0
  -22.3739  -10.9665   19.6154 H   0  0  0  0  0  0
  -21.2008   -7.6144   23.9705 H   0  0  0  0  0  0
  -21.1479   -6.0524   25.9070 H   0  0  0  0  0  0
  -22.0604   -2.7608   23.2841 H   0  0  0  0  0  0
  -22.4122  -11.9903   22.4794 H   0  0  0  0  0  0
  -21.1110  -13.1245   22.2605 H   0  0  0  0  0  0
  -24.6559  -15.8419   20.4753 H   0  0  0  0  0  0
  -26.2749  -15.6144   20.0467 H   0  0  0  0  0  0
  -26.7120  -32.5484   23.1147 H   0  0  0  0  0  0
  -25.0044  -33.9754   25.0450 H   0  0  0  0  0  0
  -22.6980  -31.3036   21.4060 H   0  0  0  0  0  0
  -23.3739  -35.9667   23.3295 H   0  0  0  0  0  0
  -24.3562  -36.8945   22.2051 H   0  0  0  0  0  0
  -23.7265  -37.6537   23.6656 H   0  0  0  0  0  0
  -26.0511  -31.5748   20.5888 H   0  0  0  0  0  0
  -26.8282  -30.8721   21.9809 H   0  0  0  0  0  0
  -28.0983  -29.0558   21.1806 H   0  0  0  0  0  0
  -25.9975  -25.9252   19.0621 H   0  0  0  0  0  0
  -23.9732  -27.2757   19.0542 H   0  0  0  0  0  0
  -23.7295  -30.5912   19.4019 H   0  0  0  0  0  0
  -22.7412  -29.2389   19.8659 H   0  0  0  0  0  0
  -25.1276  -36.1961   25.0829 H   0  0  0  0  0  0
  -20.9950  -28.3211   24.1434 H   0  0  0  0  0  0
  -20.5634  -26.2245   23.3593 H   0  0  0  0  0  0
  -21.6632  -26.7398   22.1229 H   0  0  0  0  0  0
  -19.6898  -25.6286   21.1233 H   0  0  0  0  0  0
  -19.6716  -27.3186   20.6738 H   0  0  0  0  0  0
  -17.4196  -26.6660   21.4007 H   0  0  0  0  0  0
  -18.0313  -26.0049   22.9003 H   0  0  0  0  0  0
  -19.7926  -30.7246   24.2279 H   0  0  0  0  0  0
  -17.5007  -31.6258   24.5141 H   0  0  0  0  0  0
  -15.5341  -30.2963   23.7670 H   0  0  0  0  0  0
  -15.8658  -28.0828   22.7032 H   0  0  0  0  0  0
  -24.5965  -30.6950   25.7862 H   0  0  0  0  0  0
  -24.8828  -32.2831   26.4892 H   0  0  0  0  0  0
  -25.8106  -30.8965   27.0287 H   0  0  0  0  0  0
  -26.2831  -29.6800   24.1205 H   0  0  0  0  0  0
  -27.4067  -29.7298   25.4593 H   0  0  0  0  0  0
  -27.8659  -30.4360   23.9265 H   0  0  0  0  0  0
  -27.2750  -33.3665   26.2007 H   0  0  0  0  0  0
  -28.3911  -32.6771   25.0310 H   0  0  0  0  0  0
  -28.0676  -31.8445   26.5436 H   0  0  0  0  0  0
  -28.2598  -38.0098   24.7506 H   0  0  0  0  0  0
  -28.1069  -36.2636   24.6285 H   0  0  0  0  0  0
  -27.2283  -37.1462   25.8856 H   0  0  0  0  0  0
  -20.9300  -29.8775   21.6989 H   0  0  0  0  0  0
  -26.0171  -38.2865   24.1420 H   0  0  0  0  0  0
  -27.9848  -20.1158   19.0179 H   0  0  0  0  0  0
  -28.8357  -15.6771   22.9345 H   0  0  0  0  0  0
  -30.4883  -16.2282   23.2026 H   0  0  0  0  0  0
  -30.1493  -14.5168   23.0895 H   0  0  0  0  0  0
  -28.2366  -17.5892   20.3398 H   0  0  0  0  0  0
  -28.6752  -17.8305   21.9939 H   0  0  0  0  0  0
  -29.3007  -24.2206   21.0838 H   0  0  0  0  0  0
  -27.6137  -23.9699   20.7228 H   0  0  0  0  0  0
  -29.8967  -23.0411   18.8830 H   0  0  0  0  0  0
  -28.2115  -22.6871   18.6548 H   0  0  0  0  0  0
  -31.1378  -17.3925   21.3222 H   0  0  0  0  0  0
  -30.5654  -17.0153   19.7265 H   0  0  0  0  0  0
  -27.9437  -25.3386   18.5516 H   0  0  0  0  0  0
  -29.5944  -25.5083   18.9753 H   0  0  0  0  0  0
  1 25  1  0  0  0
  1 30  2  0  0  0
  1 82  1  0  0  0
  2  3  1  0  0  0
  2 25  1  0  0  0
  2 83  1  0  0  0
  2 84  1  0  0  0
  3  4  1  0  0  0
  3 85  1  0  0  0
  3 86  1  0  0  0
  4  5  1  0  0  0
  4 87  1  0  0  0
  4 88  1  0  0  0
  5  6  1  0  0  0
  5 26  1  0  0  0
  5 89  1  0  0  0
  6 25  1  0  0  0
  6 90  1  0  0  0
  6 91  1  0  0  0
  7  8  2  0  0  0
  7 26  1  0  0  0
  7 29  1  0  0  0
  8  9  1  0  0  0
  8 22  1  0  0  0
  9 10  1  0  0  0
  9 27  2  0  0  0
 10 11  2  0  0  0
 10 15  1  0  0  0
 11 12  1  0  0  0
 11 92  1  0  0  0
 12 13  2  0  0  0
 12 93  1  0  0  0
 13 14  1  0  0  0
 13 31  1  0  0  0
 14 15  2  0  0  0
 14 94  1  0  0  0
 15 95  1  0  0  0
 16 17  2  0  0  0
 16 21  1  0  0  0
 16 31  1  0  0  0
 17 18  1  0  0  0
 17 96  1  0  0  0
 18 19  2  0  0  0
 18 97  1  0  0  0
 19 20  1  0  0  0
 19 24  1  0  0  0
 20 21  2  0  0  0
 20 98  1  0  0  0
 21 23  1  0  0  0
 22 28  1  0  0  0
 22 32  2  0  0  0
 26 27  1  0  0  0
 28 99  1  0  0  0
 28100  1  0  0  0
 29101  1  0  0  0
 29102  1  0  0  0
 33 34  1  0  0  0
 33 66  1  0  0  0
 33 70  2  0  0  0
 34 36  1  0  0  0
 34 59  1  0  0  0
 34103  1  0  0  0
 35 44  2  0  0  0
 35 45  1  0  0  0
 35 68  1  0  0  0
 36 56  1  0  0  0
 36104  1  0  0  0
 37 39  1  0  0  0
 37 47  1  0  0  0
 37 66  1  0  0  0
 37105  1  0  0  0
 38 43  2  0  0  0
 38 46  1  0  0  0
 38 47  1  0  0  0
 39 64  1  0  0  0
 39 67  2  0  0  0
 40 52  1  0  0  0
 40 53  2  0  0  0
 40 58  1  0  0  0
 41106  1  0  0  0
 41107  1  0  0  0
 41108  1  0  0  0
 41 48  1  0  0  0
 42 43  1  0  0  0
 42 66  1  0  0  0
 42109  1  0  0  0
 42110  1  0  0  0
 43 44  1  0  0  0
 44111  1  0  0  0
 45 46  2  0  0  0
 45112  1  0  0  0
 46113  1  0  0  0
 47114  1  0  0  0
 47115  1  0  0  0
 48 56  1  0  0  0
 48 65  1  0  0  0
 48116  1  0  0  0
 49 50  1  0  0  0
 49 53  1  0  0  0
 49 64  1  0  0  0
 49117  1  0  0  0
 50 51  1  0  0  0
 50118  1  0  0  0
 50119  1  0  0  0
 51 52  1  0  0  0
 51120  1  0  0  0
 51121  1  0  0  0
 52122  1  0  0  0
 52123  1  0  0  0
 53 54  1  0  0  0
 54 55  2  0  0  0
 54124  1  0  0  0
 55 57  1  0  0  0
 55125  1  0  0  0
 56 69  2  0  0  0
 57 58  2  0  0  0
 57126  1  0  0  0
 58127  1  0  0  0
 59 60  1  0  0  0
 59 61  1  0  0  0
 59 62  1  0  0  0
 60128  1  0  0  0
 60129  1  0  0  0
 60130  1  0  0  0
 61131  1  0  0  0
 61132  1  0  0  0
 61133  1  0  0  0
 62134  1  0  0  0
 62135  1  0  0  0
 62136  1  0  0  0
 63 65  1  0  0  0
 63137  1  0  0  0
 63138  1  0  0  0
 63139  1  0  0  0
 64140  1  0  0  0
 65141  1  0  0  0
 68 78  1  0  0  0
 71 72  2  0  0  0
 71 81  1  0  0  0
 71142  1  0  0  0
 72 74  1  0  0  0
 72 79  1  0  0  0
 73 82  1  0  0  0
 73143  1  0  0  0
 73144  1  0  0  0
 73145  1  0  0  0
 74 77  1  0  0  0
 74146  1  0  0  0
 74147  1  0  0  0
 75 76  1  0  0  0
 75 78  1  0  0  0
 75148  1  0  0  0
 75149  1  0  0  0
 76 81  1  0  0  0
 76150  1  0  0  0
 76151  1  0  0  0
 77 82  1  0  0  0
 77152  1  0  0  0
 77153  1  0  0  0
 78154  1  0  0  0
 78155  1  0  0  0
 79 80  2  0  0  0
 80 81  1  0  0  0
M  ISO  4   1 100  68 101  78 101  82 100
M  END
> <chiral flag>
0

> <version>
0

> <s_m_source_file>
/data/baiqing/PycharmProjects/Reinvent-master-3.2/result/LINK_invent/BTK/process_docking_weight1_custom_sum_contain_oxygen_bond_distance_aromatic_linkinvent_7_9_3/rearranged_h_0059.sdf

> <i_m_source_file_index>
14

> <r_mmod_Potential_Energy-OPLS-2005>
59.3131141662598

> <r_mmod_Stretch_Energy-OPLS-2005>
51.6490592956543

> <r_mmod_Bend_Energy-OPLS-2005>
125.076187133789

> <r_mmod_Torsional_Energy-OPLS-2005>
260.165161132812

> <r_mmod_Improper_Torsional_Energy-OPLS-2005>
8.16239833831787

> <r_mmod_Van_der_Waal_Energy-OPLS-2005>
128.988403320312

> <r_mmod_Electrostatic_Energy-OPLS-2005>
-315.513549804688

> <r_mmod_Solvation_Energy-OPLS-2005>
-218.472869873047

> <b_mmod_Minimization_Converged-OPLS-2005>
0

> <r_mmod_RMS_Derivative-OPLS-2005>
1.77583718299866

$$$$
14
                    3D
 Structure written by MMmdl.
169177  0  0  1  0            999 V2000
  -30.6054  -14.8157   20.3592 C   0  0  0  0  0  0
  -30.4167  -12.4890   19.4637 C   0  0  0  0  0  0
  -29.5004  -12.4951   18.2239 C   0  0  0  0  0  0
  -28.0359  -12.2958   18.6590 C   0  0  0  0  0  0
  -27.6234  -13.2345   19.8239 C   0  0  2  0  0  0
  -28.6770  -13.2604   20.9508 C   0  0  0  0  0  0
  -25.2420  -13.8024   20.5689 C   0  0  0  0  0  0
  -24.1752  -13.0308   20.9267 C   0  0  0  0  0  0
  -24.6392  -11.6813   20.8806 C   0  0  0  0  0  0
  -23.9053  -10.4225   21.0448 C   0  0  0  0  0  0
  -24.3580   -9.4132   21.9202 C   0  0  0  0  0  0
  -23.6243   -8.2185   22.0769 C   0  0  0  0  0  0
  -22.4237   -8.0224   21.3546 C   0  0  0  0  0  0
  -21.9874   -9.0213   20.4670 C   0  0  0  0  0  0
  -22.7237  -10.2077   20.3089 C   0  0  0  0  0  0
  -21.6841   -6.0709   22.5285 C   0  0  0  0  0  0
  -21.4021   -6.5616   23.8215 C   0  0  0  0  0  0
  -21.3642   -5.6764   24.9164 C   0  0  0  0  0  0
  -21.6036   -4.3028   24.7222 C   0  0  0  0  0  0
  -21.8807   -3.8126   23.4342 C   0  0  0  0  0  0
  -21.9182   -4.6943   22.3399 C   0  0  0  0  0  0
  -22.7790  -13.5146   21.1851 C   0  0  0  0  0  0
  -22.1653   -4.2120   21.0988 F   0  0  0  0  0  0
  -21.5609   -3.4517   25.7731 F   0  0  0  0  0  0
  -29.9579  -13.5978   20.3269 N   0  0  0  0  0  0
  -26.2868  -12.9317   20.3206 N   0  0  0  0  0  0
  -25.9329  -11.6452   20.5785 N   0  0  0  0  0  0
  -22.0413  -12.8226   22.0456 N   0  0  0  0  0  0
  -25.3987  -15.1674   20.3987 N   0  0  0  0  0  0
  -31.8386  -14.8238   20.2594 O   0  0  0  0  0  0
  -21.6608   -6.8833   21.4245 O   0  0  0  0  0  0
  -22.3527  -14.5435   20.6624 O   0  0  0  0  0  0
  -24.6293  -31.8534   23.1971 C   0  0  0  0  0  0
  -25.9128  -32.4744   23.8318 C   0  0  1  0  0  0
  -27.2455  -27.2804   20.1125 C   0  0  0  0  0  0
  -25.5901  -33.8551   24.2231 N   0  0  0  0  0  0
  -23.4285  -30.4728   21.5390 C   0  0  2  0  0  0
  -24.8788  -28.9137   20.1105 C   0  0  0  0  0  0
  -22.7488  -29.4602   22.4907 C   0  0  0  0  0  0
  -18.0285  -28.1383   22.8478 C   0  0  0  0  0  0
  -24.1498  -36.7295   23.2636 C   0  0  0  0  0  0
  -25.9700  -30.7703   21.3753 C   0  0  0  0  0  0
  -26.0467  -29.3936   20.7143 C   0  0  0  0  0  0
  -27.2262  -28.5876   20.7063 C   0  0  0  0  0  0
  -26.0500  -26.8536   19.4927 C   0  0  0  0  0  0
  -24.8852  -27.6488   19.4930 C   0  0  0  0  0  0
  -23.6508  -29.8023   20.1564 C   0  0  0  0  0  0
  -25.4119  -36.3071   24.0319 C   0  0  1  0  0  0
  -20.5883  -28.3715   23.1251 C   0  0  2  0  0  0
  -20.6768  -26.9435   22.5406 C   0  0  0  0  0  0
  -19.5753  -26.6383   21.5202 C   0  0  0  0  0  0
  -18.1932  -26.7925   22.1613 C   0  0  0  0  0  0
  -19.1543  -28.8872   23.2863 C   0  0  0  0  0  0
  -18.9467  -30.1440   23.8917 C   0  0  0  0  0  0
  -17.6473  -30.6587   24.0574 C   0  0  0  0  0  0
  -25.9056  -34.9438   23.5076 C   0  0  0  0  0  0
  -16.5362  -29.9090   23.6311 C   0  0  0  0  0  0
  -16.7282  -28.6497   23.0372 C   0  0  0  0  0  0
  -26.4517  -31.6571   25.0710 C   0  0  0  0  0  0
  -25.3728  -31.3712   26.1422 C   0  0  0  0  0  0
  -27.0347  -30.2975   24.6182 C   0  0  0  0  0  0
  -27.6063  -32.4320   25.7460 C   0  0  0  0  0  0
  -27.5586  -37.1798   24.8454 C   0  0  0  0  0  0
  -21.4205  -29.3054   22.3646 N   0  0  0  0  0  0
  -26.4291  -37.3775   23.9409 N   0  0  0  0  0  0
  -24.6942  -31.0503   22.0942 N   0  0  0  0  0  0
  -23.4179  -28.8129   23.3013 O   0  0  0  0  0  0
  -28.3762  -26.4430   20.1947 O   0  0  0  0  0  0
  -26.5670  -34.8901   22.4675 O   0  0  0  0  0  0
  -23.5453  -32.1377   23.7271 O   0  0  0  0  0  0
  -27.7849  -20.3610   20.0095 C   0  0  0  0  0  0
  -29.0094  -20.9567   20.1191 C   0  0  0  0  0  0
  -29.2075  -18.6416   20.4408 C   0  0  0  0  0  0
  -29.2345  -17.1206   16.3373 C   0  0  0  0  0  0
  -25.8040  -18.2984   19.1246 C   0  0  0  0  0  0
  -26.0437  -18.3704   21.6620 C   0  0  0  0  0  0
  -29.3982  -22.4740   19.9287 C   0  0  0  0  0  0
  -29.7739  -17.2090   20.9140 C   0  0  0  0  0  0
  -28.9397  -16.5141   17.7163 C   0  0  0  0  0  0
  -28.3215  -23.6636   20.1909 C   0  0  0  0  0  0
  -30.1888  -16.4373   18.6093 C   0  0  0  0  0  0
  -28.5419  -25.1183   19.5098 C   0  0  0  0  0  0
  -26.7633  -18.1099   20.3246 C   0  0  0  0  0  0
  -27.9182  -19.0023   20.2258 N   0  0  0  0  0  0
  -29.8584  -19.8528   20.3742 N   0  3  0  0  0  0
  -29.9022  -15.9805   19.9932 N   0  0  0  0  0  0
  -31.4606  -12.5968   19.1676 H   0  0  0  0  0  0
  -30.3505  -11.5356   19.9939 H   0  0  0  0  0  0
  -29.7985  -11.7160   17.5205 H   0  0  0  0  0  0
  -29.6020  -13.4375   17.6868 H   0  0  0  0  0  0
  -27.9406  -11.2582   18.9783 H   0  0  0  0  0  0
  -27.3613  -12.4197   17.8135 H   0  0  0  0  0  0
  -27.5801  -14.2333   19.3911 H   0  0  0  0  0  0
  -28.7408  -12.3014   21.4674 H   0  0  0  0  0  0
  -28.4157  -14.0114   21.6986 H   0  0  0  0  0  0
  -25.2738   -9.5558   22.4737 H   0  0  0  0  0  0
  -23.9915   -7.4581   22.7485 H   0  0  0  0  0  0
  -21.0791   -8.8765   19.9000 H   0  0  0  0  0  0
  -22.3726  -10.9596   19.6172 H   0  0  0  0  0  0
  -21.2060   -7.6132   23.9706 H   0  0  0  0  0  0
  -21.1476   -6.0514   25.9064 H   0  0  0  0  0  0
  -22.0614   -2.7587   23.2877 H   0  0  0  0  0  0
  -22.4024  -11.9903   22.4873 H   0  0  0  0  0  0
  -21.1040  -13.1299   22.2623 H   0  0  0  0  0  0
  -24.6054  -15.7952   20.4669 H   0  0  0  0  0  0
  -26.1983  -15.5780   19.9429 H   0  0  0  0  0  0
  -26.7192  -32.5409   23.1068 H   0  0  0  0  0  0
  -25.0005  -33.9675   25.0343 H   0  0  0  0  0  0
  -22.7249  -31.2934   21.3908 H   0  0  0  0  0  0
  -23.3757  -35.9633   23.3285 H   0  0  0  0  0  0
  -24.3585  -36.8941   22.2051 H   0  0  0  0  0  0
  -23.7252  -37.6482   23.6689 H   0  0  0  0  0  0
  -26.1070  -31.5352   20.6103 H   0  0  0  0  0  0
  -26.8459  -30.8207   22.0094 H   0  0  0  0  0  0
  -28.1243  -28.9531   21.1858 H   0  0  0  0  0  0
  -25.9928  -25.8823   19.0258 H   0  0  0  0  0  0
  -23.9896  -27.2713   19.0201 H   0  0  0  0  0  0
  -23.7845  -30.5810   19.4040 H   0  0  0  0  0  0
  -22.7671  -29.2430   19.8465 H   0  0  0  0  0  0
  -25.1307  -36.1917   25.0814 H   0  0  0  0  0  0
  -20.9988  -28.3321   24.1365 H   0  0  0  0  0  0
  -20.5640  -26.2354   23.3636 H   0  0  0  0  0  0
  -21.6635  -26.7435   22.1223 H   0  0  0  0  0  0
  -19.6920  -25.6291   21.1239 H   0  0  0  0  0  0
  -19.6654  -27.3179   20.6718 H   0  0  0  0  0  0
  -17.4194  -26.6683   21.4024 H   0  0  0  0  0  0
  -18.0330  -26.0057   22.8995 H   0  0  0  0  0  0
  -19.7953  -30.7234   24.2325 H   0  0  0  0  0  0
  -17.5037  -31.6265   24.5182 H   0  0  0  0  0  0
  -15.5372  -30.3025   23.7591 H   0  0  0  0  0  0
  -15.8678  -28.0798   22.7123 H   0  0  0  0  0  0
  -24.5895  -30.7095   25.7728 H   0  0  0  0  0  0
  -24.8953  -32.2887   26.4864 H   0  0  0  0  0  0
  -25.8026  -30.8851   27.0190 H   0  0  0  0  0  0
  -26.2919  -29.6703   24.1248 H   0  0  0  0  0  0
  -27.4078  -29.7247   25.4683 H   0  0  0  0  0  0
  -27.8782  -30.4227   23.9383 H   0  0  0  0  0  0
  -27.2674  -33.3622   26.2028 H   0  0  0  0  0  0
  -28.3864  -32.6887   25.0278 H   0  0  0  0  0  0
  -28.0771  -31.8475   26.5377 H   0  0  0  0  0  0
  -28.2592  -38.0106   24.7530 H   0  0  0  0  0  0
  -28.1095  -36.2645   24.6259 H   0  0  0  0  0  0
  -27.2305  -37.1402   25.8852 H   0  0  0  0  0  0
  -20.9420  -29.8812   21.6861 H   0  0  0  0  0  0
  -26.0171  -38.2843   24.1435 H   0  0  0  0  0  0
  -26.8195  -20.8096   19.8231 H   0  0  0  0  0  0
  -28.3448  -17.0916   15.7062 H   0  0  0  0  0  0
  -30.0261  -16.5753   15.8217 H   0  0  0  0  0  0
  -29.5405  -18.1662   16.4151 H   0  0  0  0  0  0
  -25.1130  -19.1289   19.2701 H   0  0  0  0  0  0
  -25.1973  -17.4110   18.9532 H   0  0  0  0  0  0
  -26.3410  -18.4984   18.1947 H   0  0  0  0  0  0
  -25.3104  -17.5966   21.8876 H   0  0  0  0  0  0
  -25.5208  -19.3285   21.6514 H   0  0  0  0  0  0
  -26.7534  -18.4040   22.4902 H   0  0  0  0  0  0
  -29.7212  -22.5660   18.8914 H   0  0  0  0  0  0
  -30.2931  -22.6742   20.5213 H   0  0  0  0  0  0
  -29.1465  -16.9222   21.7598 H   0  0  0  0  0  0
  -30.7583  -17.4115   21.3337 H   0  0  0  0  0  0
  -28.5292  -15.5144   17.5768 H   0  0  0  0  0  0
  -28.1634  -17.1036   18.1918 H   0  0  0  0  0  0
  -28.1769  -23.7776   21.2640 H   0  0  0  0  0  0
  -27.3600  -23.3058   19.8174 H   0  0  0  0  0  0
  -30.7079  -17.3983   18.6187 H   0  0  0  0  0  0
  -30.8930  -15.7733   18.0997 H   0  0  0  0  0  0
  -28.0194  -25.1351   18.5515 H   0  0  0  0  0  0
  -29.5900  -25.1304   19.2097 H   0  0  0  0  0  0
  -27.1552  -17.0949   20.3015 H   0  0  0  0  0  0
  -30.8543  -19.9476   20.5390 H   0  0  0  0  0  0
  1 25  1  0  0  0
  1 30  2  0  0  0
  1 86  1  0  0  0
  2  3  1  0  0  0
  2 25  1  0  0  0
  2 87  1  0  0  0
  2 88  1  0  0  0
  3  4  1  0  0  0
  3 89  1  0  0  0
  3 90  1  0  0  0
  4  5  1  0  0  0
  4 91  1  0  0  0
  4 92  1  0  0  0
  5  6  1  0  0  0
  5 26  1  0  0  0
  5 93  1  0  0  0
  6 25  1  0  0  0
  6 94  1  0  0  0
  6 95  1  0  0  0
  7  8  2  0  0  0
  7 26  1  0  0  0
  7 29  1  0  0  0
  8  9  1  0  0  0
  8 22  1  0  0  0
  9 10  1  0  0  0
  9 27  2  0  0  0
 10 11  2  0  0  0
 10 15  1  0  0  0
 11 12  1  0  0  0
 11 96  1  0  0  0
 12 13  2  0  0  0
 12 97  1  0  0  0
 13 14  1  0  0  0
 13 31  1  0  0  0
 14 15  2  0  0  0
 14 98  1  0  0  0
 15 99  1  0  0  0
 16 17  2  0  0  0
 16 21  1  0  0  0
 16 31  1  0  0  0
 17 18  1  0  0  0
 17100  1  0  0  0
 18 19  2  0  0  0
 18101  1  0  0  0
 19 20  1  0  0  0
 19 24  1  0  0  0
 20 21  2  0  0  0
 20102  1  0  0  0
 21 23  1  0  0  0
 22 28  1  0  0  0
 22 32  2  0  0  0
 26 27  1  0  0  0
 28103  1  0  0  0
 28104  1  0  0  0
 29105  1  0  0  0
 29106  1  0  0  0
 33 34  1  0  0  0
 33 66  1  0  0  0
 33 70  2  0  0  0
 34 36  1  0  0  0
 34 59  1  0  0  0
 34107  1  0  0  0
 35 44  2  0  0  0
 35 45  1  0  0  0
 35 68  1  0  0  0
 36 56  1  0  0  0
 36108  1  0  0  0
 37 39  1  0  0  0
 37 47  1  0  0  0
 37 66  1  0  0  0
 37109  1  0  0  0
 38 43  2  0  0  0
 38 46  1  0  0  0
 38 47  1  0  0  0
 39 64  1  0  0  0
 39 67  2  0  0  0
 40 52  1  0  0  0
 40 53  2  0  0  0
 40 58  1  0  0  0
 41110  1  0  0  0
 41111  1  0  0  0
 41112  1  0  0  0
 41 48  1  0  0  0
 42 43  1  0  0  0
 42 66  1  0  0  0
 42113  1  0  0  0
 42114  1  0  0  0
 43 44  1  0  0  0
 44115  1  0  0  0
 45 46  2  0  0  0
 45116  1  0  0  0
 46117  1  0  0  0
 47118  1  0  0  0
 47119  1  0  0  0
 48 56  1  0  0  0
 48 65  1  0  0  0
 48120  1  0  0  0
 49 50  1  0  0  0
 49 53  1  0  0  0
 49 64  1  0  0  0
 49121  1  0  0  0
 50 51  1  0  0  0
 50122  1  0  0  0
 50123  1  0  0  0
 51 52  1  0  0  0
 51124  1  0  0  0
 51125  1  0  0  0
 52126  1  0  0  0
 52127  1  0  0  0
 53 54  1  0  0  0
 54 55  2  0  0  0
 54128  1  0  0  0
 55 57  1  0  0  0
 55129  1  0  0  0
 56 69  2  0  0  0
 57 58  2  0  0  0
 57130  1  0  0  0
 58131  1  0  0  0
 59 60  1  0  0  0
 59 61  1  0  0  0
 59 62  1  0  0  0
 60132  1  0  0  0
 60133  1  0  0  0
 60134  1  0  0  0
 61135  1  0  0  0
 61136  1  0  0  0
 61137  1  0  0  0
 62138  1  0  0  0
 62139  1  0  0  0
 62140  1  0  0  0
 63 65  1  0  0  0
 63141  1  0  0  0
 63142  1  0  0  0
 63143  1  0  0  0
 64144  1  0  0  0
 65145  1  0  0  0
 68 82  1  0  0  0
 71 72  2  0  0  0
 71 84  1  0  0  0
 71146  1  0  0  0
 72 77  1  0  0  0
 72 85  1  0  0  0
 73 78  1  0  0  0
 73 84  1  0  0  0
 73 85  2  0  0  0
 74 79  1  0  0  0
 74147  1  0  0  0
 74148  1  0  0  0
 74149  1  0  0  0
 75150  1  0  0  0
 75151  1  0  0  0
 75152  1  0  0  0
 75 83  1  0  0  0
 76 83  1  0  0  0
 76153  1  0  0  0
 76154  1  0  0  0
 76155  1  0  0  0
 77 80  1  0  0  0
 77156  1  0  0  0
 77157  1  0  0  0
 78 86  1  0  0  0
 78158  1  0  0  0
 78159  1  0  0  0
 79 81  1  0  0  0
 79160  1  0  0  0
 79161  1  0  0  0
 80 82  1  0  0  0
 80162  1  0  0  0
 80163  1  0  0  0
 81 86  1  0  0  0
 81164  1  0  0  0
 81165  1  0  0  0
 82166  1  0  0  0
 82167  1  0  0  0
 83 84  1  0  0  0
 83168  1  0  0  0
 85169  1  0  0  0
M  CHG  1  85   1
M  ISO  4   1 100  68 101  82 101  86 100
M  END
> <chiral flag>
0

> <version>
0

> <s_m_source_file>
/data/baiqing/PycharmProjects/Reinvent-master-3.2/result/LINK_invent/BTK/process_docking_weight1_custom_sum_contain_oxygen_bond_distance_aromatic_linkinvent_7_9_3/rearranged_h_0059.sdf

> <i_m_source_file_index>
15

> <r_mmod_Potential_Energy-OPLS-2005>
342.381103515625

> <r_mmod_Stretch_Energy-OPLS-2005>
134.406661987305

> <r_mmod_Bend_Energy-OPLS-2005>
210.501388549805

> <r_mmod_Torsional_Energy-OPLS-2005>
327.0615234375

> <r_mmod_Improper_Torsional_Energy-OPLS-2005>
22.6947040557861

> <r_mmod_Van_der_Waal_Energy-OPLS-2005>
103.327842712402

> <r_mmod_Electrostatic_Energy-OPLS-2005>
-168.215072631836

> <r_mmod_Solvation_Energy-OPLS-2005>
-395.604034423828

> <b_mmod_Minimization_Converged-OPLS-2005>
0

> <r_mmod_RMS_Derivative-OPLS-2005>
5.06521034240723

$$$$
15
                    3D
 Structure written by MMmdl.
151159  0  0  1  0            999 V2000
  -30.3743  -15.4432   20.3303 C   0  0  0  0  0  0
  -30.4361  -12.9461   19.5048 C   0  0  0  0  0  0
  -29.5346  -12.5724   18.2943 C   0  0  0  0  0  0
  -28.1160  -12.2176   18.7723 C   0  0  0  0  0  0
  -27.5985  -13.2470   19.7972 C   0  0  2  0  0  0
  -28.6256  -13.5407   20.9163 C   0  0  0  0  0  0
  -25.2395  -13.8079   20.5631 C   0  0  0  0  0  0
  -24.1743  -13.0352   20.9257 C   0  0  0  0  0  0
  -24.6369  -11.6836   20.8827 C   0  0  0  0  0  0
  -23.9051  -10.4227   21.0464 C   0  0  0  0  0  0
  -24.3585   -9.4152   21.9254 C   0  0  0  0  0  0
  -23.6257   -8.2185   22.0795 C   0  0  0  0  0  0
  -22.4269   -8.0216   21.3530 C   0  0  0  0  0  0
  -21.9871   -9.0226   20.4687 C   0  0  0  0  0  0
  -22.7207  -10.2099   20.3126 C   0  0  0  0  0  0
  -21.6833   -6.0713   22.5277 C   0  0  0  0  0  0
  -21.4007   -6.5667   23.8204 C   0  0  0  0  0  0
  -21.3634   -5.6828   24.9167 C   0  0  0  0  0  0
  -21.6016   -4.3086   24.7234 C   0  0  0  0  0  0
  -21.8823   -3.8152   23.4380 C   0  0  0  0  0  0
  -21.9196   -4.6940   22.3415 C   0  0  0  0  0  0
  -22.7774  -13.5141   21.1896 C   0  0  0  0  0  0
  -22.1664   -4.2114   21.0986 F   0  0  0  0  0  0
  -21.5610   -3.4599   25.7766 F   0  0  0  0  0  0
  -29.8194  -14.1121   20.2560 N   0  0  0  0  0  0
  -26.2774  -12.9294   20.3136 N   0  0  0  0  0  0
  -25.9285  -11.6438   20.5736 N   0  0  0  0  0  0
  -22.0474  -12.8163   22.0504 N   0  0  0  0  0  0
  -25.4035  -15.1741   20.3743 N   0  0  0  0  0  0
  -31.6106  -15.3902   20.2291 O   0  0  0  0  0  0
  -21.6638   -6.8820   21.4216 O   0  0  0  0  0  0
  -22.3493  -14.5448   20.6719 O   0  0  0  0  0  0
  -24.6730  -31.8122   23.1629 C   0  0  0  0  0  0
  -25.9381  -32.4534   23.8124 C   0  0  1  0  0  0
  -27.2309  -26.8516   20.1991 C   0  0  0  0  0  0
  -25.5974  -33.8345   24.1996 N   0  0  0  0  0  0
  -23.4935  -30.4193   21.5133 C   0  0  2  0  0  0
  -24.9491  -28.7891   20.1239 C   0  0  0  0  0  0
  -22.7732  -29.4361   22.4749 C   0  0  0  0  0  0
  -18.0332  -28.1396   22.8473 C   0  0  0  0  0  0
  -24.1488  -36.7189   23.2652 C   0  0  0  0  0  0
  -26.0693  -30.6002   21.3975 C   0  0  0  0  0  0
  -26.1425  -29.1790   20.7464 C   0  0  0  0  0  0
  -27.2789  -28.2410   20.7436 C   0  0  0  0  0  0
  -25.9999  -26.6263   19.5423 C   0  0  0  0  0  0
  -24.9079  -27.5315   19.4964 C   0  0  0  0  0  0
  -23.7393  -29.7248   20.1451 C   0  0  0  0  0  0
  -25.4124  -36.2914   24.0281 C   0  0  1  0  0  0
  -20.5960  -28.3710   23.1173 C   0  0  2  0  0  0
  -20.6801  -26.9361   22.5447 C   0  0  0  0  0  0
  -19.5789  -26.6334   21.5247 C   0  0  0  0  0  0
  -18.1968  -26.7933   22.1648 C   0  0  0  0  0  0
  -19.1591  -28.8895   23.2785 C   0  0  0  0  0  0
  -18.9480  -30.1508   23.8809 C   0  0  0  0  0  0
  -17.6446  -30.6606   24.0474 C   0  0  0  0  0  0
  -25.9105  -34.9317   23.4970 C   0  0  0  0  0  0
  -16.5345  -29.9051   23.6319 C   0  0  0  0  0  0
  -16.7289  -28.6448   23.0388 C   0  0  0  0  0  0
  -26.4587  -31.6553   25.0723 C   0  0  0  0  0  0
  -25.3696  -31.3852   26.1369 C   0  0  0  0  0  0
  -27.0484  -30.2900   24.6536 C   0  0  0  0  0  0
  -27.6032  -32.4384   25.7562 C   0  0  0  0  0  0
  -27.5535  -37.1743   24.8458 C   0  0  0  0  0  0
  -21.4375  -29.2989   22.3518 N   0  0  0  0  0  0
  -26.4253  -37.3659   23.9402 N   0  0  0  0  0  0
  -24.7693  -30.9710   22.0789 N   0  0  0  0  0  0
  -23.4250  -28.7948   23.3029 O   0  0  0  0  0  0
  -28.2270  -25.7172   20.1833 O   0  0  0  0  0  0
  -26.5715  -34.8872   22.4578 O   0  0  0  0  0  0
  -23.5780  -32.1093   23.6672 O   0  0  0  0  0  0
  -28.5127  -21.8375   18.8476 C   0  0  0  0  0  0
  -28.5822  -22.4865   20.0821 C   0  0  0  0  0  0
  -29.2646  -20.0129   20.1264 C   0  0  0  0  0  0
  -28.9508  -19.5967   17.7100 C   0  0  0  0  0  0
  -28.1805  -16.7466   20.1656 C   0  0  0  0  0  0
  -27.9808  -24.0971   20.5728 C   0  0  0  0  0  0
  -30.0096  -18.4262   20.5305 C   0  0  0  0  0  0
  -28.9013  -20.4690   18.8937 N   0  0  0  0  0  0
  -29.0530  -21.2715   20.8198 N   0  3  0  0  0  0
  -29.6302  -16.7805   20.3271 N   0  0  0  0  0  0
  -31.4326  -13.2066   19.1398 H   0  0  0  0  0  0
  -30.5883  -12.0924   20.1675 H   0  0  0  0  0  0
  -29.9706  -11.7339   17.7487 H   0  0  0  0  0  0
  -29.4828  -13.4073   17.5920 H   0  0  0  0  0  0
  -28.1695  -11.2422   19.2603 H   0  0  0  0  0  0
  -27.4263  -12.1101   17.9330 H   0  0  0  0  0  0
  -27.4631  -14.1441   19.1980 H   0  0  0  0  0  0
  -28.8614  -12.6494   21.5017 H   0  0  0  0  0  0
  -28.2146  -14.2576   21.6276 H   0  0  0  0  0  0
  -25.2722   -9.5652   22.4852 H   0  0  0  0  0  0
  -23.9982   -7.4559   22.7503 H   0  0  0  0  0  0
  -21.0817   -8.8732   19.8980 H   0  0  0  0  0  0
  -22.3656  -10.9649   19.6266 H   0  0  0  0  0  0
  -21.2020   -7.6181   23.9680 H   0  0  0  0  0  0
  -21.1431   -6.0582   25.9063 H   0  0  0  0  0  0
  -22.0640   -2.7619   23.2889 H   0  0  0  0  0  0
  -22.4043  -11.9751   22.4765 H   0  0  0  0  0  0
  -21.1115  -13.1187   22.2747 H   0  0  0  0  0  0
  -24.6277  -15.8299   20.4165 H   0  0  0  0  0  0
  -26.2326  -15.5660   19.9448 H   0  0  0  0  0  0
  -26.7489  -32.5066   23.0865 H   0  0  0  0  0  0
  -25.0033  -33.9406   25.0075 H   0  0  0  0  0  0
  -22.8112  -31.2525   21.3309 H   0  0  0  0  0  0
  -23.3730  -35.9545   23.3298 H   0  0  0  0  0  0
  -24.3557  -36.8874   22.2076 H   0  0  0  0  0  0
  -23.7297  -37.6390   23.6733 H   0  0  0  0  0  0
  -26.2470  -31.3350   20.6109 H   0  0  0  0  0  0
  -26.9287  -30.6665   22.0554 H   0  0  0  0  0  0
  -28.1931  -28.5458   21.2352 H   0  0  0  0  0  0
  -25.8575  -25.6630   19.0728 H   0  0  0  0  0  0
  -24.0051  -27.2190   18.9858 H   0  0  0  0  0  0
  -23.9019  -30.4824   19.3775 H   0  0  0  0  0  0
  -22.8518  -29.1763   19.8267 H   0  0  0  0  0  0
  -25.1340  -36.1682   25.0769 H   0  0  0  0  0  0
  -21.0043  -28.3379   24.1293 H   0  0  0  0  0  0
  -20.5631  -26.2332   23.3700 H   0  0  0  0  0  0
  -21.6668  -26.7260   22.1285 H   0  0  0  0  0  0
  -19.6919  -25.6239   21.1280 H   0  0  0  0  0  0
  -19.6794  -27.3153   20.6796 H   0  0  0  0  0  0
  -17.4230  -26.6630   21.4067 H   0  0  0  0  0  0
  -18.0377  -26.0133   22.9084 H   0  0  0  0  0  0
  -19.7936  -30.7346   24.2197 H   0  0  0  0  0  0
  -17.4955  -31.6279   24.5077 H   0  0  0  0  0  0
  -15.5322  -30.2915   23.7651 H   0  0  0  0  0  0
  -15.8701  -28.0727   22.7160 H   0  0  0  0  0  0
  -24.5862  -30.7204   25.7700 H   0  0  0  0  0  0
  -24.8920  -32.3090   26.4652 H   0  0  0  0  0  0
  -25.7935  -30.9129   27.0246 H   0  0  0  0  0  0
  -26.3178  -29.6560   24.1495 H   0  0  0  0  0  0
  -27.3906  -29.7297   25.5254 H   0  0  0  0  0  0
  -27.9172  -30.4028   24.0039 H   0  0  0  0  0  0
  -27.2525  -33.3685   26.2034 H   0  0  0  0  0  0
  -28.3926  -32.6947   25.0489 H   0  0  0  0  0  0
  -28.0599  -31.8599   26.5599 H   0  0  0  0  0  0
  -28.2538  -38.0035   24.7437 H   0  0  0  0  0  0
  -28.1025  -36.2562   24.6348 H   0  0  0  0  0  0
  -27.2241  -37.1475   25.8852 H   0  0  0  0  0  0
  -20.9663  -29.8764   21.6682 H   0  0  0  0  0  0
  -26.0080  -38.2708   24.1414 H   0  0  0  0  0  0
  -28.1796  -22.2576   17.9101 H   0  0  0  0  0  0
  -28.6742  -20.1669   16.8223 H   0  0  0  0  0  0
  -28.2403  -18.7763   17.8115 H   0  0  0  0  0  0
  -29.9616  -19.2072   17.5762 H   0  0  0  0  0  0
  -27.7047  -16.3065   21.0424 H   0  0  0  0  0  0
  -27.7586  -17.7439   20.0752 H   0  0  0  0  0  0
  -27.8870  -16.2302   19.2515 H   0  0  0  0  0  0
  -26.8973  -23.9932   20.4872 H   0  0  0  0  0  0
  -28.1331  -24.1032   21.6536 H   0  0  0  0  0  0
  -31.0232  -18.5264   20.1437 H   0  0  0  0  0  0
  -30.1308  -18.5052   21.6113 H   0  0  0  0  0  0
  -29.2348  -21.3308   21.8158 H   0  0  0  0  0  0
  1 25  1  0  0  0
  1 30  2  0  0  0
  1 80  1  0  0  0
  2  3  1  0  0  0
  2 25  1  0  0  0
  2 81  1  0  0  0
  2 82  1  0  0  0
  3  4  1  0  0  0
  3 83  1  0  0  0
  3 84  1  0  0  0
  4  5  1  0  0  0
  4 85  1  0  0  0
  4 86  1  0  0  0
  5  6  1  0  0  0
  5 26  1  0  0  0
  5 87  1  0  0  0
  6 25  1  0  0  0
  6 88  1  0  0  0
  6 89  1  0  0  0
  7  8  2  0  0  0
  7 26  1  0  0  0
  7 29  1  0  0  0
  8  9  1  0  0  0
  8 22  1  0  0  0
  9 10  1  0  0  0
  9 27  2  0  0  0
 10 11  2  0  0  0
 10 15  1  0  0  0
 11 12  1  0  0  0
 11 90  1  0  0  0
 12 13  2  0  0  0
 12 91  1  0  0  0
 13 14  1  0  0  0
 13 31  1  0  0  0
 14 15  2  0  0  0
 14 92  1  0  0  0
 15 93  1  0  0  0
 16 17  2  0  0  0
 16 21  1  0  0  0
 16 31  1  0  0  0
 17 18  1  0  0  0
 17 94  1  0  0  0
 18 19  2  0  0  0
 18 95  1  0  0  0
 19 20  1  0  0  0
 19 24  1  0  0  0
 20 21  2  0  0  0
 20 96  1  0  0  0
 21 23  1  0  0  0
 22 28  1  0  0  0
 22 32  2  0  0  0
 26 27  1  0  0  0
 28 97  1  0  0  0
 28 98  1  0  0  0
 29 99  1  0  0  0
 29100  1  0  0  0
 33 34  1  0  0  0
 33 66  1  0  0  0
 33 70  2  0  0  0
 34 36  1  0  0  0
 34 59  1  0  0  0
 34101  1  0  0  0
 35 44  2  0  0  0
 35 45  1  0  0  0
 35 68  1  0  0  0
 36 56  1  0  0  0
 36102  1  0  0  0
 37 39  1  0  0  0
 37 47  1  0  0  0
 37 66  1  0  0  0
 37103  1  0  0  0
 38 43  2  0  0  0
 38 46  1  0  0  0
 38 47  1  0  0  0
 39 64  1  0  0  0
 39 67  2  0  0  0
 40 52  1  0  0  0
 40 53  2  0  0  0
 40 58  1  0  0  0
 41104  1  0  0  0
 41105  1  0  0  0
 41106  1  0  0  0
 41 48  1  0  0  0
 42 43  1  0  0  0
 42 66  1  0  0  0
 42107  1  0  0  0
 42108  1  0  0  0
 43 44  1  0  0  0
 44109  1  0  0  0
 45 46  2  0  0  0
 45110  1  0  0  0
 46111  1  0  0  0
 47112  1  0  0  0
 47113  1  0  0  0
 48 56  1  0  0  0
 48 65  1  0  0  0
 48114  1  0  0  0
 49 50  1  0  0  0
 49 53  1  0  0  0
 49 64  1  0  0  0
 49115  1  0  0  0
 50 51  1  0  0  0
 50116  1  0  0  0
 50117  1  0  0  0
 51 52  1  0  0  0
 51118  1  0  0  0
 51119  1  0  0  0
 52120  1  0  0  0
 52121  1  0  0  0
 53 54  1  0  0  0
 54 55  2  0  0  0
 54122  1  0  0  0
 55 57  1  0  0  0
 55123  1  0  0  0
 56 69  2  0  0  0
 57 58  2  0  0  0
 57124  1  0  0  0
 58125  1  0  0  0
 59 60  1  0  0  0
 59 61  1  0  0  0
 59 62  1  0  0  0
 60126  1  0  0  0
 60127  1  0  0  0
 60128  1  0  0  0
 61129  1  0  0  0
 61130  1  0  0  0
 61131  1  0  0  0
 62132  1  0  0  0
 62133  1  0  0  0
 62134  1  0  0  0
 63 65  1  0  0  0
 63135  1  0  0  0
 63136  1  0  0  0
 63137  1  0  0  0
 64138  1  0  0  0
 65139  1  0  0  0
 68 76  1  0  0  0
 71 72  2  0  0  0
 71 78  1  0  0  0
 71140  1  0  0  0
 72 76  1  0  0  0
 72 79  1  0  0  0
 73 77  1  0  0  0
 73 78  1  0  0  0
 73 79  2  0  0  0
 74 78  1  0  0  0
 74141  1  0  0  0
 74142  1  0  0  0
 74143  1  0  0  0
 75 80  1  0  0  0
 75144  1  0  0  0
 75145  1  0  0  0
 75146  1  0  0  0
 76147  1  0  0  0
 76148  1  0  0  0
 77 80  1  0  0  0
 77149  1  0  0  0
 77150  1  0  0  0
 79151  1  0  0  0
M  CHG  1  79   1
M  ISO  4   1 100  68 101  76 101  80 100
M  END
> <chiral flag>
0

> <version>
0

> <s_m_source_file>
/data/baiqing/PycharmProjects/Reinvent-master-3.2/result/LINK_invent/BTK/process_docking_weight1_custom_sum_contain_oxygen_bond_distance_aromatic_linkinvent_7_9_3/rearranged_h_0059.sdf

> <i_m_source_file_index>
16

> <r_mmod_Potential_Energy-OPLS-2005>
1585.47790527344

> <r_mmod_Stretch_Energy-OPLS-2005>
704.734741210938

> <r_mmod_Bend_Energy-OPLS-2005>
497.4208984375

> <r_mmod_Torsional_Energy-OPLS-2005>
272.610931396484

> <r_mmod_Improper_Torsional_Energy-OPLS-2005>
6.91695976257324

> <r_mmod_Van_der_Waal_Energy-OPLS-2005>
109.127662658691

> <r_mmod_Electrostatic_Energy-OPLS-2005>
-202.738571166992

> <r_mmod_Solvation_Energy-OPLS-2005>
-433.038513183594

> <b_mmod_Minimization_Converged-OPLS-2005>
0

> <r_mmod_RMS_Derivative-OPLS-2005>
7.19376182556152

$$$$
16
                    3D
 Structure written by MMmdl.
154162  0  0  1  0            999 V2000
  -30.3680  -15.3488   20.4003 C   0  0  0  0  0  0
  -30.4597  -12.8642   19.5381 C   0  0  0  0  0  0
  -29.5533  -12.6336   18.2990 C   0  0  0  0  0  0
  -28.1066  -12.3114   18.7158 C   0  0  0  0  0  0
  -27.6219  -13.2609   19.8376 C   0  0  2  0  0  0
  -28.6613  -13.4131   20.9756 C   0  0  0  0  0  0
  -25.2308  -13.8006   20.5482 C   0  0  0  0  0  0
  -24.1740  -13.0267   20.9150 C   0  0  0  0  0  0
  -24.6437  -11.6785   20.8759 C   0  0  0  0  0  0
  -23.9073  -10.4216   21.0414 C   0  0  0  0  0  0
  -24.3615   -9.4163   21.9204 C   0  0  0  0  0  0
  -23.6285   -8.2204   22.0755 C   0  0  0  0  0  0
  -22.4260   -8.0245   21.3540 C   0  0  0  0  0  0
  -21.9905   -9.0217   20.4637 C   0  0  0  0  0  0
  -22.7239  -10.2086   20.3056 C   0  0  0  0  0  0
  -21.6809   -6.0733   22.5288 C   0  0  0  0  0  0
  -21.4005   -6.5634   23.8241 C   0  0  0  0  0  0
  -21.3673   -5.6770   24.9204 C   0  0  0  0  0  0
  -21.6052   -4.3033   24.7222 C   0  0  0  0  0  0
  -21.8822   -3.8143   23.4342 C   0  0  0  0  0  0
  -21.9188   -4.6972   22.3414 C   0  0  0  0  0  0
  -22.7780  -13.5090   21.1851 C   0  0  0  0  0  0
  -22.1642   -4.2177   21.0976 F   0  0  0  0  0  0
  -21.5651   -3.4497   25.7723 F   0  0  0  0  0  0
  -29.8829  -13.9915   20.3772 N   0  0  0  0  0  0
  -26.2880  -12.9357   20.3211 N   0  0  0  0  0  0
  -25.9410  -11.6477   20.5758 N   0  0  0  0  0  0
  -22.0381  -12.8182   22.0427 N   0  0  0  0  0  0
  -25.3600  -15.1686   20.3590 N   0  0  0  0  0  0
  -31.5747  -15.3708   20.1077 O   0  0  0  0  0  0
  -21.6608   -6.8854   21.4231 O   0  0  0  0  0  0
  -22.3517  -14.5453   20.6727 O   0  0  0  0  0  0
  -24.6597  -31.8226   23.1675 C   0  0  0  0  0  0
  -25.9272  -32.4596   23.8156 C   0  0  1  0  0  0
  -27.2573  -26.9359   20.2132 C   0  0  0  0  0  0
  -25.5953  -33.8403   24.2091 N   0  0  0  0  0  0
  -23.4777  -30.4266   21.5199 C   0  0  2  0  0  0
  -24.9402  -28.8039   20.1284 C   0  0  0  0  0  0
  -22.7662  -29.4405   22.4822 C   0  0  0  0  0  0
  -18.0295  -28.1442   22.8513 C   0  0  0  0  0  0
  -24.1484  -36.7207   23.2641 C   0  0  0  0  0  0
  -26.0407  -30.6361   21.3917 C   0  0  0  0  0  0
  -26.1232  -29.2170   20.7588 C   0  0  0  0  0  0
  -27.2724  -28.3083   20.7729 C   0  0  0  0  0  0
  -26.0395  -26.6646   19.5429 C   0  0  0  0  0  0
  -24.9260  -27.5475   19.4980 C   0  0  0  0  0  0
  -23.7228  -29.7322   20.1507 C   0  0  0  0  0  0
  -25.4114  -36.2966   24.0326 C   0  0  1  0  0  0
  -20.5926  -28.3731   23.1224 C   0  0  2  0  0  0
  -20.6765  -26.9456   22.5332 C   0  0  0  0  0  0
  -19.5690  -26.6385   21.5187 C   0  0  0  0  0  0
  -18.1883  -26.8004   22.1601 C   0  0  0  0  0  0
  -19.1566  -28.8876   23.2914 C   0  0  0  0  0  0
  -18.9525  -30.1451   23.9010 C   0  0  0  0  0  0
  -17.6514  -30.6559   24.0765 C   0  0  0  0  0  0
  -25.9076  -34.9358   23.5043 C   0  0  0  0  0  0
  -16.5386  -29.9113   23.6484 C   0  0  0  0  0  0
  -16.7277  -28.6578   23.0414 C   0  0  0  0  0  0
  -26.4571  -31.6488   25.0620 C   0  0  0  0  0  0
  -25.3733  -31.3684   26.1295 C   0  0  0  0  0  0
  -27.0431  -30.2867   24.6235 C   0  0  0  0  0  0
  -27.6114  -32.4239   25.7398 C   0  0  0  0  0  0
  -27.5573  -37.1762   24.8475 C   0  0  0  0  0  0
  -21.4310  -29.3103   22.3664 N   0  0  0  0  0  0
  -26.4269  -37.3699   23.9435 N   0  0  0  0  0  0
  -24.7484  -30.9863   22.0835 N   0  0  0  0  0  0
  -23.4216  -28.7895   23.2978 O   0  0  0  0  0  0
  -28.3296  -25.8999   20.1742 O   0  0  0  0  0  0
  -26.5661  -34.8910   22.4611 O   0  0  0  0  0  0
  -23.5664  -32.1161   23.6766 O   0  0  0  0  0  0
  -30.6684  -20.6306   20.5605 C   0  0  0  0  0  0
  -28.8228  -19.7594   20.1805 C   0  0  0  0  0  0
  -29.3476  -21.1243   20.2079 C   0  0  0  0  0  0
  -28.0035  -16.6795   20.4771 C   0  0  0  0  0  0
  -27.6686  -22.5538   18.7556 C   0  0  0  0  0  0
  -30.0608  -23.2903   18.8866 C   0  0  0  0  0  0
  -28.3602  -24.2898   20.5707 C   0  0  0  0  0  0
  -29.5035  -16.8939   20.7230 C   0  0  2  0  0  0
  -28.8554  -22.7779   19.7188 C   0  0  0  0  0  0
  -30.8622  -19.2707   20.7050 N   0  0  0  0  0  0
  -29.7163  -18.5668   20.4357 N   0  0  0  0  0  0
  -31.4752  -13.0993   19.2083 H   0  0  0  0  0  0
  -30.5511  -11.9368   20.1052 H   0  0  0  0  0  0
  -29.9600  -11.8418   17.6694 H   0  0  0  0  0  0
  -29.5594  -13.5434   17.6971 H   0  0  0  0  0  0
  -28.0708  -11.2768   19.0606 H   0  0  0  0  0  0
  -27.4392  -12.3661   17.8533 H   0  0  0  0  0  0
  -27.5325  -14.2249   19.3452 H   0  0  0  0  0  0
  -28.8583  -12.4479   21.4452 H   0  0  0  0  0  0
  -28.3006  -14.0421   21.7855 H   0  0  0  0  0  0
  -25.2758   -9.5661   22.4788 H   0  0  0  0  0  0
  -24.0006   -7.4603   22.7505 H   0  0  0  0  0  0
  -21.0836   -8.8756   19.8938 H   0  0  0  0  0  0
  -22.3724  -10.9646   19.6180 H   0  0  0  0  0  0
  -21.1970   -7.6131   23.9745 H   0  0  0  0  0  0
  -21.1491   -6.0498   25.9109 H   0  0  0  0  0  0
  -22.0596   -2.7605   23.2831 H   0  0  0  0  0  0
  -22.3889  -11.9853   22.4937 H   0  0  0  0  0  0
  -21.1014  -13.1320   22.2552 H   0  0  0  0  0  0
  -24.5798  -15.8051   20.4645 H   0  0  0  0  0  0
  -26.2079  -15.6249   20.0525 H   0  0  0  0  0  0
  -26.7340  -32.5160   23.0883 H   0  0  0  0  0  0
  -25.0172  -33.9515   25.0286 H   0  0  0  0  0  0
  -22.7889  -31.2570   21.3450 H   0  0  0  0  0  0
  -23.3793  -35.9498   23.3232 H   0  0  0  0  0  0
  -24.3581  -36.8870   22.2070 H   0  0  0  0  0  0
  -23.7226  -37.6381   23.6691 H   0  0  0  0  0  0
  -26.1883  -31.3665   20.5964 H   0  0  0  0  0  0
  -26.9147  -30.7243   22.0263 H   0  0  0  0  0  0
  -28.1688  -28.6393   21.2798 H   0  0  0  0  0  0
  -25.9400  -25.7095   19.0473 H   0  0  0  0  0  0
  -24.0311  -27.2245   18.9792 H   0  0  0  0  0  0
  -23.8874  -30.4985   19.3941 H   0  0  0  0  0  0
  -22.8336  -29.1851   19.8282 H   0  0  0  0  0  0
  -25.1312  -36.1785   25.0827 H   0  0  0  0  0  0
  -20.9990  -28.3230   24.1336 H   0  0  0  0  0  0
  -20.5720  -26.2326   23.3534 H   0  0  0  0  0  0
  -21.6590  -26.7413   22.1066 H   0  0  0  0  0  0
  -19.6811  -25.6292   21.1250 H   0  0  0  0  0  0
  -19.6611  -27.3147   20.6663 H   0  0  0  0  0  0
  -17.4187  -26.6839   21.3967 H   0  0  0  0  0  0
  -18.0158  -26.0162   22.8983 H   0  0  0  0  0  0
  -19.8003  -30.7250   24.2405 H   0  0  0  0  0  0
  -17.5120  -31.6202   24.5467 H   0  0  0  0  0  0
  -15.5428  -30.3102   23.7795 H   0  0  0  0  0  0
  -15.8663  -28.0979   22.7060 H   0  0  0  0  0  0
  -24.6005  -30.6918   25.7622 H   0  0  0  0  0  0
  -24.8826  -32.2843   26.4573 H   0  0  0  0  0  0
  -25.8035  -30.8975   27.0147 H   0  0  0  0  0  0
  -26.3024  -29.6594   24.1254 H   0  0  0  0  0  0
  -27.4038  -29.7162   25.4807 H   0  0  0  0  0  0
  -27.8937  -30.4078   23.9534 H   0  0  0  0  0  0
  -27.2765  -33.3632   26.1810 H   0  0  0  0  0  0
  -28.4016  -32.6629   25.0263 H   0  0  0  0  0  0
  -28.0666  -31.8424   26.5417 H   0  0  0  0  0  0
  -28.2566  -38.0082   24.7541 H   0  0  0  0  0  0
  -28.1100  -36.2619   24.6272 H   0  0  0  0  0  0
  -27.2283  -37.1360   25.8872 H   0  0  0  0  0  0
  -20.9516  -29.8984   21.7012 H   0  0  0  0  0  0
  -26.0122  -38.2751   24.1488 H   0  0  0  0  0  0
  -31.5561  -21.2406   20.6713 H   0  0  0  0  0  0
  -27.7916  -19.5313   19.9470 H   0  0  0  0  0  0
  -27.4182  -17.5688   20.7033 H   0  0  0  0  0  0
  -27.5924  -15.9346   21.1527 H   0  0  0  0  0  0
  -27.8018  -16.4147   19.4401 H   0  0  0  0  0  0
  -27.8814  -21.8128   17.9832 H   0  0  0  0  0  0
  -27.3763  -23.4731   18.2444 H   0  0  0  0  0  0
  -26.7984  -22.2018   19.3093 H   0  0  0  0  0  0
  -30.3613  -22.5974   18.0987 H   0  0  0  0  0  0
  -30.9316  -23.4656   19.5225 H   0  0  0  0  0  0
  -29.8495  -24.2437   18.3996 H   0  0  0  0  0  0
  -29.0819  -24.3289   21.3888 H   0  0  0  0  0  0
  -27.4225  -24.0887   21.0949 H   0  0  0  0  0  0
  -29.5829  -16.8668   21.8117 H   0  0  0  0  0  0
  1 25  1  0  0  0
  1 30  2  0  0  0
  1 78  1  0  0  0
  2  3  1  0  0  0
  2 25  1  0  0  0
  2 82  1  0  0  0
  2 83  1  0  0  0
  3  4  1  0  0  0
  3 84  1  0  0  0
  3 85  1  0  0  0
  4  5  1  0  0  0
  4 86  1  0  0  0
  4 87  1  0  0  0
  5  6  1  0  0  0
  5 26  1  0  0  0
  5 88  1  0  0  0
  6 25  1  0  0  0
  6 89  1  0  0  0
  6 90  1  0  0  0
  7  8  2  0  0  0
  7 26  1  0  0  0
  7 29  1  0  0  0
  8  9  1  0  0  0
  8 22  1  0  0  0
  9 10  1  0  0  0
  9 27  2  0  0  0
 10 11  2  0  0  0
 10 15  1  0  0  0
 11 12  1  0  0  0
 11 91  1  0  0  0
 12 13  2  0  0  0
 12 92  1  0  0  0
 13 14  1  0  0  0
 13 31  1  0  0  0
 14 15  2  0  0  0
 14 93  1  0  0  0
 15 94  1  0  0  0
 16 17  2  0  0  0
 16 21  1  0  0  0
 16 31  1  0  0  0
 17 18  1  0  0  0
 17 95  1  0  0  0
 18 19  2  0  0  0
 18 96  1  0  0  0
 19 20  1  0  0  0
 19 24  1  0  0  0
 20 21  2  0  0  0
 20 97  1  0  0  0
 21 23  1  0  0  0
 22 28  1  0  0  0
 22 32  2  0  0  0
 26 27  1  0  0  0
 28 98  1  0  0  0
 28 99  1  0  0  0
 29100  1  0  0  0
 29101  1  0  0  0
 33 34  1  0  0  0
 33 66  1  0  0  0
 33 70  2  0  0  0
 34 36  1  0  0  0
 34 59  1  0  0  0
 34102  1  0  0  0
 35 44  2  0  0  0
 35 45  1  0  0  0
 35 68  1  0  0  0
 36 56  1  0  0  0
 36103  1  0  0  0
 37 39  1  0  0  0
 37 47  1  0  0  0
 37 66  1  0  0  0
 37104  1  0  0  0
 38 43  2  0  0  0
 38 46  1  0  0  0
 38 47  1  0  0  0
 39 64  1  0  0  0
 39 67  2  0  0  0
 40 52  1  0  0  0
 40 53  2  0  0  0
 40 58  1  0  0  0
 41105  1  0  0  0
 41106  1  0  0  0
 41107  1  0  0  0
 41 48  1  0  0  0
 42 43  1  0  0  0
 42 66  1  0  0  0
 42108  1  0  0  0
 42109  1  0  0  0
 43 44  1  0  0  0
 44110  1  0  0  0
 45 46  2  0  0  0
 45111  1  0  0  0
 46112  1  0  0  0
 47113  1  0  0  0
 47114  1  0  0  0
 48 56  1  0  0  0
 48 65  1  0  0  0
 48115  1  0  0  0
 49 50  1  0  0  0
 49 53  1  0  0  0
 49 64  1  0  0  0
 49116  1  0  0  0
 50 51  1  0  0  0
 50117  1  0  0  0
 50118  1  0  0  0
 51 52  1  0  0  0
 51119  1  0  0  0
 51120  1  0  0  0
 52121  1  0  0  0
 52122  1  0  0  0
 53 54  1  0  0  0
 54 55  2  0  0  0
 54123  1  0  0  0
 55 57  1  0  0  0
 55124  1  0  0  0
 56 69  2  0  0  0
 57 58  2  0  0  0
 57125  1  0  0  0
 58126  1  0  0  0
 59 60  1  0  0  0
 59 61  1  0  0  0
 59 62  1  0  0  0
 60127  1  0  0  0
 60128  1  0  0  0
 60129  1  0  0  0
 61130  1  0  0  0
 61131  1  0  0  0
 61132  1  0  0  0
 62133  1  0  0  0
 62134  1  0  0  0
 62135  1  0  0  0
 63 65  1  0  0  0
 63136  1  0  0  0
 63137  1  0  0  0
 63138  1  0  0  0
 64139  1  0  0  0
 65140  1  0  0  0
 68 77  1  0  0  0
 71 73  1  0  0  0
 71 80  2  0  0  0
 71141  1  0  0  0
 72 73  2  0  0  0
 72 81  1  0  0  0
 72142  1  0  0  0
 73 79  1  0  0  0
 74143  1  0  0  0
 74144  1  0  0  0
 74145  1  0  0  0
 74 78  1  0  0  0
 75146  1  0  0  0
 75147  1  0  0  0
 75148  1  0  0  0
 75 79  1  0  0  0
 76 79  1  0  0  0
 76149  1  0  0  0
 76150  1  0  0  0
 76151  1  0  0  0
 77 79  1  0  0  0
 77152  1  0  0  0
 77153  1  0  0  0
 78 81  1  0  0  0
 78154  1  0  0  0
 80 81  1  0  0  0
M  ISO  4   1 100  68 101  77 101  78 100
M  END
> <chiral flag>
0

> <version>
0

> <s_m_source_file>
/data/baiqing/PycharmProjects/Reinvent-master-3.2/result/LINK_invent/BTK/process_docking_weight1_custom_sum_contain_oxygen_bond_distance_aromatic_linkinvent_7_9_3/rearranged_h_0059.sdf

> <i_m_source_file_index>
17

> <r_mmod_Potential_Energy-OPLS-2005>
1521.00646972656

> <r_mmod_Stretch_Energy-OPLS-2005>
650.30224609375

> <r_mmod_Bend_Energy-OPLS-2005>
513.998229980469

> <r_mmod_Torsional_Energy-OPLS-2005>
241.958312988281

> <r_mmod_Improper_Torsional_Energy-OPLS-2005>
5.71223974227905

> <r_mmod_Van_der_Waal_Energy-OPLS-2005>
114.117805480957

> <r_mmod_Electrostatic_Energy-OPLS-2005>
-272.016418457031

> <r_mmod_Solvation_Energy-OPLS-2005>
-216.000793457031

> <b_mmod_Minimization_Converged-OPLS-2005>
0

> <r_mmod_RMS_Derivative-OPLS-2005>
7.21434688568115

$$$$
17
                    3D
 Structure written by MMmdl.
155163  0  0  1  0            999 V2000
  -30.6380  -14.7440   20.3901 C   0  0  0  0  0  0
  -30.4285  -12.4384   19.4606 C   0  0  0  0  0  0
  -29.4985  -12.4389   18.2289 C   0  0  0  0  0  0
  -28.0210  -12.2935   18.6516 C   0  0  0  0  0  0
  -27.6250  -13.2036   19.8452 C   0  0  2  0  0  0
  -28.6894  -13.1972   20.9639 C   0  0  0  0  0  0
  -25.2495  -13.8108   20.5773 C   0  0  0  0  0  0
  -24.1746  -13.0397   20.9251 C   0  0  0  0  0  0
  -24.6307  -11.6873   20.8811 C   0  0  0  0  0  0
  -23.8987  -10.4275   21.0460 C   0  0  0  0  0  0
  -24.3584   -9.4194   21.9206 C   0  0  0  0  0  0
  -23.6292   -8.2213   22.0756 C   0  0  0  0  0  0
  -22.4272   -8.0259   21.3539 C   0  0  0  0  0  0
  -21.9877   -9.0224   20.4643 C   0  0  0  0  0  0
  -22.7181  -10.2116   20.3086 C   0  0  0  0  0  0
  -21.6843   -6.0736   22.5280 C   0  0  0  0  0  0
  -21.3996   -6.5645   23.8205 C   0  0  0  0  0  0
  -21.3655   -5.6799   24.9170 C   0  0  0  0  0  0
  -21.6057   -4.3065   24.7217 C   0  0  0  0  0  0
  -21.8833   -3.8156   23.4344 C   0  0  0  0  0  0
  -21.9194   -4.6966   22.3395 C   0  0  0  0  0  0
  -22.7779  -13.5227   21.1884 C   0  0  0  0  0  0
  -22.1680   -4.2162   21.0971 F   0  0  0  0  0  0
  -21.5628   -3.4551   25.7730 F   0  0  0  0  0  0
  -29.9805  -13.5320   20.3475 N   0  0  0  0  0  0
  -26.2865  -12.9223   20.3381 N   0  0  0  0  0  0
  -25.9222  -11.6410   20.5848 N   0  0  0  0  0  0
  -22.0426  -12.8215   22.0447 N   0  0  0  0  0  0
  -25.4254  -15.1821   20.4187 N   0  0  0  0  0  0
  -31.8645  -14.7769   20.2610 O   0  0  0  0  0  0
  -21.6638   -6.8856   21.4233 O   0  0  0  0  0  0
  -22.3483  -14.5534   20.6724 O   0  0  0  0  0  0
  -24.6312  -31.8560   23.2000 C   0  0  0  0  0  0
  -25.9145  -32.4755   23.8349 C   0  0  1  0  0  0
  -27.2192  -27.2762   20.1181 C   0  0  0  0  0  0
  -25.5950  -33.8561   24.2265 N   0  0  0  0  0  0
  -23.4273  -30.4796   21.5425 C   0  0  2  0  0  0
  -24.8731  -28.9302   20.1106 C   0  0  0  0  0  0
  -22.7512  -29.4609   22.4915 C   0  0  0  0  0  0
  -18.0297  -28.1400   22.8473 C   0  0  0  0  0  0
  -24.1497  -36.7272   23.2636 C   0  0  0  0  0  0
  -25.9746  -30.7702   21.3837 C   0  0  0  0  0  0
  -26.0448  -29.3970   20.7197 C   0  0  0  0  0  0
  -27.2205  -28.5817   20.7131 C   0  0  0  0  0  0
  -26.0246  -26.8773   19.4752 C   0  0  0  0  0  0
  -24.8671  -27.6776   19.4797 C   0  0  0  0  0  0
  -23.6444  -29.8150   20.1580 C   0  0  0  0  0  0
  -25.4124  -36.3064   24.0321 C   0  0  1  0  0  0
  -20.5901  -28.3709   23.1265 C   0  0  2  0  0  0
  -20.6789  -26.9426   22.5404 C   0  0  0  0  0  0
  -19.5763  -26.6389   21.5211 C   0  0  0  0  0  0
  -18.1942  -26.7941   22.1617 C   0  0  0  0  0  0
  -19.1548  -28.8872   23.2864 C   0  0  0  0  0  0
  -18.9468  -30.1475   23.8879 C   0  0  0  0  0  0
  -17.6464  -30.6593   24.0561 C   0  0  0  0  0  0
  -25.9061  -34.9437   23.5089 C   0  0  0  0  0  0
  -16.5358  -29.9084   23.6342 C   0  0  0  0  0  0
  -16.7282  -28.6509   23.0353 C   0  0  0  0  0  0
  -26.4506  -31.6593   25.0752 C   0  0  0  0  0  0
  -25.3719  -31.3752   26.1464 C   0  0  0  0  0  0
  -27.0368  -30.3003   24.6292 C   0  0  0  0  0  0
  -27.6062  -32.4348   25.7514 C   0  0  0  0  0  0
  -27.5592  -37.1782   24.8453 C   0  0  0  0  0  0
  -21.4222  -29.3047   22.3656 N   0  0  0  0  0  0
  -26.4291  -37.3771   23.9413 N   0  0  0  0  0  0
  -24.6960  -31.0544   22.0966 N   0  0  0  0  0  0
  -23.4216  -28.8159   23.3015 O   0  0  0  0  0  0
  -28.3212  -26.3949   20.1840 O   0  0  0  0  0  0
  -26.5638  -34.8911   22.4662 O   0  0  0  0  0  0
  -23.5466  -32.1383   23.7299 O   0  0  0  0  0  0
  -31.3300  -20.8960   22.6432 C   0  0  0  0  0  0
  -29.9129  -21.3247   21.1532 C   0  0  0  0  0  0
  -29.1371  -16.1645   19.0847 C   0  0  0  0  0  0
  -29.0017  -22.2527   20.2873 C   0  0  0  0  0  0
  -29.1338  -23.8546   20.5598 C   0  0  0  0  0  0
  -29.5889  -18.6811   20.5296 C   0  0  0  0  0  0
  -30.3777  -17.2812   20.8563 C   0  0  0  0  0  0
  -28.1194  -24.9296   19.9347 C   0  0  0  0  0  0
  -30.6832  -21.9351   22.0573 N   0  0  0  0  0  0
  -31.0197  -19.6977   22.1751 N   0  0  0  0  0  0
  -30.1052  -19.9375   21.1977 N   0  0  0  0  0  0
  -29.9038  -15.9326   20.3157 N   0  0  0  0  0  0
  -31.4664  -12.5597   19.1464 H   0  0  0  0  0  0
  -30.3834  -11.4818   19.9844 H   0  0  0  0  0  0
  -29.7715  -11.6262   17.5550 H   0  0  0  0  0  0
  -29.6365  -13.3510   17.6505 H   0  0  0  0  0  0
  -27.8649  -11.2483   18.9193 H   0  0  0  0  0  0
  -27.3654  -12.4873   17.8012 H   0  0  0  0  0  0
  -27.5608  -14.2027   19.4396 H   0  0  0  0  0  0
  -28.7371  -12.2245   21.4549 H   0  0  0  0  0  0
  -28.4349  -13.9237   21.7376 H   0  0  0  0  0  0
  -25.2733   -9.5689   22.4767 H   0  0  0  0  0  0
  -24.0034   -7.4599   22.7449 H   0  0  0  0  0  0
  -21.0823   -8.8712   19.8932 H   0  0  0  0  0  0
  -22.3636  -10.9658   19.6207 H   0  0  0  0  0  0
  -21.1982   -7.6151   23.9711 H   0  0  0  0  0  0
  -21.1469   -6.0526   25.9066 H   0  0  0  0  0  0
  -22.0617   -2.7623   23.2828 H   0  0  0  0  0  0
  -22.4067  -11.9894   22.4849 H   0  0  0  0  0  0
  -21.1042  -13.1199   22.2674 H   0  0  0  0  0  0
  -24.6665  -15.8441   20.5331 H   0  0  0  0  0  0
  -26.2926  -15.6170   20.1310 H   0  0  0  0  0  0
  -26.7218  -32.5395   23.1095 H   0  0  0  0  0  0
  -25.0101  -33.9702   25.0413 H   0  0  0  0  0  0
  -22.7226  -31.3007   21.3963 H   0  0  0  0  0  0
  -23.3769  -35.9591   23.3277 H   0  0  0  0  0  0
  -24.3583  -36.8919   22.2052 H   0  0  0  0  0  0
  -23.7229  -37.6458   23.6676 H   0  0  0  0  0  0
  -26.1301  -31.5369   20.6237 H   0  0  0  0  0  0
  -26.8448  -30.8036   22.0276 H   0  0  0  0  0  0
  -28.1178  -28.9310   21.2045 H   0  0  0  0  0  0
  -25.9528  -25.9240   18.9723 H   0  0  0  0  0  0
  -23.9696  -27.3154   18.9969 H   0  0  0  0  0  0
  -23.7713  -30.5900   19.4015 H   0  0  0  0  0  0
  -22.7627  -29.2477   19.8525 H   0  0  0  0  0  0
  -25.1302  -36.1905   25.0810 H   0  0  0  0  0  0
  -20.9989  -28.3290   24.1387 H   0  0  0  0  0  0
  -20.5709  -26.2316   23.3609 H   0  0  0  0  0  0
  -21.6657  -26.7462   22.1188 H   0  0  0  0  0  0
  -19.6926  -25.6294   21.1258 H   0  0  0  0  0  0
  -19.6705  -27.3187   20.6732 H   0  0  0  0  0  0
  -17.4215  -26.6690   21.4018 H   0  0  0  0  0  0
  -18.0337  -26.0089   22.9019 H   0  0  0  0  0  0
  -19.7939  -30.7305   24.2238 H   0  0  0  0  0  0
  -17.5011  -31.6265   24.5174 H   0  0  0  0  0  0
  -15.5358  -30.2976   23.7675 H   0  0  0  0  0  0
  -15.8686  -28.0821   22.7076 H   0  0  0  0  0  0
  -24.5873  -30.7142   25.7764 H   0  0  0  0  0  0
  -24.8944  -32.2930   26.4907 H   0  0  0  0  0  0
  -25.8014  -30.8889   27.0232 H   0  0  0  0  0  0
  -26.2982  -29.6739   24.1290 H   0  0  0  0  0  0
  -27.3979  -29.7291   25.4852 H   0  0  0  0  0  0
  -27.8886  -30.4245   23.9606 H   0  0  0  0  0  0
  -27.2668  -33.3635   26.2112 H   0  0  0  0  0  0
  -28.3854  -32.6943   25.0333 H   0  0  0  0  0  0
  -28.0771  -31.8482   26.5412 H   0  0  0  0  0  0
  -28.2571  -38.0122   24.7567 H   0  0  0  0  0  0
  -28.1134  -36.2656   24.6200 H   0  0  0  0  0  0
  -27.2320  -37.1330   25.8858 H   0  0  0  0  0  0
  -20.9430  -29.8735   21.6817 H   0  0  0  0  0  0
  -26.0166  -38.2836   24.1451 H   0  0  0  0  0  0
  -32.0498  -21.0265   23.4381 H   0  0  0  0  0  0
  -28.1326  -16.5199   19.3155 H   0  0  0  0  0  0
  -29.0550  -15.2895   18.4465 H   0  0  0  0  0  0
  -29.6314  -16.9008   18.4514 H   0  0  0  0  0  0
  -27.9681  -21.9384   20.4339 H   0  0  0  0  0  0
  -29.2275  -22.0493   19.2391 H   0  0  0  0  0  0
  -30.1440  -24.1565   20.2829 H   0  0  0  0  0  0
  -29.0792  -24.0007   21.6390 H   0  0  0  0  0  0
  -28.5436  -18.5729   20.8204 H   0  0  0  0  0  0
  -29.5900  -18.8789   19.4573 H   0  0  0  0  0  0
  -30.4302  -17.1515   21.9379 H   0  0  0  0  0  0
  -31.4114  -17.4083   20.5319 H   0  0  0  0  0  0
  -27.1334  -24.6395   20.2991 H   0  0  0  0  0  0
  -28.0949  -24.7868   18.8533 H   0  0  0  0  0  0
  1 25  1  0  0  0
  1 30  2  0  0  0
  1 82  1  0  0  0
  2  3  1  0  0  0
  2 25  1  0  0  0
  2 83  1  0  0  0
  2 84  1  0  0  0
  3  4  1  0  0  0
  3 85  1  0  0  0
  3 86  1  0  0  0
  4  5  1  0  0  0
  4 87  1  0  0  0
  4 88  1  0  0  0
  5  6  1  0  0  0
  5 26  1  0  0  0
  5 89  1  0  0  0
  6 25  1  0  0  0
  6 90  1  0  0  0
  6 91  1  0  0  0
  7  8  2  0  0  0
  7 26  1  0  0  0
  7 29  1  0  0  0
  8  9  1  0  0  0
  8 22  1  0  0  0
  9 10  1  0  0  0
  9 27  2  0  0  0
 10 11  2  0  0  0
 10 15  1  0  0  0
 11 12  1  0  0  0
 11 92  1  0  0  0
 12 13  2  0  0  0
 12 93  1  0  0  0
 13 14  1  0  0  0
 13 31  1  0  0  0
 14 15  2  0  0  0
 14 94  1  0  0  0
 15 95  1  0  0  0
 16 17  2  0  0  0
 16 21  1  0  0  0
 16 31  1  0  0  0
 17 18  1  0  0  0
 17 96  1  0  0  0
 18 19  2  0  0  0
 18 97  1  0  0  0
 19 20  1  0  0  0
 19 24  1  0  0  0
 20 21  2  0  0  0
 20 98  1  0  0  0
 21 23  1  0  0  0
 22 28  1  0  0  0
 22 32  2  0  0  0
 26 27  1  0  0  0
 28 99  1  0  0  0
 28100  1  0  0  0
 29101  1  0  0  0
 29102  1  0  0  0
 33 34  1  0  0  0
 33 66  1  0  0  0
 33 70  2  0  0  0
 34 36  1  0  0  0
 34 59  1  0  0  0
 34103  1  0  0  0
 35 44  2  0  0  0
 35 45  1  0  0  0
 35 68  1  0  0  0
 36 56  1  0  0  0
 36104  1  0  0  0
 37 39  1  0  0  0
 37 47  1  0  0  0
 37 66  1  0  0  0
 37105  1  0  0  0
 38 43  2  0  0  0
 38 46  1  0  0  0
 38 47  1  0  0  0
 39 64  1  0  0  0
 39 67  2  0  0  0
 40 52  1  0  0  0
 40 53  2  0  0  0
 40 58  1  0  0  0
 41106  1  0  0  0
 41107  1  0  0  0
 41108  1  0  0  0
 41 48  1  0  0  0
 42 43  1  0  0  0
 42 66  1  0  0  0
 42109  1  0  0  0
 42110  1  0  0  0
 43 44  1  0  0  0
 44111  1  0  0  0
 45 46  2  0  0  0
 45112  1  0  0  0
 46113  1  0  0  0
 47114  1  0  0  0
 47115  1  0  0  0
 48 56  1  0  0  0
 48 65  1  0  0  0
 48116  1  0  0  0
 49 50  1  0  0  0
 49 53  1  0  0  0
 49 64  1  0  0  0
 49117  1  0  0  0
 50 51  1  0  0  0
 50118  1  0  0  0
 50119  1  0  0  0
 51 52  1  0  0  0
 51120  1  0  0  0
 51121  1  0  0  0
 52122  1  0  0  0
 52123  1  0  0  0
 53 54  1  0  0  0
 54 55  2  0  0  0
 54124  1  0  0  0
 55 57  1  0  0  0
 55125  1  0  0  0
 56 69  2  0  0  0
 57 58  2  0  0  0
 57126  1  0  0  0
 58127  1  0  0  0
 59 60  1  0  0  0
 59 61  1  0  0  0
 59 62  1  0  0  0
 60128  1  0  0  0
 60129  1  0  0  0
 60130  1  0  0  0
 61131  1  0  0  0
 61132  1  0  0  0
 61133  1  0  0  0
 62134  1  0  0  0
 62135  1  0  0  0
 62136  1  0  0  0
 63 65  1  0  0  0
 63137  1  0  0  0
 63138  1  0  0  0
 63139  1  0  0  0
 64140  1  0  0  0
 65141  1  0  0  0
 68 78  1  0  0  0
 71 79  1  0  0  0
 71 80  2  0  0  0
 71142  1  0  0  0
 72 74  1  0  0  0
 72 79  2  0  0  0
 72 81  1  0  0  0
 73 82  1  0  0  0
 73143  1  0  0  0
 73144  1  0  0  0
 73145  1  0  0  0
 74 75  1  0  0  0
 74146  1  0  0  0
 74147  1  0  0  0
 75 78  1  0  0  0
 75148  1  0  0  0
 75149  1  0  0  0
 76 77  1  0  0  0
 76 81  1  0  0  0
 76150  1  0  0  0
 76151  1  0  0  0
 77 82  1  0  0  0
 77152  1  0  0  0
 77153  1  0  0  0
 78154  1  0  0  0
 78155  1  0  0  0
 80 81  1  0  0  0
M  ISO  4   1 100  68 101  78 101  82 100
M  END
> <chiral flag>
0

> <version>
0

> <s_m_source_file>
/data/baiqing/PycharmProjects/Reinvent-master-3.2/result/LINK_invent/BTK/process_docking_weight1_custom_sum_contain_oxygen_bond_distance_aromatic_linkinvent_7_9_3/rearranged_h_0059.sdf

> <i_m_source_file_index>
18

> <r_mmod_Potential_Energy-OPLS-2005>
310.423797607422

> <r_mmod_Stretch_Energy-OPLS-2005>
122.219108581543

> <r_mmod_Bend_Energy-OPLS-2005>
187.720901489258

> <r_mmod_Torsional_Energy-OPLS-2005>
304.320343017578

> <r_mmod_Improper_Torsional_Energy-OPLS-2005>
8.72790336608887

> <r_mmod_Van_der_Waal_Energy-OPLS-2005>
136.841430664062

> <r_mmod_Electrostatic_Energy-OPLS-2005>
-312.429840087891

> <r_mmod_Solvation_Energy-OPLS-2005>
-228.011734008789

> <b_mmod_Minimization_Converged-OPLS-2005>
0

> <r_mmod_RMS_Derivative-OPLS-2005>
2.36440896987915

$$$$
18
                    3D
 Structure written by MMmdl.
152160  0  0  1  0            999 V2000
  -30.4955  -15.0759   20.3513 C   0  0  0  0  0  0
  -30.4462  -12.6692   19.4897 C   0  0  0  0  0  0
  -29.5252  -12.5067   18.2572 C   0  0  0  0  0  0
  -28.0631  -12.2790   18.6900 C   0  0  0  0  0  0
  -27.6155  -13.2406   19.8215 C   0  0  2  0  0  0
  -28.6649  -13.3575   20.9446 C   0  0  0  0  0  0
  -25.2452  -13.8196   20.5753 C   0  0  0  0  0  0
  -24.1754  -13.0442   20.9243 C   0  0  0  0  0  0
  -24.6358  -11.6917   20.8771 C   0  0  0  0  0  0
  -23.9048  -10.4302   21.0420 C   0  0  0  0  0  0
  -24.3616   -9.4220   21.9187 C   0  0  0  0  0  0
  -23.6298   -8.2250   22.0751 C   0  0  0  0  0  0
  -22.4281   -8.0290   21.3547 C   0  0  0  0  0  0
  -21.9912   -9.0262   20.4651 C   0  0  0  0  0  0
  -22.7227  -10.2144   20.3059 C   0  0  0  0  0  0
  -21.6861   -6.0739   22.5276 C   0  0  0  0  0  0
  -21.4015   -6.5640   23.8209 C   0  0  0  0  0  0
  -21.3651   -5.6786   24.9170 C   0  0  0  0  0  0
  -21.6047   -4.3050   24.7217 C   0  0  0  0  0  0
  -21.8829   -3.8148   23.4336 C   0  0  0  0  0  0
  -21.9201   -4.6966   22.3396 C   0  0  0  0  0  0
  -22.7780  -13.5230   21.1882 C   0  0  0  0  0  0
  -22.1672   -4.2159   21.0971 F   0  0  0  0  0  0
  -21.5625   -3.4530   25.7725 F   0  0  0  0  0  0
  -29.9132  -13.7989   20.3075 N   0  0  0  0  0  0
  -26.2837  -12.9382   20.3248 N   0  0  0  0  0  0
  -25.9284  -11.6534   20.5758 N   0  0  0  0  0  0
  -22.0418  -12.8232   22.0437 N   0  0  0  0  0  0
  -25.4177  -15.1930   20.4227 N   0  0  0  0  0  0
  -31.7311  -15.0998   20.2919 O   0  0  0  0  0  0
  -21.6650   -6.8884   21.4238 O   0  0  0  0  0  0
  -22.3472  -14.5528   20.6705 O   0  0  0  0  0  0
  -24.6497  -31.8371   23.1823 C   0  0  0  0  0  0
  -25.9240  -32.4663   23.8239 C   0  0  1  0  0  0
  -27.2184  -27.0766   20.1701 C   0  0  0  0  0  0
  -25.5956  -33.8473   24.2148 N   0  0  0  0  0  0
  -23.4567  -30.4540   21.5295 C   0  0  2  0  0  0
  -24.9076  -28.8631   20.1189 C   0  0  0  0  0  0
  -22.7597  -29.4516   22.4847 C   0  0  0  0  0  0
  -18.0310  -28.1401   22.8479 C   0  0  0  0  0  0
  -24.1490  -36.7252   23.2645 C   0  0  0  0  0  0
  -26.0164  -30.6919   21.3894 C   0  0  0  0  0  0
  -26.0882  -29.2944   20.7384 C   0  0  0  0  0  0
  -27.2476  -28.4200   20.7414 C   0  0  0  0  0  0
  -26.0102  -26.7548   19.5192 C   0  0  0  0  0  0
  -24.8835  -27.6077   19.4920 C   0  0  0  0  0  0
  -23.6880  -29.7742   20.1533 C   0  0  0  0  0  0
  -25.4122  -36.3013   24.0310 C   0  0  1  0  0  0
  -20.5928  -28.3729   23.1223 C   0  0  2  0  0  0
  -20.6791  -26.9427   22.5402 C   0  0  0  0  0  0
  -19.5761  -26.6380   21.5214 C   0  0  0  0  0  0
  -18.1945  -26.7938   22.1627 C   0  0  0  0  0  0
  -19.1570  -28.8885   23.2843 C   0  0  0  0  0  0
  -18.9484  -30.1483   23.8866 C   0  0  0  0  0  0
  -17.6479  -30.6595   24.0561 C   0  0  0  0  0  0
  -25.9078  -34.9390   23.5039 C   0  0  0  0  0  0
  -16.5370  -29.9084   23.6342 C   0  0  0  0  0  0
  -16.7293  -28.6504   23.0360 C   0  0  0  0  0  0
  -26.4532  -31.6565   25.0714 C   0  0  0  0  0  0
  -25.3703  -31.3777   26.1404 C   0  0  0  0  0  0
  -27.0406  -30.2954   24.6340 C   0  0  0  0  0  0
  -27.6037  -32.4354   25.7509 C   0  0  0  0  0  0
  -27.5571  -37.1784   24.8465 C   0  0  0  0  0  0
  -21.4284  -29.3047   22.3597 N   0  0  0  0  0  0
  -26.4278  -37.3733   23.9409 N   0  0  0  0  0  0
  -24.7279  -31.0170   22.0886 N   0  0  0  0  0  0
  -23.4210  -28.8072   23.3026 O   0  0  0  0  0  0
  -28.2550  -26.0580   20.1380 O   0  0  0  0  0  0
  -26.5668  -34.8895   22.4623 O   0  0  0  0  0  0
  -23.5601  -32.1277   23.7003 O   0  0  0  0  0  0
  -28.3741  -23.0654   20.4335 C   0  0  0  0  0  0
  -29.4397  -22.1138   20.2859 C   0  0  0  0  0  0
  -30.9001  -22.4033   20.1747 C   0  0  0  0  0  0
  -29.0771  -16.3744   18.8332 C   0  0  0  0  0  0
  -28.1056  -24.6747   20.8734 C   0  0  0  0  0  0
  -29.5384  -19.2731   19.8554 C   0  0  0  0  0  0
  -29.7093  -17.7985   20.7418 C   0  0  0  0  0  0
  -27.2800  -22.1726   20.4805 N   0  0  0  0  0  0
  -27.6042  -20.8899   20.3663 N   0  0  0  0  0  0
  -28.9535  -20.7258   20.2653 N   0  0  0  0  0  0
  -29.7172  -16.2918   20.1494 N   0  0  0  0  0  0
  -31.4701  -12.8601   19.1637 H   0  0  0  0  0  0
  -30.4831  -11.7488   20.0755 H   0  0  0  0  0  0
  -29.8640  -11.6720   17.6413 H   0  0  0  0  0  0
  -29.5942  -13.3899   17.6224 H   0  0  0  0  0  0
  -27.9902  -11.2507   19.0443 H   0  0  0  0  0  0
  -27.3926  -12.3523   17.8331 H   0  0  0  0  0  0
  -27.5305  -14.2152   19.3503 H   0  0  0  0  0  0
  -28.7937  -12.4107   21.4706 H   0  0  0  0  0  0
  -28.3457  -14.0908   21.6873 H   0  0  0  0  0  0
  -25.2770   -9.5705   22.4749 H   0  0  0  0  0  0
  -24.0022   -7.4644   22.7466 H   0  0  0  0  0  0
  -21.0837   -8.8783   19.8956 H   0  0  0  0  0  0
  -22.3692  -10.9686   19.6166 H   0  0  0  0  0  0
  -21.2005   -7.6147   23.9711 H   0  0  0  0  0  0
  -21.1456   -6.0514   25.9069 H   0  0  0  0  0  0
  -22.0614   -2.7611   23.2828 H   0  0  0  0  0  0
  -22.4037  -11.9916   22.4861 H   0  0  0  0  0  0
  -21.1021  -13.1242   22.2607 H   0  0  0  0  0  0
  -24.6593  -15.8543   20.5521 H   0  0  0  0  0  0
  -26.2842  -15.6325   20.1395 H   0  0  0  0  0  0
  -26.7308  -32.5248   23.0964 H   0  0  0  0  0  0
  -25.0081  -33.9573   25.0282 H   0  0  0  0  0  0
  -22.7632  -31.2817   21.3671 H   0  0  0  0  0  0
  -23.3749  -35.9589   23.3287 H   0  0  0  0  0  0
  -24.3572  -36.8909   22.2065 H   0  0  0  0  0  0
  -23.7251  -37.6443   23.6700 H   0  0  0  0  0  0
  -26.1742  -31.4375   20.6090 H   0  0  0  0  0  0
  -26.8862  -30.7498   22.0321 H   0  0  0  0  0  0
  -28.1520  -28.7510   21.2324 H   0  0  0  0  0  0
  -25.9266  -25.7914   19.0357 H   0  0  0  0  0  0
  -23.9846  -27.2713   18.9928 H   0  0  0  0  0  0
  -23.8312  -30.5425   19.3931 H   0  0  0  0  0  0
  -22.8012  -29.2192   19.8420 H   0  0  0  0  0  0
  -25.1313  -36.1825   25.0803 H   0  0  0  0  0  0
  -21.0021  -28.3318   24.1344 H   0  0  0  0  0  0
  -20.5675  -26.2345   23.3631 H   0  0  0  0  0  0
  -21.6654  -26.7418   22.1203 H   0  0  0  0  0  0
  -19.6916  -25.6278   21.1268 H   0  0  0  0  0  0
  -19.6692  -27.3170   20.6728 H   0  0  0  0  0  0
  -17.4212  -26.6689   21.4034 H   0  0  0  0  0  0
  -18.0338  -26.0088   22.9029 H   0  0  0  0  0  0
  -19.7960  -30.7312   24.2219 H   0  0  0  0  0  0
  -17.5028  -31.6271   24.5166 H   0  0  0  0  0  0
  -15.5367  -30.2970   23.7687 H   0  0  0  0  0  0
  -15.8697  -28.0810   22.7088 H   0  0  0  0  0  0
  -24.5858  -30.7154   25.7724 H   0  0  0  0  0  0
  -24.8925  -32.2972   26.4795 H   0  0  0  0  0  0
  -25.7972  -30.8961   27.0211 H   0  0  0  0  0  0
  -26.3042  -29.6668   24.1322 H   0  0  0  0  0  0
  -27.3971  -29.7267   25.4939 H   0  0  0  0  0  0
  -27.8964  -30.4176   23.9698 H   0  0  0  0  0  0
  -27.2600  -33.3665   26.2026 H   0  0  0  0  0  0
  -28.3879  -32.6910   25.0372 H   0  0  0  0  0  0
  -28.0673  -31.8534   26.5484 H   0  0  0  0  0  0
  -28.2578  -38.0090   24.7500 H   0  0  0  0  0  0
  -28.1074  -36.2616   24.6295 H   0  0  0  0  0  0
  -27.2290  -37.1435   25.8869 H   0  0  0  0  0  0
  -20.9514  -29.8756   21.6760 H   0  0  0  0  0  0
  -26.0137  -38.2797   24.1408 H   0  0  0  0  0  0
  -31.4286  -22.1081   21.0815 H   0  0  0  0  0  0
  -31.0769  -23.4675   20.0161 H   0  0  0  0  0  0
  -31.3425  -21.8661   19.3357 H   0  0  0  0  0  0
  -29.6558  -17.0221   18.1750 H   0  0  0  0  0  0
  -28.0686  -16.7817   18.9180 H   0  0  0  0  0  0
  -29.0031  -15.4239   18.3109 H   0  0  0  0  0  0
  -28.7077  -24.8283   21.7693 H   0  0  0  0  0  0
  -27.0888  -24.7040   21.2669 H   0  0  0  0  0  0
  -28.9142  -19.0163   19.0016 H   0  0  0  0  0  0
  -30.5097  -19.4669   19.4011 H   0  0  0  0  0  0
  -28.8871  -17.7917   21.4573 H   0  0  0  0  0  0
  -30.6008  -17.8924   21.3629 H   0  0  0  0  0  0
  1 25  1  0  0  0
  1 30  2  0  0  0
  1 81  1  0  0  0
  2  3  1  0  0  0
  2 25  1  0  0  0
  2 82  1  0  0  0
  2 83  1  0  0  0
  3  4  1  0  0  0
  3 84  1  0  0  0
  3 85  1  0  0  0
  4  5  1  0  0  0
  4 86  1  0  0  0
  4 87  1  0  0  0
  5  6  1  0  0  0
  5 26  1  0  0  0
  5 88  1  0  0  0
  6 25  1  0  0  0
  6 89  1  0  0  0
  6 90  1  0  0  0
  7  8  2  0  0  0
  7 26  1  0  0  0
  7 29  1  0  0  0
  8  9  1  0  0  0
  8 22  1  0  0  0
  9 10  1  0  0  0
  9 27  2  0  0  0
 10 11  2  0  0  0
 10 15  1  0  0  0
 11 12  1  0  0  0
 11 91  1  0  0  0
 12 13  2  0  0  0
 12 92  1  0  0  0
 13 14  1  0  0  0
 13 31  1  0  0  0
 14 15  2  0  0  0
 14 93  1  0  0  0
 15 94  1  0  0  0
 16 17  2  0  0  0
 16 21  1  0  0  0
 16 31  1  0  0  0
 17 18  1  0  0  0
 17 95  1  0  0  0
 18 19  2  0  0  0
 18 96  1  0  0  0
 19 20  1  0  0  0
 19 24  1  0  0  0
 20 21  2  0  0  0
 20 97  1  0  0  0
 21 23  1  0  0  0
 22 28  1  0  0  0
 22 32  2  0  0  0
 26 27  1  0  0  0
 28 98  1  0  0  0
 28 99  1  0  0  0
 29100  1  0  0  0
 29101  1  0  0  0
 33 34  1  0  0  0
 33 66  1  0  0  0
 33 70  2  0  0  0
 34 36  1  0  0  0
 34 59  1  0  0  0
 34102  1  0  0  0
 35 44  2  0  0  0
 35 45  1  0  0  0
 35 68  1  0  0  0
 36 56  1  0  0  0
 36103  1  0  0  0
 37 39  1  0  0  0
 37 47  1  0  0  0
 37 66  1  0  0  0
 37104  1  0  0  0
 38 43  2  0  0  0
 38 46  1  0  0  0
 38 47  1  0  0  0
 39 64  1  0  0  0
 39 67  2  0  0  0
 40 52  1  0  0  0
 40 53  2  0  0  0
 40 58  1  0  0  0
 41105  1  0  0  0
 41106  1  0  0  0
 41107  1  0  0  0
 41 48  1  0  0  0
 42 43  1  0  0  0
 42 66  1  0  0  0
 42108  1  0  0  0
 42109  1  0  0  0
 43 44  1  0  0  0
 44110  1  0  0  0
 45 46  2  0  0  0
 45111  1  0  0  0
 46112  1  0  0  0
 47113  1  0  0  0
 47114  1  0  0  0
 48 56  1  0  0  0
 48 65  1  0  0  0
 48115  1  0  0  0
 49 50  1  0  0  0
 49 53  1  0  0  0
 49 64  1  0  0  0
 49116  1  0  0  0
 50 51  1  0  0  0
 50117  1  0  0  0
 50118  1  0  0  0
 51 52  1  0  0  0
 51119  1  0  0  0
 51120  1  0  0  0
 52121  1  0  0  0
 52122  1  0  0  0
 53 54  1  0  0  0
 54 55  2  0  0  0
 54123  1  0  0  0
 55 57  1  0  0  0
 55124  1  0  0  0
 56 69  2  0  0  0
 57 58  2  0  0  0
 57125  1  0  0  0
 58126  1  0  0  0
 59 60  1  0  0  0
 59 61  1  0  0  0
 59 62  1  0  0  0
 60127  1  0  0  0
 60128  1  0  0  0
 60129  1  0  0  0
 61130  1  0  0  0
 61131  1  0  0  0
 61132  1  0  0  0
 62133  1  0  0  0
 62134  1  0  0  0
 62135  1  0  0  0
 63 65  1  0  0  0
 63136  1  0  0  0
 63137  1  0  0  0
 63138  1  0  0  0
 64139  1  0  0  0
 65140  1  0  0  0
 68 75  1  0  0  0
 71 72  2  0  0  0
 71 75  1  0  0  0
 71 78  1  0  0  0
 72 73  1  0  0  0
 72 80  1  0  0  0
 73141  1  0  0  0
 73142  1  0  0  0
 73143  1  0  0  0
 74 81  1  0  0  0
 74144  1  0  0  0
 74145  1  0  0  0
 74146  1  0  0  0
 75147  1  0  0  0
 75148  1  0  0  0
 76 77  1  0  0  0
 76 80  1  0  0  0
 76149  1  0  0  0
 76150  1  0  0  0
 77 81  1  0  0  0
 77151  1  0  0  0
 77152  1  0  0  0
 78 79  2  0  0  0
 79 80  1  0  0  0
M  ISO  4   1 100  68 101  75 101  81 100
M  END
> <chiral flag>
0

> <version>
0

> <s_m_source_file>
/data/baiqing/PycharmProjects/Reinvent-master-3.2/result/LINK_invent/BTK/process_docking_weight1_custom_sum_contain_oxygen_bond_distance_aromatic_linkinvent_7_9_3/rearranged_h_0059.sdf

> <i_m_source_file_index>
19

> <r_mmod_Potential_Energy-OPLS-2005>
966.043334960938

> <r_mmod_Stretch_Energy-OPLS-2005>
340.461059570312

> <r_mmod_Bend_Energy-OPLS-2005>
352.983520507812

> <r_mmod_Torsional_Energy-OPLS-2005>
355.413909912109

> <r_mmod_Improper_Torsional_Energy-OPLS-2005>
11.9835042953491

> <r_mmod_Van_der_Waal_Energy-OPLS-2005>
107.245567321777

> <r_mmod_Electrostatic_Energy-OPLS-2005>
-270.028564453125

> <r_mmod_Solvation_Energy-OPLS-2005>
-211.271408081055

> <b_mmod_Minimization_Converged-OPLS-2005>
0

> <r_mmod_RMS_Derivative-OPLS-2005>
1.42440164089203

$$$$
19
                    3D
 Structure written by MMmdl.
150158  0  0  1  0            999 V2000
  -30.3414  -15.3677   20.3331 C   0  0  0  0  0  0
  -30.4636  -12.8794   19.5084 C   0  0  0  0  0  0
  -29.5398  -12.6093   18.2863 C   0  0  0  0  0  0
  -28.0904  -12.3029   18.7157 C   0  0  0  0  0  0
  -27.6162  -13.2476   19.8452 C   0  0  2  0  0  0
  -28.6764  -13.3816   20.9584 C   0  0  0  0  0  0
  -25.2411  -13.8137   20.5773 C   0  0  0  0  0  0
  -24.1738  -13.0370   20.9271 C   0  0  0  0  0  0
  -24.6374  -11.6863   20.8797 C   0  0  0  0  0  0
  -23.9060  -10.4252   21.0425 C   0  0  0  0  0  0
  -24.3612   -9.4170   21.9198 C   0  0  0  0  0  0
  -23.6283   -8.2211   22.0758 C   0  0  0  0  0  0
  -22.4266   -8.0261   21.3544 C   0  0  0  0  0  0
  -21.9905   -9.0237   20.4647 C   0  0  0  0  0  0
  -22.7239  -10.2110   20.3062 C   0  0  0  0  0  0
  -21.6845   -6.0726   22.5279 C   0  0  0  0  0  0
  -21.4010   -6.5633   23.8212 C   0  0  0  0  0  0
  -21.3655   -5.6788   24.9174 C   0  0  0  0  0  0
  -21.6041   -4.3050   24.7225 C   0  0  0  0  0  0
  -21.8822   -3.8142   23.4347 C   0  0  0  0  0  0
  -21.9192   -4.6956   22.3402 C   0  0  0  0  0  0
  -22.7761  -13.5161   21.1892 C   0  0  0  0  0  0
  -22.1661   -4.2143   21.0980 F   0  0  0  0  0  0
  -21.5627   -3.4534   25.7739 F   0  0  0  0  0  0
  -29.8765  -13.9994   20.3429 N   0  0  0  0  0  0
  -26.2852  -12.9352   20.3388 N   0  0  0  0  0  0
  -25.9320  -11.6489   20.5821 N   0  0  0  0  0  0
  -22.0404  -12.8169   22.0451 N   0  0  0  0  0  0
  -25.3991  -15.1867   20.4122 N   0  0  0  0  0  0
  -31.5694  -15.3882   20.1385 O   0  0  0  0  0  0
  -21.6626   -6.8864   21.4239 O   0  0  0  0  0  0
  -22.3458  -14.5467   20.6723 O   0  0  0  0  0  0
  -24.6649  -31.8193   23.1666 C   0  0  0  0  0  0
  -25.9317  -32.4564   23.8145 C   0  0  1  0  0  0
  -27.2356  -26.9029   20.1829 C   0  0  0  0  0  0
  -25.5972  -33.8381   24.2047 N   0  0  0  0  0  0
  -23.4822  -30.4273   21.5154 C   0  0  2  0  0  0
  -24.9399  -28.8066   20.1090 C   0  0  0  0  0  0
  -22.7679  -29.4412   22.4765 C   0  0  0  0  0  0
  -18.0324  -28.1410   22.8466 C   0  0  0  0  0  0
  -24.1493  -36.7198   23.2649 C   0  0  0  0  0  0
  -26.0516  -30.6161   21.4020 C   0  0  0  0  0  0
  -26.1209  -29.2028   20.7472 C   0  0  0  0  0  0
  -27.2567  -28.2710   20.7620 C   0  0  0  0  0  0
  -26.0263  -26.6665   19.4883 C   0  0  0  0  0  0
  -24.9194  -27.5598   19.4600 C   0  0  0  0  0  0
  -23.7247  -29.7362   20.1434 C   0  0  0  0  0  0
  -25.4136  -36.2953   24.0295 C   0  0  1  0  0  0
  -20.5950  -28.3756   23.1182 C   0  0  2  0  0  0
  -20.6797  -26.9433   22.5405 C   0  0  0  0  0  0
  -19.5772  -26.6375   21.5215 C   0  0  0  0  0  0
  -18.1954  -26.7943   22.1622 C   0  0  0  0  0  0
  -19.1586  -28.8904   23.2810 C   0  0  0  0  0  0
  -18.9497  -30.1493   23.8846 C   0  0  0  0  0  0
  -17.6490  -30.6599   24.0554 C   0  0  0  0  0  0
  -25.9102  -34.9337   23.4997 C   0  0  0  0  0  0
  -16.5380  -29.9086   23.6344 C   0  0  0  0  0  0
  -16.7306  -28.6507   23.0363 C   0  0  0  0  0  0
  -26.4562  -31.6528   25.0690 C   0  0  0  0  0  0
  -25.3682  -31.3791   26.1343 C   0  0  0  0  0  0
  -27.0471  -30.2891   24.6454 C   0  0  0  0  0  0
  -27.6042  -32.4353   25.7500 C   0  0  0  0  0  0
  -27.5567  -37.1756   24.8467 C   0  0  0  0  0  0
  -21.4345  -29.3037   22.3522 N   0  0  0  0  0  0
  -26.4277  -37.3694   23.9408 N   0  0  0  0  0  0
  -24.7542  -30.9824   22.0815 N   0  0  0  0  0  0
  -23.4211  -28.7994   23.3028 O   0  0  0  0  0  0
  -28.2517  -25.8037   20.3071 O   0  0  0  0  0  0
  -26.5722  -34.8881   22.4599 O   0  0  0  0  0  0
  -23.5712  -32.1179   23.6739 O   0  0  0  0  0  0
  -30.3472  -20.6478   19.6055 C   0  0  0  0  0  0
  -29.6663  -18.6595   20.2957 C   0  0  0  0  0  0
  -28.5857  -16.7928   19.0011 C   0  0  0  0  0  0
  -28.4359  -16.7633   21.5359 C   0  0  0  0  0  0
  -28.7247  -22.6216   20.7066 C   0  0  0  0  0  0
  -28.2430  -24.1829   19.8990 C   0  0  0  0  0  0
  -29.3800  -16.9078   20.3244 C   0  0  0  0  0  0
  -30.6572  -19.3039   19.5733 N   0  0  0  0  0  0
  -28.7814  -19.7185   20.6881 N   0  0  0  0  0  0
  -29.2234  -21.0616   20.2384 N   0  0  0  0  0  0
  -31.4592  -13.1389   19.1470 H   0  0  0  0  0  0
  -30.6054  -11.9725   20.0984 H   0  0  0  0  0  0
  -29.9346  -11.7896   17.6848 H   0  0  0  0  0  0
  -29.5426  -13.4887   17.6407 H   0  0  0  0  0  0
  -28.0583  -11.2715   19.0691 H   0  0  0  0  0  0
  -27.4168  -12.3549   17.8595 H   0  0  0  0  0  0
  -27.5061  -14.2125   19.3732 H   0  0  0  0  0  0
  -28.8985  -12.3987   21.3769 H   0  0  0  0  0  0
  -28.3229  -13.9415   21.8177 H   0  0  0  0  0  0
  -25.2754   -9.5644   22.4778 H   0  0  0  0  0  0
  -23.9984   -7.4598   22.7477 H   0  0  0  0  0  0
  -21.0836   -8.8764   19.8952 H   0  0  0  0  0  0
  -22.3704  -10.9657   19.6175 H   0  0  0  0  0  0
  -21.2003   -7.6143   23.9714 H   0  0  0  0  0  0
  -21.1472   -6.0517   25.9076 H   0  0  0  0  0  0
  -22.0607   -2.7605   23.2850 H   0  0  0  0  0  0
  -22.4023  -11.9841   22.4857 H   0  0  0  0  0  0
  -21.1019  -13.1194   22.2647 H   0  0  0  0  0  0
  -24.6225  -15.8301   20.5191 H   0  0  0  0  0  0
  -26.2410  -15.6345   20.0777 H   0  0  0  0  0  0
  -26.7388  -32.5095   23.0859 H   0  0  0  0  0  0
  -25.0056  -33.9454   25.0155 H   0  0  0  0  0  0
  -22.7970  -31.2593   21.3399 H   0  0  0  0  0  0
  -23.3765  -35.9519   23.3279 H   0  0  0  0  0  0
  -24.3566  -36.8881   22.2069 H   0  0  0  0  0  0
  -23.7242  -37.6372   23.6731 H   0  0  0  0  0  0
  -26.2349  -31.3553   20.6211 H   0  0  0  0  0  0
  -26.9101  -30.6752   22.0591 H   0  0  0  0  0  0
  -28.1463  -28.5710   21.2977 H   0  0  0  0  0  0
  -25.8971  -25.7163   18.9917 H   0  0  0  0  0  0
  -24.0231  -27.2509   18.9397 H   0  0  0  0  0  0
  -23.8800  -30.5024   19.3829 H   0  0  0  0  0  0
  -22.8347  -29.1896   19.8267 H   0  0  0  0  0  0
  -25.1337  -36.1742   25.0786 H   0  0  0  0  0  0
  -21.0038  -28.3368   24.1306 H   0  0  0  0  0  0
  -20.5672  -26.2377   23.3650 H   0  0  0  0  0  0
  -21.6661  -26.7401   22.1216 H   0  0  0  0  0  0
  -19.6931  -25.6271   21.1280 H   0  0  0  0  0  0
  -19.6713  -27.3156   20.6721 H   0  0  0  0  0  0
  -17.4223  -26.6684   21.4026 H   0  0  0  0  0  0
  -18.0349  -26.0097   22.9030 H   0  0  0  0  0  0
  -19.7973  -30.7323   24.2193 H   0  0  0  0  0  0
  -17.5042  -31.6274   24.5166 H   0  0  0  0  0  0
  -15.5378  -30.2972   23.7697 H   0  0  0  0  0  0
  -15.8706  -28.0808   22.7108 H   0  0  0  0  0  0
  -24.5874  -30.7131   25.7652 H   0  0  0  0  0  0
  -24.8862  -32.2998   26.4639 H   0  0  0  0  0  0
  -25.7906  -30.9041   27.0205 H   0  0  0  0  0  0
  -26.3148  -29.6550   24.1442 H   0  0  0  0  0  0
  -27.3970  -29.7275   25.5126 H   0  0  0  0  0  0
  -27.9100  -30.4063   23.9896 H   0  0  0  0  0  0
  -27.2594  -33.3697   26.1941 H   0  0  0  0  0  0
  -28.3923  -32.6847   25.0383 H   0  0  0  0  0  0
  -28.0632  -31.8575   26.5531 H   0  0  0  0  0  0
  -28.2565  -38.0069   24.7509 H   0  0  0  0  0  0
  -28.1082  -36.2594   24.6299 H   0  0  0  0  0  0
  -27.2283  -37.1403   25.8869 H   0  0  0  0  0  0
  -20.9607  -29.8715   21.6634 H   0  0  0  0  0  0
  -26.0120  -38.2750   24.1416 H   0  0  0  0  0  0
  -31.0175  -21.3780   19.1725 H   0  0  0  0  0  0
  -27.5816  -17.2071   19.0921 H   0  0  0  0  0  0
  -28.5110  -15.7894   18.6011 H   0  0  0  0  0  0
  -29.0870  -17.3543   18.2122 H   0  0  0  0  0  0
  -27.7017  -17.5661   21.5831 H   0  0  0  0  0  0
  -28.9918  -16.7780   22.4732 H   0  0  0  0  0  0
  -27.8333  -15.8691   21.4963 H   0  0  0  0  0  0
  -27.9287  -22.4393   21.4279 H   0  0  0  0  0  0
  -29.5541  -22.9424   21.3364 H   0  0  0  0  0  0
  -27.2329  -23.9950   19.5379 H   0  0  0  0  0  0
  -28.8381  -24.1871   18.9858 H   0  0  0  0  0  0
  1 25  1  0  0  0
  1 30  2  0  0  0
  1 77  1  0  0  0
  2  3  1  0  0  0
  2 25  1  0  0  0
  2 81  1  0  0  0
  2 82  1  0  0  0
  3  4  1  0  0  0
  3 83  1  0  0  0
  3 84  1  0  0  0
  4  5  1  0  0  0
  4 85  1  0  0  0
  4 86  1  0  0  0
  5  6  1  0  0  0
  5 26  1  0  0  0
  5 87  1  0  0  0
  6 25  1  0  0  0
  6 88  1  0  0  0
  6 89  1  0  0  0
  7  8  2  0  0  0
  7 26  1  0  0  0
  7 29  1  0  0  0
  8  9  1  0  0  0
  8 22  1  0  0  0
  9 10  1  0  0  0
  9 27  2  0  0  0
 10 11  2  0  0  0
 10 15  1  0  0  0
 11 12  1  0  0  0
 11 90  1  0  0  0
 12 13  2  0  0  0
 12 91  1  0  0  0
 13 14  1  0  0  0
 13 31  1  0  0  0
 14 15  2  0  0  0
 14 92  1  0  0  0
 15 93  1  0  0  0
 16 17  2  0  0  0
 16 21  1  0  0  0
 16 31  1  0  0  0
 17 18  1  0  0  0
 17 94  1  0  0  0
 18 19  2  0  0  0
 18 95  1  0  0  0
 19 20  1  0  0  0
 19 24  1  0  0  0
 20 21  2  0  0  0
 20 96  1  0  0  0
 21 23  1  0  0  0
 22 28  1  0  0  0
 22 32  2  0  0  0
 26 27  1  0  0  0
 28 97  1  0  0  0
 28 98  1  0  0  0
 29 99  1  0  0  0
 29100  1  0  0  0
 33 34  1  0  0  0
 33 66  1  0  0  0
 33 70  2  0  0  0
 34 36  1  0  0  0
 34 59  1  0  0  0
 34101  1  0  0  0
 35 44  2  0  0  0
 35 45  1  0  0  0
 35 68  1  0  0  0
 36 56  1  0  0  0
 36102  1  0  0  0
 37 39  1  0  0  0
 37 47  1  0  0  0
 37 66  1  0  0  0
 37103  1  0  0  0
 38 43  2  0  0  0
 38 46  1  0  0  0
 38 47  1  0  0  0
 39 64  1  0  0  0
 39 67  2  0  0  0
 40 52  1  0  0  0
 40 53  2  0  0  0
 40 58  1  0  0  0
 41104  1  0  0  0
 41105  1  0  0  0
 41106  1  0  0  0
 41 48  1  0  0  0
 42 43  1  0  0  0
 42 66  1  0  0  0
 42107  1  0  0  0
 42108  1  0  0  0
 43 44  1  0  0  0
 44109  1  0  0  0
 45 46  2  0  0  0
 45110  1  0  0  0
 46111  1  0  0  0
 47112  1  0  0  0
 47113  1  0  0  0
 48 56  1  0  0  0
 48 65  1  0  0  0
 48114  1  0  0  0
 49 50  1  0  0  0
 49 53  1  0  0  0
 49 64  1  0  0  0
 49115  1  0  0  0
 50 51  1  0  0  0
 50116  1  0  0  0
 50117  1  0  0  0
 51 52  1  0  0  0
 51118  1  0  0  0
 51119  1  0  0  0
 52120  1  0  0  0
 52121  1  0  0  0
 53 54  1  0  0  0
 54 55  2  0  0  0
 54122  1  0  0  0
 55 57  1  0  0  0
 55123  1  0  0  0
 56 69  2  0  0  0
 57 58  2  0  0  0
 57124  1  0  0  0
 58125  1  0  0  0
 59 60  1  0  0  0
 59 61  1  0  0  0
 59 62  1  0  0  0
 60126  1  0  0  0
 60127  1  0  0  0
 60128  1  0  0  0
 61129  1  0  0  0
 61130  1  0  0  0
 61131  1  0  0  0
 62132  1  0  0  0
 62133  1  0  0  0
 62134  1  0  0  0
 63 65  1  0  0  0
 63135  1  0  0  0
 63136  1  0  0  0
 63137  1  0  0  0
 64138  1  0  0  0
 65139  1  0  0  0
 68 76  1  0  0  0
 71 78  2  0  0  0
 71 80  1  0  0  0
 71140  1  0  0  0
 72 77  1  0  0  0
 72 78  1  0  0  0
 72 79  2  0  0  0
 73141  1  0  0  0
 73142  1  0  0  0
 73143  1  0  0  0
 73 77  1  0  0  0
 74 77  1  0  0  0
 74144  1  0  0  0
 74145  1  0  0  0
 74146  1  0  0  0
 75 76  1  0  0  0
 75 80  1  0  0  0
 75147  1  0  0  0
 75148  1  0  0  0
 76149  1  0  0  0
 76150  1  0  0  0
 79 80  1  0  0  0
M  ISO  4   1 100  68 101  76 101  77 100
M  END
> <chiral flag>
0

> <version>
0

> <s_m_source_file>
/data/baiqing/PycharmProjects/Reinvent-master-3.2/result/LINK_invent/BTK/process_docking_weight1_custom_sum_contain_oxygen_bond_distance_aromatic_linkinvent_7_9_3/rearranged_h_0059.sdf

> <i_m_source_file_index>
20

> <r_mmod_Potential_Energy-OPLS-2005>
1606.47033691406

> <r_mmod_Stretch_Energy-OPLS-2005>
692.633239746094

> <r_mmod_Bend_Energy-OPLS-2005>
532.287780761719

> <r_mmod_Torsional_Energy-OPLS-2005>
217.340301513672

> <r_mmod_Improper_Torsional_Energy-OPLS-2005>
8.7915563583374

> <r_mmod_Van_der_Waal_Energy-OPLS-2005>
117.054618835449

> <r_mmod_Electrostatic_Energy-OPLS-2005>
-264.413665771484

> <r_mmod_Solvation_Energy-OPLS-2005>
-226.287109375

> <b_mmod_Minimization_Converged-OPLS-2005>
0

> <r_mmod_RMS_Derivative-OPLS-2005>
0.318662971258163

$$$$
20
                    3D
 Structure written by MMmdl.
156164  0  0  1  0            999 V2000
  -30.6924  -14.5547   20.4256 C   0  0  0  0  0  0
  -30.4234  -12.3205   19.4320 C   0  0  0  0  0  0
  -29.4867  -12.4057   18.2071 C   0  0  0  0  0  0
  -28.0083  -12.3187   18.6308 C   0  0  0  0  0  0
  -27.6491  -13.2181   19.8447 C   0  0  2  0  0  0
  -28.7027  -13.1046   20.9679 C   0  0  0  0  0  0
  -25.2575  -13.8211   20.5715 C   0  0  0  0  0  0
  -24.1846  -13.0458   20.9222 C   0  0  0  0  0  0
  -24.6411  -11.6933   20.8771 C   0  0  0  0  0  0
  -23.9096  -10.4298   21.0425 C   0  0  0  0  0  0
  -24.3639   -9.4199   21.9204 C   0  0  0  0  0  0
  -23.6303   -8.2242   22.0776 C   0  0  0  0  0  0
  -22.4282   -8.0292   21.3562 C   0  0  0  0  0  0
  -21.9928   -9.0276   20.4674 C   0  0  0  0  0  0
  -22.7282  -10.2136   20.3070 C   0  0  0  0  0  0
  -21.6851   -6.0736   22.5287 C   0  0  0  0  0  0
  -21.4018   -6.5631   23.8224 C   0  0  0  0  0  0
  -21.3653   -5.6783   24.9180 C   0  0  0  0  0  0
  -21.6035   -4.3046   24.7230 C   0  0  0  0  0  0
  -21.8819   -3.8145   23.4353 C   0  0  0  0  0  0
  -21.9199   -4.6968   22.3407 C   0  0  0  0  0  0
  -22.7861  -13.5244   21.1845 C   0  0  0  0  0  0
  -22.1666   -4.2156   21.0985 F   0  0  0  0  0  0
  -21.5606   -3.4528   25.7734 F   0  0  0  0  0  0
  -30.0177  -13.3732   20.3744 N   0  0  0  0  0  0
  -26.2991  -12.9392   20.3307 N   0  0  0  0  0  0
  -25.9330  -11.6551   20.5794 N   0  0  0  0  0  0
  -22.0482  -12.8229   22.0388 N   0  0  0  0  0  0
  -25.4276  -15.1923   20.4113 N   0  0  0  0  0  0
  -31.9109  -14.6215   20.2510 O   0  0  0  0  0  0
  -21.6636   -6.8892   21.4259 O   0  0  0  0  0  0
  -22.3568  -14.5561   20.6696 O   0  0  0  0  0  0
  -24.6162  -31.8667   23.2119 C   0  0  0  0  0  0
  -25.9044  -32.4821   23.8421 C   0  0  1  0  0  0
  -27.2302  -27.4182   20.1088 C   0  0  0  0  0  0
  -25.5887  -33.8623   24.2344 N   0  0  0  0  0  0
  -23.4058  -30.4933   21.5501 C   0  0  2  0  0  0
  -24.8538  -28.9616   20.1103 C   0  0  0  0  0  0
  -22.7424  -29.4655   22.4960 C   0  0  0  0  0  0
  -18.0278  -28.1368   22.8489 C   0  0  0  0  0  0
  -24.1486  -36.7340   23.2645 C   0  0  0  0  0  0
  -25.9380  -30.8276   21.3695 C   0  0  0  0  0  0
  -26.0140  -29.4621   20.7153 C   0  0  0  0  0  0
  -27.2055  -28.6988   20.7111 C   0  0  0  0  0  0
  -26.0597  -26.9518   19.4690 C   0  0  0  0  0  0
  -24.8726  -27.7060   19.4807 C   0  0  0  0  0  0
  -23.6175  -29.8311   20.1617 C   0  0  0  0  0  0
  -25.4109  -36.3128   24.0340 C   0  0  1  0  0  0
  -20.5876  -28.3662   23.1303 C   0  0  2  0  0  0
  -20.6762  -26.9388   22.5422 C   0  0  0  0  0  0
  -19.5740  -26.6375   21.5215 C   0  0  0  0  0  0
  -18.1921  -26.7915   22.1629 C   0  0  0  0  0  0
  -19.1529  -28.8834   23.2894 C   0  0  0  0  0  0
  -18.9451  -30.1439   23.8906 C   0  0  0  0  0  0
  -17.6451  -30.6571   24.0571 C   0  0  0  0  0  0
  -25.9034  -34.9476   23.5144 C   0  0  0  0  0  0
  -16.5344  -29.9076   23.6318 C   0  0  0  0  0  0
  -16.7269  -28.6497   23.0334 C   0  0  0  0  0  0
  -26.4465  -31.6599   25.0750 C   0  0  0  0  0  0
  -25.3737  -31.3681   26.1497 C   0  0  0  0  0  0
  -27.0296  -30.3047   24.6126 C   0  0  0  0  0  0
  -27.6048  -32.4307   25.7498 C   0  0  0  0  0  0
  -27.5580  -37.1840   24.8470 C   0  0  0  0  0  0
  -21.4150  -29.3031   22.3712 N   0  0  0  0  0  0
  -26.4303  -37.3805   23.9393 N   0  0  0  0  0  0
  -24.6717  -31.0765   22.1022 N   0  0  0  0  0  0
  -23.4191  -28.8182   23.2994 O   0  0  0  0  0  0
  -28.3744  -26.6412   20.1369 O   0  0  0  0  0  0
  -26.5606  -34.8914   22.4711 O   0  0  0  0  0  0
  -23.5351  -32.1416   23.7503 O   0  0  0  0  0  0
  -27.4116  -22.6040   19.0672 C   0  0  0  0  0  0
  -28.5357  -22.8281   19.8882 C   0  0  0  0  0  0
  -28.4548  -20.5969   20.4638 C   0  0  0  0  0  0
  -30.0527  -16.0176   18.6388 C   0  0  0  0  0  0
  -29.1352  -24.2418   19.9699 C   0  0  0  0  0  0
  -28.9784  -19.3672   21.2334 C   0  0  0  0  0  0
  -29.4185  -18.1823   20.3195 C   0  0  0  0  0  0
  -29.6660  -16.7767   20.9910 C   0  0  0  0  0  0
  -28.1946  -25.2885   20.6291 C   0  0  0  0  0  0
  -26.8349  -21.3837   19.0005 N   0  0  0  0  0  0
  -29.0764  -21.7897   20.5952 N   0  0  0  0  0  0
  -27.3540  -20.3788   19.7189 N   0  0  0  0  0  0
  -29.9487  -15.6396   20.0620 N   0  0  0  0  0  0
  -31.4627  -12.4234   19.1148 H   0  0  0  0  0  0
  -30.3457  -11.3429   19.9081 H   0  0  0  0  0  0
  -29.7132  -11.5948   17.5133 H   0  0  0  0  0  0
  -29.6541  -13.3172   17.6414 H   0  0  0  0  0  0
  -27.8140  -11.2754   18.8792 H   0  0  0  0  0  0
  -27.3561  -12.5488   17.7876 H   0  0  0  0  0  0
  -27.6583  -14.2447   19.4795 H   0  0  0  0  0  0
  -28.6866  -12.1103   21.4153 H   0  0  0  0  0  0
  -28.4856  -13.8159   21.7673 H   0  0  0  0  0  0
  -25.2779   -9.5640   22.4788 H   0  0  0  0  0  0
  -24.0004   -7.4623   22.7491 H   0  0  0  0  0  0
  -21.0852   -8.8812   19.8997 H   0  0  0  0  0  0
  -22.3774  -10.9670   19.6164 H   0  0  0  0  0  0
  -21.2012   -7.6138   23.9737 H   0  0  0  0  0  0
  -21.1469   -6.0497   25.9081 H   0  0  0  0  0  0
  -22.0603   -2.7609   23.2849 H   0  0  0  0  0  0
  -22.4093  -11.9905   22.4802 H   0  0  0  0  0  0
  -21.1107  -13.1277   22.2576 H   0  0  0  0  0  0
  -24.6614  -15.8474   20.5229 H   0  0  0  0  0  0
  -26.2779  -15.6318   20.0811 H   0  0  0  0  0  0
  -26.7119  -32.5534   23.1189 H   0  0  0  0  0  0
  -25.0014  -33.9797   25.0471 H   0  0  0  0  0  0
  -22.6942  -31.3105   21.4136 H   0  0  0  0  0  0
  -23.3729  -35.9696   23.3337 H   0  0  0  0  0  0
  -24.3597  -36.8928   22.2060 H   0  0  0  0  0  0
  -23.7240  -37.6555   23.6639 H   0  0  0  0  0  0
  -26.0555  -31.5918   20.5998 H   0  0  0  0  0  0
  -26.8246  -30.8807   21.9898 H   0  0  0  0  0  0
  -28.0957  -29.0797   21.1920 H   0  0  0  0  0  0
  -26.0579  -26.0031   18.9517 H   0  0  0  0  0  0
  -23.9870  -27.3220   18.9928 H   0  0  0  0  0  0
  -23.7282  -30.6095   19.4056 H   0  0  0  0  0  0
  -22.7403  -29.2549   19.8636 H   0  0  0  0  0  0
  -25.1283  -36.2021   25.0836 H   0  0  0  0  0  0
  -20.9984  -28.3228   24.1416 H   0  0  0  0  0  0
  -20.5654  -26.2273   23.3618 H   0  0  0  0  0  0
  -21.6631  -26.7404   22.1220 H   0  0  0  0  0  0
  -19.6889  -25.6292   21.1224 H   0  0  0  0  0  0
  -19.6669  -27.3206   20.6762 H   0  0  0  0  0  0
  -17.4191  -26.6660   21.4033 H   0  0  0  0  0  0
  -18.0309  -26.0056   22.9027 H   0  0  0  0  0  0
  -19.7930  -30.7255   24.2267 H   0  0  0  0  0  0
  -17.5005  -31.6251   24.5177 H   0  0  0  0  0  0
  -15.5345  -30.2981   23.7629 H   0  0  0  0  0  0
  -15.8669  -28.0832   22.7010 H   0  0  0  0  0  0
  -24.5914  -30.7023   25.7830 H   0  0  0  0  0  0
  -24.8933  -32.2829   26.4983 H   0  0  0  0  0  0
  -25.8112  -30.8822   27.0230 H   0  0  0  0  0  0
  -26.2845  -29.6806   24.1182 H   0  0  0  0  0  0
  -27.4071  -29.7274   25.4576 H   0  0  0  0  0  0
  -27.8674  -30.4376   23.9276 H   0  0  0  0  0  0
  -27.2674  -33.3584   26.2126 H   0  0  0  0  0  0
  -28.3819  -32.6903   25.0298 H   0  0  0  0  0  0
  -28.0757  -31.8403   26.5366 H   0  0  0  0  0  0
  -28.2628  -38.0108   24.7479 H   0  0  0  0  0  0
  -28.1036  -36.2639   24.6334 H   0  0  0  0  0  0
  -27.2309  -37.1547   25.8878 H   0  0  0  0  0  0
  -20.9299  -29.8801   21.6986 H   0  0  0  0  0  0
  -26.0200  -38.2895   24.1347 H   0  0  0  0  0  0
  -26.9677  -23.3964   18.4813 H   0  0  0  0  0  0
  -30.7247  -16.8601   18.4828 H   0  0  0  0  0  0
  -29.0719  -16.2615   18.2313 H   0  0  0  0  0  0
  -30.4677  -15.2313   18.0111 H   0  0  0  0  0  0
  -29.3591  -24.5590   18.9507 H   0  0  0  0  0  0
  -30.0908  -24.2198   20.4935 H   0  0  0  0  0  0
  -28.1795  -19.0381   21.8977 H   0  0  0  0  0  0
  -29.8099  -19.6616   21.8745 H   0  0  0  0  0  0
  -30.3044  -18.5139   19.7792 H   0  0  0  0  0  0
  -28.6331  -18.0517   19.5758 H   0  0  0  0  0  0
  -28.7816  -16.5018   21.5672 H   0  0  0  0  0  0
  -30.4819  -16.8624   21.7111 H   0  0  0  0  0  0
  -28.3478  -25.2847   21.7091 H   0  0  0  0  0  0
  -27.1678  -24.9513   20.5039 H   0  0  0  0  0  0
  1 25  1  0  0  0
  1 30  2  0  0  0
  1 83  1  0  0  0
  2  3  1  0  0  0
  2 25  1  0  0  0
  2 84  1  0  0  0
  2 85  1  0  0  0
  3  4  1  0  0  0
  3 86  1  0  0  0
  3 87  1  0  0  0
  4  5  1  0  0  0
  4 88  1  0  0  0
  4 89  1  0  0  0
  5  6  1  0  0  0
  5 26  1  0  0  0
  5 90  1  0  0  0
  6 25  1  0  0  0
  6 91  1  0  0  0
  6 92  1  0  0  0
  7  8  2  0  0  0
  7 26  1  0  0  0
  7 29  1  0  0  0
  8  9  1  0  0  0
  8 22  1  0  0  0
  9 10  1  0  0  0
  9 27  2  0  0  0
 10 11  2  0  0  0
 10 15  1  0  0  0
 11 12  1  0  0  0
 11 93  1  0  0  0
 12 13  2  0  0  0
 12 94  1  0  0  0
 13 14  1  0  0  0
 13 31  1  0  0  0
 14 15  2  0  0  0
 14 95  1  0  0  0
 15 96  1  0  0  0
 16 17  2  0  0  0
 16 21  1  0  0  0
 16 31  1  0  0  0
 17 18  1  0  0  0
 17 97  1  0  0  0
 18 19  2  0  0  0
 18 98  1  0  0  0
 19 20  1  0  0  0
 19 24  1  0  0  0
 20 21  2  0  0  0
 20 99  1  0  0  0
 21 23  1  0  0  0
 22 28  1  0  0  0
 22 32  2  0  0  0
 26 27  1  0  0  0
 28100  1  0  0  0
 28101  1  0  0  0
 29102  1  0  0  0
 29103  1  0  0  0
 33 34  1  0  0  0
 33 66  1  0  0  0
 33 70  2  0  0  0
 34 36  1  0  0  0
 34 59  1  0  0  0
 34104  1  0  0  0
 35 44  2  0  0  0
 35 45  1  0  0  0
 35 68  1  0  0  0
 36 56  1  0  0  0
 36105  1  0  0  0
 37 39  1  0  0  0
 37 47  1  0  0  0
 37 66  1  0  0  0
 37106  1  0  0  0
 38 43  2  0  0  0
 38 46  1  0  0  0
 38 47  1  0  0  0
 39 64  1  0  0  0
 39 67  2  0  0  0
 40 52  1  0  0  0
 40 53  2  0  0  0
 40 58  1  0  0  0
 41107  1  0  0  0
 41108  1  0  0  0
 41109  1  0  0  0
 41 48  1  0  0  0
 42 43  1  0  0  0
 42 66  1  0  0  0
 42110  1  0  0  0
 42111  1  0  0  0
 43 44  1  0  0  0
 44112  1  0  0  0
 45 46  2  0  0  0
 45113  1  0  0  0
 46114  1  0  0  0
 47115  1  0  0  0
 47116  1  0  0  0
 48 56  1  0  0  0
 48 65  1  0  0  0
 48117  1  0  0  0
 49 50  1  0  0  0
 49 53  1  0  0  0
 49 64  1  0  0  0
 49118  1  0  0  0
 50 51  1  0  0  0
 50119  1  0  0  0
 50120  1  0  0  0
 51 52  1  0  0  0
 51121  1  0  0  0
 51122  1  0  0  0
 52123  1  0  0  0
 52124  1  0  0  0
 53 54  1  0  0  0
 54 55  2  0  0  0
 54125  1  0  0  0
 55 57  1  0  0  0
 55126  1  0  0  0
 56 69  2  0  0  0
 57 58  2  0  0  0
 57127  1  0  0  0
 58128  1  0  0  0
 59 60  1  0  0  0
 59 61  1  0  0  0
 59 62  1  0  0  0
 60129  1  0  0  0
 60130  1  0  0  0
 60131  1  0  0  0
 61132  1  0  0  0
 61133  1  0  0  0
 61134  1  0  0  0
 62135  1  0  0  0
 62136  1  0  0  0
 62137  1  0  0  0
 63 65  1  0  0  0
 63138  1  0  0  0
 63139  1  0  0  0
 63140  1  0  0  0
 64141  1  0  0  0
 65142  1  0  0  0
 68 79  1  0  0  0
 71 72  2  0  0  0
 71 80  1  0  0  0
 71143  1  0  0  0
 72 75  1  0  0  0
 72 81  1  0  0  0
 73 76  1  0  0  0
 73 81  2  0  0  0
 73 82  1  0  0  0
 74 83  1  0  0  0
 74144  1  0  0  0
 74145  1  0  0  0
 74146  1  0  0  0
 75 79  1  0  0  0
 75147  1  0  0  0
 75148  1  0  0  0
 76 77  1  0  0  0
 76149  1  0  0  0
 76150  1  0  0  0
 77 78  1  0  0  0
 77151  1  0  0  0
 77152  1  0  0  0
 78 83  1  0  0  0
 78153  1  0  0  0
 78154  1  0  0  0
 79155  1  0  0  0
 79156  1  0  0  0
 80 82  2  0  0  0
M  ISO  4   1 100  68 101  79 101  83 100
M  END
> <chiral flag>
0

> <version>
0

> <s_m_source_file>
/data/baiqing/PycharmProjects/Reinvent-master-3.2/result/LINK_invent/BTK/process_docking_weight1_custom_sum_contain_oxygen_bond_distance_aromatic_linkinvent_7_9_3/rearranged_h_0059.sdf

> <i_m_source_file_index>
21

> <r_mmod_Potential_Energy-OPLS-2005>
188.275253295898

> <r_mmod_Stretch_Energy-OPLS-2005>
50.480655670166

> <r_mmod_Bend_Energy-OPLS-2005>
108.548782348633

> <r_mmod_Torsional_Energy-OPLS-2005>
316.313201904297

> <r_mmod_Improper_Torsional_Energy-OPLS-2005>
22.9383506774902

> <r_mmod_Van_der_Waal_Energy-OPLS-2005>
167.215393066406

> <r_mmod_Electrostatic_Energy-OPLS-2005>
-292.434753417969

> <r_mmod_Solvation_Energy-OPLS-2005>
-219.831237792969

> <b_mmod_Minimization_Converged-OPLS-2005>
0

> <r_mmod_RMS_Derivative-OPLS-2005>
2.26100015640259

$$$$
21
                    3D
 Structure written by MMmdl.
165173  0  0  1  0            999 V2000
  -30.7359  -14.4024   20.6531 C   0  0  0  0  0  0
  -30.4172  -12.2947   19.4056 C   0  0  0  0  0  0
  -29.4875  -12.5236   18.1992 C   0  0  0  0  0  0
  -28.0108  -12.3779   18.6129 C   0  0  0  0  0  0
  -27.6634  -13.2009   19.8812 C   0  0  2  0  0  0
  -28.7004  -12.9498   20.9976 C   0  0  0  0  0  0
  -25.2585  -13.8156   20.5676 C   0  0  0  0  0  0
  -24.1831  -13.0438   20.9169 C   0  0  0  0  0  0
  -24.6376  -11.6905   20.8724 C   0  0  0  0  0  0
  -23.9039  -10.4291   21.0397 C   0  0  0  0  0  0
  -24.3600   -9.4215   21.9184 C   0  0  0  0  0  0
  -23.6284   -8.2246   22.0755 C   0  0  0  0  0  0
  -22.4268   -8.0278   21.3543 C   0  0  0  0  0  0
  -21.9898   -9.0243   20.4644 C   0  0  0  0  0  0
  -22.7212  -10.2127   20.3048 C   0  0  0  0  0  0
  -21.6850   -6.0732   22.5281 C   0  0  0  0  0  0
  -21.4015   -6.5637   23.8211 C   0  0  0  0  0  0
  -21.3660   -5.6790   24.9174 C   0  0  0  0  0  0
  -21.6042   -4.3052   24.7224 C   0  0  0  0  0  0
  -21.8820   -3.8143   23.4344 C   0  0  0  0  0  0
  -21.9191   -4.6962   22.3401 C   0  0  0  0  0  0
  -22.7856  -13.5242   21.1847 C   0  0  0  0  0  0
  -22.1658   -4.2146   21.0979 F   0  0  0  0  0  0
  -21.5630   -3.4536   25.7737 F   0  0  0  0  0  0
  -30.0401  -13.2488   20.4593 N   0  0  0  0  0  0
  -26.3024  -12.9315   20.3388 N   0  0  0  0  0  0
  -25.9302  -11.6474   20.5757 N   0  0  0  0  0  0
  -22.0491  -12.8232   22.0396 N   0  0  0  0  0  0
  -25.4314  -15.1875   20.4084 N   0  0  0  0  0  0
  -31.7865  -14.6656   20.0568 O   0  0  0  0  0  0
  -21.6636   -6.8875   21.4241 O   0  0  0  0  0  0
  -22.3540  -14.5549   20.6704 O   0  0  0  0  0  0
  -24.6132  -31.8676   23.2107 C   0  0  0  0  0  0
  -25.9042  -32.4808   23.8378 C   0  0  1  0  0  0
  -27.2403  -27.4468   20.0830 C   0  0  0  0  0  0
  -25.5930  -33.8610   24.2310 N   0  0  0  0  0  0
  -23.3991  -30.4955   21.5482 C   0  0  2  0  0  0
  -24.8432  -28.9585   20.1164 C   0  0  0  0  0  0
  -22.7403  -29.4677   22.4960 C   0  0  0  0  0  0
  -18.0287  -28.1414   22.8476 C   0  0  0  0  0  0
  -24.1507  -36.7308   23.2638 C   0  0  0  0  0  0
  -25.9258  -30.8385   21.3585 C   0  0  0  0  0  0
  -26.0006  -29.4708   20.7119 C   0  0  0  0  0  0
  -27.1957  -28.7200   20.6960 C   0  0  0  0  0  0
  -26.0555  -26.9375   19.4996 C   0  0  0  0  0  0
  -24.8653  -27.6902   19.5118 C   0  0  0  0  0  0
  -23.6082  -29.8296   20.1609 C   0  0  0  0  0  0
  -25.4127  -36.3096   24.0326 C   0  0  1  0  0  0
  -20.5875  -28.3688   23.1329 C   0  0  2  0  0  0
  -20.6795  -26.9423   22.5439 C   0  0  0  0  0  0
  -19.5768  -26.6405   21.5243 C   0  0  0  0  0  0
  -18.1935  -26.7961   22.1623 C   0  0  0  0  0  0
  -19.1530  -28.8862   23.2906 C   0  0  0  0  0  0
  -18.9454  -30.1473   23.8906 C   0  0  0  0  0  0
  -17.6455  -30.6605   24.0579 C   0  0  0  0  0  0
  -25.9055  -34.9473   23.5106 C   0  0  0  0  0  0
  -16.5342  -29.9103   23.6339 C   0  0  0  0  0  0
  -16.7273  -28.6547   23.0313 C   0  0  0  0  0  0
  -26.4493  -31.6578   25.0684 C   0  0  0  0  0  0
  -25.3771  -31.3663   26.1421 C   0  0  0  0  0  0
  -27.0308  -30.3030   24.6022 C   0  0  0  0  0  0
  -27.6071  -32.4279   25.7453 C   0  0  0  0  0  0
  -27.5583  -37.1806   24.8461 C   0  0  0  0  0  0
  -21.4133  -29.3053   22.3715 N   0  0  0  0  0  0
  -26.4297  -37.3792   23.9403 N   0  0  0  0  0  0
  -24.6645  -31.0811   22.0982 N   0  0  0  0  0  0
  -23.4174  -28.8217   23.2999 O   0  0  0  0  0  0
  -28.4580  -26.7945   20.0610 O   0  0  0  0  0  0
  -26.5602  -34.8924   22.4657 O   0  0  0  0  0  0
  -23.5339  -32.1394   23.7541 O   0  0  0  0  0  0
  -28.6317  -24.4424   21.9601 C   0  0  0  0  0  0
  -28.3800  -24.4147   20.6128 C   0  0  0  0  0  0
  -27.8862  -22.4002   21.4709 C   0  0  0  0  0  0
  -28.4185  -22.8137   23.8702 C   0  0  0  0  0  0
  -30.6718  -15.3031   22.8867 C   0  0  0  0  0  0
  -27.5488  -19.5406   23.4368 C   0  0  0  0  0  0
  -28.5842  -25.4599   19.5575 C   0  0  0  0  0  0
  -27.3897  -20.9661   21.5118 C   0  0  0  0  0  0
  -29.2168  -17.6326   21.9807 C   0  0  0  0  0  0
  -29.6423  -16.5556   20.9517 C   0  0  0  0  0  0
  -28.4219  -18.7920   21.3297 C   0  0  0  0  0  0
  -28.3142  -23.2052   22.4642 N   0  0  0  0  0  0
  -27.9273  -23.1442   20.3563 N   0  3  0  0  0  0
  -30.1779  -15.2912   21.5056 N   0  0  0  0  0  0
  -28.2243  -19.9607   22.2044 N   0  0  0  0  0  0
  -31.4612  -12.3948   19.1039 H   0  0  0  0  0  0
  -30.3147  -11.2731   19.7747 H   0  0  0  0  0  0
  -29.7231  -11.8182   17.4017 H   0  0  0  0  0  0
  -29.6569  -13.5198   17.7867 H   0  0  0  0  0  0
  -27.8189  -11.3200   18.7947 H   0  0  0  0  0  0
  -27.3583  -12.6660   17.7881 H   0  0  0  0  0  0
  -27.7181  -14.2535   19.6052 H   0  0  0  0  0  0
  -28.6646  -11.9078   21.3179 H   0  0  0  0  0  0
  -28.4517  -13.5306   21.8862 H   0  0  0  0  0  0
  -25.2746   -9.5696   22.4753 H   0  0  0  0  0  0
  -23.9994   -7.4638   22.7470 H   0  0  0  0  0  0
  -21.0829   -8.8752   19.8941 H   0  0  0  0  0  0
  -22.3672  -10.9663   19.6148 H   0  0  0  0  0  0
  -21.2010   -7.6144   23.9716 H   0  0  0  0  0  0
  -21.1482   -6.0519   25.9076 H   0  0  0  0  0  0
  -22.0601   -2.7607   23.2845 H   0  0  0  0  0  0
  -22.4095  -11.9881   22.4779 H   0  0  0  0  0  0
  -21.1105  -13.1262   22.2605 H   0  0  0  0  0  0
  -24.6663  -15.8445   20.5155 H   0  0  0  0  0  0
  -26.2909  -15.6241   20.1024 H   0  0  0  0  0  0
  -26.7095  -32.5522   23.1123 H   0  0  0  0  0  0
  -25.0129  -33.9787   25.0487 H   0  0  0  0  0  0
  -22.6880  -31.3130   21.4084 H   0  0  0  0  0  0
  -23.3758  -35.9653   23.3321 H   0  0  0  0  0  0
  -24.3595  -36.8915   22.2049 H   0  0  0  0  0  0
  -23.7289  -37.6529   23.6642 H   0  0  0  0  0  0
  -26.0333  -31.6017   20.5870 H   0  0  0  0  0  0
  -26.8173  -30.8955   21.9713 H   0  0  0  0  0  0
  -28.0931  -29.1190   21.1490 H   0  0  0  0  0  0
  -26.0209  -25.9731   19.0180 H   0  0  0  0  0  0
  -23.9736  -27.2903   19.0498 H   0  0  0  0  0  0
  -23.7289  -30.6070   19.4053 H   0  0  0  0  0  0
  -22.7302  -29.2591   19.8534 H   0  0  0  0  0  0
  -25.1318  -36.1934   25.0821 H   0  0  0  0  0  0
  -20.9969  -28.3263   24.1455 H   0  0  0  0  0  0
  -20.5784  -26.2270   23.3611 H   0  0  0  0  0  0
  -21.6648  -26.7533   22.1176 H   0  0  0  0  0  0
  -19.6945  -25.6333   21.1245 H   0  0  0  0  0  0
  -19.6731  -27.3246   20.6798 H   0  0  0  0  0  0
  -17.4226  -26.6734   21.3992 H   0  0  0  0  0  0
  -18.0287  -26.0110   22.9020 H   0  0  0  0  0  0
  -19.7932  -30.7300   24.2255 H   0  0  0  0  0  0
  -17.5014  -31.6280   24.5196 H   0  0  0  0  0  0
  -15.5348  -30.3014   23.7682 H   0  0  0  0  0  0
  -15.8669  -28.0905   22.6968 H   0  0  0  0  0  0
  -24.6002  -30.6931   25.7770 H   0  0  0  0  0  0
  -24.8882  -32.2800   26.4816 H   0  0  0  0  0  0
  -25.8147  -30.8894   27.0196 H   0  0  0  0  0  0
  -26.2804  -29.6771   24.1159 H   0  0  0  0  0  0
  -27.4204  -29.7278   25.4436 H   0  0  0  0  0  0
  -27.8594  -30.4379   23.9056 H   0  0  0  0  0  0
  -27.2717  -33.3594   26.2019 H   0  0  0  0  0  0
  -28.3903  -32.6799   25.0290 H   0  0  0  0  0  0
  -28.0690  -31.8379   26.5380 H   0  0  0  0  0  0
  -28.2589  -38.0110   24.7513 H   0  0  0  0  0  0
  -28.1085  -36.2639   24.6277 H   0  0  0  0  0  0
  -27.2287  -37.1463   25.8860 H   0  0  0  0  0  0
  -20.9273  -29.8743   21.6918 H   0  0  0  0  0  0
  -26.0170  -38.2859   24.1418 H   0  0  0  0  0  0
  -29.0112  -25.2480   22.5736 H   0  0  0  0  0  0
  -28.7700  -23.6600   24.4608 H   0  0  0  0  0  0
  -29.1283  -21.9919   23.9650 H   0  0  0  0  0  0
  -27.4358  -22.5200   24.2364 H   0  0  0  0  0  0
  -29.8485  -15.4029   23.5940 H   0  0  0  0  0  0
  -31.3744  -16.1218   23.0449 H   0  0  0  0  0  0
  -31.1955  -14.3788   23.1406 H   0  0  0  0  0  0
  -27.2410  -20.3850   24.0492 H   0  0  0  0  0  0
  -28.2043  -18.9314   24.0600 H   0  0  0  0  0  0
  -26.6522  -18.9549   23.2260 H   0  0  0  0  0  0
  -27.9642  -25.2626   18.6838 H   0  0  0  0  0  0
  -29.6092  -25.3565   19.2001 H   0  0  0  0  0  0
  -27.2578  -20.6876   20.4644 H   0  0  0  0  0  0
  -26.3807  -21.0081   21.9251 H   0  0  0  0  0  0
  -30.1008  -18.0333   22.4807 H   0  0  0  0  0  0
  -28.5981  -17.1615   22.7450 H   0  0  0  0  0  0
  -30.3736  -16.9947   20.2699 H   0  0  0  0  0  0
  -28.7750  -16.3032   20.3393 H   0  0  0  0  0  0
  -27.4566  -18.4110   20.9875 H   0  0  0  0  0  0
  -28.9551  -19.1209   20.4360 H   0  0  0  0  0  0
  -27.6634  -22.8055   19.4385 H   0  0  0  0  0  0
  1 25  1  0  0  0
  1 30  2  0  0  0
  1 84  1  0  0  0
  2  3  1  0  0  0
  2 25  1  0  0  0
  2 86  1  0  0  0
  2 87  1  0  0  0
  3  4  1  0  0  0
  3 88  1  0  0  0
  3 89  1  0  0  0
  4  5  1  0  0  0
  4 90  1  0  0  0
  4 91  1  0  0  0
  5  6  1  0  0  0
  5 26  1  0  0  0
  5 92  1  0  0  0
  6 25  1  0  0  0
  6 93  1  0  0  0
  6 94  1  0  0  0
  7  8  2  0  0  0
  7 26  1  0  0  0
  7 29  1  0  0  0
  8  9  1  0  0  0
  8 22  1  0  0  0
  9 10  1  0  0  0
  9 27  2  0  0  0
 10 11  2  0  0  0
 10 15  1  0  0  0
 11 12  1  0  0  0
 11 95  1  0  0  0
 12 13  2  0  0  0
 12 96  1  0  0  0
 13 14  1  0  0  0
 13 31  1  0  0  0
 14 15  2  0  0  0
 14 97  1  0  0  0
 15 98  1  0  0  0
 16 17  2  0  0  0
 16 21  1  0  0  0
 16 31  1  0  0  0
 17 18  1  0  0  0
 17 99  1  0  0  0
 18 19  2  0  0  0
 18100  1  0  0  0
 19 20  1  0  0  0
 19 24  1  0  0  0
 20 21  2  0  0  0
 20101  1  0  0  0
 21 23  1  0  0  0
 22 28  1  0  0  0
 22 32  2  0  0  0
 26 27  1  0  0  0
 28102  1  0  0  0
 28103  1  0  0  0
 29104  1  0  0  0
 29105  1  0  0  0
 33 34  1  0  0  0
 33 66  1  0  0  0
 33 70  2  0  0  0
 34 36  1  0  0  0
 34 59  1  0  0  0
 34106  1  0  0  0
 35 44  2  0  0  0
 35 45  1  0  0  0
 35 68  1  0  0  0
 36 56  1  0  0  0
 36107  1  0  0  0
 37 39  1  0  0  0
 37 47  1  0  0  0
 37 66  1  0  0  0
 37108  1  0  0  0
 38 43  2  0  0  0
 38 46  1  0  0  0
 38 47  1  0  0  0
 39 64  1  0  0  0
 39 67  2  0  0  0
 40 52  1  0  0  0
 40 53  2  0  0  0
 40 58  1  0  0  0
 41109  1  0  0  0
 41110  1  0  0  0
 41111  1  0  0  0
 41 48  1  0  0  0
 42 43  1  0  0  0
 42 66  1  0  0  0
 42112  1  0  0  0
 42113  1  0  0  0
 43 44  1  0  0  0
 44114  1  0  0  0
 45 46  2  0  0  0
 45115  1  0  0  0
 46116  1  0  0  0
 47117  1  0  0  0
 47118  1  0  0  0
 48 56  1  0  0  0
 48 65  1  0  0  0
 48119  1  0  0  0
 49 50  1  0  0  0
 49 53  1  0  0  0
 49 64  1  0  0  0
 49120  1  0  0  0
 50 51  1  0  0  0
 50121  1  0  0  0
 50122  1  0  0  0
 51 52  1  0  0  0
 51123  1  0  0  0
 51124  1  0  0  0
 52125  1  0  0  0
 52126  1  0  0  0
 53 54  1  0  0  0
 54 55  2  0  0  0
 54127  1  0  0  0
 55 57  1  0  0  0
 55128  1  0  0  0
 56 69  2  0  0  0
 57 58  2  0  0  0
 57129  1  0  0  0
 58130  1  0  0  0
 59 60  1  0  0  0
 59 61  1  0  0  0
 59 62  1  0  0  0
 60131  1  0  0  0
 60132  1  0  0  0
 60133  1  0  0  0
 61134  1  0  0  0
 61135  1  0  0  0
 61136  1  0  0  0
 62137  1  0  0  0
 62138  1  0  0  0
 62139  1  0  0  0
 63 65  1  0  0  0
 63140  1  0  0  0
 63141  1  0  0  0
 63142  1  0  0  0
 64143  1  0  0  0
 65144  1  0  0  0
 68 77  1  0  0  0
 71 72  2  0  0  0
 71 82  1  0  0  0
 71145  1  0  0  0
 72 77  1  0  0  0
 72 83  1  0  0  0
 73 78  1  0  0  0
 73 82  1  0  0  0
 73 83  2  0  0  0
 74 82  1  0  0  0
 74146  1  0  0  0
 74147  1  0  0  0
 74148  1  0  0  0
 75 84  1  0  0  0
 75149  1  0  0  0
 75150  1  0  0  0
 75151  1  0  0  0
 76 85  1  0  0  0
 76152  1  0  0  0
 76153  1  0  0  0
 76154  1  0  0  0
 77155  1  0  0  0
 77156  1  0  0  0
 78 85  1  0  0  0
 78157  1  0  0  0
 78158  1  0  0  0
 79 80  1  0  0  0
 79 81  1  0  0  0
 79159  1  0  0  0
 79160  1  0  0  0
 80 84  1  0  0  0
 80161  1  0  0  0
 80162  1  0  0  0
 81 85  1  0  0  0
 81163  1  0  0  0
 81164  1  0  0  0
 83165  1  0  0  0
M  CHG  1  83   1
M  ISO  4   1 100  68 101  77 101  84 100
M  END
> <chiral flag>
0

> <version>
0

> <s_m_source_file>
/data/baiqing/PycharmProjects/Reinvent-master-3.2/result/LINK_invent/BTK/process_docking_weight1_custom_sum_contain_oxygen_bond_distance_aromatic_linkinvent_7_9_3/rearranged_h_0059.sdf

> <i_m_source_file_index>
22

> <r_mmod_Potential_Energy-OPLS-2005>
83.2929229736328

> <r_mmod_Stretch_Energy-OPLS-2005>
38.2461624145508

> <r_mmod_Bend_Energy-OPLS-2005>
111.874900817871

> <r_mmod_Torsional_Energy-OPLS-2005>
314.446685791016

> <r_mmod_Improper_Torsional_Energy-OPLS-2005>
3.98968291282654

> <r_mmod_Van_der_Waal_Energy-OPLS-2005>
139.200134277344

> <r_mmod_Electrostatic_Energy-OPLS-2005>
-130.628067016602

> <r_mmod_Solvation_Energy-OPLS-2005>
-402.169036865234

> <b_mmod_Minimization_Converged-OPLS-2005>
0

> <r_mmod_RMS_Derivative-OPLS-2005>
2.02170467376709

$$$$
22
                    3D
 Structure written by MMmdl.
155163  0  0  1  0            999 V2000
  -30.6267  -14.7913   20.4184 C   0  0  0  0  0  0
  -30.4320  -12.4767   19.4746 C   0  0  0  0  0  0
  -29.5114  -12.4752   18.2353 C   0  0  0  0  0  0
  -28.0368  -12.3067   18.6537 C   0  0  0  0  0  0
  -27.6332  -13.2230   19.8402 C   0  0  2  0  0  0
  -28.6859  -13.2231   20.9688 C   0  0  0  0  0  0
  -25.2537  -13.8160   20.5739 C   0  0  0  0  0  0
  -24.1809  -13.0420   20.9211 C   0  0  0  0  0  0
  -24.6386  -11.6894   20.8751 C   0  0  0  0  0  0
  -23.9061  -10.4283   21.0407 C   0  0  0  0  0  0
  -24.3614   -9.4207   21.9185 C   0  0  0  0  0  0
  -23.6291   -8.2240   22.0758 C   0  0  0  0  0  0
  -22.4272   -8.0282   21.3550 C   0  0  0  0  0  0
  -21.9901   -9.0255   20.4650 C   0  0  0  0  0  0
  -22.7229  -10.2130   20.3062 C   0  0  0  0  0  0
  -21.6858   -6.0734   22.5273 C   0  0  0  0  0  0
  -21.4015   -6.5632   23.8206 C   0  0  0  0  0  0
  -21.3662   -5.6786   24.9167 C   0  0  0  0  0  0
  -21.6045   -4.3050   24.7218 C   0  0  0  0  0  0
  -21.8823   -3.8141   23.4342 C   0  0  0  0  0  0
  -21.9199   -4.6961   22.3400 C   0  0  0  0  0  0
  -22.7844  -13.5232   21.1861 C   0  0  0  0  0  0
  -22.1677   -4.2148   21.0979 F   0  0  0  0  0  0
  -21.5629   -3.4542   25.7734 F   0  0  0  0  0  0
  -29.9736  -13.5746   20.3599 N   0  0  0  0  0  0
  -26.2928  -12.9332   20.3302 N   0  0  0  0  0  0
  -25.9314  -11.6489   20.5768 N   0  0  0  0  0  0
  -22.0478  -12.8230   22.0409 N   0  0  0  0  0  0
  -25.4249  -15.1887   20.4192 N   0  0  0  0  0  0
  -31.8464  -14.8060   20.2310 O   0  0  0  0  0  0
  -21.6644   -6.8874   21.4236 O   0  0  0  0  0  0
  -22.3542  -14.5540   20.6709 O   0  0  0  0  0  0
  -24.6326  -31.8528   23.1961 C   0  0  0  0  0  0
  -25.9142  -32.4745   23.8316 C   0  0  1  0  0  0
  -27.2219  -27.2383   20.1368 C   0  0  0  0  0  0
  -25.5934  -33.8548   24.2241 N   0  0  0  0  0  0
  -23.4302  -30.4731   21.5397 C   0  0  2  0  0  0
  -24.8771  -28.9149   20.1093 C   0  0  0  0  0  0
  -22.7503  -29.4583   22.4909 C   0  0  0  0  0  0
  -18.0291  -28.1388   22.8484 C   0  0  0  0  0  0
  -24.1491  -36.7272   23.2635 C   0  0  0  0  0  0
  -25.9767  -30.7596   21.3784 C   0  0  0  0  0  0
  -26.0475  -29.3805   20.7191 C   0  0  0  0  0  0
  -27.2182  -28.5545   20.7198 C   0  0  0  0  0  0
  -26.0227  -26.8392   19.5049 C   0  0  0  0  0  0
  -24.8710  -27.6542   19.4919 C   0  0  0  0  0  0
  -23.6485  -29.8045   20.1566 C   0  0  0  0  0  0
  -25.4120  -36.3064   24.0322 C   0  0  1  0  0  0
  -20.5893  -28.3697   23.1274 C   0  0  2  0  0  0
  -20.6785  -26.9410   22.5411 C   0  0  0  0  0  0
  -19.5760  -26.6376   21.5221 C   0  0  0  0  0  0
  -18.1936  -26.7930   22.1624 C   0  0  0  0  0  0
  -19.1544  -28.8860   23.2872 C   0  0  0  0  0  0
  -18.9464  -30.1465   23.8882 C   0  0  0  0  0  0
  -17.6462  -30.6588   24.0558 C   0  0  0  0  0  0
  -25.9060  -34.9434   23.5083 C   0  0  0  0  0  0
  -16.5354  -29.9080   23.6337 C   0  0  0  0  0  0
  -16.7278  -28.6501   23.0354 C   0  0  0  0  0  0
  -26.4495  -31.6590   25.0728 C   0  0  0  0  0  0
  -25.3700  -31.3764   26.1440 C   0  0  0  0  0  0
  -27.0347  -30.2997   24.6254 C   0  0  0  0  0  0
  -27.6038  -32.4337   25.7508 C   0  0  0  0  0  0
  -27.5579  -37.1791   24.8458 C   0  0  0  0  0  0
  -21.4206  -29.3034   22.3652 N   0  0  0  0  0  0
  -26.4291  -37.3768   23.9404 N   0  0  0  0  0  0
  -24.6990  -31.0478   22.0940 N   0  0  0  0  0  0
  -23.4198  -28.8134   23.3022 O   0  0  0  0  0  0
  -28.3375  -26.3669   20.2371 O   0  0  0  0  0  0
  -26.5632  -34.8907   22.4654 O   0  0  0  0  0  0
  -23.5474  -32.1353   23.7253 O   0  0  0  0  0  0
  -28.0976  -20.2800   21.3879 C   0  0  0  0  0  0
  -29.4177  -18.6853   20.9342 C   0  0  0  0  0  0
  -31.7154  -17.6261   21.2837 C   0  0  0  0  0  0
  -29.1792  -16.2971   19.1602 C   0  0  0  0  0  0
  -28.4950  -23.5865   20.5739 C   0  0  0  0  0  0
  -28.9997  -22.2048   19.8578 C   0  0  0  0  0  0
  -28.4173  -24.9594   19.6874 C   0  0  0  0  0  0
  -30.2107  -17.3146   21.1463 C   0  0  2  0  0  0
  -28.3132  -18.9874   21.6916 N   0  0  0  0  0  0
  -29.8208  -19.7578   20.1888 N   0  0  0  0  0  0
  -28.9705  -20.8237   20.5316 N   0  0  0  0  0  0
  -29.8952  -15.9944   20.4043 N   0  0  0  0  0  0
  -31.4719  -12.5976   19.1665 H   0  0  0  0  0  0
  -30.3840  -11.5178   19.9927 H   0  0  0  0  0  0
  -29.7962  -11.6689   17.5580 H   0  0  0  0  0  0
  -29.6415  -13.3989   17.6715 H   0  0  0  0  0  0
  -27.8980  -11.2626   18.9358 H   0  0  0  0  0  0
  -27.3798  -12.4812   17.8013 H   0  0  0  0  0  0
  -27.5905  -14.2247   19.4264 H   0  0  0  0  0  0
  -28.7416  -12.2481   21.4555 H   0  0  0  0  0  0
  -28.4208  -13.9472   21.7420 H   0  0  0  0  0  0
  -25.2757   -9.5696   22.4761 H   0  0  0  0  0  0
  -24.0013   -7.4628   22.7474 H   0  0  0  0  0  0
  -21.0837   -8.8770   19.8945 H   0  0  0  0  0  0
  -22.3688  -10.9677   19.6182 H   0  0  0  0  0  0
  -21.2005   -7.6137   23.9710 H   0  0  0  0  0  0
  -21.1485   -6.0516   25.9073 H   0  0  0  0  0  0
  -22.0600   -2.7607   23.2840 H   0  0  0  0  0  0
  -22.4094  -11.9891   22.4804 H   0  0  0  0  0  0
  -21.1097  -13.1270   22.2589 H   0  0  0  0  0  0
  -24.6649  -15.8473   20.5479 H   0  0  0  0  0  0
  -26.2926  -15.6318   20.1469 H   0  0  0  0  0  0
  -26.7209  -32.5382   23.1053 H   0  0  0  0  0  0
  -25.0087  -33.9690   25.0393 H   0  0  0  0  0  0
  -22.7280  -31.2967   21.3930 H   0  0  0  0  0  0
  -23.3764  -35.9590   23.3288 H   0  0  0  0  0  0
  -24.3579  -36.8908   22.2049 H   0  0  0  0  0  0
  -23.7233  -37.6461   23.6674 H   0  0  0  0  0  0
  -26.1207  -31.5222   20.6121 H   0  0  0  0  0  0
  -26.8511  -30.8053   22.0158 H   0  0  0  0  0  0
  -28.1140  -28.9055   21.2113 H   0  0  0  0  0  0
  -25.9258  -25.8690   19.0453 H   0  0  0  0  0  0
  -23.9699  -27.2899   19.0177 H   0  0  0  0  0  0
  -23.7722  -30.5797   19.3996 H   0  0  0  0  0  0
  -22.7661  -29.2383   19.8530 H   0  0  0  0  0  0
  -25.1309  -36.1896   25.0815 H   0  0  0  0  0  0
  -20.9993  -28.3278   24.1393 H   0  0  0  0  0  0
  -20.5703  -26.2299   23.3616 H   0  0  0  0  0  0
  -21.6653  -26.7444   22.1196 H   0  0  0  0  0  0
  -19.6921  -25.6282   21.1261 H   0  0  0  0  0  0
  -19.6707  -27.3179   20.6745 H   0  0  0  0  0  0
  -17.4212  -26.6677   21.4022 H   0  0  0  0  0  0
  -18.0328  -26.0077   22.9022 H   0  0  0  0  0  0
  -19.7937  -30.7288   24.2243 H   0  0  0  0  0  0
  -17.5012  -31.6269   24.5153 H   0  0  0  0  0  0
  -15.5355  -30.2973   23.7676 H   0  0  0  0  0  0
  -15.8678  -28.0819   22.7075 H   0  0  0  0  0  0
  -24.5874  -30.7119   25.7762 H   0  0  0  0  0  0
  -24.8898  -32.2946   26.4827 H   0  0  0  0  0  0
  -25.7994  -30.8957   27.0239 H   0  0  0  0  0  0
  -26.2953  -29.6743   24.1239 H   0  0  0  0  0  0
  -27.3957  -29.7269   25.4806 H   0  0  0  0  0  0
  -27.8860  -30.4250   23.9558 H   0  0  0  0  0  0
  -27.2638  -33.3634   26.2076 H   0  0  0  0  0  0
  -28.3858  -32.6900   25.0351 H   0  0  0  0  0  0
  -28.0698  -31.8473   26.5433 H   0  0  0  0  0  0
  -28.2585  -38.0100   24.7528 H   0  0  0  0  0  0
  -28.1092  -36.2632   24.6268 H   0  0  0  0  0  0
  -27.2298  -37.1416   25.8861 H   0  0  0  0  0  0
  -20.9396  -29.8726   21.6827 H   0  0  0  0  0  0
  -26.0163  -38.2835   24.1424 H   0  0  0  0  0  0
  -27.2685  -20.8433   21.7953 H   0  0  0  0  0  0
  -31.8688  -18.4701   21.9567 H   0  0  0  0  0  0
  -32.1560  -17.8927   20.3232 H   0  0  0  0  0  0
  -32.2833  -16.7967   21.7021 H   0  0  0  0  0  0
  -28.1410  -16.5514   19.3713 H   0  0  0  0  0  0
  -29.1878  -15.4781   18.4412 H   0  0  0  0  0  0
  -29.6357  -17.1463   18.6491 H   0  0  0  0  0  0
  -29.1490  -23.7721   21.4262 H   0  0  0  0  0  0
  -27.5077  -23.4110   21.0018 H   0  0  0  0  0  0
  -30.0266  -22.3675   19.5302 H   0  0  0  0  0  0
  -28.4241  -22.0953   18.9392 H   0  0  0  0  0  0
  -27.6922  -24.8091   18.8916 H   0  0  0  0  0  0
  -29.3612  -24.9789   19.1439 H   0  0  0  0  0  0
  -29.9285  -17.0279   22.1599 H   0  0  0  0  0  0
  1 25  1  0  0  0
  1 30  2  0  0  0
  1 82  1  0  0  0
  2  3  1  0  0  0
  2 25  1  0  0  0
  2 83  1  0  0  0
  2 84  1  0  0  0
  3  4  1  0  0  0
  3 85  1  0  0  0
  3 86  1  0  0  0
  4  5  1  0  0  0
  4 87  1  0  0  0
  4 88  1  0  0  0
  5  6  1  0  0  0
  5 26  1  0  0  0
  5 89  1  0  0  0
  6 25  1  0  0  0
  6 90  1  0  0  0
  6 91  1  0  0  0
  7  8  2  0  0  0
  7 26  1  0  0  0
  7 29  1  0  0  0
  8  9  1  0  0  0
  8 22  1  0  0  0
  9 10  1  0  0  0
  9 27  2  0  0  0
 10 11  2  0  0  0
 10 15  1  0  0  0
 11 12  1  0  0  0
 11 92  1  0  0  0
 12 13  2  0  0  0
 12 93  1  0  0  0
 13 14  1  0  0  0
 13 31  1  0  0  0
 14 15  2  0  0  0
 14 94  1  0  0  0
 15 95  1  0  0  0
 16 17  2  0  0  0
 16 21  1  0  0  0
 16 31  1  0  0  0
 17 18  1  0  0  0
 17 96  1  0  0  0
 18 19  2  0  0  0
 18 97  1  0  0  0
 19 20  1  0  0  0
 19 24  1  0  0  0
 20 21  2  0  0  0
 20 98  1  0  0  0
 21 23  1  0  0  0
 22 28  1  0  0  0
 22 32  2  0  0  0
 26 27  1  0  0  0
 28 99  1  0  0  0
 28100  1  0  0  0
 29101  1  0  0  0
 29102  1  0  0  0
 33 34  1  0  0  0
 33 66  1  0  0  0
 33 70  2  0  0  0
 34 36  1  0  0  0
 34 59  1  0  0  0
 34103  1  0  0  0
 35 44  2  0  0  0
 35 45  1  0  0  0
 35 68  1  0  0  0
 36 56  1  0  0  0
 36104  1  0  0  0
 37 39  1  0  0  0
 37 47  1  0  0  0
 37 66  1  0  0  0
 37105  1  0  0  0
 38 43  2  0  0  0
 38 46  1  0  0  0
 38 47  1  0  0  0
 39 64  1  0  0  0
 39 67  2  0  0  0
 40 52  1  0  0  0
 40 53  2  0  0  0
 40 58  1  0  0  0
 41106  1  0  0  0
 41107  1  0  0  0
 41108  1  0  0  0
 41 48  1  0  0  0
 42 43  1  0  0  0
 42 66  1  0  0  0
 42109  1  0  0  0
 42110  1  0  0  0
 43 44  1  0  0  0
 44111  1  0  0  0
 45 46  2  0  0  0
 45112  1  0  0  0
 46113  1  0  0  0
 47114  1  0  0  0
 47115  1  0  0  0
 48 56  1  0  0  0
 48 65  1  0  0  0
 48116  1  0  0  0
 49 50  1  0  0  0
 49 53  1  0  0  0
 49 64  1  0  0  0
 49117  1  0  0  0
 50 51  1  0  0  0
 50118  1  0  0  0
 50119  1  0  0  0
 51 52  1  0  0  0
 51120  1  0  0  0
 51121  1  0  0  0
 52122  1  0  0  0
 52123  1  0  0  0
 53 54  1  0  0  0
 54 55  2  0  0  0
 54124  1  0  0  0
 55 57  1  0  0  0
 55125  1  0  0  0
 56 69  2  0  0  0
 57 58  2  0  0  0
 57126  1  0  0  0
 58127  1  0  0  0
 59 60  1  0  0  0
 59 61  1  0  0  0
 59 62  1  0  0  0
 60128  1  0  0  0
 60129  1  0  0  0
 60130  1  0  0  0
 61131  1  0  0  0
 61132  1  0  0  0
 61133  1  0  0  0
 62134  1  0  0  0
 62135  1  0  0  0
 62136  1  0  0  0
 63 65  1  0  0  0
 63137  1  0  0  0
 63138  1  0  0  0
 63139  1  0  0  0
 64140  1  0  0  0
 65141  1  0  0  0
 68 77  1  0  0  0
 71 79  2  0  0  0
 71 81  1  0  0  0
 71142  1  0  0  0
 72 78  1  0  0  0
 72 79  1  0  0  0
 72 80  2  0  0  0
 73143  1  0  0  0
 73144  1  0  0  0
 73145  1  0  0  0
 73 78  1  0  0  0
 74 82  1  0  0  0
 74146  1  0  0  0
 74147  1  0  0  0
 74148  1  0  0  0
 75 76  1  0  0  0
 75 77  1  0  0  0
 75149  1  0  0  0
 75150  1  0  0  0
 76 81  1  0  0  0
 76151  1  0  0  0
 76152  1  0  0  0
 77153  1  0  0  0
 77154  1  0  0  0
 78 82  1  0  0  0
 78155  1  0  0  0
 80 81  1  0  0  0
M  ISO  4   1 100  68 101  77 101  82 100
M  END
> <chiral flag>
0

> <version>
0

> <s_m_source_file>
/data/baiqing/PycharmProjects/Reinvent-master-3.2/result/LINK_invent/BTK/process_docking_weight1_custom_sum_contain_oxygen_bond_distance_aromatic_linkinvent_7_9_3/rearranged_h_0059.sdf

> <i_m_source_file_index>
23

> <r_mmod_Potential_Energy-OPLS-2005>
320.802276611328

> <r_mmod_Stretch_Energy-OPLS-2005>
148.071395874023

> <r_mmod_Bend_Energy-OPLS-2005>
218.106079101562

> <r_mmod_Torsional_Energy-OPLS-2005>
292.055358886719

> <r_mmod_Improper_Torsional_Energy-OPLS-2005>
10.2111225128174

> <r_mmod_Van_der_Waal_Energy-OPLS-2005>
118.149169921875

> <r_mmod_Electrostatic_Energy-OPLS-2005>
-355.213073730469

> <r_mmod_Solvation_Energy-OPLS-2005>
-217.269195556641

> <b_mmod_Minimization_Converged-OPLS-2005>
0

> <r_mmod_RMS_Derivative-OPLS-2005>
1.47229266166687

$$$$
23
                    3D
 Structure written by MMmdl.
166174  0  0  1  0            999 V2000
  -30.5521  -15.0043   20.4260 C   0  0  0  0  0  0
  -30.4264  -12.6350   19.4963 C   0  0  0  0  0  0
  -29.5132  -12.5285   18.2549 C   0  0  0  0  0  0
  -28.0496  -12.3119   18.6804 C   0  0  0  0  0  0
  -27.6194  -13.2580   19.8317 C   0  0  2  0  0  0
  -28.6629  -13.3328   20.9643 C   0  0  0  0  0  0
  -25.2418  -13.8235   20.5753 C   0  0  0  0  0  0
  -24.1746  -13.0435   20.9245 C   0  0  0  0  0  0
  -24.6380  -11.6925   20.8776 C   0  0  0  0  0  0
  -23.9089  -10.4286   21.0416 C   0  0  0  0  0  0
  -24.3632   -9.4194   21.9188 C   0  0  0  0  0  0
  -23.6294   -8.2241   22.0758 C   0  0  0  0  0  0
  -22.4282   -8.0276   21.3538 C   0  0  0  0  0  0
  -21.9916   -9.0260   20.4650 C   0  0  0  0  0  0
  -22.7259  -10.2136   20.3061 C   0  0  0  0  0  0
  -21.6862   -6.0733   22.5272 C   0  0  0  0  0  0
  -21.4010   -6.5644   23.8196 C   0  0  0  0  0  0
  -21.3651   -5.6797   24.9158 C   0  0  0  0  0  0
  -21.6043   -4.3055   24.7212 C   0  0  0  0  0  0
  -21.8825   -3.8152   23.4332 C   0  0  0  0  0  0
  -21.9195   -4.6965   22.3391 C   0  0  0  0  0  0
  -22.7774  -13.5197   21.1893 C   0  0  0  0  0  0
  -22.1668   -4.2149   21.0965 F   0  0  0  0  0  0
  -21.5629   -3.4539   25.7727 F   0  0  0  0  0  0
  -29.9218  -13.7585   20.3440 N   0  0  0  0  0  0
  -26.2839  -12.9481   20.3273 N   0  0  0  0  0  0
  -25.9311  -11.6603   20.5750 N   0  0  0  0  0  0
  -22.0463  -12.8159   22.0456 N   0  0  0  0  0  0
  -25.4072  -15.1963   20.4187 N   0  0  0  0  0  0
  -31.7673  -14.9858   20.2090 O   0  0  0  0  0  0
  -21.6638   -6.8868   21.4225 O   0  0  0  0  0  0
  -22.3456  -14.5521   20.6770 O   0  0  0  0  0  0
  -24.6509  -31.8338   23.1789 C   0  0  0  0  0  0
  -25.9236  -32.4625   23.8210 C   0  0  1  0  0  0
  -27.2077  -27.0675   20.1541 C   0  0  0  0  0  0
  -25.5970  -33.8444   24.2119 N   0  0  0  0  0  0
  -23.4575  -30.4552   21.5216 C   0  0  2  0  0  0
  -24.9077  -28.8713   20.0985 C   0  0  0  0  0  0
  -22.7617  -29.4518   22.4765 C   0  0  0  0  0  0
  -18.0281  -28.1377   22.8433 C   0  0  0  0  0  0
  -24.1501  -36.7206   23.2663 C   0  0  0  0  0  0
  -26.0193  -30.6853   21.3902 C   0  0  0  0  0  0
  -26.0831  -29.2930   20.7289 C   0  0  0  0  0  0
  -27.2328  -28.4060   20.7410 C   0  0  0  0  0  0
  -26.0127  -26.7720   19.4638 C   0  0  0  0  0  0
  -24.8904  -27.6304   19.4461 C   0  0  0  0  0  0
  -23.6879  -29.7793   20.1422 C   0  0  0  0  0  0
  -25.4120  -36.2980   24.0336 C   0  0  1  0  0  0
  -20.5937  -28.3708   23.1167 C   0  0  2  0  0  0
  -20.6807  -26.9401   22.5372 C   0  0  0  0  0  0
  -19.5791  -26.6330   21.5191 C   0  0  0  0  0  0
  -18.1944  -26.7904   22.1579 C   0  0  0  0  0  0
  -19.1557  -28.8855   23.2791 C   0  0  0  0  0  0
  -18.9511  -30.1447   23.8830 C   0  0  0  0  0  0
  -17.6522  -30.6586   24.0536 C   0  0  0  0  0  0
  -25.9079  -34.9368   23.5020 C   0  0  0  0  0  0
  -16.5394  -29.9087   23.6347 C   0  0  0  0  0  0
  -16.7275  -28.6507   23.0340 C   0  0  0  0  0  0
  -26.4535  -31.6544   25.0695 C   0  0  0  0  0  0
  -25.3699  -31.3760   26.1373 C   0  0  0  0  0  0
  -27.0465  -30.2954   24.6348 C   0  0  0  0  0  0
  -27.6033  -32.4355   25.7469 C   0  0  0  0  0  0
  -27.5546  -37.1762   24.8467 C   0  0  0  0  0  0
  -21.4302  -29.3046   22.3553 N   0  0  0  0  0  0
  -26.4248  -37.3727   23.9428 N   0  0  0  0  0  0
  -24.7285  -31.0174   22.0824 N   0  0  0  0  0  0
  -23.4235  -28.8068   23.2932 O   0  0  0  0  0  0
  -28.2379  -26.0433   20.2635 O   0  0  0  0  0  0
  -26.5660  -34.8894   22.4596 O   0  0  0  0  0  0
  -23.5601  -32.1220   23.6967 O   0  0  0  0  0  0
  -29.9552  -21.1751   19.2552 C   0  0  0  0  0  0
  -29.0965  -21.5836   20.2573 C   0  0  0  0  0  0
  -29.6297  -19.2192   20.4158 C   0  0  0  0  0  0
  -30.1839  -17.7102   22.5418 C   0  0  0  0  0  0
  -31.7789  -17.8699   20.7328 C   0  0  0  0  0  0
  -26.4270  -21.0380   21.3869 C   0  0  0  0  0  0
  -27.9036  -20.2399   23.2174 C   0  0  0  0  0  0
  -26.9342  -18.6576   21.4269 C   0  0  0  0  0  0
  -28.8006  -23.1669   20.7299 C   0  0  0  0  0  0
  -28.0700  -24.4976   19.9339 C   0  0  0  0  0  0
  -30.2503  -17.7431   20.9982 C   0  0  0  0  0  0
  -27.5707  -20.0420   21.7226 C   0  0  0  0  0  0
  -28.7544  -20.2727   20.8259 N   0  0  0  0  0  0
  -30.2240  -19.8155   19.3687 N   0  3  0  0  0  0
  -29.8330  -16.2516   20.5611 N   0  0  0  0  0  0
  -31.4587  -12.7863   19.1807 H   0  0  0  0  0  0
  -30.4214  -11.7000   20.0569 H   0  0  0  0  0  0
  -29.8376  -11.7068   17.6136 H   0  0  0  0  0  0
  -29.5929  -13.4356   17.6538 H   0  0  0  0  0  0
  -27.9560  -11.2751   19.0044 H   0  0  0  0  0  0
  -27.3813  -12.4237   17.8262 H   0  0  0  0  0  0
  -27.5655  -14.2492   19.3839 H   0  0  0  0  0  0
  -28.7725  -12.3754   21.4756 H   0  0  0  0  0  0
  -28.3542  -14.0565   21.7205 H   0  0  0  0  0  0
  -25.2773   -9.5671   22.4748 H   0  0  0  0  0  0
  -24.0006   -7.4633   22.7475 H   0  0  0  0  0  0
  -21.0844   -8.8765   19.8958 H   0  0  0  0  0  0
  -22.3701  -10.9667   19.6166 H   0  0  0  0  0  0
  -21.2003   -7.6152   23.9692 H   0  0  0  0  0  0
  -21.1468   -6.0528   25.9057 H   0  0  0  0  0  0
  -22.0617   -2.7606   23.2832 H   0  0  0  0  0  0
  -22.4130  -11.9793   22.4754 H   0  0  0  0  0  0
  -21.1093  -13.1153   22.2755 H   0  0  0  0  0  0
  -24.6318  -15.8400   20.5199 H   0  0  0  0  0  0
  -26.2380  -15.6339   20.0457 H   0  0  0  0  0  0
  -26.7302  -32.5209   23.0932 H   0  0  0  0  0  0
  -25.0179  -33.9542   25.0315 H   0  0  0  0  0  0
  -22.7651  -31.2840   21.3581 H   0  0  0  0  0  0
  -23.3777  -35.9540   23.3287 H   0  0  0  0  0  0
  -24.3578  -36.8835   22.2083 H   0  0  0  0  0  0
  -23.7253  -37.6391   23.6705 H   0  0  0  0  0  0
  -26.1899  -31.4360   20.6183 H   0  0  0  0  0  0
  -26.8864  -30.7306   22.0373 H   0  0  0  0  0  0
  -28.1209  -28.7152   21.2733 H   0  0  0  0  0  0
  -25.9075  -25.8292   18.9468 H   0  0  0  0  0  0
  -24.0003  -27.3063   18.9257 H   0  0  0  0  0  0
  -23.8242  -30.5479   19.3802 H   0  0  0  0  0  0
  -22.8046  -29.2196   19.8305 H   0  0  0  0  0  0
  -25.1326  -36.1763   25.0843 H   0  0  0  0  0  0
  -21.0002  -28.3284   24.1288 H   0  0  0  0  0  0
  -20.5681  -26.2339   23.3593 H   0  0  0  0  0  0
  -21.6677  -26.7380   22.1198 H   0  0  0  0  0  0
  -19.6991  -25.6228   21.1234 H   0  0  0  0  0  0
  -19.6742  -27.3150   20.6732 H   0  0  0  0  0  0
  -17.4236  -26.6581   21.3962 H   0  0  0  0  0  0
  -18.0335  -26.0048   22.8987 H   0  0  0  0  0  0
  -19.8018  -30.7225   24.2181 H   0  0  0  0  0  0
  -17.5116  -31.6274   24.5120 H   0  0  0  0  0  0
  -15.5412  -30.3000   23.7743 H   0  0  0  0  0  0
  -15.8637  -28.0840   22.7105 H   0  0  0  0  0  0
  -24.5905  -30.7068   25.7699 H   0  0  0  0  0  0
  -24.8867  -32.2961   26.4702 H   0  0  0  0  0  0
  -25.7977  -30.9001   27.0215 H   0  0  0  0  0  0
  -26.3158  -29.6591   24.1354 H   0  0  0  0  0  0
  -27.4087  -29.7325   25.4964 H   0  0  0  0  0  0
  -27.9022  -30.4202   23.9707 H   0  0  0  0  0  0
  -27.2620  -33.3724   26.1887 H   0  0  0  0  0  0
  -28.3906  -32.6794   25.0322 H   0  0  0  0  0  0
  -28.0624  -31.8577   26.5487 H   0  0  0  0  0  0
  -28.2549  -38.0077   24.7517 H   0  0  0  0  0  0
  -28.1041  -36.2595   24.6276 H   0  0  0  0  0  0
  -27.2240  -37.1361   25.8863 H   0  0  0  0  0  0
  -20.9508  -29.8769   21.6740 H   0  0  0  0  0  0
  -26.0065  -38.2773   24.1487 H   0  0  0  0  0  0
  -30.4737  -21.7678   18.5166 H   0  0  0  0  0  0
  -30.6448  -18.5941   22.9869 H   0  0  0  0  0  0
  -30.7134  -16.8461   22.9457 H   0  0  0  0  0  0
  -29.1775  -17.6185   22.9328 H   0  0  0  0  0  0
  -32.1659  -18.8403   21.0479 H   0  0  0  0  0  0
  -32.0233  -17.7434   19.6773 H   0  0  0  0  0  0
  -32.3670  -17.1376   21.2877 H   0  0  0  0  0  0
  -25.4687  -20.7060   21.7895 H   0  0  0  0  0  0
  -26.2926  -21.1598   20.3117 H   0  0  0  0  0  0
  -26.5796  -22.0217   21.8224 H   0  0  0  0  0  0
  -27.0125  -20.1080   23.8337 H   0  0  0  0  0  0
  -28.2803  -21.2444   23.4108 H   0  0  0  0  0  0
  -28.6494  -19.5570   23.6002 H   0  0  0  0  0  0
  -25.9995  -18.5126   21.9717 H   0  0  0  0  0  0
  -27.5518  -17.8051   21.6761 H   0  0  0  0  0  0
  -26.6946  -18.5628   20.3664 H   0  0  0  0  0  0
  -29.8066  -23.5380   20.9288 H   0  0  0  0  0  0
  -28.3807  -23.1312   21.7347 H   0  0  0  0  0  0
  -27.0047  -24.2662   19.9424 H   0  0  0  0  0  0
  -28.3594  -24.4146   18.8855 H   0  0  0  0  0  0
  -30.9071  -19.3400   18.7913 H   0  0  0  0  0  0
  -28.8332  -16.1136   20.5635 H   0  0  0  0  0  0
  1 25  1  0  0  0
  1 30  2  0  0  0
  1 85  1  0  0  0
  2  3  1  0  0  0
  2 25  1  0  0  0
  2 86  1  0  0  0
  2 87  1  0  0  0
  3  4  1  0  0  0
  3 88  1  0  0  0
  3 89  1  0  0  0
  4  5  1  0  0  0
  4 90  1  0  0  0
  4 91  1  0  0  0
  5  6  1  0  0  0
  5 26  1  0  0  0
  5 92  1  0  0  0
  6 25  1  0  0  0
  6 93  1  0  0  0
  6 94  1  0  0  0
  7  8  2  0  0  0
  7 26  1  0  0  0
  7 29  1  0  0  0
  8  9  1  0  0  0
  8 22  1  0  0  0
  9 10  1  0  0  0
  9 27  2  0  0  0
 10 11  2  0  0  0
 10 15  1  0  0  0
 11 12  1  0  0  0
 11 95  1  0  0  0
 12 13  2  0  0  0
 12 96  1  0  0  0
 13 14  1  0  0  0
 13 31  1  0  0  0
 14 15  2  0  0  0
 14 97  1  0  0  0
 15 98  1  0  0  0
 16 17  2  0  0  0
 16 21  1  0  0  0
 16 31  1  0  0  0
 17 18  1  0  0  0
 17 99  1  0  0  0
 18 19  2  0  0  0
 18100  1  0  0  0
 19 20  1  0  0  0
 19 24  1  0  0  0
 20 21  2  0  0  0
 20101  1  0  0  0
 21 23  1  0  0  0
 22 28  1  0  0  0
 22 32  2  0  0  0
 26 27  1  0  0  0
 28102  1  0  0  0
 28103  1  0  0  0
 29104  1  0  0  0
 29105  1  0  0  0
 33 34  1  0  0  0
 33 66  1  0  0  0
 33 70  2  0  0  0
 34 36  1  0  0  0
 34 59  1  0  0  0
 34106  1  0  0  0
 35 44  2  0  0  0
 35 45  1  0  0  0
 35 68  1  0  0  0
 36 56  1  0  0  0
 36107  1  0  0  0
 37 39  1  0  0  0
 37 47  1  0  0  0
 37 66  1  0  0  0
 37108  1  0  0  0
 38 43  2  0  0  0
 38 46  1  0  0  0
 38 47  1  0  0  0
 39 64  1  0  0  0
 39 67  2  0  0  0
 40 52  1  0  0  0
 40 53  2  0  0  0
 40 58  1  0  0  0
 41109  1  0  0  0
 41110  1  0  0  0
 41111  1  0  0  0
 41 48  1  0  0  0
 42 43  1  0  0  0
 42 66  1  0  0  0
 42112  1  0  0  0
 42113  1  0  0  0
 43 44  1  0  0  0
 44114  1  0  0  0
 45 46  2  0  0  0
 45115  1  0  0  0
 46116  1  0  0  0
 47117  1  0  0  0
 47118  1  0  0  0
 48 56  1  0  0  0
 48 65  1  0  0  0
 48119  1  0  0  0
 49 50  1  0  0  0
 49 53  1  0  0  0
 49 64  1  0  0  0
 49120  1  0  0  0
 50 51  1  0  0  0
 50121  1  0  0  0
 50122  1  0  0  0
 51 52  1  0  0  0
 51123  1  0  0  0
 51124  1  0  0  0
 52125  1  0  0  0
 52126  1  0  0  0
 53 54  1  0  0  0
 54 55  2  0  0  0
 54127  1  0  0  0
 55 57  1  0  0  0
 55128  1  0  0  0
 56 69  2  0  0  0
 57 58  2  0  0  0
 57129  1  0  0  0
 58130  1  0  0  0
 59 60  1  0  0  0
 59 61  1  0  0  0
 59 62  1  0  0  0
 60131  1  0  0  0
 60132  1  0  0  0
 60133  1  0  0  0
 61134  1  0  0  0
 61135  1  0  0  0
 61136  1  0  0  0
 62137  1  0  0  0
 62138  1  0  0  0
 62139  1  0  0  0
 63 65  1  0  0  0
 63140  1  0  0  0
 63141  1  0  0  0
 63142  1  0  0  0
 64143  1  0  0  0
 65144  1  0  0  0
 68 80  1  0  0  0
 71 72  2  0  0  0
 71 84  1  0  0  0
 71145  1  0  0  0
 72 79  1  0  0  0
 72 83  1  0  0  0
 73 81  1  0  0  0
 73 83  1  0  0  0
 73 84  2  0  0  0
 74146  1  0  0  0
 74147  1  0  0  0
 74148  1  0  0  0
 74 81  1  0  0  0
 75 81  1  0  0  0
 75149  1  0  0  0
 75150  1  0  0  0
 75151  1  0  0  0
 76152  1  0  0  0
 76153  1  0  0  0
 76154  1  0  0  0
 76 82  1  0  0  0
 77 82  1  0  0  0
 77155  1  0  0  0
 77156  1  0  0  0
 77157  1  0  0  0
 78 82  1  0  0  0
 78158  1  0  0  0
 78159  1  0  0  0
 78160  1  0  0  0
 79 80  1  0  0  0
 79161  1  0  0  0
 79162  1  0  0  0
 80163  1  0  0  0
 80164  1  0  0  0
 81 85  1  0  0  0
 82 83  1  0  0  0
 84165  1  0  0  0
 85166  1  0  0  0
M  CHG  1  84   1
M  ISO  4   1 100  68 101  80 101  85 100
M  END
> <chiral flag>
0

> <version>
0

> <s_m_source_file>
/data/baiqing/PycharmProjects/Reinvent-master-3.2/result/LINK_invent/BTK/process_docking_weight1_custom_sum_contain_oxygen_bond_distance_aromatic_linkinvent_7_9_3/rearranged_h_0059.sdf

> <i_m_source_file_index>
24

> <r_mmod_Potential_Energy-OPLS-2005>
737.554626464844

> <r_mmod_Stretch_Energy-OPLS-2005>
360.6357421875

> <r_mmod_Bend_Energy-OPLS-2005>
354.741149902344

> <r_mmod_Torsional_Energy-OPLS-2005>
311.111419677734

> <r_mmod_Improper_Torsional_Energy-OPLS-2005>
6.59033250808716

> <r_mmod_Van_der_Waal_Energy-OPLS-2005>
128.701950073242

> <r_mmod_Electrostatic_Energy-OPLS-2005>
-256.758911132812

> <r_mmod_Solvation_Energy-OPLS-2005>
-415.553588867188

> <b_mmod_Minimization_Converged-OPLS-2005>
0

> <r_mmod_RMS_Derivative-OPLS-2005>
4.4266881942749

$$$$
24
                    3D
 Structure written by MMmdl.
152160  0  0  1  0            999 V2000
  -30.5945  -14.8544   20.4879 C   0  0  0  0  0  0
  -30.4339  -12.5297   19.5050 C   0  0  0  0  0  0
  -29.5216  -12.5416   18.2562 C   0  0  0  0  0  0
  -28.0450  -12.3505   18.6497 C   0  0  0  0  0  0
  -27.6374  -13.2430   19.8508 C   0  0  2  0  0  0
  -28.6786  -13.1785   20.9883 C   0  0  0  0  0  0
  -25.2452  -13.8206   20.5676 C   0  0  0  0  0  0
  -24.1770  -13.0434   20.9186 C   0  0  0  0  0  0
  -24.6385  -11.6922   20.8736 C   0  0  0  0  0  0
  -23.9069  -10.4297   21.0412 C   0  0  0  0  0  0
  -24.3630   -9.4204   21.9182 C   0  0  0  0  0  0
  -23.6300   -8.2242   22.0757 C   0  0  0  0  0  0
  -22.4281   -8.0277   21.3543 C   0  0  0  0  0  0
  -21.9916   -9.0251   20.4646 C   0  0  0  0  0  0
  -22.7250  -10.2122   20.3051 C   0  0  0  0  0  0
  -21.6853   -6.0728   22.5284 C   0  0  0  0  0  0
  -21.4007   -6.5634   23.8215 C   0  0  0  0  0  0
  -21.3669   -5.6794   24.9179 C   0  0  0  0  0  0
  -21.6044   -4.3056   24.7234 C   0  0  0  0  0  0
  -21.8822   -3.8135   23.4358 C   0  0  0  0  0  0
  -21.9190   -4.6951   22.3406 C   0  0  0  0  0  0
  -22.7791  -13.5205   21.1866 C   0  0  0  0  0  0
  -22.1660   -4.2133   21.0982 F   0  0  0  0  0  0
  -21.5632   -3.4546   25.7750 F   0  0  0  0  0  0
  -29.9710  -13.6062   20.4318 N   0  0  0  0  0  0
  -26.2900  -12.9442   20.3246 N   0  0  0  0  0  0
  -25.9315  -11.6567   20.5704 N   0  0  0  0  0  0
  -22.0449  -12.8182   22.0407 N   0  0  0  0  0  0
  -25.4068  -15.1941   20.4078 N   0  0  0  0  0  0
  -31.7593  -14.8903   20.0769 O   0  0  0  0  0  0
  -21.6643   -6.8875   21.4246 O   0  0  0  0  0  0
  -22.3448  -14.5512   20.6730 O   0  0  0  0  0  0
  -24.6371  -31.8473   23.1877 C   0  0  0  0  0  0
  -25.9168  -32.4717   23.8255 C   0  0  1  0  0  0
  -27.2351  -27.1980   20.1381 C   0  0  0  0  0  0
  -25.5935  -33.8512   24.2181 N   0  0  0  0  0  0
  -23.4378  -30.4648   21.5325 C   0  0  2  0  0  0
  -24.8886  -28.8946   20.1101 C   0  0  0  0  0  0
  -22.7526  -29.4567   22.4878 C   0  0  0  0  0  0
  -18.0301  -28.1400   22.8485 C   0  0  0  0  0  0
  -24.1495  -36.7269   23.2639 C   0  0  0  0  0  0
  -25.9859  -30.7436   21.3728 C   0  0  0  0  0  0
  -26.0600  -29.3559   20.7212 C   0  0  0  0  0  0
  -27.2301  -28.5214   20.7197 C   0  0  0  0  0  0
  -26.0351  -26.8156   19.4974 C   0  0  0  0  0  0
  -24.8854  -27.6364   19.4861 C   0  0  0  0  0  0
  -23.6603  -29.7870   20.1533 C   0  0  0  0  0  0
  -25.4122  -36.3034   24.0306 C   0  0  1  0  0  0
  -20.5910  -28.3721   23.1258 C   0  0  2  0  0  0
  -20.6788  -26.9433   22.5407 C   0  0  0  0  0  0
  -19.5766  -26.6393   21.5211 C   0  0  0  0  0  0
  -18.1945  -26.7940   22.1626 C   0  0  0  0  0  0
  -19.1556  -28.8875   23.2868 C   0  0  0  0  0  0
  -18.9474  -30.1471   23.8889 C   0  0  0  0  0  0
  -17.6472  -30.6591   24.0566 C   0  0  0  0  0  0
  -25.9072  -34.9416   23.5056 C   0  0  0  0  0  0
  -16.5362  -29.9093   23.6336 C   0  0  0  0  0  0
  -16.7284  -28.6517   23.0349 C   0  0  0  0  0  0
  -26.4523  -31.6562   25.0664 C   0  0  0  0  0  0
  -25.3724  -31.3730   26.1370 C   0  0  0  0  0  0
  -27.0377  -30.2971   24.6181 C   0  0  0  0  0  0
  -27.6060  -32.4321   25.7453 C   0  0  0  0  0  0
  -27.5573  -37.1783   24.8457 C   0  0  0  0  0  0
  -21.4228  -29.3050   22.3628 N   0  0  0  0  0  0
  -26.4281  -37.3748   23.9411 N   0  0  0  0  0  0
  -24.7064  -31.0381   22.0875 N   0  0  0  0  0  0
  -23.4196  -28.8125   23.3012 O   0  0  0  0  0  0
  -28.3486  -26.3058   20.2291 O   0  0  0  0  0  0
  -26.5656  -34.8908   22.4633 O   0  0  0  0  0  0
  -23.5508  -32.1317   23.7144 O   0  0  0  0  0  0
  -28.2943  -19.7316   20.2545 C   0  0  0  0  0  0
  -30.5544  -20.2413   20.3723 C   0  0  0  0  0  0
  -29.6077  -19.1816   20.2771 C   0  0  0  0  0  0
  -28.9665  -22.0113   20.4375 C   0  0  0  0  0  0
  -28.6906  -16.3054   21.7754 C   0  0  0  0  0  0
  -30.0067  -17.6276   19.9478 C   0  0  0  0  0  0
  -28.6135  -23.5604   20.8140 C   0  0  0  0  0  0
  -28.4036  -24.8334   19.7866 C   0  0  0  0  0  0
  -29.9915  -16.3245   20.9628 C   0  0  2  0  0  0
  -27.9954  -21.0810   20.3396 N   0  0  0  0  0  0
  -30.2440  -21.5846   20.4583 N   0  0  0  0  0  0
  -31.4763  -12.6477   19.2030 H   0  0  0  0  0  0
  -30.3918  -11.5571   19.9974 H   0  0  0  0  0  0
  -29.8237  -11.7615   17.5565 H   0  0  0  0  0  0
  -29.6408  -13.4906   17.7306 H   0  0  0  0  0  0
  -27.9024  -11.2995   18.9041 H   0  0  0  0  0  0
  -27.4000  -12.5520   17.7929 H   0  0  0  0  0  0
  -27.6271  -14.2646   19.4691 H   0  0  0  0  0  0
  -28.3692  -13.7763   21.8368 H   0  0  0  0  0  0
  -28.7459  -12.1636   21.3829 H   0  0  0  0  0  0
  -25.2778   -9.5680   22.4751 H   0  0  0  0  0  0
  -24.0011   -7.4635   22.7471 H   0  0  0  0  0  0
  -21.0850   -8.8765   19.8951 H   0  0  0  0  0  0
  -22.3718  -10.9658   19.6157 H   0  0  0  0  0  0
  -21.1987   -7.6138   23.9722 H   0  0  0  0  0  0
  -21.1498   -6.0510   25.9085 H   0  0  0  0  0  0
  -22.0590   -2.7595   23.2857 H   0  0  0  0  0  0
  -22.4092  -11.9858   22.4808 H   0  0  0  0  0  0
  -21.1071  -13.1214   22.2638 H   0  0  0  0  0  0
  -24.6462  -15.8512   20.5398 H   0  0  0  0  0  0
  -26.2614  -15.6368   20.0985 H   0  0  0  0  0  0
  -26.7227  -32.5358   23.0983 H   0  0  0  0  0  0
  -25.0044  -33.9639   25.0306 H   0  0  0  0  0  0
  -22.7370  -31.2873   21.3759 H   0  0  0  0  0  0
  -23.3748  -35.9612   23.3286 H   0  0  0  0  0  0
  -24.3573  -36.8918   22.2054 H   0  0  0  0  0  0
  -23.7260  -37.6464   23.6690 H   0  0  0  0  0  0
  -26.1233  -31.4975   20.5965 H   0  0  0  0  0  0
  -26.8636  -30.8026   22.0045 H   0  0  0  0  0  0
  -28.1285  -28.8723   21.2087 H   0  0  0  0  0  0
  -25.9446  -25.8543   19.0183 H   0  0  0  0  0  0
  -23.9877  -27.2783   19.0007 H   0  0  0  0  0  0
  -23.7869  -30.5557   19.3899 H   0  0  0  0  0  0
  -22.7795  -29.2189   19.8507 H   0  0  0  0  0  0
  -25.1315  -36.1847   25.0794 H   0  0  0  0  0  0
  -21.0002  -28.3304   24.1381 H   0  0  0  0  0  0
  -20.5687  -26.2327   23.3614 H   0  0  0  0  0  0
  -21.6655  -26.7442   22.1206 H   0  0  0  0  0  0
  -19.6924  -25.6299   21.1258 H   0  0  0  0  0  0
  -19.6706  -27.3194   20.6733 H   0  0  0  0  0  0
  -17.4210  -26.6680   21.4028 H   0  0  0  0  0  0
  -18.0348  -26.0082   22.9028 H   0  0  0  0  0  0
  -19.7944  -30.7298   24.2247 H   0  0  0  0  0  0
  -17.5021  -31.6264   24.5183 H   0  0  0  0  0  0
  -15.5365  -30.2992   23.7663 H   0  0  0  0  0  0
  -15.8686  -28.0834   22.7064 H   0  0  0  0  0  0
  -24.5920  -30.7059   25.7688 H   0  0  0  0  0  0
  -24.8895  -32.2903   26.4742 H   0  0  0  0  0  0
  -25.8025  -30.8938   27.0171 H   0  0  0  0  0  0
  -26.2954  -29.6694   24.1230 H   0  0  0  0  0  0
  -27.4069  -29.7263   25.4711 H   0  0  0  0  0  0
  -27.8830  -30.4229   23.9411 H   0  0  0  0  0  0
  -27.2659  -33.3642   26.1976 H   0  0  0  0  0  0
  -28.3904  -32.6845   25.0305 H   0  0  0  0  0  0
  -28.0688  -31.8471   26.5411 H   0  0  0  0  0  0
  -28.2577  -38.0096   24.7520 H   0  0  0  0  0  0
  -28.1087  -36.2621   24.6271 H   0  0  0  0  0  0
  -27.2291  -37.1410   25.8862 H   0  0  0  0  0  0
  -20.9416  -29.8746   21.6814 H   0  0  0  0  0  0
  -26.0141  -38.2809   24.1440 H   0  0  0  0  0  0
  -27.4460  -19.0769   20.1250 H   0  0  0  0  0  0
  -31.6101  -20.0140   20.3404 H   0  0  0  0  0  0
  -27.8571  -15.9203   21.1959 H   0  0  0  0  0  0
  -28.4170  -17.3099   22.0950 H   0  0  0  0  0  0
  -28.8007  -15.7162   22.6850 H   0  0  0  0  0  0
  -31.0115  -17.6660   19.5245 H   0  0  0  0  0  0
  -29.3803  -17.3523   19.0991 H   0  0  0  0  0  0
  -29.3911  -23.8607   21.5153 H   0  0  0  0  0  0
  -27.7128  -23.5093   21.4242 H   0  0  0  0  0  0
  -27.5888  -24.5921   19.1096 H   0  0  0  0  0  0
  -29.2804  -24.8115   19.1389 H   0  0  0  0  0  0
  -30.7338  -16.6038   21.7122 H   0  0  0  0  0  0
  1 25  1  0  0  0
  1 30  2  0  0  0
  1 79  1  0  0  0
  2  3  1  0  0  0
  2 25  1  0  0  0
  2 82  1  0  0  0
  2 83  1  0  0  0
  3  4  1  0  0  0
  3 84  1  0  0  0
  3 85  1  0  0  0
  4  5  1  0  0  0
  4 86  1  0  0  0
  4 87  1  0  0  0
  5  6  1  0  0  0
  5 26  1  0  0  0
  5 88  1  0  0  0
  6 25  1  0  0  0
  6 89  1  0  0  0
  6 90  1  0  0  0
  7  8  2  0  0  0
  7 26  1  0  0  0
  7 29  1  0  0  0
  8  9  1  0  0  0
  8 22  1  0  0  0
  9 10  1  0  0  0
  9 27  2  0  0  0
 10 11  2  0  0  0
 10 15  1  0  0  0
 11 12  1  0  0  0
 11 91  1  0  0  0
 12 13  2  0  0  0
 12 92  1  0  0  0
 13 14  1  0  0  0
 13 31  1  0  0  0
 14 15  2  0  0  0
 14 93  1  0  0  0
 15 94  1  0  0  0
 16 17  2  0  0  0
 16 21  1  0  0  0
 16 31  1  0  0  0
 17 18  1  0  0  0
 17 95  1  0  0  0
 18 19  2  0  0  0
 18 96  1  0  0  0
 19 20  1  0  0  0
 19 24  1  0  0  0
 20 21  2  0  0  0
 20 97  1  0  0  0
 21 23  1  0  0  0
 22 28  1  0  0  0
 22 32  2  0  0  0
 26 27  1  0  0  0
 28 98  1  0  0  0
 28 99  1  0  0  0
 29100  1  0  0  0
 29101  1  0  0  0
 33 34  1  0  0  0
 33 66  1  0  0  0
 33 70  2  0  0  0
 34 36  1  0  0  0
 34 59  1  0  0  0
 34102  1  0  0  0
 35 44  2  0  0  0
 35 45  1  0  0  0
 35 68  1  0  0  0
 36 56  1  0  0  0
 36103  1  0  0  0
 37 39  1  0  0  0
 37 47  1  0  0  0
 37 66  1  0  0  0
 37104  1  0  0  0
 38 43  2  0  0  0
 38 46  1  0  0  0
 38 47  1  0  0  0
 39 64  1  0  0  0
 39 67  2  0  0  0
 40 52  1  0  0  0
 40 53  2  0  0  0
 40 58  1  0  0  0
 41105  1  0  0  0
 41106  1  0  0  0
 41107  1  0  0  0
 41 48  1  0  0  0
 42 43  1  0  0  0
 42 66  1  0  0  0
 42108  1  0  0  0
 42109  1  0  0  0
 43 44  1  0  0  0
 44110  1  0  0  0
 45 46  2  0  0  0
 45111  1  0  0  0
 46112  1  0  0  0
 47113  1  0  0  0
 47114  1  0  0  0
 48 56  1  0  0  0
 48 65  1  0  0  0
 48115  1  0  0  0
 49 50  1  0  0  0
 49 53  1  0  0  0
 49 64  1  0  0  0
 49116  1  0  0  0
 50 51  1  0  0  0
 50117  1  0  0  0
 50118  1  0  0  0
 51 52  1  0  0  0
 51119  1  0  0  0
 51120  1  0  0  0
 52121  1  0  0  0
 52122  1  0  0  0
 53 54  1  0  0  0
 54 55  2  0  0  0
 54123  1  0  0  0
 55 57  1  0  0  0
 55124  1  0  0  0
 56 69  2  0  0  0
 57 58  2  0  0  0
 57125  1  0  0  0
 58126  1  0  0  0
 59 60  1  0  0  0
 59 61  1  0  0  0
 59 62  1  0  0  0
 60127  1  0  0  0
 60128  1  0  0  0
 60129  1  0  0  0
 61130  1  0  0  0
 61131  1  0  0  0
 61132  1  0  0  0
 62133  1  0  0  0
 62134  1  0  0  0
 62135  1  0  0  0
 63 65  1  0  0  0
 63136  1  0  0  0
 63137  1  0  0  0
 63138  1  0  0  0
 64139  1  0  0  0
 65140  1  0  0  0
 68 78  1  0  0  0
 71 73  2  0  0  0
 71 80  1  0  0  0
 71141  1  0  0  0
 72 73  1  0  0  0
 72 81  2  0  0  0
 72142  1  0  0  0
 73 76  1  0  0  0
 74 77  1  0  0  0
 74 80  2  0  0  0
 74 81  1  0  0  0
 75143  1  0  0  0
 75144  1  0  0  0
 75145  1  0  0  0
 75 79  1  0  0  0
 76 79  1  0  0  0
 76146  1  0  0  0
 76147  1  0  0  0
 77 78  1  0  0  0
 77148  1  0  0  0
 77149  1  0  0  0
 78150  1  0  0  0
 78151  1  0  0  0
 79152  1  0  0  0
M  ISO  4   1 100  68 101  78 101  79 100
M  END
> <chiral flag>
0

> <version>
0

> <s_m_source_file>
/data/baiqing/PycharmProjects/Reinvent-master-3.2/result/LINK_invent/BTK/process_docking_weight1_custom_sum_contain_oxygen_bond_distance_aromatic_linkinvent_7_9_3/rearranged_h_0059.sdf

> <i_m_source_file_index>
25

> <r_mmod_Potential_Energy-OPLS-2005>
15.4629440307617

> <r_mmod_Stretch_Energy-OPLS-2005>
189.436080932617

> <r_mmod_Bend_Energy-OPLS-2005>
267.001342773438

> <r_mmod_Torsional_Energy-OPLS-2005>
174.759262084961

> <r_mmod_Improper_Torsional_Energy-OPLS-2005>
4.95181274414062

> <r_mmod_Van_der_Waal_Energy-OPLS-2005>
140.998870849609

> <r_mmod_Electrostatic_Energy-OPLS-2005>
-667.284790039062

> <r_mmod_Solvation_Energy-OPLS-2005>
-218.091339111328

> <b_mmod_Minimization_Converged-OPLS-2005>
0

> <r_mmod_RMS_Derivative-OPLS-2005>
2.29228854179382

$$$$
25
                    3D
 Structure written by MMmdl.
159167  0  0  1  0            999 V2000
  -30.7569  -14.4710   20.6051 C   0  0  0  0  0  0
  -30.3837  -12.3233   19.4345 C   0  0  0  0  0  0
  -29.4786  -12.5192   18.2024 C   0  0  0  0  0  0
  -28.0024  -12.3618   18.6135 C   0  0  0  0  0  0
  -27.6408  -13.2151   19.8587 C   0  0  2  0  0  0
  -28.6742  -13.0075   20.9852 C   0  0  0  0  0  0
  -25.2458  -13.8164   20.5698 C   0  0  0  0  0  0
  -24.1732  -13.0398   20.9142 C   0  0  0  0  0  0
  -24.6300  -11.6889   20.8672 C   0  0  0  0  0  0
  -23.8990  -10.4274   21.0384 C   0  0  0  0  0  0
  -24.3572   -9.4210   21.9165 C   0  0  0  0  0  0
  -23.6260   -8.2236   22.0762 C   0  0  0  0  0  0
  -22.4270   -8.0246   21.3546 C   0  0  0  0  0  0
  -21.9859   -9.0187   20.4647 C   0  0  0  0  0  0
  -22.7144  -10.2079   20.3051 C   0  0  0  0  0  0
  -21.6840   -6.0696   22.5266 C   0  0  0  0  0  0
  -21.3998   -6.5604   23.8187 C   0  0  0  0  0  0
  -21.3677   -5.6773   24.9151 C   0  0  0  0  0  0
  -21.6053   -4.3034   24.7210 C   0  0  0  0  0  0
  -21.8806   -3.8115   23.4332 C   0  0  0  0  0  0
  -21.9175   -4.6925   22.3389 C   0  0  0  0  0  0
  -22.7764  -13.5191   21.1834 C   0  0  0  0  0  0
  -22.1667   -4.2130   21.0967 F   0  0  0  0  0  0
  -21.5673   -3.4502   25.7724 F   0  0  0  0  0  0
  -29.9976  -13.3423   20.4384 N   0  0  0  0  0  0
  -26.2877  -12.9346   20.3258 N   0  0  0  0  0  0
  -25.9209  -11.6491   20.5634 N   0  0  0  0  0  0
  -22.0453  -12.8186   22.0443 N   0  0  0  0  0  0
  -25.4069  -15.1891   20.4269 N   0  0  0  0  0  0
  -31.9089  -14.4919   20.1571 O   0  0  0  0  0  0
  -21.6646   -6.8831   21.4244 O   0  0  0  0  0  0
  -22.3434  -14.5490   20.6687 O   0  0  0  0  0  0
  -24.6178  -31.8712   23.2097 C   0  0  0  0  0  0
  -25.9071  -32.4840   23.8399 C   0  0  1  0  0  0
  -27.2310  -27.4359   20.0943 C   0  0  0  0  0  0
  -25.5926  -33.8635   24.2334 N   0  0  0  0  0  0
  -23.4046  -30.4986   21.5498 C   0  0  2  0  0  0
  -24.8494  -28.9749   20.1083 C   0  0  0  0  0  0
  -22.7427  -29.4705   22.4956 C   0  0  0  0  0  0
  -18.0291  -28.1384   22.8492 C   0  0  0  0  0  0
  -24.1503  -36.7319   23.2636 C   0  0  0  0  0  0
  -25.9359  -30.8384   21.3661 C   0  0  0  0  0  0
  -26.0114  -29.4774   20.7052 C   0  0  0  0  0  0
  -27.2056  -28.7175   20.6921 C   0  0  0  0  0  0
  -26.0440  -26.9570   19.4827 C   0  0  0  0  0  0
  -24.8622  -27.7145   19.4910 C   0  0  0  0  0  0
  -23.6107  -29.8392   20.1622 C   0  0  0  0  0  0
  -25.4126  -36.3135   24.0344 C   0  0  1  0  0  0
  -20.5890  -28.3689   23.1285 C   0  0  2  0  0  0
  -20.6789  -26.9418   22.5397 C   0  0  0  0  0  0
  -19.5753  -26.6388   21.5212 C   0  0  0  0  0  0
  -18.1933  -26.7931   22.1620 C   0  0  0  0  0  0
  -19.1537  -28.8847   23.2900 C   0  0  0  0  0  0
  -18.9453  -30.1454   23.8912 C   0  0  0  0  0  0
  -17.6455  -30.6579   24.0570 C   0  0  0  0  0  0
  -25.9055  -34.9499   23.5140 C   0  0  0  0  0  0
  -16.5353  -29.9071   23.6331 C   0  0  0  0  0  0
  -16.7280  -28.6501   23.0349 C   0  0  0  0  0  0
  -26.4487  -31.6609   25.0725 C   0  0  0  0  0  0
  -25.3723  -31.3743   26.1449 C   0  0  0  0  0  0
  -27.0314  -30.3049   24.6106 C   0  0  0  0  0  0
  -27.6069  -32.4332   25.7468 C   0  0  0  0  0  0
  -27.5609  -37.1816   24.8459 C   0  0  0  0  0  0
  -21.4156  -29.3065   22.3687 N   0  0  0  0  0  0
  -26.4319  -37.3808   23.9411 N   0  0  0  0  0  0
  -24.6702  -31.0821   22.0996 N   0  0  0  0  0  0
  -23.4187  -28.8243   23.3002 O   0  0  0  0  0  0
  -28.3936  -26.6829   20.1369 O   0  0  0  0  0  0
  -26.5592  -34.8949   22.4685 O   0  0  0  0  0  0
  -23.5366  -32.1456   23.7489 O   0  0  0  0  0  0
  -30.4090  -19.3799   21.2813 C   0  0  0  0  0  0
  -30.2293  -18.2115   20.4882 C   0  0  0  0  0  0
  -29.8975  -20.4104   20.5377 C   0  0  0  0  0  0
  -28.7208  -20.4139   18.2353 C   0  0  0  0  0  0
  -29.3251  -15.8567   22.1631 C   0  0  0  0  0  0
  -30.9499  -16.8876   20.6348 C   0  0  0  0  0  0
  -30.0328  -21.8921   20.8420 C   0  0  0  0  0  0
  -29.1032  -22.8993   20.1311 C   0  0  0  0  0  0
  -29.3780  -24.3859   20.4667 C   0  0  0  0  0  0
  -28.2374  -25.2691   19.9272 C   0  0  0  0  0  0
  -29.5291  -18.4719   19.3995 N   0  0  0  0  0  0
  -29.3456  -19.8176   19.4023 N   0  0  0  0  0  0
  -30.1840  -15.6615   20.9827 N   0  0  0  0  0  0
  -31.4322  -12.3688   19.1414 H   0  0  0  0  0  0
  -30.2382  -11.3205   19.8383 H   0  0  0  0  0  0
  -29.7299  -11.8021   17.4181 H   0  0  0  0  0  0
  -29.6377  -13.5063   17.7693 H   0  0  0  0  0  0
  -27.8337  -11.3065   18.8281 H   0  0  0  0  0  0
  -27.3474  -12.6124   17.7774 H   0  0  0  0  0  0
  -27.6784  -14.2609   19.5537 H   0  0  0  0  0  0
  -28.6631  -11.9656   21.3068 H   0  0  0  0  0  0
  -28.3967  -13.5603   21.8738 H   0  0  0  0  0  0
  -25.2718   -9.5694   22.4725 H   0  0  0  0  0  0
  -23.9967   -7.4628   22.7487 H   0  0  0  0  0  0
  -21.0777   -8.8616   19.8965 H   0  0  0  0  0  0
  -22.3541  -10.9582   19.6165 H   0  0  0  0  0  0
  -21.2013   -7.6124   23.9647 H   0  0  0  0  0  0
  -21.1538   -6.0551   25.9052 H   0  0  0  0  0  0
  -22.0593   -2.7581   23.2813 H   0  0  0  0  0  0
  -22.4118  -11.9873   22.4827 H   0  0  0  0  0  0
  -21.1078  -13.1182   22.2745 H   0  0  0  0  0  0
  -24.6279  -15.8252   20.5672 H   0  0  0  0  0  0
  -26.2565  -15.6517   20.1293 H   0  0  0  0  0  0
  -26.7148  -32.5570   23.1171 H   0  0  0  0  0  0
  -25.0144  -33.9779   25.0527 H   0  0  0  0  0  0
  -22.6958  -31.3187   21.4144 H   0  0  0  0  0  0
  -23.3791  -35.9623   23.3282 H   0  0  0  0  0  0
  -24.3616  -36.8938   22.2054 H   0  0  0  0  0  0
  -23.7221  -37.6507   23.6646 H   0  0  0  0  0  0
  -26.0554  -31.6091   20.6029 H   0  0  0  0  0  0
  -26.8224  -30.8828   21.9873 H   0  0  0  0  0  0
  -28.1022  -29.1036   21.1569 H   0  0  0  0  0  0
  -26.0015  -25.9952   18.9935 H   0  0  0  0  0  0
  -23.9723  -27.3221   19.0183 H   0  0  0  0  0  0
  -23.7110  -30.6179   19.4036 H   0  0  0  0  0  0
  -22.7364  -29.2560   19.8690 H   0  0  0  0  0  0
  -25.1313  -36.2009   25.0838 H   0  0  0  0  0  0
  -20.9999  -28.3269   24.1399 H   0  0  0  0  0  0
  -20.5724  -26.2302   23.3598 H   0  0  0  0  0  0
  -21.6660  -26.7466   22.1176 H   0  0  0  0  0  0
  -19.6920  -25.6301   21.1246 H   0  0  0  0  0  0
  -19.6694  -27.3203   20.6751 H   0  0  0  0  0  0
  -17.4217  -26.6698   21.4008 H   0  0  0  0  0  0
  -18.0315  -26.0056   22.8989 H   0  0  0  0  0  0
  -19.7938  -30.7267   24.2278 H   0  0  0  0  0  0
  -17.5014  -31.6259   24.5166 H   0  0  0  0  0  0
  -15.5359  -30.2975   23.7646 H   0  0  0  0  0  0
  -15.8691  -28.0828   22.7035 H   0  0  0  0  0  0
  -24.5833  -30.7186   25.7750 H   0  0  0  0  0  0
  -24.8990  -32.2914   26.4954 H   0  0  0  0  0  0
  -25.8017  -30.8814   27.0170 H   0  0  0  0  0  0
  -26.2846  -29.6793   24.1186 H   0  0  0  0  0  0
  -27.4112  -29.7318   25.4576 H   0  0  0  0  0  0
  -27.8683  -30.4381   23.9242 H   0  0  0  0  0  0
  -27.2696  -33.3616   26.2084 H   0  0  0  0  0  0
  -28.3831  -32.6911   25.0252 H   0  0  0  0  0  0
  -28.0780  -31.8427   26.5327 H   0  0  0  0  0  0
  -28.2622  -38.0122   24.7557 H   0  0  0  0  0  0
  -28.1117  -36.2662   24.6242 H   0  0  0  0  0  0
  -27.2327  -37.1413   25.8858 H   0  0  0  0  0  0
  -20.9302  -29.8781   21.6915 H   0  0  0  0  0  0
  -26.0231  -38.2899   24.1376 H   0  0  0  0  0  0
  -30.9685  -19.4751   22.2026 H   0  0  0  0  0  0
  -29.4434  -21.0468   17.7173 H   0  0  0  0  0  0
  -27.8549  -21.0108   18.5250 H   0  0  0  0  0  0
  -28.3836  -19.6463   17.5377 H   0  0  0  0  0  0
  -29.4605  -15.0840   22.9187 H   0  0  0  0  0  0
  -28.2743  -15.8983   21.8680 H   0  0  0  0  0  0
  -29.5496  -16.7923   22.6774 H   0  0  0  0  0  0
  -31.7308  -16.9905   21.3902 H   0  0  0  0  0  0
  -31.4955  -16.7572   19.6951 H   0  0  0  0  0  0
  -31.0692  -22.1814   20.6565 H   0  0  0  0  0  0
  -29.8819  -22.0147   21.9149 H   0  0  0  0  0  0
  -28.0669  -22.6433   20.3622 H   0  0  0  0  0  0
  -29.2141  -22.8175   19.0532 H   0  0  0  0  0  0
  -30.3335  -24.6857   20.0318 H   0  0  0  0  0  0
  -29.4697  -24.5286   21.5436 H   0  0  0  0  0  0
  -27.3338  -24.9225   20.4319 H   0  0  0  0  0  0
  -28.1133  -25.0835   18.8596 H   0  0  0  0  0  0
  1 25  1  0  0  0
  1 30  2  0  0  0
  1 83  1  0  0  0
  2  3  1  0  0  0
  2 25  1  0  0  0
  2 84  1  0  0  0
  2 85  1  0  0  0
  3  4  1  0  0  0
  3 86  1  0  0  0
  3 87  1  0  0  0
  4  5  1  0  0  0
  4 88  1  0  0  0
  4 89  1  0  0  0
  5  6  1  0  0  0
  5 26  1  0  0  0
  5 90  1  0  0  0
  6 25  1  0  0  0
  6 91  1  0  0  0
  6 92  1  0  0  0
  7  8  2  0  0  0
  7 26  1  0  0  0
  7 29  1  0  0  0
  8  9  1  0  0  0
  8 22  1  0  0  0
  9 10  1  0  0  0
  9 27  2  0  0  0
 10 11  2  0  0  0
 10 15  1  0  0  0
 11 12  1  0  0  0
 11 93  1  0  0  0
 12 13  2  0  0  0
 12 94  1  0  0  0
 13 14  1  0  0  0
 13 31  1  0  0  0
 14 15  2  0  0  0
 14 95  1  0  0  0
 15 96  1  0  0  0
 16 17  2  0  0  0
 16 21  1  0  0  0
 16 31  1  0  0  0
 17 18  1  0  0  0
 17 97  1  0  0  0
 18 19  2  0  0  0
 18 98  1  0  0  0
 19 20  1  0  0  0
 19 24  1  0  0  0
 20 21  2  0  0  0
 20 99  1  0  0  0
 21 23  1  0  0  0
 22 28  1  0  0  0
 22 32  2  0  0  0
 26 27  1  0  0  0
 28100  1  0  0  0
 28101  1  0  0  0
 29102  1  0  0  0
 29103  1  0  0  0
 33 34  1  0  0  0
 33 66  1  0  0  0
 33 70  2  0  0  0
 34 36  1  0  0  0
 34 59  1  0  0  0
 34104  1  0  0  0
 35 44  2  0  0  0
 35 45  1  0  0  0
 35 68  1  0  0  0
 36 56  1  0  0  0
 36105  1  0  0  0
 37 39  1  0  0  0
 37 47  1  0  0  0
 37 66  1  0  0  0
 37106  1  0  0  0
 38 43  2  0  0  0
 38 46  1  0  0  0
 38 47  1  0  0  0
 39 64  1  0  0  0
 39 67  2  0  0  0
 40 52  1  0  0  0
 40 53  2  0  0  0
 40 58  1  0  0  0
 41107  1  0  0  0
 41108  1  0  0  0
 41109  1  0  0  0
 41 48  1  0  0  0
 42 43  1  0  0  0
 42 66  1  0  0  0
 42110  1  0  0  0
 42111  1  0  0  0
 43 44  1  0  0  0
 44112  1  0  0  0
 45 46  2  0  0  0
 45113  1  0  0  0
 46114  1  0  0  0
 47115  1  0  0  0
 47116  1  0  0  0
 48 56  1  0  0  0
 48 65  1  0  0  0
 48117  1  0  0  0
 49 50  1  0  0  0
 49 53  1  0  0  0
 49 64  1  0  0  0
 49118  1  0  0  0
 50 51  1  0  0  0
 50119  1  0  0  0
 50120  1  0  0  0
 51 52  1  0  0  0
 51121  1  0  0  0
 51122  1  0  0  0
 52123  1  0  0  0
 52124  1  0  0  0
 53 54  1  0  0  0
 54 55  2  0  0  0
 54125  1  0  0  0
 55 57  1  0  0  0
 55126  1  0  0  0
 56 69  2  0  0  0
 57 58  2  0  0  0
 57127  1  0  0  0
 58128  1  0  0  0
 59 60  1  0  0  0
 59 61  1  0  0  0
 59 62  1  0  0  0
 60129  1  0  0  0
 60130  1  0  0  0
 60131  1  0  0  0
 61132  1  0  0  0
 61133  1  0  0  0
 61134  1  0  0  0
 62135  1  0  0  0
 62136  1  0  0  0
 62137  1  0  0  0
 63 65  1  0  0  0
 63138  1  0  0  0
 63139  1  0  0  0
 63140  1  0  0  0
 64141  1  0  0  0
 65142  1  0  0  0
 68 80  1  0  0  0
 71 72  1  0  0  0
 71 73  2  0  0  0
 71143  1  0  0  0
 72 76  1  0  0  0
 72 81  2  0  0  0
 73 77  1  0  0  0
 73 82  1  0  0  0
 74 82  1  0  0  0
 74144  1  0  0  0
 74145  1  0  0  0
 74146  1  0  0  0
 75 83  1  0  0  0
 75147  1  0  0  0
 75148  1  0  0  0
 75149  1  0  0  0
 76 83  1  0  0  0
 76150  1  0  0  0
 76151  1  0  0  0
 77 78  1  0  0  0
 77152  1  0  0  0
 77153  1  0  0  0
 78 79  1  0  0  0
 78154  1  0  0  0
 78155  1  0  0  0
 79 80  1  0  0  0
 79156  1  0  0  0
 79157  1  0  0  0
 80158  1  0  0  0
 80159  1  0  0  0
 81 82  1  0  0  0
M  ISO  4   1 100  68 101  80 101  83 100
M  END
> <chiral flag>
0

> <version>
0

> <s_m_source_file>
/data/baiqing/PycharmProjects/Reinvent-master-3.2/result/LINK_invent/BTK/process_docking_weight1_custom_sum_contain_oxygen_bond_distance_aromatic_linkinvent_7_9_3/rearranged_h_0059.sdf

> <i_m_source_file_index>
26

> <r_mmod_Potential_Energy-OPLS-2005>
31.2446327209473

> <r_mmod_Stretch_Energy-OPLS-2005>
41.3963241577148

> <r_mmod_Bend_Energy-OPLS-2005>
133.249359130859

> <r_mmod_Torsional_Energy-OPLS-2005>
253.493804931641

> <r_mmod_Improper_Torsional_Energy-OPLS-2005>
11.1775455474854

> <r_mmod_Van_der_Waal_Energy-OPLS-2005>
156.060150146484

> <r_mmod_Electrostatic_Energy-OPLS-2005>
-378.958099365234

> <r_mmod_Solvation_Energy-OPLS-2005>
-205.888534545898

> <b_mmod_Minimization_Converged-OPLS-2005>
0

> <r_mmod_RMS_Derivative-OPLS-2005>
4.0621919631958

$$$$
26
                    3D
 Structure written by MMmdl.
160168  0  0  1  0            999 V2000
  -30.5272  -14.9550   20.5279 C   0  0  0  0  0  0
  -30.4373  -12.6144   19.5276 C   0  0  0  0  0  0
  -29.5257  -12.5485   18.2765 C   0  0  0  0  0  0
  -28.0569  -12.3114   18.6686 C   0  0  0  0  0  0
  -27.6204  -13.2384   19.8308 C   0  0  2  0  0  0
  -28.6435  -13.2280   20.9835 C   0  0  0  0  0  0
  -25.2397  -13.8177   20.5609 C   0  0  0  0  0  0
  -24.1712  -13.0401   20.9150 C   0  0  0  0  0  0
  -24.6328  -11.6902   20.8689 C   0  0  0  0  0  0
  -23.9023  -10.4275   21.0385 C   0  0  0  0  0  0
  -24.3587   -9.4207   21.9175 C   0  0  0  0  0  0
  -23.6268   -8.2243   22.0756 C   0  0  0  0  0  0
  -22.4258   -8.0263   21.3533 C   0  0  0  0  0  0
  -21.9876   -9.0232   20.4646 C   0  0  0  0  0  0
  -22.7200  -10.2109   20.3049 C   0  0  0  0  0  0
  -21.6849   -6.0723   22.5275 C   0  0  0  0  0  0
  -21.4031   -6.5636   23.8214 C   0  0  0  0  0  0
  -21.3649   -5.6788   24.9167 C   0  0  0  0  0  0
  -21.6036   -4.3049   24.7225 C   0  0  0  0  0  0
  -21.8821   -3.8138   23.4352 C   0  0  0  0  0  0
  -21.9195   -4.6955   22.3403 C   0  0  0  0  0  0
  -22.7760  -13.5205   21.1854 C   0  0  0  0  0  0
  -22.1661   -4.2149   21.0978 F   0  0  0  0  0  0
  -21.5607   -3.4528   25.7734 F   0  0  0  0  0  0
  -29.9325  -13.6868   20.4418 N   0  0  0  0  0  0
  -26.2775  -12.9377   20.3069 N   0  0  0  0  0  0
  -25.9233  -11.6529   20.5603 N   0  0  0  0  0  0
  -22.0431  -12.8200   22.0443 N   0  0  0  0  0  0
  -25.4114  -15.1906   20.4111 N   0  0  0  0  0  0
  -31.6693  -15.0554   20.0639 O   0  0  0  0  0  0
  -21.6626   -6.8859   21.4234 O   0  0  0  0  0  0
  -22.3439  -14.5515   20.6711 O   0  0  0  0  0  0
  -24.6435  -31.8441   23.1895 C   0  0  0  0  0  0
  -25.9216  -32.4703   23.8276 C   0  0  1  0  0  0
  -27.2281  -27.1157   20.1694 C   0  0  0  0  0  0
  -25.5968  -33.8506   24.2207 N   0  0  0  0  0  0
  -23.4478  -30.4615   21.5357 C   0  0  2  0  0  0
  -24.9049  -28.8865   20.1106 C   0  0  0  0  0  0
  -22.7556  -29.4529   22.4855 C   0  0  0  0  0  0
  -18.0286  -28.1372   22.8473 C   0  0  0  0  0  0
  -24.1477  -36.7237   23.2637 C   0  0  0  0  0  0
  -26.0052  -30.7105   21.3932 C   0  0  0  0  0  0
  -26.0820  -29.3194   20.7355 C   0  0  0  0  0  0
  -27.2413  -28.4528   20.7465 C   0  0  0  0  0  0
  -26.0278  -26.7942   19.4921 C   0  0  0  0  0  0
  -24.8952  -27.6378   19.4696 C   0  0  0  0  0  0
  -23.6798  -29.7893   20.1547 C   0  0  0  0  0  0
  -25.4116  -36.3028   24.0301 C   0  0  1  0  0  0
  -20.5907  -28.3713   23.1209 C   0  0  2  0  0  0
  -20.6790  -26.9411   22.5393 C   0  0  0  0  0  0
  -19.5774  -26.6363   21.5195 C   0  0  0  0  0  0
  -18.1946  -26.7915   22.1591 C   0  0  0  0  0  0
  -19.1552  -28.8856   23.2833 C   0  0  0  0  0  0
  -18.9479  -30.1448   23.8861 C   0  0  0  0  0  0
  -17.6485  -30.6593   24.0536 C   0  0  0  0  0  0
  -25.9069  -34.9401   23.5056 C   0  0  0  0  0  0
  -16.5374  -29.9082   23.6336 C   0  0  0  0  0  0
  -16.7277  -28.6490   23.0379 C   0  0  0  0  0  0
  -26.4557  -31.6575   25.0718 C   0  0  0  0  0  0
  -25.3718  -31.3745   26.1391 C   0  0  0  0  0  0
  -27.0443  -30.2973   24.6301 C   0  0  0  0  0  0
  -27.6084  -32.4373   25.7502 C   0  0  0  0  0  0
  -27.5564  -37.1749   24.8461 C   0  0  0  0  0  0
  -21.4253  -29.3045   22.3587 N   0  0  0  0  0  0
  -26.4275  -37.3740   23.9404 N   0  0  0  0  0  0
  -24.7187  -31.0259   22.0949 N   0  0  0  0  0  0
  -23.4194  -28.8068   23.3003 O   0  0  0  0  0  0
  -28.2701  -26.1126   20.2805 O   0  0  0  0  0  0
  -26.5638  -34.8881   22.4628 O   0  0  0  0  0  0
  -23.5563  -32.1342   23.7105 O   0  0  0  0  0  0
  -27.3040  -21.7977   19.0038 C   0  0  0  0  0  0
  -26.9798  -20.5531   18.5660 C   0  0  0  0  0  0
  -28.6697  -20.3013   20.0297 C   0  0  0  0  0  0
  -29.2230  -19.2798   22.2905 C   0  0  0  0  0  0
  -31.0612  -19.6076   20.6703 C   0  0  0  0  0  0
  -29.5508  -16.1754   22.4056 C   0  0  0  0  0  0
  -28.8453  -23.1462   20.4526 C   0  0  0  0  0  0
  -29.5233  -17.5290   20.2465 C   0  0  0  0  0  0
  -28.0023  -24.5863   20.0361 C   0  0  0  0  0  0
  -29.5926  -19.1743   20.7997 C   0  0  0  0  0  0
  -28.3526  -21.7133   19.9061 N   0  0  0  0  0  0
  -27.7992  -19.6944   19.2167 N   0  3  0  0  0  0
  -29.8184  -16.1275   20.9661 N   0  0  0  0  0  0
  -31.4653  -12.7988   19.2134 H   0  0  0  0  0  0
  -30.4598  -11.6553   20.0476 H   0  0  0  0  0  0
  -29.8704  -11.7626   17.6028 H   0  0  0  0  0  0
  -29.5972  -13.4863   17.7225 H   0  0  0  0  0  0
  -27.9521  -11.2652   18.9625 H   0  0  0  0  0  0
  -27.4078  -12.4413   17.8024 H   0  0  0  0  0  0
  -27.5924  -14.2439   19.4098 H   0  0  0  0  0  0
  -28.7240  -12.2233   21.4020 H   0  0  0  0  0  0
  -28.2847  -13.8531   21.7962 H   0  0  0  0  0  0
  -25.2732   -9.5688   22.4746 H   0  0  0  0  0  0
  -23.9977   -7.4636   22.7483 H   0  0  0  0  0  0
  -21.0799   -8.8739   19.8960 H   0  0  0  0  0  0
  -22.3644  -10.9635   19.6151 H   0  0  0  0  0  0
  -21.2058   -7.6151   23.9719 H   0  0  0  0  0  0
  -21.1451   -6.0513   25.9067 H   0  0  0  0  0  0
  -22.0617   -2.7606   23.2844 H   0  0  0  0  0  0
  -22.4052  -11.9851   22.4785 H   0  0  0  0  0  0
  -21.1055  -13.1233   22.2690 H   0  0  0  0  0  0
  -24.6505  -15.8480   20.5481 H   0  0  0  0  0  0
  -26.2776  -15.6299   20.1288 H   0  0  0  0  0  0
  -26.7267  -32.5323   23.0985 H   0  0  0  0  0  0
  -25.0125  -33.9627   25.0365 H   0  0  0  0  0  0
  -22.7501  -31.2874   21.3796 H   0  0  0  0  0  0
  -23.3753  -35.9546   23.3313 H   0  0  0  0  0  0
  -24.3551  -36.8891   22.2052 H   0  0  0  0  0  0
  -23.7225  -37.6417   23.6698 H   0  0  0  0  0  0
  -26.1569  -31.4622   20.6180 H   0  0  0  0  0  0
  -26.8779  -30.7679   22.0318 H   0  0  0  0  0  0
  -28.1332  -28.7773   21.2649 H   0  0  0  0  0  0
  -25.9275  -25.8384   18.9998 H   0  0  0  0  0  0
  -23.9983  -27.3034   18.9657 H   0  0  0  0  0  0
  -23.8128  -30.5686   19.4033 H   0  0  0  0  0  0
  -22.7950  -29.2317   19.8436 H   0  0  0  0  0  0
  -25.1301  -36.1845   25.0789 H   0  0  0  0  0  0
  -20.9976  -28.3331   24.1340 H   0  0  0  0  0  0
  -20.5692  -26.2318   23.3613 H   0  0  0  0  0  0
  -21.6655  -26.7425   22.1182 H   0  0  0  0  0  0
  -19.6944  -25.6257   21.1260 H   0  0  0  0  0  0
  -19.6746  -27.3129   20.6692 H   0  0  0  0  0  0
  -17.4219  -26.6652   21.3995 H   0  0  0  0  0  0
  -18.0352  -26.0045   22.8974 H   0  0  0  0  0  0
  -19.7961  -30.7243   24.2255 H   0  0  0  0  0  0
  -17.5058  -31.6279   24.5116 H   0  0  0  0  0  0
  -15.5380  -30.2989   23.7696 H   0  0  0  0  0  0
  -15.8656  -28.0797   22.7160 H   0  0  0  0  0  0
  -24.5940  -30.7056   25.7700 H   0  0  0  0  0  0
  -24.8820  -32.2893   26.4721 H   0  0  0  0  0  0
  -25.7961  -30.8990   27.0235 H   0  0  0  0  0  0
  -26.3057  -29.6671   24.1323 H   0  0  0  0  0  0
  -27.4092  -29.7311   25.4882 H   0  0  0  0  0  0
  -27.8959  -30.4244   23.9613 H   0  0  0  0  0  0
  -27.2710  -33.3752   26.1922 H   0  0  0  0  0  0
  -28.3954  -32.6817   25.0359 H   0  0  0  0  0  0
  -28.0666  -31.8597   26.5532 H   0  0  0  0  0  0
  -28.2546  -38.0085   24.7547 H   0  0  0  0  0  0
  -28.1106  -36.2596   24.6270 H   0  0  0  0  0  0
  -27.2263  -37.1386   25.8863 H   0  0  0  0  0  0
  -20.9465  -29.8764   21.6772 H   0  0  0  0  0  0
  -26.0145  -38.2784   24.1497 H   0  0  0  0  0  0
  -26.8347  -22.7186   18.7009 H   0  0  0  0  0  0
  -26.2315  -20.2221   17.8594 H   0  0  0  0  0  0
  -29.3308  -20.2972   22.6664 H   0  0  0  0  0  0
  -29.8880  -18.6903   22.9167 H   0  0  0  0  0  0
  -28.1948  -18.9639   22.4746 H   0  0  0  0  0  0
  -31.2278  -20.6087   21.0694 H   0  0  0  0  0  0
  -31.3770  -19.6180   19.6274 H   0  0  0  0  0  0
  -31.7203  -18.9281   21.2079 H   0  0  0  0  0  0
  -30.4049  -16.6241   22.9103 H   0  0  0  0  0  0
  -29.4292  -15.2119   22.8943 H   0  0  0  0  0  0
  -28.6458  -16.7437   22.6185 H   0  0  0  0  0  0
  -28.9021  -23.0645   21.5396 H   0  0  0  0  0  0
  -29.8760  -23.2483   20.1145 H   0  0  0  0  0  0
  -30.0683  -17.4881   19.3020 H   0  0  0  0  0  0
  -28.4856  -17.3621   19.9623 H   0  0  0  0  0  0
  -26.9964  -24.4160   20.4205 H   0  0  0  0  0  0
  -27.9185  -24.5555   18.9504 H   0  0  0  0  0  0
  -27.7552  -18.6898   19.1047 H   0  0  0  0  0  0
  1 25  1  0  0  0
  1 30  2  0  0  0
  1 83  1  0  0  0
  2  3  1  0  0  0
  2 25  1  0  0  0
  2 84  1  0  0  0
  2 85  1  0  0  0
  3  4  1  0  0  0
  3 86  1  0  0  0
  3 87  1  0  0  0
  4  5  1  0  0  0
  4 88  1  0  0  0
  4 89  1  0  0  0
  5  6  1  0  0  0
  5 26  1  0  0  0
  5 90  1  0  0  0
  6 25  1  0  0  0
  6 91  1  0  0  0
  6 92  1  0  0  0
  7  8  2  0  0  0
  7 26  1  0  0  0
  7 29  1  0  0  0
  8  9  1  0  0  0
  8 22  1  0  0  0
  9 10  1  0  0  0
  9 27  2  0  0  0
 10 11  2  0  0  0
 10 15  1  0  0  0
 11 12  1  0  0  0
 11 93  1  0  0  0
 12 13  2  0  0  0
 12 94  1  0  0  0
 13 14  1  0  0  0
 13 31  1  0  0  0
 14 15  2  0  0  0
 14 95  1  0  0  0
 15 96  1  0  0  0
 16 17  2  0  0  0
 16 21  1  0  0  0
 16 31  1  0  0  0
 17 18  1  0  0  0
 17 97  1  0  0  0
 18 19  2  0  0  0
 18 98  1  0  0  0
 19 20  1  0  0  0
 19 24  1  0  0  0
 20 21  2  0  0  0
 20 99  1  0  0  0
 21 23  1  0  0  0
 22 28  1  0  0  0
 22 32  2  0  0  0
 26 27  1  0  0  0
 28100  1  0  0  0
 28101  1  0  0  0
 29102  1  0  0  0
 29103  1  0  0  0
 33 34  1  0  0  0
 33 66  1  0  0  0
 33 70  2  0  0  0
 34 36  1  0  0  0
 34 59  1  0  0  0
 34104  1  0  0  0
 35 44  2  0  0  0
 35 45  1  0  0  0
 35 68  1  0  0  0
 36 56  1  0  0  0
 36105  1  0  0  0
 37 39  1  0  0  0
 37 47  1  0  0  0
 37 66  1  0  0  0
 37106  1  0  0  0
 38 43  2  0  0  0
 38 46  1  0  0  0
 38 47  1  0  0  0
 39 64  1  0  0  0
 39 67  2  0  0  0
 40 52  1  0  0  0
 40 53  2  0  0  0
 40 58  1  0  0  0
 41107  1  0  0  0
 41108  1  0  0  0
 41109  1  0  0  0
 41 48  1  0  0  0
 42 43  1  0  0  0
 42 66  1  0  0  0
 42110  1  0  0  0
 42111  1  0  0  0
 43 44  1  0  0  0
 44112  1  0  0  0
 45 46  2  0  0  0
 45113  1  0  0  0
 46114  1  0  0  0
 47115  1  0  0  0
 47116  1  0  0  0
 48 56  1  0  0  0
 48 65  1  0  0  0
 48117  1  0  0  0
 49 50  1  0  0  0
 49 53  1  0  0  0
 49 64  1  0  0  0
 49118  1  0  0  0
 50 51  1  0  0  0
 50119  1  0  0  0
 50120  1  0  0  0
 51 52  1  0  0  0
 51121  1  0  0  0
 51122  1  0  0  0
 52123  1  0  0  0
 52124  1  0  0  0
 53 54  1  0  0  0
 54 55  2  0  0  0
 54125  1  0  0  0
 55 57  1  0  0  0
 55126  1  0  0  0
 56 69  2  0  0  0
 57 58  2  0  0  0
 57127  1  0  0  0
 58128  1  0  0  0
 59 60  1  0  0  0
 59 61  1  0  0  0
 59 62  1  0  0  0
 60129  1  0  0  0
 60130  1  0  0  0
 60131  1  0  0  0
 61132  1  0  0  0
 61133  1  0  0  0
 61134  1  0  0  0
 62135  1  0  0  0
 62136  1  0  0  0
 62137  1  0  0  0
 63 65  1  0  0  0
 63138  1  0  0  0
 63139  1  0  0  0
 63140  1  0  0  0
 64141  1  0  0  0
 65142  1  0  0  0
 68 79  1  0  0  0
 71 72  2  0  0  0
 71 81  1  0  0  0
 71143  1  0  0  0
 72 82  1  0  0  0
 72144  1  0  0  0
 73 80  1  0  0  0
 73 81  1  0  0  0
 73 82  2  0  0  0
 74145  1  0  0  0
 74146  1  0  0  0
 74147  1  0  0  0
 74 80  1  0  0  0
 75 80  1  0  0  0
 75148  1  0  0  0
 75149  1  0  0  0
 75150  1  0  0  0
 76 83  1  0  0  0
 76151  1  0  0  0
 76152  1  0  0  0
 76153  1  0  0  0
 77 79  1  0  0  0
 77 81  1  0  0  0
 77154  1  0  0  0
 77155  1  0  0  0
 78 80  1  0  0  0
 78 83  1  0  0  0
 78156  1  0  0  0
 78157  1  0  0  0
 79158  1  0  0  0
 79159  1  0  0  0
 82160  1  0  0  0
M  CHG  1  82   1
M  ISO  4   1 100  68 101  79 101  83 100
M  END
> <chiral flag>
0

> <version>
0

> <s_m_source_file>
/data/baiqing/PycharmProjects/Reinvent-master-3.2/result/LINK_invent/BTK/process_docking_weight1_custom_sum_contain_oxygen_bond_distance_aromatic_linkinvent_7_9_3/rearranged_h_0059.sdf

> <i_m_source_file_index>
27

> <r_mmod_Potential_Energy-OPLS-2005>
785.429016113281

> <r_mmod_Stretch_Energy-OPLS-2005>
338.544708251953

> <r_mmod_Bend_Energy-OPLS-2005>
361.781036376953

> <r_mmod_Torsional_Energy-OPLS-2005>
332.598541259766

> <r_mmod_Improper_Torsional_Energy-OPLS-2005>
3.93369054794312

> <r_mmod_Van_der_Waal_Energy-OPLS-2005>
123.271751403809

> <r_mmod_Electrostatic_Energy-OPLS-2005>
-151.209030151367

> <r_mmod_Solvation_Energy-OPLS-2005>
-428.429840087891

> <b_mmod_Minimization_Converged-OPLS-2005>
0

> <r_mmod_RMS_Derivative-OPLS-2005>
4.4871187210083

$$$$
27
                    3D
 Structure written by MMmdl.
157165  0  0  1  0            999 V2000
  -30.5563  -14.9120   20.4056 C   0  0  0  0  0  0
  -30.4421  -12.5599   19.4713 C   0  0  0  0  0  0
  -29.5141  -12.5086   18.2381 C   0  0  0  0  0  0
  -28.0365  -12.3394   18.6494 C   0  0  0  0  0  0
  -27.6250  -13.2422   19.8467 C   0  0  2  0  0  0
  -28.6868  -13.2530   20.9644 C   0  0  0  0  0  0
  -25.2409  -13.8178   20.5792 C   0  0  0  0  0  0
  -24.1715  -13.0395   20.9252 C   0  0  0  0  0  0
  -24.6343  -11.6869   20.8770 C   0  0  0  0  0  0
  -23.9045  -10.4239   21.0393 C   0  0  0  0  0  0
  -24.3588   -9.4126   21.9154 C   0  0  0  0  0  0
  -23.6244   -8.2164   22.0728 C   0  0  0  0  0  0
  -22.4226   -8.0222   21.3518 C   0  0  0  0  0  0
  -21.9865   -9.0204   20.4639 C   0  0  0  0  0  0
  -22.7212  -10.2079   20.3048 C   0  0  0  0  0  0
  -21.6833   -6.0679   22.5254 C   0  0  0  0  0  0
  -21.4008   -6.5584   23.8189 C   0  0  0  0  0  0
  -21.3665   -5.6746   24.9161 C   0  0  0  0  0  0
  -21.6051   -4.3008   24.7223 C   0  0  0  0  0  0
  -21.8817   -3.8098   23.4342 C   0  0  0  0  0  0
  -21.9163   -4.6905   22.3389 C   0  0  0  0  0  0
  -22.7703  -13.5141   21.1837 C   0  0  0  0  0  0
  -22.1620   -4.2079   21.0968 F   0  0  0  0  0  0
  -21.5642   -3.4504   25.7740 F   0  0  0  0  0  0
  -29.9538  -13.6586   20.3451 N   0  0  0  0  0  0
  -26.2854  -12.9402   20.3369 N   0  0  0  0  0  0
  -25.9291  -11.6526   20.5818 N   0  0  0  0  0  0
  -22.0319  -12.8206   22.0438 N   0  0  0  0  0  0
  -25.4095  -15.1936   20.4277 N   0  0  0  0  0  0
  -31.7856  -14.9636   20.2867 O   0  0  0  0  0  0
  -21.6588   -6.8819   21.4231 O   0  0  0  0  0  0
  -22.3379  -14.5395   20.6606 O   0  0  0  0  0  0
  -24.6435  -31.8475   23.1902 C   0  0  0  0  0  0
  -25.9222  -32.4707   23.8294 C   0  0  1  0  0  0
  -27.2188  -27.1641   20.1455 C   0  0  0  0  0  0
  -25.5998  -33.8499   24.2209 N   0  0  0  0  0  0
  -23.4451  -30.4736   21.5302 C   0  0  2  0  0  0
  -24.8988  -28.9154   20.0991 C   0  0  0  0  0  0
  -22.7604  -29.4559   22.4791 C   0  0  0  0  0  0
  -18.0310  -28.1409   22.8429 C   0  0  0  0  0  0
  -24.1483  -36.7273   23.2632 C   0  0  0  0  0  0
  -26.0013  -30.7321   21.3852 C   0  0  0  0  0  0
  -26.0745  -29.3473   20.7264 C   0  0  0  0  0  0
  -27.2364  -28.4882   20.7337 C   0  0  0  0  0  0
  -26.0123  -26.8402   19.4770 C   0  0  0  0  0  0
  -24.8812  -27.6739   19.4582 C   0  0  0  0  0  0
  -23.6733  -29.8124   20.1450 C   0  0  0  0  0  0
  -25.4108  -36.3013   24.0305 C   0  0  1  0  0  0
  -20.5940  -28.3722   23.1205 C   0  0  2  0  0  0
  -20.6786  -26.9419   22.5384 C   0  0  0  0  0  0
  -19.5759  -26.6374   21.5193 C   0  0  0  0  0  0
  -18.1947  -26.7936   22.1608 C   0  0  0  0  0  0
  -19.1577  -28.8877   23.2800 C   0  0  0  0  0  0
  -18.9502  -30.1481   23.8820 C   0  0  0  0  0  0
  -17.6491  -30.6588   24.0556 C   0  0  0  0  0  0
  -25.9056  -34.9398   23.5053 C   0  0  0  0  0  0
  -16.5371  -29.9087   23.6333 C   0  0  0  0  0  0
  -16.7292  -28.6526   23.0304 C   0  0  0  0  0  0
  -26.4557  -31.6540   25.0720 C   0  0  0  0  0  0
  -25.3793  -31.3751   26.1461 C   0  0  0  0  0  0
  -27.0388  -30.2907   24.6312 C   0  0  0  0  0  0
  -27.6058  -32.4318   25.7532 C   0  0  0  0  0  0
  -27.5553  -37.1788   24.8463 C   0  0  0  0  0  0
  -21.4289  -29.3060   22.3598 N   0  0  0  0  0  0
  -26.4259  -37.3742   23.9412 N   0  0  0  0  0  0
  -24.7162  -31.0387   22.0905 N   0  0  0  0  0  0
  -23.4263  -28.8108   23.2924 O   0  0  0  0  0  0
  -28.2508  -26.1587   20.2369 O   0  0  0  0  0  0
  -26.5621  -34.8892   22.4606 O   0  0  0  0  0  0
  -23.5560  -32.1319   23.7161 O   0  0  0  0  0  0
  -29.1844  -22.5671   19.1794 C   0  0  0  0  0  0
  -28.6331  -23.2707   20.2879 C   0  0  0  0  0  0
  -28.5618  -22.3687   21.4095 C   0  0  0  0  0  0
  -29.4774  -20.4621   20.2777 C   0  0  0  0  0  0
  -28.7509  -23.6161   23.6404 C   0  0  0  0  0  0
  -29.3311  -16.2634   18.8009 C   0  0  0  0  0  0
  -27.8135  -24.6856   20.1101 C   0  0  0  0  0  0
  -27.8623  -22.7922   22.6989 C   0  0  0  0  0  0
  -30.1113  -18.9425   20.1684 C   0  0  0  0  0  0
  -29.6394  -17.5014   20.8769 C   0  0  0  0  0  0
  -29.5783  -21.2442   19.1838 N   0  0  0  0  0  0
  -29.0223  -21.0504   21.4050 N   0  0  0  0  0  0
  -29.7762  -16.0860   20.1883 N   0  0  0  0  0  0
  -31.4725  -12.7213   19.1461 H   0  0  0  0  0  0
  -30.4328  -11.6061   20.0022 H   0  0  0  0  0  0
  -29.8120  -11.6989   17.5726 H   0  0  0  0  0  0
  -29.6340  -13.4213   17.6564 H   0  0  0  0  0  0
  -27.8879  -11.2945   18.9182 H   0  0  0  0  0  0
  -27.3887  -12.5219   17.7907 H   0  0  0  0  0  0
  -27.5699  -14.2587   19.4669 H   0  0  0  0  0  0
  -28.7796  -12.2698   21.4229 H   0  0  0  0  0  0
  -28.4084  -13.9554   21.7506 H   0  0  0  0  0  0
  -25.2734   -9.5545   22.4737 H   0  0  0  0  0  0
  -23.9902   -7.4532   22.7457 H   0  0  0  0  0  0
  -21.0773   -8.8741   19.8991 H   0  0  0  0  0  0
  -22.3645  -10.9605   19.6157 H   0  0  0  0  0  0
  -21.2016   -7.6099   23.9670 H   0  0  0  0  0  0
  -21.1507   -6.0486   25.9058 H   0  0  0  0  0  0
  -22.0616   -2.7550   23.2860 H   0  0  0  0  0  0
  -22.3896  -11.9933   22.4986 H   0  0  0  0  0  0
  -21.0913  -13.1242   22.2542 H   0  0  0  0  0  0
  -24.6536  -15.8573   20.5511 H   0  0  0  0  0  0
  -26.2783  -15.6286   20.1490 H   0  0  0  0  0  0
  -26.7305  -32.5340   23.1040 H   0  0  0  0  0  0
  -25.0196  -33.9613   25.0395 H   0  0  0  0  0  0
  -22.7406  -31.2960   21.3814 H   0  0  0  0  0  0
  -23.3717  -35.9634   23.3280 H   0  0  0  0  0  0
  -24.3577  -36.8918   22.2050 H   0  0  0  0  0  0
  -23.7272  -37.6482   23.6675 H   0  0  0  0  0  0
  -26.1526  -31.4827   20.6080 H   0  0  0  0  0  0
  -26.8709  -30.7896   22.0272 H   0  0  0  0  0  0
  -28.1246  -28.8106   21.2574 H   0  0  0  0  0  0
  -25.8761  -25.8971   18.9757 H   0  0  0  0  0  0
  -23.9885  -27.3358   18.9502 H   0  0  0  0  0  0
  -23.8090  -30.5902   19.3932 H   0  0  0  0  0  0
  -22.7877  -29.2578   19.8309 H   0  0  0  0  0  0
  -25.1288  -36.1831   25.0801 H   0  0  0  0  0  0
  -21.0004  -28.3297   24.1336 H   0  0  0  0  0  0
  -20.5675  -26.2330   23.3617 H   0  0  0  0  0  0
  -21.6652  -26.7405   22.1200 H   0  0  0  0  0  0
  -19.6911  -25.6282   21.1239 H   0  0  0  0  0  0
  -19.6698  -27.3161   20.6719 H   0  0  0  0  0  0
  -17.4209  -26.6627   21.4031 H   0  0  0  0  0  0
  -18.0362  -26.0132   22.9068 H   0  0  0  0  0  0
  -19.7987  -30.7329   24.2116 H   0  0  0  0  0  0
  -17.5057  -31.6256   24.5206 H   0  0  0  0  0  0
  -15.5372  -30.2968   23.7724 H   0  0  0  0  0  0
  -15.8698  -28.0871   22.6975 H   0  0  0  0  0  0
  -24.5944  -30.7114   25.7836 H   0  0  0  0  0  0
  -24.9068  -32.2958   26.4876 H   0  0  0  0  0  0
  -25.8160  -30.8957   27.0231 H   0  0  0  0  0  0
  -26.2992  -29.6653   24.1313 H   0  0  0  0  0  0
  -27.3934  -29.7208   25.4906 H   0  0  0  0  0  0
  -27.8939  -30.4073   23.9659 H   0  0  0  0  0  0
  -27.2581  -33.3605   26.2064 H   0  0  0  0  0  0
  -28.3918  -32.6896   25.0425 H   0  0  0  0  0  0
  -28.0678  -31.8500   26.5517 H   0  0  0  0  0  0
  -28.2547  -38.0095   24.7464 H   0  0  0  0  0  0
  -28.1052  -36.2616   24.6310 H   0  0  0  0  0  0
  -27.2279  -37.1469   25.8868 H   0  0  0  0  0  0
  -20.9484  -29.8833   21.6847 H   0  0  0  0  0  0
  -26.0107  -38.2796   24.1443 H   0  0  0  0  0  0
  -29.2249  -23.0473   18.2102 H   0  0  0  0  0  0
  -28.2071  -23.9116   24.5399 H   0  0  0  0  0  0
  -29.0907  -24.5299   23.1562 H   0  0  0  0  0  0
  -29.6291  -23.0496   23.9505 H   0  0  0  0  0  0
  -28.4960  -16.9616   18.7313 H   0  0  0  0  0  0
  -29.0014  -15.3459   18.3227 H   0  0  0  0  0  0
  -30.1468  -16.6542   18.1946 H   0  0  0  0  0  0
  -26.9165  -24.5996   20.7200 H   0  0  0  0  0  0
  -27.4665  -24.5880   19.0838 H   0  0  0  0  0  0
  -27.5042  -21.9095   23.2288 H   0  0  0  0  0  0
  -26.9568  -23.3482   22.4640 H   0  0  0  0  0  0
  -30.1215  -18.7603   19.0949 H   0  0  0  0  0  0
  -31.1714  -19.0571   20.3955 H   0  0  0  0  0  0
  -30.0990  -17.4439   21.8645 H   0  0  0  0  0  0
  -28.5753  -17.6064   21.0985 H   0  0  0  0  0  0
  1 25  1  0  0  0
  1 30  2  0  0  0
  1 83  1  0  0  0
  2  3  1  0  0  0
  2 25  1  0  0  0
  2 84  1  0  0  0
  2 85  1  0  0  0
  3  4  1  0  0  0
  3 86  1  0  0  0
  3 87  1  0  0  0
  4  5  1  0  0  0
  4 88  1  0  0  0
  4 89  1  0  0  0
  5  6  1  0  0  0
  5 26  1  0  0  0
  5 90  1  0  0  0
  6 25  1  0  0  0
  6 91  1  0  0  0
  6 92  1  0  0  0
  7  8  2  0  0  0
  7 26  1  0  0  0
  7 29  1  0  0  0
  8  9  1  0  0  0
  8 22  1  0  0  0
  9 10  1  0  0  0
  9 27  2  0  0  0
 10 11  2  0  0  0
 10 15  1  0  0  0
 11 12  1  0  0  0
 11 93  1  0  0  0
 12 13  2  0  0  0
 12 94  1  0  0  0
 13 14  1  0  0  0
 13 31  1  0  0  0
 14 15  2  0  0  0
 14 95  1  0  0  0
 15 96  1  0  0  0
 16 17  2  0  0  0
 16 21  1  0  0  0
 16 31  1  0  0  0
 17 18  1  0  0  0
 17 97  1  0  0  0
 18 19  2  0  0  0
 18 98  1  0  0  0
 19 20  1  0  0  0
 19 24  1  0  0  0
 20 21  2  0  0  0
 20 99  1  0  0  0
 21 23  1  0  0  0
 22 28  1  0  0  0
 22 32  2  0  0  0
 26 27  1  0  0  0
 28100  1  0  0  0
 28101  1  0  0  0
 29102  1  0  0  0
 29103  1  0  0  0
 33 34  1  0  0  0
 33 66  1  0  0  0
 33 70  2  0  0  0
 34 36  1  0  0  0
 34 59  1  0  0  0
 34104  1  0  0  0
 35 44  2  0  0  0
 35 45  1  0  0  0
 35 68  1  0  0  0
 36 56  1  0  0  0
 36105  1  0  0  0
 37 39  1  0  0  0
 37 47  1  0  0  0
 37 66  1  0  0  0
 37106  1  0  0  0
 38 43  2  0  0  0
 38 46  1  0  0  0
 38 47  1  0  0  0
 39 64  1  0  0  0
 39 67  2  0  0  0
 40 52  1  0  0  0
 40 53  2  0  0  0
 40 58  1  0  0  0
 41107  1  0  0  0
 41108  1  0  0  0
 41109  1  0  0  0
 41 48  1  0  0  0
 42 43  1  0  0  0
 42 66  1  0  0  0
 42110  1  0  0  0
 42111  1  0  0  0
 43 44  1  0  0  0
 44112  1  0  0  0
 45 46  2  0  0  0
 45113  1  0  0  0
 46114  1  0  0  0
 47115  1  0  0  0
 47116  1  0  0  0
 48 56  1  0  0  0
 48 65  1  0  0  0
 48117  1  0  0  0
 49 50  1  0  0  0
 49 53  1  0  0  0
 49 64  1  0  0  0
 49118  1  0  0  0
 50 51  1  0  0  0
 50119  1  0  0  0
 50120  1  0  0  0
 51 52  1  0  0  0
 51121  1  0  0  0
 51122  1  0  0  0
 52123  1  0  0  0
 52124  1  0  0  0
 53 54  1  0  0  0
 54 55  2  0  0  0
 54125  1  0  0  0
 55 57  1  0  0  0
 55126  1  0  0  0
 56 69  2  0  0  0
 57 58  2  0  0  0
 57127  1  0  0  0
 58128  1  0  0  0
 59 60  1  0  0  0
 59 61  1  0  0  0
 59 62  1  0  0  0
 60129  1  0  0  0
 60130  1  0  0  0
 60131  1  0  0  0
 61132  1  0  0  0
 61133  1  0  0  0
 61134  1  0  0  0
 62135  1  0  0  0
 62136  1  0  0  0
 62137  1  0  0  0
 63 65  1  0  0  0
 63138  1  0  0  0
 63139  1  0  0  0
 63140  1  0  0  0
 64141  1  0  0  0
 65142  1  0  0  0
 68 77  1  0  0  0
 71 72  2  0  0  0
 71 81  1  0  0  0
 71143  1  0  0  0
 72 73  1  0  0  0
 72 77  1  0  0  0
 73 78  1  0  0  0
 73 82  2  0  0  0
 74 79  1  0  0  0
 74 81  2  0  0  0
 74 82  1  0  0  0
 75 78  1  0  0  0
 75144  1  0  0  0
 75145  1  0  0  0
 75146  1  0  0  0
 76 83  1  0  0  0
 76147  1  0  0  0
 76148  1  0  0  0
 76149  1  0  0  0
 77150  1  0  0  0
 77151  1  0  0  0
 78152  1  0  0  0
 78153  1  0  0  0
 79 80  1  0  0  0
 79154  1  0  0  0
 79155  1  0  0  0
 80 83  1  0  0  0
 80156  1  0  0  0
 80157  1  0  0  0
M  ISO  4   1 100  68 101  77 101  83 100
M  END
> <chiral flag>
0

> <version>
0

> <s_m_source_file>
/data/baiqing/PycharmProjects/Reinvent-master-3.2/result/LINK_invent/BTK/process_docking_weight1_custom_sum_contain_oxygen_bond_distance_aromatic_linkinvent_7_9_3/rearranged_h_0059.sdf

> <i_m_source_file_index>
28

> <r_mmod_Potential_Energy-OPLS-2005>
275.073577880859

> <r_mmod_Stretch_Energy-OPLS-2005>
216.228713989258

> <r_mmod_Bend_Energy-OPLS-2005>
283.591522216797

> <r_mmod_Torsional_Energy-OPLS-2005>
328.931884765625

> <r_mmod_Improper_Torsional_Energy-OPLS-2005>
18.0679817199707

> <r_mmod_Van_der_Waal_Energy-OPLS-2005>
148.67219543457

> <r_mmod_Electrostatic_Energy-OPLS-2005>
-673.918701171875

> <r_mmod_Solvation_Energy-OPLS-2005>
-224.310668945312

> <b_mmod_Minimization_Converged-OPLS-2005>
0

> <r_mmod_RMS_Derivative-OPLS-2005>
4.58129739761353

$$$$
28
                    3D
 Structure written by MMmdl.
160168  0  0  1  0            999 V2000
  -30.5770  -14.8983   20.4660 C   0  0  0  0  0  0
  -30.4375  -12.5646   19.4928 C   0  0  0  0  0  0
  -29.5179  -12.5402   18.2498 C   0  0  0  0  0  0
  -28.0474  -12.3338   18.6606 C   0  0  0  0  0  0
  -27.6345  -13.2428   19.8470 C   0  0  2  0  0  0
  -28.6786  -13.2055   20.9809 C   0  0  0  0  0  0
  -25.2482  -13.8211   20.5716 C   0  0  0  0  0  0
  -24.1785  -13.0441   20.9210 C   0  0  0  0  0  0
  -24.6391  -11.6924   20.8745 C   0  0  0  0  0  0
  -23.9072  -10.4292   21.0405 C   0  0  0  0  0  0
  -24.3625   -9.4207   21.9181 C   0  0  0  0  0  0
  -23.6297   -8.2243   22.0753 C   0  0  0  0  0  0
  -22.4276   -8.0281   21.3543 C   0  0  0  0  0  0
  -21.9913   -9.0257   20.4646 C   0  0  0  0  0  0
  -22.7245  -10.2133   20.3053 C   0  0  0  0  0  0
  -21.6851   -6.0739   22.5280 C   0  0  0  0  0  0
  -21.4016   -6.5640   23.8216 C   0  0  0  0  0  0
  -21.3662   -5.6787   24.9173 C   0  0  0  0  0  0
  -21.6040   -4.3050   24.7221 C   0  0  0  0  0  0
  -21.8820   -3.8147   23.4340 C   0  0  0  0  0  0
  -21.9194   -4.6969   22.3401 C   0  0  0  0  0  0
  -22.7806  -13.5218   21.1865 C   0  0  0  0  0  0
  -22.1665   -4.2158   21.0976 F   0  0  0  0  0  0
  -21.5628   -3.4533   25.7733 F   0  0  0  0  0  0
  -29.9555  -13.6489   20.3994 N   0  0  0  0  0  0
  -26.2902  -12.9431   20.3266 N   0  0  0  0  0  0
  -25.9321  -11.6563   20.5733 N   0  0  0  0  0  0
  -22.0458  -12.8209   22.0422 N   0  0  0  0  0  0
  -25.4163  -15.1942   20.4162 N   0  0  0  0  0  0
  -31.7581  -14.9403   20.1018 O   0  0  0  0  0  0
  -21.6633   -6.8883   21.4241 O   0  0  0  0  0  0
  -22.3490  -14.5525   20.6713 O   0  0  0  0  0  0
  -24.6408  -31.8472   23.1895 C   0  0  0  0  0  0
  -25.9191  -32.4719   23.8272 C   0  0  1  0  0  0
  -27.2178  -27.1642   20.1418 C   0  0  0  0  0  0
  -25.5950  -33.8522   24.2202 N   0  0  0  0  0  0
  -23.4425  -30.4670   21.5354 C   0  0  2  0  0  0
  -24.8899  -28.8954   20.1110 C   0  0  0  0  0  0
  -22.7554  -29.4569   22.4875 C   0  0  0  0  0  0
  -18.0307  -28.1400   22.8488 C   0  0  0  0  0  0
  -24.1492  -36.7258   23.2642 C   0  0  0  0  0  0
  -25.9960  -30.7296   21.3830 C   0  0  0  0  0  0
  -26.0672  -29.3429   20.7239 C   0  0  0  0  0  0
  -27.2328  -28.4936   20.7199 C   0  0  0  0  0  0
  -26.0118  -26.8061   19.5001 C   0  0  0  0  0  0
  -24.8737  -27.6401   19.4852 C   0  0  0  0  0  0
  -23.6662  -29.7960   20.1542 C   0  0  0  0  0  0
  -25.4128  -36.3050   24.0320 C   0  0  1  0  0  0
  -20.5918  -28.3724   23.1249 C   0  0  2  0  0  0
  -20.6796  -26.9430   22.5411 C   0  0  0  0  0  0
  -19.5765  -26.6393   21.5222 C   0  0  0  0  0  0
  -18.1947  -26.7944   22.1633 C   0  0  0  0  0  0
  -19.1562  -28.8881   23.2863 C   0  0  0  0  0  0
  -18.9480  -30.1477   23.8887 C   0  0  0  0  0  0
  -17.6476  -30.6600   24.0563 C   0  0  0  0  0  0
  -25.9072  -34.9422   23.5072 C   0  0  0  0  0  0
  -16.5368  -29.9093   23.6335 C   0  0  0  0  0  0
  -16.7292  -28.6509   23.0363 C   0  0  0  0  0  0
  -26.4512  -31.6578   25.0702 C   0  0  0  0  0  0
  -25.3697  -31.3765   26.1400 C   0  0  0  0  0  0
  -27.0373  -30.2983   24.6259 C   0  0  0  0  0  0
  -27.6052  -32.4338   25.7480 C   0  0  0  0  0  0
  -27.5583  -37.1790   24.8469 C   0  0  0  0  0  0
  -21.4249  -29.3054   22.3622 N   0  0  0  0  0  0
  -26.4294  -37.3761   23.9410 N   0  0  0  0  0  0
  -24.7131  -31.0351   22.0916 N   0  0  0  0  0  0
  -23.4208  -28.8123   23.3020 O   0  0  0  0  0  0
  -28.2911  -26.2122   20.1952 O   0  0  0  0  0  0
  -26.5656  -34.8914   22.4648 O   0  0  0  0  0  0
  -23.5534  -32.1336   23.7138 O   0  0  0  0  0  0
  -28.3348  -20.9481   20.1421 C   0  0  0  0  0  0
  -29.3634  -21.9363   20.2926 C   0  0  0  0  0  0
  -30.6137  -21.2561   20.4546 C   0  0  0  0  0  0
  -29.7715  -19.0270   20.2935 C   0  0  0  0  0  0
  -32.3044  -22.1279   22.1370 C   0  0  0  0  0  0
  -29.9787  -17.3057   18.3846 C   0  0  0  0  0  0
  -29.0214  -16.3051   21.8135 C   0  0  0  0  0  0
  -29.2935  -23.5907   20.3049 C   0  0  0  0  0  0
  -31.9183  -22.0155   20.6572 C   0  0  0  0  0  0
  -28.0600  -24.6837   20.1038 C   0  0  0  0  0  0
  -30.1783  -17.4762   19.9021 C   0  0  2  0  0  0
  -28.5401  -19.5654   20.1258 N   0  0  0  0  0  0
  -30.7851  -19.8907   20.4502 N   0  0  0  0  0  0
  -29.8477  -16.1173   20.6191 N   0  0  0  0  0  0
  -31.4731  -12.7104   19.1804 H   0  0  0  0  0  0
  -30.4242  -11.5997   20.0030 H   0  0  0  0  0  0
  -29.8296  -11.7540   17.5606 H   0  0  0  0  0  0
  -29.6164  -13.4814   17.7059 H   0  0  0  0  0  0
  -27.9285  -11.2871   18.9429 H   0  0  0  0  0  0
  -27.3871  -12.4952   17.8077 H   0  0  0  0  0  0
  -27.6156  -14.2598   19.4545 H   0  0  0  0  0  0
  -28.7663  -12.1980   21.3904 H   0  0  0  0  0  0
  -28.3620  -13.8216   21.8172 H   0  0  0  0  0  0
  -25.2778   -9.5684   22.4743 H   0  0  0  0  0  0
  -24.0010   -7.4635   22.7474 H   0  0  0  0  0  0
  -21.0841   -8.8779   19.8956 H   0  0  0  0  0  0
  -22.3708  -10.9670   19.6158 H   0  0  0  0  0  0
  -21.2006   -7.6147   23.9725 H   0  0  0  0  0  0
  -21.1484   -6.0512   25.9077 H   0  0  0  0  0  0
  -22.0597   -2.7611   23.2833 H   0  0  0  0  0  0
  -22.4083  -11.9878   22.4815 H   0  0  0  0  0  0
  -21.1083  -13.1250   22.2643 H   0  0  0  0  0  0
  -24.6506  -15.8484   20.5327 H   0  0  0  0  0  0
  -26.2687  -15.6359   20.0959 H   0  0  0  0  0  0
  -26.7254  -32.5336   23.0997 H   0  0  0  0  0  0
  -25.0077  -33.9637   25.0338 H   0  0  0  0  0  0
  -22.7437  -31.2922   21.3835 H   0  0  0  0  0  0
  -23.3769  -35.9576   23.3299 H   0  0  0  0  0  0
  -24.3571  -36.8892   22.2056 H   0  0  0  0  0  0
  -23.7231  -37.6449   23.6673 H   0  0  0  0  0  0
  -26.1484  -31.4865   20.6125 H   0  0  0  0  0  0
  -26.8678  -30.7788   22.0238 H   0  0  0  0  0  0
  -28.1330  -28.8327   21.2135 H   0  0  0  0  0  0
  -25.9186  -25.8456   19.0165 H   0  0  0  0  0  0
  -23.9728  -27.2934   18.9973 H   0  0  0  0  0  0
  -23.8004  -30.5702   19.3980 H   0  0  0  0  0  0
  -22.7811  -29.2368   19.8465 H   0  0  0  0  0  0
  -25.1315  -36.1882   25.0812 H   0  0  0  0  0  0
  -21.0009  -28.3318   24.1371 H   0  0  0  0  0  0
  -20.5712  -26.2332   23.3627 H   0  0  0  0  0  0
  -21.6660  -26.7458   22.1194 H   0  0  0  0  0  0
  -19.6922  -25.6300   21.1264 H   0  0  0  0  0  0
  -19.6697  -27.3195   20.6744 H   0  0  0  0  0  0
  -17.4216  -26.6695   21.4036 H   0  0  0  0  0  0
  -18.0338  -26.0092   22.9032 H   0  0  0  0  0  0
  -19.7953  -30.7300   24.2250 H   0  0  0  0  0  0
  -17.5028  -31.6277   24.5172 H   0  0  0  0  0  0
  -15.5369  -30.2992   23.7667 H   0  0  0  0  0  0
  -15.8692  -28.0821   22.7090 H   0  0  0  0  0  0
  -24.5862  -30.7138   25.7704 H   0  0  0  0  0  0
  -24.8900  -32.2950   26.4790 H   0  0  0  0  0  0
  -25.7969  -30.8940   27.0199 H   0  0  0  0  0  0
  -26.2979  -29.6714   24.1265 H   0  0  0  0  0  0
  -27.4002  -29.7274   25.4816 H   0  0  0  0  0  0
  -27.8876  -30.4237   23.9554 H   0  0  0  0  0  0
  -27.2653  -33.3657   26.2009 H   0  0  0  0  0  0
  -28.3878  -32.6874   25.0316 H   0  0  0  0  0  0
  -28.0697  -31.8494   26.5434 H   0  0  0  0  0  0
  -28.2604  -38.0084   24.7522 H   0  0  0  0  0  0
  -28.1077  -36.2619   24.6296 H   0  0  0  0  0  0
  -27.2293  -37.1435   25.8868 H   0  0  0  0  0  0
  -20.9458  -29.8740   21.6781 H   0  0  0  0  0  0
  -26.0169  -38.2832   24.1412 H   0  0  0  0  0  0
  -27.3119  -21.2649   20.0041 H   0  0  0  0  0  0
  -33.2491  -22.6601   22.2502 H   0  0  0  0  0  0
  -32.4190  -21.1410   22.5864 H   0  0  0  0  0  0
  -31.5437  -22.6692   22.6991 H   0  0  0  0  0  0
  -30.4858  -18.1025   17.8396 H   0  0  0  0  0  0
  -28.9205  -17.3552   18.1279 H   0  0  0  0  0  0
  -30.3702  -16.3595   18.0129 H   0  0  0  0  0  0
  -29.3244  -15.6431   22.6269 H   0  0  0  0  0  0
  -27.9719  -16.1217   21.5842 H   0  0  0  0  0  0
  -29.0972  -17.3161   22.2108 H   0  0  0  0  0  0
  -30.0055  -23.8882   19.5352 H   0  0  0  0  0  0
  -29.7659  -23.8718   21.2466 H   0  0  0  0  0  0
  -31.8823  -23.0040   20.2054 H   0  0  0  0  0  0
  -32.7105  -21.4938   20.1185 H   0  0  0  0  0  0
  -27.2822  -24.4387   20.8273 H   0  0  0  0  0  0
  -27.6278  -24.4801   19.1244 H   0  0  0  0  0  0
  -31.2619  -17.5055   20.0263 H   0  0  0  0  0  0
  1 25  1  0  0  0
  1 30  2  0  0  0
  1 84  1  0  0  0
  2  3  1  0  0  0
  2 25  1  0  0  0
  2 85  1  0  0  0
  2 86  1  0  0  0
  3  4  1  0  0  0
  3 87  1  0  0  0
  3 88  1  0  0  0
  4  5  1  0  0  0
  4 89  1  0  0  0
  4 90  1  0  0  0
  5  6  1  0  0  0
  5 26  1  0  0  0
  5 91  1  0  0  0
  6 25  1  0  0  0
  6 92  1  0  0  0
  6 93  1  0  0  0
  7  8  2  0  0  0
  7 26  1  0  0  0
  7 29  1  0  0  0
  8  9  1  0  0  0
  8 22  1  0  0  0
  9 10  1  0  0  0
  9 27  2  0  0  0
 10 11  2  0  0  0
 10 15  1  0  0  0
 11 12  1  0  0  0
 11 94  1  0  0  0
 12 13  2  0  0  0
 12 95  1  0  0  0
 13 14  1  0  0  0
 13 31  1  0  0  0
 14 15  2  0  0  0
 14 96  1  0  0  0
 15 97  1  0  0  0
 16 17  2  0  0  0
 16 21  1  0  0  0
 16 31  1  0  0  0
 17 18  1  0  0  0
 17 98  1  0  0  0
 18 19  2  0  0  0
 18 99  1  0  0  0
 19 20  1  0  0  0
 19 24  1  0  0  0
 20 21  2  0  0  0
 20100  1  0  0  0
 21 23  1  0  0  0
 22 28  1  0  0  0
 22 32  2  0  0  0
 26 27  1  0  0  0
 28101  1  0  0  0
 28102  1  0  0  0
 29103  1  0  0  0
 29104  1  0  0  0
 33 34  1  0  0  0
 33 66  1  0  0  0
 33 70  2  0  0  0
 34 36  1  0  0  0
 34 59  1  0  0  0
 34105  1  0  0  0
 35 44  2  0  0  0
 35 45  1  0  0  0
 35 68  1  0  0  0
 36 56  1  0  0  0
 36106  1  0  0  0
 37 39  1  0  0  0
 37 47  1  0  0  0
 37 66  1  0  0  0
 37107  1  0  0  0
 38 43  2  0  0  0
 38 46  1  0  0  0
 38 47  1  0  0  0
 39 64  1  0  0  0
 39 67  2  0  0  0
 40 52  1  0  0  0
 40 53  2  0  0  0
 40 58  1  0  0  0
 41108  1  0  0  0
 41109  1  0  0  0
 41110  1  0  0  0
 41 48  1  0  0  0
 42 43  1  0  0  0
 42 66  1  0  0  0
 42111  1  0  0  0
 42112  1  0  0  0
 43 44  1  0  0  0
 44113  1  0  0  0
 45 46  2  0  0  0
 45114  1  0  0  0
 46115  1  0  0  0
 47116  1  0  0  0
 47117  1  0  0  0
 48 56  1  0  0  0
 48 65  1  0  0  0
 48118  1  0  0  0
 49 50  1  0  0  0
 49 53  1  0  0  0
 49 64  1  0  0  0
 49119  1  0  0  0
 50 51  1  0  0  0
 50120  1  0  0  0
 50121  1  0  0  0
 51 52  1  0  0  0
 51122  1  0  0  0
 51123  1  0  0  0
 52124  1  0  0  0
 52125  1  0  0  0
 53 54  1  0  0  0
 54 55  2  0  0  0
 54126  1  0  0  0
 55 57  1  0  0  0
 55127  1  0  0  0
 56 69  2  0  0  0
 57 58  2  0  0  0
 57128  1  0  0  0
 58129  1  0  0  0
 59 60  1  0  0  0
 59 61  1  0  0  0
 59 62  1  0  0  0
 60130  1  0  0  0
 60131  1  0  0  0
 60132  1  0  0  0
 61133  1  0  0  0
 61134  1  0  0  0
 61135  1  0  0  0
 62136  1  0  0  0
 62137  1  0  0  0
 62138  1  0  0  0
 63 65  1  0  0  0
 63139  1  0  0  0
 63140  1  0  0  0
 63141  1  0  0  0
 64142  1  0  0  0
 65143  1  0  0  0
 68 80  1  0  0  0
 71 72  2  0  0  0
 71 82  1  0  0  0
 71144  1  0  0  0
 72 73  1  0  0  0
 72 78  1  0  0  0
 73 79  1  0  0  0
 73 83  2  0  0  0
 74 81  1  0  0  0
 74 82  2  0  0  0
 74 83  1  0  0  0
 75 79  1  0  0  0
 75145  1  0  0  0
 75146  1  0  0  0
 75147  1  0  0  0
 76148  1  0  0  0
 76149  1  0  0  0
 76150  1  0  0  0
 76 81  1  0  0  0
 77 84  1  0  0  0
 77151  1  0  0  0
 77152  1  0  0  0
 77153  1  0  0  0
 78 80  1  0  0  0
 78154  1  0  0  0
 78155  1  0  0  0
 79156  1  0  0  0
 79157  1  0  0  0
 80158  1  0  0  0
 80159  1  0  0  0
 81 84  1  0  0  0
 81160  1  0  0  0
M  ISO  4   1 100  68 101  80 101  84 100
M  END
> <chiral flag>
0

> <version>
0

> <s_m_source_file>
/data/baiqing/PycharmProjects/Reinvent-master-3.2/result/LINK_invent/BTK/process_docking_weight1_custom_sum_contain_oxygen_bond_distance_aromatic_linkinvent_7_9_3/rearranged_h_0059.sdf

> <i_m_source_file_index>
29

> <r_mmod_Potential_Energy-OPLS-2005>
34.5371627807617

> <r_mmod_Stretch_Energy-OPLS-2005>
214.834518432617

> <r_mmod_Bend_Energy-OPLS-2005>
281.828979492188

> <r_mmod_Torsional_Energy-OPLS-2005>
240.36296081543

> <r_mmod_Improper_Torsional_Energy-OPLS-2005>
11.6452188491821

> <r_mmod_Van_der_Waal_Energy-OPLS-2005>
143.494476318359

> <r_mmod_Electrostatic_Energy-OPLS-2005>
-797.8525390625

> <r_mmod_Solvation_Energy-OPLS-2005>
-213.779006958008

> <b_mmod_Minimization_Converged-OPLS-2005>
0

> <r_mmod_RMS_Derivative-OPLS-2005>
1.04225993156433

$$$$
29
                    3D
 Structure written by MMmdl.
144152  0  0  1  0            999 V2000
  -30.3823  -15.4238   20.3445 C   0  0  0  0  0  0
  -30.4325  -12.9181   19.5485 C   0  0  0  0  0  0
  -29.5448  -12.6125   18.3121 C   0  0  0  0  0  0
  -28.1019  -12.3028   18.7406 C   0  0  0  0  0  0
  -27.6057  -13.2911   19.8231 C   0  0  2  0  0  0
  -28.6291  -13.5329   20.9564 C   0  0  0  0  0  0
  -25.2355  -13.8269   20.5767 C   0  0  0  0  0  0
  -24.1725  -13.0437   20.9269 C   0  0  0  0  0  0
  -24.6403  -11.6941   20.8762 C   0  0  0  0  0  0
  -23.9103  -10.4294   21.0401 C   0  0  0  0  0  0
  -24.3644   -9.4207   21.9181 C   0  0  0  0  0  0
  -23.6309   -8.2246   22.0753 C   0  0  0  0  0  0
  -22.4290   -8.0285   21.3544 C   0  0  0  0  0  0
  -21.9933   -9.0260   20.4644 C   0  0  0  0  0  0
  -22.7272  -10.2134   20.3052 C   0  0  0  0  0  0
  -21.6858   -6.0740   22.5279 C   0  0  0  0  0  0
  -21.4018   -6.5642   23.8212 C   0  0  0  0  0  0
  -21.3660   -5.6794   24.9174 C   0  0  0  0  0  0
  -21.6044   -4.3056   24.7224 C   0  0  0  0  0  0
  -21.8819   -3.8149   23.4345 C   0  0  0  0  0  0
  -21.9194   -4.6966   22.3401 C   0  0  0  0  0  0
  -22.7740  -13.5178   21.1911 C   0  0  0  0  0  0
  -22.1662   -4.2152   21.0979 F   0  0  0  0  0  0
  -21.5628   -3.4539   25.7736 F   0  0  0  0  0  0
  -29.8438  -14.0856   20.3270 N   0  0  0  0  0  0
  -26.2794  -12.9571   20.3233 N   0  0  0  0  0  0
  -25.9345  -11.6660   20.5717 N   0  0  0  0  0  0
  -22.0404  -12.8155   22.0464 N   0  0  0  0  0  0
  -25.3970  -15.2007   20.4206 N   0  0  0  0  0  0
  -31.5988  -15.3998   20.0946 O   0  0  0  0  0  0
  -21.6647   -6.8886   21.4242 O   0  0  0  0  0  0
  -22.3416  -14.5477   20.6750 O   0  0  0  0  0  0
  -24.6723  -31.8122   23.1619 C   0  0  0  0  0  0
  -25.9359  -32.4528   23.8120 C   0  0  1  0  0  0
  -27.2220  -26.8211   20.1954 C   0  0  0  0  0  0
  -25.5986  -33.8349   24.2014 N   0  0  0  0  0  0
  -23.4929  -30.4192   21.5125 C   0  0  2  0  0  0
  -24.9500  -28.7876   20.1098 C   0  0  0  0  0  0
  -22.7715  -29.4377   22.4741 C   0  0  0  0  0  0
  -18.0330  -28.1415   22.8461 C   0  0  0  0  0  0
  -24.1495  -36.7180   23.2649 C   0  0  0  0  0  0
  -26.0675  -30.5822   21.4112 C   0  0  0  0  0  0
  -26.1336  -29.1611   20.7571 C   0  0  0  0  0  0
  -27.2563  -28.1995   20.7776 C   0  0  0  0  0  0
  -26.0142  -26.6354   19.4794 C   0  0  0  0  0  0
  -24.9227  -27.5484   19.4489 C   0  0  0  0  0  0
  -23.7398  -29.7273   20.1419 C   0  0  0  0  0  0
  -25.4140  -36.2932   24.0290 C   0  0  1  0  0  0
  -20.5960  -28.3766   23.1165 C   0  0  2  0  0  0
  -20.6801  -26.9437   22.5403 C   0  0  0  0  0  0
  -19.5776  -26.6374   21.5215 C   0  0  0  0  0  0
  -18.1959  -26.7945   22.1620 C   0  0  0  0  0  0
  -19.1594  -28.8913   23.2797 C   0  0  0  0  0  0
  -18.9502  -30.1500   23.8837 C   0  0  0  0  0  0
  -17.6493  -30.6600   24.0552 C   0  0  0  0  0  0
  -25.9112  -34.9318   23.4982 C   0  0  0  0  0  0
  -16.5383  -29.9085   23.6347 C   0  0  0  0  0  0
  -16.7311  -28.6506   23.0365 C   0  0  0  0  0  0
  -26.4576  -31.6519   25.0696 C   0  0  0  0  0  0
  -25.3672  -31.3802   26.1331 C   0  0  0  0  0  0
  -27.0495  -30.2871   24.6519 C   0  0  0  0  0  0
  -27.6044  -32.4358   25.7506 C   0  0  0  0  0  0
  -27.5568  -37.1747   24.8466 C   0  0  0  0  0  0
  -21.4373  -29.3035   22.3497 N   0  0  0  0  0  0
  -26.4276  -37.3680   23.9407 N   0  0  0  0  0  0
  -24.7663  -30.9681   22.0813 N   0  0  0  0  0  0
  -23.4213  -28.7961   23.3032 O   0  0  0  0  0  0
  -28.1905  -25.6520   20.3219 O   0  0  0  0  0  0
  -26.5738  -34.8873   22.4588 O   0  0  0  0  0  0
  -23.5769  -32.1145   23.6644 O   0  0  0  0  0  0
  -29.0970  -20.6629   21.7692 C   0  0  0  0  0  0
  -28.7603  -22.0354   21.6965 C   0  0  0  0  0  0
  -29.2016  -20.0420   20.4706 C   0  0  0  0  0  0
  -29.7979  -18.3894   20.0075 C   0  0  0  0  0  0
  -27.9501  -24.0728   19.8574 C   0  0  0  0  0  0
  -28.8747  -21.2538   19.6951 N   0  0  0  0  0  0
  -28.6019  -22.5606   20.4036 N   0  0  0  0  0  0
  -29.6261  -16.7360   20.4437 N   0  0  0  0  0  0
  -31.4458  -13.1356   19.2092 H   0  0  0  0  0  0
  -30.5284  -12.0350   20.1826 H   0  0  0  0  0  0
  -29.9563  -11.7786   17.7418 H   0  0  0  0  0  0
  -29.5492  -13.4747   17.6435 H   0  0  0  0  0  0
  -28.0858  -11.2875   19.1388 H   0  0  0  0  0  0
  -27.4346  -12.3057   17.8778 H   0  0  0  0  0  0
  -27.5000  -14.2403   19.2962 H   0  0  0  0  0  0
  -28.8309  -12.6202   21.5190 H   0  0  0  0  0  0
  -28.2352  -14.2566   21.6715 H   0  0  0  0  0  0
  -25.2784   -9.5682   22.4764 H   0  0  0  0  0  0
  -24.0012   -7.4638   22.7477 H   0  0  0  0  0  0
  -21.0863   -8.8785   19.8950 H   0  0  0  0  0  0
  -22.3729  -10.9675   19.6163 H   0  0  0  0  0  0
  -21.2012   -7.6150   23.9717 H   0  0  0  0  0  0
  -21.1482   -6.0524   25.9077 H   0  0  0  0  0  0
  -22.0596   -2.7611   23.2844 H   0  0  0  0  0  0
  -22.4045  -11.9829   22.4857 H   0  0  0  0  0  0
  -21.1012  -13.1152   22.2666 H   0  0  0  0  0  0
  -24.6241  -15.8483   20.5310 H   0  0  0  0  0  0
  -26.2343  -15.6421   20.0640 H   0  0  0  0  0  0
  -26.7432  -32.5032   23.0830 H   0  0  0  0  0  0
  -25.0063  -33.9409   25.0119 H   0  0  0  0  0  0
  -22.8117  -31.2537   21.3333 H   0  0  0  0  0  0
  -23.3772  -35.9494   23.3269 H   0  0  0  0  0  0
  -24.3567  -36.8877   22.2072 H   0  0  0  0  0  0
  -23.7238  -37.6346   23.6743 H   0  0  0  0  0  0
  -26.2610  -31.3161   20.6278 H   0  0  0  0  0  0
  -26.9222  -30.6427   22.0726 H   0  0  0  0  0  0
  -28.1431  -28.4816   21.3276 H   0  0  0  0  0  0
  -25.8644  -25.6982   18.9648 H   0  0  0  0  0  0
  -24.0284  -27.2583   18.9145 H   0  0  0  0  0  0
  -23.9030  -30.4928   19.3825 H   0  0  0  0  0  0
  -22.8476  -29.1866   19.8214 H   0  0  0  0  0  0
  -25.1345  -36.1711   25.0781 H   0  0  0  0  0  0
  -21.0046  -28.3384   24.1289 H   0  0  0  0  0  0
  -20.5671  -26.2388   23.3655 H   0  0  0  0  0  0
  -21.6663  -26.7394   22.1217 H   0  0  0  0  0  0
  -19.6933  -25.6268   21.1284 H   0  0  0  0  0  0
  -19.6717  -27.3150   20.6718 H   0  0  0  0  0  0
  -17.4228  -26.6687   21.4024 H   0  0  0  0  0  0
  -18.0350  -26.0102   22.9031 H   0  0  0  0  0  0
  -19.7977  -30.7332   24.2181 H   0  0  0  0  0  0
  -17.5044  -31.6274   24.5166 H   0  0  0  0  0  0
  -15.5381  -30.2967   23.7705 H   0  0  0  0  0  0
  -15.8712  -28.0804   22.7115 H   0  0  0  0  0  0
  -24.5880  -30.7125   25.7637 H   0  0  0  0  0  0
  -24.8834  -32.3013   26.4591 H   0  0  0  0  0  0
  -25.7878  -30.9079   27.0217 H   0  0  0  0  0  0
  -26.3191  -29.6512   24.1506 H   0  0  0  0  0  0
  -27.3958  -29.7281   25.5222 H   0  0  0  0  0  0
  -27.9158  -30.4022   24.0003 H   0  0  0  0  0  0
  -27.2594  -33.3715   26.1919 H   0  0  0  0  0  0
  -28.3940  -32.6831   25.0398 H   0  0  0  0  0  0
  -28.0619  -31.8599   26.5561 H   0  0  0  0  0  0
  -28.2558  -38.0068   24.7516 H   0  0  0  0  0  0
  -28.1091  -36.2592   24.6291 H   0  0  0  0  0  0
  -27.2282  -37.1382   25.8867 H   0  0  0  0  0  0
  -20.9651  -29.8708   21.6595 H   0  0  0  0  0  0
  -26.0113  -38.2733   24.1419 H   0  0  0  0  0  0
  -29.2756  -20.1478   22.7030 H   0  0  0  0  0  0
  -28.5919  -22.7069   22.5275 H   0  0  0  0  0  0
  -30.8829  -18.4905   20.0392 H   0  0  0  0  0  0
  -29.6003  -18.3342   18.9371 H   0  0  0  0  0  0
  -26.8754  -23.9302   19.9653 H   0  0  0  0  0  0
  -28.1305  -24.0805   18.7826 H   0  0  0  0  0  0
  -28.6707  -16.5535   20.7130 H   0  0  0  0  0  0
  1 25  1  0  0  0
  1 30  2  0  0  0
  1 78  1  0  0  0
  2  3  1  0  0  0
  2 25  1  0  0  0
  2 79  1  0  0  0
  2 80  1  0  0  0
  3  4  1  0  0  0
  3 81  1  0  0  0
  3 82  1  0  0  0
  4  5  1  0  0  0
  4 83  1  0  0  0
  4 84  1  0  0  0
  5  6  1  0  0  0
  5 26  1  0  0  0
  5 85  1  0  0  0
  6 25  1  0  0  0
  6 86  1  0  0  0
  6 87  1  0  0  0
  7  8  2  0  0  0
  7 26  1  0  0  0
  7 29  1  0  0  0
  8  9  1  0  0  0
  8 22  1  0  0  0
  9 10  1  0  0  0
  9 27  2  0  0  0
 10 11  2  0  0  0
 10 15  1  0  0  0
 11 12  1  0  0  0
 11 88  1  0  0  0
 12 13  2  0  0  0
 12 89  1  0  0  0
 13 14  1  0  0  0
 13 31  1  0  0  0
 14 15  2  0  0  0
 14 90  1  0  0  0
 15 91  1  0  0  0
 16 17  2  0  0  0
 16 21  1  0  0  0
 16 31  1  0  0  0
 17 18  1  0  0  0
 17 92  1  0  0  0
 18 19  2  0  0  0
 18 93  1  0  0  0
 19 20  1  0  0  0
 19 24  1  0  0  0
 20 21  2  0  0  0
 20 94  1  0  0  0
 21 23  1  0  0  0
 22 28  1  0  0  0
 22 32  2  0  0  0
 26 27  1  0  0  0
 28 95  1  0  0  0
 28 96  1  0  0  0
 29 97  1  0  0  0
 29 98  1  0  0  0
 33 34  1  0  0  0
 33 66  1  0  0  0
 33 70  2  0  0  0
 34 36  1  0  0  0
 34 59  1  0  0  0
 34 99  1  0  0  0
 35 44  2  0  0  0
 35 45  1  0  0  0
 35 68  1  0  0  0
 36 56  1  0  0  0
 36100  1  0  0  0
 37 39  1  0  0  0
 37 47  1  0  0  0
 37 66  1  0  0  0
 37101  1  0  0  0
 38 43  2  0  0  0
 38 46  1  0  0  0
 38 47  1  0  0  0
 39 64  1  0  0  0
 39 67  2  0  0  0
 40 52  1  0  0  0
 40 53  2  0  0  0
 40 58  1  0  0  0
 41102  1  0  0  0
 41103  1  0  0  0
 41104  1  0  0  0
 41 48  1  0  0  0
 42 43  1  0  0  0
 42 66  1  0  0  0
 42105  1  0  0  0
 42106  1  0  0  0
 43 44  1  0  0  0
 44107  1  0  0  0
 45 46  2  0  0  0
 45108  1  0  0  0
 46109  1  0  0  0
 47110  1  0  0  0
 47111  1  0  0  0
 48 56  1  0  0  0
 48 65  1  0  0  0
 48112  1  0  0  0
 49 50  1  0  0  0
 49 53  1  0  0  0
 49 64  1  0  0  0
 49113  1  0  0  0
 50 51  1  0  0  0
 50114  1  0  0  0
 50115  1  0  0  0
 51 52  1  0  0  0
 51116  1  0  0  0
 51117  1  0  0  0
 52118  1  0  0  0
 52119  1  0  0  0
 53 54  1  0  0  0
 54 55  2  0  0  0
 54120  1  0  0  0
 55 57  1  0  0  0
 55121  1  0  0  0
 56 69  2  0  0  0
 57 58  2  0  0  0
 57122  1  0  0  0
 58123  1  0  0  0
 59 60  1  0  0  0
 59 61  1  0  0  0
 59 62  1  0  0  0
 60124  1  0  0  0
 60125  1  0  0  0
 60126  1  0  0  0
 61127  1  0  0  0
 61128  1  0  0  0
 61129  1  0  0  0
 62130  1  0  0  0
 62131  1  0  0  0
 62132  1  0  0  0
 63 65  1  0  0  0
 63133  1  0  0  0
 63134  1  0  0  0
 63135  1  0  0  0
 64136  1  0  0  0
 65137  1  0  0  0
 68 75  1  0  0  0
 71 72  2  0  0  0
 71 73  1  0  0  0
 71138  1  0  0  0
 72 77  1  0  0  0
 72139  1  0  0  0
 73 74  1  0  0  0
 73 76  2  0  0  0
 74 78  1  0  0  0
 74140  1  0  0  0
 74141  1  0  0  0
 75 77  1  0  0  0
 75142  1  0  0  0
 75143  1  0  0  0
 76 77  1  0  0  0
 78144  1  0  0  0
M  ISO  4   1 100  68 101  75 101  78 100
M  END
> <chiral flag>
0

> <version>
0

> <s_m_source_file>
/data/baiqing/PycharmProjects/Reinvent-master-3.2/result/LINK_invent/BTK/process_docking_weight1_custom_sum_contain_oxygen_bond_distance_aromatic_linkinvent_7_9_3/rearranged_h_0059.sdf

> <i_m_source_file_index>
30

> <r_mmod_Potential_Energy-OPLS-2005>
1588.41394042969

> <r_mmod_Stretch_Energy-OPLS-2005>
760.847473144531

> <r_mmod_Bend_Energy-OPLS-2005>
539.751403808594

> <r_mmod_Torsional_Energy-OPLS-2005>
211.906127929688

> <r_mmod_Improper_Torsional_Energy-OPLS-2005>
6.80383443832397

> <r_mmod_Van_der_Waal_Energy-OPLS-2005>
108.944747924805

> <r_mmod_Electrostatic_Energy-OPLS-2005>
-435.638061523438

> <r_mmod_Solvation_Energy-OPLS-2005>
-244.397598266602

> <b_mmod_Minimization_Converged-OPLS-2005>
1

> <r_mmod_RMS_Derivative-OPLS-2005>
0.0375110320746899

$$$$
30
                    3D
 Structure written by MMmdl.
156164  0  0  1  0            999 V2000
  -30.5143  -14.9701   20.4850 C   0  0  0  0  0  0
  -30.4471  -12.6088   19.5000 C   0  0  0  0  0  0
  -29.5261  -12.5465   18.2574 C   0  0  0  0  0  0
  -28.0599  -12.3162   18.6711 C   0  0  0  0  0  0
  -27.6325  -13.2417   19.8367 C   0  0  2  0  0  0
  -28.6690  -13.2453   20.9747 C   0  0  0  0  0  0
  -25.2496  -13.8200   20.5704 C   0  0  0  0  0  0
  -24.1795  -13.0432   20.9212 C   0  0  0  0  0  0
  -24.6396  -11.6916   20.8737 C   0  0  0  0  0  0
  -23.9074  -10.4294   21.0406 C   0  0  0  0  0  0
  -24.3623   -9.4214   21.9187 C   0  0  0  0  0  0
  -23.6297   -8.2250   22.0754 C   0  0  0  0  0  0
  -22.4280   -8.0286   21.3543 C   0  0  0  0  0  0
  -21.9915   -9.0260   20.4648 C   0  0  0  0  0  0
  -22.7244  -10.2140   20.3059 C   0  0  0  0  0  0
  -21.6855   -6.0736   22.5276 C   0  0  0  0  0  0
  -21.4014   -6.5636   23.8209 C   0  0  0  0  0  0
  -21.3662   -5.6790   24.9172 C   0  0  0  0  0  0
  -21.6047   -4.3053   24.7223 C   0  0  0  0  0  0
  -21.8819   -3.8146   23.4342 C   0  0  0  0  0  0
  -21.9195   -4.6964   22.3398 C   0  0  0  0  0  0
  -22.7824  -13.5218   21.1882 C   0  0  0  0  0  0
  -22.1665   -4.2148   21.0976 F   0  0  0  0  0  0
  -21.5631   -3.4537   25.7736 F   0  0  0  0  0  0
  -29.9502  -13.6895   20.4044 N   0  0  0  0  0  0
  -26.2896  -12.9409   20.3208 N   0  0  0  0  0  0
  -25.9324  -11.6548   20.5700 N   0  0  0  0  0  0
  -22.0482  -12.8200   22.0441 N   0  0  0  0  0  0
  -25.4188  -15.1928   20.4165 N   0  0  0  0  0  0
  -31.6717  -15.0675   20.0553 O   0  0  0  0  0  0
  -21.6642   -6.8883   21.4237 O   0  0  0  0  0  0
  -22.3507  -14.5531   20.6747 O   0  0  0  0  0  0
  -24.6461  -31.8430   23.1865 C   0  0  0  0  0  0
  -25.9227  -32.4689   23.8266 C   0  0  1  0  0  0
  -27.2195  -27.1112   20.1485 C   0  0  0  0  0  0
  -25.5962  -33.8494   24.2182 N   0  0  0  0  0  0
  -23.4521  -30.4608   21.5325 C   0  0  2  0  0  0
  -24.9021  -28.8825   20.1084 C   0  0  0  0  0  0
  -22.7592  -29.4541   22.4851 C   0  0  0  0  0  0
  -18.0309  -28.1395   22.8489 C   0  0  0  0  0  0
  -24.1486  -36.7238   23.2642 C   0  0  0  0  0  0
  -26.0096  -30.7059   21.3915 C   0  0  0  0  0  0
  -26.0800  -29.3149   20.7308 C   0  0  0  0  0  0
  -27.2381  -28.4454   20.7337 C   0  0  0  0  0  0
  -26.0163  -26.7905   19.4814 C   0  0  0  0  0  0
  -24.8842  -27.6351   19.4676 C   0  0  0  0  0  0
  -23.6807  -29.7889   20.1527 C   0  0  0  0  0  0
  -25.4116  -36.3026   24.0320 C   0  0  1  0  0  0
  -20.5928  -28.3729   23.1217 C   0  0  2  0  0  0
  -20.6792  -26.9429   22.5398 C   0  0  0  0  0  0
  -19.5765  -26.6385   21.5208 C   0  0  0  0  0  0
  -18.1947  -26.7938   22.1619 C   0  0  0  0  0  0
  -19.1570  -28.8880   23.2847 C   0  0  0  0  0  0
  -18.9486  -30.1474   23.8874 C   0  0  0  0  0  0
  -17.6484  -30.6595   24.0558 C   0  0  0  0  0  0
  -25.9078  -34.9405   23.5065 C   0  0  0  0  0  0
  -16.5375  -29.9088   23.6336 C   0  0  0  0  0  0
  -16.7292  -28.6500   23.0368 C   0  0  0  0  0  0
  -26.4546  -31.6565   25.0720 C   0  0  0  0  0  0
  -25.3717  -31.3750   26.1406 C   0  0  0  0  0  0
  -27.0415  -30.2960   24.6318 C   0  0  0  0  0  0
  -27.6083  -32.4344   25.7489 C   0  0  0  0  0  0
  -27.5581  -37.1757   24.8463 C   0  0  0  0  0  0
  -21.4280  -29.3048   22.3589 N   0  0  0  0  0  0
  -26.4277  -37.3743   23.9432 N   0  0  0  0  0  0
  -24.7225  -31.0255   22.0917 N   0  0  0  0  0  0
  -23.4227  -28.8099   23.3019 O   0  0  0  0  0  0
  -28.2620  -26.1068   20.2296 O   0  0  0  0  0  0
  -26.5665  -34.8916   22.4646 O   0  0  0  0  0  0
  -23.5575  -32.1327   23.7067 O   0  0  0  0  0  0
  -28.7485  -18.8874   20.6794 C   0  0  0  0  0  0
  -29.2379  -20.1465   20.2495 C   0  0  0  0  0  0
  -29.8190  -17.6797   23.4160 C   0  0  0  0  0  0
  -29.9564  -15.1930   23.5111 C   0  0  0  0  0  0
  -28.5066  -21.6128   19.9593 C   0  0  0  0  0  0
  -28.9213  -23.2027   20.3845 C   0  0  0  0  0  0
  -27.9961  -24.5783   19.9865 C   0  0  0  0  0  0
  -29.7780  -16.3317   21.1436 C   0  0  1  0  0  0
  -30.2793  -16.4263   22.6365 C   0  0  0  0  0  0
  -30.5327  -19.7715   19.8262 N   0  0  0  0  0  0
  -30.8171  -18.4820   20.0478 N   0  0  0  0  0  0
  -29.7304  -17.8248   20.5551 N   0  0  0  0  0  0
  -31.4782  -12.7784   19.1884 H   0  0  0  0  0  0
  -30.4538  -11.6497   20.0208 H   0  0  0  0  0  0
  -29.8526  -11.7548   17.5822 H   0  0  0  0  0  0
  -29.6064  -13.4789   17.6968 H   0  0  0  0  0  0
  -27.9643  -11.2738   18.9785 H   0  0  0  0  0  0
  -27.3947  -12.4447   17.8164 H   0  0  0  0  0  0
  -27.6041  -14.2495   19.4227 H   0  0  0  0  0  0
  -28.7603  -12.2570   21.4276 H   0  0  0  0  0  0
  -28.3295  -13.9071   21.7662 H   0  0  0  0  0  0
  -25.2768   -9.5691   22.4767 H   0  0  0  0  0  0
  -24.0005   -7.4641   22.7475 H   0  0  0  0  0  0
  -21.0845   -8.8784   19.8956 H   0  0  0  0  0  0
  -22.3699  -10.9683   19.6174 H   0  0  0  0  0  0
  -21.2003   -7.6144   23.9710 H   0  0  0  0  0  0
  -21.1484   -6.0522   25.9077 H   0  0  0  0  0  0
  -22.0597   -2.7609   23.2841 H   0  0  0  0  0  0
  -22.4094  -11.9846   22.4801 H   0  0  0  0  0  0
  -21.1115  -13.1243   22.2683 H   0  0  0  0  0  0
  -24.6498  -15.8448   20.5306 H   0  0  0  0  0  0
  -26.2656  -15.6353   20.0833 H   0  0  0  0  0  0
  -26.7293  -32.5295   23.0993 H   0  0  0  0  0  0
  -25.0073  -33.9588   25.0312 H   0  0  0  0  0  0
  -22.7551  -31.2868   21.3770 H   0  0  0  0  0  0
  -23.3776  -35.9539   23.3273 H   0  0  0  0  0  0
  -24.3569  -36.8909   22.2067 H   0  0  0  0  0  0
  -23.7211  -37.6407   23.6701 H   0  0  0  0  0  0
  -26.1689  -31.4607   20.6205 H   0  0  0  0  0  0
  -26.8778  -30.7567   22.0367 H   0  0  0  0  0  0
  -28.1331  -28.7697   21.2454 H   0  0  0  0  0  0
  -25.9182  -25.8390   18.9825 H   0  0  0  0  0  0
  -23.9869  -27.3007   18.9651 H   0  0  0  0  0  0
  -23.8203  -30.5640   19.3989 H   0  0  0  0  0  0
  -22.7940  -29.2347   19.8386 H   0  0  0  0  0  0
  -25.1298  -36.1841   25.0807 H   0  0  0  0  0  0
  -21.0013  -28.3333   24.1339 H   0  0  0  0  0  0
  -20.5683  -26.2346   23.3631 H   0  0  0  0  0  0
  -21.6657  -26.7430   22.1198 H   0  0  0  0  0  0
  -19.6924  -25.6285   21.1261 H   0  0  0  0  0  0
  -19.6697  -27.3179   20.6728 H   0  0  0  0  0  0
  -17.4216  -26.6694   21.4027 H   0  0  0  0  0  0
  -18.0338  -26.0073   22.9008 H   0  0  0  0  0  0
  -19.7961  -30.7294   24.2242 H   0  0  0  0  0  0
  -17.5037  -31.6274   24.5165 H   0  0  0  0  0  0
  -15.5374  -30.2981   23.7675 H   0  0  0  0  0  0
  -15.8693  -28.0810   22.7096 H   0  0  0  0  0  0
  -24.5918  -30.7071   25.7726 H   0  0  0  0  0  0
  -24.8868  -32.2919   26.4771 H   0  0  0  0  0  0
  -25.7998  -30.8975   27.0229 H   0  0  0  0  0  0
  -26.3029  -29.6668   24.1336 H   0  0  0  0  0  0
  -27.4027  -29.7289   25.4902 H   0  0  0  0  0  0
  -27.8943  -30.4205   23.9641 H   0  0  0  0  0  0
  -27.2692  -33.3689   26.1978 H   0  0  0  0  0  0
  -28.3919  -32.6833   25.0317 H   0  0  0  0  0  0
  -28.0717  -31.8520   26.5466 H   0  0  0  0  0  0
  -28.2560  -38.0100   24.7561 H   0  0  0  0  0  0
  -28.1113  -36.2624   24.6212 H   0  0  0  0  0  0
  -27.2297  -37.1306   25.8864 H   0  0  0  0  0  0
  -20.9503  -29.8756   21.6754 H   0  0  0  0  0  0
  -26.0145  -38.2795   24.1493 H   0  0  0  0  0  0
  -27.7692  -18.6561   21.0807 H   0  0  0  0  0  0
  -30.1515  -17.6445   24.4541 H   0  0  0  0  0  0
  -28.7318  -17.7677   23.4270 H   0  0  0  0  0  0
  -30.2322  -18.5999   23.0021 H   0  0  0  0  0  0
  -30.3496  -15.3151   24.5208 H   0  0  0  0  0  0
  -30.4004  -14.2736   23.1302 H   0  0  0  0  0  0
  -28.8805  -15.0438   23.6090 H   0  0  0  0  0  0
  -27.4838  -21.5037   20.3205 H   0  0  0  0  0  0
  -28.3777  -21.6601   18.8772 H   0  0  0  0  0  0
  -29.0405  -23.2121   21.4674 H   0  0  0  0  0  0
  -29.9237  -23.3751   19.9934 H   0  0  0  0  0  0
  -27.0202  -24.3867   20.4328 H   0  0  0  0  0  0
  -27.8292  -24.5028   18.9111 H   0  0  0  0  0  0
  -28.7244  -16.0610   21.1845 H   0  0  0  0  0  0
  -31.3678  -16.4960   22.5886 H   0  0  0  0  0  0
  1 25  1  0  0  0
  1 30  2  0  0  0
  1 78  1  0  0  0
  2  3  1  0  0  0
  2 25  1  0  0  0
  2 83  1  0  0  0
  2 84  1  0  0  0
  3  4  1  0  0  0
  3 85  1  0  0  0
  3 86  1  0  0  0
  4  5  1  0  0  0
  4 87  1  0  0  0
  4 88  1  0  0  0
  5  6  1  0  0  0
  5 26  1  0  0  0
  5 89  1  0  0  0
  6 25  1  0  0  0
  6 90  1  0  0  0
  6 91  1  0  0  0
  7  8  2  0  0  0
  7 26  1  0  0  0
  7 29  1  0  0  0
  8  9  1  0  0  0
  8 22  1  0  0  0
  9 10  1  0  0  0
  9 27  2  0  0  0
 10 11  2  0  0  0
 10 15  1  0  0  0
 11 12  1  0  0  0
 11 92  1  0  0  0
 12 13  2  0  0  0
 12 93  1  0  0  0
 13 14  1  0  0  0
 13 31  1  0  0  0
 14 15  2  0  0  0
 14 94  1  0  0  0
 15 95  1  0  0  0
 16 17  2  0  0  0
 16 21  1  0  0  0
 16 31  1  0  0  0
 17 18  1  0  0  0
 17 96  1  0  0  0
 18 19  2  0  0  0
 18 97  1  0  0  0
 19 20  1  0  0  0
 19 24  1  0  0  0
 20 21  2  0  0  0
 20 98  1  0  0  0
 21 23  1  0  0  0
 22 28  1  0  0  0
 22 32  2  0  0  0
 26 27  1  0  0  0
 28 99  1  0  0  0
 28100  1  0  0  0
 29101  1  0  0  0
 29102  1  0  0  0
 33 34  1  0  0  0
 33 66  1  0  0  0
 33 70  2  0  0  0
 34 36  1  0  0  0
 34 59  1  0  0  0
 34103  1  0  0  0
 35 44  2  0  0  0
 35 45  1  0  0  0
 35 68  1  0  0  0
 36 56  1  0  0  0
 36104  1  0  0  0
 37 39  1  0  0  0
 37 47  1  0  0  0
 37 66  1  0  0  0
 37105  1  0  0  0
 38 43  2  0  0  0
 38 46  1  0  0  0
 38 47  1  0  0  0
 39 64  1  0  0  0
 39 67  2  0  0  0
 40 52  1  0  0  0
 40 53  2  0  0  0
 40 58  1  0  0  0
 41106  1  0  0  0
 41107  1  0  0  0
 41108  1  0  0  0
 41 48  1  0  0  0
 42 43  1  0  0  0
 42 66  1  0  0  0
 42109  1  0  0  0
 42110  1  0  0  0
 43 44  1  0  0  0
 44111  1  0  0  0
 45 46  2  0  0  0
 45112  1  0  0  0
 46113  1  0  0  0
 47114  1  0  0  0
 47115  1  0  0  0
 48 56  1  0  0  0
 48 65  1  0  0  0
 48116  1  0  0  0
 49 50  1  0  0  0
 49 53  1  0  0  0
 49 64  1  0  0  0
 49117  1  0  0  0
 50 51  1  0  0  0
 50118  1  0  0  0
 50119  1  0  0  0
 51 52  1  0  0  0
 51120  1  0  0  0
 51121  1  0  0  0
 52122  1  0  0  0
 52123  1  0  0  0
 53 54  1  0  0  0
 54 55  2  0  0  0
 54124  1  0  0  0
 55 57  1  0  0  0
 55125  1  0  0  0
 56 69  2  0  0  0
 57 58  2  0  0  0
 57126  1  0  0  0
 58127  1  0  0  0
 59 60  1  0  0  0
 59 61  1  0  0  0
 59 62  1  0  0  0
 60128  1  0  0  0
 60129  1  0  0  0
 60130  1  0  0  0
 61131  1  0  0  0
 61132  1  0  0  0
 61133  1  0  0  0
 62134  1  0  0  0
 62135  1  0  0  0
 62136  1  0  0  0
 63 65  1  0  0  0
 63137  1  0  0  0
 63138  1  0  0  0
 63139  1  0  0  0
 64140  1  0  0  0
 65141  1  0  0  0
 68 77  1  0  0  0
 71 72  2  0  0  0
 71 82  1  0  0  0
 71142  1  0  0  0
 72 75  1  0  0  0
 72 80  1  0  0  0
 73143  1  0  0  0
 73144  1  0  0  0
 73145  1  0  0  0
 73 79  1  0  0  0
 74 79  1  0  0  0
 74146  1  0  0  0
 74147  1  0  0  0
 74148  1  0  0  0
 75 76  1  0  0  0
 75149  1  0  0  0
 75150  1  0  0  0
 76 77  1  0  0  0
 76151  1  0  0  0
 76152  1  0  0  0
 77153  1  0  0  0
 77154  1  0  0  0
 78 79  1  0  0  0
 78 82  1  0  0  0
 78155  1  0  0  0
 79156  1  0  0  0
 80 81  2  0  0  0
 81 82  1  0  0  0
M  ISO  4   1 100  68 101  77 101  78 100
M  END
> <chiral flag>
0

> <version>
0

> <s_m_source_file>
/data/baiqing/PycharmProjects/Reinvent-master-3.2/result/LINK_invent/BTK/process_docking_weight1_custom_sum_contain_oxygen_bond_distance_aromatic_linkinvent_7_9_3/rearranged_h_0059.sdf

> <i_m_source_file_index>
31

> <r_mmod_Potential_Energy-OPLS-2005>
627.038879394531

> <r_mmod_Stretch_Energy-OPLS-2005>
296.431945800781

> <r_mmod_Bend_Energy-OPLS-2005>
296.844055175781

> <r_mmod_Torsional_Energy-OPLS-2005>
184.328384399414

> <r_mmod_Improper_Torsional_Energy-OPLS-2005>
4.58370780944824

> <r_mmod_Van_der_Waal_Energy-OPLS-2005>
113.979042053223

> <r_mmod_Electrostatic_Energy-OPLS-2005>
-264.153656005859

> <r_mmod_Solvation_Energy-OPLS-2005>
-214.122268676758

> <b_mmod_Minimization_Converged-OPLS-2005>
0

> <r_mmod_RMS_Derivative-OPLS-2005>
1.47788560390472

$$$$
31
                    3D
 Structure written by MMmdl.
156164  0  0  1  0            999 V2000
  -30.5857  -14.7465   20.4700 C   0  0  0  0  0  0
  -30.4439  -12.4624   19.4592 C   0  0  0  0  0  0
  -29.5134  -12.5127   18.2265 C   0  0  0  0  0  0
  -28.0382  -12.3342   18.6387 C   0  0  0  0  0  0
  -27.6431  -13.2271   19.8452 C   0  0  2  0  0  0
  -28.6872  -13.1428   20.9788 C   0  0  0  0  0  0
  -25.2522  -13.8185   20.5663 C   0  0  0  0  0  0
  -24.1816  -13.0442   20.9198 C   0  0  0  0  0  0
  -24.6401  -11.6917   20.8732 C   0  0  0  0  0  0
  -23.9074  -10.4300   21.0396 C   0  0  0  0  0  0
  -24.3634   -9.4214   21.9169 C   0  0  0  0  0  0
  -23.6306   -8.2253   22.0747 C   0  0  0  0  0  0
  -22.4282   -8.0299   21.3548 C   0  0  0  0  0  0
  -21.9918   -9.0268   20.4644 C   0  0  0  0  0  0
  -22.7246  -10.2145   20.3044 C   0  0  0  0  0  0
  -21.6864   -6.0744   22.5277 C   0  0  0  0  0  0
  -21.4024   -6.5641   23.8212 C   0  0  0  0  0  0
  -21.3655   -5.6788   24.9169 C   0  0  0  0  0  0
  -21.6034   -4.3051   24.7212 C   0  0  0  0  0  0
  -21.8822   -3.8150   23.4332 C   0  0  0  0  0  0
  -21.9203   -4.6972   22.3394 C   0  0  0  0  0  0
  -22.7837  -13.5227   21.1858 C   0  0  0  0  0  0
  -22.1664   -4.2157   21.0970 F   0  0  0  0  0  0
  -21.5628   -3.4535   25.7723 F   0  0  0  0  0  0
  -29.9864  -13.5100   20.3989 N   0  0  0  0  0  0
  -26.2941  -12.9379   20.3224 N   0  0  0  0  0  0
  -25.9324  -11.6525   20.5707 N   0  0  0  0  0  0
  -22.0479  -12.8228   22.0417 N   0  0  0  0  0  0
  -25.4198  -15.1910   20.4085 N   0  0  0  0  0  0
  -31.7768  -14.8784   20.1736 O   0  0  0  0  0  0
  -21.6650   -6.8894   21.4245 O   0  0  0  0  0  0
  -22.3508  -14.5511   20.6678 O   0  0  0  0  0  0
  -24.6325  -31.8541   23.1984 C   0  0  0  0  0  0
  -25.9153  -32.4745   23.8323 C   0  0  1  0  0  0
  -27.2180  -27.2611   20.1260 C   0  0  0  0  0  0
  -25.5952  -33.8552   24.2245 N   0  0  0  0  0  0
  -23.4279  -30.4782   21.5428 C   0  0  2  0  0  0
  -24.8729  -28.9239   20.1120 C   0  0  0  0  0  0
  -22.7502  -29.4608   22.4925 C   0  0  0  0  0  0
  -18.0290  -28.1393   22.8483 C   0  0  0  0  0  0
  -24.1488  -36.7286   23.2641 C   0  0  0  0  0  0
  -25.9744  -30.7656   21.3787 C   0  0  0  0  0  0
  -26.0461  -29.3883   20.7213 C   0  0  0  0  0  0
  -27.2218  -28.5714   20.7148 C   0  0  0  0  0  0
  -26.0237  -26.8692   19.4810 C   0  0  0  0  0  0
  -24.8672  -27.6719   19.4803 C   0  0  0  0  0  0
  -23.6444  -29.8122   20.1587 C   0  0  0  0  0  0
  -25.4116  -36.3065   24.0321 C   0  0  1  0  0  0
  -20.5890  -28.3717   23.1257 C   0  0  2  0  0  0
  -20.6790  -26.9432   22.5412 C   0  0  0  0  0  0
  -19.5761  -26.6386   21.5220 C   0  0  0  0  0  0
  -18.1938  -26.7938   22.1621 C   0  0  0  0  0  0
  -19.1542  -28.8871   23.2865 C   0  0  0  0  0  0
  -18.9467  -30.1476   23.8888 C   0  0  0  0  0  0
  -17.6466  -30.6597   24.0563 C   0  0  0  0  0  0
  -25.9061  -34.9437   23.5080 C   0  0  0  0  0  0
  -16.5361  -29.9096   23.6327 C   0  0  0  0  0  0
  -16.7277  -28.6508   23.0354 C   0  0  0  0  0  0
  -26.4523  -31.6584   25.0724 C   0  0  0  0  0  0
  -25.3749  -31.3737   26.1445 C   0  0  0  0  0  0
  -27.0383  -30.2997   24.6230 C   0  0  0  0  0  0
  -27.6054  -32.4352   25.7504 C   0  0  0  0  0  0
  -27.5574  -37.1795   24.8462 C   0  0  0  0  0  0
  -21.4205  -29.3059   22.3649 N   0  0  0  0  0  0
  -26.4288  -37.3768   23.9403 N   0  0  0  0  0  0
  -24.6979  -31.0499   22.0967 N   0  0  0  0  0  0
  -23.4191  -28.8150   23.3030 O   0  0  0  0  0  0
  -28.3202  -26.3746   20.1430 O   0  0  0  0  0  0
  -26.5628  -34.8914   22.4646 O   0  0  0  0  0  0
  -23.5475  -32.1385   23.7275 O   0  0  0  0  0  0
  -29.2197  -21.1020   19.5527 C   0  0  0  0  0  0
  -29.1961  -20.4457   21.5914 C   0  0  0  0  0  0
  -29.1208  -22.2636   20.3412 C   0  0  0  0  0  0
  -27.7999  -18.0194   19.8433 C   0  0  0  0  0  0
  -29.8964  -18.3035   18.5351 C   0  0  0  0  0  0
  -29.2155  -23.8098   19.9742 C   0  0  0  0  0  0
  -30.0561  -17.3399   20.8646 C   0  0  0  0  0  0
  -28.0971  -24.8992   20.3876 C   0  0  0  0  0  0
  -29.2808  -18.4300   19.9405 C   0  0  0  0  0  0
  -29.1228  -21.7901   21.6594 N   0  0  0  0  0  0
  -29.2922  -19.9156   20.3564 N   0  0  0  0  0  0
  -29.7689  -15.8416   20.6917 N   0  0  0  0  0  0
  -31.4811  -12.6100   19.1526 H   0  0  0  0  0  0
  -30.4088  -11.4809   19.9336 H   0  0  0  0  0  0
  -29.7963  -11.7402   17.5103 H   0  0  0  0  0  0
  -29.6376  -13.4673   17.7106 H   0  0  0  0  0  0
  -27.8946  -11.2843   18.8947 H   0  0  0  0  0  0
  -27.3827  -12.5359   17.7900 H   0  0  0  0  0  0
  -27.6407  -14.2511   19.4710 H   0  0  0  0  0  0
  -28.7246  -12.1361   21.3984 H   0  0  0  0  0  0
  -28.4184  -13.8072   21.8016 H   0  0  0  0  0  0
  -25.2788   -9.5691   22.4729 H   0  0  0  0  0  0
  -24.0029   -7.4640   22.7455 H   0  0  0  0  0  0
  -21.0851   -8.8774   19.8948 H   0  0  0  0  0  0
  -22.3703  -10.9681   19.6148 H   0  0  0  0  0  0
  -21.2012   -7.6150   23.9715 H   0  0  0  0  0  0
  -21.1473   -6.0516   25.9073 H   0  0  0  0  0  0
  -22.0605   -2.7615   23.2819 H   0  0  0  0  0  0
  -22.4121  -11.9930   22.4855 H   0  0  0  0  0  0
  -21.1081  -13.1223   22.2591 H   0  0  0  0  0  0
  -24.6451  -15.8370   20.5138 H   0  0  0  0  0  0
  -26.2526  -15.6306   20.0412 H   0  0  0  0  0  0
  -26.7227  -32.5380   23.1067 H   0  0  0  0  0  0
  -25.0135  -33.9693   25.0413 H   0  0  0  0  0  0
  -22.7274  -31.3033   21.3986 H   0  0  0  0  0  0
  -23.3751  -35.9620   23.3304 H   0  0  0  0  0  0
  -24.3586  -36.8910   22.2058 H   0  0  0  0  0  0
  -23.7237  -37.6482   23.6679 H   0  0  0  0  0  0
  -26.1157  -31.5256   20.6093 H   0  0  0  0  0  0
  -26.8524  -30.8112   22.0123 H   0  0  0  0  0  0
  -28.1218  -28.9271   21.1984 H   0  0  0  0  0  0
  -25.9621  -25.9279   18.9580 H   0  0  0  0  0  0
  -23.9736  -27.3153   18.9864 H   0  0  0  0  0  0
  -23.7698  -30.5907   19.4049 H   0  0  0  0  0  0
  -22.7623  -29.2480   19.8490 H   0  0  0  0  0  0
  -25.1294  -36.1919   25.0815 H   0  0  0  0  0  0
  -20.9982  -28.3311   24.1372 H   0  0  0  0  0  0
  -20.5707  -26.2330   23.3627 H   0  0  0  0  0  0
  -21.6657  -26.7472   22.1191 H   0  0  0  0  0  0
  -19.6929  -25.6291   21.1259 H   0  0  0  0  0  0
  -19.6697  -27.3192   20.6743 H   0  0  0  0  0  0
  -17.4215  -26.6698   21.4014 H   0  0  0  0  0  0
  -18.0332  -26.0079   22.9011 H   0  0  0  0  0  0
  -19.7949  -30.7290   24.2252 H   0  0  0  0  0  0
  -17.5023  -31.6268   24.5188 H   0  0  0  0  0  0
  -15.5360  -30.2996   23.7658 H   0  0  0  0  0  0
  -15.8677  -28.0824   22.7075 H   0  0  0  0  0  0
  -24.5916  -30.7094   25.7778 H   0  0  0  0  0  0
  -24.8964  -32.2913   26.4875 H   0  0  0  0  0  0
  -25.8068  -30.8911   27.0220 H   0  0  0  0  0  0
  -26.2971  -29.6725   24.1263 H   0  0  0  0  0  0
  -27.4066  -29.7278   25.4759 H   0  0  0  0  0  0
  -27.8853  -30.4265   23.9482 H   0  0  0  0  0  0
  -27.2633  -33.3659   26.2046 H   0  0  0  0  0  0
  -28.3883  -32.6905   25.0350 H   0  0  0  0  0  0
  -28.0714  -31.8516   26.5454 H   0  0  0  0  0  0
  -28.2587  -38.0095   24.7504 H   0  0  0  0  0  0
  -28.1069  -36.2621   24.6294 H   0  0  0  0  0  0
  -27.2293  -37.1452   25.8865 H   0  0  0  0  0  0
  -20.9420  -29.8775   21.6833 H   0  0  0  0  0  0
  -26.0161  -38.2836   24.1420 H   0  0  0  0  0  0
  -29.2674  -21.0343   18.4745 H   0  0  0  0  0  0
  -29.1647  -19.8258   22.4750 H   0  0  0  0  0  0
  -27.6800  -17.0234   19.4181 H   0  0  0  0  0  0
  -27.2421  -18.7044   19.2036 H   0  0  0  0  0  0
  -27.3229  -18.0244   20.8244 H   0  0  0  0  0  0
  -29.9097  -17.2656   18.2014 H   0  0  0  0  0  0
  -30.9260  -18.6634   18.5266 H   0  0  0  0  0  0
  -29.3348  -18.8659   17.7888 H   0  0  0  0  0  0
  -29.3252  -23.8875   18.8924 H   0  0  0  0  0  0
  -30.1655  -24.1785   20.3602 H   0  0  0  0  0  0
  -29.8179  -17.5548   21.9072 H   0  0  0  0  0  0
  -31.1321  -17.5035   20.7829 H   0  0  0  0  0  0
  -27.9409  -24.8032   21.4618 H   0  0  0  0  0  0
  -27.1684  -24.5564   19.9396 H   0  0  0  0  0  0
  -28.8061  -15.5878   20.8511 H   0  0  0  0  0  0
  1 25  1  0  0  0
  1 30  2  0  0  0
  1 82  1  0  0  0
  2  3  1  0  0  0
  2 25  1  0  0  0
  2 83  1  0  0  0
  2 84  1  0  0  0
  3  4  1  0  0  0
  3 85  1  0  0  0
  3 86  1  0  0  0
  4  5  1  0  0  0
  4 87  1  0  0  0
  4 88  1  0  0  0
  5  6  1  0  0  0
  5 26  1  0  0  0
  5 89  1  0  0  0
  6 25  1  0  0  0
  6 90  1  0  0  0
  6 91  1  0  0  0
  7  8  2  0  0  0
  7 26  1  0  0  0
  7 29  1  0  0  0
  8  9  1  0  0  0
  8 22  1  0  0  0
  9 10  1  0  0  0
  9 27  2  0  0  0
 10 11  2  0  0  0
 10 15  1  0  0  0
 11 12  1  0  0  0
 11 92  1  0  0  0
 12 13  2  0  0  0
 12 93  1  0  0  0
 13 14  1  0  0  0
 13 31  1  0  0  0
 14 15  2  0  0  0
 14 94  1  0  0  0
 15 95  1  0  0  0
 16 17  2  0  0  0
 16 21  1  0  0  0
 16 31  1  0  0  0
 17 18  1  0  0  0
 17 96  1  0  0  0
 18 19  2  0  0  0
 18 97  1  0  0  0
 19 20  1  0  0  0
 19 24  1  0  0  0
 20 21  2  0  0  0
 20 98  1  0  0  0
 21 23  1  0  0  0
 22 28  1  0  0  0
 22 32  2  0  0  0
 26 27  1  0  0  0
 28 99  1  0  0  0
 28100  1  0  0  0
 29101  1  0  0  0
 29102  1  0  0  0
 33 34  1  0  0  0
 33 66  1  0  0  0
 33 70  2  0  0  0
 34 36  1  0  0  0
 34 59  1  0  0  0
 34103  1  0  0  0
 35 44  2  0  0  0
 35 45  1  0  0  0
 35 68  1  0  0  0
 36 56  1  0  0  0
 36104  1  0  0  0
 37 39  1  0  0  0
 37 47  1  0  0  0
 37 66  1  0  0  0
 37105  1  0  0  0
 38 43  2  0  0  0
 38 46  1  0  0  0
 38 47  1  0  0  0
 39 64  1  0  0  0
 39 67  2  0  0  0
 40 52  1  0  0  0
 40 53  2  0  0  0
 40 58  1  0  0  0
 41106  1  0  0  0
 41107  1  0  0  0
 41108  1  0  0  0
 41 48  1  0  0  0
 42 43  1  0  0  0
 42 66  1  0  0  0
 42109  1  0  0  0
 42110  1  0  0  0
 43 44  1  0  0  0
 44111  1  0  0  0
 45 46  2  0  0  0
 45112  1  0  0  0
 46113  1  0  0  0
 47114  1  0  0  0
 47115  1  0  0  0
 48 56  1  0  0  0
 48 65  1  0  0  0
 48116  1  0  0  0
 49 50  1  0  0  0
 49 53  1  0  0  0
 49 64  1  0  0  0
 49117  1  0  0  0
 50 51  1  0  0  0
 50118  1  0  0  0
 50119  1  0  0  0
 51 52  1  0  0  0
 51120  1  0  0  0
 51121  1  0  0  0
 52122  1  0  0  0
 52123  1  0  0  0
 53 54  1  0  0  0
 54 55  2  0  0  0
 54124  1  0  0  0
 55 57  1  0  0  0
 55125  1  0  0  0
 56 69  2  0  0  0
 57 58  2  0  0  0
 57126  1  0  0  0
 58127  1  0  0  0
 59 60  1  0  0  0
 59 61  1  0  0  0
 59 62  1  0  0  0
 60128  1  0  0  0
 60129  1  0  0  0
 60130  1  0  0  0
 61131  1  0  0  0
 61132  1  0  0  0
 61133  1  0  0  0
 62134  1  0  0  0
 62135  1  0  0  0
 62136  1  0  0  0
 63 65  1  0  0  0
 63137  1  0  0  0
 63138  1  0  0  0
 63139  1  0  0  0
 64140  1  0  0  0
 65141  1  0  0  0
 68 78  1  0  0  0
 71 73  2  0  0  0
 71 81  1  0  0  0
 71142  1  0  0  0
 72 80  2  0  0  0
 72 81  1  0  0  0
 72143  1  0  0  0
 73 76  1  0  0  0
 73 80  1  0  0  0
 74144  1  0  0  0
 74145  1  0  0  0
 74146  1  0  0  0
 74 79  1  0  0  0
 75 79  1  0  0  0
 75147  1  0  0  0
 75148  1  0  0  0
 75149  1  0  0  0
 76 78  1  0  0  0
 76150  1  0  0  0
 76151  1  0  0  0
 77 79  1  0  0  0
 77 82  1  0  0  0
 77152  1  0  0  0
 77153  1  0  0  0
 78154  1  0  0  0
 78155  1  0  0  0
 79 81  1  0  0  0
 82156  1  0  0  0
M  ISO  4   1 100  68 101  78 101  82 100
M  END
> <chiral flag>
0

> <version>
0

> <s_m_source_file>
/data/baiqing/PycharmProjects/Reinvent-master-3.2/result/LINK_invent/BTK/process_docking_weight1_custom_sum_contain_oxygen_bond_distance_aromatic_linkinvent_7_9_3/rearranged_h_0059.sdf

> <i_m_source_file_index>
32

> <r_mmod_Potential_Energy-OPLS-2005>
119.614311218262

> <r_mmod_Stretch_Energy-OPLS-2005>
124.600311279297

> <r_mmod_Bend_Energy-OPLS-2005>
174.013565063477

> <r_mmod_Torsional_Energy-OPLS-2005>
253.885025024414

> <r_mmod_Improper_Torsional_Energy-OPLS-2005>
5.9136061668396

> <r_mmod_Van_der_Waal_Energy-OPLS-2005>
113.439804077148

> <r_mmod_Electrostatic_Energy-OPLS-2005>
-408.923645019531

> <r_mmod_Solvation_Energy-OPLS-2005>
-228.197479248047

> <b_mmod_Minimization_Converged-OPLS-2005>
0

> <r_mmod_RMS_Derivative-OPLS-2005>
1.97709608078003

$$$$
32
                    3D
 Structure written by MMmdl.
155163  0  0  1  0            999 V2000
  -30.5412  -15.1126   20.3339 C   0  0  0  0  0  0
  -30.4384  -12.7004   19.4785 C   0  0  0  0  0  0
  -29.5125  -12.5129   18.2547 C   0  0  0  0  0  0
  -28.0664  -12.2334   18.7063 C   0  0  0  0  0  0
  -27.6028  -13.2052   19.8164 C   0  0  2  0  0  0
  -28.6627  -13.4022   20.9287 C   0  0  0  0  0  0
  -25.2387  -13.8018   20.5772 C   0  0  0  0  0  0
  -24.1701  -13.0307   20.9307 C   0  0  0  0  0  0
  -24.6300  -11.6800   20.8837 C   0  0  0  0  0  0
  -23.8991  -10.4217   21.0466 C   0  0  0  0  0  0
  -24.3571   -9.4145   21.9226 C   0  0  0  0  0  0
  -23.6259   -8.2179   22.0766 C   0  0  0  0  0  0
  -22.4245   -8.0234   21.3544 C   0  0  0  0  0  0
  -21.9870   -9.0203   20.4649 C   0  0  0  0  0  0
  -22.7188  -10.2084   20.3085 C   0  0  0  0  0  0
  -21.6829   -6.0711   22.5276 C   0  0  0  0  0  0
  -21.3995   -6.5626   23.8208 C   0  0  0  0  0  0
  -21.3657   -5.6785   24.9173 C   0  0  0  0  0  0
  -21.6047   -4.3048   24.7226 C   0  0  0  0  0  0
  -21.8824   -3.8133   23.4349 C   0  0  0  0  0  0
  -21.9189   -4.6947   22.3404 C   0  0  0  0  0  0
  -22.7743  -13.5147   21.1917 C   0  0  0  0  0  0
  -22.1665   -4.2140   21.0980 F   0  0  0  0  0  0
  -21.5641   -3.4536   25.7740 F   0  0  0  0  0  0
  -29.9101  -13.8489   20.2794 N   0  0  0  0  0  0
  -26.2771  -12.9165   20.3313 N   0  0  0  0  0  0
  -25.9216  -11.6354   20.5840 N   0  0  0  0  0  0
  -22.0360  -12.8176   22.0472 N   0  0  0  0  0  0
  -25.3937  -15.1739   20.4120 N   0  0  0  0  0  0
  -31.7753  -15.0632   20.2899 O   0  0  0  0  0  0
  -21.6611   -6.8839   21.4230 O   0  0  0  0  0  0
  -22.3476  -14.5460   20.6734 O   0  0  0  0  0  0
  -24.6481  -31.8382   23.1824 C   0  0  0  0  0  0
  -25.9229  -32.4667   23.8234 C   0  0  1  0  0  0
  -27.2291  -27.0834   20.1616 C   0  0  0  0  0  0
  -25.5953  -33.8474   24.2149 N   0  0  0  0  0  0
  -23.4557  -30.4528   21.5292 C   0  0  2  0  0  0
  -24.9074  -28.8650   20.1126 C   0  0  0  0  0  0
  -22.7595  -29.4513   22.4851 C   0  0  0  0  0  0
  -18.0308  -28.1410   22.8474 C   0  0  0  0  0  0
  -24.1491  -36.7245   23.2643 C   0  0  0  0  0  0
  -26.0143  -30.6940   21.3889 C   0  0  0  0  0  0
  -26.0861  -29.2986   20.7328 C   0  0  0  0  0  0
  -27.2444  -28.4253   20.7364 C   0  0  0  0  0  0
  -26.0210  -26.7592   19.5045 C   0  0  0  0  0  0
  -24.8907  -27.6103   19.4824 C   0  0  0  0  0  0
  -23.6856  -29.7739   20.1520 C   0  0  0  0  0  0
  -25.4128  -36.3018   24.0307 C   0  0  1  0  0  0
  -20.5924  -28.3737   23.1236 C   0  0  2  0  0  0
  -20.6796  -26.9437   22.5410 C   0  0  0  0  0  0
  -19.5767  -26.6388   21.5224 C   0  0  0  0  0  0
  -18.1948  -26.7946   22.1631 C   0  0  0  0  0  0
  -19.1566  -28.8893   23.2842 C   0  0  0  0  0  0
  -18.9480  -30.1489   23.8866 C   0  0  0  0  0  0
  -17.6475  -30.6600   24.0561 C   0  0  0  0  0  0
  -25.9079  -34.9394   23.5047 C   0  0  0  0  0  0
  -16.5367  -29.9088   23.6345 C   0  0  0  0  0  0
  -16.7292  -28.6514   23.0356 C   0  0  0  0  0  0
  -26.4524  -31.6559   25.0703 C   0  0  0  0  0  0
  -25.3686  -31.3771   26.1385 C   0  0  0  0  0  0
  -27.0401  -30.2946   24.6335 C   0  0  0  0  0  0
  -27.6041  -32.4339   25.7499 C   0  0  0  0  0  0
  -27.5575  -37.1780   24.8464 C   0  0  0  0  0  0
  -21.4282  -29.3041   22.3593 N   0  0  0  0  0  0
  -26.4290  -37.3735   23.9402 N   0  0  0  0  0  0
  -24.7263  -31.0182   22.0885 N   0  0  0  0  0  0
  -23.4207  -28.8079   23.3040 O   0  0  0  0  0  0
  -28.2846  -26.0828   20.2329 O   0  0  0  0  0  0
  -26.5678  -34.8904   22.4633 O   0  0  0  0  0  0
  -23.5586  -32.1289   23.7006 O   0  0  0  0  0  0
  -27.9899  -20.8969   19.7748 C   0  0  0  0  0  0
  -29.4765  -19.3784   20.2356 C   0  0  0  0  0  0
  -32.3109  -19.1908   18.9596 C   0  0  0  0  0  0
  -28.5889  -16.3489   19.4619 C   0  0  0  0  0  0
  -31.3087  -18.0254   18.9689 C   0  0  0  0  0  0
  -29.1687  -23.2497   20.4131 C   0  0  0  0  0  0
  -28.0622  -24.5203   20.0850 C   0  0  0  0  0  0
  -30.3583  -17.9338   20.1998 C   0  0  2  0  0  0
  -28.2020  -19.5528   19.7325 N   0  0  0  0  0  0
  -29.9604  -20.6423   20.5811 N   0  0  0  0  0  0
  -28.9876  -21.6549   20.2539 N   0  0  0  0  0  0
  -29.8427  -16.3951   20.1996 N   0  0  0  0  0  0
  -31.4585  -12.8819   19.1355 H   0  0  0  0  0  0
  -30.4818  -11.7910   20.0804 H   0  0  0  0  0  0
  -29.8730  -11.6934   17.6316 H   0  0  0  0  0  0
  -29.5400  -13.4070   17.6294 H   0  0  0  0  0  0
  -28.0317  -11.2105   19.0831 H   0  0  0  0  0  0
  -27.3863  -12.2692   17.8544 H   0  0  0  0  0  0
  -27.4595  -14.1224   19.2736 H   0  0  0  0  0  0
  -28.8148  -12.4832   21.4968 H   0  0  0  0  0  0
  -28.3253  -14.1563   21.6417 H   0  0  0  0  0  0
  -25.2709   -9.5646   22.4802 H   0  0  0  0  0  0
  -23.9982   -7.4566   22.7472 H   0  0  0  0  0  0
  -21.0811   -8.8713   19.8940 H   0  0  0  0  0  0
  -22.3649  -10.9637   19.6208 H   0  0  0  0  0  0
  -21.1970   -7.6130   23.9712 H   0  0  0  0  0  0
  -21.1484   -6.0512   25.9079 H   0  0  0  0  0  0
  -22.0606   -2.7597   23.2850 H   0  0  0  0  0  0
  -22.3952  -11.9850   22.4906 H   0  0  0  0  0  0
  -21.0977  -13.1240   22.2623 H   0  0  0  0  0  0
  -24.6186  -15.8188   20.5210 H   0  0  0  0  0  0
  -26.2323  -15.6182   20.0651 H   0  0  0  0  0  0
  -26.7296  -32.5252   23.0959 H   0  0  0  0  0  0
  -25.0043  -33.9572   25.0260 H   0  0  0  0  0  0
  -22.7610  -31.2801   21.3685 H   0  0  0  0  0  0
  -23.3759  -35.9570   23.3294 H   0  0  0  0  0  0
  -24.3572  -36.8891   22.2059 H   0  0  0  0  0  0
  -23.7247  -37.6435   23.6696 H   0  0  0  0  0  0
  -26.1754  -31.4435   20.6129 H   0  0  0  0  0  0
  -26.8828  -30.7470   22.0342 H   0  0  0  0  0  0
  -28.1410  -28.7532   21.2432 H   0  0  0  0  0  0
  -25.9210  -25.7980   19.0226 H   0  0  0  0  0  0
  -23.9915  -27.2709   18.9867 H   0  0  0  0  0  0
  -23.8250  -30.5449   19.3937 H   0  0  0  0  0  0
  -22.7992  -29.2172   19.8427 H   0  0  0  0  0  0
  -25.1323  -36.1832   25.0799 H   0  0  0  0  0  0
  -21.0012  -28.3334   24.1361 H   0  0  0  0  0  0
  -20.5714  -26.2348   23.3629 H   0  0  0  0  0  0
  -21.6658  -26.7447   22.1198 H   0  0  0  0  0  0
  -19.6929  -25.6292   21.1271 H   0  0  0  0  0  0
  -19.6712  -27.3184   20.6744 H   0  0  0  0  0  0
  -17.4222  -26.6693   21.4026 H   0  0  0  0  0  0
  -18.0337  -26.0097   22.9037 H   0  0  0  0  0  0
  -19.7953  -30.7318   24.2222 H   0  0  0  0  0  0
  -17.5024  -31.6278   24.5165 H   0  0  0  0  0  0
  -15.5367  -30.2978   23.7692 H   0  0  0  0  0  0
  -15.8694  -28.0826   22.7082 H   0  0  0  0  0  0
  -24.5869  -30.7119   25.7699 H   0  0  0  0  0  0
  -24.8869  -32.2958   26.4741 H   0  0  0  0  0  0
  -25.7941  -30.8983   27.0213 H   0  0  0  0  0  0
  -26.3033  -29.6656   24.1328 H   0  0  0  0  0  0
  -27.3967  -29.7269   25.4939 H   0  0  0  0  0  0
  -27.8959  -30.4165   23.9696 H   0  0  0  0  0  0
  -27.2623  -33.3659   26.2017 H   0  0  0  0  0  0
  -28.3888  -32.6872   25.0359 H   0  0  0  0  0  0
  -28.0673  -31.8508   26.5468 H   0  0  0  0  0  0
  -28.2586  -38.0082   24.7507 H   0  0  0  0  0  0
  -28.1079  -36.2610   24.6302 H   0  0  0  0  0  0
  -27.2290  -37.1437   25.8867 H   0  0  0  0  0  0
  -20.9516  -29.8716   21.6724 H   0  0  0  0  0  0
  -26.0150  -38.2800   24.1403 H   0  0  0  0  0  0
  -27.0720  -21.3437   19.4177 H   0  0  0  0  0  0
  -33.0340  -19.0652   18.1536 H   0  0  0  0  0  0
  -32.8690  -19.2452   19.8946 H   0  0  0  0  0  0
  -31.8248  -20.1507   18.7918 H   0  0  0  0  0  0
  -28.3450  -17.2630   18.9359 H   0  0  0  0  0  0
  -27.7748  -16.1265   20.1435 H   0  0  0  0  0  0
  -28.6586  -15.6306   18.6469 H   0  0  0  0  0  0
  -31.8994  -17.1171   18.8706 H   0  0  0  0  0  0
  -30.7053  -18.0775   18.0617 H   0  0  0  0  0  0
  -29.4845  -23.3949   21.4454 H   0  0  0  0  0  0
  -30.0583  -23.4867   19.8296 H   0  0  0  0  0  0
  -27.1734  -24.2986   20.6769 H   0  0  0  0  0  0
  -27.7497  -24.3722   19.0511 H   0  0  0  0  0  0
  -30.9885  -17.9734   21.0888 H   0  0  0  0  0  0
  1 25  1  0  0  0
  1 30  2  0  0  0
  1 82  1  0  0  0
  2  3  1  0  0  0
  2 25  1  0  0  0
  2 83  1  0  0  0
  2 84  1  0  0  0
  3  4  1  0  0  0
  3 85  1  0  0  0
  3 86  1  0  0  0
  4  5  1  0  0  0
  4 87  1  0  0  0
  4 88  1  0  0  0
  5  6  1  0  0  0
  5 26  1  0  0  0
  5 89  1  0  0  0
  6 25  1  0  0  0
  6 90  1  0  0  0
  6 91  1  0  0  0
  7  8  2  0  0  0
  7 26  1  0  0  0
  7 29  1  0  0  0
  8  9  1  0  0  0
  8 22  1  0  0  0
  9 10  1  0  0  0
  9 27  2  0  0  0
 10 11  2  0  0  0
 10 15  1  0  0  0
 11 12  1  0  0  0
 11 92  1  0  0  0
 12 13  2  0  0  0
 12 93  1  0  0  0
 13 14  1  0  0  0
 13 31  1  0  0  0
 14 15  2  0  0  0
 14 94  1  0  0  0
 15 95  1  0  0  0
 16 17  2  0  0  0
 16 21  1  0  0  0
 16 31  1  0  0  0
 17 18  1  0  0  0
 17 96  1  0  0  0
 18 19  2  0  0  0
 18 97  1  0  0  0
 19 20  1  0  0  0
 19 24  1  0  0  0
 20 21  2  0  0  0
 20 98  1  0  0  0
 21 23  1  0  0  0
 22 28  1  0  0  0
 22 32  2  0  0  0
 26 27  1  0  0  0
 28 99  1  0  0  0
 28100  1  0  0  0
 29101  1  0  0  0
 29102  1  0  0  0
 33 34  1  0  0  0
 33 66  1  0  0  0
 33 70  2  0  0  0
 34 36  1  0  0  0
 34 59  1  0  0  0
 34103  1  0  0  0
 35 44  2  0  0  0
 35 45  1  0  0  0
 35 68  1  0  0  0
 36 56  1  0  0  0
 36104  1  0  0  0
 37 39  1  0  0  0
 37 47  1  0  0  0
 37 66  1  0  0  0
 37105  1  0  0  0
 38 43  2  0  0  0
 38 46  1  0  0  0
 38 47  1  0  0  0
 39 64  1  0  0  0
 39 67  2  0  0  0
 40 52  1  0  0  0
 40 53  2  0  0  0
 40 58  1  0  0  0
 41106  1  0  0  0
 41107  1  0  0  0
 41108  1  0  0  0
 41 48  1  0  0  0
 42 43  1  0  0  0
 42 66  1  0  0  0
 42109  1  0  0  0
 42110  1  0  0  0
 43 44  1  0  0  0
 44111  1  0  0  0
 45 46  2  0  0  0
 45112  1  0  0  0
 46113  1  0  0  0
 47114  1  0  0  0
 47115  1  0  0  0
 48 56  1  0  0  0
 48 65  1  0  0  0
 48116  1  0  0  0
 49 50  1  0  0  0
 49 53  1  0  0  0
 49 64  1  0  0  0
 49117  1  0  0  0
 50 51  1  0  0  0
 50118  1  0  0  0
 50119  1  0  0  0
 51 52  1  0  0  0
 51120  1  0  0  0
 51121  1  0  0  0
 52122  1  0  0  0
 52123  1  0  0  0
 53 54  1  0  0  0
 54 55  2  0  0  0
 54124  1  0  0  0
 55 57  1  0  0  0
 55125  1  0  0  0
 56 69  2  0  0  0
 57 58  2  0  0  0
 57126  1  0  0  0
 58127  1  0  0  0
 59 60  1  0  0  0
 59 61  1  0  0  0
 59 62  1  0  0  0
 60128  1  0  0  0
 60129  1  0  0  0
 60130  1  0  0  0
 61131  1  0  0  0
 61132  1  0  0  0
 61133  1  0  0  0
 62134  1  0  0  0
 62135  1  0  0  0
 62136  1  0  0  0
 63 65  1  0  0  0
 63137  1  0  0  0
 63138  1  0  0  0
 63139  1  0  0  0
 64140  1  0  0  0
 65141  1  0  0  0
 68 77  1  0  0  0
 71 79  2  0  0  0
 71 81  1  0  0  0
 71142  1  0  0  0
 72 78  1  0  0  0
 72 79  1  0  0  0
 72 80  2  0  0  0
 73 75  1  0  0  0
 73143  1  0  0  0
 73144  1  0  0  0
 73145  1  0  0  0
 74 82  1  0  0  0
 74146  1  0  0  0
 74147  1  0  0  0
 74148  1  0  0  0
 75149  1  0  0  0
 75150  1  0  0  0
 75 78  1  0  0  0
 76 77  1  0  0  0
 76 81  1  0  0  0
 76151  1  0  0  0
 76152  1  0  0  0
 77153  1  0  0  0
 77154  1  0  0  0
 78 82  1  0  0  0
 78155  1  0  0  0
 80 81  1  0  0  0
M  ISO  4   1 100  68 101  77 101  82 100
M  END
> <chiral flag>
0

> <version>
0

> <s_m_source_file>
/data/baiqing/PycharmProjects/Reinvent-master-3.2/result/LINK_invent/BTK/process_docking_weight1_custom_sum_contain_oxygen_bond_distance_aromatic_linkinvent_7_9_3/rearranged_h_0059.sdf

> <i_m_source_file_index>
33

> <r_mmod_Potential_Energy-OPLS-2005>
822.4853515625

> <r_mmod_Stretch_Energy-OPLS-2005>
356.556701660156

> <r_mmod_Bend_Energy-OPLS-2005>
316.016387939453

> <r_mmod_Torsional_Energy-OPLS-2005>
268.503204345703

> <r_mmod_Improper_Torsional_Energy-OPLS-2005>
7.65533781051636

> <r_mmod_Van_der_Waal_Energy-OPLS-2005>
127.703506469727

> <r_mmod_Electrostatic_Energy-OPLS-2005>
-325.116363525391

> <r_mmod_Solvation_Energy-OPLS-2005>
-222.01936340332

> <b_mmod_Minimization_Converged-OPLS-2005>
0

> <r_mmod_RMS_Derivative-OPLS-2005>
1.00796496868134

$$$$
33
                    3D
 Structure written by MMmdl.
156164  0  0  1  0            999 V2000
  -30.5353  -14.9135   20.4757 C   0  0  0  0  0  0
  -30.4456  -12.5674   19.4974 C   0  0  0  0  0  0
  -29.5234  -12.5464   18.2556 C   0  0  0  0  0  0
  -28.0530  -12.3370   18.6660 C   0  0  0  0  0  0
  -27.6381  -13.2470   19.8522 C   0  0  2  0  0  0
  -28.6807  -13.2227   20.9902 C   0  0  0  0  0  0
  -25.2485  -13.8217   20.5726 C   0  0  0  0  0  0
  -24.1787  -13.0441   20.9205 C   0  0  0  0  0  0
  -24.6401  -11.6925   20.8742 C   0  0  0  0  0  0
  -23.9080  -10.4297   21.0398 C   0  0  0  0  0  0
  -24.3627   -9.4212   21.9178 C   0  0  0  0  0  0
  -23.6300   -8.2248   22.0752 C   0  0  0  0  0  0
  -22.4280   -8.0285   21.3546 C   0  0  0  0  0  0
  -21.9920   -9.0259   20.4645 C   0  0  0  0  0  0
  -22.7251  -10.2137   20.3051 C   0  0  0  0  0  0
  -21.6857   -6.0737   22.5280 C   0  0  0  0  0  0
  -21.4016   -6.5638   23.8214 C   0  0  0  0  0  0
  -21.3664   -5.6790   24.9176 C   0  0  0  0  0  0
  -21.6049   -4.3053   24.7227 C   0  0  0  0  0  0
  -21.8820   -3.8146   23.4346 C   0  0  0  0  0  0
  -21.9191   -4.6964   22.3402 C   0  0  0  0  0  0
  -22.7803  -13.5212   21.1865 C   0  0  0  0  0  0
  -22.1658   -4.2149   21.0979 F   0  0  0  0  0  0
  -21.5632   -3.4534   25.7737 F   0  0  0  0  0  0
  -29.9648  -13.6419   20.4131 N   0  0  0  0  0  0
  -26.2926  -12.9452   20.3300 N   0  0  0  0  0  0
  -25.9339  -11.6577   20.5744 N   0  0  0  0  0  0
  -22.0451  -12.8213   22.0431 N   0  0  0  0  0  0
  -25.4163  -15.1949   20.4199 N   0  0  0  0  0  0
  -31.6947  -15.0138   20.0580 O   0  0  0  0  0  0
  -21.6642   -6.8883   21.4243 O   0  0  0  0  0  0
  -22.3481  -14.5512   20.6703 O   0  0  0  0  0  0
  -24.6429  -31.8443   23.1889 C   0  0  0  0  0  0
  -25.9208  -32.4693   23.8272 C   0  0  1  0  0  0
  -27.2171  -27.1386   20.1453 C   0  0  0  0  0  0
  -25.5962  -33.8501   24.2191 N   0  0  0  0  0  0
  -23.4455  -30.4644   21.5338 C   0  0  2  0  0  0
  -24.8940  -28.8930   20.1065 C   0  0  0  0  0  0
  -22.7562  -29.4550   22.4857 C   0  0  0  0  0  0
  -18.0304  -28.1399   22.8475 C   0  0  0  0  0  0
  -24.1488  -36.7250   23.2643 C   0  0  0  0  0  0
  -26.0009  -30.7172   21.3888 C   0  0  0  0  0  0
  -26.0691  -29.3293   20.7294 C   0  0  0  0  0  0
  -27.2262  -28.4659   20.7364 C   0  0  0  0  0  0
  -26.0174  -26.8078   19.4742 C   0  0  0  0  0  0
  -24.8815  -27.6461   19.4649 C   0  0  0  0  0  0
  -23.6708  -29.7945   20.1518 C   0  0  0  0  0  0
  -25.4121  -36.3030   24.0316 C   0  0  1  0  0  0
  -20.5916  -28.3722   23.1235 C   0  0  2  0  0  0
  -20.6789  -26.9424   22.5405 C   0  0  0  0  0  0
  -19.5761  -26.6380   21.5214 C   0  0  0  0  0  0
  -18.1943  -26.7935   22.1624 C   0  0  0  0  0  0
  -19.1561  -28.8879   23.2847 C   0  0  0  0  0  0
  -18.9479  -30.1474   23.8869 C   0  0  0  0  0  0
  -17.6475  -30.6591   24.0559 C   0  0  0  0  0  0
  -25.9075  -34.9407   23.5060 C   0  0  0  0  0  0
  -16.5367  -29.9085   23.6338 C   0  0  0  0  0  0
  -16.7290  -28.6506   23.0352 C   0  0  0  0  0  0
  -26.4529  -31.6564   25.0716 C   0  0  0  0  0  0
  -25.3713  -31.3761   26.1411 C   0  0  0  0  0  0
  -27.0407  -30.2961   24.6310 C   0  0  0  0  0  0
  -27.6053  -32.4338   25.7505 C   0  0  0  0  0  0
  -27.5569  -37.1784   24.8467 C   0  0  0  0  0  0
  -21.4256  -29.3048   22.3606 N   0  0  0  0  0  0
  -26.4280  -37.3743   23.9410 N   0  0  0  0  0  0
  -24.7162  -31.0301   22.0922 N   0  0  0  0  0  0
  -23.4208  -28.8100   23.3006 O   0  0  0  0  0  0
  -28.2881  -26.1776   20.2559 O   0  0  0  0  0  0
  -26.5651  -34.8906   22.4633 O   0  0  0  0  0  0
  -23.5552  -32.1324   23.7114 O   0  0  0  0  0  0
  -27.3909  -19.4886   22.4376 C   0  0  0  0  0  0
  -28.6043  -20.4217   20.9874 C   0  0  0  0  0  0
  -26.3861  -19.2892   23.5183 C   0  0  0  0  0  0
  -30.3253  -16.3807   22.5248 C   0  0  0  0  0  0
  -28.9502  -21.7436   20.1153 C   0  0  0  0  0  0
  -28.6546  -23.3163   20.6930 C   0  0  0  0  0  0
  -29.7833  -17.8451   20.3877 C   0  0  0  0  0  0
  -28.2658  -24.6859   19.7990 C   0  0  0  0  0  0
  -29.8015  -16.2796   21.0710 C   0  0  2  0  0  0
  -27.6623  -20.6962   21.8947 N   0  0  0  0  0  0
  -28.0649  -18.4702   21.9384 N   0  0  0  0  0  0
  -28.9180  -19.0051   21.0225 N   0  0  0  0  0  0
  -31.4805  -12.7225   19.1899 H   0  0  0  0  0  0
  -30.4331  -11.6004   20.0026 H   0  0  0  0  0  0
  -29.8353  -11.7628   17.5641 H   0  0  0  0  0  0
  -29.6215  -13.4897   17.7156 H   0  0  0  0  0  0
  -27.9353  -11.2898   18.9465 H   0  0  0  0  0  0
  -27.3939  -12.5001   17.8123 H   0  0  0  0  0  0
  -27.6178  -14.2629   19.4565 H   0  0  0  0  0  0
  -28.7569  -12.2255   21.4263 H   0  0  0  0  0  0
  -28.3827  -13.8831   21.8050 H   0  0  0  0  0  0
  -25.2769   -9.5692   22.4754 H   0  0  0  0  0  0
  -24.0010   -7.4646   22.7476 H   0  0  0  0  0  0
  -21.0846   -8.8781   19.8953 H   0  0  0  0  0  0
  -22.3706  -10.9676   19.6163 H   0  0  0  0  0  0
  -21.2009   -7.6147   23.9716 H   0  0  0  0  0  0
  -21.1486   -6.0519   25.9076 H   0  0  0  0  0  0
  -22.0593   -2.7607   23.2847 H   0  0  0  0  0  0
  -22.4063  -11.9880   22.4837 H   0  0  0  0  0  0
  -21.1062  -13.1235   22.2615 H   0  0  0  0  0  0
  -24.6542  -15.8511   20.5494 H   0  0  0  0  0  0
  -26.2821  -15.6438   20.1493 H   0  0  0  0  0  0
  -26.7273  -32.5291   23.0997 H   0  0  0  0  0  0
  -25.0101  -33.9619   25.0333 H   0  0  0  0  0  0
  -22.7481  -31.2908   21.3805 H   0  0  0  0  0  0
  -23.3756  -35.9575   23.3296 H   0  0  0  0  0  0
  -24.3569  -36.8889   22.2058 H   0  0  0  0  0  0
  -23.7240  -37.6443   23.6684 H   0  0  0  0  0  0
  -26.1590  -31.4727   20.6181 H   0  0  0  0  0  0
  -26.8710  -30.7640   22.0322 H   0  0  0  0  0  0
  -28.1183  -28.7928   21.2519 H   0  0  0  0  0  0
  -25.9039  -25.8662   18.9639 H   0  0  0  0  0  0
  -23.9852  -27.3095   18.9622 H   0  0  0  0  0  0
  -23.8073  -30.5700   19.3974 H   0  0  0  0  0  0
  -22.7853  -29.2375   19.8405 H   0  0  0  0  0  0
  -25.1312  -36.1851   25.0807 H   0  0  0  0  0  0
  -21.0010  -28.3314   24.1355 H   0  0  0  0  0  0
  -20.5686  -26.2336   23.3626 H   0  0  0  0  0  0
  -21.6655  -26.7431   22.1199 H   0  0  0  0  0  0
  -19.6921  -25.6285   21.1260 H   0  0  0  0  0  0
  -19.6697  -27.3179   20.6735 H   0  0  0  0  0  0
  -17.4212  -26.6677   21.4028 H   0  0  0  0  0  0
  -18.0337  -26.0085   22.9030 H   0  0  0  0  0  0
  -19.7955  -30.7299   24.2222 H   0  0  0  0  0  0
  -17.5030  -31.6268   24.5169 H   0  0  0  0  0  0
  -15.5366  -30.2977   23.7681 H   0  0  0  0  0  0
  -15.8691  -28.0820   22.7076 H   0  0  0  0  0  0
  -24.5892  -30.7107   25.7734 H   0  0  0  0  0  0
  -24.8906  -32.2950   26.4776 H   0  0  0  0  0  0
  -25.7997  -30.8972   27.0226 H   0  0  0  0  0  0
  -26.3036  -29.6669   24.1308 H   0  0  0  0  0  0
  -27.4009  -29.7271   25.4892 H   0  0  0  0  0  0
  -27.8943  -30.4197   23.9643 H   0  0  0  0  0  0
  -27.2634  -33.3653   26.2029 H   0  0  0  0  0  0
  -28.3894  -32.6878   25.0360 H   0  0  0  0  0  0
  -28.0686  -31.8502   26.5469 H   0  0  0  0  0  0
  -28.2587  -38.0080   24.7507 H   0  0  0  0  0  0
  -28.1066  -36.2611   24.6303 H   0  0  0  0  0  0
  -27.2286  -37.1440   25.8869 H   0  0  0  0  0  0
  -20.9467  -29.8759   21.6783 H   0  0  0  0  0  0
  -26.0144  -38.2809   24.1416 H   0  0  0  0  0  0
  -25.6275  -18.5729   23.2028 H   0  0  0  0  0  0
  -25.8894  -20.2271   23.7669 H   0  0  0  0  0  0
  -26.8694  -18.9077   24.4176 H   0  0  0  0  0  0
  -31.2950  -16.8781   22.5530 H   0  0  0  0  0  0
  -29.6545  -16.9355   23.1769 H   0  0  0  0  0  0
  -30.4495  -15.4010   22.9886 H   0  0  0  0  0  0
  -28.3868  -21.6356   19.1884 H   0  0  0  0  0  0
  -29.9958  -21.6744   19.8153 H   0  0  0  0  0  0
  -29.5082  -23.5723   21.3199 H   0  0  0  0  0  0
  -27.8291  -23.2362   21.3988 H   0  0  0  0  0  0
  -29.4687  -17.7533   19.3483 H   0  0  0  0  0  0
  -30.8104  -18.2074   20.3407 H   0  0  0  0  0  0
  -27.3059  -24.4522   19.3503 H   0  0  0  0  0  0
  -28.9508  -24.6773   18.9514 H   0  0  0  0  0  0
  -28.7519  -15.9960   21.1263 H   0  0  0  0  0  0
  1 25  1  0  0  0
  1 30  2  0  0  0
  1 79  1  0  0  0
  2  3  1  0  0  0
  2 25  1  0  0  0
  2 83  1  0  0  0
  2 84  1  0  0  0
  3  4  1  0  0  0
  3 85  1  0  0  0
  3 86  1  0  0  0
  4  5  1  0  0  0
  4 87  1  0  0  0
  4 88  1  0  0  0
  5  6  1  0  0  0
  5 26  1  0  0  0
  5 89  1  0  0  0
  6 25  1  0  0  0
  6 90  1  0  0  0
  6 91  1  0  0  0
  7  8  2  0  0  0
  7 26  1  0  0  0
  7 29  1  0  0  0
  8  9  1  0  0  0
  8 22  1  0  0  0
  9 10  1  0  0  0
  9 27  2  0  0  0
 10 11  2  0  0  0
 10 15  1  0  0  0
 11 12  1  0  0  0
 11 92  1  0  0  0
 12 13  2  0  0  0
 12 93  1  0  0  0
 13 14  1  0  0  0
 13 31  1  0  0  0
 14 15  2  0  0  0
 14 94  1  0  0  0
 15 95  1  0  0  0
 16 17  2  0  0  0
 16 21  1  0  0  0
 16 31  1  0  0  0
 17 18  1  0  0  0
 17 96  1  0  0  0
 18 19  2  0  0  0
 18 97  1  0  0  0
 19 20  1  0  0  0
 19 24  1  0  0  0
 20 21  2  0  0  0
 20 98  1  0  0  0
 21 23  1  0  0  0
 22 28  1  0  0  0
 22 32  2  0  0  0
 26 27  1  0  0  0
 28 99  1  0  0  0
 28100  1  0  0  0
 29101  1  0  0  0
 29102  1  0  0  0
 33 34  1  0  0  0
 33 66  1  0  0  0
 33 70  2  0  0  0
 34 36  1  0  0  0
 34 59  1  0  0  0
 34103  1  0  0  0
 35 44  2  0  0  0
 35 45  1  0  0  0
 35 68  1  0  0  0
 36 56  1  0  0  0
 36104  1  0  0  0
 37 39  1  0  0  0
 37 47  1  0  0  0
 37 66  1  0  0  0
 37105  1  0  0  0
 38 43  2  0  0  0
 38 46  1  0  0  0
 38 47  1  0  0  0
 39 64  1  0  0  0
 39 67  2  0  0  0
 40 52  1  0  0  0
 40 53  2  0  0  0
 40 58  1  0  0  0
 41106  1  0  0  0
 41107  1  0  0  0
 41108  1  0  0  0
 41 48  1  0  0  0
 42 43  1  0  0  0
 42 66  1  0  0  0
 42109  1  0  0  0
 42110  1  0  0  0
 43 44  1  0  0  0
 44111  1  0  0  0
 45 46  2  0  0  0
 45112  1  0  0  0
 46113  1  0  0  0
 47114  1  0  0  0
 47115  1  0  0  0
 48 56  1  0  0  0
 48 65  1  0  0  0
 48116  1  0  0  0
 49 50  1  0  0  0
 49 53  1  0  0  0
 49 64  1  0  0  0
 49117  1  0  0  0
 50 51  1  0  0  0
 50118  1  0  0  0
 50119  1  0  0  0
 51 52  1  0  0  0
 51120  1  0  0  0
 51121  1  0  0  0
 52122  1  0  0  0
 52123  1  0  0  0
 53 54  1  0  0  0
 54 55  2  0  0  0
 54124  1  0  0  0
 55 57  1  0  0  0
 55125  1  0  0  0
 56 69  2  0  0  0
 57 58  2  0  0  0
 57126  1  0  0  0
 58127  1  0  0  0
 59 60  1  0  0  0
 59 61  1  0  0  0
 59 62  1  0  0  0
 60128  1  0  0  0
 60129  1  0  0  0
 60130  1  0  0  0
 61131  1  0  0  0
 61132  1  0  0  0
 61133  1  0  0  0
 62134  1  0  0  0
 62135  1  0  0  0
 62136  1  0  0  0
 63 65  1  0  0  0
 63137  1  0  0  0
 63138  1  0  0  0
 63139  1  0  0  0
 64140  1  0  0  0
 65141  1  0  0  0
 68 78  1  0  0  0
 71 73  1  0  0  0
 71 80  1  0  0  0
 71 81  2  0  0  0
 72 75  1  0  0  0
 72 80  2  0  0  0
 72 82  1  0  0  0
 73142  1  0  0  0
 73143  1  0  0  0
 73144  1  0  0  0
 74145  1  0  0  0
 74146  1  0  0  0
 74147  1  0  0  0
 74 79  1  0  0  0
 75 76  1  0  0  0
 75148  1  0  0  0
 75149  1  0  0  0
 76 78  1  0  0  0
 76150  1  0  0  0
 76151  1  0  0  0
 77 79  1  0  0  0
 77 82  1  0  0  0
 77152  1  0  0  0
 77153  1  0  0  0
 78154  1  0  0  0
 78155  1  0  0  0
 79156  1  0  0  0
 81 82  1  0  0  0
M  ISO  4   1 100  68 101  78 101  79 100
M  END
> <chiral flag>
0

> <version>
0

> <s_m_source_file>
/data/baiqing/PycharmProjects/Reinvent-master-3.2/result/LINK_invent/BTK/process_docking_weight1_custom_sum_contain_oxygen_bond_distance_aromatic_linkinvent_7_9_3/rearranged_h_0059.sdf

> <i_m_source_file_index>
34

> <r_mmod_Potential_Energy-OPLS-2005>
499.345428466797

> <r_mmod_Stretch_Energy-OPLS-2005>
284.036071777344

> <r_mmod_Bend_Energy-OPLS-2005>
323.470336914062

> <r_mmod_Torsional_Energy-OPLS-2005>
192.664428710938

> <r_mmod_Improper_Torsional_Energy-OPLS-2005>
2.18606448173523

> <r_mmod_Van_der_Waal_Energy-OPLS-2005>
116.67578125

> <r_mmod_Electrostatic_Energy-OPLS-2005>
-389.433380126953

> <r_mmod_Solvation_Energy-OPLS-2005>
-204.075012207031

> <b_mmod_Minimization_Converged-OPLS-2005>
0

> <r_mmod_RMS_Derivative-OPLS-2005>
0.663646459579468

$$$$
34
                    3D
 Structure written by MMmdl.
156164  0  0  1  0            999 V2000
  -30.6441  -14.7168   20.5264 C   0  0  0  0  0  0
  -30.4274  -12.4477   19.4823 C   0  0  0  0  0  0
  -29.5130  -12.5361   18.2391 C   0  0  0  0  0  0
  -28.0327  -12.3705   18.6364 C   0  0  0  0  0  0
  -27.6453  -13.2418   19.8616 C   0  0  2  0  0  0
  -28.6860  -13.1433   20.9991 C   0  0  0  0  0  0
  -25.2494  -13.8222   20.5694 C   0  0  0  0  0  0
  -24.1796  -13.0454   20.9187 C   0  0  0  0  0  0
  -24.6389  -11.6925   20.8714 C   0  0  0  0  0  0
  -23.9059  -10.4300   21.0375 C   0  0  0  0  0  0
  -24.3615   -9.4221   21.9159 C   0  0  0  0  0  0
  -23.6299   -8.2251   22.0733 C   0  0  0  0  0  0
  -22.4274   -8.0279   21.3535 C   0  0  0  0  0  0
  -21.9898   -9.0248   20.4638 C   0  0  0  0  0  0
  -22.7219  -10.2132   20.3035 C   0  0  0  0  0  0
  -21.6858   -6.0740   22.5285 C   0  0  0  0  0  0
  -21.4013   -6.5640   23.8221 C   0  0  0  0  0  0
  -21.3647   -5.6786   24.9177 C   0  0  0  0  0  0
  -21.6047   -4.3052   24.7233 C   0  0  0  0  0  0
  -21.8813   -3.8143   23.4356 C   0  0  0  0  0  0
  -21.9196   -4.6963   22.3411 C   0  0  0  0  0  0
  -22.7818  -13.5217   21.1880 C   0  0  0  0  0  0
  -22.1673   -4.2146   21.0991 F   0  0  0  0  0  0
  -21.5619   -3.4536   25.7744 F   0  0  0  0  0  0
  -29.9977  -13.4988   20.4381 N   0  0  0  0  0  0
  -26.2947  -12.9459   20.3309 N   0  0  0  0  0  0
  -25.9328  -11.6584   20.5726 N   0  0  0  0  0  0
  -22.0483  -12.8228   22.0467 N   0  0  0  0  0  0
  -25.4184  -15.1957   20.4180 N   0  0  0  0  0  0
  -31.7782  -14.8336   20.0508 O   0  0  0  0  0  0
  -21.6641   -6.8874   21.4237 O   0  0  0  0  0  0
  -22.3493  -14.5515   20.6695 O   0  0  0  0  0  0
  -24.6307  -31.8556   23.1997 C   0  0  0  0  0  0
  -25.9121  -32.4772   23.8319 C   0  0  1  0  0  0
  -27.2122  -27.2732   20.1166 C   0  0  0  0  0  0
  -25.5900  -33.8568   24.2253 N   0  0  0  0  0  0
  -23.4249  -30.4833   21.5430 C   0  0  2  0  0  0
  -24.8718  -28.9366   20.1047 C   0  0  0  0  0  0
  -22.7499  -29.4626   22.4908 C   0  0  0  0  0  0
  -18.0285  -28.1432   22.8489 C   0  0  0  0  0  0
  -24.1470  -36.7276   23.2643 C   0  0  0  0  0  0
  -25.9699  -30.7773   21.3698 C   0  0  0  0  0  0
  -26.0447  -29.4000   20.7147 C   0  0  0  0  0  0
  -27.2196  -28.5806   20.7115 C   0  0  0  0  0  0
  -26.0229  -26.8929   19.4549 C   0  0  0  0  0  0
  -24.8655  -27.6908   19.4642 C   0  0  0  0  0  0
  -23.6411  -29.8194   20.1585 C   0  0  0  0  0  0
  -25.4092  -36.3068   24.0342 C   0  0  1  0  0  0
  -20.5898  -28.3711   23.1280 C   0  0  2  0  0  0
  -20.6770  -26.9433   22.5391 C   0  0  0  0  0  0
  -19.5736  -26.6436   21.5203 C   0  0  0  0  0  0
  -18.1925  -26.7979   22.1631 C   0  0  0  0  0  0
  -19.1543  -28.8882   23.2893 C   0  0  0  0  0  0
  -18.9477  -30.1485   23.8910 C   0  0  0  0  0  0
  -17.6483  -30.6623   24.0590 C   0  0  0  0  0  0
  -25.9043  -34.9451   23.5105 C   0  0  0  0  0  0
  -16.5369  -29.9135   23.6353 C   0  0  0  0  0  0
  -16.7274  -28.6561   23.0351 C   0  0  0  0  0  0
  -26.4514  -31.6594   25.0681 C   0  0  0  0  0  0
  -25.3761  -31.3733   26.1424 C   0  0  0  0  0  0
  -27.0332  -30.3026   24.6076 C   0  0  0  0  0  0
  -27.6090  -32.4330   25.7409 C   0  0  0  0  0  0
  -27.5563  -37.1759   24.8481 C   0  0  0  0  0  0
  -21.4206  -29.3075   22.3670 N   0  0  0  0  0  0
  -26.4262  -37.3776   23.9452 N   0  0  0  0  0  0
  -24.6960  -31.0542   22.0962 N   0  0  0  0  0  0
  -23.4193  -28.8142   23.2991 O   0  0  0  0  0  0
  -28.2803  -26.3458   20.1880 O   0  0  0  0  0  0
  -26.5628  -34.8939   22.4677 O   0  0  0  0  0  0
  -23.5459  -32.1362   23.7308 O   0  0  0  0  0  0
  -30.3672  -23.9727   20.4483 C   0  0  0  0  0  0
  -28.9814  -23.7327   20.3938 C   0  0  0  0  0  0
  -29.5114  -21.4042   20.3115 C   0  0  0  0  0  0
  -27.3860  -24.9213   21.9621 C   0  0  0  0  0  0
  -29.8473  -16.0490   22.4027 C   0  0  0  0  0  0
  -29.1430  -19.8914   19.9761 C   0  0  0  0  0  0
  -29.6678  -18.6285   20.8520 C   0  0  0  0  0  0
  -29.7998  -17.1585   20.1538 C   0  0  0  0  0  0
  -27.9263  -24.9142   20.5200 C   0  0  1  0  0  0
  -31.2549  -22.9441   20.4301 N   0  0  0  0  0  0
  -28.5679  -22.4018   20.3245 N   0  0  0  0  0  0
  -30.8303  -21.6690   20.3492 N   0  0  0  0  0  0
  -29.9477  -15.8509   20.9535 N   0  0  0  0  0  0
  -31.4746  -12.5515   19.1934 H   0  0  0  0  0  0
  -30.3494  -11.4613   19.9420 H   0  0  0  0  0  0
  -29.7925  -11.7790   17.5058 H   0  0  0  0  0  0
  -29.6553  -13.5026   17.7508 H   0  0  0  0  0  0
  -27.8619  -11.3162   18.8573 H   0  0  0  0  0  0
  -27.3855  -12.6089   17.7908 H   0  0  0  0  0  0
  -27.6478  -14.2739   19.5092 H   0  0  0  0  0  0
  -28.7090  -12.1336   21.4113 H   0  0  0  0  0  0
  -28.4104  -13.8033   21.8217 H   0  0  0  0  0  0
  -25.2758   -9.5703   22.4738 H   0  0  0  0  0  0
  -24.0007   -7.4640   22.7450 H   0  0  0  0  0  0
  -21.0813   -8.8754   19.8980 H   0  0  0  0  0  0
  -22.3639  -10.9666   19.6148 H   0  0  0  0  0  0
  -21.2002   -7.6141   23.9721 H   0  0  0  0  0  0
  -21.1477   -6.0523   25.9076 H   0  0  0  0  0  0
  -22.0599   -2.7603   23.2872 H   0  0  0  0  0  0
  -22.4114  -11.9922   22.4905 H   0  0  0  0  0  0
  -21.1100  -13.1250   22.2672 H   0  0  0  0  0  0
  -24.6537  -15.8522   20.5345 H   0  0  0  0  0  0
  -26.2854  -15.6423   20.1483 H   0  0  0  0  0  0
  -26.7164  -32.5432   23.1042 H   0  0  0  0  0  0
  -25.0006  -33.9701   25.0366 H   0  0  0  0  0  0
  -22.7199  -31.3056   21.3993 H   0  0  0  0  0  0
  -23.3758  -35.9582   23.3296 H   0  0  0  0  0  0
  -24.3562  -36.8892   22.2055 H   0  0  0  0  0  0
  -23.7196  -37.6464   23.6671 H   0  0  0  0  0  0
  -26.0838  -31.5348   20.5922 H   0  0  0  0  0  0
  -26.8589  -30.8429   21.9859 H   0  0  0  0  0  0
  -28.1141  -28.9251   21.2104 H   0  0  0  0  0  0
  -25.9517  -25.9581   18.9217 H   0  0  0  0  0  0
  -23.9706  -27.3373   18.9710 H   0  0  0  0  0  0
  -23.7508  -30.5957   19.4006 H   0  0  0  0  0  0
  -22.7618  -29.2460   19.8599 H   0  0  0  0  0  0
  -25.1267  -36.1896   25.0832 H   0  0  0  0  0  0
  -20.9993  -28.3274   24.1402 H   0  0  0  0  0  0
  -20.5681  -26.2314   23.3585 H   0  0  0  0  0  0
  -21.6633  -26.7470   22.1162 H   0  0  0  0  0  0
  -19.6891  -25.6362   21.1196 H   0  0  0  0  0  0
  -19.6673  -27.3280   20.6762 H   0  0  0  0  0  0
  -17.4178  -26.6730   21.4049 H   0  0  0  0  0  0
  -18.0330  -26.0136   22.9041 H   0  0  0  0  0  0
  -19.7957  -30.7311   24.2270 H   0  0  0  0  0  0
  -17.5045  -31.6299   24.5211 H   0  0  0  0  0  0
  -15.5376  -30.3048   23.7709 H   0  0  0  0  0  0
  -15.8666  -28.0918   22.7043 H   0  0  0  0  0  0
  -24.5945  -30.7061   25.7776 H   0  0  0  0  0  0
  -24.8944  -32.2897   26.4848 H   0  0  0  0  0  0
  -25.8105  -30.8922   27.0194 H   0  0  0  0  0  0
  -26.2850  -29.6774   24.1181 H   0  0  0  0  0  0
  -27.4168  -29.7283   25.4520 H   0  0  0  0  0  0
  -27.8669  -30.4360   23.9178 H   0  0  0  0  0  0
  -27.2726  -33.3645   26.1982 H   0  0  0  0  0  0
  -28.3868  -32.6871   25.0192 H   0  0  0  0  0  0
  -28.0794  -31.8451   26.5301 H   0  0  0  0  0  0
  -28.2599  -38.0046   24.7554 H   0  0  0  0  0  0
  -28.1042  -36.2585   24.6273 H   0  0  0  0  0  0
  -27.2295  -37.1366   25.8888 H   0  0  0  0  0  0
  -20.9378  -29.8797   21.6891 H   0  0  0  0  0  0
  -26.0147  -38.2832   24.1534 H   0  0  0  0  0  0
  -30.7670  -24.9747   20.5192 H   0  0  0  0  0  0
  -27.0321  -23.9323   22.2518 H   0  0  0  0  0  0
  -26.5524  -25.6110   22.0938 H   0  0  0  0  0  0
  -28.1679  -25.2129   22.6625 H   0  0  0  0  0  0
  -30.5897  -16.7724   22.7419 H   0  0  0  0  0  0
  -30.0181  -15.1338   22.9717 H   0  0  0  0  0  0
  -28.8574  -16.4156   22.6764 H   0  0  0  0  0  0
  -29.4662  -19.7395   18.9455 H   0  0  0  0  0  0
  -28.0535  -19.8306   19.9323 H   0  0  0  0  0  0
  -29.0312  -18.5729   21.7343 H   0  0  0  0  0  0
  -30.6562  -18.8860   21.2338 H   0  0  0  0  0  0
  -30.6282  -17.2125   19.4448 H   0  0  0  0  0  0
  -28.9152  -17.0089   19.5329 H   0  0  0  0  0  0
  -27.1262  -24.5775   19.8654 H   0  0  0  0  0  0
  1 25  1  0  0  0
  1 30  2  0  0  0
  1 83  1  0  0  0
  2  3  1  0  0  0
  2 25  1  0  0  0
  2 84  1  0  0  0
  2 85  1  0  0  0
  3  4  1  0  0  0
  3 86  1  0  0  0
  3 87  1  0  0  0
  4  5  1  0  0  0
  4 88  1  0  0  0
  4 89  1  0  0  0
  5  6  1  0  0  0
  5 26  1  0  0  0
  5 90  1  0  0  0
  6 25  1  0  0  0
  6 91  1  0  0  0
  6 92  1  0  0  0
  7  8  2  0  0  0
  7 26  1  0  0  0
  7 29  1  0  0  0
  8  9  1  0  0  0
  8 22  1  0  0  0
  9 10  1  0  0  0
  9 27  2  0  0  0
 10 11  2  0  0  0
 10 15  1  0  0  0
 11 12  1  0  0  0
 11 93  1  0  0  0
 12 13  2  0  0  0
 12 94  1  0  0  0
 13 14  1  0  0  0
 13 31  1  0  0  0
 14 15  2  0  0  0
 14 95  1  0  0  0
 15 96  1  0  0  0
 16 17  2  0  0  0
 16 21  1  0  0  0
 16 31  1  0  0  0
 17 18  1  0  0  0
 17 97  1  0  0  0
 18 19  2  0  0  0
 18 98  1  0  0  0
 19 20  1  0  0  0
 19 24  1  0  0  0
 20 21  2  0  0  0
 20 99  1  0  0  0
 21 23  1  0  0  0
 22 28  1  0  0  0
 22 32  2  0  0  0
 26 27  1  0  0  0
 28100  1  0  0  0
 28101  1  0  0  0
 29102  1  0  0  0
 29103  1  0  0  0
 33 34  1  0  0  0
 33 66  1  0  0  0
 33 70  2  0  0  0
 34 36  1  0  0  0
 34 59  1  0  0  0
 34104  1  0  0  0
 35 44  2  0  0  0
 35 45  1  0  0  0
 35 68  1  0  0  0
 36 56  1  0  0  0
 36105  1  0  0  0
 37 39  1  0  0  0
 37 47  1  0  0  0
 37 66  1  0  0  0
 37106  1  0  0  0
 38 43  2  0  0  0
 38 46  1  0  0  0
 38 47  1  0  0  0
 39 64  1  0  0  0
 39 67  2  0  0  0
 40 52  1  0  0  0
 40 53  2  0  0  0
 40 58  1  0  0  0
 41107  1  0  0  0
 41108  1  0  0  0
 41109  1  0  0  0
 41 48  1  0  0  0
 42 43  1  0  0  0
 42 66  1  0  0  0
 42110  1  0  0  0
 42111  1  0  0  0
 43 44  1  0  0  0
 44112  1  0  0  0
 45 46  2  0  0  0
 45113  1  0  0  0
 46114  1  0  0  0
 47115  1  0  0  0
 47116  1  0  0  0
 48 56  1  0  0  0
 48 65  1  0  0  0
 48117  1  0  0  0
 49 50  1  0  0  0
 49 53  1  0  0  0
 49 64  1  0  0  0
 49118  1  0  0  0
 50 51  1  0  0  0
 50119  1  0  0  0
 50120  1  0  0  0
 51 52  1  0  0  0
 51121  1  0  0  0
 51122  1  0  0  0
 52123  1  0  0  0
 52124  1  0  0  0
 53 54  1  0  0  0
 54 55  2  0  0  0
 54125  1  0  0  0
 55 57  1  0  0  0
 55126  1  0  0  0
 56 69  2  0  0  0
 57 58  2  0  0  0
 57127  1  0  0  0
 58128  1  0  0  0
 59 60  1  0  0  0
 59 61  1  0  0  0
 59 62  1  0  0  0
 60129  1  0  0  0
 60130  1  0  0  0
 60131  1  0  0  0
 61132  1  0  0  0
 61133  1  0  0  0
 61134  1  0  0  0
 62135  1  0  0  0
 62136  1  0  0  0
 62137  1  0  0  0
 63 65  1  0  0  0
 63138  1  0  0  0
 63139  1  0  0  0
 63140  1  0  0  0
 64141  1  0  0  0
 65142  1  0  0  0
 68 79  1  0  0  0
 71 72  2  0  0  0
 71 80  1  0  0  0
 71143  1  0  0  0
 72 79  1  0  0  0
 72 81  1  0  0  0
 73 76  1  0  0  0
 73 81  2  0  0  0
 73 82  1  0  0  0
 74144  1  0  0  0
 74145  1  0  0  0
 74146  1  0  0  0
 74 79  1  0  0  0
 75 83  1  0  0  0
 75147  1  0  0  0
 75148  1  0  0  0
 75149  1  0  0  0
 76 77  1  0  0  0
 76150  1  0  0  0
 76151  1  0  0  0
 77 78  1  0  0  0
 77152  1  0  0  0
 77153  1  0  0  0
 78 83  1  0  0  0
 78154  1  0  0  0
 78155  1  0  0  0
 79156  1  0  0  0
 80 82  2  0  0  0
M  ISO  4   1 100  68 101  79 101  83 100
M  END
> <chiral flag>
0

> <version>
0

> <s_m_source_file>
/data/baiqing/PycharmProjects/Reinvent-master-3.2/result/LINK_invent/BTK/process_docking_weight1_custom_sum_contain_oxygen_bond_distance_aromatic_linkinvent_7_9_3/rearranged_h_0059.sdf

> <i_m_source_file_index>
35

> <r_mmod_Potential_Energy-OPLS-2005>
317.374786376953

> <r_mmod_Stretch_Energy-OPLS-2005>
132.702011108398

> <r_mmod_Bend_Energy-OPLS-2005>
172.806869506836

> <r_mmod_Torsional_Energy-OPLS-2005>
290.782196044922

> <r_mmod_Improper_Torsional_Energy-OPLS-2005>
7.56347179412842

> <r_mmod_Van_der_Waal_Energy-OPLS-2005>
149.123794555664

> <r_mmod_Electrostatic_Energy-OPLS-2005>
-293.882171630859

> <r_mmod_Solvation_Energy-OPLS-2005>
-218.627197265625

> <b_mmod_Minimization_Converged-OPLS-2005>
0

> <r_mmod_RMS_Derivative-OPLS-2005>
2.69780707359314

$$$$
35
                    3D
 Structure written by MMmdl.
145153  0  0  1  0            999 V2000
  -30.2377  -15.7084   20.3316 C   0  0  0  0  0  0
  -30.4327  -13.1207   19.5617 C   0  0  0  0  0  0
  -29.5645  -12.6870   18.3404 C   0  0  0  0  0  0
  -28.1367  -12.3138   18.7690 C   0  0  0  0  0  0
  -27.5981  -13.3168   19.8117 C   0  0  2  0  0  0
  -28.6057  -13.6552   20.9346 C   0  0  0  0  0  0
  -25.2333  -13.8301   20.5786 C   0  0  0  0  0  0
  -24.1726  -13.0437   20.9269 C   0  0  0  0  0  0
  -24.6434  -11.6953   20.8734 C   0  0  0  0  0  0
  -23.9132  -10.4299   21.0383 C   0  0  0  0  0  0
  -24.3665   -9.4212   21.9172 C   0  0  0  0  0  0
  -23.6322   -8.2252   22.0751 C   0  0  0  0  0  0
  -22.4299   -8.0291   21.3548 C   0  0  0  0  0  0
  -21.9949   -9.0264   20.4643 C   0  0  0  0  0  0
  -22.7293  -10.2135   20.3043 C   0  0  0  0  0  0
  -21.6863   -6.0743   22.5280 C   0  0  0  0  0  0
  -21.4026   -6.5646   23.8215 C   0  0  0  0  0  0
  -21.3664   -5.6794   24.9175 C   0  0  0  0  0  0
  -21.6046   -4.3055   24.7222 C   0  0  0  0  0  0
  -21.8821   -3.8151   23.4343 C   0  0  0  0  0  0
  -21.9197   -4.6970   22.3400 C   0  0  0  0  0  0
  -22.7736  -13.5158   21.1918 C   0  0  0  0  0  0
  -22.1659   -4.2159   21.0979 F   0  0  0  0  0  0
  -21.5625   -3.4535   25.7734 F   0  0  0  0  0  0
  -29.7891  -14.3005   20.3104 N   0  0  0  0  0  0
  -26.2787  -12.9647   20.3194 N   0  0  0  0  0  0
  -25.9383  -11.6707   20.5651 N   0  0  0  0  0  0
  -22.0404  -12.8135   22.0476 N   0  0  0  0  0  0
  -25.3926  -15.2049   20.4284 N   0  0  0  0  0  0
  -31.4622  -15.6676   20.0880 O   0  0  0  0  0  0
  -21.6654   -6.8894   21.4244 O   0  0  0  0  0  0
  -22.3405  -14.5454   20.6756 O   0  0  0  0  0  0
  -24.6899  -31.7929   23.1464 C   0  0  0  0  0  0
  -25.9449  -32.4431   23.8034 C   0  0  1  0  0  0
  -27.2311  -26.6429   20.2185 C   0  0  0  0  0  0
  -25.6003  -33.8260   24.1917 N   0  0  0  0  0  0
  -23.5192  -30.3918   21.5015 C   0  0  2  0  0  0
  -24.9784  -28.7211   20.1197 C   0  0  0  0  0  0
  -22.7797  -29.4273   22.4687 C   0  0  0  0  0  0
  -18.0347  -28.1422   22.8449 C   0  0  0  0  0  0
  -24.1499  -36.7141   23.2654 C   0  0  0  0  0  0
  -26.1026  -30.5071   21.4180 C   0  0  0  0  0  0
  -26.1695  -29.0651   20.7698 C   0  0  0  0  0  0
  -27.2790  -28.0565   20.7834 C   0  0  0  0  0  0
  -26.0055  -26.5253   19.5093 C   0  0  0  0  0  0
  -24.9389  -27.4781   19.4651 C   0  0  0  0  0  0
  -23.7772  -29.6837   20.1398 C   0  0  0  0  0  0
  -25.4153  -36.2874   24.0273 C   0  0  1  0  0  0
  -20.5982  -28.3791   23.1132 C   0  0  2  0  0  0
  -20.6810  -26.9442   22.5410 C   0  0  0  0  0  0
  -19.5789  -26.6365   21.5220 C   0  0  0  0  0  0
  -18.1969  -26.7946   22.1619 C   0  0  0  0  0  0
  -19.1611  -28.8933   23.2767 C   0  0  0  0  0  0
  -18.9514  -30.1510   23.8821 C   0  0  0  0  0  0
  -17.6503  -30.6603   24.0546 C   0  0  0  0  0  0
  -25.9133  -34.9265   23.4937 C   0  0  0  0  0  0
  -16.5393  -29.9084   23.6346 C   0  0  0  0  0  0
  -16.7324  -28.6506   23.0365 C   0  0  0  0  0  0
  -26.4610  -31.6487   25.0680 C   0  0  0  0  0  0
  -25.3659  -31.3816   26.1282 C   0  0  0  0  0  0
  -27.0543  -30.2821   24.6606 C   0  0  0  0  0  0
  -27.6049  -32.4355   25.7501 C   0  0  0  0  0  0
  -27.5557  -37.1732   24.8468 C   0  0  0  0  0  0
  -21.4436  -29.3024   22.3443 N   0  0  0  0  0  0
  -26.4274  -37.3640   23.9397 N   0  0  0  0  0  0
  -24.7947  -30.9314   22.0747 N   0  0  0  0  0  0
  -23.4212  -28.7872   23.3049 O   0  0  0  0  0  0
  -28.1810  -25.3906   20.2880 O   0  0  0  0  0  0
  -26.5775  -34.8854   22.4556 O   0  0  0  0  0  0
  -23.5905  -32.1023   23.6388 O   0  0  0  0  0  0
  -30.1400  -21.4199   20.3537 C   0  0  0  0  0  0
  -28.3815  -20.4186   20.2778 C   0  0  0  0  0  0
  -28.7572  -21.8910   20.2706 C   0  0  0  0  0  0
  -29.0197  -17.3151   22.1141 C   0  0  0  0  0  0
  -27.9038  -23.6295   20.1717 C   0  0  0  0  0  0
  -29.3357  -17.3729   20.6091 C   0  0  2  0  0  0
  -30.4488  -20.0440   20.4186 N   0  0  0  0  0  0
  -29.3590  -19.1869   20.3347 N   0  0  0  0  0  0
  -31.4255  -13.3902   19.2012 H   0  0  0  0  0  0
  -30.5987  -12.2759   20.2324 H   0  0  0  0  0  0
  -30.0317  -11.8530   17.8159 H   0  0  0  0  0  0
  -29.5215  -13.5125   17.6281 H   0  0  0  0  0  0
  -28.1657  -11.3144   19.2048 H   0  0  0  0  0  0
  -27.4753  -12.2572   17.9035 H   0  0  0  0  0  0
  -27.4585  -14.2390   19.2452 H   0  0  0  0  0  0
  -28.8666  -12.7738   21.5226 H   0  0  0  0  0  0
  -28.1498  -14.3577   21.6320 H   0  0  0  0  0  0
  -25.2805   -9.5685   22.4759 H   0  0  0  0  0  0
  -24.0026   -7.4648   22.7481 H   0  0  0  0  0  0
  -21.0875   -8.8797   19.8950 H   0  0  0  0  0  0
  -22.3753  -10.9677   19.6154 H   0  0  0  0  0  0
  -21.2022   -7.6154   23.9722 H   0  0  0  0  0  0
  -21.1482   -6.0522   25.9080 H   0  0  0  0  0  0
  -22.0594   -2.7614   23.2840 H   0  0  0  0  0  0
  -22.4046  -11.9816   22.4881 H   0  0  0  0  0  0
  -21.1010  -13.1137   22.2668 H   0  0  0  0  0  0
  -24.6219  -15.8529   20.5513 H   0  0  0  0  0  0
  -26.2382  -15.6536   20.1027 H   0  0  0  0  0  0
  -26.7532  -32.4889   23.0740 H   0  0  0  0  0  0
  -25.0057  -33.9286   25.0010 H   0  0  0  0  0  0
  -22.8477  -31.2306   21.3061 H   0  0  0  0  0  0
  -23.3767  -35.9465   23.3280 H   0  0  0  0  0  0
  -24.3560  -36.8842   22.2074 H   0  0  0  0  0  0
  -23.7255  -37.6310   23.6758 H   0  0  0  0  0  0
  -26.3092  -31.2277   20.6255 H   0  0  0  0  0  0
  -26.9522  -30.5806   22.0843 H   0  0  0  0  0  0
  -28.1750  -28.3303   21.3223 H   0  0  0  0  0  0
  -25.8265  -25.5889   19.0007 H   0  0  0  0  0  0
  -24.0414  -27.2066   18.9264 H   0  0  0  0  0  0
  -23.9579  -30.4408   19.3760 H   0  0  0  0  0  0
  -22.8811  -29.1529   19.8140 H   0  0  0  0  0  0
  -25.1365  -36.1628   25.0763 H   0  0  0  0  0  0
  -21.0063  -28.3417   24.1261 H   0  0  0  0  0  0
  -20.5669  -26.2410   23.3675 H   0  0  0  0  0  0
  -21.6668  -26.7371   22.1228 H   0  0  0  0  0  0
  -19.6944  -25.6254   21.1303 H   0  0  0  0  0  0
  -19.6735  -27.3129   20.6710 H   0  0  0  0  0  0
  -17.4238  -26.6684   21.4022 H   0  0  0  0  0  0
  -18.0356  -26.0112   22.9037 H   0  0  0  0  0  0
  -19.7988  -30.7344   24.2161 H   0  0  0  0  0  0
  -17.5052  -31.6275   24.5161 H   0  0  0  0  0  0
  -15.5390  -30.2962   23.7714 H   0  0  0  0  0  0
  -15.8722  -28.0798   22.7126 H   0  0  0  0  0  0
  -24.5882  -30.7127   25.7574 H   0  0  0  0  0  0
  -24.8810  -32.3044   26.4481 H   0  0  0  0  0  0
  -25.7831  -30.9127   27.0204 H   0  0  0  0  0  0
  -26.3270  -29.6424   24.1600 H   0  0  0  0  0  0
  -27.3952  -29.7279   25.5358 H   0  0  0  0  0  0
  -27.9256  -30.3928   24.0150 H   0  0  0  0  0  0
  -27.2590  -33.3735   26.1854 H   0  0  0  0  0  0
  -28.3982  -32.6788   25.0421 H   0  0  0  0  0  0
  -28.0583  -31.8634   26.5603 H   0  0  0  0  0  0
  -28.2553  -38.0043   24.7490 H   0  0  0  0  0  0
  -28.1072  -36.2563   24.6334 H   0  0  0  0  0  0
  -27.2265  -37.1412   25.8869 H   0  0  0  0  0  0
  -20.9756  -29.8676   21.6496 H   0  0  0  0  0  0
  -26.0092  -38.2687   24.1402 H   0  0  0  0  0  0
  -30.9983  -22.0769   20.3890 H   0  0  0  0  0  0
  -27.3465  -20.1057   20.2622 H   0  0  0  0  0  0
  -29.7493  -17.8954   22.6790 H   0  0  0  0  0  0
  -29.0312  -16.3043   22.5200 H   0  0  0  0  0  0
  -28.0350  -17.7344   22.3211 H   0  0  0  0  0  0
  -27.3798  -23.6008   19.2159 H   0  0  0  0  0  0
  -27.0842  -23.5462   20.8858 H   0  0  0  0  0  0
  -28.4090  -17.1017   20.1040 H   0  0  0  0  0  0
  1 25  1  0  0  0
  1 30  2  0  0  0
  1 76  1  0  0  0
  2  3  1  0  0  0
  2 25  1  0  0  0
  2 79  1  0  0  0
  2 80  1  0  0  0
  3  4  1  0  0  0
  3 81  1  0  0  0
  3 82  1  0  0  0
  4  5  1  0  0  0
  4 83  1  0  0  0
  4 84  1  0  0  0
  5  6  1  0  0  0
  5 26  1  0  0  0
  5 85  1  0  0  0
  6 25  1  0  0  0
  6 86  1  0  0  0
  6 87  1  0  0  0
  7  8  2  0  0  0
  7 26  1  0  0  0
  7 29  1  0  0  0
  8  9  1  0  0  0
  8 22  1  0  0  0
  9 10  1  0  0  0
  9 27  2  0  0  0
 10 11  2  0  0  0
 10 15  1  0  0  0
 11 12  1  0  0  0
 11 88  1  0  0  0
 12 13  2  0  0  0
 12 89  1  0  0  0
 13 14  1  0  0  0
 13 31  1  0  0  0
 14 15  2  0  0  0
 14 90  1  0  0  0
 15 91  1  0  0  0
 16 17  2  0  0  0
 16 21  1  0  0  0
 16 31  1  0  0  0
 17 18  1  0  0  0
 17 92  1  0  0  0
 18 19  2  0  0  0
 18 93  1  0  0  0
 19 20  1  0  0  0
 19 24  1  0  0  0
 20 21  2  0  0  0
 20 94  1  0  0  0
 21 23  1  0  0  0
 22 28  1  0  0  0
 22 32  2  0  0  0
 26 27  1  0  0  0
 28 95  1  0  0  0
 28 96  1  0  0  0
 29 97  1  0  0  0
 29 98  1  0  0  0
 33 34  1  0  0  0
 33 66  1  0  0  0
 33 70  2  0  0  0
 34 36  1  0  0  0
 34 59  1  0  0  0
 34 99  1  0  0  0
 35 44  2  0  0  0
 35 45  1  0  0  0
 35 68  1  0  0  0
 36 56  1  0  0  0
 36100  1  0  0  0
 37 39  1  0  0  0
 37 47  1  0  0  0
 37 66  1  0  0  0
 37101  1  0  0  0
 38 43  2  0  0  0
 38 46  1  0  0  0
 38 47  1  0  0  0
 39 64  1  0  0  0
 39 67  2  0  0  0
 40 52  1  0  0  0
 40 53  2  0  0  0
 40 58  1  0  0  0
 41102  1  0  0  0
 41103  1  0  0  0
 41104  1  0  0  0
 41 48  1  0  0  0
 42 43  1  0  0  0
 42 66  1  0  0  0
 42105  1  0  0  0
 42106  1  0  0  0
 43 44  1  0  0  0
 44107  1  0  0  0
 45 46  2  0  0  0
 45108  1  0  0  0
 46109  1  0  0  0
 47110  1  0  0  0
 47111  1  0  0  0
 48 56  1  0  0  0
 48 65  1  0  0  0
 48112  1  0  0  0
 49 50  1  0  0  0
 49 53  1  0  0  0
 49 64  1  0  0  0
 49113  1  0  0  0
 50 51  1  0  0  0
 50114  1  0  0  0
 50115  1  0  0  0
 51 52  1  0  0  0
 51116  1  0  0  0
 51117  1  0  0  0
 52118  1  0  0  0
 52119  1  0  0  0
 53 54  1  0  0  0
 54 55  2  0  0  0
 54120  1  0  0  0
 55 57  1  0  0  0
 55121  1  0  0  0
 56 69  2  0  0  0
 57 58  2  0  0  0
 57122  1  0  0  0
 58123  1  0  0  0
 59 60  1  0  0  0
 59 61  1  0  0  0
 59 62  1  0  0  0
 60124  1  0  0  0
 60125  1  0  0  0
 60126  1  0  0  0
 61127  1  0  0  0
 61128  1  0  0  0
 61129  1  0  0  0
 62130  1  0  0  0
 62131  1  0  0  0
 62132  1  0  0  0
 63 65  1  0  0  0
 63133  1  0  0  0
 63134  1  0  0  0
 63135  1  0  0  0
 64136  1  0  0  0
 65137  1  0  0  0
 68 75  1  0  0  0
 71 73  1  0  0  0
 71 77  2  0  0  0
 71138  1  0  0  0
 72 73  2  0  0  0
 72 78  1  0  0  0
 72139  1  0  0  0
 73 75  1  0  0  0
 74140  1  0  0  0
 74141  1  0  0  0
 74142  1  0  0  0
 74 76  1  0  0  0
 75143  1  0  0  0
 75144  1  0  0  0
 76 78  1  0  0  0
 76145  1  0  0  0
 77 78  1  0  0  0
M  ISO  4   1 100  68 101  75 101  76 100
M  END
> <chiral flag>
0

> <version>
0

> <s_m_source_file>
/data/baiqing/PycharmProjects/Reinvent-master-3.2/result/LINK_invent/BTK/process_docking_weight1_custom_sum_contain_oxygen_bond_distance_aromatic_linkinvent_7_9_3/rearranged_h_0059.sdf

> <i_m_source_file_index>
36

> <r_mmod_Potential_Energy-OPLS-2005>
2768.26025390625

> <r_mmod_Stretch_Energy-OPLS-2005>
1203.76440429688

> <r_mmod_Bend_Energy-OPLS-2005>
712.644226074219

> <r_mmod_Torsional_Energy-OPLS-2005>
217.603393554688

> <r_mmod_Improper_Torsional_Energy-OPLS-2005>
2.79831981658936

> <r_mmod_Van_der_Waal_Energy-OPLS-2005>
105.59595489502

> <r_mmod_Electrostatic_Energy-OPLS-2005>
-267.602233886719

> <r_mmod_Solvation_Energy-OPLS-2005>
-226.62483215332

> <b_mmod_Minimization_Converged-OPLS-2005>
0

> <r_mmod_RMS_Derivative-OPLS-2005>
0.947213351726532

$$$$
36
                    3D
 Structure written by MMmdl.
158166  0  0  1  0            999 V2000
  -30.4241  -15.3370   20.2964 C   0  0  0  0  0  0
  -30.4400  -12.8571   19.4903 C   0  0  0  0  0  0
  -29.5276  -12.5602   18.2744 C   0  0  0  0  0  0
  -28.0824  -12.2712   18.7238 C   0  0  0  0  0  0
  -27.6003  -13.2520   19.8197 C   0  0  2  0  0  0
  -28.6516  -13.5013   20.9235 C   0  0  0  0  0  0
  -25.2413  -13.8153   20.5854 C   0  0  0  0  0  0
  -24.1719  -13.0376   20.9286 C   0  0  0  0  0  0
  -24.6349  -11.6868   20.8808 C   0  0  0  0  0  0
  -23.9038  -10.4248   21.0444 C   0  0  0  0  0  0
  -24.3597   -9.4169   21.9219 C   0  0  0  0  0  0
  -23.6271   -8.2207   22.0775 C   0  0  0  0  0  0
  -22.4258   -8.0255   21.3551 C   0  0  0  0  0  0
  -21.9892   -9.0225   20.4651 C   0  0  0  0  0  0
  -22.7221  -10.2102   20.3074 C   0  0  0  0  0  0
  -21.6849   -6.0713   22.5275 C   0  0  0  0  0  0
  -21.4017   -6.5631   23.8205 C   0  0  0  0  0  0
  -21.3667   -5.6792   24.9174 C   0  0  0  0  0  0
  -21.6048   -4.3052   24.7233 C   0  0  0  0  0  0
  -21.8819   -3.8135   23.4358 C   0  0  0  0  0  0
  -21.9185   -4.6943   22.3408 C   0  0  0  0  0  0
  -22.7750  -13.5177   21.1895 C   0  0  0  0  0  0
  -22.1659   -4.2132   21.0985 F   0  0  0  0  0  0
  -21.5626   -3.4538   25.7746 F   0  0  0  0  0  0
  -29.8591  -14.0216   20.2523 N   0  0  0  0  0  0
  -26.2803  -12.9357   20.3365 N   0  0  0  0  0  0
  -25.9289  -11.6494   20.5823 N   0  0  0  0  0  0
  -22.0380  -12.8180   22.0442 N   0  0  0  0  0  0
  -25.4108  -15.1882   20.4357 N   0  0  0  0  0  0
  -31.6653  -15.3007   20.2932 O   0  0  0  0  0  0
  -21.6634   -6.8846   21.4234 O   0  0  0  0  0  0
  -22.3469  -14.5487   20.6725 O   0  0  0  0  0  0
  -24.6646  -31.8209   23.1685 C   0  0  0  0  0  0
  -25.9329  -32.4564   23.8149 C   0  0  1  0  0  0
  -27.2234  -26.9065   20.1859 C   0  0  0  0  0  0
  -25.6003  -33.8380   24.2060 N   0  0  0  0  0  0
  -23.4804  -30.4310   21.5184 C   0  0  2  0  0  0
  -24.9341  -28.8113   20.1139 C   0  0  0  0  0  0
  -22.7682  -29.4428   22.4788 C   0  0  0  0  0  0
  -18.0325  -28.1413   22.8464 C   0  0  0  0  0  0
  -24.1498  -36.7185   23.2646 C   0  0  0  0  0  0
  -26.0501  -30.6192   21.4026 C   0  0  0  0  0  0
  -26.1185  -29.2068   20.7471 C   0  0  0  0  0  0
  -27.2573  -28.2772   20.7555 C   0  0  0  0  0  0
  -26.0063  -26.6671   19.5068 C   0  0  0  0  0  0
  -24.9045  -27.5625   19.4727 C   0  0  0  0  0  0
  -23.7222  -29.7433   20.1457 C   0  0  0  0  0  0
  -25.4143  -36.2943   24.0292 C   0  0  1  0  0  0
  -20.5948  -28.3761   23.1189 C   0  0  2  0  0  0
  -20.6809  -26.9442   22.5408 C   0  0  0  0  0  0
  -19.5784  -26.6382   21.5221 C   0  0  0  0  0  0
  -18.1963  -26.7947   22.1620 C   0  0  0  0  0  0
  -19.1585  -28.8910   23.2809 C   0  0  0  0  0  0
  -18.9495  -30.1501   23.8844 C   0  0  0  0  0  0
  -17.6490  -30.6603   24.0561 C   0  0  0  0  0  0
  -25.9113  -34.9330   23.4996 C   0  0  0  0  0  0
  -16.5380  -29.9089   23.6344 C   0  0  0  0  0  0
  -16.7307  -28.6512   23.0362 C   0  0  0  0  0  0
  -26.4582  -31.6508   25.0680 C   0  0  0  0  0  0
  -25.3708  -31.3758   26.1335 C   0  0  0  0  0  0
  -27.0481  -30.2870   24.6426 C   0  0  0  0  0  0
  -27.6072  -32.4321   25.7481 C   0  0  0  0  0  0
  -27.5569  -37.1748   24.8466 C   0  0  0  0  0  0
  -21.4350  -29.3042   22.3539 N   0  0  0  0  0  0
  -26.4281  -37.3689   23.9403 N   0  0  0  0  0  0
  -24.7532  -30.9845   22.0839 N   0  0  0  0  0  0
  -23.4223  -28.8024   23.3058 O   0  0  0  0  0  0
  -28.2361  -25.8014   20.2401 O   0  0  0  0  0  0
  -26.5718  -34.8869   22.4585 O   0  0  0  0  0  0
  -23.5715  -32.1215   23.6757 O   0  0  0  0  0  0
  -26.6657  -19.9639   20.7282 C   0  0  0  0  0  0
  -28.7336  -19.5531   20.4304 C   0  0  0  0  0  0
  -29.0621  -17.4508   17.7513 C   0  0  0  0  0  0
  -30.0220  -22.8277   21.3508 C   0  0  0  0  0  0
  -29.7670  -22.6792   18.8753 C   0  0  0  0  0  0
  -29.9249  -18.2834   20.3668 C   0  0  0  0  0  0
  -28.7294  -16.5428   18.9573 C   0  0  0  0  0  0
  -27.9856  -24.1553   20.2237 C   0  0  0  0  0  0
  -29.0123  -22.6388   20.2123 C   0  0  0  0  0  0
  -27.5658  -18.9542   20.6792 N   0  0  0  0  0  0
  -27.1336  -21.1865   20.5561 N   0  0  0  0  0  0
  -28.4728  -21.0577   20.3685 N   0  0  0  0  0  0
  -29.6715  -16.6309   20.1010 N   0  0  0  0  0  0
  -31.4448  -13.0878   19.1350 H   0  0  0  0  0  0
  -30.5441  -11.9789   20.1290 H   0  0  0  0  0  0
  -29.9171  -11.7155   17.7043 H   0  0  0  0  0  0
  -29.5367  -13.4155   17.5975 H   0  0  0  0  0  0
  -28.0547  -11.2524   19.1128 H   0  0  0  0  0  0
  -27.4054  -12.2913   17.8686 H   0  0  0  0  0  0
  -27.4511  -14.1836   19.2904 H   0  0  0  0  0  0
  -28.8580  -12.5984   21.5002 H   0  0  0  0  0  0
  -28.2841  -14.2470   21.6303 H   0  0  0  0  0  0
  -25.2733   -9.5659   22.4809 H   0  0  0  0  0  0
  -23.9982   -7.4606   22.7506 H   0  0  0  0  0  0
  -21.0823   -8.8736   19.8955 H   0  0  0  0  0  0
  -22.3681  -10.9649   19.6190 H   0  0  0  0  0  0
  -21.2022   -7.6143   23.9707 H   0  0  0  0  0  0
  -21.1495   -6.0526   25.9077 H   0  0  0  0  0  0
  -22.0592   -2.7597   23.2862 H   0  0  0  0  0  0
  -22.4002  -11.9845   22.4826 H   0  0  0  0  0  0
  -21.1013  -13.1234   22.2668 H   0  0  0  0  0  0
  -24.6501  -15.8448   20.5699 H   0  0  0  0  0  0
  -26.2816  -15.6370   20.1820 H   0  0  0  0  0  0
  -26.7398  -32.5094   23.0858 H   0  0  0  0  0  0
  -25.0112  -33.9460   25.0186 H   0  0  0  0  0  0
  -22.7946  -31.2632   21.3461 H   0  0  0  0  0  0
  -23.3773  -35.9503   23.3280 H   0  0  0  0  0  0
  -24.3579  -36.8861   22.2067 H   0  0  0  0  0  0
  -23.7244  -37.6359   23.6727 H   0  0  0  0  0  0
  -26.2332  -31.3594   20.6226 H   0  0  0  0  0  0
  -26.9084  -30.6757   22.0597 H   0  0  0  0  0  0
  -28.1549  -28.5818   21.2750 H   0  0  0  0  0  0
  -25.8717  -25.7164   19.0115 H   0  0  0  0  0  0
  -24.0044  -27.2562   18.9568 H   0  0  0  0  0  0
  -23.8846  -30.5117   19.3891 H   0  0  0  0  0  0
  -22.8299  -29.2020   19.8255 H   0  0  0  0  0  0
  -25.1338  -36.1732   25.0784 H   0  0  0  0  0  0
  -21.0022  -28.3370   24.1317 H   0  0  0  0  0  0
  -20.5709  -26.2379   23.3654 H   0  0  0  0  0  0
  -21.6675  -26.7437   22.1205 H   0  0  0  0  0  0
  -19.6956  -25.6283   21.1278 H   0  0  0  0  0  0
  -19.6723  -27.3172   20.6734 H   0  0  0  0  0  0
  -17.4242  -26.6691   21.4014 H   0  0  0  0  0  0
  -18.0352  -26.0098   22.9020 H   0  0  0  0  0  0
  -19.7973  -30.7335   24.2185 H   0  0  0  0  0  0
  -17.5042  -31.6275   24.5180 H   0  0  0  0  0  0
  -15.5381  -30.2980   23.7703 H   0  0  0  0  0  0
  -15.8704  -28.0822   22.7099 H   0  0  0  0  0  0
  -24.5943  -30.7044   25.7653 H   0  0  0  0  0  0
  -24.8845  -32.2952   26.4599 H   0  0  0  0  0  0
  -25.7954  -30.9052   27.0211 H   0  0  0  0  0  0
  -26.3152  -29.6539   24.1419 H   0  0  0  0  0  0
  -27.3992  -29.7236   25.5079 H   0  0  0  0  0  0
  -27.9101  -30.4038   23.9857 H   0  0  0  0  0  0
  -27.2654  -33.3688   26.1891 H   0  0  0  0  0  0
  -28.3971  -32.6766   25.0367 H   0  0  0  0  0  0
  -28.0642  -31.8553   26.5531 H   0  0  0  0  0  0
  -28.2557  -38.0069   24.7515 H   0  0  0  0  0  0
  -28.1088  -36.2589   24.6291 H   0  0  0  0  0  0
  -27.2282  -37.1384   25.8869 H   0  0  0  0  0  0
  -20.9632  -29.8708   21.6629 H   0  0  0  0  0  0
  -26.0115  -38.2737   24.1431 H   0  0  0  0  0  0
  -25.6141  -19.7884   20.9083 H   0  0  0  0  0  0
  -28.4507  -17.1761   16.8909 H   0  0  0  0  0  0
  -30.1048  -17.3563   17.4459 H   0  0  0  0  0  0
  -28.8550  -18.5034   17.9372 H   0  0  0  0  0  0
  -30.5394  -23.7840   21.2664 H   0  0  0  0  0  0
  -30.7755  -22.0391   21.3504 H   0  0  0  0  0  0
  -29.5166  -22.8049   22.3164 H   0  0  0  0  0  0
  -30.2727  -23.6349   18.7343 H   0  0  0  0  0  0
  -29.0780  -22.5454   18.0405 H   0  0  0  0  0  0
  -30.5191  -21.8920   18.8116 H   0  0  0  0  0  0
  -30.4551  -18.3298   21.3182 H   0  0  0  0  0  0
  -30.6748  -18.6001   19.6423 H   0  0  0  0  0  0
  -28.7425  -15.5536   18.5098 H   0  0  0  0  0  0
  -27.7070  -16.7109   19.2926 H   0  0  0  0  0  0
  -27.3357  -24.0249   21.0893 H   0  0  0  0  0  0
  -27.3128  -24.0120   19.3790 H   0  0  0  0  0  0
  1 25  1  0  0  0
  1 30  2  0  0  0
  1 83  1  0  0  0
  2  3  1  0  0  0
  2 25  1  0  0  0
  2 84  1  0  0  0
  2 85  1  0  0  0
  3  4  1  0  0  0
  3 86  1  0  0  0
  3 87  1  0  0  0
  4  5  1  0  0  0
  4 88  1  0  0  0
  4 89  1  0  0  0
  5  6  1  0  0  0
  5 26  1  0  0  0
  5 90  1  0  0  0
  6 25  1  0  0  0
  6 91  1  0  0  0
  6 92  1  0  0  0
  7  8  2  0  0  0
  7 26  1  0  0  0
  7 29  1  0  0  0
  8  9  1  0  0  0
  8 22  1  0  0  0
  9 10  1  0  0  0
  9 27  2  0  0  0
 10 11  2  0  0  0
 10 15  1  0  0  0
 11 12  1  0  0  0
 11 93  1  0  0  0
 12 13  2  0  0  0
 12 94  1  0  0  0
 13 14  1  0  0  0
 13 31  1  0  0  0
 14 15  2  0  0  0
 14 95  1  0  0  0
 15 96  1  0  0  0
 16 17  2  0  0  0
 16 21  1  0  0  0
 16 31  1  0  0  0
 17 18  1  0  0  0
 17 97  1  0  0  0
 18 19  2  0  0  0
 18 98  1  0  0  0
 19 20  1  0  0  0
 19 24  1  0  0  0
 20 21  2  0  0  0
 20 99  1  0  0  0
 21 23  1  0  0  0
 22 28  1  0  0  0
 22 32  2  0  0  0
 26 27  1  0  0  0
 28100  1  0  0  0
 28101  1  0  0  0
 29102  1  0  0  0
 29103  1  0  0  0
 33 34  1  0  0  0
 33 66  1  0  0  0
 33 70  2  0  0  0
 34 36  1  0  0  0
 34 59  1  0  0  0
 34104  1  0  0  0
 35 44  2  0  0  0
 35 45  1  0  0  0
 35 68  1  0  0  0
 36 56  1  0  0  0
 36105  1  0  0  0
 37 39  1  0  0  0
 37 47  1  0  0  0
 37 66  1  0  0  0
 37106  1  0  0  0
 38 43  2  0  0  0
 38 46  1  0  0  0
 38 47  1  0  0  0
 39 64  1  0  0  0
 39 67  2  0  0  0
 40 52  1  0  0  0
 40 53  2  0  0  0
 40 58  1  0  0  0
 41107  1  0  0  0
 41108  1  0  0  0
 41109  1  0  0  0
 41 48  1  0  0  0
 42 43  1  0  0  0
 42 66  1  0  0  0
 42110  1  0  0  0
 42111  1  0  0  0
 43 44  1  0  0  0
 44112  1  0  0  0
 45 46  2  0  0  0
 45113  1  0  0  0
 46114  1  0  0  0
 47115  1  0  0  0
 47116  1  0  0  0
 48 56  1  0  0  0
 48 65  1  0  0  0
 48117  1  0  0  0
 49 50  1  0  0  0
 49 53  1  0  0  0
 49 64  1  0  0  0
 49118  1  0  0  0
 50 51  1  0  0  0
 50119  1  0  0  0
 50120  1  0  0  0
 51 52  1  0  0  0
 51121  1  0  0  0
 51122  1  0  0  0
 52123  1  0  0  0
 52124  1  0  0  0
 53 54  1  0  0  0
 54 55  2  0  0  0
 54125  1  0  0  0
 55 57  1  0  0  0
 55126  1  0  0  0
 56 69  2  0  0  0
 57 58  2  0  0  0
 57127  1  0  0  0
 58128  1  0  0  0
 59 60  1  0  0  0
 59 61  1  0  0  0
 59 62  1  0  0  0
 60129  1  0  0  0
 60130  1  0  0  0
 60131  1  0  0  0
 61132  1  0  0  0
 61133  1  0  0  0
 61134  1  0  0  0
 62135  1  0  0  0
 62136  1  0  0  0
 62137  1  0  0  0
 63 65  1  0  0  0
 63138  1  0  0  0
 63139  1  0  0  0
 63140  1  0  0  0
 64141  1  0  0  0
 65142  1  0  0  0
 68 78  1  0  0  0
 71 80  1  0  0  0
 71 81  2  0  0  0
 71143  1  0  0  0
 72 76  1  0  0  0
 72 80  2  0  0  0
 72 82  1  0  0  0
 73 77  1  0  0  0
 73144  1  0  0  0
 73145  1  0  0  0
 73146  1  0  0  0
 74147  1  0  0  0
 74148  1  0  0  0
 74149  1  0  0  0
 74 79  1  0  0  0
 75 79  1  0  0  0
 75150  1  0  0  0
 75151  1  0  0  0
 75152  1  0  0  0
 76 83  1  0  0  0
 76153  1  0  0  0
 76154  1  0  0  0
 77 83  1  0  0  0
 77155  1  0  0  0
 77156  1  0  0  0
 78 79  1  0  0  0
 78157  1  0  0  0
 78158  1  0  0  0
 79 82  1  0  0  0
 81 82  1  0  0  0
M  ISO  4   1 100  68 101  78 101  83 100
M  END
> <chiral flag>
0

> <version>
0

> <s_m_source_file>
/data/baiqing/PycharmProjects/Reinvent-master-3.2/result/LINK_invent/BTK/process_docking_weight1_custom_sum_contain_oxygen_bond_distance_aromatic_linkinvent_7_9_3/rearranged_h_0059.sdf

> <i_m_source_file_index>
37

> <r_mmod_Potential_Energy-OPLS-2005>
1639.5517578125

> <r_mmod_Stretch_Energy-OPLS-2005>
680.663696289062

> <r_mmod_Bend_Energy-OPLS-2005>
526.751220703125

> <r_mmod_Torsional_Energy-OPLS-2005>
325.94580078125

> <r_mmod_Improper_Torsional_Energy-OPLS-2005>
7.37027645111084

> <r_mmod_Van_der_Waal_Energy-OPLS-2005>
108.544944763184

> <r_mmod_Electrostatic_Energy-OPLS-2005>
-323.474212646484

> <r_mmod_Solvation_Energy-OPLS-2005>
-207.042129516602

> <b_mmod_Minimization_Converged-OPLS-2005>
0

> <r_mmod_RMS_Derivative-OPLS-2005>
1.59714245796204

$$$$
37
                    3D
 Structure written by MMmdl.
161169  0  0  1  0            999 V2000
  -29.8457  -15.7109   20.5784 C   0  0  0  0  0  0
  -30.3256  -13.3414   19.6282 C   0  0  0  0  0  0
  -29.5004  -12.7509   18.4329 C   0  0  0  0  0  0
  -28.1577  -12.2310   18.9012 C   0  0  0  0  0  0
  -27.5018  -13.2429   19.8273 C   0  0  2  0  0  0
  -28.4001  -13.6108   21.0302 C   0  0  0  0  0  0
  -25.1814  -13.8143   20.5781 C   0  0  0  0  0  0
  -24.1224  -13.0314   20.9196 C   0  0  0  0  0  0
  -24.5972  -11.6823   20.8818 C   0  0  0  0  0  0
  -23.8868  -10.4202   21.0466 C   0  0  0  0  0  0
  -24.3517   -9.4134   21.9216 C   0  0  0  0  0  0
  -23.6235   -8.2147   22.0766 C   0  0  0  0  0  0
  -22.4215   -8.0195   21.3558 C   0  0  0  0  0  0
  -21.9808   -9.0114   20.4628 C   0  0  0  0  0  0
  -22.7098  -10.2014   20.3055 C   0  0  0  0  0  0
  -21.6840   -6.0716   22.5282 C   0  0  0  0  0  0
  -21.4009   -6.5627   23.8222 C   0  0  0  0  0  0
  -21.3676   -5.6782   24.9178 C   0  0  0  0  0  0
  -21.6052   -4.3057   24.7221 C   0  0  0  0  0  0
  -21.8819   -3.8133   23.4352 C   0  0  0  0  0  0
  -21.9179   -4.6943   22.3400 C   0  0  0  0  0  0
  -22.7368  -13.5116   21.1947 C   0  0  0  0  0  0
  -22.1655   -4.2130   21.0989 F   0  0  0  0  0  0
  -21.5626   -3.4526   25.7751 F   0  0  0  0  0  0
  -29.5322  -14.3251   20.4481 N   0  0  0  0  0  0
  -26.2018  -12.9207   20.3200 N   0  0  0  0  0  0
  -25.8846  -11.6355   20.5736 N   0  0  0  0  0  0
  -22.0153  -12.8079   22.0576 N   0  0  0  0  0  0
  -25.3467  -15.1826   20.4087 N   0  0  0  0  0  0
  -31.0814  -15.7958   20.4117 O   0  0  0  0  0  0
  -21.6620   -6.8806   21.4244 O   0  0  0  0  0  0
  -22.3094  -14.5446   20.6882 O   0  0  0  0  0  0
  -24.6549  -31.9700   23.2424 C   0  0  0  0  0  0
  -25.9008  -32.5679   23.9073 C   0  0  1  0  0  0
  -27.0945  -27.3127   20.7697 C   0  0  0  0  0  0
  -25.5598  -33.9427   24.3048 N   0  0  0  0  0  0
  -23.6117  -30.3810   21.6135 C   0  0  2  0  0  0
  -24.9426  -28.8936   20.2232 C   0  0  0  0  0  0
  -22.7377  -29.5415   22.5897 C   0  0  0  0  0  0
  -17.9751  -28.2425   22.8993 C   0  0  0  0  0  0
  -24.1346  -36.7505   23.2605 C   0  0  0  0  0  0
  -26.0268  -30.7749   21.4571 C   0  0  0  0  0  0
  -26.0307  -29.4080   20.9647 C   0  0  0  0  0  0
  -27.0758  -28.5888   21.3454 C   0  0  0  0  0  0
  -26.1315  -27.0147   19.7891 C   0  0  0  0  0  0
  -24.9498  -27.6875   19.5497 C   0  0  0  0  0  0
  -23.8196  -29.7557   20.2337 C   0  0  0  0  0  0
  -25.4012  -36.3729   24.0498 C   0  0  1  0  0  0
  -20.5638  -28.5146   23.1441 C   0  0  2  0  0  0
  -20.6895  -27.1430   22.5379 C   0  0  0  0  0  0
  -19.5396  -26.7565   21.5430 C   0  0  0  0  0  0
  -18.1654  -26.8450   22.2591 C   0  0  0  0  0  0
  -19.1000  -29.0174   23.3136 C   0  0  0  0  0  0
  -18.8373  -30.2022   24.0159 C   0  0  0  0  0  0
  -17.5129  -30.7119   24.1052 C   0  0  0  0  0  0
  -25.8865  -34.9976   23.5517 C   0  0  0  0  0  0
  -16.4186  -29.9319   23.6270 C   0  0  0  0  0  0
  -16.6564  -28.6789   23.0761 C   0  0  0  0  0  0
  -26.4215  -31.6908   25.1239 C   0  0  0  0  0  0
  -25.4067  -31.2769   26.2291 C   0  0  0  0  0  0
  -26.9617  -30.3285   24.5372 C   0  0  0  0  0  0
  -27.5704  -32.4442   25.8013 C   0  0  0  0  0  0
  -27.5556  -37.1853   24.8458 C   0  0  0  0  0  0
  -21.4357  -29.3191   22.3064 N   0  0  0  0  0  0
  -26.4329  -37.4199   23.9490 N   0  0  0  0  0  0
  -24.7739  -31.0753   22.1779 N   0  0  0  0  0  0
  -23.0989  -29.4163   23.7240 O   0  0  0  0  0  0
  -27.8724  -26.3009   21.2198 O   0  0  0  0  0  0
  -26.5580  -34.8963   22.5133 O   0  0  0  0  0  0
  -23.4916  -32.3396   23.5953 O   0  0  0  0  0  0
  -24.4198  -24.0097   22.2589 C   0  0  0  0  0  0
  -25.2789  -23.3467   21.3593 C   0  0  0  0  0  0
  -24.8881  -23.3346   23.4070 C   0  0  0  0  0  0
  -23.8547  -24.9864   25.0007 C   0  0  0  0  0  0
  -27.1196  -19.6424   20.8471 C   0  0  0  0  0  0
  -27.5286  -24.9966   23.7148 C   0  0  0  0  0  0
  -26.8848  -21.3634   21.0129 C   0  0  0  0  0  0
  -28.5292  -18.5328   20.9640 C   0  0  0  0  0  0
  -26.4285  -24.7133   24.8098 C   0  0  0  0  0  0
  -28.0150  -26.2221   22.7214 C   0  0  0  0  0  0
  -25.5482  -22.1999   23.2031 N   0  0  0  0  0  0
  -25.8014  -22.0779   21.8165 N   0  0  0  0  0  0
  -28.8709  -16.8919   20.7773 N   0  0  0  0  0  0
  -25.0229  -24.0710   24.6796 N   0  0  0  0  0  0
  -31.1254  -13.9522   19.1842 H   0  0  0  0  0  0
  -30.7165  -12.6963   20.4202 H   0  0  0  0  0  0
  -30.1665  -12.0159   18.0053 H   0  0  0  0  0  0
  -29.3550  -13.5743   17.7160 H   0  0  0  0  0  0
  -28.3386  -11.3251   19.4470 H   0  0  0  0  0  0
  -27.5314  -12.0156   18.0757 H   0  0  0  0  0  0
  -27.3567  -14.1577   19.2582 H   0  0  0  0  0  0
  -28.7542  -12.7465   21.6082 H   0  0  0  0  0  0
  -27.8240  -14.2193   21.7684 H   0  0  0  0  0  0
  -25.2665   -9.5675   22.4741 H   0  0  0  0  0  0
  -23.9990   -7.4572   22.7469 H   0  0  0  0  0  0
  -21.0768   -8.8627   19.8899 H   0  0  0  0  0  0
  -22.3586  -10.9563   19.6121 H   0  0  0  0  0  0
  -21.2030   -7.6132   23.9712 H   0  0  0  0  0  0
  -21.1501   -6.0523   25.9090 H   0  0  0  0  0  0
  -22.0585   -2.7580   23.2849 H   0  0  0  0  0  0
  -22.3907  -11.9741   22.4897 H   0  0  0  0  0  0
  -21.0749  -13.0985   22.2929 H   0  0  0  0  0  0
  -24.5911  -15.8310   20.5652 H   0  0  0  0  0  0
  -26.2044  -15.6338   20.1233 H   0  0  0  0  0  0
  -26.7248  -32.6444   23.1717 H   0  0  0  0  0  0
  -24.9102  -34.1214   25.0693 H   0  0  0  0  0  0
  -22.9187  -31.0773   21.3741 H   0  0  0  0  0  0
  -23.3946  -35.9488   23.3042 H   0  0  0  0  0  0
  -24.3555  -36.9237   22.2106 H   0  0  0  0  0  0
  -23.6746  -37.6360   23.6637 H   0  0  0  0  0  0
  -26.2016  -31.4040   20.5990 H   0  0  0  0  0  0
  -26.8082  -30.8973   22.1494 H   0  0  0  0  0  0
  -27.5603  -28.8830   22.2829 H   0  0  0  0  0  0
  -26.1828  -26.0733   19.2969 H   0  0  0  0  0  0
  -24.1634  -27.3313   18.9192 H   0  0  0  0  0  0
  -24.2185  -30.4465   19.5105 H   0  0  0  0  0  0
  -22.9261  -29.4883   19.7445 H   0  0  0  0  0  0
  -25.1063  -36.2723   25.1022 H   0  0  0  0  0  0
  -21.0010  -28.5668   24.1503 H   0  0  0  0  0  0
  -20.6934  -26.4432   23.4128 H   0  0  0  0  0  0
  -21.6322  -27.1031   22.0560 H   0  0  0  0  0  0
  -19.7536  -25.7647   21.1771 H   0  0  0  0  0  0
  -19.3946  -27.3999   20.6528 H   0  0  0  0  0  0
  -17.3497  -26.6720   21.5570 H   0  0  0  0  0  0
  -18.1036  -26.0348   22.9814 H   0  0  0  0  0  0
  -19.5554  -30.7393   24.5780 H   0  0  0  0  0  0
  -17.2320  -31.6273   24.5566 H   0  0  0  0  0  0
  -15.3995  -30.3391   23.6883 H   0  0  0  0  0  0
  -15.7779  -28.1165   22.8125 H   0  0  0  0  0  0
  -24.6288  -30.6298   25.8657 H   0  0  0  0  0  0
  -24.9431  -32.1386   26.7108 H   0  0  0  0  0  0
  -25.9292  -30.7497   27.0222 H   0  0  0  0  0  0
  -26.1323  -29.8338   23.9979 H   0  0  0  0  0  0
  -27.3496  -29.6165   25.2514 H   0  0  0  0  0  0
  -27.7705  -30.4331   23.8027 H   0  0  0  0  0  0
  -27.2724  -33.3934   26.2601 H   0  0  0  0  0  0
  -28.3447  -32.7174   25.1023 H   0  0  0  0  0  0
  -28.0295  -31.8918   26.5989 H   0  0  0  0  0  0
  -28.2568  -38.0104   24.7746 H   0  0  0  0  0  0
  -28.1012  -36.2726   24.5976 H   0  0  0  0  0  0
  -27.2262  -37.1067   25.8794 H   0  0  0  0  0  0
  -20.9562  -30.0897   21.8779 H   0  0  0  0  0  0
  -26.0285  -38.3220   24.1587 H   0  0  0  0  0  0
  -23.7305  -24.8812   21.8853 H   0  0  0  0  0  0
  -25.5492  -23.7331   20.3196 H   0  0  0  0  0  0
  -23.9807  -25.9030   24.4241 H   0  0  0  0  0  0
  -23.9862  -25.3471   26.0674 H   0  0  0  0  0  0
  -22.7860  -24.6607   25.1151 H   0  0  0  0  0  0
  -27.2238  -19.8468   19.8123 H   0  0  0  0  0  0
  -26.0801  -19.2877   20.7665 H   0  0  0  0  0  0
  -28.0841  -24.1114   23.4767 H   0  0  0  0  0  0
  -28.1029  -25.5021   24.5037 H   0  0  0  0  0  0
  -27.8078  -21.9142   21.4642 H   0  0  0  0  0  0
  -26.5668  -21.8162   20.0785 H   0  0  0  0  0  0
  -29.2312  -19.0103   21.7007 H   0  0  0  0  0  0
  -28.8656  -18.7155   19.9457 H   0  0  0  0  0  0
  -26.2277  -25.7804   25.1920 H   0  0  0  0  0  0
  -26.9149  -24.0284   25.5282 H   0  0  0  0  0  0
  -29.0135  -25.8773   22.5168 H   0  0  0  0  0  0
  -28.2226  -27.0685   23.3243 H   0  0  0  0  0  0
  -29.6739  -17.3287   20.3990 H   0  0  0  0  0  0
  1 25  1  0  0  0
  1 30  2  0  0  0
  1 83  1  0  0  0
  2  3  1  0  0  0
  2 25  1  0  0  0
  2 85  1  0  0  0
  2 86  1  0  0  0
  3  4  1  0  0  0
  3 87  1  0  0  0
  3 88  1  0  0  0
  4  5  1  0  0  0
  4 89  1  0  0  0
  4 90  1  0  0  0
  5  6  1  0  0  0
  5 26  1  0  0  0
  5 91  1  0  0  0
  6 25  1  0  0  0
  6 92  1  0  0  0
  6 93  1  0  0  0
  7  8  2  0  0  0
  7 26  1  0  0  0
  7 29  1  0  0  0
  8  9  1  0  0  0
  8 22  1  0  0  0
  9 10  1  0  0  0
  9 27  2  0  0  0
 10 11  2  0  0  0
 10 15  1  0  0  0
 11 12  1  0  0  0
 11 94  1  0  0  0
 12 13  2  0  0  0
 12 95  1  0  0  0
 13 14  1  0  0  0
 13 31  1  0  0  0
 14 15  2  0  0  0
 14 96  1  0  0  0
 15 97  1  0  0  0
 16 17  2  0  0  0
 16 21  1  0  0  0
 16 31  1  0  0  0
 17 18  1  0  0  0
 17 98  1  0  0  0
 18 19  2  0  0  0
 18 99  1  0  0  0
 19 20  1  0  0  0
 19 24  1  0  0  0
 20 21  2  0  0  0
 20100  1  0  0  0
 21 23  1  0  0  0
 22 28  1  0  0  0
 22 32  2  0  0  0
 26 27  1  0  0  0
 28101  1  0  0  0
 28102  1  0  0  0
 29103  1  0  0  0
 29104  1  0  0  0
 33 34  1  0  0  0
 33 66  1  0  0  0
 33 70  2  0  0  0
 34 36  1  0  0  0
 34 59  1  0  0  0
 34105  1  0  0  0
 35 44  2  0  0  0
 35 45  1  0  0  0
 35 68  1  0  0  0
 36 56  1  0  0  0
 36106  1  0  0  0
 37 39  1  0  0  0
 37 47  1  0  0  0
 37 66  1  0  0  0
 37107  1  0  0  0
 38 43  2  0  0  0
 38 46  1  0  0  0
 38 47  1  0  0  0
 39 64  1  0  0  0
 39 67  2  0  0  0
 40 52  1  0  0  0
 40 53  2  0  0  0
 40 58  1  0  0  0
 41108  1  0  0  0
 41109  1  0  0  0
 41110  1  0  0  0
 41 48  1  0  0  0
 42 43  1  0  0  0
 42 66  1  0  0  0
 42111  1  0  0  0
 42112  1  0  0  0
 43 44  1  0  0  0
 44113  1  0  0  0
 45 46  2  0  0  0
 45114  1  0  0  0
 46115  1  0  0  0
 47116  1  0  0  0
 47117  1  0  0  0
 48 56  1  0  0  0
 48 65  1  0  0  0
 48118  1  0  0  0
 49 50  1  0  0  0
 49 53  1  0  0  0
 49 64  1  0  0  0
 49119  1  0  0  0
 50 51  1  0  0  0
 50120  1  0  0  0
 50121  1  0  0  0
 51 52  1  0  0  0
 51122  1  0  0  0
 51123  1  0  0  0
 52124  1  0  0  0
 52125  1  0  0  0
 53 54  1  0  0  0
 54 55  2  0  0  0
 54126  1  0  0  0
 55 57  1  0  0  0
 55127  1  0  0  0
 56 69  2  0  0  0
 57 58  2  0  0  0
 57128  1  0  0  0
 58129  1  0  0  0
 59 60  1  0  0  0
 59 61  1  0  0  0
 59 62  1  0  0  0
 60130  1  0  0  0
 60131  1  0  0  0
 60132  1  0  0  0
 61133  1  0  0  0
 61134  1  0  0  0
 61135  1  0  0  0
 62136  1  0  0  0
 62137  1  0  0  0
 62138  1  0  0  0
 63 65  1  0  0  0
 63139  1  0  0  0
 63140  1  0  0  0
 63141  1  0  0  0
 64142  1  0  0  0
 65143  1  0  0  0
 68 80  1  0  0  0
 71 72  2  0  0  0
 71 73  1  0  0  0
 71144  1  0  0  0
 72 82  1  0  0  0
 72145  1  0  0  0
 73 81  2  0  0  0
 73 84  1  0  0  0
 74 84  1  0  0  0
 74146  1  0  0  0
 74147  1  0  0  0
 74148  1  0  0  0
 75 77  1  0  0  0
 75 78  1  0  0  0
 75149  1  0  0  0
 75150  1  0  0  0
 76 79  1  0  0  0
 76 80  1  0  0  0
 76151  1  0  0  0
 76152  1  0  0  0
 77 82  1  0  0  0
 77153  1  0  0  0
 77154  1  0  0  0
 78 83  1  0  0  0
 78155  1  0  0  0
 78156  1  0  0  0
 79 84  1  0  0  0
 79157  1  0  0  0
 79158  1  0  0  0
 80159  1  0  0  0
 80160  1  0  0  0
 81 82  1  0  0  0
 83161  1  0  0  0
M  ISO  4   1 100  68 101  80 101  83 100
M  END
> <chiral flag>
0

> <version>
0

> <s_m_source_file>
/data/baiqing/PycharmProjects/Reinvent-master-3.2/result/LINK_invent/BTK/process_docking_weight1_custom_sum_contain_oxygen_bond_distance_aromatic_linkinvent_7_9_3/rearranged_h_0059.sdf

> <i_m_source_file_index>
38

> <r_mmod_Potential_Energy-OPLS-2005>
2797.03515625

> <r_mmod_Stretch_Energy-OPLS-2005>
558.409851074219

> <r_mmod_Bend_Energy-OPLS-2005>
1056.78588867188

> <r_mmod_Torsional_Energy-OPLS-2005>
418.790344238281

> <r_mmod_Improper_Torsional_Energy-OPLS-2005>
37.8091468811035

> <r_mmod_Van_der_Waal_Energy-OPLS-2005>
195.210083007812

> <r_mmod_Electrostatic_Energy-OPLS-2005>
-456.995513916016

> <r_mmod_Solvation_Energy-OPLS-2005>
-254.232604980469

> <b_mmod_Minimization_Converged-OPLS-2005>
0

> <r_mmod_RMS_Derivative-OPLS-2005>
99.9990005493164

$$$$
38
                    3D
 Structure written by MMmdl.
154162  0  0  1  0            999 V2000
  -30.6235  -14.6334   20.4977 C   0  0  0  0  0  0
  -30.4374  -12.3863   19.4540 C   0  0  0  0  0  0
  -29.5035  -12.4888   18.2272 C   0  0  0  0  0  0
  -28.0279  -12.3312   18.6438 C   0  0  0  0  0  0
  -27.6520  -13.2120   19.8643 C   0  0  2  0  0  0
  -28.6961  -13.0750   20.9952 C   0  0  0  0  0  0
  -25.2559  -13.8165   20.5678 C   0  0  0  0  0  0
  -24.1828  -13.0446   20.9215 C   0  0  0  0  0  0
  -24.6391  -11.6912   20.8776 C   0  0  0  0  0  0
  -23.9075  -10.4300   21.0437 C   0  0  0  0  0  0
  -24.3625   -9.4201   21.9208 C   0  0  0  0  0  0
  -23.6292   -8.2240   22.0760 C   0  0  0  0  0  0
  -22.4276   -8.0292   21.3547 C   0  0  0  0  0  0
  -21.9923   -9.0270   20.4653 C   0  0  0  0  0  0
  -22.7256  -10.2147   20.3070 C   0  0  0  0  0  0
  -21.6851   -6.0740   22.5283 C   0  0  0  0  0  0
  -21.4010   -6.5645   23.8215 C   0  0  0  0  0  0
  -21.3655   -5.6793   24.9175 C   0  0  0  0  0  0
  -21.6046   -4.3063   24.7223 C   0  0  0  0  0  0
  -21.8821   -3.8156   23.4348 C   0  0  0  0  0  0
  -21.9188   -4.6969   22.3405 C   0  0  0  0  0  0
  -22.7853  -13.5237   21.1888 C   0  0  0  0  0  0
  -22.1661   -4.2159   21.0979 F   0  0  0  0  0  0
  -21.5626   -3.4541   25.7736 F   0  0  0  0  0  0
  -30.0087  -13.4125   20.4249 N   0  0  0  0  0  0
  -26.2982  -12.9335   20.3333 N   0  0  0  0  0  0
  -25.9314  -11.6507   20.5797 N   0  0  0  0  0  0
  -22.0493  -12.8205   22.0424 N   0  0  0  0  0  0
  -25.4278  -15.1879   20.4011 N   0  0  0  0  0  0
  -31.7921  -14.7919   20.1333 O   0  0  0  0  0  0
  -21.6636   -6.8885   21.4247 O   0  0  0  0  0  0
  -22.3540  -14.5545   20.6739 O   0  0  0  0  0  0
  -24.6254  -31.8573   23.2010 C   0  0  0  0  0  0
  -25.9080  -32.4755   23.8345 C   0  0  1  0  0  0
  -27.2315  -27.3273   20.1179 C   0  0  0  0  0  0
  -25.5892  -33.8559   24.2261 N   0  0  0  0  0  0
  -23.4205  -30.4783   21.5433 C   0  0  2  0  0  0
  -24.8670  -28.9258   20.1152 C   0  0  0  0  0  0
  -22.7467  -29.4614   22.4955 C   0  0  0  0  0  0
  -18.0275  -28.1401   22.8490 C   0  0  0  0  0  0
  -24.1499  -36.7302   23.2650 C   0  0  0  0  0  0
  -25.9583  -30.7908   21.3679 C   0  0  0  0  0  0
  -26.0354  -29.4177   20.7126 C   0  0  0  0  0  0
  -27.2219  -28.6316   20.6978 C   0  0  0  0  0  0
  -26.0432  -26.8727   19.5117 C   0  0  0  0  0  0
  -24.8719  -27.6571   19.5093 C   0  0  0  0  0  0
  -23.6350  -29.8059   20.1616 C   0  0  0  0  0  0
  -25.4113  -36.3060   24.0333 C   0  0  1  0  0  0
  -20.5874  -28.3706   23.1286 C   0  0  2  0  0  0
  -20.6771  -26.9435   22.5406 C   0  0  0  0  0  0
  -19.5752  -26.6403   21.5210 C   0  0  0  0  0  0
  -18.1927  -26.7935   22.1613 C   0  0  0  0  0  0
  -19.1531  -28.8863   23.2881 C   0  0  0  0  0  0
  -18.9458  -30.1457   23.8921 C   0  0  0  0  0  0
  -17.6460  -30.6606   24.0568 C   0  0  0  0  0  0
  -25.9056  -34.9425   23.5096 C   0  0  0  0  0  0
  -16.5351  -29.9107   23.6338 C   0  0  0  0  0  0
  -16.7265  -28.6524   23.0359 C   0  0  0  0  0  0
  -26.4476  -31.6565   25.0712 C   0  0  0  0  0  0
  -25.3729  -31.3641   26.1452 C   0  0  0  0  0  0
  -27.0316  -30.2998   24.6138 C   0  0  0  0  0  0
  -27.6056  -32.4295   25.7445 C   0  0  0  0  0  0
  -27.5571  -37.1784   24.8461 C   0  0  0  0  0  0
  -21.4184  -29.3046   22.3674 N   0  0  0  0  0  0
  -26.4289  -37.3749   23.9420 N   0  0  0  0  0  0
  -24.6875  -31.0592   22.0946 N   0  0  0  0  0  0
  -23.4173  -28.8164   23.3049 O   0  0  0  0  0  0
  -28.3796  -26.5273   20.1160 O   0  0  0  0  0  0
  -26.5658  -34.8893   22.4682 O   0  0  0  0  0  0
  -23.5430  -32.1375   23.7348 O   0  0  0  0  0  0
  -29.6539  -21.6794   19.1984 C   0  0  0  0  0  0
  -27.9479  -21.6816   20.8128 C   0  0  0  0  0  0
  -28.6858  -22.4480   19.8874 C   0  0  0  0  0  0
  -29.0278  -19.6925   20.2353 C   0  0  0  0  0  0
  -27.3523  -24.8944   21.7182 C   0  0  0  0  0  0
  -28.3831  -23.9526   19.5059 C   0  0  0  0  0  0
  -28.9509  -18.1141   20.1963 C   0  0  0  0  0  0
  -30.1129  -17.1861   20.7618 C   0  0  0  0  0  0
  -28.3737  -25.1179   20.5880 C   0  0  1  0  0  0
  -29.8066  -20.3338   19.3607 N   0  0  0  0  0  0
  -28.1282  -20.3411   20.9827 N   0  0  0  0  0  0
  -29.8193  -15.7009   20.7950 N   0  0  0  0  0  0
  -31.4765  -12.5166   19.1474 H   0  0  0  0  0  0
  -30.3814  -11.3933   19.9021 H   0  0  0  0  0  0
  -29.7650  -11.7236   17.4951 H   0  0  0  0  0  0
  -29.6439  -13.4505   17.7307 H   0  0  0  0  0  0
  -27.8686  -11.2793   18.8863 H   0  0  0  0  0  0
  -27.3695  -12.5509   17.8023 H   0  0  0  0  0  0
  -27.6705  -14.2440   19.5158 H   0  0  0  0  0  0
  -28.7073  -12.0586   21.3918 H   0  0  0  0  0  0
  -28.4464  -13.7205   21.8384 H   0  0  0  0  0  0
  -25.2763   -9.5671   22.4784 H   0  0  0  0  0  0
  -24.0007   -7.4622   22.7470 H   0  0  0  0  0  0
  -21.0859   -8.8800   19.8941 H   0  0  0  0  0  0
  -22.3737  -10.9694   19.6182 H   0  0  0  0  0  0
  -21.2007   -7.6152   23.9726 H   0  0  0  0  0  0
  -21.1470   -6.0521   25.9076 H   0  0  0  0  0  0
  -22.0602   -2.7619   23.2842 H   0  0  0  0  0  0
  -22.4106  -11.9842   22.4764 H   0  0  0  0  0  0
  -21.1119  -13.1226   22.2662 H   0  0  0  0  0  0
  -24.6592  -15.8416   20.4990 H   0  0  0  0  0  0
  -26.2585  -15.6132   20.0102 H   0  0  0  0  0  0
  -26.7140  -32.5430   23.1083 H   0  0  0  0  0  0
  -24.9949  -33.9711   25.0328 H   0  0  0  0  0  0
  -22.7151  -31.2979   21.3962 H   0  0  0  0  0  0
  -23.3737  -35.9659   23.3307 H   0  0  0  0  0  0
  -24.3610  -36.8959   22.2076 H   0  0  0  0  0  0
  -23.7280  -37.6501   23.6700 H   0  0  0  0  0  0
  -26.0842  -31.5496   20.5940 H   0  0  0  0  0  0
  -26.8413  -30.8429   21.9952 H   0  0  0  0  0  0
  -28.1270  -29.0098   21.1538 H   0  0  0  0  0  0
  -26.0186  -25.8975   19.0477 H   0  0  0  0  0  0
  -23.9724  -27.2713   19.0490 H   0  0  0  0  0  0
  -23.7506  -30.5792   19.4000 H   0  0  0  0  0  0
  -22.7569  -29.2316   19.8639 H   0  0  0  0  0  0
  -25.1269  -36.1905   25.0818 H   0  0  0  0  0  0
  -20.9952  -28.3299   24.1412 H   0  0  0  0  0  0
  -20.5682  -26.2321   23.3604 H   0  0  0  0  0  0
  -21.6639  -26.7480   22.1202 H   0  0  0  0  0  0
  -19.6928  -25.6309   21.1250 H   0  0  0  0  0  0
  -19.6700  -27.3215   20.6738 H   0  0  0  0  0  0
  -17.4189  -26.6682   21.4024 H   0  0  0  0  0  0
  -18.0343  -26.0079   22.9011 H   0  0  0  0  0  0
  -19.7937  -30.7251   24.2334 H   0  0  0  0  0  0
  -17.5021  -31.6300   24.5142 H   0  0  0  0  0  0
  -15.5347  -30.3006   23.7679 H   0  0  0  0  0  0
  -15.8657  -28.0846   22.7072 H   0  0  0  0  0  0
  -24.5940  -30.6949   25.7758 H   0  0  0  0  0  0
  -24.8861  -32.2768   26.4908 H   0  0  0  0  0  0
  -25.8075  -30.8802   27.0212 H   0  0  0  0  0  0
  -26.2866  -29.6726   24.1234 H   0  0  0  0  0  0
  -27.4097  -29.7255   25.4599 H   0  0  0  0  0  0
  -27.8694  -30.4277   23.9280 H   0  0  0  0  0  0
  -27.2721  -33.3635   26.1970 H   0  0  0  0  0  0
  -28.3871  -32.6796   25.0250 H   0  0  0  0  0  0
  -28.0716  -31.8447   26.5390 H   0  0  0  0  0  0
  -28.2542  -38.0114   24.7535 H   0  0  0  0  0  0
  -28.1096  -36.2640   24.6235 H   0  0  0  0  0  0
  -27.2311  -37.1402   25.8865 H   0  0  0  0  0  0
  -20.9373  -29.8751   21.6871 H   0  0  0  0  0  0
  -26.0159  -38.2813   24.1411 H   0  0  0  0  0  0
  -30.2738  -22.1278   18.4360 H   0  0  0  0  0  0
  -27.1450  -22.1191   21.3827 H   0  0  0  0  0  0
  -27.6267  -24.0398   22.3337 H   0  0  0  0  0  0
  -26.3527  -24.7183   21.3211 H   0  0  0  0  0  0
  -27.3003  -25.7534   22.3894 H   0  0  0  0  0  0
  -27.4249  -23.9577   18.9869 H   0  0  0  0  0  0
  -29.1092  -24.2333   18.7417 H   0  0  0  0  0  0
  -28.7771  -17.8352   19.1566 H   0  0  0  0  0  0
  -28.0337  -17.8284   20.7138 H   0  0  0  0  0  0
  -30.3353  -17.4988   21.7832 H   0  0  0  0  0  0
  -31.0215  -17.3724   20.1876 H   0  0  0  0  0  0
  -29.3498  -25.0421   21.0693 H   0  0  0  0  0  0
  -28.8820  -15.4437   21.0697 H   0  0  0  0  0  0
  1 25  1  0  0  0
  1 30  2  0  0  0
  1 82  1  0  0  0
  2  3  1  0  0  0
  2 25  1  0  0  0
  2 83  1  0  0  0
  2 84  1  0  0  0
  3  4  1  0  0  0
  3 85  1  0  0  0
  3 86  1  0  0  0
  4  5  1  0  0  0
  4 87  1  0  0  0
  4 88  1  0  0  0
  5  6  1  0  0  0
  5 26  1  0  0  0
  5 89  1  0  0  0
  6 25  1  0  0  0
  6 90  1  0  0  0
  6 91  1  0  0  0
  7  8  2  0  0  0
  7 26  1  0  0  0
  7 29  1  0  0  0
  8  9  1  0  0  0
  8 22  1  0  0  0
  9 10  1  0  0  0
  9 27  2  0  0  0
 10 11  2  0  0  0
 10 15  1  0  0  0
 11 12  1  0  0  0
 11 92  1  0  0  0
 12 13  2  0  0  0
 12 93  1  0  0  0
 13 14  1  0  0  0
 13 31  1  0  0  0
 14 15  2  0  0  0
 14 94  1  0  0  0
 15 95  1  0  0  0
 16 17  2  0  0  0
 16 21  1  0  0  0
 16 31  1  0  0  0
 17 18  1  0  0  0
 17 96  1  0  0  0
 18 19  2  0  0  0
 18 97  1  0  0  0
 19 20  1  0  0  0
 19 24  1  0  0  0
 20 21  2  0  0  0
 20 98  1  0  0  0
 21 23  1  0  0  0
 22 28  1  0  0  0
 22 32  2  0  0  0
 26 27  1  0  0  0
 28 99  1  0  0  0
 28100  1  0  0  0
 29101  1  0  0  0
 29102  1  0  0  0
 33 34  1  0  0  0
 33 66  1  0  0  0
 33 70  2  0  0  0
 34 36  1  0  0  0
 34 59  1  0  0  0
 34103  1  0  0  0
 35 44  2  0  0  0
 35 45  1  0  0  0
 35 68  1  0  0  0
 36 56  1  0  0  0
 36104  1  0  0  0
 37 39  1  0  0  0
 37 47  1  0  0  0
 37 66  1  0  0  0
 37105  1  0  0  0
 38 43  2  0  0  0
 38 46  1  0  0  0
 38 47  1  0  0  0
 39 64  1  0  0  0
 39 67  2  0  0  0
 40 52  1  0  0  0
 40 53  2  0  0  0
 40 58  1  0  0  0
 41106  1  0  0  0
 41107  1  0  0  0
 41108  1  0  0  0
 41 48  1  0  0  0
 42 43  1  0  0  0
 42 66  1  0  0  0
 42109  1  0  0  0
 42110  1  0  0  0
 43 44  1  0  0  0
 44111  1  0  0  0
 45 46  2  0  0  0
 45112  1  0  0  0
 46113  1  0  0  0
 47114  1  0  0  0
 47115  1  0  0  0
 48 56  1  0  0  0
 48 65  1  0  0  0
 48116  1  0  0  0
 49 50  1  0  0  0
 49 53  1  0  0  0
 49 64  1  0  0  0
 49117  1  0  0  0
 50 51  1  0  0  0
 50118  1  0  0  0
 50119  1  0  0  0
 51 52  1  0  0  0
 51120  1  0  0  0
 51121  1  0  0  0
 52122  1  0  0  0
 52123  1  0  0  0
 53 54  1  0  0  0
 54 55  2  0  0  0
 54124  1  0  0  0
 55 57  1  0  0  0
 55125  1  0  0  0
 56 69  2  0  0  0
 57 58  2  0  0  0
 57126  1  0  0  0
 58127  1  0  0  0
 59 60  1  0  0  0
 59 61  1  0  0  0
 59 62  1  0  0  0
 60128  1  0  0  0
 60129  1  0  0  0
 60130  1  0  0  0
 61131  1  0  0  0
 61132  1  0  0  0
 61133  1  0  0  0
 62134  1  0  0  0
 62135  1  0  0  0
 62136  1  0  0  0
 63 65  1  0  0  0
 63137  1  0  0  0
 63138  1  0  0  0
 63139  1  0  0  0
 64140  1  0  0  0
 65141  1  0  0  0
 68 79  1  0  0  0
 71 73  2  0  0  0
 71 80  1  0  0  0
 71142  1  0  0  0
 72 73  1  0  0  0
 72 81  2  0  0  0
 72143  1  0  0  0
 73 76  1  0  0  0
 74 77  1  0  0  0
 74 80  2  0  0  0
 74 81  1  0  0  0
 75144  1  0  0  0
 75145  1  0  0  0
 75146  1  0  0  0
 75 79  1  0  0  0
 76 79  1  0  0  0
 76147  1  0  0  0
 76148  1  0  0  0
 77 78  1  0  0  0
 77149  1  0  0  0
 77150  1  0  0  0
 78 82  1  0  0  0
 78151  1  0  0  0
 78152  1  0  0  0
 79153  1  0  0  0
 82154  1  0  0  0
M  ISO  4   1 100  68 101  79 101  82 100
M  END
> <chiral flag>
0

> <version>
0

> <s_m_source_file>
/data/baiqing/PycharmProjects/Reinvent-master-3.2/result/LINK_invent/BTK/process_docking_weight1_custom_sum_contain_oxygen_bond_distance_aromatic_linkinvent_7_9_3/rearranged_h_0059.sdf

> <i_m_source_file_index>
39

> <r_mmod_Potential_Energy-OPLS-2005>
-372.883941650391

> <r_mmod_Stretch_Energy-OPLS-2005>
77.307975769043

> <r_mmod_Bend_Energy-OPLS-2005>
150.025314331055

> <r_mmod_Torsional_Energy-OPLS-2005>
209.657333374023

> <r_mmod_Improper_Torsional_Energy-OPLS-2005>
6.89761734008789

> <r_mmod_Van_der_Waal_Energy-OPLS-2005>
144.098968505859

> <r_mmod_Electrostatic_Energy-OPLS-2005>
-770.361755371094

> <r_mmod_Solvation_Energy-OPLS-2005>
-234.225616455078

> <b_mmod_Minimization_Converged-OPLS-2005>
0

> <r_mmod_RMS_Derivative-OPLS-2005>
2.41129422187805

$$$$
39
                    3D
 Structure written by MMmdl.
153161  0  0  1  0            999 V2000
  -30.6153  -14.7357   20.4971 C   0  0  0  0  0  0
  -30.4262  -12.4554   19.4721 C   0  0  0  0  0  0
  -29.5053  -12.5248   18.2320 C   0  0  0  0  0  0
  -28.0262  -12.3583   18.6305 C   0  0  0  0  0  0
  -27.6427  -13.2291   19.8547 C   0  0  2  0  0  0
  -28.6837  -13.0998   20.9829 C   0  0  0  0  0  0
  -25.2486  -13.8167   20.5624 C   0  0  0  0  0  0
  -24.1793  -13.0417   20.9158 C   0  0  0  0  0  0
  -24.6380  -11.6893   20.8720 C   0  0  0  0  0  0
  -23.9059  -10.4273   21.0405 C   0  0  0  0  0  0
  -24.3609   -9.4181   21.9178 C   0  0  0  0  0  0
  -23.6261   -8.2229   22.0766 C   0  0  0  0  0  0
  -22.4244   -8.0275   21.3555 C   0  0  0  0  0  0
  -21.9887   -9.0254   20.4655 C   0  0  0  0  0  0
  -22.7223  -10.2127   20.3067 C   0  0  0  0  0  0
  -21.6845   -6.0718   22.5277 C   0  0  0  0  0  0
  -21.4009   -6.5619   23.8212 C   0  0  0  0  0  0
  -21.3678   -5.6782   24.9180 C   0  0  0  0  0  0
  -21.6057   -4.3045   24.7230 C   0  0  0  0  0  0
  -21.8823   -3.8132   23.4352 C   0  0  0  0  0  0
  -21.9193   -4.6945   22.3402 C   0  0  0  0  0  0
  -22.7819  -13.5214   21.1848 C   0  0  0  0  0  0
  -22.1647   -4.2128   21.0981 F   0  0  0  0  0  0
  -21.5636   -3.4533   25.7747 F   0  0  0  0  0  0
  -29.9850  -13.5031   20.4319 N   0  0  0  0  0  0
  -26.2928  -12.9380   20.3255 N   0  0  0  0  0  0
  -25.9317  -11.6517   20.5714 N   0  0  0  0  0  0
  -22.0488  -12.8187   22.0422 N   0  0  0  0  0  0
  -25.4133  -15.1884   20.3998 N   0  0  0  0  0  0
  -31.7688  -14.8032   20.0612 O   0  0  0  0  0  0
  -21.6609   -6.8867   21.4242 O   0  0  0  0  0  0
  -22.3501  -14.5537   20.6742 O   0  0  0  0  0  0
  -24.6314  -31.8557   23.1978 C   0  0  0  0  0  0
  -25.9145  -32.4763   23.8324 C   0  0  1  0  0  0
  -27.2142  -27.2678   20.1120 C   0  0  0  0  0  0
  -25.5961  -33.8562   24.2274 N   0  0  0  0  0  0
  -23.4243  -30.4783   21.5428 C   0  0  2  0  0  0
  -24.8666  -28.9200   20.1110 C   0  0  0  0  0  0
  -22.7489  -29.4622   22.4937 C   0  0  0  0  0  0
  -18.0289  -28.1399   22.8490 C   0  0  0  0  0  0
  -24.1489  -36.7267   23.2635 C   0  0  0  0  0  0
  -25.9690  -30.7688   21.3722 C   0  0  0  0  0  0
  -26.0380  -29.3906   20.7158 C   0  0  0  0  0  0
  -27.2108  -28.5737   20.7074 C   0  0  0  0  0  0
  -26.0143  -26.8516   19.4959 C   0  0  0  0  0  0
  -24.8576  -27.6577   19.4974 C   0  0  0  0  0  0
  -23.6388  -29.8095   20.1599 C   0  0  0  0  0  0
  -25.4122  -36.3073   24.0331 C   0  0  1  0  0  0
  -20.5893  -28.3714   23.1276 C   0  0  2  0  0  0
  -20.6783  -26.9432   22.5414 C   0  0  0  0  0  0
  -19.5750  -26.6397   21.5220 C   0  0  0  0  0  0
  -18.1933  -26.7945   22.1632 C   0  0  0  0  0  0
  -19.1546  -28.8871   23.2881 C   0  0  0  0  0  0
  -18.9468  -30.1475   23.8898 C   0  0  0  0  0  0
  -17.6473  -30.6601   24.0568 C   0  0  0  0  0  0
  -25.9063  -34.9445   23.5099 C   0  0  0  0  0  0
  -16.5358  -29.9108   23.6334 C   0  0  0  0  0  0
  -16.7284  -28.6522   23.0352 C   0  0  0  0  0  0
  -26.4506  -31.6581   25.0710 C   0  0  0  0  0  0
  -25.3718  -31.3732   26.1419 C   0  0  0  0  0  0
  -27.0327  -30.2989   24.6174 C   0  0  0  0  0  0
  -27.6081  -32.4298   25.7486 C   0  0  0  0  0  0
  -27.5580  -37.1794   24.8473 C   0  0  0  0  0  0
  -21.4202  -29.3053   22.3662 N   0  0  0  0  0  0
  -26.4296  -37.3775   23.9419 N   0  0  0  0  0  0
  -24.6947  -31.0522   22.0943 N   0  0  0  0  0  0
  -23.4193  -28.8165   23.3033 O   0  0  0  0  0  0
  -28.3390  -26.4181   20.1814 O   0  0  0  0  0  0
  -26.5617  -34.8921   22.4655 O   0  0  0  0  0  0
  -23.5472  -32.1390   23.7286 O   0  0  0  0  0  0
  -27.9384  -20.3435   20.9209 C   0  0  0  0  0  0
  -29.1828  -18.7511   20.2993 C   0  0  0  0  0  0
  -29.0131  -16.0821   22.1782 C   0  0  0  0  0  0
  -29.6411  -17.2895   19.9150 C   0  0  0  0  0  0
  -28.3568  -23.6566   20.3448 C   0  0  0  0  0  0
  -28.9789  -22.3529   19.6090 C   0  0  0  0  0  0
  -28.4382  -25.0641   19.5455 C   0  0  0  0  0  0
  -30.0056  -16.1481   21.0043 C   0  0  2  0  0  0
  -28.0635  -19.0107   21.0493 N   0  0  0  0  0  0
  -29.6932  -19.8861   19.7445 N   0  0  0  0  0  0
  -28.8660  -20.9332   20.1591 N   0  0  0  0  0  0
  -31.4657  -12.5720   19.1609 H   0  0  0  0  0  0
  -30.3731  -11.4662   19.9305 H   0  0  0  0  0  0
  -29.7823  -11.7569   17.5072 H   0  0  0  0  0  0
  -29.6450  -13.4815   17.7286 H   0  0  0  0  0  0
  -27.8580  -11.3044   18.8536 H   0  0  0  0  0  0
  -27.3783  -12.5951   17.7850 H   0  0  0  0  0  0
  -27.6548  -14.2626   19.5103 H   0  0  0  0  0  0
  -28.7279  -12.0694   21.3359 H   0  0  0  0  0  0
  -28.3883  -13.6667   21.8567 H   0  0  0  0  0  0
  -25.2776   -9.5622   22.4720 H   0  0  0  0  0  0
  -23.9973   -7.4612   22.7471 H   0  0  0  0  0  0
  -21.0834   -8.8776   19.8941 H   0  0  0  0  0  0
  -22.3692  -10.9671   19.6175 H   0  0  0  0  0  0
  -21.1977   -7.6128   23.9692 H   0  0  0  0  0  0
  -21.1503   -6.0522   25.9078 H   0  0  0  0  0  0
  -22.0580   -2.7586   23.2857 H   0  0  0  0  0  0
  -22.4129  -11.9880   22.4829 H   0  0  0  0  0  0
  -21.1109  -13.1198   22.2647 H   0  0  0  0  0  0
  -24.6368  -15.8343   20.4894 H   0  0  0  0  0  0
  -26.2665  -15.6347   20.0917 H   0  0  0  0  0  0
  -26.7212  -32.5406   23.1064 H   0  0  0  0  0  0
  -25.0166  -33.9702   25.0459 H   0  0  0  0  0  0
  -22.7227  -31.3022   21.3986 H   0  0  0  0  0  0
  -23.3767  -35.9579   23.3298 H   0  0  0  0  0  0
  -24.3582  -36.8872   22.2044 H   0  0  0  0  0  0
  -23.7202  -37.6463   23.6638 H   0  0  0  0  0  0
  -26.1015  -31.5273   20.5996 H   0  0  0  0  0  0
  -26.8512  -30.8235   21.9989 H   0  0  0  0  0  0
  -28.1110  -28.9267   21.1925 H   0  0  0  0  0  0
  -25.9309  -25.8790   19.0386 H   0  0  0  0  0  0
  -23.9526  -27.2845   19.0380 H   0  0  0  0  0  0
  -23.7677  -30.5855   19.4045 H   0  0  0  0  0  0
  -22.7530  -29.2503   19.8543 H   0  0  0  0  0  0
  -25.1293  -36.1930   25.0820 H   0  0  0  0  0  0
  -20.9998  -28.3297   24.1392 H   0  0  0  0  0  0
  -20.5691  -26.2325   23.3613 H   0  0  0  0  0  0
  -21.6649  -26.7469   22.1187 H   0  0  0  0  0  0
  -19.6903  -25.6309   21.1240 H   0  0  0  0  0  0
  -19.6675  -27.3213   20.6743 H   0  0  0  0  0  0
  -17.4197  -26.6706   21.4032 H   0  0  0  0  0  0
  -18.0328  -26.0097   22.9033 H   0  0  0  0  0  0
  -19.7941  -30.7290   24.2263 H   0  0  0  0  0  0
  -17.5022  -31.6272   24.5179 H   0  0  0  0  0  0
  -15.5360  -30.3003   23.7652 H   0  0  0  0  0  0
  -15.8684  -28.0836   22.7070 H   0  0  0  0  0  0
  -24.5940  -30.7020   25.7758 H   0  0  0  0  0  0
  -24.8845  -32.2891   26.4768 H   0  0  0  0  0  0
  -25.8031  -30.8982   27.0236 H   0  0  0  0  0  0
  -26.2899  -29.6773   24.1151 H   0  0  0  0  0  0
  -27.3961  -29.7215   25.4693 H   0  0  0  0  0  0
  -27.8809  -30.4274   23.9441 H   0  0  0  0  0  0
  -27.2730  -33.3636   26.2018 H   0  0  0  0  0  0
  -28.3925  -32.6778   25.0320 H   0  0  0  0  0  0
  -28.0703  -31.8420   26.5431 H   0  0  0  0  0  0
  -28.2612  -38.0080   24.7536 H   0  0  0  0  0  0
  -28.1063  -36.2613   24.6295 H   0  0  0  0  0  0
  -27.2298  -37.1443   25.8877 H   0  0  0  0  0  0
  -20.9387  -29.8754   21.6846 H   0  0  0  0  0  0
  -26.0172  -38.2847   24.1432 H   0  0  0  0  0  0
  -27.1203  -20.8980   21.3574 H   0  0  0  0  0  0
  -29.0037  -17.0279   22.7201 H   0  0  0  0  0  0
  -29.2987  -15.3222   22.9050 H   0  0  0  0  0  0
  -27.9931  -15.9016   21.8428 H   0  0  0  0  0  0
  -30.4991  -17.3877   19.2495 H   0  0  0  0  0  0
  -28.8564  -16.8809   19.2793 H   0  0  0  0  0  0
  -28.8628  -23.7756   21.3030 H   0  0  0  0  0  0
  -27.3106  -23.4645   20.5852 H   0  0  0  0  0  0
  -30.0411  -22.5445   19.4616 H   0  0  0  0  0  0
  -28.5569  -22.3198   18.6041 H   0  0  0  0  0  0
  -27.8084  -25.0045   18.6600 H   0  0  0  0  0  0
  -29.4423  -25.0804   19.1213 H   0  0  0  0  0  0
  -30.8829  -16.5740   21.4920 H   0  0  0  0  0  0
  1 25  1  0  0  0
  1 30  2  0  0  0
  1 78  1  0  0  0
  2  3  1  0  0  0
  2 25  1  0  0  0
  2 82  1  0  0  0
  2 83  1  0  0  0
  3  4  1  0  0  0
  3 84  1  0  0  0
  3 85  1  0  0  0
  4  5  1  0  0  0
  4 86  1  0  0  0
  4 87  1  0  0  0
  5  6  1  0  0  0
  5 26  1  0  0  0
  5 88  1  0  0  0
  6 25  1  0  0  0
  6 89  1  0  0  0
  6 90  1  0  0  0
  7  8  2  0  0  0
  7 26  1  0  0  0
  7 29  1  0  0  0
  8  9  1  0  0  0
  8 22  1  0  0  0
  9 10  1  0  0  0
  9 27  2  0  0  0
 10 11  2  0  0  0
 10 15  1  0  0  0
 11 12  1  0  0  0
 11 91  1  0  0  0
 12 13  2  0  0  0
 12 92  1  0  0  0
 13 14  1  0  0  0
 13 31  1  0  0  0
 14 15  2  0  0  0
 14 93  1  0  0  0
 15 94  1  0  0  0
 16 17  2  0  0  0
 16 21  1  0  0  0
 16 31  1  0  0  0
 17 18  1  0  0  0
 17 95  1  0  0  0
 18 19  2  0  0  0
 18 96  1  0  0  0
 19 20  1  0  0  0
 19 24  1  0  0  0
 20 21  2  0  0  0
 20 97  1  0  0  0
 21 23  1  0  0  0
 22 28  1  0  0  0
 22 32  2  0  0  0
 26 27  1  0  0  0
 28 98  1  0  0  0
 28 99  1  0  0  0
 29100  1  0  0  0
 29101  1  0  0  0
 33 34  1  0  0  0
 33 66  1  0  0  0
 33 70  2  0  0  0
 34 36  1  0  0  0
 34 59  1  0  0  0
 34102  1  0  0  0
 35 44  2  0  0  0
 35 45  1  0  0  0
 35 68  1  0  0  0
 36 56  1  0  0  0
 36103  1  0  0  0
 37 39  1  0  0  0
 37 47  1  0  0  0
 37 66  1  0  0  0
 37104  1  0  0  0
 38 43  2  0  0  0
 38 46  1  0  0  0
 38 47  1  0  0  0
 39 64  1  0  0  0
 39 67  2  0  0  0
 40 52  1  0  0  0
 40 53  2  0  0  0
 40 58  1  0  0  0
 41105  1  0  0  0
 41106  1  0  0  0
 41107  1  0  0  0
 41 48  1  0  0  0
 42 43  1  0  0  0
 42 66  1  0  0  0
 42108  1  0  0  0
 42109  1  0  0  0
 43 44  1  0  0  0
 44110  1  0  0  0
 45 46  2  0  0  0
 45111  1  0  0  0
 46112  1  0  0  0
 47113  1  0  0  0
 47114  1  0  0  0
 48 56  1  0  0  0
 48 65  1  0  0  0
 48115  1  0  0  0
 49 50  1  0  0  0
 49 53  1  0  0  0
 49 64  1  0  0  0
 49116  1  0  0  0
 50 51  1  0  0  0
 50117  1  0  0  0
 50118  1  0  0  0
 51 52  1  0  0  0
 51119  1  0  0  0
 51120  1  0  0  0
 52121  1  0  0  0
 52122  1  0  0  0
 53 54  1  0  0  0
 54 55  2  0  0  0
 54123  1  0  0  0
 55 57  1  0  0  0
 55124  1  0  0  0
 56 69  2  0  0  0
 57 58  2  0  0  0
 57125  1  0  0  0
 58126  1  0  0  0
 59 60  1  0  0  0
 59 61  1  0  0  0
 59 62  1  0  0  0
 60127  1  0  0  0
 60128  1  0  0  0
 60129  1  0  0  0
 61130  1  0  0  0
 61131  1  0  0  0
 61132  1  0  0  0
 62133  1  0  0  0
 62134  1  0  0  0
 62135  1  0  0  0
 63 65  1  0  0  0
 63136  1  0  0  0
 63137  1  0  0  0
 63138  1  0  0  0
 64139  1  0  0  0
 65140  1  0  0  0
 68 77  1  0  0  0
 71 79  2  0  0  0
 71 81  1  0  0  0
 71141  1  0  0  0
 72 74  1  0  0  0
 72 79  1  0  0  0
 72 80  2  0  0  0
 73142  1  0  0  0
 73143  1  0  0  0
 73144  1  0  0  0
 73 78  1  0  0  0
 74 78  1  0  0  0
 74145  1  0  0  0
 74146  1  0  0  0
 75 76  1  0  0  0
 75 77  1  0  0  0
 75147  1  0  0  0
 75148  1  0  0  0
 76 81  1  0  0  0
 76149  1  0  0  0
 76150  1  0  0  0
 77151  1  0  0  0
 77152  1  0  0  0
 78153  1  0  0  0
 80 81  1  0  0  0
M  ISO  4   1 100  68 101  77 101  78 100
M  END
> <chiral flag>
0

> <version>
0

> <s_m_source_file>
/data/baiqing/PycharmProjects/Reinvent-master-3.2/result/LINK_invent/BTK/process_docking_weight1_custom_sum_contain_oxygen_bond_distance_aromatic_linkinvent_7_9_3/rearranged_h_0059.sdf

> <i_m_source_file_index>
40

> <r_mmod_Potential_Energy-OPLS-2005>
138.29182434082

> <r_mmod_Stretch_Energy-OPLS-2005>
123.578712463379

> <r_mmod_Bend_Energy-OPLS-2005>
211.706466674805

> <r_mmod_Torsional_Energy-OPLS-2005>
188.164489746094

> <r_mmod_Improper_Torsional_Energy-OPLS-2005>
4.20731973648071

> <r_mmod_Van_der_Waal_Energy-OPLS-2005>
115.836303710938

> <r_mmod_Electrostatic_Energy-OPLS-2005>
-364.654876708984

> <r_mmod_Solvation_Energy-OPLS-2005>
-213.77864074707

> <b_mmod_Minimization_Converged-OPLS-2005>
0

> <r_mmod_RMS_Derivative-OPLS-2005>
2.59195876121521

$$$$
40
                    3D
 Structure written by MMmdl.
162170  0  0  1  0            999 V2000
  -30.5253  -15.0023   20.5244 C   0  0  0  0  0  0
  -30.4511  -12.6466   19.5010 C   0  0  0  0  0  0
  -29.5282  -12.5790   18.2560 C   0  0  0  0  0  0
  -28.0570  -12.3424   18.6512 C   0  0  0  0  0  0
  -27.6335  -13.2376   19.8406 C   0  0  2  0  0  0
  -28.6759  -13.1671   20.9712 C   0  0  0  0  0  0
  -25.2463  -13.8171   20.5636 C   0  0  0  0  0  0
  -24.1794  -13.0417   20.9240 C   0  0  0  0  0  0
  -24.6395  -11.6900   20.8749 C   0  0  0  0  0  0
  -23.9077  -10.4278   21.0412 C   0  0  0  0  0  0
  -24.3630   -9.4190   21.9187 C   0  0  0  0  0  0
  -23.6304   -8.2227   22.0752 C   0  0  0  0  0  0
  -22.4283   -8.0275   21.3545 C   0  0  0  0  0  0
  -21.9922   -9.0245   20.4645 C   0  0  0  0  0  0
  -22.7249  -10.2126   20.3057 C   0  0  0  0  0  0
  -21.6849   -6.0738   22.5282 C   0  0  0  0  0  0
  -21.4009   -6.5638   23.8214 C   0  0  0  0  0  0
  -21.3664   -5.6792   24.9179 C   0  0  0  0  0  0
  -21.6049   -4.3057   24.7227 C   0  0  0  0  0  0
  -21.8822   -3.8147   23.4347 C   0  0  0  0  0  0
  -21.9195   -4.6965   22.3406 C   0  0  0  0  0  0
  -22.7820  -13.5202   21.1905 C   0  0  0  0  0  0
  -22.1661   -4.2151   21.0982 F   0  0  0  0  0  0
  -21.5637   -3.4539   25.7738 F   0  0  0  0  0  0
  -29.9423  -13.7134   20.4345 N   0  0  0  0  0  0
  -26.2877  -12.9384   20.3151 N   0  0  0  0  0  0
  -25.9313  -11.6534   20.5672 N   0  0  0  0  0  0
  -22.0464  -12.8190   22.0454 N   0  0  0  0  0  0
  -25.4107  -15.1898   20.3970 N   0  0  0  0  0  0
  -31.6731  -15.0387   20.0553 O   0  0  0  0  0  0
  -21.6642   -6.8880   21.4243 O   0  0  0  0  0  0
  -22.3519  -14.5514   20.6745 O   0  0  0  0  0  0
  -24.6457  -31.8420   23.1861 C   0  0  0  0  0  0
  -25.9214  -32.4687   23.8262 C   0  0  1  0  0  0
  -27.2219  -27.1162   20.1510 C   0  0  0  0  0  0
  -25.5951  -33.8494   24.2176 N   0  0  0  0  0  0
  -23.4508  -30.4601   21.5324 C   0  0  2  0  0  0
  -24.9016  -28.8828   20.1105 C   0  0  0  0  0  0
  -22.7583  -29.4537   22.4856 C   0  0  0  0  0  0
  -18.0308  -28.1395   22.8481 C   0  0  0  0  0  0
  -24.1492  -36.7255   23.2641 C   0  0  0  0  0  0
  -26.0087  -30.7093   21.3880 C   0  0  0  0  0  0
  -26.0801  -29.3183   20.7293 C   0  0  0  0  0  0
  -27.2407  -28.4519   20.7305 C   0  0  0  0  0  0
  -26.0140  -26.7874   19.4952 C   0  0  0  0  0  0
  -24.8826  -27.6313   19.4777 C   0  0  0  0  0  0
  -23.6783  -29.7869   20.1528 C   0  0  0  0  0  0
  -25.4122  -36.3028   24.0314 C   0  0  1  0  0  0
  -20.5922  -28.3726   23.1234 C   0  0  2  0  0  0
  -20.6791  -26.9426   22.5406 C   0  0  0  0  0  0
  -19.5760  -26.6380   21.5218 C   0  0  0  0  0  0
  -18.1943  -26.7933   22.1629 C   0  0  0  0  0  0
  -19.1564  -28.8879   23.2848 C   0  0  0  0  0  0
  -18.9476  -30.1475   23.8873 C   0  0  0  0  0  0
  -17.6472  -30.6592   24.0557 C   0  0  0  0  0  0
  -25.9076  -34.9405   23.5057 C   0  0  0  0  0  0
  -16.5364  -29.9081   23.6338 C   0  0  0  0  0  0
  -16.7292  -28.6500   23.0361 C   0  0  0  0  0  0
  -26.4524  -31.6564   25.0716 C   0  0  0  0  0  0
  -25.3701  -31.3761   26.1406 C   0  0  0  0  0  0
  -27.0391  -30.2953   24.6318 C   0  0  0  0  0  0
  -27.6047  -32.4338   25.7508 C   0  0  0  0  0  0
  -27.5580  -37.1778   24.8459 C   0  0  0  0  0  0
  -21.4271  -29.3047   22.3603 N   0  0  0  0  0  0
  -26.4282  -37.3746   23.9414 N   0  0  0  0  0  0
  -24.7217  -31.0254   22.0906 N   0  0  0  0  0  0
  -23.4211  -28.8088   23.3021 O   0  0  0  0  0  0
  -28.2714  -26.1190   20.2184 O   0  0  0  0  0  0
  -26.5668  -34.8906   22.4639 O   0  0  0  0  0  0
  -23.5569  -32.1306   23.7063 O   0  0  0  0  0  0
  -29.7398  -17.9406   20.4828 C   0  0  0  0  0  0
  -29.2425  -20.1648   20.2295 C   0  0  0  0  0  0
  -32.0708  -21.1279   18.6463 C   0  0  0  0  0  0
  -31.0729  -16.7662   22.2611 C   0  0  0  0  0  0
  -28.4504  -21.6211   20.1975 C   0  0  0  0  0  0
  -28.9818  -23.2281   20.3181 C   0  0  0  0  0  0
  -30.7358  -20.5044   18.2189 C   0  0  0  0  0  0
  -28.6613  -16.1454   22.0437 C   0  0  0  0  0  0
  -27.9808  -24.5841   20.0758 C   0  0  0  0  0  0
  -29.9550  -16.4599   21.2284 C   0  0  2  0  0  0
  -28.9986  -19.0481   21.0140 N   0  0  0  0  0  0
  -30.4709  -18.3982   19.4579 N   0  0  0  0  0  0
  -30.1350  -19.7470   19.3012 N   0  0  0  0  0  0
  -28.1471  -17.2226   22.9200 N   0  3  0  0  0  0
  -31.4757  -12.8278   19.1763 H   0  0  0  0  0  0
  -30.4932  -11.6762   19.9983 H   0  0  0  0  0  0
  -29.8645  -11.7949   17.5760 H   0  0  0  0  0  0
  -29.6065  -13.5159   17.7034 H   0  0  0  0  0  0
  -27.9487  -11.2918   18.9226 H   0  0  0  0  0  0
  -27.4009  -12.5056   17.7954 H   0  0  0  0  0  0
  -27.6187  -14.2593   19.4612 H   0  0  0  0  0  0
  -28.8030  -12.1286   21.2818 H   0  0  0  0  0  0
  -28.3008  -13.6300   21.8707 H   0  0  0  0  0  0
  -25.2776   -9.5655   22.4759 H   0  0  0  0  0  0
  -24.0017   -7.4612   22.7462 H   0  0  0  0  0  0
  -21.0860   -8.8765   19.8943 H   0  0  0  0  0  0
  -22.3719  -10.9666   19.6167 H   0  0  0  0  0  0
  -21.1986   -7.6143   23.9714 H   0  0  0  0  0  0
  -21.1490   -6.0522   25.9084 H   0  0  0  0  0  0
  -22.0596   -2.7610   23.2845 H   0  0  0  0  0  0
  -22.4086  -11.9842   22.4824 H   0  0  0  0  0  0
  -21.1070  -13.1190   22.2643 H   0  0  0  0  0  0
  -24.5879  -15.7834   20.4115 H   0  0  0  0  0  0
  -26.1374  -15.5601   19.7996 H   0  0  0  0  0  0
  -26.7285  -32.5285   23.0996 H   0  0  0  0  0  0
  -25.0063  -33.9605   25.0300 H   0  0  0  0  0  0
  -22.7544  -31.2865   21.3756 H   0  0  0  0  0  0
  -23.3767  -35.9572   23.3264 H   0  0  0  0  0  0
  -24.3584  -36.8931   22.2064 H   0  0  0  0  0  0
  -23.7231  -37.6432   23.6705 H   0  0  0  0  0  0
  -26.1657  -31.4627   20.6146 H   0  0  0  0  0  0
  -26.8784  -30.7605   22.0321 H   0  0  0  0  0  0
  -28.1381  -28.7802   21.2353 H   0  0  0  0  0  0
  -25.9067  -25.8320   19.0053 H   0  0  0  0  0  0
  -23.9833  -27.2928   18.9812 H   0  0  0  0  0  0
  -23.8138  -30.5597   19.3954 H   0  0  0  0  0  0
  -22.7932  -29.2279   19.8439 H   0  0  0  0  0  0
  -25.1308  -36.1849   25.0806 H   0  0  0  0  0  0
  -21.0013  -28.3315   24.1356 H   0  0  0  0  0  0
  -20.5690  -26.2339   23.3626 H   0  0  0  0  0  0
  -21.6655  -26.7430   22.1199 H   0  0  0  0  0  0
  -19.6919  -25.6284   21.1263 H   0  0  0  0  0  0
  -19.6693  -27.3179   20.6737 H   0  0  0  0  0  0
  -17.4212  -26.6685   21.4032 H   0  0  0  0  0  0
  -18.0336  -26.0079   22.9029 H   0  0  0  0  0  0
  -19.7949  -30.7299   24.2234 H   0  0  0  0  0  0
  -17.5021  -31.6270   24.5160 H   0  0  0  0  0  0
  -15.5361  -30.2971   23.7674 H   0  0  0  0  0  0
  -15.8695  -28.0805   22.7092 H   0  0  0  0  0  0
  -24.5882  -30.7109   25.7724 H   0  0  0  0  0  0
  -24.8887  -32.2946   26.4773 H   0  0  0  0  0  0
  -25.7974  -30.8970   27.0223 H   0  0  0  0  0  0
  -26.3012  -29.6675   24.1310 H   0  0  0  0  0  0
  -27.3973  -29.7259   25.4906 H   0  0  0  0  0  0
  -27.8935  -30.4182   23.9659 H   0  0  0  0  0  0
  -27.2629  -33.3658   26.2023 H   0  0  0  0  0  0
  -28.3889  -32.6869   25.0361 H   0  0  0  0  0  0
  -28.0678  -31.8505   26.5479 H   0  0  0  0  0  0
  -28.2562  -38.0109   24.7541 H   0  0  0  0  0  0
  -28.1112  -36.2640   24.6236 H   0  0  0  0  0  0
  -27.2305  -37.1363   25.8861 H   0  0  0  0  0  0
  -20.9485  -29.8756   21.6775 H   0  0  0  0  0  0
  -26.0145  -38.2809   24.1435 H   0  0  0  0  0  0
  -32.5193  -21.6872   17.8258 H   0  0  0  0  0  0
  -32.7828  -20.3615   18.9539 H   0  0  0  0  0  0
  -31.9373  -21.8141   19.4831 H   0  0  0  0  0  0
  -30.8163  -17.5933   22.9224 H   0  0  0  0  0  0
  -31.9971  -17.0567   21.7587 H   0  0  0  0  0  0
  -31.3008  -15.9053   22.8914 H   0  0  0  0  0  0
  -27.6728  -21.5245   20.9547 H   0  0  0  0  0  0
  -27.8955  -21.5920   19.2600 H   0  0  0  0  0  0
  -29.8167  -23.3343   19.6255 H   0  0  0  0  0  0
  -29.4276  -23.3349   21.3065 H   0  0  0  0  0  0
  -30.8821  -19.8464   17.3613 H   0  0  0  0  0  0
  -30.0407  -21.2814   17.8981 H   0  0  0  0  0  0
  -28.8577  -15.3344   22.7389 H   0  0  0  0  0  0
  -27.8620  -15.8593   21.3637 H   0  0  0  0  0  0
  -27.1066  -24.4092   20.7033 H   0  0  0  0  0  0
  -27.6198  -24.4644   19.0541 H   0  0  0  0  0  0
  -28.7148  -17.3399   23.7403 H   0  0  0  0  0  0
  -27.2062  -17.0224   23.2119 H   0  0  0  0  0  0
  -28.1524  -18.0919   22.3962 H   0  0  0  0  0  0
  1 25  1  0  0  0
  1 30  2  0  0  0
  1 80  1  0  0  0
  2  3  1  0  0  0
  2 25  1  0  0  0
  2 85  1  0  0  0
  2 86  1  0  0  0
  3  4  1  0  0  0
  3 87  1  0  0  0
  3 88  1  0  0  0
  4  5  1  0  0  0
  4 89  1  0  0  0
  4 90  1  0  0  0
  5  6  1  0  0  0
  5 26  1  0  0  0
  5 91  1  0  0  0
  6 25  1  0  0  0
  6 92  1  0  0  0
  6 93  1  0  0  0
  7  8  2  0  0  0
  7 26  1  0  0  0
  7 29  1  0  0  0
  8  9  1  0  0  0
  8 22  1  0  0  0
  9 10  1  0  0  0
  9 27  2  0  0  0
 10 11  2  0  0  0
 10 15  1  0  0  0
 11 12  1  0  0  0
 11 94  1  0  0  0
 12 13  2  0  0  0
 12 95  1  0  0  0
 13 14  1  0  0  0
 13 31  1  0  0  0
 14 15  2  0  0  0
 14 96  1  0  0  0
 15 97  1  0  0  0
 16 17  2  0  0  0
 16 21  1  0  0  0
 16 31  1  0  0  0
 17 18  1  0  0  0
 17 98  1  0  0  0
 18 19  2  0  0  0
 18 99  1  0  0  0
 19 20  1  0  0  0
 19 24  1  0  0  0
 20 21  2  0  0  0
 20100  1  0  0  0
 21 23  1  0  0  0
 22 28  1  0  0  0
 22 32  2  0  0  0
 26 27  1  0  0  0
 28101  1  0  0  0
 28102  1  0  0  0
 29103  1  0  0  0
 29104  1  0  0  0
 33 34  1  0  0  0
 33 66  1  0  0  0
 33 70  2  0  0  0
 34 36  1  0  0  0
 34 59  1  0  0  0
 34105  1  0  0  0
 35 44  2  0  0  0
 35 45  1  0  0  0
 35 68  1  0  0  0
 36 56  1  0  0  0
 36106  1  0  0  0
 37 39  1  0  0  0
 37 47  1  0  0  0
 37 66  1  0  0  0
 37107  1  0  0  0
 38 43  2  0  0  0
 38 46  1  0  0  0
 38 47  1  0  0  0
 39 64  1  0  0  0
 39 67  2  0  0  0
 40 52  1  0  0  0
 40 53  2  0  0  0
 40 58  1  0  0  0
 41108  1  0  0  0
 41109  1  0  0  0
 41110  1  0  0  0
 41 48  1  0  0  0
 42 43  1  0  0  0
 42 66  1  0  0  0
 42111  1  0  0  0
 42112  1  0  0  0
 43 44  1  0  0  0
 44113  1  0  0  0
 45 46  2  0  0  0
 45114  1  0  0  0
 46115  1  0  0  0
 47116  1  0  0  0
 47117  1  0  0  0
 48 56  1  0  0  0
 48 65  1  0  0  0
 48118  1  0  0  0
 49 50  1  0  0  0
 49 53  1  0  0  0
 49 64  1  0  0  0
 49119  1  0  0  0
 50 51  1  0  0  0
 50120  1  0  0  0
 50121  1  0  0  0
 51 52  1  0  0  0
 51122  1  0  0  0
 51123  1  0  0  0
 52124  1  0  0  0
 52125  1  0  0  0
 53 54  1  0  0  0
 54 55  2  0  0  0
 54126  1  0  0  0
 55 57  1  0  0  0
 55127  1  0  0  0
 56 69  2  0  0  0
 57 58  2  0  0  0
 57128  1  0  0  0
 58129  1  0  0  0
 59 60  1  0  0  0
 59 61  1  0  0  0
 59 62  1  0  0  0
 60130  1  0  0  0
 60131  1  0  0  0
 60132  1  0  0  0
 61133  1  0  0  0
 61134  1  0  0  0
 61135  1  0  0  0
 62136  1  0  0  0
 62137  1  0  0  0
 62138  1  0  0  0
 63 65  1  0  0  0
 63139  1  0  0  0
 63140  1  0  0  0
 63141  1  0  0  0
 64142  1  0  0  0
 65143  1  0  0  0
 68 79  1  0  0  0
 71 80  1  0  0  0
 71 81  1  0  0  0
 71 82  2  0  0  0
 72 75  1  0  0  0
 72 81  2  0  0  0
 72 83  1  0  0  0
 73 77  1  0  0  0
 73144  1  0  0  0
 73145  1  0  0  0
 73146  1  0  0  0
 74147  1  0  0  0
 74148  1  0  0  0
 74149  1  0  0  0
 74 80  1  0  0  0
 75 76  1  0  0  0
 75150  1  0  0  0
 75151  1  0  0  0
 76 79  1  0  0  0
 76152  1  0  0  0
 76153  1  0  0  0
 77 83  1  0  0  0
 77154  1  0  0  0
 77155  1  0  0  0
 78 80  1  0  0  0
 78 84  1  0  0  0
 78156  1  0  0  0
 78157  1  0  0  0
 79158  1  0  0  0
 79159  1  0  0  0
 82 83  1  0  0  0
 84160  1  0  0  0
 84161  1  0  0  0
 84162  1  0  0  0
M  CHG  1  84   1
M  ISO  4   1 100  68 101  79 101  80 100
M  END
> <chiral flag>
0

> <version>
0

> <s_m_source_file>
/data/baiqing/PycharmProjects/Reinvent-master-3.2/result/LINK_invent/BTK/process_docking_weight1_custom_sum_contain_oxygen_bond_distance_aromatic_linkinvent_7_9_3/rearranged_h_0059.sdf

> <i_m_source_file_index>
41

> <r_mmod_Potential_Energy-OPLS-2005>
453.406646728516

> <r_mmod_Stretch_Energy-OPLS-2005>
326.065704345703

> <r_mmod_Bend_Energy-OPLS-2005>
336.432952880859

> <r_mmod_Torsional_Energy-OPLS-2005>
213.314895629883

> <r_mmod_Improper_Torsional_Energy-OPLS-2005>
7.46998167037964

> <r_mmod_Van_der_Waal_Energy-OPLS-2005>
133.735977172852

> <r_mmod_Electrostatic_Energy-OPLS-2005>
-298.547515869141

> <r_mmod_Solvation_Energy-OPLS-2005>
-471.780822753906

> <b_mmod_Minimization_Converged-OPLS-2005>
0

> <r_mmod_RMS_Derivative-OPLS-2005>
0.984845161437988

$$$$
41
                    3D
 Structure written by MMmdl.
144152  0  0  1  0            999 V2000
  -30.3692  -15.3616   20.3383 C   0  0  0  0  0  0
  -30.4470  -12.8654   19.5443 C   0  0  0  0  0  0
  -29.5507  -12.5971   18.3044 C   0  0  0  0  0  0
  -28.0996  -12.3019   18.7240 C   0  0  0  0  0  0
  -27.6093  -13.2841   19.8147 C   0  0  2  0  0  0
  -28.6339  -13.4891   20.9482 C   0  0  0  0  0  0
  -25.2391  -13.8260   20.5740 C   0  0  0  0  0  0
  -24.1747  -13.0440   20.9243 C   0  0  0  0  0  0
  -24.6411  -11.6939   20.8738 C   0  0  0  0  0  0
  -23.9105  -10.4295   21.0393 C   0  0  0  0  0  0
  -24.3645   -9.4211   21.9177 C   0  0  0  0  0  0
  -23.6309   -8.2251   22.0753 C   0  0  0  0  0  0
  -22.4289   -8.0288   21.3545 C   0  0  0  0  0  0
  -21.9932   -9.0262   20.4645 C   0  0  0  0  0  0
  -22.7271  -10.2135   20.3049 C   0  0  0  0  0  0
  -21.6859   -6.0741   22.5279 C   0  0  0  0  0  0
  -21.4019   -6.5642   23.8212 C   0  0  0  0  0  0
  -21.3660   -5.6794   24.9173 C   0  0  0  0  0  0
  -21.6044   -4.3057   24.7223 C   0  0  0  0  0  0
  -21.8819   -3.8150   23.4344 C   0  0  0  0  0  0
  -21.9195   -4.6967   22.3401 C   0  0  0  0  0  0
  -22.7764  -13.5187   21.1903 C   0  0  0  0  0  0
  -22.1662   -4.2153   21.0978 F   0  0  0  0  0  0
  -21.5627   -3.4539   25.7735 F   0  0  0  0  0  0
  -29.8671  -14.0169   20.3384 N   0  0  0  0  0  0
  -26.2813  -12.9547   20.3164 N   0  0  0  0  0  0
  -25.9348  -11.6643   20.5670 N   0  0  0  0  0  0
  -22.0429  -12.8163   22.0458 N   0  0  0  0  0  0
  -25.4042  -15.1999   20.4225 N   0  0  0  0  0  0
  -31.5995  -15.3595   20.1673 O   0  0  0  0  0  0
  -21.6649   -6.8887   21.4243 O   0  0  0  0  0  0
  -22.3437  -14.5488   20.6748 O   0  0  0  0  0  0
  -24.6692  -31.8178   23.1659 C   0  0  0  0  0  0
  -25.9345  -32.4558   23.8145 C   0  0  1  0  0  0
  -27.2179  -26.8631   20.2012 C   0  0  0  0  0  0
  -25.5988  -33.8375   24.2045 N   0  0  0  0  0  0
  -23.4869  -30.4273   21.5171 C   0  0  2  0  0  0
  -24.9409  -28.8002   20.1203 C   0  0  0  0  0  0
  -22.7696  -29.4413   22.4770 C   0  0  0  0  0  0
  -18.0327  -28.1412   22.8464 C   0  0  0  0  0  0
  -24.1494  -36.7192   23.2648 C   0  0  0  0  0  0
  -26.0604  -30.6040   21.4060 C   0  0  0  0  0  0
  -26.1282  -29.1854   20.7557 C   0  0  0  0  0  0
  -27.2620  -28.2420   20.7651 C   0  0  0  0  0  0
  -26.0002  -26.6490   19.5141 C   0  0  0  0  0  0
  -24.9059  -27.5534   19.4775 C   0  0  0  0  0  0
  -23.7315  -29.7375   20.1470 C   0  0  0  0  0  0
  -25.4138  -36.2949   24.0295 C   0  0  1  0  0  0
  -20.5956  -28.3763   23.1176 C   0  0  2  0  0  0
  -20.6803  -26.9438   22.5402 C   0  0  0  0  0  0
  -19.5775  -26.6377   21.5215 C   0  0  0  0  0  0
  -18.1958  -26.7944   22.1623 C   0  0  0  0  0  0
  -19.1590  -28.8909   23.2804 C   0  0  0  0  0  0
  -18.9499  -30.1497   23.8842 C   0  0  0  0  0  0
  -17.6491  -30.6600   24.0553 C   0  0  0  0  0  0
  -25.9108  -34.9334   23.4995 C   0  0  0  0  0  0
  -16.5381  -29.9085   23.6346 C   0  0  0  0  0  0
  -16.7309  -28.6506   23.0363 C   0  0  0  0  0  0
  -26.4573  -31.6525   25.0698 C   0  0  0  0  0  0
  -25.3681  -31.3795   26.1341 C   0  0  0  0  0  0
  -27.0481  -30.2883   24.6479 C   0  0  0  0  0  0
  -27.6050  -32.4350   25.7508 C   0  0  0  0  0  0
  -27.5567  -37.1754   24.8466 C   0  0  0  0  0  0
  -21.4359  -29.3042   22.3517 N   0  0  0  0  0  0
  -26.4277  -37.3692   23.9408 N   0  0  0  0  0  0
  -24.7608  -30.9782   22.0829 N   0  0  0  0  0  0
  -23.4214  -28.7989   23.3039 O   0  0  0  0  0  0
  -28.2115  -25.7250   20.2137 O   0  0  0  0  0  0
  -26.5725  -34.8880   22.4595 O   0  0  0  0  0  0
  -23.5747  -32.1177   23.6712 O   0  0  0  0  0  0
  -29.1118  -22.1870   19.0078 C   0  0  0  0  0  0
  -29.2366  -20.3008   20.1783 C   0  0  0  0  0  0
  -29.8479  -18.6863   20.6104 C   0  0  0  0  0  0
  -29.4867  -16.9211   20.2698 C   0  0  0  0  0  0
  -27.8474  -24.1555   20.5425 C   0  0  0  0  0  0
  -29.4835  -20.8600   18.9340 N   0  0  0  0  0  0
  -28.7067  -21.3923   20.9421 N   0  0  0  0  0  0
  -28.6334  -22.6794   20.1722 N   0  0  0  0  0  0
  -31.4620  -13.0859   19.2119 H   0  0  0  0  0  0
  -30.5315  -11.9702   20.1625 H   0  0  0  0  0  0
  -29.9492  -11.7682   17.7182 H   0  0  0  0  0  0
  -29.5693  -13.4716   17.6522 H   0  0  0  0  0  0
  -28.0682  -11.2823   19.1099 H   0  0  0  0  0  0
  -27.4366  -12.3234   17.8583 H   0  0  0  0  0  0
  -27.5154  -14.2431   19.3035 H   0  0  0  0  0  0
  -28.8128  -12.5637   21.4978 H   0  0  0  0  0  0
  -28.2539  -14.2106   21.6730 H   0  0  0  0  0  0
  -25.2787   -9.5686   22.4756 H   0  0  0  0  0  0
  -24.0013   -7.4645   22.7478 H   0  0  0  0  0  0
  -21.0861   -8.8787   19.8952 H   0  0  0  0  0  0
  -22.3729  -10.9674   19.6158 H   0  0  0  0  0  0
  -21.2013   -7.6151   23.9717 H   0  0  0  0  0  0
  -21.1482   -6.0523   25.9077 H   0  0  0  0  0  0
  -22.0596   -2.7612   23.2843 H   0  0  0  0  0  0
  -22.4067  -11.9832   22.4843 H   0  0  0  0  0  0
  -21.1042  -13.1167   22.2669 H   0  0  0  0  0  0
  -24.6385  -15.8532   20.5480 H   0  0  0  0  0  0
  -26.2563  -15.6449   20.1064 H   0  0  0  0  0  0
  -26.7417  -32.5081   23.0859 H   0  0  0  0  0  0
  -25.0074  -33.9441   25.0155 H   0  0  0  0  0  0
  -22.8037  -31.2606   21.3406 H   0  0  0  0  0  0
  -23.3770  -35.9509   23.3276 H   0  0  0  0  0  0
  -24.3569  -36.8878   22.2069 H   0  0  0  0  0  0
  -23.7240  -37.6364   23.6732 H   0  0  0  0  0  0
  -26.2459  -31.3392   20.6217 H   0  0  0  0  0  0
  -26.9183  -30.6659   22.0635 H   0  0  0  0  0  0
  -28.1638  -28.5424   21.2798 H   0  0  0  0  0  0
  -25.8632  -25.7066   19.0043 H   0  0  0  0  0  0
  -24.0079  -27.2532   18.9551 H   0  0  0  0  0  0
  -23.8954  -30.5029   19.3877 H   0  0  0  0  0  0
  -22.8394  -29.1967   19.8262 H   0  0  0  0  0  0
  -25.1339  -36.1735   25.0785 H   0  0  0  0  0  0
  -21.0040  -28.3374   24.1300 H   0  0  0  0  0  0
  -20.5682  -26.2381   23.3648 H   0  0  0  0  0  0
  -21.6665  -26.7407   22.1208 H   0  0  0  0  0  0
  -19.6934  -25.6274   21.1279 H   0  0  0  0  0  0
  -19.6714  -27.3158   20.6722 H   0  0  0  0  0  0
  -17.4226  -26.6685   21.4028 H   0  0  0  0  0  0
  -18.0351  -26.0100   22.9033 H   0  0  0  0  0  0
  -19.7974  -30.7329   24.2185 H   0  0  0  0  0  0
  -17.5042  -31.6274   24.5166 H   0  0  0  0  0  0
  -15.5378  -30.2968   23.7703 H   0  0  0  0  0  0
  -15.8710  -28.0807   22.7109 H   0  0  0  0  0  0
  -24.5881  -30.7127   25.7647 H   0  0  0  0  0  0
  -24.8852  -32.3002   26.4623 H   0  0  0  0  0  0
  -25.7896  -30.9055   27.0215 H   0  0  0  0  0  0
  -26.3165  -29.6540   24.1462 H   0  0  0  0  0  0
  -27.3964  -29.7272   25.5161 H   0  0  0  0  0  0
  -27.9125  -30.4048   23.9939 H   0  0  0  0  0  0
  -27.2609  -33.3704   26.1932 H   0  0  0  0  0  0
  -28.3942  -32.6824   25.0395 H   0  0  0  0  0  0
  -28.0628  -31.8579   26.5553 H   0  0  0  0  0  0
  -28.2561  -38.0070   24.7514 H   0  0  0  0  0  0
  -28.1086  -36.2596   24.6294 H   0  0  0  0  0  0
  -27.2282  -37.1393   25.8868 H   0  0  0  0  0  0
  -20.9629  -29.8722   21.6627 H   0  0  0  0  0  0
  -26.0118  -38.2747   24.1419 H   0  0  0  0  0  0
  -29.1553  -22.8242   18.1349 H   0  0  0  0  0  0
  -29.8712  -18.7188   21.6993 H   0  0  0  0  0  0
  -30.9036  -18.7567   20.3498 H   0  0  0  0  0  0
  -29.1970  -16.9354   19.2196 H   0  0  0  0  0  0
  -28.5510  -16.7163   20.7889 H   0  0  0  0  0  0
  -27.7362  -24.1390   21.6264 H   0  0  0  0  0  0
  -26.8380  -24.0135   20.1595 H   0  0  0  0  0  0
  1 25  1  0  0  0
  1 30  2  0  0  0
  1 74  1  0  0  0
  2  3  1  0  0  0
  2 25  1  0  0  0
  2 79  1  0  0  0
  2 80  1  0  0  0
  3  4  1  0  0  0
  3 81  1  0  0  0
  3 82  1  0  0  0
  4  5  1  0  0  0
  4 83  1  0  0  0
  4 84  1  0  0  0
  5  6  1  0  0  0
  5 26  1  0  0  0
  5 85  1  0  0  0
  6 25  1  0  0  0
  6 86  1  0  0  0
  6 87  1  0  0  0
  7  8  2  0  0  0
  7 26  1  0  0  0
  7 29  1  0  0  0
  8  9  1  0  0  0
  8 22  1  0  0  0
  9 10  1  0  0  0
  9 27  2  0  0  0
 10 11  2  0  0  0
 10 15  1  0  0  0
 11 12  1  0  0  0
 11 88  1  0  0  0
 12 13  2  0  0  0
 12 89  1  0  0  0
 13 14  1  0  0  0
 13 31  1  0  0  0
 14 15  2  0  0  0
 14 90  1  0  0  0
 15 91  1  0  0  0
 16 17  2  0  0  0
 16 21  1  0  0  0
 16 31  1  0  0  0
 17 18  1  0  0  0
 17 92  1  0  0  0
 18 19  2  0  0  0
 18 93  1  0  0  0
 19 20  1  0  0  0
 19 24  1  0  0  0
 20 21  2  0  0  0
 20 94  1  0  0  0
 21 23  1  0  0  0
 22 28  1  0  0  0
 22 32  2  0  0  0
 26 27  1  0  0  0
 28 95  1  0  0  0
 28 96  1  0  0  0
 29 97  1  0  0  0
 29 98  1  0  0  0
 33 34  1  0  0  0
 33 66  1  0  0  0
 33 70  2  0  0  0
 34 36  1  0  0  0
 34 59  1  0  0  0
 34 99  1  0  0  0
 35 44  2  0  0  0
 35 45  1  0  0  0
 35 68  1  0  0  0
 36 56  1  0  0  0
 36100  1  0  0  0
 37 39  1  0  0  0
 37 47  1  0  0  0
 37 66  1  0  0  0
 37101  1  0  0  0
 38 43  2  0  0  0
 38 46  1  0  0  0
 38 47  1  0  0  0
 39 64  1  0  0  0
 39 67  2  0  0  0
 40 52  1  0  0  0
 40 53  2  0  0  0
 40 58  1  0  0  0
 41102  1  0  0  0
 41103  1  0  0  0
 41104  1  0  0  0
 41 48  1  0  0  0
 42 43  1  0  0  0
 42 66  1  0  0  0
 42105  1  0  0  0
 42106  1  0  0  0
 43 44  1  0  0  0
 44107  1  0  0  0
 45 46  2  0  0  0
 45108  1  0  0  0
 46109  1  0  0  0
 47110  1  0  0  0
 47111  1  0  0  0
 48 56  1  0  0  0
 48 65  1  0  0  0
 48112  1  0  0  0
 49 50  1  0  0  0
 49 53  1  0  0  0
 49 64  1  0  0  0
 49113  1  0  0  0
 50 51  1  0  0  0
 50114  1  0  0  0
 50115  1  0  0  0
 51 52  1  0  0  0
 51116  1  0  0  0
 51117  1  0  0  0
 52118  1  0  0  0
 52119  1  0  0  0
 53 54  1  0  0  0
 54 55  2  0  0  0
 54120  1  0  0  0
 55 57  1  0  0  0
 55121  1  0  0  0
 56 69  2  0  0  0
 57 58  2  0  0  0
 57122  1  0  0  0
 58123  1  0  0  0
 59 60  1  0  0  0
 59 61  1  0  0  0
 59 62  1  0  0  0
 60124  1  0  0  0
 60125  1  0  0  0
 60126  1  0  0  0
 61127  1  0  0  0
 61128  1  0  0  0
 61129  1  0  0  0
 62130  1  0  0  0
 62131  1  0  0  0
 62132  1  0  0  0
 63 65  1  0  0  0
 63133  1  0  0  0
 63134  1  0  0  0
 63135  1  0  0  0
 64136  1  0  0  0
 65137  1  0  0  0
 68 75  1  0  0  0
 71 76  2  0  0  0
 71 78  1  0  0  0
 71138  1  0  0  0
 72 73  1  0  0  0
 72 76  1  0  0  0
 72 77  2  0  0  0
 73 74  1  0  0  0
 73139  1  0  0  0
 73140  1  0  0  0
 74141  1  0  0  0
 74142  1  0  0  0
 75 78  1  0  0  0
 75143  1  0  0  0
 75144  1  0  0  0
 77 78  1  0  0  0
M  ISO  4   1 100  68 101  74 100  75 101
M  END
> <chiral flag>
0

> <version>
0

> <s_m_source_file>
/data/baiqing/PycharmProjects/Reinvent-master-3.2/result/LINK_invent/BTK/process_docking_weight1_custom_sum_contain_oxygen_bond_distance_aromatic_linkinvent_7_9_3/rearranged_h_0059.sdf

> <i_m_source_file_index>
42

> <r_mmod_Potential_Energy-OPLS-2005>
1465.57006835938

> <r_mmod_Stretch_Energy-OPLS-2005>
705.804443359375

> <r_mmod_Bend_Energy-OPLS-2005>
498.176147460938

> <r_mmod_Torsional_Energy-OPLS-2005>
199.585479736328

> <r_mmod_Improper_Torsional_Energy-OPLS-2005>
8.79165077209473

> <r_mmod_Van_der_Waal_Energy-OPLS-2005>
106.296058654785

> <r_mmod_Electrostatic_Energy-OPLS-2005>
-379.987884521484

> <r_mmod_Solvation_Energy-OPLS-2005>
-233.26579284668

> <b_mmod_Minimization_Converged-OPLS-2005>
0

> <r_mmod_RMS_Derivative-OPLS-2005>
0.110418930649757

$$$$
42
                    3D
 Structure written by MMmdl.
148156  0  0  1  0            999 V2000
  -30.4714  -15.2178   20.3767 C   0  0  0  0  0  0
  -30.4364  -12.7754   19.5235 C   0  0  0  0  0  0
  -29.5346  -12.5670   18.2818 C   0  0  0  0  0  0
  -28.0804  -12.3000   18.7071 C   0  0  0  0  0  0
  -27.6143  -13.2724   19.8197 C   0  0  2  0  0  0
  -28.6478  -13.4347   20.9556 C   0  0  0  0  0  0
  -25.2408  -13.8240   20.5714 C   0  0  0  0  0  0
  -24.1756  -13.0440   20.9248 C   0  0  0  0  0  0
  -24.6408  -11.6936   20.8767 C   0  0  0  0  0  0
  -23.9105  -10.4297   21.0414 C   0  0  0  0  0  0
  -24.3653   -9.4206   21.9190 C   0  0  0  0  0  0
  -23.6319   -8.2241   22.0756 C   0  0  0  0  0  0
  -22.4297   -8.0289   21.3551 C   0  0  0  0  0  0
  -21.9937   -9.0259   20.4649 C   0  0  0  0  0  0
  -22.7274  -10.2132   20.3064 C   0  0  0  0  0  0
  -21.6852   -6.0752   22.5288 C   0  0  0  0  0  0
  -21.4008   -6.5655   23.8225 C   0  0  0  0  0  0
  -21.3658   -5.6799   24.9179 C   0  0  0  0  0  0
  -21.6041   -4.3064   24.7222 C   0  0  0  0  0  0
  -21.8820   -3.8160   23.4344 C   0  0  0  0  0  0
  -21.9186   -4.6977   22.3402 C   0  0  0  0  0  0
  -22.7776  -13.5200   21.1895 C   0  0  0  0  0  0
  -22.1662   -4.2167   21.0978 F   0  0  0  0  0  0
  -21.5622   -3.4543   25.7737 F   0  0  0  0  0  0
  -29.8875  -13.9234   20.3336 N   0  0  0  0  0  0
  -26.2834  -12.9507   20.3182 N   0  0  0  0  0  0
  -25.9346  -11.6622   20.5711 N   0  0  0  0  0  0
  -22.0433  -12.8190   22.0443 N   0  0  0  0  0  0
  -25.4062  -15.1960   20.4137 N   0  0  0  0  0  0
  -31.6916  -15.1998   20.1655 O   0  0  0  0  0  0
  -21.6645   -6.8897   21.4255 O   0  0  0  0  0  0
  -22.3463  -14.5496   20.6718 O   0  0  0  0  0  0
  -24.6620  -31.8263   23.1721 C   0  0  0  0  0  0
  -25.9314  -32.4611   23.8180 C   0  0  1  0  0  0
  -27.2094  -26.9472   20.1816 C   0  0  0  0  0  0
  -25.5989  -33.8423   24.2090 N   0  0  0  0  0  0
  -23.4755  -30.4426   21.5198 C   0  0  2  0  0  0
  -24.9267  -28.8382   20.1101 C   0  0  0  0  0  0
  -22.7665  -29.4476   22.4763 C   0  0  0  0  0  0
  -18.0324  -28.1418   22.8475 C   0  0  0  0  0  0
  -24.1488  -36.7212   23.2645 C   0  0  0  0  0  0
  -26.0456  -30.6406   21.3992 C   0  0  0  0  0  0
  -26.1113  -29.2330   20.7447 C   0  0  0  0  0  0
  -27.2485  -28.3086   20.7584 C   0  0  0  0  0  0
  -25.9961  -26.7064   19.4953 C   0  0  0  0  0  0
  -24.8946  -27.5950   19.4650 C   0  0  0  0  0  0
  -23.7137  -29.7646   20.1438 C   0  0  0  0  0  0
  -25.4124  -36.2979   24.0314 C   0  0  1  0  0  0
  -20.5959  -28.3767   23.1180 C   0  0  2  0  0  0
  -20.6807  -26.9447   22.5393 C   0  0  0  0  0  0
  -19.5769  -26.6382   21.5219 C   0  0  0  0  0  0
  -18.1952  -26.7956   22.1625 C   0  0  0  0  0  0
  -19.1590  -28.8907   23.2820 C   0  0  0  0  0  0
  -18.9498  -30.1496   23.8862 C   0  0  0  0  0  0
  -17.6492  -30.6609   24.0554 C   0  0  0  0  0  0
  -25.9093  -34.9365   23.5013 C   0  0  0  0  0  0
  -16.5381  -29.9104   23.6340 C   0  0  0  0  0  0
  -16.7309  -28.6519   23.0372 C   0  0  0  0  0  0
  -26.4558  -31.6548   25.0703 C   0  0  0  0  0  0
  -25.3683  -31.3841   26.1358 C   0  0  0  0  0  0
  -27.0423  -30.2908   24.6440 C   0  0  0  0  0  0
  -27.6067  -32.4348   25.7485 C   0  0  0  0  0  0
  -27.5578  -37.1736   24.8448 C   0  0  0  0  0  0
  -21.4333  -29.3065   22.3525 N   0  0  0  0  0  0
  -26.4253  -37.3727   23.9448 N   0  0  0  0  0  0
  -24.7493  -30.9969   22.0835 N   0  0  0  0  0  0
  -23.4228  -28.8032   23.2985 O   0  0  0  0  0  0
  -28.1916  -25.8284   20.2647 O   0  0  0  0  0  0
  -26.5688  -34.8901   22.4606 O   0  0  0  0  0  0
  -23.5693  -32.1211   23.6816 O   0  0  0  0  0  0
  -27.9447  -21.4998   19.5071 C   0  0  0  0  0  0
  -29.9399  -20.8282   21.0765 C   0  0  0  0  0  0
  -28.5069  -22.6657   20.1942 C   0  0  0  0  0  0
  -29.3768  -19.6619   20.3742 C   0  0  0  0  0  0
  -30.7831  -18.1536   18.8081 C   0  0  0  0  0  0
  -27.7792  -24.2548   20.0833 C   0  0  0  0  0  0
  -30.1369  -18.0967   20.2034 C   0  0  2  0  0  0
  -29.5367  -22.2038   21.0186 N   0  0  0  0  0  0
  -28.3409  -20.1305   19.5696 N   0  0  0  0  0  0
  -29.7378  -16.5018   20.4422 N   0  0  0  0  0  0
  -31.4607  -12.9606   19.1985 H   0  0  0  0  0  0
  -30.4837  -11.8659   20.1237 H   0  0  0  0  0  0
  -29.9084  -11.7406   17.6758 H   0  0  0  0  0  0
  -29.5746  -13.4545   17.6488 H   0  0  0  0  0  0
  -28.0302  -11.2744   19.0748 H   0  0  0  0  0  0
  -27.4121  -12.3503   17.8460 H   0  0  0  0  0  0
  -27.5333  -14.2418   19.3266 H   0  0  0  0  0  0
  -28.8026  -12.4968   21.4908 H   0  0  0  0  0  0
  -28.2926  -14.1596   21.6901 H   0  0  0  0  0  0
  -25.2801   -9.5669   22.4762 H   0  0  0  0  0  0
  -24.0024   -7.4630   22.7479 H   0  0  0  0  0  0
  -21.0863   -8.8781   19.8960 H   0  0  0  0  0  0
  -22.3740  -10.9670   19.6171 H   0  0  0  0  0  0
  -21.2005   -7.6168   23.9729 H   0  0  0  0  0  0
  -21.1476   -6.0532   25.9081 H   0  0  0  0  0  0
  -22.0596   -2.7625   23.2830 H   0  0  0  0  0  0
  -22.4065  -11.9868   22.4848 H   0  0  0  0  0  0
  -21.1043  -13.1193   22.2639 H   0  0  0  0  0  0
  -24.6340  -15.8467   20.5122 H   0  0  0  0  0  0
  -26.2462  -15.6318   20.0554 H   0  0  0  0  0  0
  -26.7387  -32.5139   23.0900 H   0  0  0  0  0  0
  -25.0128  -33.9512   25.0239 H   0  0  0  0  0  0
  -22.7896  -31.2751   21.3518 H   0  0  0  0  0  0
  -23.3778  -35.9503   23.3214 H   0  0  0  0  0  0
  -24.3601  -36.8940   22.2077 H   0  0  0  0  0  0
  -23.7176  -37.6359   23.6740 H   0  0  0  0  0  0
  -26.2262  -31.3807   20.6186 H   0  0  0  0  0  0
  -26.9065  -30.6948   22.0540 H   0  0  0  0  0  0
  -28.1431  -28.6064   21.2867 H   0  0  0  0  0  0
  -25.8489  -25.7627   18.9939 H   0  0  0  0  0  0
  -23.9969  -27.2896   18.9452 H   0  0  0  0  0  0
  -23.8682  -30.5339   19.3857 H   0  0  0  0  0  0
  -22.8229  -29.2209   19.8251 H   0  0  0  0  0  0
  -25.1302  -36.1766   25.0797 H   0  0  0  0  0  0
  -21.0047  -28.3361   24.1306 H   0  0  0  0  0  0
  -20.5683  -26.2395   23.3644 H   0  0  0  0  0  0
  -21.6665  -26.7424   22.1189 H   0  0  0  0  0  0
  -19.6922  -25.6277   21.1288 H   0  0  0  0  0  0
  -19.6697  -27.3163   20.6729 H   0  0  0  0  0  0
  -17.4217  -26.6705   21.4031 H   0  0  0  0  0  0
  -18.0332  -26.0121   22.9035 H   0  0  0  0  0  0
  -19.7974  -30.7314   24.2223 H   0  0  0  0  0  0
  -17.5051  -31.6288   24.5154 H   0  0  0  0  0  0
  -15.5379  -30.2992   23.7696 H   0  0  0  0  0  0
  -15.8708  -28.0816   22.7127 H   0  0  0  0  0  0
  -24.5840  -30.7223   25.7675 H   0  0  0  0  0  0
  -24.8899  -32.3062   26.4670 H   0  0  0  0  0  0
  -25.7887  -30.9060   27.0215 H   0  0  0  0  0  0
  -26.3071  -29.6610   24.1424 H   0  0  0  0  0  0
  -27.3916  -29.7275   25.5108 H   0  0  0  0  0  0
  -27.9042  -30.4090   23.9874 H   0  0  0  0  0  0
  -27.2670  -33.3717   26.1926 H   0  0  0  0  0  0
  -28.3942  -32.6801   25.0343 H   0  0  0  0  0  0
  -28.0669  -31.8554   26.5509 H   0  0  0  0  0  0
  -28.2493  -38.0130   24.7612 H   0  0  0  0  0  0
  -28.1157  -36.2666   24.6084 H   0  0  0  0  0  0
  -27.2333  -37.1146   25.8850 H   0  0  0  0  0  0
  -20.9575  -29.8800   21.6695 H   0  0  0  0  0  0
  -26.0090  -38.2760   24.1541 H   0  0  0  0  0  0
  -27.0987  -21.6715   18.8567 H   0  0  0  0  0  0
  -30.8130  -20.6614   21.6919 H   0  0  0  0  0  0
  -31.3166  -19.0928   18.6599 H   0  0  0  0  0  0
  -30.0220  -18.0873   18.0305 H   0  0  0  0  0  0
  -31.5029  -17.3532   18.6403 H   0  0  0  0  0  0
  -26.8901  -24.1537   20.7052 H   0  0  0  0  0  0
  -27.3997  -24.2271   19.0631 H   0  0  0  0  0  0
  -30.9628  -18.1974   20.9088 H   0  0  0  0  0  0
  -28.7517  -16.3716   20.6112 H   0  0  0  0  0  0
  1 25  1  0  0  0
  1 30  2  0  0  0
  1 80  1  0  0  0
  2  3  1  0  0  0
  2 25  1  0  0  0
  2 81  1  0  0  0
  2 82  1  0  0  0
  3  4  1  0  0  0
  3 83  1  0  0  0
  3 84  1  0  0  0
  4  5  1  0  0  0
  4 85  1  0  0  0
  4 86  1  0  0  0
  5  6  1  0  0  0
  5 26  1  0  0  0
  5 87  1  0  0  0
  6 25  1  0  0  0
  6 88  1  0  0  0
  6 89  1  0  0  0
  7  8  2  0  0  0
  7 26  1  0  0  0
  7 29  1  0  0  0
  8  9  1  0  0  0
  8 22  1  0  0  0
  9 10  1  0  0  0
  9 27  2  0  0  0
 10 11  2  0  0  0
 10 15  1  0  0  0
 11 12  1  0  0  0
 11 90  1  0  0  0
 12 13  2  0  0  0
 12 91  1  0  0  0
 13 14  1  0  0  0
 13 31  1  0  0  0
 14 15  2  0  0  0
 14 92  1  0  0  0
 15 93  1  0  0  0
 16 17  2  0  0  0
 16 21  1  0  0  0
 16 31  1  0  0  0
 17 18  1  0  0  0
 17 94  1  0  0  0
 18 19  2  0  0  0
 18 95  1  0  0  0
 19 20  1  0  0  0
 19 24  1  0  0  0
 20 21  2  0  0  0
 20 96  1  0  0  0
 21 23  1  0  0  0
 22 28  1  0  0  0
 22 32  2  0  0  0
 26 27  1  0  0  0
 28 97  1  0  0  0
 28 98  1  0  0  0
 29 99  1  0  0  0
 29100  1  0  0  0
 33 34  1  0  0  0
 33 66  1  0  0  0
 33 70  2  0  0  0
 34 36  1  0  0  0
 34 59  1  0  0  0
 34101  1  0  0  0
 35 44  2  0  0  0
 35 45  1  0  0  0
 35 68  1  0  0  0
 36 56  1  0  0  0
 36102  1  0  0  0
 37 39  1  0  0  0
 37 47  1  0  0  0
 37 66  1  0  0  0
 37103  1  0  0  0
 38 43  2  0  0  0
 38 46  1  0  0  0
 38 47  1  0  0  0
 39 64  1  0  0  0
 39 67  2  0  0  0
 40 52  1  0  0  0
 40 53  2  0  0  0
 40 58  1  0  0  0
 41104  1  0  0  0
 41105  1  0  0  0
 41106  1  0  0  0
 41 48  1  0  0  0
 42 43  1  0  0  0
 42 66  1  0  0  0
 42107  1  0  0  0
 42108  1  0  0  0
 43 44  1  0  0  0
 44109  1  0  0  0
 45 46  2  0  0  0
 45110  1  0  0  0
 46111  1  0  0  0
 47112  1  0  0  0
 47113  1  0  0  0
 48 56  1  0  0  0
 48 65  1  0  0  0
 48114  1  0  0  0
 49 50  1  0  0  0
 49 53  1  0  0  0
 49 64  1  0  0  0
 49115  1  0  0  0
 50 51  1  0  0  0
 50116  1  0  0  0
 50117  1  0  0  0
 51 52  1  0  0  0
 51118  1  0  0  0
 51119  1  0  0  0
 52120  1  0  0  0
 52121  1  0  0  0
 53 54  1  0  0  0
 54 55  2  0  0  0
 54122  1  0  0  0
 55 57  1  0  0  0
 55123  1  0  0  0
 56 69  2  0  0  0
 57 58  2  0  0  0
 57124  1  0  0  0
 58125  1  0  0  0
 59 60  1  0  0  0
 59 61  1  0  0  0
 59 62  1  0  0  0
 60126  1  0  0  0
 60127  1  0  0  0
 60128  1  0  0  0
 61129  1  0  0  0
 61130  1  0  0  0
 61131  1  0  0  0
 62132  1  0  0  0
 62133  1  0  0  0
 62134  1  0  0  0
 63 65  1  0  0  0
 63135  1  0  0  0
 63136  1  0  0  0
 63137  1  0  0  0
 64138  1  0  0  0
 65139  1  0  0  0
 68 76  1  0  0  0
 71 73  2  0  0  0
 71 79  1  0  0  0
 71140  1  0  0  0
 72 74  1  0  0  0
 72 78  2  0  0  0
 72141  1  0  0  0
 73 76  1  0  0  0
 73 78  1  0  0  0
 74 77  1  0  0  0
 74 79  2  0  0  0
 75142  1  0  0  0
 75143  1  0  0  0
 75144  1  0  0  0
 75 77  1  0  0  0
 76145  1  0  0  0
 76146  1  0  0  0
 77 80  1  0  0  0
 77147  1  0  0  0
 80148  1  0  0  0
M  ISO  4   1 100  68 101  76 101  80 100
M  END
> <chiral flag>
0

> <version>
0

> <s_m_source_file>
/data/baiqing/PycharmProjects/Reinvent-master-3.2/result/LINK_invent/BTK/process_docking_weight1_custom_sum_contain_oxygen_bond_distance_aromatic_linkinvent_7_9_3/rearranged_h_0059.sdf

> <i_m_source_file_index>
43

> <r_mmod_Potential_Energy-OPLS-2005>
1181.44128417969

> <r_mmod_Stretch_Energy-OPLS-2005>
500.701019287109

> <r_mmod_Bend_Energy-OPLS-2005>
444.829254150391

> <r_mmod_Torsional_Energy-OPLS-2005>
206.243377685547

> <r_mmod_Improper_Torsional_Energy-OPLS-2005>
7.70886373519897

> <r_mmod_Van_der_Waal_Energy-OPLS-2005>
135.286590576172

> <r_mmod_Electrostatic_Energy-OPLS-2005>
-301.779327392578

> <r_mmod_Solvation_Energy-OPLS-2005>
-232.690002441406

> <b_mmod_Minimization_Converged-OPLS-2005>
0

> <r_mmod_RMS_Derivative-OPLS-2005>
1.96933960914612

$$$$
43
                    3D
 Structure written by MMmdl.
148156  0  0  1  0            999 V2000
  -30.4171  -15.2321   20.4447 C   0  0  0  0  0  0
  -30.4567  -12.8018   19.5092 C   0  0  0  0  0  0
  -29.5347  -12.6047   18.2744 C   0  0  0  0  0  0
  -28.0746  -12.3325   18.6869 C   0  0  0  0  0  0
  -27.6243  -13.2592   19.8418 C   0  0  2  0  0  0
  -28.6728  -13.2897   20.9697 C   0  0  0  0  0  0
  -25.2408  -13.8198   20.5687 C   0  0  0  0  0  0
  -24.1753  -13.0411   20.9232 C   0  0  0  0  0  0
  -24.6399  -11.6908   20.8759 C   0  0  0  0  0  0
  -23.9086  -10.4279   21.0412 C   0  0  0  0  0  0
  -24.3630   -9.4193   21.9190 C   0  0  0  0  0  0
  -23.6300   -8.2231   22.0754 C   0  0  0  0  0  0
  -22.4281   -8.0275   21.3544 C   0  0  0  0  0  0
  -21.9922   -9.0250   20.4647 C   0  0  0  0  0  0
  -22.7258  -10.2125   20.3058 C   0  0  0  0  0  0
  -21.6850   -6.0736   22.5282 C   0  0  0  0  0  0
  -21.4011   -6.5639   23.8214 C   0  0  0  0  0  0
  -21.3662   -5.6793   24.9177 C   0  0  0  0  0  0
  -21.6047   -4.3055   24.7226 C   0  0  0  0  0  0
  -21.8818   -3.8147   23.4347 C   0  0  0  0  0  0
  -21.9190   -4.6964   22.3404 C   0  0  0  0  0  0
  -22.7773  -13.5178   21.1892 C   0  0  0  0  0  0
  -22.1659   -4.2150   21.0981 F   0  0  0  0  0  0
  -21.5634   -3.4538   25.7739 F   0  0  0  0  0  0
  -29.8936  -13.8970   20.3875 N   0  0  0  0  0  0
  -26.2858  -12.9454   20.3252 N   0  0  0  0  0  0
  -25.9338  -11.6573   20.5739 N   0  0  0  0  0  0
  -22.0431  -12.8168   22.0456 N   0  0  0  0  0  0
  -25.3997  -15.1925   20.4043 N   0  0  0  0  0  0
  -31.6045  -15.2828   20.0835 O   0  0  0  0  0  0
  -21.6637   -6.8877   21.4243 O   0  0  0  0  0  0
  -22.3452  -14.5482   20.6737 O   0  0  0  0  0  0
  -24.6601  -31.8265   23.1722 C   0  0  0  0  0  0
  -25.9295  -32.4601   23.8179 C   0  0  1  0  0  0
  -27.2275  -26.9628   20.1793 C   0  0  0  0  0  0
  -25.5974  -33.8414   24.2083 N   0  0  0  0  0  0
  -23.4734  -30.4381   21.5211 C   0  0  2  0  0  0
  -24.9271  -28.8278   20.1153 C   0  0  0  0  0  0
  -22.7651  -29.4457   22.4795 C   0  0  0  0  0  0
  -18.0320  -28.1406   22.8466 C   0  0  0  0  0  0
  -24.1495  -36.7217   23.2646 C   0  0  0  0  0  0
  -26.0404  -30.6446   21.3966 C   0  0  0  0  0  0
  -26.1108  -29.2370   20.7420 C   0  0  0  0  0  0
  -27.2569  -28.3266   20.7462 C   0  0  0  0  0  0
  -26.0113  -26.6938   19.5125 C   0  0  0  0  0  0
  -24.9004  -27.5751   19.4813 C   0  0  0  0  0  0
  -23.7118  -29.7524   20.1478 C   0  0  0  0  0  0
  -25.4134  -36.2974   24.0299 C   0  0  1  0  0  0
  -20.5942  -28.3750   23.1195 C   0  0  2  0  0  0
  -20.6797  -26.9434   22.5402 C   0  0  0  0  0  0
  -19.5771  -26.6376   21.5213 C   0  0  0  0  0  0
  -18.1953  -26.7939   22.1622 C   0  0  0  0  0  0
  -19.1580  -28.8898   23.2817 C   0  0  0  0  0  0
  -18.9491  -30.1488   23.8852 C   0  0  0  0  0  0
  -17.6484  -30.6597   24.0555 C   0  0  0  0  0  0
  -25.9097  -34.9356   23.5011 C   0  0  0  0  0  0
  -16.5375  -29.9084   23.6341 C   0  0  0  0  0  0
  -16.7302  -28.6505   23.0360 C   0  0  0  0  0  0
  -26.4552  -31.6539   25.0699 C   0  0  0  0  0  0
  -25.3686  -31.3786   26.1362 C   0  0  0  0  0  0
  -27.0446  -30.2909   24.6416 C   0  0  0  0  0  0
  -27.6042  -32.4349   25.7505 C   0  0  0  0  0  0
  -27.5570  -37.1766   24.8463 C   0  0  0  0  0  0
  -21.4324  -29.3045   22.3547 N   0  0  0  0  0  0
  -26.4280  -37.3707   23.9405 N   0  0  0  0  0  0
  -24.7457  -30.9959   22.0839 N   0  0  0  0  0  0
  -23.4211  -28.8029   23.3030 O   0  0  0  0  0  0
  -28.2579  -25.8940   20.2285 O   0  0  0  0  0  0
  -26.5705  -34.8888   22.4605 O   0  0  0  0  0  0
  -23.5678  -32.1220   23.6835 O   0  0  0  0  0  0
  -29.8220  -20.4075   21.4039 C   0  0  0  0  0  0
  -29.0257  -18.8120   19.4466 C   0  0  0  0  0  0
  -29.1484  -21.1557   20.3512 C   0  0  0  0  0  0
  -29.6891  -18.0577   20.5172 C   0  0  0  0  0  0
  -28.7401  -16.2526   21.9109 C   0  0  0  0  0  0
  -29.1712  -22.8953   20.1924 C   0  0  0  0  0  0
  -28.0320  -24.2674   20.2290 C   0  0  0  0  0  0
  -28.7976  -20.2289   19.3576 N   0  0  0  0  0  0
  -30.0552  -19.0063   21.4808 N   0  0  0  0  0  0
  -29.6361  -16.4636   20.7672 N   0  0  0  0  0  0
  -31.4629  -13.0419   19.1635 H   0  0  0  0  0  0
  -30.5703  -11.8676   20.0616 H   0  0  0  0  0  0
  -29.9069  -11.7940   17.6465 H   0  0  0  0  0  0
  -29.5693  -13.5052   17.6593 H   0  0  0  0  0  0
  -28.0056  -11.2917   19.0053 H   0  0  0  0  0  0
  -27.4082  -12.4353   17.8296 H   0  0  0  0  0  0
  -27.5741  -14.2617   19.4152 H   0  0  0  0  0  0
  -28.8583  -12.2774   21.3320 H   0  0  0  0  0  0
  -28.2967  -13.7975   21.8492 H   0  0  0  0  0  0
  -25.2773   -9.5666   22.4771 H   0  0  0  0  0  0
  -24.0006   -7.4619   22.7470 H   0  0  0  0  0  0
  -21.0855   -8.8772   19.8951 H   0  0  0  0  0  0
  -22.3718  -10.9665   19.6167 H   0  0  0  0  0  0
  -21.1997   -7.6147   23.9718 H   0  0  0  0  0  0
  -21.1491   -6.0523   25.9082 H   0  0  0  0  0  0
  -22.0595   -2.7609   23.2845 H   0  0  0  0  0  0
  -22.4059  -11.9835   22.4844 H   0  0  0  0  0  0
  -21.1048  -13.1183   22.2672 H   0  0  0  0  0  0
  -24.6254  -15.8385   20.5114 H   0  0  0  0  0  0
  -26.2384  -15.6346   20.0528 H   0  0  0  0  0  0
  -26.7367  -32.5149   23.0898 H   0  0  0  0  0  0
  -25.0069  -33.9496   25.0199 H   0  0  0  0  0  0
  -22.7853  -31.2686   21.3508 H   0  0  0  0  0  0
  -23.3763  -35.9542   23.3280 H   0  0  0  0  0  0
  -24.3573  -36.8893   22.2067 H   0  0  0  0  0  0
  -23.7250  -37.6396   23.6722 H   0  0  0  0  0  0
  -26.2162  -31.3878   20.6177 H   0  0  0  0  0  0
  -26.9020  -30.7011   22.0501 H   0  0  0  0  0  0
  -28.1569  -28.6422   21.2551 H   0  0  0  0  0  0
  -25.8899  -25.7389   19.0234 H   0  0  0  0  0  0
  -24.0006  -27.2548   18.9740 H   0  0  0  0  0  0
  -23.8659  -30.5202   19.3888 H   0  0  0  0  0  0
  -22.8224  -29.2050   19.8309 H   0  0  0  0  0  0
  -25.1334  -36.1769   25.0790 H   0  0  0  0  0  0
  -21.0028  -28.3354   24.1319 H   0  0  0  0  0  0
  -20.5679  -26.2368   23.3640 H   0  0  0  0  0  0
  -21.6662  -26.7415   22.1209 H   0  0  0  0  0  0
  -19.6932  -25.6274   21.1276 H   0  0  0  0  0  0
  -19.6711  -27.3158   20.6721 H   0  0  0  0  0  0
  -17.4222  -26.6677   21.4027 H   0  0  0  0  0  0
  -18.0352  -26.0093   22.9030 H   0  0  0  0  0  0
  -19.7967  -30.7315   24.2202 H   0  0  0  0  0  0
  -17.5037  -31.6273   24.5164 H   0  0  0  0  0  0
  -15.5373  -30.2971   23.7693 H   0  0  0  0  0  0
  -15.8702  -28.0809   22.7100 H   0  0  0  0  0  0
  -24.5866  -30.7140   25.7673 H   0  0  0  0  0  0
  -24.8880  -32.2990   26.4689 H   0  0  0  0  0  0
  -25.7922  -30.9013   27.0208 H   0  0  0  0  0  0
  -26.3107  -29.6588   24.1405 H   0  0  0  0  0  0
  -27.3966  -29.7270   25.5065 H   0  0  0  0  0  0
  -27.9052  -30.4095   23.9830 H   0  0  0  0  0  0
  -27.2598  -33.3680   26.1977 H   0  0  0  0  0  0
  -28.3909  -32.6865   25.0381 H   0  0  0  0  0  0
  -28.0650  -31.8550   26.5513 H   0  0  0  0  0  0
  -28.2567  -38.0080   24.7507 H   0  0  0  0  0  0
  -28.1086  -36.2606   24.6293 H   0  0  0  0  0  0
  -27.2286  -37.1412   25.8865 H   0  0  0  0  0  0
  -20.9573  -29.8735   21.6679 H   0  0  0  0  0  0
  -26.0128  -38.2767   24.1410 H   0  0  0  0  0  0
  -30.2409  -20.9653   22.2288 H   0  0  0  0  0  0
  -28.5960  -18.2485   18.6314 H   0  0  0  0  0  0
  -28.5060  -17.1725   22.4465 H   0  0  0  0  0  0
  -29.1764  -15.5941   22.6643 H   0  0  0  0  0  0
  -27.7808  -15.8632   21.5777 H   0  0  0  0  0  0
  -29.7122  -23.0332   19.2568 H   0  0  0  0  0  0
  -29.9049  -23.1711   20.9494 H   0  0  0  0  0  0
  -27.4254  -24.1029   21.1197 H   0  0  0  0  0  0
  -27.3496  -24.0776   19.4015 H   0  0  0  0  0  0
  1 25  1  0  0  0
  1 30  2  0  0  0
  1 80  1  0  0  0
  2  3  1  0  0  0
  2 25  1  0  0  0
  2 81  1  0  0  0
  2 82  1  0  0  0
  3  4  1  0  0  0
  3 83  1  0  0  0
  3 84  1  0  0  0
  4  5  1  0  0  0
  4 85  1  0  0  0
  4 86  1  0  0  0
  5  6  1  0  0  0
  5 26  1  0  0  0
  5 87  1  0  0  0
  6 25  1  0  0  0
  6 88  1  0  0  0
  6 89  1  0  0  0
  7  8  2  0  0  0
  7 26  1  0  0  0
  7 29  1  0  0  0
  8  9  1  0  0  0
  8 22  1  0  0  0
  9 10  1  0  0  0
  9 27  2  0  0  0
 10 11  2  0  0  0
 10 15  1  0  0  0
 11 12  1  0  0  0
 11 90  1  0  0  0
 12 13  2  0  0  0
 12 91  1  0  0  0
 13 14  1  0  0  0
 13 31  1  0  0  0
 14 15  2  0  0  0
 14 92  1  0  0  0
 15 93  1  0  0  0
 16 17  2  0  0  0
 16 21  1  0  0  0
 16 31  1  0  0  0
 17 18  1  0  0  0
 17 94  1  0  0  0
 18 19  2  0  0  0
 18 95  1  0  0  0
 19 20  1  0  0  0
 19 24  1  0  0  0
 20 21  2  0  0  0
 20 96  1  0  0  0
 21 23  1  0  0  0
 22 28  1  0  0  0
 22 32  2  0  0  0
 26 27  1  0  0  0
 28 97  1  0  0  0
 28 98  1  0  0  0
 29 99  1  0  0  0
 29100  1  0  0  0
 33 34  1  0  0  0
 33 66  1  0  0  0
 33 70  2  0  0  0
 34 36  1  0  0  0
 34 59  1  0  0  0
 34101  1  0  0  0
 35 44  2  0  0  0
 35 45  1  0  0  0
 35 68  1  0  0  0
 36 56  1  0  0  0
 36102  1  0  0  0
 37 39  1  0  0  0
 37 47  1  0  0  0
 37 66  1  0  0  0
 37103  1  0  0  0
 38 43  2  0  0  0
 38 46  1  0  0  0
 38 47  1  0  0  0
 39 64  1  0  0  0
 39 67  2  0  0  0
 40 52  1  0  0  0
 40 53  2  0  0  0
 40 58  1  0  0  0
 41104  1  0  0  0
 41105  1  0  0  0
 41106  1  0  0  0
 41 48  1  0  0  0
 42 43  1  0  0  0
 42 66  1  0  0  0
 42107  1  0  0  0
 42108  1  0  0  0
 43 44  1  0  0  0
 44109  1  0  0  0
 45 46  2  0  0  0
 45110  1  0  0  0
 46111  1  0  0  0
 47112  1  0  0  0
 47113  1  0  0  0
 48 56  1  0  0  0
 48 65  1  0  0  0
 48114  1  0  0  0
 49 50  1  0  0  0
 49 53  1  0  0  0
 49 64  1  0  0  0
 49115  1  0  0  0
 50 51  1  0  0  0
 50116  1  0  0  0
 50117  1  0  0  0
 51 52  1  0  0  0
 51118  1  0  0  0
 51119  1  0  0  0
 52120  1  0  0  0
 52121  1  0  0  0
 53 54  1  0  0  0
 54 55  2  0  0  0
 54122  1  0  0  0
 55 57  1  0  0  0
 55123  1  0  0  0
 56 69  2  0  0  0
 57 58  2  0  0  0
 57124  1  0  0  0
 58125  1  0  0  0
 59 60  1  0  0  0
 59 61  1  0  0  0
 59 62  1  0  0  0
 60126  1  0  0  0
 60127  1  0  0  0
 60128  1  0  0  0
 61129  1  0  0  0
 61130  1  0  0  0
 61131  1  0  0  0
 62132  1  0  0  0
 62133  1  0  0  0
 62134  1  0  0  0
 63 65  1  0  0  0
 63135  1  0  0  0
 63136  1  0  0  0
 63137  1  0  0  0
 64138  1  0  0  0
 65139  1  0  0  0
 68 77  1  0  0  0
 71 73  2  0  0  0
 71 79  1  0  0  0
 71140  1  0  0  0
 72 74  1  0  0  0
 72 78  2  0  0  0
 72141  1  0  0  0
 73 76  1  0  0  0
 73 78  1  0  0  0
 74 79  2  0  0  0
 74 80  1  0  0  0
 75 80  1  0  0  0
 75142  1  0  0  0
 75143  1  0  0  0
 75144  1  0  0  0
 76 77  1  0  0  0
 76145  1  0  0  0
 76146  1  0  0  0
 77147  1  0  0  0
 77148  1  0  0  0
M  ISO  4   1 100  68 101  77 101  80 100
M  END
> <chiral flag>
0

> <version>
0

> <s_m_source_file>
/data/baiqing/PycharmProjects/Reinvent-master-3.2/result/LINK_invent/BTK/process_docking_weight1_custom_sum_contain_oxygen_bond_distance_aromatic_linkinvent_7_9_3/rearranged_h_0059.sdf

> <i_m_source_file_index>
44

> <r_mmod_Potential_Energy-OPLS-2005>
1341.78955078125

> <r_mmod_Stretch_Energy-OPLS-2005>
513.797485351562

> <r_mmod_Bend_Energy-OPLS-2005>
441.523651123047

> <r_mmod_Torsional_Energy-OPLS-2005>
288.058929443359

> <r_mmod_Improper_Torsional_Energy-OPLS-2005>
9.32547187805176

> <r_mmod_Van_der_Waal_Energy-OPLS-2005>
146.445434570312

> <r_mmod_Electrostatic_Energy-OPLS-2005>
-244.414443969727

> <r_mmod_Solvation_Energy-OPLS-2005>
-212.770568847656

> <b_mmod_Minimization_Converged-OPLS-2005>
0

> <r_mmod_RMS_Derivative-OPLS-2005>
0.329864650964737

$$$$
44
                    3D
 Structure written by MMmdl.
157165  0  0  1  0            999 V2000
  -30.4711  -14.9593   20.5101 C   0  0  0  0  0  0
  -30.4667  -12.6027   19.5075 C   0  0  0  0  0  0
  -29.5391  -12.5480   18.2678 C   0  0  0  0  0  0
  -28.0730  -12.3038   18.6790 C   0  0  0  0  0  0
  -27.6396  -13.2259   19.8441 C   0  0  2  0  0  0
  -28.6749  -13.1954   20.9837 C   0  0  0  0  0  0
  -25.2512  -13.8142   20.5640 C   0  0  0  0  0  0
  -24.1807  -13.0401   20.9171 C   0  0  0  0  0  0
  -24.6402  -11.6876   20.8717 C   0  0  0  0  0  0
  -23.9060  -10.4270   21.0407 C   0  0  0  0  0  0
  -24.3605   -9.4184   21.9192 C   0  0  0  0  0  0
  -23.6269   -8.2222   22.0767 C   0  0  0  0  0  0
  -22.4256   -8.0260   21.3543 C   0  0  0  0  0  0
  -21.9886   -9.0231   20.4647 C   0  0  0  0  0  0
  -22.7225  -10.2113   20.3055 C   0  0  0  0  0  0
  -21.6847   -6.0719   22.5267 C   0  0  0  0  0  0
  -21.4015   -6.5633   23.8197 C   0  0  0  0  0  0
  -21.3649   -5.6788   24.9161 C   0  0  0  0  0  0
  -21.6041   -4.3052   24.7216 C   0  0  0  0  0  0
  -21.8822   -3.8135   23.4343 C   0  0  0  0  0  0
  -21.9194   -4.6949   22.3393 C   0  0  0  0  0  0
  -22.7840  -13.5199   21.1840 C   0  0  0  0  0  0
  -22.1663   -4.2131   21.0975 F   0  0  0  0  0  0
  -21.5620   -3.4542   25.7733 F   0  0  0  0  0  0
  -29.9554  -13.6604   20.4296 N   0  0  0  0  0  0
  -26.2930  -12.9331   20.3207 N   0  0  0  0  0  0
  -25.9334  -11.6484   20.5709 N   0  0  0  0  0  0
  -22.0479  -12.8206   22.0397 N   0  0  0  0  0  0
  -25.4179  -15.1853   20.4041 N   0  0  0  0  0  0
  -31.6395  -15.1074   20.1291 O   0  0  0  0  0  0
  -21.6627   -6.8855   21.4233 O   0  0  0  0  0  0
  -22.3534  -14.5501   20.6687 O   0  0  0  0  0  0
  -24.6493  -31.8408   23.1759 C   0  0  0  0  0  0
  -25.9281  -32.4642   23.8157 C   0  0  1  0  0  0
  -27.2180  -27.1126   20.1962 C   0  0  0  0  0  0
  -25.6042  -33.8442   24.2118 N   0  0  0  0  0  0
  -23.4504  -30.4567   21.5244 C   0  0  2  0  0  0
  -24.8947  -28.8626   20.1196 C   0  0  0  0  0  0
  -22.7570  -29.4565   22.4834 C   0  0  0  0  0  0
  -18.0312  -28.1430   22.8432 C   0  0  0  0  0  0
  -24.1485  -36.7213   23.2625 C   0  0  0  0  0  0
  -26.0022  -30.7047   21.3739 C   0  0  0  0  0  0
  -26.0695  -29.3098   20.7367 C   0  0  0  0  0  0
  -27.2327  -28.4507   20.7561 C   0  0  0  0  0  0
  -26.0204  -26.7619   19.5393 C   0  0  0  0  0  0
  -24.8799  -27.6003   19.5041 C   0  0  0  0  0  0
  -23.6758  -29.7739   20.1481 C   0  0  0  0  0  0
  -25.4092  -36.2975   24.0337 C   0  0  1  0  0  0
  -20.5915  -28.3785   23.1211 C   0  0  2  0  0  0
  -20.6825  -26.9496   22.5395 C   0  0  0  0  0  0
  -19.5806  -26.6397   21.5205 C   0  0  0  0  0  0
  -18.1961  -26.7956   22.1578 C   0  0  0  0  0  0
  -19.1561  -28.8918   23.2819 C   0  0  0  0  0  0
  -18.9496  -30.1503   23.8861 C   0  0  0  0  0  0
  -17.6503  -30.6614   24.0581 C   0  0  0  0  0  0
  -25.9106  -34.9399   23.5019 C   0  0  0  0  0  0
  -16.5397  -29.9115   23.6370 C   0  0  0  0  0  0
  -16.7307  -28.6569   23.0325 C   0  0  0  0  0  0
  -26.4561  -31.6503   25.0626 C   0  0  0  0  0  0
  -25.3711  -31.3727   26.1311 C   0  0  0  0  0  0
  -27.0446  -30.2886   24.6215 C   0  0  0  0  0  0
  -27.6119  -32.4259   25.7407 C   0  0  0  0  0  0
  -27.5601  -37.1686   24.8439 C   0  0  0  0  0  0
  -21.4254  -29.3108   22.3587 N   0  0  0  0  0  0
  -26.4198  -37.3756   23.9539 N   0  0  0  0  0  0
  -24.7211  -31.0259   22.0800 N   0  0  0  0  0  0
  -23.4186  -28.8162   23.3046 O   0  0  0  0  0  0
  -28.2884  -26.1434   20.2148 O   0  0  0  0  0  0
  -26.5651  -34.8954   22.4570 O   0  0  0  0  0  0
  -23.5610  -32.1289   23.6977 O   0  0  0  0  0  0
  -28.9926  -18.9799   21.2397 C   0  0  0  0  0  0
  -30.4003  -18.5131   19.7268 C   0  0  0  0  0  0
  -29.3129  -20.2554   20.6683 C   0  0  0  0  0  0
  -29.2888  -16.1668   22.5207 C   0  0  0  0  0  0
  -27.7285  -21.7155   22.0569 C   0  0  0  0  0  0
  -30.1688  -22.1980   22.0605 C   0  0  0  0  0  0
  -28.7373  -23.1949   20.1948 C   0  0  0  0  0  0
  -28.1114  -24.6834   20.7450 C   0  0  0  0  0  0
  -29.5576  -16.2819   21.0012 C   0  0  1  0  0  0
  -28.9797  -21.8148   21.1594 C   0  0  0  0  0  0
  -30.2631  -19.8715   19.7011 N   0  0  0  0  0  0
  -29.6967  -17.8375   20.6618 N   0  0  0  0  0  0
  -31.4962  -12.7925   19.2018 H   0  0  0  0  0  0
  -30.4849  -11.6363   20.0127 H   0  0  0  0  0  0
  -29.8725  -11.7678   17.5834 H   0  0  0  0  0  0
  -29.6119  -13.4886   17.7184 H   0  0  0  0  0  0
  -27.9932  -11.2628   18.9951 H   0  0  0  0  0  0
  -27.4053  -12.4151   17.8247 H   0  0  0  0  0  0
  -27.6195  -14.2349   19.4345 H   0  0  0  0  0  0
  -28.7745  -12.1887   21.3884 H   0  0  0  0  0  0
  -28.3326  -13.8078   21.8136 H   0  0  0  0  0  0
  -25.2756   -9.5648   22.4757 H   0  0  0  0  0  0
  -23.9963   -7.4622   22.7509 H   0  0  0  0  0  0
  -21.0806   -8.8736   19.8963 H   0  0  0  0  0  0
  -22.3681  -10.9632   19.6143 H   0  0  0  0  0  0
  -21.2017   -7.6143   23.9686 H   0  0  0  0  0  0
  -21.1465   -6.0531   25.9055 H   0  0  0  0  0  0
  -22.0614   -2.7601   23.2856 H   0  0  0  0  0  0
  -22.4096  -11.9871   22.4792 H   0  0  0  0  0  0
  -21.1092  -13.1243   22.2593 H   0  0  0  0  0  0
  -24.6368  -15.8261   20.4920 H   0  0  0  0  0  0
  -26.2486  -15.6234   20.0295 H   0  0  0  0  0  0
  -26.7359  -32.5240   23.0875 H   0  0  0  0  0  0
  -25.0403  -33.9534   25.0403 H   0  0  0  0  0  0
  -22.7622  -31.2902   21.3624 H   0  0  0  0  0  0
  -23.3813  -35.9481   23.3112 H   0  0  0  0  0  0
  -24.3628  -36.8959   22.2078 H   0  0  0  0  0  0
  -23.7135  -37.6325   23.6729 H   0  0  0  0  0  0
  -26.1522  -31.4384   20.5806 H   0  0  0  0  0  0
  -26.8782  -30.7574   22.0083 H   0  0  0  0  0  0
  -28.1278  -28.7889   21.2599 H   0  0  0  0  0  0
  -25.9507  -25.7966   19.0573 H   0  0  0  0  0  0
  -23.9828  -27.2438   19.0179 H   0  0  0  0  0  0
  -23.8267  -30.5432   19.3888 H   0  0  0  0  0  0
  -22.7854  -29.2283   19.8315 H   0  0  0  0  0  0
  -25.1209  -36.1729   25.0809 H   0  0  0  0  0  0
  -21.0015  -28.3387   24.1332 H   0  0  0  0  0  0
  -20.5758  -26.2427   23.3620 H   0  0  0  0  0  0
  -21.6692  -26.7530   22.1196 H   0  0  0  0  0  0
  -19.7033  -25.6296   21.1286 H   0  0  0  0  0  0
  -19.6750  -27.3207   20.6724 H   0  0  0  0  0  0
  -17.4257  -26.6716   21.3958 H   0  0  0  0  0  0
  -18.0354  -26.0072   22.8946 H   0  0  0  0  0  0
  -19.8013  -30.7318   24.2181 H   0  0  0  0  0  0
  -17.5101  -31.6294   24.5213 H   0  0  0  0  0  0
  -15.5424  -30.3036   23.7730 H   0  0  0  0  0  0
  -15.8687  -28.0929   22.7009 H   0  0  0  0  0  0
  -24.6075  -30.6813   25.7675 H   0  0  0  0  0  0
  -24.8705  -32.2927   26.4387 H   0  0  0  0  0  0
  -25.7993  -30.9222   27.0275 H   0  0  0  0  0  0
  -26.3059  -29.6574   24.1245 H   0  0  0  0  0  0
  -27.4108  -29.7195   25.4772 H   0  0  0  0  0  0
  -27.8932  -30.4110   23.9467 H   0  0  0  0  0  0
  -27.2773  -33.3689   26.1728 H   0  0  0  0  0  0
  -28.4038  -32.6537   25.0263 H   0  0  0  0  0  0
  -28.0616  -31.8507   26.5497 H   0  0  0  0  0  0
  -28.2368  -38.0224   24.7833 H   0  0  0  0  0  0
  -28.1317  -36.2801   24.5732 H   0  0  0  0  0  0
  -27.2446  -37.0677   25.8841 H   0  0  0  0  0  0
  -20.9498  -29.8810   21.6719 H   0  0  0  0  0  0
  -26.0027  -38.2757   24.1752 H   0  0  0  0  0  0
  -28.3246  -18.7984   22.0713 H   0  0  0  0  0  0
  -31.0602  -17.9906   19.0482 H   0  0  0  0  0  0
  -28.2264  -16.3060   22.7281 H   0  0  0  0  0  0
  -29.8328  -16.9157   23.0921 H   0  0  0  0  0  0
  -29.5703  -15.2003   22.9384 H   0  0  0  0  0  0
  -27.8627  -20.9700   22.8428 H   0  0  0  0  0  0
  -26.8533  -21.4279   21.4726 H   0  0  0  0  0  0
  -27.4990  -22.6510   22.5645 H   0  0  0  0  0  0
  -30.3406  -21.4574   22.8406 H   0  0  0  0  0  0
  -30.0283  -23.1578   22.5579 H   0  0  0  0  0  0
  -31.0828  -22.2706   21.4680 H   0  0  0  0  0  0
  -29.6964  -23.4157   19.7288 H   0  0  0  0  0  0
  -28.0997  -22.8890   19.3650 H   0  0  0  0  0  0
  -28.4717  -24.7743   21.7704 H   0  0  0  0  0  0
  -27.0413  -24.5168   20.8727 H   0  0  0  0  0  0
  -28.6141  -16.0368   20.5197 H   0  0  0  0  0  0
  1 25  1  0  0  0
  1 30  2  0  0  0
  1 79  1  0  0  0
  2  3  1  0  0  0
  2 25  1  0  0  0
  2 83  1  0  0  0
  2 84  1  0  0  0
  3  4  1  0  0  0
  3 85  1  0  0  0
  3 86  1  0  0  0
  4  5  1  0  0  0
  4 87  1  0  0  0
  4 88  1  0  0  0
  5  6  1  0  0  0
  5 26  1  0  0  0
  5 89  1  0  0  0
  6 25  1  0  0  0
  6 90  1  0  0  0
  6 91  1  0  0  0
  7  8  2  0  0  0
  7 26  1  0  0  0
  7 29  1  0  0  0
  8  9  1  0  0  0
  8 22  1  0  0  0
  9 10  1  0  0  0
  9 27  2  0  0  0
 10 11  2  0  0  0
 10 15  1  0  0  0
 11 12  1  0  0  0
 11 92  1  0  0  0
 12 13  2  0  0  0
 12 93  1  0  0  0
 13 14  1  0  0  0
 13 31  1  0  0  0
 14 15  2  0  0  0
 14 94  1  0  0  0
 15 95  1  0  0  0
 16 17  2  0  0  0
 16 21  1  0  0  0
 16 31  1  0  0  0
 17 18  1  0  0  0
 17 96  1  0  0  0
 18 19  2  0  0  0
 18 97  1  0  0  0
 19 20  1  0  0  0
 19 24  1  0  0  0
 20 21  2  0  0  0
 20 98  1  0  0  0
 21 23  1  0  0  0
 22 28  1  0  0  0
 22 32  2  0  0  0
 26 27  1  0  0  0
 28 99  1  0  0  0
 28100  1  0  0  0
 29101  1  0  0  0
 29102  1  0  0  0
 33 34  1  0  0  0
 33 66  1  0  0  0
 33 70  2  0  0  0
 34 36  1  0  0  0
 34 59  1  0  0  0
 34103  1  0  0  0
 35 44  2  0  0  0
 35 45  1  0  0  0
 35 68  1  0  0  0
 36 56  1  0  0  0
 36104  1  0  0  0
 37 39  1  0  0  0
 37 47  1  0  0  0
 37 66  1  0  0  0
 37105  1  0  0  0
 38 43  2  0  0  0
 38 46  1  0  0  0
 38 47  1  0  0  0
 39 64  1  0  0  0
 39 67  2  0  0  0
 40 52  1  0  0  0
 40 53  2  0  0  0
 40 58  1  0  0  0
 41106  1  0  0  0
 41107  1  0  0  0
 41108  1  0  0  0
 41 48  1  0  0  0
 42 43  1  0  0  0
 42 66  1  0  0  0
 42109  1  0  0  0
 42110  1  0  0  0
 43 44  1  0  0  0
 44111  1  0  0  0
 45 46  2  0  0  0
 45112  1  0  0  0
 46113  1  0  0  0
 47114  1  0  0  0
 47115  1  0  0  0
 48 56  1  0  0  0
 48 65  1  0  0  0
 48116  1  0  0  0
 49 50  1  0  0  0
 49 53  1  0  0  0
 49 64  1  0  0  0
 49117  1  0  0  0
 50 51  1  0  0  0
 50118  1  0  0  0
 50119  1  0  0  0
 51 52  1  0  0  0
 51120  1  0  0  0
 51121  1  0  0  0
 52122  1  0  0  0
 52123  1  0  0  0
 53 54  1  0  0  0
 54 55  2  0  0  0
 54124  1  0  0  0
 55 57  1  0  0  0
 55125  1  0  0  0
 56 69  2  0  0  0
 57 58  2  0  0  0
 57126  1  0  0  0
 58127  1  0  0  0
 59 60  1  0  0  0
 59 61  1  0  0  0
 59 62  1  0  0  0
 60128  1  0  0  0
 60129  1  0  0  0
 60130  1  0  0  0
 61131  1  0  0  0
 61132  1  0  0  0
 61133  1  0  0  0
 62134  1  0  0  0
 62135  1  0  0  0
 62136  1  0  0  0
 63 65  1  0  0  0
 63137  1  0  0  0
 63138  1  0  0  0
 63139  1  0  0  0
 64140  1  0  0  0
 65141  1  0  0  0
 68 78  1  0  0  0
 71 73  2  0  0  0
 71 82  1  0  0  0
 71142  1  0  0  0
 72 81  2  0  0  0
 72 82  1  0  0  0
 72143  1  0  0  0
 73 80  1  0  0  0
 73 81  1  0  0  0
 74144  1  0  0  0
 74145  1  0  0  0
 74146  1  0  0  0
 74 79  1  0  0  0
 75147  1  0  0  0
 75148  1  0  0  0
 75149  1  0  0  0
 75 80  1  0  0  0
 76 80  1  0  0  0
 76150  1  0  0  0
 76151  1  0  0  0
 76152  1  0  0  0
 77 78  1  0  0  0
 77 80  1  0  0  0
 77153  1  0  0  0
 77154  1  0  0  0
 78155  1  0  0  0
 78156  1  0  0  0
 79 82  1  0  0  0
 79157  1  0  0  0
M  ISO  4   1 100  68 101  78 101  79 100
M  END
> <chiral flag>
0

> <version>
0

> <s_m_source_file>
/data/baiqing/PycharmProjects/Reinvent-master-3.2/result/LINK_invent/BTK/process_docking_weight1_custom_sum_contain_oxygen_bond_distance_aromatic_linkinvent_7_9_3/rearranged_h_0059.sdf

> <i_m_source_file_index>
45

> <r_mmod_Potential_Energy-OPLS-2005>
575.080322265625

> <r_mmod_Stretch_Energy-OPLS-2005>
290.191711425781

> <r_mmod_Bend_Energy-OPLS-2005>
303.633605957031

> <r_mmod_Torsional_Energy-OPLS-2005>
225.282196044922

> <r_mmod_Improper_Torsional_Energy-OPLS-2005>
3.98491907119751

> <r_mmod_Van_der_Waal_Energy-OPLS-2005>
108.205032348633

> <r_mmod_Electrostatic_Energy-OPLS-2005>
-352.407287597656

> <r_mmod_Solvation_Energy-OPLS-2005>
-209.02897644043

> <b_mmod_Minimization_Converged-OPLS-2005>
0

> <r_mmod_RMS_Derivative-OPLS-2005>
4.85643720626831

$$$$
45
                    3D
 Structure written by MMmdl.
153161  0  0  1  0            999 V2000
  -30.5329  -15.0421   20.4548 C   0  0  0  0  0  0
  -30.4529  -12.6665   19.5040 C   0  0  0  0  0  0
  -29.5238  -12.5533   18.2675 C   0  0  0  0  0  0
  -28.0618  -12.3155   18.6886 C   0  0  0  0  0  0
  -27.6361  -13.2440   19.8522 C   0  0  2  0  0  0
  -28.6849  -13.2397   20.9821 C   0  0  0  0  0  0
  -25.2465  -13.8192   20.5676 C   0  0  0  0  0  0
  -24.1790  -13.0423   20.9208 C   0  0  0  0  0  0
  -24.6408  -11.6914   20.8770 C   0  0  0  0  0  0
  -23.9089  -10.4298   21.0417 C   0  0  0  0  0  0
  -24.3646   -9.4209   21.9176 C   0  0  0  0  0  0
  -23.6310   -8.2258   22.0759 C   0  0  0  0  0  0
  -22.4279   -8.0304   21.3565 C   0  0  0  0  0  0
  -21.9933   -9.0275   20.4651 C   0  0  0  0  0  0
  -22.7278  -10.2140   20.3053 C   0  0  0  0  0  0
  -21.6853   -6.0744   22.5292 C   0  0  0  0  0  0
  -21.4004   -6.5638   23.8222 C   0  0  0  0  0  0
  -21.3659   -5.6790   24.9175 C   0  0  0  0  0  0
  -21.6052   -4.3062   24.7229 C   0  0  0  0  0  0
  -21.8814   -3.8155   23.4347 C   0  0  0  0  0  0
  -21.9190   -4.6971   22.3406 C   0  0  0  0  0  0
  -22.7816  -13.5206   21.1850 C   0  0  0  0  0  0
  -22.1661   -4.2164   21.0988 F   0  0  0  0  0  0
  -21.5635   -3.4538   25.7736 F   0  0  0  0  0  0
  -29.9407  -13.7577   20.3986 N   0  0  0  0  0  0
  -26.2924  -12.9425   20.3323 N   0  0  0  0  0  0
  -25.9351  -11.6563   20.5807 N   0  0  0  0  0  0
  -22.0483  -12.8205   22.0421 N   0  0  0  0  0  0
  -25.4059  -15.1916   20.3983 N   0  0  0  0  0  0
  -31.7081  -15.0873   20.0674 O   0  0  0  0  0  0
  -21.6641   -6.8897   21.4259 O   0  0  0  0  0  0
  -22.3510  -14.5529   20.6708 O   0  0  0  0  0  0
  -24.6480  -31.8424   23.1855 C   0  0  0  0  0  0
  -25.9214  -32.4694   23.8275 C   0  0  1  0  0  0
  -27.2226  -27.0990   20.1664 C   0  0  0  0  0  0
  -25.5929  -33.8505   24.2185 N   0  0  0  0  0  0
  -23.4560  -30.4591   21.5313 C   0  0  2  0  0  0
  -24.9106  -28.8846   20.1112 C   0  0  0  0  0  0
  -22.7620  -29.4525   22.4838 C   0  0  0  0  0  0
  -18.0314  -28.1434   22.8466 C   0  0  0  0  0  0
  -24.1489  -36.7267   23.2649 C   0  0  0  0  0  0
  -26.0146  -30.7025   21.3920 C   0  0  0  0  0  0
  -26.0882  -29.3095   20.7404 C   0  0  0  0  0  0
  -27.2431  -28.4339   20.7549 C   0  0  0  0  0  0
  -26.0254  -26.7980   19.4766 C   0  0  0  0  0  0
  -24.8949  -27.6410   19.4632 C   0  0  0  0  0  0
  -23.6891  -29.7902   20.1504 C   0  0  0  0  0  0
  -25.4120  -36.3034   24.0310 C   0  0  1  0  0  0
  -20.5941  -28.3758   23.1236 C   0  0  2  0  0  0
  -20.6810  -26.9465   22.5408 C   0  0  0  0  0  0
  -19.5776  -26.6402   21.5230 C   0  0  0  0  0  0
  -18.1948  -26.7969   22.1625 C   0  0  0  0  0  0
  -19.1583  -28.8903   23.2837 C   0  0  0  0  0  0
  -18.9508  -30.1487   23.8881 C   0  0  0  0  0  0
  -17.6505  -30.6622   24.0562 C   0  0  0  0  0  0
  -25.9087  -34.9408   23.5064 C   0  0  0  0  0  0
  -16.5390  -29.9120   23.6359 C   0  0  0  0  0  0
  -16.7300  -28.6543   23.0357 C   0  0  0  0  0  0
  -26.4526  -31.6590   25.0752 C   0  0  0  0  0  0
  -25.3669  -31.3778   26.1419 C   0  0  0  0  0  0
  -27.0411  -30.2982   24.6348 C   0  0  0  0  0  0
  -27.6081  -32.4346   25.7511 C   0  0  0  0  0  0
  -27.5564  -37.1763   24.8460 C   0  0  0  0  0  0
  -21.4299  -29.3063   22.3583 N   0  0  0  0  0  0
  -26.4267  -37.3753   23.9426 N   0  0  0  0  0  0
  -24.7268  -31.0239   22.0909 N   0  0  0  0  0  0
  -23.4234  -28.8073   23.3014 O   0  0  0  0  0  0
  -28.2521  -26.0740   20.2060 O   0  0  0  0  0  0
  -26.5702  -34.8892   22.4659 O   0  0  0  0  0  0
  -23.5586  -32.1300   23.7056 O   0  0  0  0  0  0
  -29.8587  -21.4459   19.4089 C   0  0  0  0  0  0
  -28.6755  -23.1311   20.3371 C   0  0  0  0  0  0
  -28.4963  -21.8586   20.9831 C   0  0  0  0  0  0
  -27.6195  -21.5891   22.1670 C   0  0  0  0  0  0
  -28.8396  -16.2594   21.7980 C   0  0  0  0  0  0
  -27.8630  -24.5826   20.5296 C   0  0  0  0  0  0
  -29.2096  -19.1839   20.7925 C   0  0  0  0  0  0
  -30.0581  -17.8045   20.2201 C   0  0  0  0  0  0
  -29.5842  -22.7813   19.3170 N   0  0  0  0  0  0
  -29.2294  -20.7418   20.3828 N   0  0  0  0  0  0
  -29.8055  -16.2794   20.6985 N   0  0  0  0  0  0
  -31.4737  -12.8569   19.1700 H   0  0  0  0  0  0
  -30.5051  -11.7190   20.0426 H   0  0  0  0  0  0
  -29.8643  -11.7468   17.6154 H   0  0  0  0  0  0
  -29.5809  -13.4704   17.6799 H   0  0  0  0  0  0
  -27.9731  -11.2745   19.0039 H   0  0  0  0  0  0
  -27.3918  -12.4330   17.8375 H   0  0  0  0  0  0
  -27.6063  -14.2526   19.4417 H   0  0  0  0  0  0
  -28.8208  -12.2305   21.3730 H   0  0  0  0  0  0
  -28.3366  -13.7985   21.8430 H   0  0  0  0  0  0
  -25.2797   -9.5668   22.4740 H   0  0  0  0  0  0
  -24.0005   -7.4649   22.7487 H   0  0  0  0  0  0
  -21.0863   -8.8822   19.8955 H   0  0  0  0  0  0
  -22.3770  -10.9683   19.6164 H   0  0  0  0  0  0
  -21.1987   -7.6144   23.9734 H   0  0  0  0  0  0
  -21.1482   -6.0511   25.9083 H   0  0  0  0  0  0
  -22.0589   -2.7619   23.2845 H   0  0  0  0  0  0
  -22.4135  -11.9870   22.4769 H   0  0  0  0  0  0
  -21.1113  -13.1240   22.2666 H   0  0  0  0  0  0
  -24.6247  -15.8304   20.4955 H   0  0  0  0  0  0
  -26.2388  -15.6357   20.0341 H   0  0  0  0  0  0
  -26.7286  -32.5305   23.1016 H   0  0  0  0  0  0
  -25.0020  -33.9628   25.0290 H   0  0  0  0  0  0
  -22.7624  -31.2872   21.3694 H   0  0  0  0  0  0
  -23.3758  -35.9582   23.3288 H   0  0  0  0  0  0
  -24.3593  -36.8955   22.2069 H   0  0  0  0  0  0
  -23.7216  -37.6425   23.6744 H   0  0  0  0  0  0
  -26.1682  -31.4499   20.6125 H   0  0  0  0  0  0
  -26.8858  -30.7655   22.0323 H   0  0  0  0  0  0
  -28.1321  -28.7513   21.2828 H   0  0  0  0  0  0
  -25.9367  -25.8663   18.9388 H   0  0  0  0  0  0
  -24.0040  -27.3215   18.9382 H   0  0  0  0  0  0
  -23.8332  -30.5660   19.3978 H   0  0  0  0  0  0
  -22.8072  -29.2338   19.8321 H   0  0  0  0  0  0
  -25.1285  -36.1851   25.0789 H   0  0  0  0  0  0
  -21.0015  -28.3381   24.1369 H   0  0  0  0  0  0
  -20.5765  -26.2371   23.3632 H   0  0  0  0  0  0
  -21.6665  -26.7513   22.1161 H   0  0  0  0  0  0
  -19.6964  -25.6317   21.1278 H   0  0  0  0  0  0
  -19.6721  -27.3210   20.6760 H   0  0  0  0  0  0
  -17.4225  -26.6729   21.4024 H   0  0  0  0  0  0
  -18.0307  -26.0119   22.9032 H   0  0  0  0  0  0
  -19.7992  -30.7262   24.2274 H   0  0  0  0  0  0
  -17.5082  -31.6301   24.5158 H   0  0  0  0  0  0
  -15.5403  -30.3007   23.7694 H   0  0  0  0  0  0
  -15.8712  -28.0850   22.7103 H   0  0  0  0  0  0
  -24.5888  -30.7111   25.7705 H   0  0  0  0  0  0
  -24.8798  -32.2928   26.4787 H   0  0  0  0  0  0
  -25.7882  -30.8984   27.0258 H   0  0  0  0  0  0
  -26.3049  -29.6672   24.1359 H   0  0  0  0  0  0
  -27.4032  -29.7314   25.4934 H   0  0  0  0  0  0
  -27.8937  -30.4252   23.9676 H   0  0  0  0  0  0
  -27.2779  -33.3750   26.1925 H   0  0  0  0  0  0
  -28.3944  -32.6708   25.0339 H   0  0  0  0  0  0
  -28.0641  -31.8529   26.5528 H   0  0  0  0  0  0
  -28.2530  -38.0108   24.7539 H   0  0  0  0  0  0
  -28.1093  -36.2622   24.6235 H   0  0  0  0  0  0
  -27.2288  -37.1351   25.8862 H   0  0  0  0  0  0
  -20.9548  -29.8786   21.6754 H   0  0  0  0  0  0
  -26.0136  -38.2804   24.1468 H   0  0  0  0  0  0
  -30.5362  -20.9652   18.7169 H   0  0  0  0  0  0
  -27.2223  -22.5100   22.5916 H   0  0  0  0  0  0
  -28.1792  -21.0868   22.9589 H   0  0  0  0  0  0
  -26.7755  -20.9536   21.8986 H   0  0  0  0  0  0
  -27.8654  -15.9321   21.4387 H   0  0  0  0  0  0
  -28.6911  -17.2155   22.2877 H   0  0  0  0  0  0
  -29.1769  -15.6044   22.6031 H   0  0  0  0  0  0
  -27.5923  -24.6398   21.5852 H   0  0  0  0  0  0
  -26.9068  -24.3982   20.0496 H   0  0  0  0  0  0
  -29.4136  -19.2098   21.8610 H   0  0  0  0  0  0
  -28.1577  -18.9116   20.7165 H   0  0  0  0  0  0
  -31.1209  -17.9968   20.3749 H   0  0  0  0  0  0
  -29.9395  -17.7915   19.1358 H   0  0  0  0  0  0
  1 25  1  0  0  0
  1 30  2  0  0  0
  1 81  1  0  0  0
  2  3  1  0  0  0
  2 25  1  0  0  0
  2 82  1  0  0  0
  2 83  1  0  0  0
  3  4  1  0  0  0
  3 84  1  0  0  0
  3 85  1  0  0  0
  4  5  1  0  0  0
  4 86  1  0  0  0
  4 87  1  0  0  0
  5  6  1  0  0  0
  5 26  1  0  0  0
  5 88  1  0  0  0
  6 25  1  0  0  0
  6 89  1  0  0  0
  6 90  1  0  0  0
  7  8  2  0  0  0
  7 26  1  0  0  0
  7 29  1  0  0  0
  8  9  1  0  0  0
  8 22  1  0  0  0
  9 10  1  0  0  0
  9 27  2  0  0  0
 10 11  2  0  0  0
 10 15  1  0  0  0
 11 12  1  0  0  0
 11 91  1  0  0  0
 12 13  2  0  0  0
 12 92  1  0  0  0
 13 14  1  0  0  0
 13 31  1  0  0  0
 14 15  2  0  0  0
 14 93  1  0  0  0
 15 94  1  0  0  0
 16 17  2  0  0  0
 16 21  1  0  0  0
 16 31  1  0  0  0
 17 18  1  0  0  0
 17 95  1  0  0  0
 18 19  2  0  0  0
 18 96  1  0  0  0
 19 20  1  0  0  0
 19 24  1  0  0  0
 20 21  2  0  0  0
 20 97  1  0  0  0
 21 23  1  0  0  0
 22 28  1  0  0  0
 22 32  2  0  0  0
 26 27  1  0  0  0
 28 98  1  0  0  0
 28 99  1  0  0  0
 29100  1  0  0  0
 29101  1  0  0  0
 33 34  1  0  0  0
 33 66  1  0  0  0
 33 70  2  0  0  0
 34 36  1  0  0  0
 34 59  1  0  0  0
 34102  1  0  0  0
 35 44  2  0  0  0
 35 45  1  0  0  0
 35 68  1  0  0  0
 36 56  1  0  0  0
 36103  1  0  0  0
 37 39  1  0  0  0
 37 47  1  0  0  0
 37 66  1  0  0  0
 37104  1  0  0  0
 38 43  2  0  0  0
 38 46  1  0  0  0
 38 47  1  0  0  0
 39 64  1  0  0  0
 39 67  2  0  0  0
 40 52  1  0  0  0
 40 53  2  0  0  0
 40 58  1  0  0  0
 41105  1  0  0  0
 41106  1  0  0  0
 41107  1  0  0  0
 41 48  1  0  0  0
 42 43  1  0  0  0
 42 66  1  0  0  0
 42108  1  0  0  0
 42109  1  0  0  0
 43 44  1  0  0  0
 44110  1  0  0  0
 45 46  2  0  0  0
 45111  1  0  0  0
 46112  1  0  0  0
 47113  1  0  0  0
 47114  1  0  0  0
 48 56  1  0  0  0
 48 65  1  0  0  0
 48115  1  0  0  0
 49 50  1  0  0  0
 49 53  1  0  0  0
 49 64  1  0  0  0
 49116  1  0  0  0
 50 51  1  0  0  0
 50117  1  0  0  0
 50118  1  0  0  0
 51 52  1  0  0  0
 51119  1  0  0  0
 51120  1  0  0  0
 52121  1  0  0  0
 52122  1  0  0  0
 53 54  1  0  0  0
 54 55  2  0  0  0
 54123  1  0  0  0
 55 57  1  0  0  0
 55124  1  0  0  0
 56 69  2  0  0  0
 57 58  2  0  0  0
 57125  1  0  0  0
 58126  1  0  0  0
 59 60  1  0  0  0
 59 61  1  0  0  0
 59 62  1  0  0  0
 60127  1  0  0  0
 60128  1  0  0  0
 60129  1  0  0  0
 61130  1  0  0  0
 61131  1  0  0  0
 61132  1  0  0  0
 62133  1  0  0  0
 62134  1  0  0  0
 62135  1  0  0  0
 63 65  1  0  0  0
 63136  1  0  0  0
 63137  1  0  0  0
 63138  1  0  0  0
 64139  1  0  0  0
 65140  1  0  0  0
 68 76  1  0  0  0
 71 79  2  0  0  0
 71 80  1  0  0  0
 71141  1  0  0  0
 72 73  2  0  0  0
 72 76  1  0  0  0
 72 79  1  0  0  0
 73 74  1  0  0  0
 73 80  1  0  0  0
 74142  1  0  0  0
 74143  1  0  0  0
 74144  1  0  0  0
 75 81  1  0  0  0
 75145  1  0  0  0
 75146  1  0  0  0
 75147  1  0  0  0
 76148  1  0  0  0
 76149  1  0  0  0
 77 78  1  0  0  0
 77 80  1  0  0  0
 77150  1  0  0  0
 77151  1  0  0  0
 78 81  1  0  0  0
 78152  1  0  0  0
 78153  1  0  0  0
M  ISO  4   1 100  68 101  76 101  81 100
M  END
> <chiral flag>
0

> <version>
0

> <s_m_source_file>
/data/baiqing/PycharmProjects/Reinvent-master-3.2/result/LINK_invent/BTK/process_docking_weight1_custom_sum_contain_oxygen_bond_distance_aromatic_linkinvent_7_9_3/rearranged_h_0059.sdf

> <i_m_source_file_index>
46

> <r_mmod_Potential_Energy-OPLS-2005>
822.711608886719

> <r_mmod_Stretch_Energy-OPLS-2005>
326.088195800781

> <r_mmod_Bend_Energy-OPLS-2005>
326.34326171875

> <r_mmod_Torsional_Energy-OPLS-2005>
288.624114990234

> <r_mmod_Improper_Torsional_Energy-OPLS-2005>
6.75227880477905

> <r_mmod_Van_der_Waal_Energy-OPLS-2005>
125.404373168945

> <r_mmod_Electrostatic_Energy-OPLS-2005>
-258.804321289062

> <r_mmod_Solvation_Energy-OPLS-2005>
-229.328308105469

> <b_mmod_Minimization_Converged-OPLS-2005>
0

> <r_mmod_RMS_Derivative-OPLS-2005>
3.65553975105286

$$$$
46
                    3D
 Structure written by MMmdl.
169177  0  0  1  0            999 V2000
  -30.5958  -14.7026   20.5805 C   0  0  0  0  0  0
  -30.4376  -12.4761   19.4213 C   0  0  0  0  0  0
  -29.4732  -12.5550   18.2099 C   0  0  0  0  0  0
  -27.9886  -12.4151   18.6033 C   0  0  0  0  0  0
  -27.6418  -13.2208   19.8774 C   0  0  2  0  0  0
  -28.7002  -12.9647   20.9659 C   0  0  0  0  0  0
  -25.2486  -13.8222   20.5685 C   0  0  0  0  0  0
  -24.1800  -13.0532   20.9233 C   0  0  0  0  0  0
  -24.6367  -11.6957   20.8872 C   0  0  0  0  0  0
  -23.9069  -10.4325   21.0544 C   0  0  0  0  0  0
  -24.3623   -9.4202   21.9292 C   0  0  0  0  0  0
  -23.6280   -8.2252   22.0814 C   0  0  0  0  0  0
  -22.4259   -8.0312   21.3589 C   0  0  0  0  0  0
  -21.9890   -9.0316   20.4755 C   0  0  0  0  0  0
  -22.7243  -10.2189   20.3209 C   0  0  0  0  0  0
  -21.6819   -6.0779   22.5293 C   0  0  0  0  0  0
  -21.4003   -6.5717   23.8233 C   0  0  0  0  0  0
  -21.3643   -5.6889   24.9200 C   0  0  0  0  0  0
  -21.6000   -4.3129   24.7252 C   0  0  0  0  0  0
  -21.8787   -3.8214   23.4393 C   0  0  0  0  0  0
  -21.9157   -4.7019   22.3428 C   0  0  0  0  0  0
  -22.7821  -13.5338   21.1884 C   0  0  0  0  0  0
  -22.1636   -4.2215   21.0995 F   0  0  0  0  0  0
  -21.5583   -3.4608   25.7757 F   0  0  0  0  0  0
  -29.9865  -13.4608   20.4452 N   0  0  0  0  0  0
  -26.2929  -12.9422   20.3422 N   0  0  0  0  0  0
  -25.9298  -11.6568   20.5897 N   0  0  0  0  0  0
  -22.0389  -12.8403   22.0424 N   0  0  0  0  0  0
  -25.4196  -15.1974   20.3964 N   0  0  0  0  0  0
  -31.7154  -14.8269   20.0694 O   0  0  0  0  0  0
  -21.6626   -6.8921   21.4249 O   0  0  0  0  0  0
  -22.3503  -14.5638   20.6709 O   0  0  0  0  0  0
  -24.6367  -31.8554   23.2181 C   0  0  0  0  0  0
  -25.9158  -32.4801   23.8503 C   0  0  1  0  0  0
  -27.1672  -27.2567   20.0789 C   0  0  0  0  0  0
  -25.5948  -33.8605   24.2438 N   0  0  0  0  0  0
  -23.4295  -30.4918   21.5608 C   0  0  2  0  0  0
  -24.8570  -28.9537   20.0998 C   0  0  0  0  0  0
  -22.7516  -29.4568   22.4949 C   0  0  0  0  0  0
  -18.0282  -28.1436   22.8444 C   0  0  0  0  0  0
  -24.1468  -36.7342   23.2653 C   0  0  0  0  0  0
  -25.9734  -30.7545   21.3987 C   0  0  0  0  0  0
  -26.0240  -29.3752   20.7456 C   0  0  0  0  0  0
  -27.1795  -28.5269   20.7477 C   0  0  0  0  0  0
  -26.0102  -26.9464   19.3391 C   0  0  0  0  0  0
  -24.8529  -27.7455   19.3870 C   0  0  0  0  0  0
  -23.6446  -29.8643   20.1611 C   0  0  0  0  0  0
  -25.4084  -36.3135   24.0390 C   0  0  1  0  0  0
  -20.5883  -28.3696   23.1298 C   0  0  2  0  0  0
  -20.6780  -26.9434   22.5411 C   0  0  0  0  0  0
  -19.5790  -26.6426   21.5195 C   0  0  0  0  0  0
  -18.1954  -26.7963   22.1597 C   0  0  0  0  0  0
  -19.1533  -28.8880   23.2857 C   0  0  0  0  0  0
  -18.9435  -30.1468   23.8926 C   0  0  0  0  0  0
  -17.6413  -30.6591   24.0586 C   0  0  0  0  0  0
  -25.9020  -34.9475   23.5224 C   0  0  0  0  0  0
  -16.5328  -29.9104   23.6347 C   0  0  0  0  0  0
  -16.7261  -28.6529   23.0327 C   0  0  0  0  0  0
  -26.4552  -31.6605   25.0875 C   0  0  0  0  0  0
  -25.3905  -31.3559   26.1689 C   0  0  0  0  0  0
  -27.0304  -30.3044   24.6227 C   0  0  0  0  0  0
  -27.6190  -32.4262   25.7616 C   0  0  0  0  0  0
  -27.5594  -37.1870   24.8485 C   0  0  0  0  0  0
  -21.4217  -29.3047   22.3685 N   0  0  0  0  0  0
  -26.4282  -37.3829   23.9458 N   0  0  0  0  0  0
  -24.6993  -31.0554   22.1163 N   0  0  0  0  0  0
  -23.4182  -28.8060   23.3043 O   0  0  0  0  0  0
  -28.2152  -26.3107   20.1386 O   0  0  0  0  0  0
  -26.5559  -34.8936   22.4773 O   0  0  0  0  0  0
  -23.5505  -32.1332   23.7502 O   0  0  0  0  0  0
  -29.5030  -17.5307   19.0694 C   0  0  0  0  0  0
  -29.7582  -17.3452   20.4661 C   0  0  0  0  0  0
  -29.3195  -18.8847   18.8600 C   0  0  0  0  0  0
  -29.1499  -19.5582   17.5224 C   0  0  0  0  0  0
  -28.5733  -24.0705   22.1364 C   0  0  0  0  0  0
  -28.7328  -15.8077   22.1658 C   0  0  0  0  0  0
  -31.1139  -16.3657   22.4003 C   0  0  0  0  0  0
  -27.5136  -21.9870   19.0188 C   0  0  0  0  0  0
  -27.1411  -21.6589   21.4070 C   0  0  0  0  0  0
  -29.4465  -21.0294   20.4788 C   0  0  0  0  0  0
  -27.8958  -24.8566   19.8573 C   0  0  0  0  0  0
  -28.6557  -23.6671   20.6411 C   0  0  1  0  0  0
  -30.0219  -16.0315   21.3420 C   0  0  0  0  0  0
  -28.2226  -22.0983   20.3822 C   0  0  0  0  0  0
  -29.6300  -18.5714   21.0453 N   0  0  0  0  0  0
  -29.3692  -19.5458   20.0982 N   0  0  0  0  0  0
  -31.4527  -12.6772   19.0680 H   0  0  0  0  0  0
  -30.4649  -11.4660   19.8311 H   0  0  0  0  0  0
  -29.7281  -11.8050   17.4625 H   0  0  0  0  0  0
  -29.6107  -13.5219   17.7230 H   0  0  0  0  0  0
  -27.7553  -11.3613   18.7414 H   0  0  0  0  0  0
  -27.3560  -12.7594   17.7804 H   0  0  0  0  0  0
  -27.6813  -14.2746   19.6082 H   0  0  0  0  0  0
  -28.7563  -11.8873   21.1368 H   0  0  0  0  0  0
  -28.4175  -13.3330   21.9408 H   0  0  0  0  0  0
  -25.2737   -9.5660   22.4920 H   0  0  0  0  0  0
  -23.9962   -7.4629   22.7530 H   0  0  0  0  0  0
  -21.0795   -8.8906   19.9085 H   0  0  0  0  0  0
  -22.3685  -10.9801   19.6411 H   0  0  0  0  0  0
  -21.2029   -7.6240   23.9739 H   0  0  0  0  0  0
  -21.1485   -6.0644   25.9095 H   0  0  0  0  0  0
  -22.0562   -2.7677   23.2888 H   0  0  0  0  0  0
  -22.3847  -11.9977   22.4786 H   0  0  0  0  0  0
  -21.1123  -13.1706   22.2786 H   0  0  0  0  0  0
  -24.6699  -15.8707   20.5070 H   0  0  0  0  0  0
  -26.2837  -15.6145   20.0735 H   0  0  0  0  0  0
  -26.7238  -32.5457   23.1242 H   0  0  0  0  0  0
  -25.0121  -33.9749   25.0600 H   0  0  0  0  0  0
  -22.7273  -31.3186   21.4450 H   0  0  0  0  0  0
  -23.3738  -35.9662   23.3274 H   0  0  0  0  0  0
  -24.3546  -36.8981   22.2072 H   0  0  0  0  0  0
  -23.7201  -37.6554   23.6640 H   0  0  0  0  0  0
  -26.0894  -31.4944   20.6030 H   0  0  0  0  0  0
  -26.8648  -30.8149   22.0098 H   0  0  0  0  0  0
  -28.0604  -28.8163   21.2980 H   0  0  0  0  0  0
  -25.9967  -26.0790   18.6932 H   0  0  0  0  0  0
  -23.9734  -27.4562   18.8314 H   0  0  0  0  0  0
  -23.8128  -30.6710   19.4461 H   0  0  0  0  0  0
  -22.7449  -29.3443   19.8265 H   0  0  0  0  0  0
  -25.1215  -36.2025   25.0879 H   0  0  0  0  0  0
  -20.9971  -28.3287   24.1423 H   0  0  0  0  0  0
  -20.5707  -26.2299   23.3583 H   0  0  0  0  0  0
  -21.6641  -26.7487   22.1227 H   0  0  0  0  0  0
  -19.6956  -25.6337   21.1209 H   0  0  0  0  0  0
  -19.6805  -27.3245   20.6750 H   0  0  0  0  0  0
  -17.4242  -26.6685   21.3998 H   0  0  0  0  0  0
  -18.0384  -26.0122   22.9028 H   0  0  0  0  0  0
  -19.7894  -30.7264   24.2385 H   0  0  0  0  0  0
  -17.4983  -31.6303   24.5137 H   0  0  0  0  0  0
  -15.5330  -30.3015   23.7693 H   0  0  0  0  0  0
  -15.8660  -28.0898   22.7043 H   0  0  0  0  0  0
  -24.6244  -30.6655   25.8133 H   0  0  0  0  0  0
  -24.8884  -32.2557   26.5248 H   0  0  0  0  0  0
  -25.8434  -30.8821   27.0423 H   0  0  0  0  0  0
  -26.2764  -29.6917   24.1268 H   0  0  0  0  0  0
  -27.3998  -29.7185   25.4660 H   0  0  0  0  0  0
  -27.8683  -30.4364   23.9373 H   0  0  0  0  0  0
  -27.2942  -33.3633   26.2162 H   0  0  0  0  0  0
  -28.4033  -32.6695   25.0423 H   0  0  0  0  0  0
  -28.0823  -31.8375   26.5564 H   0  0  0  0  0  0
  -28.2615  -38.0177   24.7509 H   0  0  0  0  0  0
  -28.1089  -36.2707   24.6263 H   0  0  0  0  0  0
  -27.2335  -37.1490   25.8903 H   0  0  0  0  0  0
  -20.9380  -29.8905   21.7005 H   0  0  0  0  0  0
  -26.0169  -38.2909   24.1463 H   0  0  0  0  0  0
  -29.4927  -16.7820   18.2872 H   0  0  0  0  0  0
  -29.3559  -20.6260   17.5615 H   0  0  0  0  0  0
  -28.1416  -19.4071   17.1261 H   0  0  0  0  0  0
  -29.8330  -19.1427   16.7801 H   0  0  0  0  0  0
  -29.0075  -25.0559   22.3117 H   0  0  0  0  0  0
  -29.0741  -23.3763   22.8119 H   0  0  0  0  0  0
  -27.5291  -24.1556   22.4498 H   0  0  0  0  0  0
  -27.8879  -15.5278   21.5436 H   0  0  0  0  0  0
  -28.4213  -16.7128   22.6939 H   0  0  0  0  0  0
  -28.8844  -15.0742   22.9531 H   0  0  0  0  0  0
  -32.0073  -16.7874   21.9361 H   0  0  0  0  0  0
  -31.4222  -15.4806   22.9685 H   0  0  0  0  0  0
  -30.7659  -17.0941   23.1318 H   0  0  0  0  0  0
  -27.2752  -20.9528   18.7821 H   0  0  0  0  0  0
  -28.1103  -22.3978   18.2056 H   0  0  0  0  0  0
  -26.5602  -22.5193   19.0205 H   0  0  0  0  0  0
  -26.7524  -20.6664   21.1802 H   0  0  0  0  0  0
  -26.2814  -22.3318   21.3804 H   0  0  0  0  0  0
  -27.5049  -21.6384   22.4338 H   0  0  0  0  0  0
  -29.7850  -21.0456   21.5187 H   0  0  0  0  0  0
  -30.2916  -21.4377   19.9280 H   0  0  0  0  0  0
  -26.8429  -24.6498   20.0826 H   0  0  0  0  0  0
  -28.0018  -24.7058   18.7742 H   0  0  0  0  0  0
  -29.7048  -23.7331   20.3502 H   0  0  0  0  0  0
  1 25  1  0  0  0
  1 30  2  0  0  0
  1 83  1  0  0  0
  2  3  1  0  0  0
  2 25  1  0  0  0
  2 87  1  0  0  0
  2 88  1  0  0  0
  3  4  1  0  0  0
  3 89  1  0  0  0
  3 90  1  0  0  0
  4  5  1  0  0  0
  4 91  1  0  0  0
  4 92  1  0  0  0
  5  6  1  0  0  0
  5 26  1  0  0  0
  5 93  1  0  0  0
  6 25  1  0  0  0
  6 94  1  0  0  0
  6 95  1  0  0  0
  7  8  2  0  0  0
  7 26  1  0  0  0
  7 29  1  0  0  0
  8  9  1  0  0  0
  8 22  1  0  0  0
  9 10  1  0  0  0
  9 27  2  0  0  0
 10 11  2  0  0  0
 10 15  1  0  0  0
 11 12  1  0  0  0
 11 96  1  0  0  0
 12 13  2  0  0  0
 12 97  1  0  0  0
 13 14  1  0  0  0
 13 31  1  0  0  0
 14 15  2  0  0  0
 14 98  1  0  0  0
 15 99  1  0  0  0
 16 17  2  0  0  0
 16 21  1  0  0  0
 16 31  1  0  0  0
 17 18  1  0  0  0
 17100  1  0  0  0
 18 19  2  0  0  0
 18101  1  0  0  0
 19 20  1  0  0  0
 19 24  1  0  0  0
 20 21  2  0  0  0
 20102  1  0  0  0
 21 23  1  0  0  0
 22 28  1  0  0  0
 22 32  2  0  0  0
 26 27  1  0  0  0
 28103  1  0  0  0
 28104  1  0  0  0
 29105  1  0  0  0
 29106  1  0  0  0
 33 34  1  0  0  0
 33 66  1  0  0  0
 33 70  2  0  0  0
 34 36  1  0  0  0
 34 59  1  0  0  0
 34107  1  0  0  0
 35 44  2  0  0  0
 35 45  1  0  0  0
 35 68  1  0  0  0
 36 56  1  0  0  0
 36108  1  0  0  0
 37 39  1  0  0  0
 37 47  1  0  0  0
 37 66  1  0  0  0
 37109  1  0  0  0
 38 43  2  0  0  0
 38 46  1  0  0  0
 38 47  1  0  0  0
 39 64  1  0  0  0
 39 67  2  0  0  0
 40 52  1  0  0  0
 40 53  2  0  0  0
 40 58  1  0  0  0
 41110  1  0  0  0
 41111  1  0  0  0
 41112  1  0  0  0
 41 48  1  0  0  0
 42 43  1  0  0  0
 42 66  1  0  0  0
 42113  1  0  0  0
 42114  1  0  0  0
 43 44  1  0  0  0
 44115  1  0  0  0
 45 46  2  0  0  0
 45116  1  0  0  0
 46117  1  0  0  0
 47118  1  0  0  0
 47119  1  0  0  0
 48 56  1  0  0  0
 48 65  1  0  0  0
 48120  1  0  0  0
 49 50  1  0  0  0
 49 53  1  0  0  0
 49 64  1  0  0  0
 49121  1  0  0  0
 50 51  1  0  0  0
 50122  1  0  0  0
 50123  1  0  0  0
 51 52  1  0  0  0
 51124  1  0  0  0
 51125  1  0  0  0
 52126  1  0  0  0
 52127  1  0  0  0
 53 54  1  0  0  0
 54 55  2  0  0  0
 54128  1  0  0  0
 55 57  1  0  0  0
 55129  1  0  0  0
 56 69  2  0  0  0
 57 58  2  0  0  0
 57130  1  0  0  0
 58131  1  0  0  0
 59 60  1  0  0  0
 59 61  1  0  0  0
 59 62  1  0  0  0
 60132  1  0  0  0
 60133  1  0  0  0
 60134  1  0  0  0
 61135  1  0  0  0
 61136  1  0  0  0
 61137  1  0  0  0
 62138  1  0  0  0
 62139  1  0  0  0
 62140  1  0  0  0
 63 65  1  0  0  0
 63141  1  0  0  0
 63142  1  0  0  0
 63143  1  0  0  0
 64144  1  0  0  0
 65145  1  0  0  0
 68 81  1  0  0  0
 71 72  1  0  0  0
 71 73  2  0  0  0
 71146  1  0  0  0
 72 83  1  0  0  0
 72 85  2  0  0  0
 73 74  1  0  0  0
 73 86  1  0  0  0
 74147  1  0  0  0
 74148  1  0  0  0
 74149  1  0  0  0
 75150  1  0  0  0
 75151  1  0  0  0
 75152  1  0  0  0
 75 82  1  0  0  0
 76153  1  0  0  0
 76154  1  0  0  0
 76155  1  0  0  0
 76 83  1  0  0  0
 77 83  1  0  0  0
 77156  1  0  0  0
 77157  1  0  0  0
 77158  1  0  0  0
 78159  1  0  0  0
 78160  1  0  0  0
 78161  1  0  0  0
 78 84  1  0  0  0
 79 84  1  0  0  0
 79162  1  0  0  0
 79163  1  0  0  0
 79164  1  0  0  0
 80 84  1  0  0  0
 80 86  1  0  0  0
 80165  1  0  0  0
 80166  1  0  0  0
 81 82  1  0  0  0
 81167  1  0  0  0
 81168  1  0  0  0
 82 84  1  0  0  0
 82169  1  0  0  0
 85 86  1  0  0  0
M  ISO  4   1 100  68 101  81 101  83 100
M  END
> <chiral flag>
0

> <version>
0

> <s_m_source_file>
/data/baiqing/PycharmProjects/Reinvent-master-3.2/result/LINK_invent/BTK/process_docking_weight1_custom_sum_contain_oxygen_bond_distance_aromatic_linkinvent_7_9_3/rearranged_h_0059.sdf

> <i_m_source_file_index>
47

> <r_mmod_Potential_Energy-OPLS-2005>
330.177520751953

> <r_mmod_Stretch_Energy-OPLS-2005>
147.122055053711

> <r_mmod_Bend_Energy-OPLS-2005>
218.19841003418

> <r_mmod_Torsional_Energy-OPLS-2005>
217.528289794922

> <r_mmod_Improper_Torsional_Energy-OPLS-2005>
3.24779772758484

> <r_mmod_Van_der_Waal_Energy-OPLS-2005>
137.519775390625

> <r_mmod_Electrostatic_Energy-OPLS-2005>
-292.345001220703

> <r_mmod_Solvation_Energy-OPLS-2005>
-185.212936401367

> <b_mmod_Minimization_Converged-OPLS-2005>
0

> <r_mmod_RMS_Derivative-OPLS-2005>
10.213846206665

$$$$
47
                    3D
 Structure written by MMmdl.
160168  0  0  1  0            999 V2000
  -30.6477  -14.7083   20.5112 C   0  0  0  0  0  0
  -30.4252  -12.4387   19.4750 C   0  0  0  0  0  0
  -29.5187  -12.5273   18.2300 C   0  0  0  0  0  0
  -28.0397  -12.3604   18.6342 C   0  0  0  0  0  0
  -27.6484  -13.2372   19.8577 C   0  0  2  0  0  0
  -28.6917  -13.1463   20.9956 C   0  0  0  0  0  0
  -25.2536  -13.8196   20.5725 C   0  0  0  0  0  0
  -24.1838  -13.0433   20.9261 C   0  0  0  0  0  0
  -24.6444  -11.6916   20.8803 C   0  0  0  0  0  0
  -23.9129  -10.4278   21.0440 C   0  0  0  0  0  0
  -24.3691   -9.4212   21.9216 C   0  0  0  0  0  0
  -23.6391   -8.2214   22.0729 C   0  0  0  0  0  0
  -22.4376   -8.0235   21.3513 C   0  0  0  0  0  0
  -21.9998   -9.0208   20.4634 C   0  0  0  0  0  0
  -22.7314  -10.2095   20.3087 C   0  0  0  0  0  0
  -21.6884   -6.0728   22.5274 C   0  0  0  0  0  0
  -21.4034   -6.5635   23.8199 C   0  0  0  0  0  0
  -21.3669   -5.6772   24.9161 C   0  0  0  0  0  0
  -21.6047   -4.3027   24.7199 C   0  0  0  0  0  0
  -21.8852   -3.8134   23.4329 C   0  0  0  0  0  0
  -21.9223   -4.6951   22.3387 C   0  0  0  0  0  0
  -22.7837  -13.5171   21.1902 C   0  0  0  0  0  0
  -22.1691   -4.2151   21.0960 F   0  0  0  0  0  0
  -21.5647   -3.4511   25.7709 F   0  0  0  0  0  0
  -29.9997  -13.4912   20.4284 N   0  0  0  0  0  0
  -26.2977  -12.9430   20.3293 N   0  0  0  0  0  0
  -25.9383  -11.6562   20.5795 N   0  0  0  0  0  0
  -22.0453  -12.8163   22.0439 N   0  0  0  0  0  0
  -25.4225  -15.1917   20.4187 N   0  0  0  0  0  0
  -31.7792  -14.8251   20.0348 O   0  0  0  0  0  0
  -21.6701   -6.8853   21.4235 O   0  0  0  0  0  0
  -22.3526  -14.5464   20.6736 O   0  0  0  0  0  0
  -24.6312  -31.8566   23.1965 C   0  0  0  0  0  0
  -25.9149  -32.4746   23.8307 C   0  0  1  0  0  0
  -27.2104  -27.2657   20.1200 C   0  0  0  0  0  0
  -25.5960  -33.8547   24.2246 N   0  0  0  0  0  0
  -23.4263  -30.4834   21.5389 C   0  0  2  0  0  0
  -24.8704  -28.9338   20.1066 C   0  0  0  0  0  0
  -22.7484  -29.4633   22.4868 C   0  0  0  0  0  0
  -18.0294  -28.1394   22.8455 C   0  0  0  0  0  0
  -24.1499  -36.7282   23.2628 C   0  0  0  0  0  0
  -25.9730  -30.7722   21.3729 C   0  0  0  0  0  0
  -26.0435  -29.3949   20.7157 C   0  0  0  0  0  0
  -27.2185  -28.5746   20.7101 C   0  0  0  0  0  0
  -26.0096  -26.8753   19.4831 C   0  0  0  0  0  0
  -24.8571  -27.6816   19.4801 C   0  0  0  0  0  0
  -23.6426  -29.8201   20.1539 C   0  0  0  0  0  0
  -25.4117  -36.3051   24.0317 C   0  0  1  0  0  0
  -20.5895  -28.3723   23.1230 C   0  0  2  0  0  0
  -20.6791  -26.9446   22.5369 C   0  0  0  0  0  0
  -19.5777  -26.6389   21.5173 C   0  0  0  0  0  0
  -18.1960  -26.7934   22.1600 C   0  0  0  0  0  0
  -19.1545  -28.8874   23.2849 C   0  0  0  0  0  0
  -18.9465  -30.1464   23.8893 C   0  0  0  0  0  0
  -17.6469  -30.6596   24.0557 C   0  0  0  0  0  0
  -25.9068  -34.9425   23.5076 C   0  0  0  0  0  0
  -16.5358  -29.9094   23.6322 C   0  0  0  0  0  0
  -16.7284  -28.6504   23.0349 C   0  0  0  0  0  0
  -26.4515  -31.6562   25.0689 C   0  0  0  0  0  0
  -25.3725  -31.3728   26.1396 C   0  0  0  0  0  0
  -27.0358  -30.2970   24.6192 C   0  0  0  0  0  0
  -27.6093  -32.4272   25.7474 C   0  0  0  0  0  0
  -27.5591  -37.1772   24.8442 C   0  0  0  0  0  0
  -21.4194  -29.3076   22.3612 N   0  0  0  0  0  0
  -26.4279  -37.3759   23.9414 N   0  0  0  0  0  0
  -24.6966  -31.0545   22.0919 N   0  0  0  0  0  0
  -23.4184  -28.8179   23.2970 O   0  0  0  0  0  0
  -28.2998  -26.3633   20.1805 O   0  0  0  0  0  0
  -26.5639  -34.8913   22.4644 O   0  0  0  0  0  0
  -23.5457  -32.1399   23.7259 O   0  0  0  0  0  0
  -31.2709  -22.8598   20.7989 C   0  0  0  0  0  0
  -30.4407  -23.9785   20.6095 C   0  0  0  0  0  0
  -29.0843  -23.7336   20.2923 C   0  0  0  0  0  0
  -29.5773  -21.3757   20.3297 C   0  0  0  0  0  0
  -30.8357  -25.9987   22.1063 C   0  0  0  0  0  0
  -29.9053  -16.0728   22.3874 C   0  0  0  0  0  0
  -31.0492  -25.3692   20.7220 C   0  0  0  0  0  0
  -28.0081  -24.8899   20.0486 C   0  0  0  0  0  0
  -29.2543  -19.8780   19.8903 C   0  0  0  0  0  0
  -29.6660  -18.5937   20.7936 C   0  0  0  0  0  0
  -29.7110  -17.1109   20.1194 C   0  0  0  0  0  0
  -30.8450  -21.5898   20.6563 N   0  0  0  0  0  0
  -28.6951  -22.4039   20.1495 N   0  0  0  0  0  0
  -29.9480  -15.8359   20.9417 N   0  0  0  0  0  0
  -31.4723  -12.5337   19.1846 H   0  0  0  0  0  0
  -30.3247  -11.4524   19.9374 H   0  0  0  0  0  0
  -29.7989  -11.7644   17.5014 H   0  0  0  0  0  0
  -29.6698  -13.4870   17.7297 H   0  0  0  0  0  0
  -27.8841  -11.3079   18.8670 H   0  0  0  0  0  0
  -27.3834  -12.5775   17.7894 H   0  0  0  0  0  0
  -27.6495  -14.2659   19.5013 H   0  0  0  0  0  0
  -28.7219  -12.1431   21.4205 H   0  0  0  0  0  0
  -28.4240  -13.8086   21.8180 H   0  0  0  0  0  0
  -25.2803   -9.5708   22.4867 H   0  0  0  0  0  0
  -24.0117   -7.4592   22.7414 H   0  0  0  0  0  0
  -21.0926   -8.8722   19.8934 H   0  0  0  0  0  0
  -22.3750  -10.9659   19.6236 H   0  0  0  0  0  0
  -21.2032   -7.6139   23.9731 H   0  0  0  0  0  0
  -21.1475   -6.0467   25.9054 H   0  0  0  0  0  0
  -22.0654   -2.7594   23.2802 H   0  0  0  0  0  0
  -22.4082  -11.9860   22.4911 H   0  0  0  0  0  0
  -21.1025  -13.1115   22.2497 H   0  0  0  0  0  0
  -24.6636  -15.8504   20.5606 H   0  0  0  0  0  0
  -26.2856  -15.6383   20.1342 H   0  0  0  0  0  0
  -26.7222  -32.5418   23.1053 H   0  0  0  0  0  0
  -25.0095  -33.9688   25.0380 H   0  0  0  0  0  0
  -22.7235  -31.3074   21.3927 H   0  0  0  0  0  0
  -23.3762  -35.9610   23.3223 H   0  0  0  0  0  0
  -24.3608  -36.8965   22.2056 H   0  0  0  0  0  0
  -23.7240  -37.6458   23.6696 H   0  0  0  0  0  0
  -26.1081  -31.5336   20.6032 H   0  0  0  0  0  0
  -26.8502  -30.8231   22.0047 H   0  0  0  0  0  0
  -28.1161  -28.9218   21.2020 H   0  0  0  0  0  0
  -25.9159  -25.9229   18.9873 H   0  0  0  0  0  0
  -23.9588  -27.3246   18.9966 H   0  0  0  0  0  0
  -23.7664  -30.5965   19.3978 H   0  0  0  0  0  0
  -22.7613  -29.2521   19.8505 H   0  0  0  0  0  0
  -25.1291  -36.1871   25.0804 H   0  0  0  0  0  0
  -21.0007  -28.3309   24.1343 H   0  0  0  0  0  0
  -20.5653  -26.2358   23.3580 H   0  0  0  0  0  0
  -21.6665  -26.7460   22.1189 H   0  0  0  0  0  0
  -19.6951  -25.6282   21.1248 H   0  0  0  0  0  0
  -19.6723  -27.3150   20.6663 H   0  0  0  0  0  0
  -17.4217  -26.6626   21.4022 H   0  0  0  0  0  0
  -18.0422  -26.0094   22.9020 H   0  0  0  0  0  0
  -19.7948  -30.7266   24.2271 H   0  0  0  0  0  0
  -17.5031  -31.6282   24.5155 H   0  0  0  0  0  0
  -15.5358  -30.3002   23.7657 H   0  0  0  0  0  0
  -15.8677  -28.0820   22.7086 H   0  0  0  0  0  0
  -24.5880  -30.7125   25.7673 H   0  0  0  0  0  0
  -24.8953  -32.2915   26.4823 H   0  0  0  0  0  0
  -25.7993  -30.8855   27.0173 H   0  0  0  0  0  0
  -26.2945  -29.6700   24.1229 H   0  0  0  0  0  0
  -27.4037  -29.7251   25.4723 H   0  0  0  0  0  0
  -27.8824  -30.4208   23.9434 H   0  0  0  0  0  0
  -27.2735  -33.3576   26.2071 H   0  0  0  0  0  0
  -28.3914  -32.6815   25.0302 H   0  0  0  0  0  0
  -28.0767  -31.8376   26.5373 H   0  0  0  0  0  0
  -28.2520  -38.0161   24.7589 H   0  0  0  0  0  0
  -28.1181  -36.2686   24.6122 H   0  0  0  0  0  0
  -27.2335  -37.1225   25.8852 H   0  0  0  0  0  0
  -20.9367  -29.8830   21.6851 H   0  0  0  0  0  0
  -26.0142  -38.2813   24.1476 H   0  0  0  0  0  0
  -32.3170  -22.9865   21.0377 H   0  0  0  0  0  0
  -31.1977  -27.0274   22.1314 H   0  0  0  0  0  0
  -31.3666  -25.4440   22.8805 H   0  0  0  0  0  0
  -29.7815  -26.0238   22.3814 H   0  0  0  0  0  0
  -30.1930  -15.1917   22.9664 H   0  0  0  0  0  0
  -28.9028  -16.3641   22.6981 H   0  0  0  0  0  0
  -30.5945  -16.8675   22.6718 H   0  0  0  0  0  0
  -30.6651  -26.0065   19.9279 H   0  0  0  0  0  0
  -32.1223  -25.3060   20.5275 H   0  0  0  0  0  0
  -27.1668  -24.6620   20.7061 H   0  0  0  0  0  0
  -27.6594  -24.7090   19.0327 H   0  0  0  0  0  0
  -29.7504  -19.7668   18.9282 H   0  0  0  0  0  0
  -28.1889  -19.8092   19.6635 H   0  0  0  0  0  0
  -28.9963  -18.5758   21.6538 H   0  0  0  0  0  0
  -30.6588  -18.7940   21.1963 H   0  0  0  0  0  0
  -30.4366  -17.1225   19.3043 H   0  0  0  0  0  0
  -28.7484  -16.9471   19.6296 H   0  0  0  0  0  0
  1 25  1  0  0  0
  1 30  2  0  0  0
  1 84  1  0  0  0
  2  3  1  0  0  0
  2 25  1  0  0  0
  2 85  1  0  0  0
  2 86  1  0  0  0
  3  4  1  0  0  0
  3 87  1  0  0  0
  3 88  1  0  0  0
  4  5  1  0  0  0
  4 89  1  0  0  0
  4 90  1  0  0  0
  5  6  1  0  0  0
  5 26  1  0  0  0
  5 91  1  0  0  0
  6 25  1  0  0  0
  6 92  1  0  0  0
  6 93  1  0  0  0
  7  8  2  0  0  0
  7 26  1  0  0  0
  7 29  1  0  0  0
  8  9  1  0  0  0
  8 22  1  0  0  0
  9 10  1  0  0  0
  9 27  2  0  0  0
 10 11  2  0  0  0
 10 15  1  0  0  0
 11 12  1  0  0  0
 11 94  1  0  0  0
 12 13  2  0  0  0
 12 95  1  0  0  0
 13 14  1  0  0  0
 13 31  1  0  0  0
 14 15  2  0  0  0
 14 96  1  0  0  0
 15 97  1  0  0  0
 16 17  2  0  0  0
 16 21  1  0  0  0
 16 31  1  0  0  0
 17 18  1  0  0  0
 17 98  1  0  0  0
 18 19  2  0  0  0
 18 99  1  0  0  0
 19 20  1  0  0  0
 19 24  1  0  0  0
 20 21  2  0  0  0
 20100  1  0  0  0
 21 23  1  0  0  0
 22 28  1  0  0  0
 22 32  2  0  0  0
 26 27  1  0  0  0
 28101  1  0  0  0
 28102  1  0  0  0
 29103  1  0  0  0
 29104  1  0  0  0
 33 34  1  0  0  0
 33 66  1  0  0  0
 33 70  2  0  0  0
 34 36  1  0  0  0
 34 59  1  0  0  0
 34105  1  0  0  0
 35 44  2  0  0  0
 35 45  1  0  0  0
 35 68  1  0  0  0
 36 56  1  0  0  0
 36106  1  0  0  0
 37 39  1  0  0  0
 37 47  1  0  0  0
 37 66  1  0  0  0
 37107  1  0  0  0
 38 43  2  0  0  0
 38 46  1  0  0  0
 38 47  1  0  0  0
 39 64  1  0  0  0
 39 67  2  0  0  0
 40 52  1  0  0  0
 40 53  2  0  0  0
 40 58  1  0  0  0
 41108  1  0  0  0
 41109  1  0  0  0
 41110  1  0  0  0
 41 48  1  0  0  0
 42 43  1  0  0  0
 42 66  1  0  0  0
 42111  1  0  0  0
 42112  1  0  0  0
 43 44  1  0  0  0
 44113  1  0  0  0
 45 46  2  0  0  0
 45114  1  0  0  0
 46115  1  0  0  0
 47116  1  0  0  0
 47117  1  0  0  0
 48 56  1  0  0  0
 48 65  1  0  0  0
 48118  1  0  0  0
 49 50  1  0  0  0
 49 53  1  0  0  0
 49 64  1  0  0  0
 49119  1  0  0  0
 50 51  1  0  0  0
 50120  1  0  0  0
 50121  1  0  0  0
 51 52  1  0  0  0
 51122  1  0  0  0
 51123  1  0  0  0
 52124  1  0  0  0
 52125  1  0  0  0
 53 54  1  0  0  0
 54 55  2  0  0  0
 54126  1  0  0  0
 55 57  1  0  0  0
 55127  1  0  0  0
 56 69  2  0  0  0
 57 58  2  0  0  0
 57128  1  0  0  0
 58129  1  0  0  0
 59 60  1  0  0  0
 59 61  1  0  0  0
 59 62  1  0  0  0
 60130  1  0  0  0
 60131  1  0  0  0
 60132  1  0  0  0
 61133  1  0  0  0
 61134  1  0  0  0
 61135  1  0  0  0
 62136  1  0  0  0
 62137  1  0  0  0
 62138  1  0  0  0
 63 65  1  0  0  0
 63139  1  0  0  0
 63140  1  0  0  0
 63141  1  0  0  0
 64142  1  0  0  0
 65143  1  0  0  0
 68 78  1  0  0  0
 71 72  2  0  0  0
 71 82  1  0  0  0
 71144  1  0  0  0
 72 73  1  0  0  0
 72 77  1  0  0  0
 73 78  1  0  0  0
 73 83  2  0  0  0
 74 79  1  0  0  0
 74 82  2  0  0  0
 74 83  1  0  0  0
 75 77  1  0  0  0
 75145  1  0  0  0
 75146  1  0  0  0
 75147  1  0  0  0
 76 84  1  0  0  0
 76148  1  0  0  0
 76149  1  0  0  0
 76150  1  0  0  0
 77151  1  0  0  0
 77152  1  0  0  0
 78153  1  0  0  0
 78154  1  0  0  0
 79 80  1  0  0  0
 79155  1  0  0  0
 79156  1  0  0  0
 80 81  1  0  0  0
 80157  1  0  0  0
 80158  1  0  0  0
 81 84  1  0  0  0
 81159  1  0  0  0
 81160  1  0  0  0
M  ISO  4   1 100  68 101  78 101  84 100
M  END
> <chiral flag>
0

> <version>
0

> <s_m_source_file>
/data/baiqing/PycharmProjects/Reinvent-master-3.2/result/LINK_invent/BTK/process_docking_weight1_custom_sum_contain_oxygen_bond_distance_aromatic_linkinvent_7_9_3/rearranged_h_0059.sdf

> <i_m_source_file_index>
48

> <r_mmod_Potential_Energy-OPLS-2005>
-33.0283851623535

> <r_mmod_Stretch_Energy-OPLS-2005>
126.886322021484

> <r_mmod_Bend_Energy-OPLS-2005>
171.953155517578

> <r_mmod_Torsional_Energy-OPLS-2005>
291.879302978516

> <r_mmod_Improper_Torsional_Energy-OPLS-2005>
7.49260902404785

> <r_mmod_Van_der_Waal_Energy-OPLS-2005>
147.595321655273

> <r_mmod_Electrostatic_Energy-OPLS-2005>
-636.968811035156

> <r_mmod_Solvation_Energy-OPLS-2005>
-216.751190185547

> <b_mmod_Minimization_Converged-OPLS-2005>
0

> <r_mmod_RMS_Derivative-OPLS-2005>
4.36905860900879

$$$$
48
                    3D
 Structure written by MMmdl.
156164  0  0  1  0            999 V2000
  -31.3045  -14.7809   19.2638 C   0  0  0  0  0  0
  -30.6326  -13.3986   20.7803 C   0  0  0  0  0  0
  -29.4910  -12.0766   20.6776 C   0  0  0  0  0  0
  -28.0995  -11.9725   19.7441 C   0  0  0  0  0  0
  -27.3434  -13.4316   19.2492 C   0  0  2  0  0  0
  -28.4708  -15.0980   19.0080 C   0  0  0  0  0  0
  -25.0691  -13.9559   20.4870 C   0  0  0  0  0  0
  -24.0595  -13.1397   20.9334 C   0  0  0  0  0  0
  -24.5045  -11.8001   20.8455 C   0  0  0  0  0  0
  -23.8513  -10.4858   21.0343 C   0  0  0  0  0  0
  -24.3468   -9.4800   21.9039 C   0  0  0  0  0  0
  -23.6397   -8.2639   22.0691 C   0  0  0  0  0  0
  -22.4365   -8.0410   21.3565 C   0  0  0  0  0  0
  -21.9802   -9.0231   20.4652 C   0  0  0  0  0  0
  -22.6803  -10.2268   20.3009 C   0  0  0  0  0  0
  -21.6998   -6.0818   22.5304 C   0  0  0  0  0  0
  -21.4085   -6.5708   23.8220 C   0  0  0  0  0  0
  -21.3688   -5.6842   24.9163 C   0  0  0  0  0  0
  -21.6024   -4.3104   24.7204 C   0  0  0  0  0  0
  -21.8796   -3.8202   23.4325 C   0  0  0  0  0  0
  -21.9241   -4.7029   22.3398 C   0  0  0  0  0  0
  -22.6745  -13.5765   21.2384 C   0  0  0  0  0  0
  -22.1706   -4.2194   21.0984 F   0  0  0  0  0  0
  -21.5564   -3.4571   25.7699 F   0  0  0  0  0  0
  -30.2585  -14.9161   19.9114 N   0  0  0  0  0  0
  -26.0831  -13.1594   20.0576 N   0  0  0  0  0  0
  -25.6743  -11.8536   20.2985 N   0  0  0  0  0  0
  -21.9721  -12.8436   22.0905 N   0  0  0  0  0  0
  -25.1601  -15.3134   20.3304 N   0  0  0  0  0  0
  -32.4234  -15.0059   19.7008 O   0  0  0  0  0  0
  -21.6849   -6.8937   21.4260 O   0  0  0  0  0  0
  -22.2227  -14.5968   20.7276 O   0  0  0  0  0  0
  -24.6994  -31.7789   23.1413 C   0  0  0  0  0  0
  -25.9500  -32.4333   23.7991 C   0  0  1  0  0  0
  -27.0711  -26.4378   20.3628 C   0  0  0  0  0  0
  -25.6021  -33.8182   24.1842 N   0  0  0  0  0  0
  -23.5258  -30.3817   21.5007 C   0  0  2  0  0  0
  -24.9606  -28.6795   20.1236 C   0  0  0  0  0  0
  -22.7794  -29.4202   22.4677 C   0  0  0  0  0  0
  -18.0334  -28.1415   22.8449 C   0  0  0  0  0  0
  -24.1523  -36.7123   23.2645 C   0  0  0  0  0  0
  -26.1111  -30.4319   21.4381 C   0  0  0  0  0  0
  -26.1452  -28.9680   20.8105 C   0  0  0  0  0  0
  -27.1910  -27.8823   20.8842 C   0  0  0  0  0  0
  -25.9029  -26.4320   19.5539 C   0  0  0  0  0  0
  -24.9015  -27.4483   19.4507 C   0  0  0  0  0  0
  -23.7838  -29.6743   20.1347 C   0  0  0  0  0  0
  -25.4170  -36.2833   24.0264 C   0  0  1  0  0  0
  -20.5968  -28.3787   23.1131 C   0  0  2  0  0  0
  -20.6793  -26.9435   22.5418 C   0  0  0  0  0  0
  -19.5784  -26.6359   21.5219 C   0  0  0  0  0  0
  -18.1964  -26.7941   22.1614 C   0  0  0  0  0  0
  -19.1593  -28.8930   23.2772 C   0  0  0  0  0  0
  -18.9507  -30.1504   23.8833 C   0  0  0  0  0  0
  -17.6502  -30.6601   24.0547 C   0  0  0  0  0  0
  -25.9160  -34.9217   23.4904 C   0  0  0  0  0  0
  -16.5392  -29.9087   23.6341 C   0  0  0  0  0  0
  -16.7317  -28.6500   23.0374 C   0  0  0  0  0  0
  -26.4618  -31.6431   25.0680 C   0  0  0  0  0  0
  -25.3652  -31.3777   26.1268 C   0  0  0  0  0  0
  -27.0527  -30.2734   24.6682 C   0  0  0  0  0  0
  -27.6061  -32.4329   25.7476 C   0  0  0  0  0  0
  -27.5583  -37.1708   24.8457 C   0  0  0  0  0  0
  -21.4429  -29.3010   22.3432 N   0  0  0  0  0  0
  -26.4287  -37.3607   23.9395 N   0  0  0  0  0  0
  -24.8056  -30.9055   22.0768 N   0  0  0  0  0  0
  -23.4174  -28.7787   23.3057 O   0  0  0  0  0  0
  -27.8841  -25.0655   20.5454 O   0  0  0  0  0  0
  -26.5839  -34.8838   22.4546 O   0  0  0  0  0  0
  -23.5990  -32.0971   23.6269 O   0  0  0  0  0  0
  -26.9465  -18.6543   20.8438 C   0  0  0  0  0  0
  -28.2175  -16.5693   21.2130 C   0  0  0  0  0  0
  -28.8370  -18.0194   21.2931 C   0  0  0  0  0  0
  -31.8816  -13.4681   17.2604 C   0  0  0  0  0  0
  -28.4540  -14.4957   21.1431 C   0  0  0  0  0  0
  -28.3251  -21.3280   20.9810 C   0  0  0  0  0  0
  -29.6994  -13.2782   18.6454 C   0  0  0  0  0  0
  -27.5526  -23.2196   20.6137 C   0  0  0  0  0  0
  -30.2698  -18.2275   21.6812 C   0  0  0  0  0  0
  -26.9777  -17.2539   20.9278 N   0  0  0  0  0  0
  -28.0555  -19.4362   21.0232 N   0  0  0  0  0  0
  -30.9403  -14.0260   18.2338 N   0  0  0  0  0  0
  -30.9569  -17.0892   21.7288 F   0  0  0  0  0  0
  -30.8983  -19.0432   20.8373 F   0  0  0  0  0  0
  -30.3474  -18.7757   22.8953 F   0  0  0  0  0  0
  -31.5824  -12.8900   20.5536 H   0  0  0  0  0  0
  -30.8605  -13.6434   21.8209 H   0  0  0  0  0  0
  -29.1475  -11.9436   21.7047 H   0  0  0  0  0  0
  -30.0646  -11.1599   20.5158 H   0  0  0  0  0  0
  -27.6914  -11.1146   20.2786 H   0  0  0  0  0  0
  -28.2532  -11.3977   18.8252 H   0  0  0  0  0  0
  -26.9728  -13.2650   18.2347 H   0  0  0  0  0  0
  -27.8962  -16.0130   19.0253 H   0  0  0  0  0  0
  -28.6585  -15.2628   17.9434 H   0  0  0  0  0  0
  -25.2558   -9.6536   22.4613 H   0  0  0  0  0  0
  -24.0317   -7.5140   22.7424 H   0  0  0  0  0  0
  -21.0721   -8.8525   19.9027 H   0  0  0  0  0  0
  -22.2999  -10.9729   19.6158 H   0  0  0  0  0  0
  -21.2114   -7.6216   23.9713 H   0  0  0  0  0  0
  -21.1523   -6.0594   25.9067 H   0  0  0  0  0  0
  -22.0547   -2.7676   23.2772 H   0  0  0  0  0  0
  -22.3598  -12.0148   22.5173 H   0  0  0  0  0  0
  -21.0291  -13.1192   22.3220 H   0  0  0  0  0  0
  -24.4165  -15.8975   20.6892 H   0  0  0  0  0  0
  -26.0372  -15.8389   20.2841 H   0  0  0  0  0  0
  -26.7591  -32.4714   23.0709 H   0  0  0  0  0  0
  -25.0047  -33.9181   24.9918 H   0  0  0  0  0  0
  -22.8632  -31.2256   21.3024 H   0  0  0  0  0  0
  -23.3801  -35.9432   23.3215 H   0  0  0  0  0  0
  -24.3626  -36.8898   22.2084 H   0  0  0  0  0  0
  -23.7265  -37.6260   23.6803 H   0  0  0  0  0  0
  -26.3374  -31.1221   20.6252 H   0  0  0  0  0  0
  -26.9663  -30.5084   22.0973 H   0  0  0  0  0  0
  -28.0737  -28.1046   21.4659 H   0  0  0  0  0  0
  -25.6870  -25.5075   19.0381 H   0  0  0  0  0  0
  -24.0275  -27.2307   18.8517 H   0  0  0  0  0  0
  -23.9811  -30.4282   19.3715 H   0  0  0  0  0  0
  -22.8784  -29.1608   19.8030 H   0  0  0  0  0  0
  -25.1386  -36.1582   25.0756 H   0  0  0  0  0  0
  -21.0070  -28.3439   24.1252 H   0  0  0  0  0  0
  -20.5644  -26.2408   23.3688 H   0  0  0  0  0  0
  -21.6657  -26.7352   22.1249 H   0  0  0  0  0  0
  -19.6950  -25.6248   21.1302 H   0  0  0  0  0  0
  -19.6746  -27.3130   20.6718 H   0  0  0  0  0  0
  -17.4237  -26.6688   21.4019 H   0  0  0  0  0  0
  -18.0358  -26.0097   22.9017 H   0  0  0  0  0  0
  -19.7976  -30.7323   24.2207 H   0  0  0  0  0  0
  -17.5042  -31.6278   24.5156 H   0  0  0  0  0  0
  -15.5384  -30.2978   23.7695 H   0  0  0  0  0  0
  -15.8701  -28.0789   22.7157 H   0  0  0  0  0  0
  -24.5946  -30.6986   25.7589 H   0  0  0  0  0  0
  -24.8708  -32.2974   26.4386 H   0  0  0  0  0  0
  -25.7831  -30.9178   27.0228 H   0  0  0  0  0  0
  -26.3232  -29.6339   24.1692 H   0  0  0  0  0  0
  -27.3864  -29.7207   25.5467 H   0  0  0  0  0  0
  -27.9275  -30.3772   24.0273 H   0  0  0  0  0  0
  -27.2609  -33.3760   26.1715 H   0  0  0  0  0  0
  -28.4020  -32.6658   25.0394 H   0  0  0  0  0  0
  -28.0537  -31.8661   26.5642 H   0  0  0  0  0  0
  -28.2519  -38.0077   24.7558 H   0  0  0  0  0  0
  -28.1166  -36.2601   24.6231 H   0  0  0  0  0  0
  -27.2311  -37.1282   25.8860 H   0  0  0  0  0  0
  -20.9767  -29.8651   21.6458 H   0  0  0  0  0  0
  -26.0099  -38.2647   24.1415 H   0  0  0  0  0  0
  -26.0051  -19.1424   20.6234 H   0  0  0  0  0  0
  -31.4544  -13.4655   16.2571 H   0  0  0  0  0  0
  -32.1593  -12.4481   17.5395 H   0  0  0  0  0  0
  -32.8110  -14.0427   17.2223 H   0  0  0  0  0  0
  -27.5789  -14.0335   21.5680 H   0  0  0  0  0  0
  -28.9812  -14.3241   22.0802 H   0  0  0  0  0  0
  -28.6977  -21.4832   21.9936 H   0  0  0  0  0  0
  -29.2309  -21.3836   20.3788 H   0  0  0  0  0  0
  -29.1370  -13.2549   17.6979 H   0  0  0  0  0  0
  -30.1408  -12.2743   18.5531 H   0  0  0  0  0  0
  -27.0773  -23.0864   19.6416 H   0  0  0  0  0  0
  -26.7116  -23.2237   21.3106 H   0  0  0  0  0  0
  1 25  1  0  0  0
  1 30  2  0  0  0
  1 82  1  0  0  0
  2  3  1  0  0  0
  2 25  1  0  0  0
  2 86  1  0  0  0
  2 87  1  0  0  0
  3  4  1  0  0  0
  3 88  1  0  0  0
  3 89  1  0  0  0
  4  5  1  0  0  0
  4 90  1  0  0  0
  4 91  1  0  0  0
  5  6  1  0  0  0
  5 26  1  0  0  0
  5 92  1  0  0  0
  6 25  1  0  0  0
  6 93  1  0  0  0
  6 94  1  0  0  0
  7  8  2  0  0  0
  7 26  1  0  0  0
  7 29  1  0  0  0
  8  9  1  0  0  0
  8 22  1  0  0  0
  9 10  1  0  0  0
  9 27  2  0  0  0
 10 11  2  0  0  0
 10 15  1  0  0  0
 11 12  1  0  0  0
 11 95  1  0  0  0
 12 13  2  0  0  0
 12 96  1  0  0  0
 13 14  1  0  0  0
 13 31  1  0  0  0
 14 15  2  0  0  0
 14 97  1  0  0  0
 15 98  1  0  0  0
 16 17  2  0  0  0
 16 21  1  0  0  0
 16 31  1  0  0  0
 17 18  1  0  0  0
 17 99  1  0  0  0
 18 19  2  0  0  0
 18100  1  0  0  0
 19 20  1  0  0  0
 19 24  1  0  0  0
 20 21  2  0  0  0
 20101  1  0  0  0
 21 23  1  0  0  0
 22 28  1  0  0  0
 22 32  2  0  0  0
 26 27  1  0  0  0
 28102  1  0  0  0
 28103  1  0  0  0
 29104  1  0  0  0
 29105  1  0  0  0
 33 34  1  0  0  0
 33 66  1  0  0  0
 33 70  2  0  0  0
 34 36  1  0  0  0
 34 59  1  0  0  0
 34106  1  0  0  0
 35 44  2  0  0  0
 35 45  1  0  0  0
 35 68  1  0  0  0
 36 56  1  0  0  0
 36107  1  0  0  0
 37 39  1  0  0  0
 37 47  1  0  0  0
 37 66  1  0  0  0
 37108  1  0  0  0
 38 43  2  0  0  0
 38 46  1  0  0  0
 38 47  1  0  0  0
 39 64  1  0  0  0
 39 67  2  0  0  0
 40 52  1  0  0  0
 40 53  2  0  0  0
 40 58  1  0  0  0
 41109  1  0  0  0
 41110  1  0  0  0
 41111  1  0  0  0
 41 48  1  0  0  0
 42 43  1  0  0  0
 42 66  1  0  0  0
 42112  1  0  0  0
 42113  1  0  0  0
 43 44  1  0  0  0
 44114  1  0  0  0
 45 46  2  0  0  0
 45115  1  0  0  0
 46116  1  0  0  0
 47117  1  0  0  0
 47118  1  0  0  0
 48 56  1  0  0  0
 48 65  1  0  0  0
 48119  1  0  0  0
 49 50  1  0  0  0
 49 53  1  0  0  0
 49 64  1  0  0  0
 49120  1  0  0  0
 50 51  1  0  0  0
 50121  1  0  0  0
 50122  1  0  0  0
 51 52  1  0  0  0
 51123  1  0  0  0
 51124  1  0  0  0
 52125  1  0  0  0
 52126  1  0  0  0
 53 54  1  0  0  0
 54 55  2  0  0  0
 54127  1  0  0  0
 55 57  1  0  0  0
 55128  1  0  0  0
 56 69  2  0  0  0
 57 58  2  0  0  0
 57129  1  0  0  0
 58130  1  0  0  0
 59 60  1  0  0  0
 59 61  1  0  0  0
 59 62  1  0  0  0
 60131  1  0  0  0
 60132  1  0  0  0
 60133  1  0  0  0
 61134  1  0  0  0
 61135  1  0  0  0
 61136  1  0  0  0
 62137  1  0  0  0
 62138  1  0  0  0
 62139  1  0  0  0
 63 65  1  0  0  0
 63140  1  0  0  0
 63141  1  0  0  0
 63142  1  0  0  0
 64143  1  0  0  0
 65144  1  0  0  0
 68 78  1  0  0  0
 71 80  2  0  0  0
 71 81  1  0  0  0
 71145  1  0  0  0
 72 73  2  0  0  0
 72 75  1  0  0  0
 72 80  1  0  0  0
 73 79  1  0  0  0
 73 81  1  0  0  0
 74 82  1  0  0  0
 74146  1  0  0  0
 74147  1  0  0  0
 74148  1  0  0  0
 75 77  1  0  0  0
 75149  1  0  0  0
 75150  1  0  0  0
 76 78  1  0  0  0
 76 81  1  0  0  0
 76151  1  0  0  0
 76152  1  0  0  0
 77 82  1  0  0  0
 77153  1  0  0  0
 77154  1  0  0  0
 78155  1  0  0  0
 78156  1  0  0  0
 79 83  1  0  0  0
 79 84  1  0  0  0
 79 85  1  0  0  0
M  ISO  4   1 100  68 101  78 101  82 100
M  END
> <chiral flag>
0

> <version>
0

> <s_m_source_file>
/data/baiqing/PycharmProjects/Reinvent-master-3.2/result/LINK_invent/BTK/process_docking_weight1_custom_sum_contain_oxygen_bond_distance_aromatic_linkinvent_7_9_3/rearranged_h_0059.sdf

> <i_m_source_file_index>
49

> <r_mmod_Potential_Energy-OPLS-2005>
11685.0654296875

> <r_mmod_Stretch_Energy-OPLS-2005>
5430.0654296875

> <r_mmod_Bend_Energy-OPLS-2005>
1082.58435058594

> <r_mmod_Torsional_Energy-OPLS-2005>
363.248352050781

> <r_mmod_Improper_Torsional_Energy-OPLS-2005>
22.6601600646973

> <r_mmod_Van_der_Waal_Energy-OPLS-2005>
1867.64916992188

> <r_mmod_Electrostatic_Energy-OPLS-2005>
-297.211364746094

> <r_mmod_Solvation_Energy-OPLS-2005>
-198.174957275391

> <b_mmod_Minimization_Converged-OPLS-2005>
0

> <r_mmod_RMS_Derivative-OPLS-2005>
7.69343376159668

$$$$
49
                    3D
 Structure written by MMmdl.
160168  0  0  1  0            999 V2000
  -30.5579  -14.9175   20.3362 C   0  0  0  0  0  0
  -30.4415  -12.5467   19.4721 C   0  0  0  0  0  0
  -29.5149  -12.4306   18.2411 C   0  0  0  0  0  0
  -28.0325  -12.2893   18.6534 C   0  0  0  0  0  0
  -27.6176  -13.2150   19.8296 C   0  0  2  0  0  0
  -28.6810  -13.2739   20.9454 C   0  0  0  0  0  0
  -25.2479  -13.8103   20.5772 C   0  0  0  0  0  0
  -24.1766  -13.0377   20.9256 C   0  0  0  0  0  0
  -24.6348  -11.6856   20.8808 C   0  0  0  0  0  0
  -23.9030  -10.4252   21.0429 C   0  0  0  0  0  0
  -24.3602   -9.4169   21.9192 C   0  0  0  0  0  0
  -23.6288   -8.2206   22.0734 C   0  0  0  0  0  0
  -22.4276   -8.0247   21.3517 C   0  0  0  0  0  0
  -21.9902   -9.0222   20.4627 C   0  0  0  0  0  0
  -22.7213  -10.2108   20.3054 C   0  0  0  0  0  0
  -21.6846   -6.0722   22.5284 C   0  0  0  0  0  0
  -21.3999   -6.5627   23.8215 C   0  0  0  0  0  0
  -21.3666   -5.6783   24.9179 C   0  0  0  0  0  0
  -21.6052   -4.3046   24.7231 C   0  0  0  0  0  0
  -21.8821   -3.8131   23.4356 C   0  0  0  0  0  0
  -21.9193   -4.6947   22.3410 C   0  0  0  0  0  0
  -22.7803  -13.5191   21.1890 C   0  0  0  0  0  0
  -22.1656   -4.2128   21.0990 F   0  0  0  0  0  0
  -21.5644   -3.4537   25.7741 F   0  0  0  0  0  0
  -29.9463  -13.6664   20.3111 N   0  0  0  0  0  0
  -26.2846  -12.9246   20.3326 N   0  0  0  0  0  0
  -25.9266  -11.6423   20.5847 N   0  0  0  0  0  0
  -22.0436  -12.8189   22.0440 N   0  0  0  0  0  0
  -25.4206  -15.1830   20.4232 N   0  0  0  0  0  0
  -31.7905  -14.9554   20.2820 O   0  0  0  0  0  0
  -21.6623   -6.8859   21.4241 O   0  0  0  0  0  0
  -22.3521  -14.5512   20.6730 O   0  0  0  0  0  0
  -24.6397  -31.8484   23.1913 C   0  0  0  0  0  0
  -25.9184  -32.4713   23.8293 C   0  0  1  0  0  0
  -27.2237  -27.1856   20.1528 C   0  0  0  0  0  0
  -25.5946  -33.8520   24.2215 N   0  0  0  0  0  0
  -23.4419  -30.4684   21.5358 C   0  0  2  0  0  0
  -24.8931  -28.9012   20.1130 C   0  0  0  0  0  0
  -22.7555  -29.4574   22.4881 C   0  0  0  0  0  0
  -18.0307  -28.1400   22.8481 C   0  0  0  0  0  0
  -24.1491  -36.7269   23.2644 C   0  0  0  0  0  0
  -25.9941  -30.7391   21.3817 C   0  0  0  0  0  0
  -26.0696  -29.3537   20.7267 C   0  0  0  0  0  0
  -27.2407  -28.5129   20.7271 C   0  0  0  0  0  0
  -26.0249  -26.8220   19.5021 C   0  0  0  0  0  0
  -24.8811  -27.6468   19.4852 C   0  0  0  0  0  0
  -23.6663  -29.7972   20.1553 C   0  0  0  0  0  0
  -25.4122  -36.3048   24.0324 C   0  0  1  0  0  0
  -20.5914  -28.3724   23.1245 C   0  0  2  0  0  0
  -20.6784  -26.9429   22.5413 C   0  0  0  0  0  0
  -19.5763  -26.6383   21.5218 C   0  0  0  0  0  0
  -18.1943  -26.7937   22.1625 C   0  0  0  0  0  0
  -19.1558  -28.8881   23.2851 C   0  0  0  0  0  0
  -18.9472  -30.1476   23.8882 C   0  0  0  0  0  0
  -17.6464  -30.6589   24.0567 C   0  0  0  0  0  0
  -25.9071  -34.9419   23.5079 C   0  0  0  0  0  0
  -16.5359  -29.9082   23.6337 C   0  0  0  0  0  0
  -16.7285  -28.6503   23.0352 C   0  0  0  0  0  0
  -26.4517  -31.6556   25.0713 C   0  0  0  0  0  0
  -25.3722  -31.3716   26.1419 C   0  0  0  0  0  0
  -27.0372  -30.2962   24.6251 C   0  0  0  0  0  0
  -27.6070  -32.4306   25.7484 C   0  0  0  0  0  0
  -27.5580  -37.1787   24.8461 C   0  0  0  0  0  0
  -21.4252  -29.3046   22.3616 N   0  0  0  0  0  0
  -26.4290  -37.3754   23.9409 N   0  0  0  0  0  0
  -24.7115  -31.0381   22.0919 N   0  0  0  0  0  0
  -23.4212  -28.8130   23.3029 O   0  0  0  0  0  0
  -28.2772  -26.2158   20.1735 O   0  0  0  0  0  0
  -26.5659  -34.8908   22.4657 O   0  0  0  0  0  0
  -23.5527  -32.1335   23.7157 O   0  0  0  0  0  0
  -28.1896  -22.5697   19.2871 C   0  0  0  0  0  0
  -29.6110  -21.2984   21.2058 C   0  0  0  0  0  0
  -29.1364  -20.4944   20.1129 C   0  0  0  0  0  0
  -28.6078  -23.3691   20.4003 C   0  0  0  0  0  0
  -27.3538  -23.1741   18.1762 C   0  0  0  0  0  0
  -29.6289  -20.1135   23.4621 C   0  0  0  0  0  0
  -29.0634  -16.1402   18.8476 C   0  0  0  0  0  0
  -30.4586  -20.6779   22.3023 C   0  0  0  0  0  0
  -29.2218  -18.8759   19.8398 C   0  0  0  0  0  0
  -27.9793  -24.8376   20.7805 C   0  0  0  0  0  0
  -30.0159  -17.6015   20.5887 C   0  0  0  0  0  0
  -28.4447  -21.2101   19.1614 N   0  0  0  0  0  0
  -29.3341  -22.6634   21.3448 N   0  0  0  0  0  0
  -29.7912  -16.1065   20.1257 N   0  0  0  0  0  0
  -31.4704  -12.7097   19.1466 H   0  0  0  0  0  0
  -30.4488  -11.6150   20.0402 H   0  0  0  0  0  0
  -29.8066  -11.5657   17.6443 H   0  0  0  0  0  0
  -29.6479  -13.2880   17.5833 H   0  0  0  0  0  0
  -27.8763  -11.2490   18.9394 H   0  0  0  0  0  0
  -27.3876  -12.4602   17.7891 H   0  0  0  0  0  0
  -27.5306  -14.2020   19.3994 H   0  0  0  0  0  0
  -28.7765  -12.3107   21.4497 H   0  0  0  0  0  0
  -28.3974  -14.0045   21.7055 H   0  0  0  0  0  0
  -25.2739   -9.5655   22.4786 H   0  0  0  0  0  0
  -23.9989   -7.4599   22.7456 H   0  0  0  0  0  0
  -21.0822   -8.8741   19.8953 H   0  0  0  0  0  0
  -22.3650  -10.9659   19.6186 H   0  0  0  0  0  0
  -21.1959   -7.6128   23.9709 H   0  0  0  0  0  0
  -21.1497   -6.0512   25.9088 H   0  0  0  0  0  0
  -22.0594   -2.7588   23.2863 H   0  0  0  0  0  0
  -22.4047  -11.9853   22.4821 H   0  0  0  0  0  0
  -21.1055  -13.1216   22.2635 H   0  0  0  0  0  0
  -24.6613  -15.8447   20.5444 H   0  0  0  0  0  0
  -26.2909  -15.6233   20.1527 H   0  0  0  0  0  0
  -26.7257  -32.5339   23.1031 H   0  0  0  0  0  0
  -25.0061  -33.9634   25.0342 H   0  0  0  0  0  0
  -22.7429  -31.2927   21.3832 H   0  0  0  0  0  0
  -23.3756  -35.9596   23.3293 H   0  0  0  0  0  0
  -24.3585  -36.8912   22.2062 H   0  0  0  0  0  0
  -23.7233  -37.6461   23.6682 H   0  0  0  0  0  0
  -26.1428  -31.4952   20.6093 H   0  0  0  0  0  0
  -26.8666  -30.7898   22.0210 H   0  0  0  0  0  0
  -28.1413  -28.8596   21.2148 H   0  0  0  0  0  0
  -25.9552  -25.8605   19.0138 H   0  0  0  0  0  0
  -23.9847  -27.2983   18.9901 H   0  0  0  0  0  0
  -23.7963  -30.5707   19.3980 H   0  0  0  0  0  0
  -22.7822  -29.2349   19.8490 H   0  0  0  0  0  0
  -25.1305  -36.1891   25.0817 H   0  0  0  0  0  0
  -21.0011  -28.3311   24.1364 H   0  0  0  0  0  0
  -20.5683  -26.2339   23.3632 H   0  0  0  0  0  0
  -21.6649  -26.7435   22.1206 H   0  0  0  0  0  0
  -19.6922  -25.6286   21.1262 H   0  0  0  0  0  0
  -19.6701  -27.3184   20.6744 H   0  0  0  0  0  0
  -17.4216  -26.6696   21.4022 H   0  0  0  0  0  0
  -18.0333  -26.0075   22.9022 H   0  0  0  0  0  0
  -19.7944  -30.7298   24.2241 H   0  0  0  0  0  0
  -17.5014  -31.6272   24.5167 H   0  0  0  0  0  0
  -15.5355  -30.2977   23.7664 H   0  0  0  0  0  0
  -15.8689  -28.0814   22.7073 H   0  0  0  0  0  0
  -24.5917  -30.7045   25.7730 H   0  0  0  0  0  0
  -24.8890  -32.2883   26.4814 H   0  0  0  0  0  0
  -25.8026  -30.8910   27.0216 H   0  0  0  0  0  0
  -26.2969  -29.6689   24.1275 H   0  0  0  0  0  0
  -27.4017  -29.7247   25.4796 H   0  0  0  0  0  0
  -27.8863  -30.4200   23.9528 H   0  0  0  0  0  0
  -27.2686  -33.3628   26.2015 H   0  0  0  0  0  0
  -28.3897  -32.6829   25.0319 H   0  0  0  0  0  0
  -28.0718  -31.8463   26.5432 H   0  0  0  0  0  0
  -28.2585  -38.0096   24.7522 H   0  0  0  0  0  0
  -28.1091  -36.2631   24.6268 H   0  0  0  0  0  0
  -27.2309  -37.1404   25.8866 H   0  0  0  0  0  0
  -20.9466  -29.8748   21.6784 H   0  0  0  0  0  0
  -26.0168  -38.2827   24.1412 H   0  0  0  0  0  0
  -26.2908  -23.0579   18.3888 H   0  0  0  0  0  0
  -27.5699  -22.6969   17.2196 H   0  0  0  0  0  0
  -27.5659  -24.2382   18.0630 H   0  0  0  0  0  0
  -30.2777  -19.6477   24.2045 H   0  0  0  0  0  0
  -28.9277  -19.3523   23.1190 H   0  0  0  0  0  0
  -29.0579  -20.8981   23.9595 H   0  0  0  0  0  0
  -28.0277  -16.4483   18.9905 H   0  0  0  0  0  0
  -29.0509  -15.1953   18.3146 H   0  0  0  0  0  0
  -29.5373  -16.8174   18.1395 H   0  0  0  0  0  0
  -31.1555  -21.4271   22.6800 H   0  0  0  0  0  0
  -31.0778  -19.8939   21.8672 H   0  0  0  0  0  0
  -29.5443  -18.8547   18.8004 H   0  0  0  0  0  0
  -28.1720  -18.5869   19.8166 H   0  0  0  0  0  0
  -28.2119  -24.9695   21.8378 H   0  0  0  0  0  0
  -26.9012  -24.6816   20.7790 H   0  0  0  0  0  0
  -29.7615  -17.6241   21.6483 H   0  0  0  0  0  0
  -31.0884  -17.7954   20.5450 H   0  0  0  0  0  0
  1 25  1  0  0  0
  1 30  2  0  0  0
  1 84  1  0  0  0
  2  3  1  0  0  0
  2 25  1  0  0  0
  2 85  1  0  0  0
  2 86  1  0  0  0
  3  4  1  0  0  0
  3 87  1  0  0  0
  3 88  1  0  0  0
  4  5  1  0  0  0
  4 89  1  0  0  0
  4 90  1  0  0  0
  5  6  1  0  0  0
  5 26  1  0  0  0
  5 91  1  0  0  0
  6 25  1  0  0  0
  6 92  1  0  0  0
  6 93  1  0  0  0
  7  8  2  0  0  0
  7 26  1  0  0  0
  7 29  1  0  0  0
  8  9  1  0  0  0
  8 22  1  0  0  0
  9 10  1  0  0  0
  9 27  2  0  0  0
 10 11  2  0  0  0
 10 15  1  0  0  0
 11 12  1  0  0  0
 11 94  1  0  0  0
 12 13  2  0  0  0
 12 95  1  0  0  0
 13 14  1  0  0  0
 13 31  1  0  0  0
 14 15  2  0  0  0
 14 96  1  0  0  0
 15 97  1  0  0  0
 16 17  2  0  0  0
 16 21  1  0  0  0
 16 31  1  0  0  0
 17 18  1  0  0  0
 17 98  1  0  0  0
 18 19  2  0  0  0
 18 99  1  0  0  0
 19 20  1  0  0  0
 19 24  1  0  0  0
 20 21  2  0  0  0
 20100  1  0  0  0
 21 23  1  0  0  0
 22 28  1  0  0  0
 22 32  2  0  0  0
 26 27  1  0  0  0
 28101  1  0  0  0
 28102  1  0  0  0
 29103  1  0  0  0
 29104  1  0  0  0
 33 34  1  0  0  0
 33 66  1  0  0  0
 33 70  2  0  0  0
 34 36  1  0  0  0
 34 59  1  0  0  0
 34105  1  0  0  0
 35 44  2  0  0  0
 35 45  1  0  0  0
 35 68  1  0  0  0
 36 56  1  0  0  0
 36106  1  0  0  0
 37 39  1  0  0  0
 37 47  1  0  0  0
 37 66  1  0  0  0
 37107  1  0  0  0
 38 43  2  0  0  0
 38 46  1  0  0  0
 38 47  1  0  0  0
 39 64  1  0  0  0
 39 67  2  0  0  0
 40 52  1  0  0  0
 40 53  2  0  0  0
 40 58  1  0  0  0
 41108  1  0  0  0
 41109  1  0  0  0
 41110  1  0  0  0
 41 48  1  0  0  0
 42 43  1  0  0  0
 42 66  1  0  0  0
 42111  1  0  0  0
 42112  1  0  0  0
 43 44  1  0  0  0
 44113  1  0  0  0
 45 46  2  0  0  0
 45114  1  0  0  0
 46115  1  0  0  0
 47116  1  0  0  0
 47117  1  0  0  0
 48 56  1  0  0  0
 48 65  1  0  0  0
 48118  1  0  0  0
 49 50  1  0  0  0
 49 53  1  0  0  0
 49 64  1  0  0  0
 49119  1  0  0  0
 50 51  1  0  0  0
 50120  1  0  0  0
 50121  1  0  0  0
 51 52  1  0  0  0
 51122  1  0  0  0
 51123  1  0  0  0
 52124  1  0  0  0
 52125  1  0  0  0
 53 54  1  0  0  0
 54 55  2  0  0  0
 54126  1  0  0  0
 55 57  1  0  0  0
 55127  1  0  0  0
 56 69  2  0  0  0
 57 58  2  0  0  0
 57128  1  0  0  0
 58129  1  0  0  0
 59 60  1  0  0  0
 59 61  1  0  0  0
 59 62  1  0  0  0
 60130  1  0  0  0
 60131  1  0  0  0
 60132  1  0  0  0
 61133  1  0  0  0
 61134  1  0  0  0
 61135  1  0  0  0
 62136  1  0  0  0
 62137  1  0  0  0
 62138  1  0  0  0
 63 65  1  0  0  0
 63139  1  0  0  0
 63140  1  0  0  0
 63141  1  0  0  0
 64142  1  0  0  0
 65143  1  0  0  0
 68 80  1  0  0  0
 71 74  2  0  0  0
 71 75  1  0  0  0
 71 82  1  0  0  0
 72 73  1  0  0  0
 72 78  1  0  0  0
 72 83  2  0  0  0
 73 79  1  0  0  0
 73 82  2  0  0  0
 74 80  1  0  0  0
 74 83  1  0  0  0
 75144  1  0  0  0
 75145  1  0  0  0
 75146  1  0  0  0
 76 78  1  0  0  0
 76147  1  0  0  0
 76148  1  0  0  0
 76149  1  0  0  0
 77 84  1  0  0  0
 77150  1  0  0  0
 77151  1  0  0  0
 77152  1  0  0  0
 78153  1  0  0  0
 78154  1  0  0  0
 79 81  1  0  0  0
 79155  1  0  0  0
 79156  1  0  0  0
 80157  1  0  0  0
 80158  1  0  0  0
 81 84  1  0  0  0
 81159  1  0  0  0
 81160  1  0  0  0
M  ISO  4   1 100  68 101  80 101  84 100
M  END
> <chiral flag>
0

> <version>
0

> <s_m_source_file>
/data/baiqing/PycharmProjects/Reinvent-master-3.2/result/LINK_invent/BTK/process_docking_weight1_custom_sum_contain_oxygen_bond_distance_aromatic_linkinvent_7_9_3/rearranged_h_0059.sdf

> <i_m_source_file_index>
50

> <r_mmod_Potential_Energy-OPLS-2005>
675.252502441406

> <r_mmod_Stretch_Energy-OPLS-2005>
215.53044128418

> <r_mmod_Bend_Energy-OPLS-2005>
268.074829101562

> <r_mmod_Torsional_Energy-OPLS-2005>
323.474700927734

> <r_mmod_Improper_Torsional_Energy-OPLS-2005>
11.434832572937

> <r_mmod_Van_der_Waal_Energy-OPLS-2005>
141.194641113281

> <r_mmod_Electrostatic_Energy-OPLS-2005>
-241.242172241211

> <r_mmod_Solvation_Energy-OPLS-2005>
-215.769836425781

> <b_mmod_Minimization_Converged-OPLS-2005>
0

> <r_mmod_RMS_Derivative-OPLS-2005>
2.1355893611908

$$$$
50
                    3D
 Structure written by MMmdl.
158166  0  0  1  0            999 V2000
  -30.5015  -14.9944   20.4742 C   0  0  0  0  0  0
  -30.4662  -12.6368   19.4715 C   0  0  0  0  0  0
  -29.5210  -12.5621   18.2449 C   0  0  0  0  0  0
  -28.0559  -12.3202   18.6659 C   0  0  0  0  0  0
  -27.6413  -13.2166   19.8588 C   0  0  2  0  0  0
  -28.7107  -13.1547   20.9776 C   0  0  0  0  0  0
  -25.2425  -13.8073   20.5617 C   0  0  0  0  0  0
  -24.1756  -13.0339   20.9207 C   0  0  0  0  0  0
  -24.6381  -11.6838   20.8779 C   0  0  0  0  0  0
  -23.9057  -10.4237   21.0424 C   0  0  0  0  0  0
  -24.3606   -9.4161   21.9203 C   0  0  0  0  0  0
  -23.6274   -8.2205   22.0765 C   0  0  0  0  0  0
  -22.4259   -8.0255   21.3550 C   0  0  0  0  0  0
  -21.9898   -9.0227   20.4652 C   0  0  0  0  0  0
  -22.7231  -10.2099   20.3064 C   0  0  0  0  0  0
  -21.6839   -6.0717   22.5279 C   0  0  0  0  0  0
  -21.4004   -6.5627   23.8211 C   0  0  0  0  0  0
  -21.3659   -5.6785   24.9176 C   0  0  0  0  0  0
  -21.6047   -4.3049   24.7229 C   0  0  0  0  0  0
  -21.8820   -3.8136   23.4352 C   0  0  0  0  0  0
  -21.9188   -4.6948   22.3404 C   0  0  0  0  0  0
  -22.7783  -13.5149   21.1850 C   0  0  0  0  0  0
  -22.1657   -4.2135   21.0982 F   0  0  0  0  0  0
  -21.5637   -3.4533   25.7744 F   0  0  0  0  0  0
  -29.9558  -13.6947   20.4007 N   0  0  0  0  0  0
  -26.2933  -12.9296   20.3356 N   0  0  0  0  0  0
  -25.9328  -11.6459   20.5838 N   0  0  0  0  0  0
  -22.0423  -12.8176   22.0428 N   0  0  0  0  0  0
  -25.3843  -15.1780   20.3828 N   0  0  0  0  0  0
  -31.6773  -15.0623   20.0947 O   0  0  0  0  0  0
  -21.6625   -6.8856   21.4241 O   0  0  0  0  0  0
  -22.3478  -14.5451   20.6680 O   0  0  0  0  0  0
  -24.6432  -31.8445   23.1882 C   0  0  0  0  0  0
  -25.9206  -32.4700   23.8270 C   0  0  1  0  0  0
  -27.2300  -27.1436   20.1480 C   0  0  0  0  0  0
  -25.5952  -33.8504   24.2187 N   0  0  0  0  0  0
  -23.4471  -30.4634   21.5343 C   0  0  2  0  0  0
  -24.8986  -28.8887   20.1150 C   0  0  0  0  0  0
  -22.7567  -29.4550   22.4866 C   0  0  0  0  0  0
  -18.0311  -28.1396   22.8484 C   0  0  0  0  0  0
  -24.1494  -36.7255   23.2643 C   0  0  0  0  0  0
  -26.0032  -30.7200   21.3871 C   0  0  0  0  0  0
  -26.0766  -29.3308   20.7305 C   0  0  0  0  0  0
  -27.2424  -28.4759   20.7278 C   0  0  0  0  0  0
  -26.0231  -26.8032   19.4954 C   0  0  0  0  0  0
  -24.8844  -27.6371   19.4831 C   0  0  0  0  0  0
  -23.6744  -29.7902   20.1551 C   0  0  0  0  0  0
  -25.4126  -36.3032   24.0314 C   0  0  1  0  0  0
  -20.5922  -28.3723   23.1241 C   0  0  2  0  0  0
  -20.6795  -26.9428   22.5406 C   0  0  0  0  0  0
  -19.5764  -26.6383   21.5219 C   0  0  0  0  0  0
  -18.1948  -26.7937   22.1631 C   0  0  0  0  0  0
  -19.1566  -28.8878   23.2855 C   0  0  0  0  0  0
  -18.9482  -30.1477   23.8874 C   0  0  0  0  0  0
  -17.6476  -30.6592   24.0564 C   0  0  0  0  0  0
  -25.9075  -34.9408   23.5059 C   0  0  0  0  0  0
  -16.5368  -29.9084   23.6338 C   0  0  0  0  0  0
  -16.7294  -28.6504   23.0357 C   0  0  0  0  0  0
  -26.4523  -31.6568   25.0711 C   0  0  0  0  0  0
  -25.3706  -31.3755   26.1403 C   0  0  0  0  0  0
  -27.0394  -30.2967   24.6291 C   0  0  0  0  0  0
  -27.6053  -32.4336   25.7497 C   0  0  0  0  0  0
  -27.5577  -37.1784   24.8466 C   0  0  0  0  0  0
  -21.4260  -29.3048   22.3610 N   0  0  0  0  0  0
  -26.4288  -37.3745   23.9407 N   0  0  0  0  0  0
  -24.7177  -31.0300   22.0918 N   0  0  0  0  0  0
  -23.4211  -28.8105   23.3021 O   0  0  0  0  0  0
  -28.3036  -26.1770   20.1808 O   0  0  0  0  0  0
  -26.5662  -34.8905   22.4639 O   0  0  0  0  0  0
  -23.5549  -32.1316   23.7104 O   0  0  0  0  0  0
  -30.3822  -19.9258   19.3211 C   0  0  0  0  0  0
  -29.4759  -20.3501   20.2772 C   0  0  0  0  0  0
  -29.9301  -17.9859   20.4606 C   0  0  0  0  0  0
  -28.2232  -16.3153   20.9849 C   0  0  0  0  0  0
  -30.1950  -16.4923   22.4996 C   0  0  0  0  0  0
  -31.4862  -17.7669   18.5526 C   0  0  0  0  0  0
  -28.6830  -21.7607   20.5658 C   0  0  0  0  0  0
  -29.0997  -23.3404   20.1605 C   0  0  0  0  0  0
  -28.0400  -24.6456   20.3200 C   0  0  0  0  0  0
  -29.7601  -16.4285   21.0193 C   0  0  0  0  0  0
  -30.6200  -18.5435   19.4386 N   0  0  0  0  0  0
  -29.2673  -19.1101   20.9541 N   0  3  0  0  0  0
  -31.4822  -12.8425   19.1328 H   0  0  0  0  0  0
  -30.5284  -11.6686   19.9719 H   0  0  0  0  0  0
  -29.8503  -11.7792   17.5609 H   0  0  0  0  0  0
  -29.5841  -13.4989   17.6885 H   0  0  0  0  0  0
  -27.9572  -11.2708   18.9459 H   0  0  0  0  0  0
  -27.3865  -12.4751   17.8191 H   0  0  0  0  0  0
  -27.6154  -14.2208   19.4477 H   0  0  0  0  0  0
  -28.8439  -12.1168   21.2866 H   0  0  0  0  0  0
  -28.4372  -13.6382   21.9104 H   0  0  0  0  0  0
  -25.2749   -9.5636   22.4783 H   0  0  0  0  0  0
  -23.9976   -7.4597   22.7484 H   0  0  0  0  0  0
  -21.0830   -8.8745   19.8957 H   0  0  0  0  0  0
  -22.3695  -10.9642   19.6175 H   0  0  0  0  0  0
  -21.1989   -7.6135   23.9708 H   0  0  0  0  0  0
  -21.1486   -6.0518   25.9079 H   0  0  0  0  0  0
  -22.0601   -2.7597   23.2856 H   0  0  0  0  0  0
  -22.4019  -11.9847   22.4853 H   0  0  0  0  0  0
  -21.1044  -13.1226   22.2617 H   0  0  0  0  0  0
  -24.6015  -15.8142   20.4854 H   0  0  0  0  0  0
  -26.2241  -15.6316   20.0517 H   0  0  0  0  0  0
  -26.7272  -32.5310   23.0998 H   0  0  0  0  0  0
  -25.0076  -33.9618   25.0319 H   0  0  0  0  0  0
  -22.7498  -31.2893   21.3785 H   0  0  0  0  0  0
  -23.3760  -35.9583   23.3292 H   0  0  0  0  0  0
  -24.3577  -36.8900   22.2060 H   0  0  0  0  0  0
  -23.7245  -37.6445   23.6688 H   0  0  0  0  0  0
  -26.1577  -31.4743   20.6145 H   0  0  0  0  0  0
  -26.8734  -30.7711   22.0295 H   0  0  0  0  0  0
  -28.1417  -28.8146   21.2232 H   0  0  0  0  0  0
  -25.9261  -25.8600   18.9824 H   0  0  0  0  0  0
  -23.9878  -27.2946   18.9849 H   0  0  0  0  0  0
  -23.8104  -30.5633   19.3977 H   0  0  0  0  0  0
  -22.7896  -29.2306   19.8457 H   0  0  0  0  0  0
  -25.1316  -36.1856   25.0806 H   0  0  0  0  0  0
  -21.0020  -28.3313   24.1359 H   0  0  0  0  0  0
  -20.5701  -26.2335   23.3625 H   0  0  0  0  0  0
  -21.6660  -26.7439   22.1196 H   0  0  0  0  0  0
  -19.6925  -25.6287   21.1263 H   0  0  0  0  0  0
  -19.6699  -27.3183   20.6742 H   0  0  0  0  0  0
  -17.4219  -26.6694   21.4031 H   0  0  0  0  0  0
  -18.0339  -26.0078   22.9025 H   0  0  0  0  0  0
  -19.7956  -30.7311   24.2221 H   0  0  0  0  0  0
  -17.5026  -31.6269   24.5173 H   0  0  0  0  0  0
  -15.5366  -30.2977   23.7669 H   0  0  0  0  0  0
  -15.8700  -28.0817   22.7074 H   0  0  0  0  0  0
  -24.5887  -30.7106   25.7712 H   0  0  0  0  0  0
  -24.8894  -32.2938   26.4777 H   0  0  0  0  0  0
  -25.7981  -30.8951   27.0214 H   0  0  0  0  0  0
  -26.3013  -29.6685   24.1292 H   0  0  0  0  0  0
  -27.4004  -29.7267   25.4862 H   0  0  0  0  0  0
  -27.8918  -30.4204   23.9611 H   0  0  0  0  0  0
  -27.2643  -33.3654   26.2020 H   0  0  0  0  0  0
  -28.3889  -32.6871   25.0346 H   0  0  0  0  0  0
  -28.0694  -31.8502   26.5457 H   0  0  0  0  0  0
  -28.2586  -38.0089   24.7511 H   0  0  0  0  0  0
  -28.1079  -36.2615   24.6293 H   0  0  0  0  0  0
  -27.2290  -37.1432   25.8869 H   0  0  0  0  0  0
  -20.9472  -29.8747   21.6778 H   0  0  0  0  0  0
  -26.0152  -38.2812   24.1411 H   0  0  0  0  0  0
  -30.8479  -20.5044   18.5338 H   0  0  0  0  0  0
  -27.7348  -17.1557   21.4754 H   0  0  0  0  0  0
  -27.8105  -15.4781   21.5202 H   0  0  0  0  0  0
  -27.8699  -16.3188   19.9549 H   0  0  0  0  0  0
  -29.6165  -17.2191   23.0693 H   0  0  0  0  0  0
  -31.2445  -16.7777   22.5820 H   0  0  0  0  0  0
  -30.0780  -15.5317   23.0030 H   0  0  0  0  0  0
  -31.8278  -18.3951   17.7300 H   0  0  0  0  0  0
  -30.9304  -16.9224   18.1453 H   0  0  0  0  0  0
  -32.3521  -17.4155   19.1129 H   0  0  0  0  0  0
  -28.4898  -21.7762   21.6381 H   0  0  0  0  0  0
  -27.6952  -21.6127   20.1287 H   0  0  0  0  0  0
  -29.4176  -23.3276   19.1180 H   0  0  0  0  0  0
  -30.0000  -23.5816   20.7256 H   0  0  0  0  0  0
  -27.6032  -24.5466   21.3141 H   0  0  0  0  0  0
  -27.2267  -24.3906   19.6459 H   0  0  0  0  0  0
  -28.6337  -19.0390   21.7419 H   0  0  0  0  0  0
  1 25  1  0  0  0
  1 30  2  0  0  0
  1 80  1  0  0  0
  2  3  1  0  0  0
  2 25  1  0  0  0
  2 83  1  0  0  0
  2 84  1  0  0  0
  3  4  1  0  0  0
  3 85  1  0  0  0
  3 86  1  0  0  0
  4  5  1  0  0  0
  4 87  1  0  0  0
  4 88  1  0  0  0
  5  6  1  0  0  0
  5 26  1  0  0  0
  5 89  1  0  0  0
  6 25  1  0  0  0
  6 90  1  0  0  0
  6 91  1  0  0  0
  7  8  2  0  0  0
  7 26  1  0  0  0
  7 29  1  0  0  0
  8  9  1  0  0  0
  8 22  1  0  0  0
  9 10  1  0  0  0
  9 27  2  0  0  0
 10 11  2  0  0  0
 10 15  1  0  0  0
 11 12  1  0  0  0
 11 92  1  0  0  0
 12 13  2  0  0  0
 12 93  1  0  0  0
 13 14  1  0  0  0
 13 31  1  0  0  0
 14 15  2  0  0  0
 14 94  1  0  0  0
 15 95  1  0  0  0
 16 17  2  0  0  0
 16 21  1  0  0  0
 16 31  1  0  0  0
 17 18  1  0  0  0
 17 96  1  0  0  0
 18 19  2  0  0  0
 18 97  1  0  0  0
 19 20  1  0  0  0
 19 24  1  0  0  0
 20 21  2  0  0  0
 20 98  1  0  0  0
 21 23  1  0  0  0
 22 28  1  0  0  0
 22 32  2  0  0  0
 26 27  1  0  0  0
 28 99  1  0  0  0
 28100  1  0  0  0
 29101  1  0  0  0
 29102  1  0  0  0
 33 34  1  0  0  0
 33 66  1  0  0  0
 33 70  2  0  0  0
 34 36  1  0  0  0
 34 59  1  0  0  0
 34103  1  0  0  0
 35 44  2  0  0  0
 35 45  1  0  0  0
 35 68  1  0  0  0
 36 56  1  0  0  0
 36104  1  0  0  0
 37 39  1  0  0  0
 37 47  1  0  0  0
 37 66  1  0  0  0
 37105  1  0  0  0
 38 43  2  0  0  0
 38 46  1  0  0  0
 38 47  1  0  0  0
 39 64  1  0  0  0
 39 67  2  0  0  0
 40 52  1  0  0  0
 40 53  2  0  0  0
 40 58  1  0  0  0
 41106  1  0  0  0
 41107  1  0  0  0
 41108  1  0  0  0
 41 48  1  0  0  0
 42 43  1  0  0  0
 42 66  1  0  0  0
 42109  1  0  0  0
 42110  1  0  0  0
 43 44  1  0  0  0
 44111  1  0  0  0
 45 46  2  0  0  0
 45112  1  0  0  0
 46113  1  0  0  0
 47114  1  0  0  0
 47115  1  0  0  0
 48 56  1  0  0  0
 48 65  1  0  0  0
 48116  1  0  0  0
 49 50  1  0  0  0
 49 53  1  0  0  0
 49 64  1  0  0  0
 49117  1  0  0  0
 50 51  1  0  0  0
 50118  1  0  0  0
 50119  1  0  0  0
 51 52  1  0  0  0
 51120  1  0  0  0
 51121  1  0  0  0
 52122  1  0  0  0
 52123  1  0  0  0
 53 54  1  0  0  0
 54 55  2  0  0  0
 54124  1  0  0  0
 55 57  1  0  0  0
 55125  1  0  0  0
 56 69  2  0  0  0
 57 58  2  0  0  0
 57126  1  0  0  0
 58127  1  0  0  0
 59 60  1  0  0  0
 59 61  1  0  0  0
 59 62  1  0  0  0
 60128  1  0  0  0
 60129  1  0  0  0
 60130  1  0  0  0
 61131  1  0  0  0
 61132  1  0  0  0
 61133  1  0  0  0
 62134  1  0  0  0
 62135  1  0  0  0
 62136  1  0  0  0
 63 65  1  0  0  0
 63137  1  0  0  0
 63138  1  0  0  0
 63139  1  0  0  0
 64140  1  0  0  0
 65141  1  0  0  0
 68 79  1  0  0  0
 71 72  2  0  0  0
 71 81  1  0  0  0
 71142  1  0  0  0
 72 77  1  0  0  0
 72 82  1  0  0  0
 73 80  1  0  0  0
 73 81  1  0  0  0
 73 82  2  0  0  0
 74143  1  0  0  0
 74144  1  0  0  0
 74145  1  0  0  0
 74 80  1  0  0  0
 75 80  1  0  0  0
 75146  1  0  0  0
 75147  1  0  0  0
 75148  1  0  0  0
 76 81  1  0  0  0
 76149  1  0  0  0
 76150  1  0  0  0
 76151  1  0  0  0
 77 78  1  0  0  0
 77152  1  0  0  0
 77153  1  0  0  0
 78 79  1  0  0  0
 78154  1  0  0  0
 78155  1  0  0  0
 79156  1  0  0  0
 79157  1  0  0  0
 82158  1  0  0  0
M  CHG  1  82   1
M  ISO  4   1 100  68 101  79 101  80 100
M  END
> <chiral flag>
0

> <version>
0

> <s_m_source_file>
/data/baiqing/PycharmProjects/Reinvent-master-3.2/result/LINK_invent/BTK/process_docking_weight1_custom_sum_contain_oxygen_bond_distance_aromatic_linkinvent_7_9_3/rearranged_h_0059.sdf

> <i_m_source_file_index>
51

> <r_mmod_Potential_Energy-OPLS-2005>
569.646667480469

> <r_mmod_Stretch_Energy-OPLS-2005>
283.229675292969

> <r_mmod_Bend_Energy-OPLS-2005>
310.058685302734

> <r_mmod_Torsional_Energy-OPLS-2005>
211.636871337891

> <r_mmod_Improper_Torsional_Energy-OPLS-2005>
2.04478859901428

> <r_mmod_Van_der_Waal_Energy-OPLS-2005>
128.486633300781

> <r_mmod_Electrostatic_Energy-OPLS-2005>
-166.206756591797

> <r_mmod_Solvation_Energy-OPLS-2005>
-391.524688720703

> <b_mmod_Minimization_Converged-OPLS-2005>
0

> <r_mmod_RMS_Derivative-OPLS-2005>
0.794173777103424

$$$$
51
                    3D
 Structure written by MMmdl.
157165  0  0  1  0            999 V2000
  -30.6021  -14.7327   20.4516 C   0  0  0  0  0  0
  -30.4272  -12.4414   19.4773 C   0  0  0  0  0  0
  -29.5100  -12.5175   18.2356 C   0  0  0  0  0  0
  -28.0336  -12.3449   18.6450 C   0  0  0  0  0  0
  -27.6428  -13.2317   19.8570 C   0  0  2  0  0  0
  -28.6857  -13.1539   20.9935 C   0  0  0  0  0  0
  -25.2506  -13.8184   20.5702 C   0  0  0  0  0  0
  -24.1808  -13.0416   20.9208 C   0  0  0  0  0  0
  -24.6408  -11.6904   20.8770 C   0  0  0  0  0  0
  -23.9092  -10.4287   21.0459 C   0  0  0  0  0  0
  -24.3634   -9.4184   21.9223 C   0  0  0  0  0  0
  -23.6300   -8.2223   22.0771 C   0  0  0  0  0  0
  -22.4281   -8.0283   21.3562 C   0  0  0  0  0  0
  -21.9941   -9.0268   20.4658 C   0  0  0  0  0  0
  -22.7279  -10.2148   20.3084 C   0  0  0  0  0  0
  -21.6837   -6.0736   22.5270 C   0  0  0  0  0  0
  -21.4016   -6.5649   23.8208 C   0  0  0  0  0  0
  -21.3666   -5.6803   24.9173 C   0  0  0  0  0  0
  -21.6056   -4.3062   24.7225 C   0  0  0  0  0  0
  -21.8820   -3.8151   23.4340 C   0  0  0  0  0  0
  -21.9195   -4.6965   22.3395 C   0  0  0  0  0  0
  -22.7842  -13.5208   21.1871 C   0  0  0  0  0  0
  -22.1667   -4.2152   21.0975 F   0  0  0  0  0  0
  -21.5637   -3.4542   25.7740 F   0  0  0  0  0  0
  -29.9869  -13.5025   20.4118 N   0  0  0  0  0  0
  -26.2930  -12.9391   20.3294 N   0  0  0  0  0  0
  -25.9330  -11.6531   20.5770 N   0  0  0  0  0  0
  -22.0499  -12.8180   22.0434 N   0  0  0  0  0  0
  -25.4203  -15.1895   20.4135 N   0  0  0  0  0  0
  -31.7895  -14.8388   20.1316 O   0  0  0  0  0  0
  -21.6646   -6.8876   21.4232 O   0  0  0  0  0  0
  -22.3548  -14.5533   20.6752 O   0  0  0  0  0  0
  -24.6308  -31.8549   23.1969 C   0  0  0  0  0  0
  -25.9129  -32.4758   23.8323 C   0  0  1  0  0  0
  -27.2245  -27.2724   20.1277 C   0  0  0  0  0  0
  -25.5934  -33.8556   24.2255 N   0  0  0  0  0  0
  -23.4284  -30.4730   21.5419 C   0  0  2  0  0  0
  -24.8737  -28.9111   20.1178 C   0  0  0  0  0  0
  -22.7494  -29.4590   22.4935 C   0  0  0  0  0  0
  -18.0287  -28.1389   22.8474 C   0  0  0  0  0  0
  -24.1491  -36.7283   23.2641 C   0  0  0  0  0  0
  -25.9712  -30.7702   21.3728 C   0  0  0  0  0  0
  -26.0439  -29.3905   20.7202 C   0  0  0  0  0  0
  -27.2265  -28.5867   20.7039 C   0  0  0  0  0  0
  -26.0301  -26.8409   19.5218 C   0  0  0  0  0  0
  -24.8699  -27.6442   19.5089 C   0  0  0  0  0  0
  -23.6454  -29.7984   20.1611 C   0  0  0  0  0  0
  -25.4125  -36.3073   24.0316 C   0  0  1  0  0  0
  -20.5890  -28.3699   23.1273 C   0  0  2  0  0  0
  -20.6769  -26.9416   22.5413 C   0  0  0  0  0  0
  -19.5748  -26.6382   21.5209 C   0  0  0  0  0  0
  -18.1931  -26.7932   22.1614 C   0  0  0  0  0  0
  -19.1540  -28.8859   23.2870 C   0  0  0  0  0  0
  -18.9457  -30.1459   23.8897 C   0  0  0  0  0  0
  -17.6456  -30.6586   24.0561 C   0  0  0  0  0  0
  -25.9058  -34.9438   23.5089 C   0  0  0  0  0  0
  -16.5345  -29.9084   23.6336 C   0  0  0  0  0  0
  -16.7275  -28.6501   23.0359 C   0  0  0  0  0  0
  -26.4499  -31.6589   25.0723 C   0  0  0  0  0  0
  -25.3727  -31.3716   26.1444 C   0  0  0  0  0  0
  -27.0355  -30.3018   24.6195 C   0  0  0  0  0  0
  -27.6052  -32.4337   25.7486 C   0  0  0  0  0  0
  -27.5587  -37.1792   24.8463 C   0  0  0  0  0  0
  -21.4207  -29.3046   22.3668 N   0  0  0  0  0  0
  -26.4300  -37.3775   23.9405 N   0  0  0  0  0  0
  -24.6961  -31.0508   22.0943 N   0  0  0  0  0  0
  -23.4184  -28.8135   23.3049 O   0  0  0  0  0  0
  -28.3473  -26.4258   20.0901 O   0  0  0  0  0  0
  -26.5634  -34.8910   22.4663 O   0  0  0  0  0  0
  -23.5454  -32.1360   23.7266 O   0  0  0  0  0  0
  -30.6500  -22.6317   20.3086 C   0  0  0  0  0  0
  -31.4756  -21.5203   20.5447 C   0  0  0  0  0  0
  -29.2758  -22.4318   20.1405 C   0  0  0  0  0  0
  -29.6720  -20.0807   20.4520 C   0  0  0  0  0  0
  -33.5690  -23.0367   20.4864 C   0  0  0  0  0  0
  -32.9856  -21.6308   20.7045 C   0  0  0  0  0  0
  -28.3985  -23.6923   19.7004 C   0  0  0  0  0  0
  -29.2016  -18.5715   20.6969 C   0  0  0  0  0  0
  -30.1935  -17.3282   20.3401 C   0  0  0  0  0  0
  -28.2828  -25.0216   20.6200 C   0  0  0  0  0  0
  -30.9748  -20.2741   20.6297 N   0  0  0  0  0  0
  -28.8042  -21.1226   20.2172 N   0  0  0  0  0  0
  -29.8164  -15.8640   20.6199 N   0  0  0  0  0  0
  -31.4744  -12.5478   19.1875 H   0  0  0  0  0  0
  -30.3455  -11.4607   19.9500 H   0  0  0  0  0  0
  -29.7855  -11.7551   17.5051 H   0  0  0  0  0  0
  -29.6435  -13.4785   17.7358 H   0  0  0  0  0  0
  -27.8816  -11.2940   18.8918 H   0  0  0  0  0  0
  -27.3786  -12.5595   17.7988 H   0  0  0  0  0  0
  -27.6399  -14.2575   19.4869 H   0  0  0  0  0  0
  -28.7128  -12.1566   21.4328 H   0  0  0  0  0  0
  -28.4270  -13.8364   21.8048 H   0  0  0  0  0  0
  -25.2779   -9.5647   22.4797 H   0  0  0  0  0  0
  -24.0002   -7.4613   22.7486 H   0  0  0  0  0  0
  -21.0874   -8.8806   19.8964 H   0  0  0  0  0  0
  -22.3742  -10.9710   19.6203 H   0  0  0  0  0  0
  -21.2004   -7.6158   23.9701 H   0  0  0  0  0  0
  -21.1503   -6.0546   25.9082 H   0  0  0  0  0  0
  -22.0593   -2.7608   23.2839 H   0  0  0  0  0  0
  -22.4125  -11.9806   22.4750 H   0  0  0  0  0  0
  -21.1136  -13.1237   22.2697 H   0  0  0  0  0  0
  -24.6442  -15.8351   20.5044 H   0  0  0  0  0  0
  -26.2551  -15.6278   20.0470 H   0  0  0  0  0  0
  -26.7193  -32.5407   23.1063 H   0  0  0  0  0  0
  -25.0079  -33.9701   25.0394 H   0  0  0  0  0  0
  -22.7258  -31.2951   21.3923 H   0  0  0  0  0  0
  -23.3767  -35.9610   23.3299 H   0  0  0  0  0  0
  -24.3575  -36.8928   22.2059 H   0  0  0  0  0  0
  -23.7227  -37.6467   23.6683 H   0  0  0  0  0  0
  -26.1067  -31.5296   20.6007 H   0  0  0  0  0  0
  -26.8500  -30.8222   22.0058 H   0  0  0  0  0  0
  -28.1345  -28.9572   21.1588 H   0  0  0  0  0  0
  -25.9965  -25.8673   19.0531 H   0  0  0  0  0  0
  -23.9717  -27.2700   19.0380 H   0  0  0  0  0  0
  -23.7710  -30.5707   19.4016 H   0  0  0  0  0  0
  -22.7634  -29.2300   19.8586 H   0  0  0  0  0  0
  -25.1306  -36.1924   25.0812 H   0  0  0  0  0  0
  -20.9973  -28.3283   24.1395 H   0  0  0  0  0  0
  -20.5665  -26.2312   23.3618 H   0  0  0  0  0  0
  -21.6639  -26.7435   22.1212 H   0  0  0  0  0  0
  -19.6914  -25.6293   21.1247 H   0  0  0  0  0  0
  -19.6695  -27.3181   20.6732 H   0  0  0  0  0  0
  -17.4207  -26.6689   21.4017 H   0  0  0  0  0  0
  -18.0319  -26.0072   22.9001 H   0  0  0  0  0  0
  -19.7938  -30.7269   24.2276 H   0  0  0  0  0  0
  -17.5017  -31.6267   24.5160 H   0  0  0  0  0  0
  -15.5347  -30.2989   23.7658 H   0  0  0  0  0  0
  -15.8674  -28.0815   22.7090 H   0  0  0  0  0  0
  -24.5933  -30.7029   25.7774 H   0  0  0  0  0  0
  -24.8867  -32.2858   26.4848 H   0  0  0  0  0  0
  -25.8050  -30.8920   27.0234 H   0  0  0  0  0  0
  -26.2929  -29.6748   24.1246 H   0  0  0  0  0  0
  -27.4080  -29.7297   25.4700 H   0  0  0  0  0  0
  -27.8784  -30.4314   23.9411 H   0  0  0  0  0  0
  -27.2675  -33.3655   26.2031 H   0  0  0  0  0  0
  -28.3863  -32.6868   25.0311 H   0  0  0  0  0  0
  -28.0723  -31.8491   26.5421 H   0  0  0  0  0  0
  -28.2585  -38.0105   24.7538 H   0  0  0  0  0  0
  -28.1100  -36.2632   24.6267 H   0  0  0  0  0  0
  -27.2300  -37.1414   25.8863 H   0  0  0  0  0  0
  -20.9406  -29.8760   21.6854 H   0  0  0  0  0  0
  -26.0177  -38.2853   24.1432 H   0  0  0  0  0  0
  -31.0544  -23.6291   20.2123 H   0  0  0  0  0  0
  -34.6533  -23.0229   20.5860 H   0  0  0  0  0  0
  -33.1781  -23.7466   21.2154 H   0  0  0  0  0  0
  -33.3377  -23.4084   19.4887 H   0  0  0  0  0  0
  -33.4539  -20.9361   20.0055 H   0  0  0  0  0  0
  -33.2473  -21.2842   21.7040 H   0  0  0  0  0  0
  -27.3959  -23.3452   19.4541 H   0  0  0  0  0  0
  -28.8238  -24.0043   18.7459 H   0  0  0  0  0  0
  -28.2570  -18.4363   20.1714 H   0  0  0  0  0  0
  -28.9534  -18.5086   21.7567 H   0  0  0  0  0  0
  -31.1368  -17.5097   20.8565 H   0  0  0  0  0  0
  -30.4287  -17.3987   19.2770 H   0  0  0  0  0  0
  -29.1299  -24.9796   21.3032 H   0  0  0  0  0  0
  -27.4130  -24.9196   21.2697 H   0  0  0  0  0  0
  -28.8499  -15.6862   20.8510 H   0  0  0  0  0  0
  1 25  1  0  0  0
  1 30  2  0  0  0
  1 83  1  0  0  0
  2  3  1  0  0  0
  2 25  1  0  0  0
  2 84  1  0  0  0
  2 85  1  0  0  0
  3  4  1  0  0  0
  3 86  1  0  0  0
  3 87  1  0  0  0
  4  5  1  0  0  0
  4 88  1  0  0  0
  4 89  1  0  0  0
  5  6  1  0  0  0
  5 26  1  0  0  0
  5 90  1  0  0  0
  6 25  1  0  0  0
  6 91  1  0  0  0
  6 92  1  0  0  0
  7  8  2  0  0  0
  7 26  1  0  0  0
  7 29  1  0  0  0
  8  9  1  0  0  0
  8 22  1  0  0  0
  9 10  1  0  0  0
  9 27  2  0  0  0
 10 11  2  0  0  0
 10 15  1  0  0  0
 11 12  1  0  0  0
 11 93  1  0  0  0
 12 13  2  0  0  0
 12 94  1  0  0  0
 13 14  1  0  0  0
 13 31  1  0  0  0
 14 15  2  0  0  0
 14 95  1  0  0  0
 15 96  1  0  0  0
 16 17  2  0  0  0
 16 21  1  0  0  0
 16 31  1  0  0  0
 17 18  1  0  0  0
 17 97  1  0  0  0
 18 19  2  0  0  0
 18 98  1  0  0  0
 19 20  1  0  0  0
 19 24  1  0  0  0
 20 21  2  0  0  0
 20 99  1  0  0  0
 21 23  1  0  0  0
 22 28  1  0  0  0
 22 32  2  0  0  0
 26 27  1  0  0  0
 28100  1  0  0  0
 28101  1  0  0  0
 29102  1  0  0  0
 29103  1  0  0  0
 33 34  1  0  0  0
 33 66  1  0  0  0
 33 70  2  0  0  0
 34 36  1  0  0  0
 34 59  1  0  0  0
 34104  1  0  0  0
 35 44  2  0  0  0
 35 45  1  0  0  0
 35 68  1  0  0  0
 36 56  1  0  0  0
 36105  1  0  0  0
 37 39  1  0  0  0
 37 47  1  0  0  0
 37 66  1  0  0  0
 37106  1  0  0  0
 38 43  2  0  0  0
 38 46  1  0  0  0
 38 47  1  0  0  0
 39 64  1  0  0  0
 39 67  2  0  0  0
 40 52  1  0  0  0
 40 53  2  0  0  0
 40 58  1  0  0  0
 41107  1  0  0  0
 41108  1  0  0  0
 41109  1  0  0  0
 41 48  1  0  0  0
 42 43  1  0  0  0
 42 66  1  0  0  0
 42110  1  0  0  0
 42111  1  0  0  0
 43 44  1  0  0  0
 44112  1  0  0  0
 45 46  2  0  0  0
 45113  1  0  0  0
 46114  1  0  0  0
 47115  1  0  0  0
 47116  1  0  0  0
 48 56  1  0  0  0
 48 65  1  0  0  0
 48117  1  0  0  0
 49 50  1  0  0  0
 49 53  1  0  0  0
 49 64  1  0  0  0
 49118  1  0  0  0
 50 51  1  0  0  0
 50119  1  0  0  0
 50120  1  0  0  0
 51 52  1  0  0  0
 51121  1  0  0  0
 51122  1  0  0  0
 52123  1  0  0  0
 52124  1  0  0  0
 53 54  1  0  0  0
 54 55  2  0  0  0
 54125  1  0  0  0
 55 57  1  0  0  0
 55126  1  0  0  0
 56 69  2  0  0  0
 57 58  2  0  0  0
 57127  1  0  0  0
 58128  1  0  0  0
 59 60  1  0  0  0
 59 61  1  0  0  0
 59 62  1  0  0  0
 60129  1  0  0  0
 60130  1  0  0  0
 60131  1  0  0  0
 61132  1  0  0  0
 61133  1  0  0  0
 61134  1  0  0  0
 62135  1  0  0  0
 62136  1  0  0  0
 62137  1  0  0  0
 63 65  1  0  0  0
 63138  1  0  0  0
 63139  1  0  0  0
 63140  1  0  0  0
 64141  1  0  0  0
 65142  1  0  0  0
 68 80  1  0  0  0
 71 72  2  0  0  0
 71 73  1  0  0  0
 71143  1  0  0  0
 72 76  1  0  0  0
 72 81  1  0  0  0
 73 77  1  0  0  0
 73 82  2  0  0  0
 74 78  1  0  0  0
 74 81  2  0  0  0
 74 82  1  0  0  0
 75 76  1  0  0  0
 75144  1  0  0  0
 75145  1  0  0  0
 75146  1  0  0  0
 76147  1  0  0  0
 76148  1  0  0  0
 77 80  1  0  0  0
 77149  1  0  0  0
 77150  1  0  0  0
 78 79  1  0  0  0
 78151  1  0  0  0
 78152  1  0  0  0
 79 83  1  0  0  0
 79153  1  0  0  0
 79154  1  0  0  0
 80155  1  0  0  0
 80156  1  0  0  0
 83157  1  0  0  0
M  ISO  4   1 100  68 101  80 101  83 100
M  END
> <chiral flag>
0

> <version>
0

> <s_m_source_file>
/data/baiqing/PycharmProjects/Reinvent-master-3.2/result/LINK_invent/BTK/process_docking_weight1_custom_sum_contain_oxygen_bond_distance_aromatic_linkinvent_7_9_3/rearranged_h_0059.sdf

> <i_m_source_file_index>
52

> <r_mmod_Potential_Energy-OPLS-2005>
-225.218154907227

> <r_mmod_Stretch_Energy-OPLS-2005>
122.450462341309

> <r_mmod_Bend_Energy-OPLS-2005>
176.988647460938

> <r_mmod_Torsional_Energy-OPLS-2005>
229.12548828125

> <r_mmod_Improper_Torsional_Energy-OPLS-2005>
6.82401371002197

> <r_mmod_Van_der_Waal_Energy-OPLS-2005>
140.927642822266

> <r_mmod_Electrostatic_Energy-OPLS-2005>
-735.238342285156

> <r_mmod_Solvation_Energy-OPLS-2005>
-241.294631958008

> <b_mmod_Minimization_Converged-OPLS-2005>
0

> <r_mmod_RMS_Derivative-OPLS-2005>
2.57486033439636

$$$$
52
                    3D
 Structure written by MMmdl.
156164  0  0  1  0            999 V2000
  -30.6572  -14.5930   20.4594 C   0  0  0  0  0  0
  -30.4269  -12.3515   19.4435 C   0  0  0  0  0  0
  -29.4984  -12.4533   18.2145 C   0  0  0  0  0  0
  -28.0213  -12.3246   18.6330 C   0  0  0  0  0  0
  -27.6481  -13.2135   19.8503 C   0  0  2  0  0  0
  -28.6956  -13.0930   20.9784 C   0  0  0  0  0  0
  -25.2557  -13.8145   20.5682 C   0  0  0  0  0  0
  -24.1831  -13.0416   20.9191 C   0  0  0  0  0  0
  -24.6403  -11.6885   20.8753 C   0  0  0  0  0  0
  -23.9067  -10.4270   21.0415 C   0  0  0  0  0  0
  -24.3614   -9.4188   21.9193 C   0  0  0  0  0  0
  -23.6292   -8.2223   22.0759 C   0  0  0  0  0  0
  -22.4273   -8.0267   21.3541 C   0  0  0  0  0  0
  -21.9912   -9.0241   20.4640 C   0  0  0  0  0  0
  -22.7243  -10.2124   20.3054 C   0  0  0  0  0  0
  -21.6845   -6.0736   22.5287 C   0  0  0  0  0  0
  -21.4006   -6.5643   23.8219 C   0  0  0  0  0  0
  -21.3655   -5.6797   24.9181 C   0  0  0  0  0  0
  -21.6044   -4.3059   24.7233 C   0  0  0  0  0  0
  -21.8815   -3.8154   23.4353 C   0  0  0  0  0  0
  -21.9188   -4.6968   22.3413 C   0  0  0  0  0  0
  -22.7857  -13.5214   21.1856 C   0  0  0  0  0  0
  -22.1660   -4.2159   21.0987 F   0  0  0  0  0  0
  -21.5627   -3.4543   25.7745 F   0  0  0  0  0  0
  -30.0090  -13.3930   20.3972 N   0  0  0  0  0  0
  -26.2978  -12.9326   20.3290 N   0  0  0  0  0  0
  -25.9328  -11.6481   20.5758 N   0  0  0  0  0  0
  -22.0489  -12.8194   22.0397 N   0  0  0  0  0  0
  -25.4256  -15.1864   20.4093 N   0  0  0  0  0  0
  -31.8576  -14.6882   20.1856 O   0  0  0  0  0  0
  -21.6625   -6.8881   21.4243 O   0  0  0  0  0  0
  -22.3541  -14.5527   20.6721 O   0  0  0  0  0  0
  -24.6187  -31.8650   23.2044 C   0  0  0  0  0  0
  -25.9070  -32.4795   23.8359 C   0  0  1  0  0  0
  -27.2347  -27.3743   20.1041 C   0  0  0  0  0  0
  -25.5901  -33.8589   24.2304 N   0  0  0  0  0  0
  -23.4078  -30.4900   21.5433 C   0  0  2  0  0  0
  -24.8549  -28.9447   20.1111 C   0  0  0  0  0  0
  -22.7414  -29.4664   22.4922 C   0  0  0  0  0  0
  -18.0275  -28.1378   22.8492 C   0  0  0  0  0  0
  -24.1480  -36.7300   23.2633 C   0  0  0  0  0  0
  -25.9417  -30.8134   21.3651 C   0  0  0  0  0  0
  -26.0175  -29.4416   20.7118 C   0  0  0  0  0  0
  -27.2044  -28.6646   20.7032 C   0  0  0  0  0  0
  -26.0427  -26.9015   19.5052 C   0  0  0  0  0  0
  -24.8656  -27.6767   19.5057 C   0  0  0  0  0  0
  -23.6206  -29.8210   20.1582 C   0  0  0  0  0  0
  -25.4106  -36.3080   24.0323 C   0  0  1  0  0  0
  -20.5872  -28.3681   23.1289 C   0  0  2  0  0  0
  -20.6773  -26.9400   22.5412 C   0  0  0  0  0  0
  -19.5748  -26.6376   21.5210 C   0  0  0  0  0  0
  -18.1920  -26.7918   22.1616 C   0  0  0  0  0  0
  -19.1520  -28.8840   23.2902 C   0  0  0  0  0  0
  -18.9453  -30.1440   23.8930 C   0  0  0  0  0  0
  -17.6457  -30.6592   24.0567 C   0  0  0  0  0  0
  -25.9034  -34.9446   23.5109 C   0  0  0  0  0  0
  -16.5350  -29.9093   23.6330 C   0  0  0  0  0  0
  -16.7264  -28.6504   23.0354 C   0  0  0  0  0  0
  -26.4469  -31.6576   25.0694 C   0  0  0  0  0  0
  -25.3693  -31.3670   26.1414 C   0  0  0  0  0  0
  -27.0275  -30.3005   24.6085 C   0  0  0  0  0  0
  -27.6071  -32.4264   25.7436 C   0  0  0  0  0  0
  -27.5566  -37.1795   24.8469 C   0  0  0  0  0  0
  -21.4133  -29.3059   22.3687 N   0  0  0  0  0  0
  -26.4292  -37.3770   23.9398 N   0  0  0  0  0  0
  -24.6742  -31.0714   22.0952 N   0  0  0  0  0  0
  -23.4166  -28.8189   23.2963 O   0  0  0  0  0  0
  -28.4105  -26.6301   20.1528 O   0  0  0  0  0  0
  -26.5596  -34.8907   22.4673 O   0  0  0  0  0  0
  -23.5383  -32.1429   23.7434 O   0  0  0  0  0  0
  -27.8868  -20.7482   21.0059 C   0  0  0  0  0  0
  -29.9301  -20.3946   20.3409 C   0  0  0  0  0  0
  -28.9593  -21.3771   20.3031 C   0  0  0  0  0  0
  -29.8373  -16.3056   18.9342 C   0  0  0  0  0  0
  -29.0005  -22.7521   19.5977 C   0  0  0  0  0  0
  -28.4907  -24.0343   20.3577 C   0  0  0  0  0  0
  -30.1613  -18.0247   21.4005 C   0  0  0  0  0  0
  -29.3954  -16.6445   21.3137 C   0  0  0  0  0  0
  -28.5643  -25.3445   19.4847 C   0  0  0  0  0  0
  -28.1824  -19.5175   21.4328 N   0  0  0  0  0  0
  -29.4430  -19.2685   21.0040 N   0  0  0  0  0  0
  -29.8585  -15.6900   20.2675 N   0  0  0  0  0  0
  -31.4692  -12.4560   19.1350 H   0  0  0  0  0  0
  -30.3451  -11.3670   19.9056 H   0  0  0  0  0  0
  -29.7463  -11.6720   17.4949 H   0  0  0  0  0  0
  -29.6548  -13.3960   17.6944 H   0  0  0  0  0  0
  -27.8494  -11.2755   18.8778 H   0  0  0  0  0  0
  -27.3679  -12.5473   17.7890 H   0  0  0  0  0  0
  -27.6559  -14.2418   19.4916 H   0  0  0  0  0  0
  -28.6945  -12.0870   21.4008 H   0  0  0  0  0  0
  -28.4624  -13.7773   21.7955 H   0  0  0  0  0  0
  -25.2752   -9.5669   22.4776 H   0  0  0  0  0  0
  -23.9995   -7.4612   22.7480 H   0  0  0  0  0  0
  -21.0850   -8.8760   19.8950 H   0  0  0  0  0  0
  -22.3697  -10.9661   19.6170 H   0  0  0  0  0  0
  -21.1993   -7.6148   23.9723 H   0  0  0  0  0  0
  -21.1478   -6.0530   25.9083 H   0  0  0  0  0  0
  -22.0600   -2.7614   23.2854 H   0  0  0  0  0  0
  -22.4096  -11.9849   22.4776 H   0  0  0  0  0  0
  -21.1107  -13.1221   22.2584 H   0  0  0  0  0  0
  -24.6629  -15.8444   20.5243 H   0  0  0  0  0  0
  -26.2872  -15.6254   20.1119 H   0  0  0  0  0  0
  -26.7100  -32.5500   23.1098 H   0  0  0  0  0  0
  -25.0060  -33.9764   25.0454 H   0  0  0  0  0  0
  -22.6973  -31.3082   21.3984 H   0  0  0  0  0  0
  -23.3724  -35.9643   23.3302 H   0  0  0  0  0  0
  -24.3568  -36.8932   22.2041 H   0  0  0  0  0  0
  -23.7246  -37.6511   23.6660 H   0  0  0  0  0  0
  -26.0555  -31.5770   20.5941 H   0  0  0  0  0  0
  -26.8286  -30.8677   21.9829 H   0  0  0  0  0  0
  -28.1029  -29.0441   21.1692 H   0  0  0  0  0  0
  -25.9880  -25.9235   19.0525 H   0  0  0  0  0  0
  -23.9679  -27.2882   19.0446 H   0  0  0  0  0  0
  -23.7299  -30.5943   19.3962 H   0  0  0  0  0  0
  -22.7426  -29.2442   19.8600 H   0  0  0  0  0  0
  -25.1273  -36.1931   25.0808 H   0  0  0  0  0  0
  -20.9989  -28.3280   24.1396 H   0  0  0  0  0  0
  -20.5645  -26.2291   23.3615 H   0  0  0  0  0  0
  -21.6655  -26.7427   22.1213 H   0  0  0  0  0  0
  -19.6910  -25.6281   21.1230 H   0  0  0  0  0  0
  -19.6692  -27.3204   20.6742 H   0  0  0  0  0  0
  -17.4189  -26.6670   21.4013 H   0  0  0  0  0  0
  -18.0339  -26.0046   22.8990 H   0  0  0  0  0  0
  -19.7933  -30.7237   24.2318 H   0  0  0  0  0  0
  -17.5019  -31.6285   24.5142 H   0  0  0  0  0  0
  -15.5352  -30.3007   23.7645 H   0  0  0  0  0  0
  -15.8656  -28.0841   22.7054 H   0  0  0  0  0  0
  -24.5992  -30.6876   25.7770 H   0  0  0  0  0  0
  -24.8726  -32.2783   26.4747 H   0  0  0  0  0  0
  -25.8047  -30.8966   27.0244 H   0  0  0  0  0  0
  -26.2811  -29.6775   24.1161 H   0  0  0  0  0  0
  -27.4045  -29.7251   25.4554 H   0  0  0  0  0  0
  -27.8644  -30.4282   23.9211 H   0  0  0  0  0  0
  -27.2787  -33.3660   26.1887 H   0  0  0  0  0  0
  -28.3947  -32.6649   25.0270 H   0  0  0  0  0  0
  -28.0602  -31.8393   26.5435 H   0  0  0  0  0  0
  -28.2598  -38.0084   24.7539 H   0  0  0  0  0  0
  -28.1032  -36.2616   24.6267 H   0  0  0  0  0  0
  -27.2271  -37.1465   25.8870 H   0  0  0  0  0  0
  -20.9264  -29.8795   21.6944 H   0  0  0  0  0  0
  -26.0160  -38.2825   24.1448 H   0  0  0  0  0  0
  -26.8999  -21.1426   21.2091 H   0  0  0  0  0  0
  -30.9359  -20.4058   19.9421 H   0  0  0  0  0  0
  -28.9182  -16.8720   18.7832 H   0  0  0  0  0  0
  -29.8940  -15.5644   18.1373 H   0  0  0  0  0  0
  -30.6821  -16.9825   18.7988 H   0  0  0  0  0  0
  -28.4341  -22.6821   18.6693 H   0  0  0  0  0  0
  -30.0223  -22.9545   19.2722 H   0  0  0  0  0  0
  -29.0932  -24.1740   21.2551 H   0  0  0  0  0  0
  -27.4634  -23.8831   20.6962 H   0  0  0  0  0  0
  -31.1061  -17.9794   20.8582 H   0  0  0  0  0  0
  -30.4561  -18.1704   22.4407 H   0  0  0  0  0  0
  -28.3262  -16.8130   21.1862 H   0  0  0  0  0  0
  -29.4811  -16.1444   22.2793 H   0  0  0  0  0  0
  -27.9295  -25.2580   18.6036 H   0  0  0  0  0  0
  -29.5722  -25.3873   19.0683 H   0  0  0  0  0  0
  1 25  1  0  0  0
  1 30  2  0  0  0
  1 82  1  0  0  0
  2  3  1  0  0  0
  2 25  1  0  0  0
  2 83  1  0  0  0
  2 84  1  0  0  0
  3  4  1  0  0  0
  3 85  1  0  0  0
  3 86  1  0  0  0
  4  5  1  0  0  0
  4 87  1  0  0  0
  4 88  1  0  0  0
  5  6  1  0  0  0
  5 26  1  0  0  0
  5 89  1  0  0  0
  6 25  1  0  0  0
  6 90  1  0  0  0
  6 91  1  0  0  0
  7  8  2  0  0  0
  7 26  1  0  0  0
  7 29  1  0  0  0
  8  9  1  0  0  0
  8 22  1  0  0  0
  9 10  1  0  0  0
  9 27  2  0  0  0
 10 11  2  0  0  0
 10 15  1  0  0  0
 11 12  1  0  0  0
 11 92  1  0  0  0
 12 13  2  0  0  0
 12 93  1  0  0  0
 13 14  1  0  0  0
 13 31  1  0  0  0
 14 15  2  0  0  0
 14 94  1  0  0  0
 15 95  1  0  0  0
 16 17  2  0  0  0
 16 21  1  0  0  0
 16 31  1  0  0  0
 17 18  1  0  0  0
 17 96  1  0  0  0
 18 19  2  0  0  0
 18 97  1  0  0  0
 19 20  1  0  0  0
 19 24  1  0  0  0
 20 21  2  0  0  0
 20 98  1  0  0  0
 21 23  1  0  0  0
 22 28  1  0  0  0
 22 32  2  0  0  0
 26 27  1  0  0  0
 28 99  1  0  0  0
 28100  1  0  0  0
 29101  1  0  0  0
 29102  1  0  0  0
 33 34  1  0  0  0
 33 66  1  0  0  0
 33 70  2  0  0  0
 34 36  1  0  0  0
 34 59  1  0  0  0
 34103  1  0  0  0
 35 44  2  0  0  0
 35 45  1  0  0  0
 35 68  1  0  0  0
 36 56  1  0  0  0
 36104  1  0  0  0
 37 39  1  0  0  0
 37 47  1  0  0  0
 37 66  1  0  0  0
 37105  1  0  0  0
 38 43  2  0  0  0
 38 46  1  0  0  0
 38 47  1  0  0  0
 39 64  1  0  0  0
 39 67  2  0  0  0
 40 52  1  0  0  0
 40 53  2  0  0  0
 40 58  1  0  0  0
 41106  1  0  0  0
 41107  1  0  0  0
 41108  1  0  0  0
 41 48  1  0  0  0
 42 43  1  0  0  0
 42 66  1  0  0  0
 42109  1  0  0  0
 42110  1  0  0  0
 43 44  1  0  0  0
 44111  1  0  0  0
 45 46  2  0  0  0
 45112  1  0  0  0
 46113  1  0  0  0
 47114  1  0  0  0
 47115  1  0  0  0
 48 56  1  0  0  0
 48 65  1  0  0  0
 48116  1  0  0  0
 49 50  1  0  0  0
 49 53  1  0  0  0
 49 64  1  0  0  0
 49117  1  0  0  0
 50 51  1  0  0  0
 50118  1  0  0  0
 50119  1  0  0  0
 51 52  1  0  0  0
 51120  1  0  0  0
 51121  1  0  0  0
 52122  1  0  0  0
 52123  1  0  0  0
 53 54  1  0  0  0
 54 55  2  0  0  0
 54124  1  0  0  0
 55 57  1  0  0  0
 55125  1  0  0  0
 56 69  2  0  0  0
 57 58  2  0  0  0
 57126  1  0  0  0
 58127  1  0  0  0
 59 60  1  0  0  0
 59 61  1  0  0  0
 59 62  1  0  0  0
 60128  1  0  0  0
 60129  1  0  0  0
 60130  1  0  0  0
 61131  1  0  0  0
 61132  1  0  0  0
 61133  1  0  0  0
 62134  1  0  0  0
 62135  1  0  0  0
 62136  1  0  0  0
 63 65  1  0  0  0
 63137  1  0  0  0
 63138  1  0  0  0
 63139  1  0  0  0
 64140  1  0  0  0
 65141  1  0  0  0
 68 79  1  0  0  0
 71 73  1  0  0  0
 71 80  2  0  0  0
 71142  1  0  0  0
 72 73  2  0  0  0
 72 81  1  0  0  0
 72143  1  0  0  0
 73 75  1  0  0  0
 74 82  1  0  0  0
 74144  1  0  0  0
 74145  1  0  0  0
 74146  1  0  0  0
 75 76  1  0  0  0
 75147  1  0  0  0
 75148  1  0  0  0
 76 79  1  0  0  0
 76149  1  0  0  0
 76150  1  0  0  0
 77 78  1  0  0  0
 77 81  1  0  0  0
 77151  1  0  0  0
 77152  1  0  0  0
 78 82  1  0  0  0
 78153  1  0  0  0
 78154  1  0  0  0
 79155  1  0  0  0
 79156  1  0  0  0
 80 81  1  0  0  0
M  ISO  4   1 100  68 101  79 101  82 100
M  END
> <chiral flag>
0

> <version>
0

> <s_m_source_file>
/data/baiqing/PycharmProjects/Reinvent-master-3.2/result/LINK_invent/BTK/process_docking_weight1_custom_sum_contain_oxygen_bond_distance_aromatic_linkinvent_7_9_3/rearranged_h_0059.sdf

> <i_m_source_file_index>
53

> <r_mmod_Potential_Energy-OPLS-2005>
169.362823486328

> <r_mmod_Stretch_Energy-OPLS-2005>
56.1194458007812

> <r_mmod_Bend_Energy-OPLS-2005>
130.177108764648

> <r_mmod_Torsional_Energy-OPLS-2005>
308.987640380859

> <r_mmod_Improper_Torsional_Energy-OPLS-2005>
20.8095378875732

> <r_mmod_Van_der_Waal_Energy-OPLS-2005>
115.807174682617

> <r_mmod_Electrostatic_Energy-OPLS-2005>
-289.915008544922

> <r_mmod_Solvation_Energy-OPLS-2005>
-207.85920715332

> <b_mmod_Minimization_Converged-OPLS-2005>
0

> <r_mmod_RMS_Derivative-OPLS-2005>
2.92590498924255

$$$$
53
                    3D
 Structure written by MMmdl.
154162  0  0  1  0            999 V2000
  -30.4833  -15.0385   20.4227 C   0  0  0  0  0  0
  -30.4308  -12.6335   19.5307 C   0  0  0  0  0  0
  -29.5345  -12.4880   18.2746 C   0  0  0  0  0  0
  -28.0695  -12.2432   18.6894 C   0  0  0  0  0  0
  -27.6066  -13.2258   19.7911 C   0  0  2  0  0  0
  -28.6308  -13.2914   20.9396 C   0  0  0  0  0  0
  -25.2328  -13.8111   20.5540 C   0  0  0  0  0  0
  -24.1680  -13.0345   20.9210 C   0  0  0  0  0  0
  -24.6318  -11.6873   20.8702 C   0  0  0  0  0  0
  -23.8999  -10.4268   21.0367 C   0  0  0  0  0  0
  -24.3605   -9.4218   21.9150 C   0  0  0  0  0  0
  -23.6301   -8.2247   22.0770 C   0  0  0  0  0  0
  -22.4280   -8.0261   21.3558 C   0  0  0  0  0  0
  -21.9864   -9.0188   20.4642 C   0  0  0  0  0  0
  -22.7172  -10.2086   20.3005 C   0  0  0  0  0  0
  -21.6864   -6.0716   22.5308 C   0  0  0  0  0  0
  -21.4022   -6.5618   23.8260 C   0  0  0  0  0  0
  -21.3671   -5.6773   24.9205 C   0  0  0  0  0  0
  -21.6059   -4.3012   24.7246 C   0  0  0  0  0  0
  -21.8820   -3.8125   23.4364 C   0  0  0  0  0  0
  -21.9205   -4.6958   22.3424 C   0  0  0  0  0  0
  -22.7737  -13.5170   21.1910 C   0  0  0  0  0  0
  -22.1669   -4.2154   21.0996 F   0  0  0  0  0  0
  -21.5636   -3.4485   25.7748 F   0  0  0  0  0  0
  -29.9070  -13.7556   20.3749 N   0  0  0  0  0  0
  -26.2700  -12.9319   20.2890 N   0  0  0  0  0  0
  -25.9206  -11.6481   20.5559 N   0  0  0  0  0  0
  -22.0410  -12.8145   22.0509 N   0  0  0  0  0  0
  -25.3803  -15.1811   20.3960 N   0  0  0  0  0  0
  -31.6709  -15.0697   20.0737 O   0  0  0  0  0  0
  -21.6629   -6.8866   21.4284 O   0  0  0  0  0  0
  -22.3411  -14.5464   20.6762 O   0  0  0  0  0  0
  -24.6405  -31.8448   23.1906 C   0  0  0  0  0  0
  -25.9195  -32.4685   23.8285 C   0  0  1  0  0  0
  -27.2201  -27.1505   20.1396 C   0  0  0  0  0  0
  -25.5991  -33.8502   24.2217 N   0  0  0  0  0  0
  -23.4439  -30.4633   21.5372 C   0  0  2  0  0  0
  -24.8930  -28.8883   20.1148 C   0  0  0  0  0  0
  -22.7561  -29.4546   22.4889 C   0  0  0  0  0  0
  -18.0309  -28.1411   22.8488 C   0  0  0  0  0  0
  -24.1505  -36.7244   23.2646 C   0  0  0  0  0  0
  -25.9986  -30.7230   21.3866 C   0  0  0  0  0  0
  -26.0718  -29.3348   20.7247 C   0  0  0  0  0  0
  -27.2402  -28.4841   20.7124 C   0  0  0  0  0  0
  -26.0117  -26.7890   19.5103 C   0  0  0  0  0  0
  -24.8753  -27.6296   19.4931 C   0  0  0  0  0  0
  -23.6731  -29.7975   20.1547 C   0  0  0  0  0  0
  -25.4123  -36.3018   24.0319 C   0  0  1  0  0  0
  -20.5927  -28.3691   23.1299 C   0  0  2  0  0  0
  -20.6813  -26.9417   22.5428 C   0  0  0  0  0  0
  -19.5782  -26.6397   21.5240 C   0  0  0  0  0  0
  -18.1946  -26.7956   22.1627 C   0  0  0  0  0  0
  -19.1566  -28.8857   23.2884 C   0  0  0  0  0  0
  -18.9485  -30.1469   23.8897 C   0  0  0  0  0  0
  -17.6480  -30.6598   24.0566 C   0  0  0  0  0  0
  -25.9059  -34.9393   23.5052 C   0  0  0  0  0  0
  -16.5372  -29.9083   23.6365 C   0  0  0  0  0  0
  -16.7292  -28.6521   23.0350 C   0  0  0  0  0  0
  -26.4551  -31.6530   25.0691 C   0  0  0  0  0  0
  -25.3770  -31.3667   26.1384 C   0  0  0  0  0  0
  -27.0426  -30.2946   24.6231 C   0  0  0  0  0  0
  -27.6073  -32.4289   25.7488 C   0  0  0  0  0  0
  -27.5581  -37.1766   24.8467 C   0  0  0  0  0  0
  -21.4260  -29.3011   22.3645 N   0  0  0  0  0  0
  -26.4288  -37.3726   23.9409 N   0  0  0  0  0  0
  -24.7150  -31.0319   22.0937 N   0  0  0  0  0  0
  -23.4221  -28.8089   23.3005 O   0  0  0  0  0  0
  -28.3086  -26.2106   20.1168 O   0  0  0  0  0  0
  -26.5631  -34.8888   22.4620 O   0  0  0  0  0  0
  -23.5535  -32.1339   23.7126 O   0  0  0  0  0  0
  -28.5931  -21.1625   21.4098 C   0  0  0  0  0  0
  -29.4761  -20.6666   19.5366 C   0  0  0  0  0  0
  -28.9217  -21.8091   20.1685 C   0  0  0  0  0  0
  -30.3265  -16.7767   22.2812 C   0  0  0  0  0  0
  -28.2480  -16.4779   20.9420 C   0  0  0  0  0  0
  -28.7158  -23.3703   19.6333 C   0  0  0  0  0  0
  -30.0562  -17.9792   20.0132 C   0  0  0  0  0  0
  -28.1729  -24.7059   20.4945 C   0  0  0  0  0  0
  -29.7848  -16.5313   20.8581 C   0  0  0  0  0  0
  -28.9257  -19.8462   21.4948 N   0  0  0  0  0  0
  -29.4747  -19.4458   20.3115 N   0  0  0  0  0  0
  -31.4694  -12.7908   19.2436 H   0  0  0  0  0  0
  -30.4267  -11.7032   20.1010 H   0  0  0  0  0  0
  -29.8913  -11.6586   17.6582 H   0  0  0  0  0  0
  -29.5988  -13.3868   17.6612 H   0  0  0  0  0  0
  -28.0135  -11.2215   19.0711 H   0  0  0  0  0  0
  -27.4093  -12.2825   17.8245 H   0  0  0  0  0  0
  -27.5435  -14.1859   19.2790 H   0  0  0  0  0  0
  -28.7377  -12.3242   21.4262 H   0  0  0  0  0  0
  -28.2698  -13.9221   21.7393 H   0  0  0  0  0  0
  -25.2789   -9.5718   22.4645 H   0  0  0  0  0  0
  -24.0034   -7.4665   22.7491 H   0  0  0  0  0  0
  -21.0793   -8.8631   19.8965 H   0  0  0  0  0  0
  -22.3604  -10.9553   19.6040 H   0  0  0  0  0  0
  -21.1992   -7.6123   23.9769 H   0  0  0  0  0  0
  -21.1498   -6.0468   25.9120 H   0  0  0  0  0  0
  -22.0581   -2.7581   23.2839 H   0  0  0  0  0  0
  -22.4016  -11.9765   22.4813 H   0  0  0  0  0  0
  -21.1064  -13.1213   22.2819 H   0  0  0  0  0  0
  -24.6023  -15.8138   20.5369 H   0  0  0  0  0  0
  -26.2163  -15.6393   20.0605 H   0  0  0  0  0  0
  -26.7255  -32.5304   23.1013 H   0  0  0  0  0  0
  -25.0194  -33.9637   25.0401 H   0  0  0  0  0  0
  -22.7468  -31.2879   21.3878 H   0  0  0  0  0  0
  -23.3772  -35.9579   23.3294 H   0  0  0  0  0  0
  -24.3593  -36.8880   22.2069 H   0  0  0  0  0  0
  -23.7256  -37.6435   23.6675 H   0  0  0  0  0  0
  -26.1492  -31.4870   20.6233 H   0  0  0  0  0  0
  -26.8688  -30.7750   22.0288 H   0  0  0  0  0  0
  -28.1488  -28.8266   21.1894 H   0  0  0  0  0  0
  -25.9330  -25.8228   19.0315 H   0  0  0  0  0  0
  -23.9729  -27.2880   19.0052 H   0  0  0  0  0  0
  -23.8215  -30.5796   19.4097 H   0  0  0  0  0  0
  -22.7845  -29.2517   19.8295 H   0  0  0  0  0  0
  -25.1313  -36.1861   25.0816 H   0  0  0  0  0  0
  -21.0004  -28.3262   24.1424 H   0  0  0  0  0  0
  -20.5807  -26.2282   23.3620 H   0  0  0  0  0  0
  -21.6667  -26.7485   22.1177 H   0  0  0  0  0  0
  -19.6952  -25.6301   21.1275 H   0  0  0  0  0  0
  -19.6735  -27.3203   20.6786 H   0  0  0  0  0  0
  -17.4232  -26.6724   21.4023 H   0  0  0  0  0  0
  -18.0313  -26.0103   22.9029 H   0  0  0  0  0  0
  -19.7947  -30.7300   24.2261 H   0  0  0  0  0  0
  -17.5013  -31.6281   24.5145 H   0  0  0  0  0  0
  -15.5358  -30.2959   23.7688 H   0  0  0  0  0  0
  -15.8716  -28.0832   22.7045 H   0  0  0  0  0  0
  -24.5997  -30.6966   25.7705 H   0  0  0  0  0  0
  -24.8912  -32.2819   26.4764 H   0  0  0  0  0  0
  -25.8101  -30.8891   27.0181 H   0  0  0  0  0  0
  -26.3028  -29.6628   24.1304 H   0  0  0  0  0  0
  -27.4163  -29.7272   25.4765 H   0  0  0  0  0  0
  -27.8890  -30.4218   23.9475 H   0  0  0  0  0  0
  -27.2664  -33.3597   26.2038 H   0  0  0  0  0  0
  -28.3906  -32.6829   25.0336 H   0  0  0  0  0  0
  -28.0719  -31.8428   26.5429 H   0  0  0  0  0  0
  -28.2562  -38.0095   24.7507 H   0  0  0  0  0  0
  -28.1112  -36.2613   24.6295 H   0  0  0  0  0  0
  -27.2293  -37.1400   25.8868 H   0  0  0  0  0  0
  -20.9475  -29.8662   21.6776 H   0  0  0  0  0  0
  -26.0168  -38.2800   24.1415 H   0  0  0  0  0  0
  -28.1171  -21.6112   22.2753 H   0  0  0  0  0  0
  -29.9040  -20.6229   18.5435 H   0  0  0  0  0  0
  -29.8283  -17.6128   22.7673 H   0  0  0  0  0  0
  -31.3923  -17.0058   22.2512 H   0  0  0  0  0  0
  -30.2022  -15.9043   22.9250 H   0  0  0  0  0  0
  -27.8268  -16.1816   19.9851 H   0  0  0  0  0  0
  -27.8239  -17.4536   21.1740 H   0  0  0  0  0  0
  -27.8661  -15.8761   21.7603 H   0  0  0  0  0  0
  -28.0407  -23.3165   18.7760 H   0  0  0  0  0  0
  -29.6545  -23.6801   19.1693 H   0  0  0  0  0  0
  -31.1361  -18.1089   19.9708 H   0  0  0  0  0  0
  -29.7795  -17.7695   18.9775 H   0  0  0  0  0  0
  -28.7188  -24.6473   21.4359 H   0  0  0  0  0  0
  -27.1388  -24.5190   20.7798 H   0  0  0  0  0  0
  1 25  1  0  0  0
  1 30  2  0  0  0
  1 79  1  0  0  0
  2  3  1  0  0  0
  2 25  1  0  0  0
  2 82  1  0  0  0
  2 83  1  0  0  0
  3  4  1  0  0  0
  3 84  1  0  0  0
  3 85  1  0  0  0
  4  5  1  0  0  0
  4 86  1  0  0  0
  4 87  1  0  0  0
  5  6  1  0  0  0
  5 26  1  0  0  0
  5 88  1  0  0  0
  6 25  1  0  0  0
  6 89  1  0  0  0
  6 90  1  0  0  0
  7  8  2  0  0  0
  7 26  1  0  0  0
  7 29  1  0  0  0
  8  9  1  0  0  0
  8 22  1  0  0  0
  9 10  1  0  0  0
  9 27  2  0  0  0
 10 11  2  0  0  0
 10 15  1  0  0  0
 11 12  1  0  0  0
 11 91  1  0  0  0
 12 13  2  0  0  0
 12 92  1  0  0  0
 13 14  1  0  0  0
 13 31  1  0  0  0
 14 15  2  0  0  0
 14 93  1  0  0  0
 15 94  1  0  0  0
 16 17  2  0  0  0
 16 21  1  0  0  0
 16 31  1  0  0  0
 17 18  1  0  0  0
 17 95  1  0  0  0
 18 19  2  0  0  0
 18 96  1  0  0  0
 19 20  1  0  0  0
 19 24  1  0  0  0
 20 21  2  0  0  0
 20 97  1  0  0  0
 21 23  1  0  0  0
 22 28  1  0  0  0
 22 32  2  0  0  0
 26 27  1  0  0  0
 28 98  1  0  0  0
 28 99  1  0  0  0
 29100  1  0  0  0
 29101  1  0  0  0
 33 34  1  0  0  0
 33 66  1  0  0  0
 33 70  2  0  0  0
 34 36  1  0  0  0
 34 59  1  0  0  0
 34102  1  0  0  0
 35 44  2  0  0  0
 35 45  1  0  0  0
 35 68  1  0  0  0
 36 56  1  0  0  0
 36103  1  0  0  0
 37 39  1  0  0  0
 37 47  1  0  0  0
 37 66  1  0  0  0
 37104  1  0  0  0
 38 43  2  0  0  0
 38 46  1  0  0  0
 38 47  1  0  0  0
 39 64  1  0  0  0
 39 67  2  0  0  0
 40 52  1  0  0  0
 40 53  2  0  0  0
 40 58  1  0  0  0
 41105  1  0  0  0
 41106  1  0  0  0
 41107  1  0  0  0
 41 48  1  0  0  0
 42 43  1  0  0  0
 42 66  1  0  0  0
 42108  1  0  0  0
 42109  1  0  0  0
 43 44  1  0  0  0
 44110  1  0  0  0
 45 46  2  0  0  0
 45111  1  0  0  0
 46112  1  0  0  0
 47113  1  0  0  0
 47114  1  0  0  0
 48 56  1  0  0  0
 48 65  1  0  0  0
 48115  1  0  0  0
 49 50  1  0  0  0
 49 53  1  0  0  0
 49 64  1  0  0  0
 49116  1  0  0  0
 50 51  1  0  0  0
 50117  1  0  0  0
 50118  1  0  0  0
 51 52  1  0  0  0
 51119  1  0  0  0
 51120  1  0  0  0
 52121  1  0  0  0
 52122  1  0  0  0
 53 54  1  0  0  0
 54 55  2  0  0  0
 54123  1  0  0  0
 55 57  1  0  0  0
 55124  1  0  0  0
 56 69  2  0  0  0
 57 58  2  0  0  0
 57125  1  0  0  0
 58126  1  0  0  0
 59 60  1  0  0  0
 59 61  1  0  0  0
 59 62  1  0  0  0
 60127  1  0  0  0
 60128  1  0  0  0
 60129  1  0  0  0
 61130  1  0  0  0
 61131  1  0  0  0
 61132  1  0  0  0
 62133  1  0  0  0
 62134  1  0  0  0
 62135  1  0  0  0
 63 65  1  0  0  0
 63136  1  0  0  0
 63137  1  0  0  0
 63138  1  0  0  0
 64139  1  0  0  0
 65140  1  0  0  0
 68 78  1  0  0  0
 71 73  1  0  0  0
 71 80  2  0  0  0
 71141  1  0  0  0
 72 73  2  0  0  0
 72 81  1  0  0  0
 72142  1  0  0  0
 73 76  1  0  0  0
 74143  1  0  0  0
 74144  1  0  0  0
 74145  1  0  0  0
 74 79  1  0  0  0
 75 79  1  0  0  0
 75146  1  0  0  0
 75147  1  0  0  0
 75148  1  0  0  0
 76 78  1  0  0  0
 76149  1  0  0  0
 76150  1  0  0  0
 77 79  1  0  0  0
 77 81  1  0  0  0
 77151  1  0  0  0
 77152  1  0  0  0
 78153  1  0  0  0
 78154  1  0  0  0
 80 81  1  0  0  0
M  ISO  4   1 100  68 101  78 101  79 100
M  END
> <chiral flag>
0

> <version>
0

> <s_m_source_file>
/data/baiqing/PycharmProjects/Reinvent-master-3.2/result/LINK_invent/BTK/process_docking_weight1_custom_sum_contain_oxygen_bond_distance_aromatic_linkinvent_7_9_3/rearranged_h_0059.sdf

> <i_m_source_file_index>
54

> <r_mmod_Potential_Energy-OPLS-2005>
607.322814941406

> <r_mmod_Stretch_Energy-OPLS-2005>
279.663787841797

> <r_mmod_Bend_Energy-OPLS-2005>
294.145233154297

> <r_mmod_Torsional_Energy-OPLS-2005>
209.632217407227

> <r_mmod_Improper_Torsional_Energy-OPLS-2005>
1.84315419197083

> <r_mmod_Van_der_Waal_Energy-OPLS-2005>
116.010559082031

> <r_mmod_Electrostatic_Energy-OPLS-2005>
-311.548400878906

> <r_mmod_Solvation_Energy-OPLS-2005>
-198.989196777344

> <b_mmod_Minimization_Converged-OPLS-2005>
0

> <r_mmod_RMS_Derivative-OPLS-2005>
6.06263542175293

$$$$
54
                    3D
 Structure written by MMmdl.
155163  0  0  1  0            999 V2000
  -30.7116  -14.5949   20.5227 C   0  0  0  0  0  0
  -30.4189  -12.3647   19.4633 C   0  0  0  0  0  0
  -29.4996  -12.4881   18.2302 C   0  0  0  0  0  0
  -28.0268  -12.3262   18.6463 C   0  0  0  0  0  0
  -27.6495  -13.2198   19.8560 C   0  0  2  0  0  0
  -28.6949  -13.1236   20.9915 C   0  0  0  0  0  0
  -25.2561  -13.8180   20.5709 C   0  0  0  0  0  0
  -24.1827  -13.0441   20.9196 C   0  0  0  0  0  0
  -24.6403  -11.6913   20.8755 C   0  0  0  0  0  0
  -23.9075  -10.4291   21.0412 C   0  0  0  0  0  0
  -24.3622   -9.4204   21.9192 C   0  0  0  0  0  0
  -23.6293   -8.2242   22.0760 C   0  0  0  0  0  0
  -22.4281   -8.0283   21.3544 C   0  0  0  0  0  0
  -21.9921   -9.0256   20.4644 C   0  0  0  0  0  0
  -22.7254  -10.2132   20.3053 C   0  0  0  0  0  0
  -21.6852   -6.0739   22.5274 C   0  0  0  0  0  0
  -21.4013   -6.5641   23.8212 C   0  0  0  0  0  0
  -21.3658   -5.6791   24.9172 C   0  0  0  0  0  0
  -21.6041   -4.3057   24.7219 C   0  0  0  0  0  0
  -21.8821   -3.8149   23.4344 C   0  0  0  0  0  0
  -21.9198   -4.6966   22.3399 C   0  0  0  0  0  0
  -22.7848  -13.5229   21.1857 C   0  0  0  0  0  0
  -22.1662   -4.2157   21.0977 F   0  0  0  0  0  0
  -21.5632   -3.4537   25.7730 F   0  0  0  0  0  0
  -30.0209  -13.4124   20.4288 N   0  0  0  0  0  0
  -26.2986  -12.9369   20.3337 N   0  0  0  0  0  0
  -25.9338  -11.6524   20.5791 N   0  0  0  0  0  0
  -22.0492  -12.8200   22.0396 N   0  0  0  0  0  0
  -25.4281  -15.1906   20.4143 N   0  0  0  0  0  0
  -31.8587  -14.6518   20.0744 O   0  0  0  0  0  0
  -21.6644   -6.8881   21.4238 O   0  0  0  0  0  0
  -22.3531  -14.5544   20.6723 O   0  0  0  0  0  0
  -24.6267  -31.8632   23.2089 C   0  0  0  0  0  0
  -25.9119  -32.4800   23.8402 C   0  0  1  0  0  0
  -27.2119  -27.3267   20.0982 C   0  0  0  0  0  0
  -25.5964  -33.8605   24.2326 N   0  0  0  0  0  0
  -23.4200  -30.4941   21.5511 C   0  0  2  0  0  0
  -24.8652  -28.9675   20.1047 C   0  0  0  0  0  0
  -22.7485  -29.4646   22.4924 C   0  0  0  0  0  0
  -18.0290  -28.1377   22.8491 C   0  0  0  0  0  0
  -24.1489  -36.7275   23.2643 C   0  0  0  0  0  0
  -25.9656  -30.7913   21.3873 C   0  0  0  0  0  0
  -26.0348  -29.4235   20.7244 C   0  0  0  0  0  0
  -27.2093  -28.6108   20.7256 C   0  0  0  0  0  0
  -26.0249  -26.9592   19.4119 C   0  0  0  0  0  0
  -24.8625  -27.7389   19.4394 C   0  0  0  0  0  0
  -23.6349  -29.8457   20.1615 C   0  0  0  0  0  0
  -25.4112  -36.3094   24.0342 C   0  0  1  0  0  0
  -20.5899  -28.3682   23.1275 C   0  0  2  0  0  0
  -20.6788  -26.9407   22.5390 C   0  0  0  0  0  0
  -19.5754  -26.6390   21.5208 C   0  0  0  0  0  0
  -18.1933  -26.7931   22.1614 C   0  0  0  0  0  0
  -19.1548  -28.8846   23.2885 C   0  0  0  0  0  0
  -18.9472  -30.1454   23.8896 C   0  0  0  0  0  0
  -17.6468  -30.6580   24.0575 C   0  0  0  0  0  0
  -25.9049  -34.9465   23.5121 C   0  0  0  0  0  0
  -16.5356  -29.9074   23.6341 C   0  0  0  0  0  0
  -16.7276  -28.6495   23.0351 C   0  0  0  0  0  0
  -26.4509  -31.6600   25.0761 C   0  0  0  0  0  0
  -25.3751  -31.3699   26.1488 C   0  0  0  0  0  0
  -27.0385  -30.3055   24.6177 C   0  0  0  0  0  0
  -27.6077  -32.4337   25.7513 C   0  0  0  0  0  0
  -27.5574  -37.1795   24.8475 C   0  0  0  0  0  0
  -21.4200  -29.3056   22.3674 N   0  0  0  0  0  0
  -26.4283  -37.3794   23.9423 N   0  0  0  0  0  0
  -24.6895  -31.0656   22.1045 N   0  0  0  0  0  0
  -23.4225  -28.8156   23.2970 O   0  0  0  0  0  0
  -28.2938  -26.4254   20.1887 O   0  0  0  0  0  0
  -26.5585  -34.8926   22.4667 O   0  0  0  0  0  0
  -23.5423  -32.1428   23.7405 O   0  0  0  0  0  0
  -29.8026  -23.1829   19.4870 C   0  0  0  0  0  0
  -28.2119  -22.8951   21.2026 C   0  0  0  0  0  0
  -28.7662  -23.7649   20.2410 C   0  0  0  0  0  0
  -29.4874  -21.0978   20.4819 C   0  0  0  0  0  0
  -27.9889  -25.0379   19.7801 C   0  0  0  0  0  0
  -29.6117  -19.5446   20.3377 C   0  0  0  0  0  0
  -30.0789  -15.9507   21.0572 C   0  0  0  0  0  0
  -30.5636  -18.7328   21.2971 C   0  0  2  0  0  0
  -30.9769  -17.2552   20.8319 C   0  0  0  0  0  0
  -30.0658  -18.7835   22.7607 C   0  0  0  0  0  0
  -30.1504  -21.8698   19.6126 N   0  0  0  0  0  0
  -28.5553  -21.5820   21.3011 N   0  0  0  0  0  0
  -29.8395  -15.8018   22.3599 F   0  0  0  0  0  0
  -28.9106  -16.1571   20.4469 F   0  0  0  0  0  0
  -31.7195  -19.4113   21.2557 F   0  0  0  0  0  0
  -32.1234  -16.9876   21.4671 F   0  0  0  0  0  0
  -31.2772  -17.3307   19.5318 F   0  0  0  0  0  0
  -28.8373  -18.2738   22.8397 F   0  0  0  0  0  0
  -30.8651  -18.0816   23.5641 F   0  0  0  0  0  0
  -30.0278  -20.0314   23.2253 F   0  0  0  0  0  0
  -31.4648  -12.4367   19.1592 H   0  0  0  0  0  0
  -30.3155  -11.3788   19.9202 H   0  0  0  0  0  0
  -29.7599  -11.7300   17.4909 H   0  0  0  0  0  0
  -29.6477  -13.4551   17.7470 H   0  0  0  0  0  0
  -27.8731  -11.2770   18.9032 H   0  0  0  0  0  0
  -27.3665  -12.5306   17.8026 H   0  0  0  0  0  0
  -27.6535  -14.2428   19.4835 H   0  0  0  0  0  0
  -28.6892  -12.1278   21.4374 H   0  0  0  0  0  0
  -28.4441  -13.8142   21.7963 H   0  0  0  0  0  0
  -25.2765   -9.5682   22.4774 H   0  0  0  0  0  0
  -24.0002   -7.4633   22.7478 H   0  0  0  0  0  0
  -21.0862   -8.8775   19.8939 H   0  0  0  0  0  0
  -22.3723  -10.9671   19.6160 H   0  0  0  0  0  0
  -21.1996   -7.6148   23.9716 H   0  0  0  0  0  0
  -21.1477   -6.0520   25.9075 H   0  0  0  0  0  0
  -22.0602   -2.7613   23.2839 H   0  0  0  0  0  0
  -22.4095  -11.9836   22.4747 H   0  0  0  0  0  0
  -21.1116  -13.1225   22.2613 H   0  0  0  0  0  0
  -24.6630  -15.8465   20.5269 H   0  0  0  0  0  0
  -26.2890  -15.6332   20.1202 H   0  0  0  0  0  0
  -26.7180  -32.5473   23.1144 H   0  0  0  0  0  0
  -25.0234  -33.9766   25.0550 H   0  0  0  0  0  0
  -22.7130  -31.3148   21.4145 H   0  0  0  0  0  0
  -23.3783  -35.9581   23.3306 H   0  0  0  0  0  0
  -24.3593  -36.8870   22.2061 H   0  0  0  0  0  0
  -23.7193  -37.6460   23.6643 H   0  0  0  0  0  0
  -26.1047  -31.5571   20.6234 H   0  0  0  0  0  0
  -26.8454  -30.8337   22.0174 H   0  0  0  0  0  0
  -28.0988  -28.9461   21.2402 H   0  0  0  0  0  0
  -25.9377  -26.0493   18.8383 H   0  0  0  0  0  0
  -23.9758  -27.3956   18.9258 H   0  0  0  0  0  0
  -23.7557  -30.6319   19.4155 H   0  0  0  0  0  0
  -22.7542  -29.2803   19.8515 H   0  0  0  0  0  0
  -25.1280  -36.1961   25.0831 H   0  0  0  0  0  0
  -20.9991  -28.3241   24.1393 H   0  0  0  0  0  0
  -20.5722  -26.2276   23.3577 H   0  0  0  0  0  0
  -21.6641  -26.7452   22.1147 H   0  0  0  0  0  0
  -19.6926  -25.6310   21.1201 H   0  0  0  0  0  0
  -19.6694  -27.3235   20.6763 H   0  0  0  0  0  0
  -17.4204  -26.6705   21.4013 H   0  0  0  0  0  0
  -18.0321  -26.0061   22.8991 H   0  0  0  0  0  0
  -19.7952  -30.7285   24.2242 H   0  0  0  0  0  0
  -17.5019  -31.6259   24.5181 H   0  0  0  0  0  0
  -15.5357  -30.2972   23.7680 H   0  0  0  0  0  0
  -15.8674  -28.0825   22.7048 H   0  0  0  0  0  0
  -24.5954  -30.7016   25.7813 H   0  0  0  0  0  0
  -24.8921  -32.2849   26.4927 H   0  0  0  0  0  0
  -25.8099  -30.8882   27.0253 H   0  0  0  0  0  0
  -26.2973  -29.6788   24.1209 H   0  0  0  0  0  0
  -27.4154  -29.7307   25.4641 H   0  0  0  0  0  0
  -27.8797  -30.4407   23.9377 H   0  0  0  0  0  0
  -27.2714  -33.3664   26.2049 H   0  0  0  0  0  0
  -28.3900  -32.6840   25.0336 H   0  0  0  0  0  0
  -28.0731  -31.8487   26.5452 H   0  0  0  0  0  0
  -28.2575  -38.0109   24.7548 H   0  0  0  0  0  0
  -28.1076  -36.2637   24.6263 H   0  0  0  0  0  0
  -27.2292  -37.1384   25.8876 H   0  0  0  0  0  0
  -20.9353  -29.8827   21.6941 H   0  0  0  0  0  0
  -26.0170  -38.2862   24.1458 H   0  0  0  0  0  0
  -30.2665  -23.7245   18.6759 H   0  0  0  0  0  0
  -27.3704  -23.2071   21.8049 H   0  0  0  0  0  0
  -26.9844  -24.7891   20.1228 H   0  0  0  0  0  0
  -27.9592  -25.0147   18.6893 H   0  0  0  0  0  0
  -29.9280  -19.3617   19.3112 H   0  0  0  0  0  0
  -28.6104  -19.1184   20.3968 H   0  0  0  0  0  0
  1 25  1  0  0  0
  1 30  2  0  0  0
  1 77  1  0  0  0
  2  3  1  0  0  0
  2 25  1  0  0  0
  2 91  1  0  0  0
  2 92  1  0  0  0
  3  4  1  0  0  0
  3 93  1  0  0  0
  3 94  1  0  0  0
  4  5  1  0  0  0
  4 95  1  0  0  0
  4 96  1  0  0  0
  5  6  1  0  0  0
  5 26  1  0  0  0
  5 97  1  0  0  0
  6 25  1  0  0  0
  6 98  1  0  0  0
  6 99  1  0  0  0
  7  8  2  0  0  0
  7 26  1  0  0  0
  7 29  1  0  0  0
  8  9  1  0  0  0
  8 22  1  0  0  0
  9 10  1  0  0  0
  9 27  2  0  0  0
 10 11  2  0  0  0
 10 15  1  0  0  0
 11 12  1  0  0  0
 11100  1  0  0  0
 12 13  2  0  0  0
 12101  1  0  0  0
 13 14  1  0  0  0
 13 31  1  0  0  0
 14 15  2  0  0  0
 14102  1  0  0  0
 15103  1  0  0  0
 16 17  2  0  0  0
 16 21  1  0  0  0
 16 31  1  0  0  0
 17 18  1  0  0  0
 17104  1  0  0  0
 18 19  2  0  0  0
 18105  1  0  0  0
 19 20  1  0  0  0
 19 24  1  0  0  0
 20 21  2  0  0  0
 20106  1  0  0  0
 21 23  1  0  0  0
 22 28  1  0  0  0
 22 32  2  0  0  0
 26 27  1  0  0  0
 28107  1  0  0  0
 28108  1  0  0  0
 29109  1  0  0  0
 29110  1  0  0  0
 33 34  1  0  0  0
 33 66  1  0  0  0
 33 70  2  0  0  0
 34 36  1  0  0  0
 34 59  1  0  0  0
 34111  1  0  0  0
 35 44  2  0  0  0
 35 45  1  0  0  0
 35 68  1  0  0  0
 36 56  1  0  0  0
 36112  1  0  0  0
 37 39  1  0  0  0
 37 47  1  0  0  0
 37 66  1  0  0  0
 37113  1  0  0  0
 38 43  2  0  0  0
 38 46  1  0  0  0
 38 47  1  0  0  0
 39 64  1  0  0  0
 39 67  2  0  0  0
 40 52  1  0  0  0
 40 53  2  0  0  0
 40 58  1  0  0  0
 41114  1  0  0  0
 41115  1  0  0  0
 41116  1  0  0  0
 41 48  1  0  0  0
 42 43  1  0  0  0
 42 66  1  0  0  0
 42117  1  0  0  0
 42118  1  0  0  0
 43 44  1  0  0  0
 44119  1  0  0  0
 45 46  2  0  0  0
 45120  1  0  0  0
 46121  1  0  0  0
 47122  1  0  0  0
 47123  1  0  0  0
 48 56  1  0  0  0
 48 65  1  0  0  0
 48124  1  0  0  0
 49 50  1  0  0  0
 49 53  1  0  0  0
 49 64  1  0  0  0
 49125  1  0  0  0
 50 51  1  0  0  0
 50126  1  0  0  0
 50127  1  0  0  0
 51 52  1  0  0  0
 51128  1  0  0  0
 51129  1  0  0  0
 52130  1  0  0  0
 52131  1  0  0  0
 53 54  1  0  0  0
 54 55  2  0  0  0
 54132  1  0  0  0
 55 57  1  0  0  0
 55133  1  0  0  0
 56 69  2  0  0  0
 57 58  2  0  0  0
 57134  1  0  0  0
 58135  1  0  0  0
 59 60  1  0  0  0
 59 61  1  0  0  0
 59 62  1  0  0  0
 60136  1  0  0  0
 60137  1  0  0  0
 60138  1  0  0  0
 61139  1  0  0  0
 61140  1  0  0  0
 61141  1  0  0  0
 62142  1  0  0  0
 62143  1  0  0  0
 62144  1  0  0  0
 63 65  1  0  0  0
 63145  1  0  0  0
 63146  1  0  0  0
 63147  1  0  0  0
 64148  1  0  0  0
 65149  1  0  0  0
 68 75  1  0  0  0
 71 73  2  0  0  0
 71 81  1  0  0  0
 71150  1  0  0  0
 72 73  1  0  0  0
 72 82  2  0  0  0
 72151  1  0  0  0
 73 75  1  0  0  0
 74 76  1  0  0  0
 74 81  2  0  0  0
 74 82  1  0  0  0
 75152  1  0  0  0
 75153  1  0  0  0
 76 78  1  0  0  0
 76154  1  0  0  0
 76155  1  0  0  0
 77 79  1  0  0  0
 77 83  1  0  0  0
 77 84  1  0  0  0
 78 79  1  0  0  0
 78 80  1  0  0  0
 78 85  1  0  0  0
 79 86  1  0  0  0
 79 87  1  0  0  0
 80 88  1  0  0  0
 80 89  1  0  0  0
 80 90  1  0  0  0
M  ISO  4   1 100  68 101  75 101  77 100
M  END
> <chiral flag>
0

> <version>
0

> <s_m_source_file>
/data/baiqing/PycharmProjects/Reinvent-master-3.2/result/LINK_invent/BTK/process_docking_weight1_custom_sum_contain_oxygen_bond_distance_aromatic_linkinvent_7_9_3/rearranged_h_0059.sdf

> <i_m_source_file_index>
55

> <r_mmod_Potential_Energy-OPLS-2005>
-331.607116699219

> <r_mmod_Stretch_Energy-OPLS-2005>
76.2796401977539

> <r_mmod_Bend_Energy-OPLS-2005>
153.077880859375

> <r_mmod_Torsional_Energy-OPLS-2005>
158.779998779297

> <r_mmod_Improper_Torsional_Energy-OPLS-2005>
8.48170471191406

> <r_mmod_Van_der_Waal_Energy-OPLS-2005>
175.563415527344

> <r_mmod_Electrostatic_Energy-OPLS-2005>
-759.596008300781

> <r_mmod_Solvation_Energy-OPLS-2005>
-193.413955688477

> <b_mmod_Minimization_Converged-OPLS-2005>
0

> <r_mmod_RMS_Derivative-OPLS-2005>
1.74309468269348

$$$$
55
                    3D
 Structure written by MMmdl.
158166  0  0  1  0            999 V2000
  -30.6791  -14.4311   20.6480 C   0  0  0  0  0  0
  -30.4470  -12.3165   19.3864 C   0  0  0  0  0  0
  -29.4924  -12.5230   18.1893 C   0  0  0  0  0  0
  -28.0070  -12.4052   18.5956 C   0  0  0  0  0  0
  -27.6698  -13.1957   19.8861 C   0  0  2  0  0  0
  -28.7125  -12.8874   20.9790 C   0  0  0  0  0  0
  -25.2635  -13.8136   20.5696 C   0  0  0  0  0  0
  -24.1855  -13.0431   20.9182 C   0  0  0  0  0  0
  -24.6382  -11.6900   20.8737 C   0  0  0  0  0  0
  -23.9044  -10.4296   21.0398 C   0  0  0  0  0  0
  -24.3605   -9.4213   21.9170 C   0  0  0  0  0  0
  -23.6286   -8.2241   22.0744 C   0  0  0  0  0  0
  -22.4267   -8.0280   21.3541 C   0  0  0  0  0  0
  -21.9897   -9.0250   20.4643 C   0  0  0  0  0  0
  -22.7216  -10.2134   20.3050 C   0  0  0  0  0  0
  -21.6843   -6.0736   22.5273 C   0  0  0  0  0  0
  -21.4000   -6.5635   23.8207 C   0  0  0  0  0  0
  -21.3654   -5.6790   24.9167 C   0  0  0  0  0  0
  -21.6044   -4.3056   24.7218 C   0  0  0  0  0  0
  -21.8825   -3.8151   23.4336 C   0  0  0  0  0  0
  -21.9200   -4.6968   22.3397 C   0  0  0  0  0  0
  -22.7878  -13.5254   21.1825 C   0  0  0  0  0  0
  -22.1666   -4.2155   21.0972 F   0  0  0  0  0  0
  -21.5644   -3.4534   25.7731 F   0  0  0  0  0  0
  -30.0425  -13.2443   20.4532 N   0  0  0  0  0  0
  -26.3066  -12.9280   20.3408 N   0  0  0  0  0  0
  -25.9310  -11.6453   20.5759 N   0  0  0  0  0  0
  -22.0494  -12.8267   22.0385 N   0  0  0  0  0  0
  -25.4400  -15.1839   20.4094 N   0  0  0  0  0  0
  -31.7808  -14.6761   20.1444 O   0  0  0  0  0  0
  -21.6629   -6.8872   21.4233 O   0  0  0  0  0  0
  -22.3587  -14.5564   20.6672 O   0  0  0  0  0  0
  -24.6155  -31.8665   23.2076 C   0  0  0  0  0  0
  -25.9070  -32.4788   23.8360 C   0  0  1  0  0  0
  -27.2618  -27.4431   20.0869 C   0  0  0  0  0  0
  -25.5937  -33.8586   24.2267 N   0  0  0  0  0  0
  -23.4044  -30.4878   21.5447 C   0  0  2  0  0  0
  -24.8586  -28.9493   20.1176 C   0  0  0  0  0  0
  -22.7416  -29.4653   22.4958 C   0  0  0  0  0  0
  -18.0281  -28.1402   22.8515 C   0  0  0  0  0  0
  -24.1500  -36.7317   23.2627 C   0  0  0  0  0  0
  -25.9331  -30.8325   21.3664 C   0  0  0  0  0  0
  -26.0136  -29.4661   20.7144 C   0  0  0  0  0  0
  -27.2111  -28.7150   20.7035 C   0  0  0  0  0  0
  -26.0810  -26.9316   19.5014 C   0  0  0  0  0  0
  -24.8855  -27.6771   19.5193 C   0  0  0  0  0  0
  -23.6196  -29.8156   20.1614 C   0  0  0  0  0  0
  -25.4112  -36.3068   24.0309 C   0  0  1  0  0  0
  -20.5874  -28.3669   23.1345 C   0  0  2  0  0  0
  -20.6788  -26.9405   22.5442 C   0  0  0  0  0  0
  -19.5754  -26.6398   21.5256 C   0  0  0  0  0  0
  -18.1916  -26.7953   22.1656 C   0  0  0  0  0  0
  -19.1527  -28.8857   23.2923 C   0  0  0  0  0  0
  -18.9466  -30.1459   23.8907 C   0  0  0  0  0  0
  -17.6469  -30.6605   24.0593 C   0  0  0  0  0  0
  -25.9059  -34.9447   23.5062 C   0  0  0  0  0  0
  -16.5356  -29.9112   23.6355 C   0  0  0  0  0  0
  -16.7269  -28.6551   23.0337 C   0  0  0  0  0  0
  -26.4502  -31.6608   25.0726 C   0  0  0  0  0  0
  -25.3760  -31.3780   26.1477 C   0  0  0  0  0  0
  -27.0348  -30.3035   24.6162 C   0  0  0  0  0  0
  -27.6025  -32.4360   25.7536 C   0  0  0  0  0  0
  -27.5569  -37.1793   24.8439 C   0  0  0  0  0  0
  -21.4133  -29.3036   22.3724 N   0  0  0  0  0  0
  -26.4279  -37.3774   23.9400 N   0  0  0  0  0  0
  -24.6676  -31.0780   22.0968 N   0  0  0  0  0  0
  -23.4186  -28.8171   23.2987 O   0  0  0  0  0  0
  -28.4660  -26.7611   20.1025 O   0  0  0  0  0  0
  -26.5613  -34.8914   22.4615 O   0  0  0  0  0  0
  -23.5347  -32.1393   23.7499 O   0  0  0  0  0  0
  -28.6022  -22.3225   20.5377 C   0  0  0  0  0  0
  -28.5411  -24.3348   19.9167 C   0  0  0  0  0  0
  -31.9693  -18.1316   20.3435 C   0  0  0  0  0  0
  -28.9383  -20.8539   20.6242 C   0  0  0  0  0  0
  -28.7074  -25.6598   19.2071 C   0  0  0  0  0  0
  -29.9344  -15.5536   21.4090 C   0  0  0  0  0  0
  -30.2880  -20.5656   21.3295 C   0  0  0  0  0  0
  -30.7776  -16.7259   21.9761 C   0  0  0  0  0  0
  -30.4386  -19.1772   22.0177 C   0  0  0  0  0  0
  -29.1127  -23.1638   19.5919 N   0  0  0  0  0  0
  -27.8004  -22.9012   21.4282 N   0  0  0  0  0  0
  -30.7392  -17.9830   21.1606 N   0  3  1  0  0  0
  -27.7453  -24.2420   21.0129 O   0  0  0  0  0  0
  -31.4772  -12.4812   19.0648 H   0  0  0  0  0  0
  -30.4139  -11.2883   19.7474 H   0  0  0  0  0  0
  -29.7182  -11.8012   17.4037 H   0  0  0  0  0  0
  -29.6695  -13.5079   17.7563 H   0  0  0  0  0  0
  -27.7751  -11.3490   18.7349 H   0  0  0  0  0  0
  -27.3723  -12.7511   17.7783 H   0  0  0  0  0  0
  -27.7372  -14.2558   19.6482 H   0  0  0  0  0  0
  -28.6981  -11.8191   21.2032 H   0  0  0  0  0  0
  -28.4485  -13.3612   21.9225 H   0  0  0  0  0  0
  -25.2736   -9.5692   22.4748 H   0  0  0  0  0  0
  -24.0003   -7.4626   22.7454 H   0  0  0  0  0  0
  -21.0832   -8.8766   19.8934 H   0  0  0  0  0  0
  -22.3665  -10.9683   19.6177 H   0  0  0  0  0  0
  -21.1961   -7.6136   23.9710 H   0  0  0  0  0  0
  -21.1475   -6.0512   25.9073 H   0  0  0  0  0  0
  -22.0607   -2.7614   23.2831 H   0  0  0  0  0  0
  -22.4104  -11.9946   22.4823 H   0  0  0  0  0  0
  -21.1093  -13.1288   22.2515 H   0  0  0  0  0  0
  -24.6816  -15.8481   20.5221 H   0  0  0  0  0  0
  -26.2967  -15.6141   20.0840 H   0  0  0  0  0  0
  -26.7154  -32.5545   23.1134 H   0  0  0  0  0  0
  -25.0123  -33.9742   25.0434 H   0  0  0  0  0  0
  -22.6925  -31.3034   21.3939 H   0  0  0  0  0  0
  -23.3742  -35.9681   23.3275 H   0  0  0  0  0  0
  -24.3569  -36.8960   22.2042 H   0  0  0  0  0  0
  -23.7310  -37.6519   23.6697 H   0  0  0  0  0  0
  -26.0510  -31.6034   20.6027 H   0  0  0  0  0  0
  -26.8164  -30.8820   21.9919 H   0  0  0  0  0  0
  -28.1036  -29.1086   21.1682 H   0  0  0  0  0  0
  -26.0604  -25.9548   19.0428 H   0  0  0  0  0  0
  -23.9960  -27.2578   19.0709 H   0  0  0  0  0  0
  -23.7347  -30.5866   19.3977 H   0  0  0  0  0  0
  -22.7483  -29.2321   19.8630 H   0  0  0  0  0  0
  -25.1296  -36.1885   25.0810 H   0  0  0  0  0  0
  -20.9964  -28.3268   24.1477 H   0  0  0  0  0  0
  -20.5804  -26.2241   23.3613 H   0  0  0  0  0  0
  -21.6637  -26.7536   22.1147 H   0  0  0  0  0  0
  -19.6929  -25.6328   21.1253 H   0  0  0  0  0  0
  -19.6719  -27.3251   20.6823 H   0  0  0  0  0  0
  -17.4200  -26.6724   21.4039 H   0  0  0  0  0  0
  -18.0274  -26.0096   22.9053 H   0  0  0  0  0  0
  -19.7940  -30.7263   24.2269 H   0  0  0  0  0  0
  -17.5046  -31.6287   24.5170 H   0  0  0  0  0  0
  -15.5365  -30.3018   23.7692 H   0  0  0  0  0  0
  -15.8667  -28.0909   22.6999 H   0  0  0  0  0  0
  -24.5933  -30.7100   25.7865 H   0  0  0  0  0  0
  -24.8964  -32.2971   26.4866 H   0  0  0  0  0  0
  -25.8118  -30.9030   27.0276 H   0  0  0  0  0  0
  -26.2938  -29.6765   24.1191 H   0  0  0  0  0  0
  -27.4029  -29.7313   25.4678 H   0  0  0  0  0  0
  -27.8805  -30.4276   23.9386 H   0  0  0  0  0  0
  -27.2592  -33.3671   26.2070 H   0  0  0  0  0  0
  -28.3920  -32.6887   25.0450 H   0  0  0  0  0  0
  -28.0605  -31.8515   26.5519 H   0  0  0  0  0  0
  -28.2528  -38.0140   24.7497 H   0  0  0  0  0  0
  -28.1105  -36.2642   24.6244 H   0  0  0  0  0  0
  -27.2264  -37.1416   25.8834 H   0  0  0  0  0  0
  -20.9260  -29.8766   21.6977 H   0  0  0  0  0  0
  -26.0133  -38.2838   24.1436 H   0  0  0  0  0  0
  -32.1596  -17.2316   19.7584 H   0  0  0  0  0  0
  -32.8470  -18.3027   20.9705 H   0  0  0  0  0  0
  -31.8956  -18.9539   19.6334 H   0  0  0  0  0  0
  -28.9348  -20.4242   19.6231 H   0  0  0  0  0  0
  -28.1271  -20.3575   21.1583 H   0  0  0  0  0  0
  -28.1030  -25.6797   18.3006 H   0  0  0  0  0  0
  -29.7454  -25.7325   18.8796 H   0  0  0  0  0  0
  -29.1309  -15.9251   20.7723 H   0  0  0  0  0  0
  -29.4521  -15.1165   22.2800 H   0  0  0  0  0  0
  -30.3579  -21.2878   22.1443 H   0  0  0  0  0  0
  -31.1291  -20.8065   20.6824 H   0  0  0  0  0  0
  -31.8022  -16.4185   22.1952 H   0  0  0  0  0  0
  -30.3597  -16.9357   22.9632 H   0  0  0  0  0  0
  -29.5324  -18.9907   22.5957 H   0  0  0  0  0  0
  -31.2447  -19.2558   22.7482 H   0  0  0  0  0  0
  -29.9693  -17.8879   20.5156 H   0  0  0  0  0  0
  1 25  1  0  0  0
  1 30  2  0  0  0
  1 76  1  0  0  0
  2  3  1  0  0  0
  2 25  1  0  0  0
  2 84  1  0  0  0
  2 85  1  0  0  0
  3  4  1  0  0  0
  3 86  1  0  0  0
  3 87  1  0  0  0
  4  5  1  0  0  0
  4 88  1  0  0  0
  4 89  1  0  0  0
  5  6  1  0  0  0
  5 26  1  0  0  0
  5 90  1  0  0  0
  6 25  1  0  0  0
  6 91  1  0  0  0
  6 92  1  0  0  0
  7  8  2  0  0  0
  7 26  1  0  0  0
  7 29  1  0  0  0
  8  9  1  0  0  0
  8 22  1  0  0  0
  9 10  1  0  0  0
  9 27  2  0  0  0
 10 11  2  0  0  0
 10 15  1  0  0  0
 11 12  1  0  0  0
 11 93  1  0  0  0
 12 13  2  0  0  0
 12 94  1  0  0  0
 13 14  1  0  0  0
 13 31  1  0  0  0
 14 15  2  0  0  0
 14 95  1  0  0  0
 15 96  1  0  0  0
 16 17  2  0  0  0
 16 21  1  0  0  0
 16 31  1  0  0  0
 17 18  1  0  0  0
 17 97  1  0  0  0
 18 19  2  0  0  0
 18 98  1  0  0  0
 19 20  1  0  0  0
 19 24  1  0  0  0
 20 21  2  0  0  0
 20 99  1  0  0  0
 21 23  1  0  0  0
 22 28  1  0  0  0
 22 32  2  0  0  0
 26 27  1  0  0  0
 28100  1  0  0  0
 28101  1  0  0  0
 29102  1  0  0  0
 29103  1  0  0  0
 33 34  1  0  0  0
 33 66  1  0  0  0
 33 70  2  0  0  0
 34 36  1  0  0  0
 34 59  1  0  0  0
 34104  1  0  0  0
 35 44  2  0  0  0
 35 45  1  0  0  0
 35 68  1  0  0  0
 36 56  1  0  0  0
 36105  1  0  0  0
 37 39  1  0  0  0
 37 47  1  0  0  0
 37 66  1  0  0  0
 37106  1  0  0  0
 38 43  2  0  0  0
 38 46  1  0  0  0
 38 47  1  0  0  0
 39 64  1  0  0  0
 39 67  2  0  0  0
 40 52  1  0  0  0
 40 53  2  0  0  0
 40 58  1  0  0  0
 41107  1  0  0  0
 41108  1  0  0  0
 41109  1  0  0  0
 41 48  1  0  0  0
 42 43  1  0  0  0
 42 66  1  0  0  0
 42110  1  0  0  0
 42111  1  0  0  0
 43 44  1  0  0  0
 44112  1  0  0  0
 45 46  2  0  0  0
 45113  1  0  0  0
 46114  1  0  0  0
 47115  1  0  0  0
 47116  1  0  0  0
 48 56  1  0  0  0
 48 65  1  0  0  0
 48117  1  0  0  0
 49 50  1  0  0  0
 49 53  1  0  0  0
 49 64  1  0  0  0
 49118  1  0  0  0
 50 51  1  0  0  0
 50119  1  0  0  0
 50120  1  0  0  0
 51 52  1  0  0  0
 51121  1  0  0  0
 51122  1  0  0  0
 52123  1  0  0  0
 52124  1  0  0  0
 53 54  1  0  0  0
 54 55  2  0  0  0
 54125  1  0  0  0
 55 57  1  0  0  0
 55126  1  0  0  0
 56 69  2  0  0  0
 57 58  2  0  0  0
 57127  1  0  0  0
 58128  1  0  0  0
 59 60  1  0  0  0
 59 61  1  0  0  0
 59 62  1  0  0  0
 60129  1  0  0  0
 60130  1  0  0  0
 60131  1  0  0  0
 61132  1  0  0  0
 61133  1  0  0  0
 61134  1  0  0  0
 62135  1  0  0  0
 62136  1  0  0  0
 62137  1  0  0  0
 63 65  1  0  0  0
 63138  1  0  0  0
 63139  1  0  0  0
 63140  1  0  0  0
 64141  1  0  0  0
 65142  1  0  0  0
 68 75  1  0  0  0
 71 74  1  0  0  0
 71 80  1  0  0  0
 71 81  2  0  0  0
 72 75  1  0  0  0
 72 80  2  0  0  0
 72 83  1  0  0  0
 73143  1  0  0  0
 73144  1  0  0  0
 73145  1  0  0  0
 73 82  1  0  0  0
 74 77  1  0  0  0
 74146  1  0  0  0
 74147  1  0  0  0
 75148  1  0  0  0
 75149  1  0  0  0
 76 78  1  0  0  0
 76150  1  0  0  0
 76151  1  0  0  0
 77 79  1  0  0  0
 77152  1  0  0  0
 77153  1  0  0  0
 78 82  1  0  0  0
 78154  1  0  0  0
 78155  1  0  0  0
 79 82  1  0  0  0
 79156  1  0  0  0
 79157  1  0  0  0
 81 83  1  0  0  0
 82158  1  0  0  0
M  CHG  1  82   1
M  ISO  4   1 100  68 101  75 101  76 100
M  END
> <chiral flag>
0

> <version>
0

> <s_m_source_file>
/data/baiqing/PycharmProjects/Reinvent-master-3.2/result/LINK_invent/BTK/process_docking_weight1_custom_sum_contain_oxygen_bond_distance_aromatic_linkinvent_7_9_3/rearranged_h_0059.sdf

> <i_m_source_file_index>
56

> <r_mmod_Potential_Energy-OPLS-2005>
-207.380416870117

> <r_mmod_Stretch_Energy-OPLS-2005>
38.6604118347168

> <r_mmod_Bend_Energy-OPLS-2005>
117.535331726074

> <r_mmod_Torsional_Energy-OPLS-2005>
170.507171630859

> <r_mmod_Improper_Torsional_Energy-OPLS-2005>
2.90926742553711

> <r_mmod_Van_der_Waal_Energy-OPLS-2005>
130.973724365234

> <r_mmod_Electrostatic_Energy-OPLS-2005>
-220.958480834961

> <r_mmod_Solvation_Energy-OPLS-2005>
-458.658355712891

> <b_mmod_Minimization_Converged-OPLS-2005>
0

> <r_mmod_RMS_Derivative-OPLS-2005>
3.75401377677917

$$$$
56
                    3D
 Structure written by MMmdl.
150158  0  0  1  0            999 V2000
  -30.5761  -14.7200   20.4674 C   0  0  0  0  0  0
  -30.4417  -12.4301   19.4681 C   0  0  0  0  0  0
  -29.5169  -12.5088   18.2330 C   0  0  0  0  0  0
  -28.0330  -12.3682   18.6307 C   0  0  0  0  0  0
  -27.6463  -13.2379   19.8563 C   0  0  2  0  0  0
  -28.6873  -13.1127   20.9889 C   0  0  0  0  0  0
  -25.2489  -13.8246   20.5654 C   0  0  0  0  0  0
  -24.1789  -13.0481   20.9189 C   0  0  0  0  0  0
  -24.6398  -11.6955   20.8747 C   0  0  0  0  0  0
  -23.9099  -10.4317   21.0438 C   0  0  0  0  0  0
  -24.3649   -9.4235   21.9167 C   0  0  0  0  0  0
  -23.6343   -8.2259   22.0729 C   0  0  0  0  0  0
  -22.4323   -8.0277   21.3514 C   0  0  0  0  0  0
  -21.9983   -9.0273   20.4661 C   0  0  0  0  0  0
  -22.7299  -10.2157   20.3046 C   0  0  0  0  0  0
  -21.6885   -6.0758   22.5272 C   0  0  0  0  0  0
  -21.4023   -6.5644   23.8204 C   0  0  0  0  0  0
  -21.3683   -5.6802   24.9161 C   0  0  0  0  0  0
  -21.6051   -4.3038   24.7223 C   0  0  0  0  0  0
  -21.8816   -3.8173   23.4340 C   0  0  0  0  0  0
  -21.9178   -4.6980   22.3405 C   0  0  0  0  0  0
  -22.7789  -13.5209   21.1832 C   0  0  0  0  0  0
  -22.1628   -4.2153   21.0976 F   0  0  0  0  0  0
  -21.5672   -3.4479   25.7702 F   0  0  0  0  0  0
  -29.9891  -13.4753   20.4210 N   0  0  0  0  0  0
  -26.2935  -12.9470   20.3275 N   0  0  0  0  0  0
  -25.9307  -11.6625   20.5777 N   0  0  0  0  0  0
  -22.0440  -12.8226   22.0424 N   0  0  0  0  0  0
  -25.4199  -15.1948   20.3922 N   0  0  0  0  0  0
  -31.7414  -14.8676   20.0921 O   0  0  0  0  0  0
  -21.6676   -6.8882   21.4215 O   0  0  0  0  0  0
  -22.3449  -14.5467   20.6594 O   0  0  0  0  0  0
  -24.6375  -31.8566   23.2023 C   0  0  0  0  0  0
  -25.9179  -32.4770   23.8395 C   0  0  1  0  0  0
  -27.2212  -27.2397   20.1761 C   0  0  0  0  0  0
  -25.5998  -33.8576   24.2352 N   0  0  0  0  0  0
  -23.4358  -30.4758   21.5450 C   0  0  2  0  0  0
  -24.8860  -28.9177   20.1200 C   0  0  0  0  0  0
  -22.7553  -29.4589   22.4937 C   0  0  0  0  0  0
  -18.0307  -28.1388   22.8441 C   0  0  0  0  0  0
  -24.1472  -36.7257   23.2629 C   0  0  0  0  0  0
  -25.9816  -30.7648   21.3821 C   0  0  0  0  0  0
  -26.0548  -29.3835   20.7343 C   0  0  0  0  0  0
  -27.2270  -28.5592   20.7479 C   0  0  0  0  0  0
  -26.0300  -26.8528   19.5197 C   0  0  0  0  0  0
  -24.8789  -27.6609   19.4964 C   0  0  0  0  0  0
  -23.6634  -29.8102   20.1611 C   0  0  0  0  0  0
  -25.4086  -36.3070   24.0356 C   0  0  1  0  0  0
  -20.5886  -28.3711   23.1262 C   0  0  2  0  0  0
  -20.6794  -26.9446   22.5420 C   0  0  0  0  0  0
  -19.5779  -26.6377   21.5223 C   0  0  0  0  0  0
  -18.1929  -26.7927   22.1617 C   0  0  0  0  0  0
  -19.1538  -28.8880   23.2817 C   0  0  0  0  0  0
  -18.9485  -30.1477   23.8823 C   0  0  0  0  0  0
  -17.6462  -30.6573   24.0557 C   0  0  0  0  0  0
  -25.9058  -34.9445   23.5133 C   0  0  0  0  0  0
  -16.5362  -29.9071   23.6339 C   0  0  0  0  0  0
  -16.7258  -28.6522   23.0300 C   0  0  0  0  0  0
  -26.4549  -31.6547   25.0740 C   0  0  0  0  0  0
  -25.3795  -31.3652   26.1483 C   0  0  0  0  0  0
  -27.0476  -30.3005   24.6207 C   0  0  0  0  0  0
  -27.6167  -32.4228   25.7480 C   0  0  0  0  0  0
  -27.5580  -37.1762   24.8467 C   0  0  0  0  0  0
  -21.4249  -29.3042   22.3678 N   0  0  0  0  0  0
  -26.4251  -37.3790   23.9460 N   0  0  0  0  0  0
  -24.7040  -31.0551   22.0991 N   0  0  0  0  0  0
  -23.4248  -28.8133   23.3066 O   0  0  0  0  0  0
  -28.2880  -26.3128   20.2883 O   0  0  0  0  0  0
  -26.5609  -34.8921   22.4694 O   0  0  0  0  0  0
  -23.5505  -32.1389   23.7285 O   0  0  0  0  0  0
  -27.6920  -21.7051   19.4471 C   0  0  0  0  0  0
  -27.7149  -20.3310   19.4839 C   0  0  0  0  0  0
  -28.6949  -19.8976   20.4365 C   0  0  0  0  0  0
  -28.9123  -18.4030   20.9855 C   0  0  0  0  0  0
  -28.9820  -23.6303   20.7087 C   0  0  0  0  0  0
  -29.9324  -17.3009   20.3540 C   0  0  0  0  0  0
  -27.9645  -24.8301   20.2742 C   0  0  0  0  0  0
  -29.2513  -21.0501   20.9465 N   0  0  0  0  0  0
  -28.6221  -22.1756   20.3720 N   0  0  0  0  0  0
  -29.7609  -15.8127   20.7287 N   0  0  0  0  0  0
  -26.8735  -19.5285   18.7803 F   0  0  0  0  0  0
  -31.4815  -12.5552   19.1587 H   0  0  0  0  0  0
  -30.3922  -11.4396   19.9271 H   0  0  0  0  0  0
  -29.7937  -11.7331   17.5160 H   0  0  0  0  0  0
  -29.6699  -13.4690   17.7286 H   0  0  0  0  0  0
  -27.8428  -11.3143   18.8469 H   0  0  0  0  0  0
  -27.3991  -12.6155   17.7773 H   0  0  0  0  0  0
  -27.6724  -14.2766   19.5182 H   0  0  0  0  0  0
  -28.7116  -12.0888   21.3642 H   0  0  0  0  0  0
  -28.4245  -13.7422   21.8424 H   0  0  0  0  0  0
  -25.2830   -9.5698   22.4722 H   0  0  0  0  0  0
  -24.0052   -7.4689   22.7465 H   0  0  0  0  0  0
  -21.0915   -8.8852   19.9012 H   0  0  0  0  0  0
  -22.3791  -10.9694   19.6148 H   0  0  0  0  0  0
  -21.1970   -7.6145   23.9703 H   0  0  0  0  0  0
  -21.1532   -6.0519   25.9075 H   0  0  0  0  0  0
  -22.0566   -2.7617   23.2833 H   0  0  0  0  0  0
  -22.4082  -11.9976   22.4973 H   0  0  0  0  0  0
  -21.1037  -13.1249   22.2562 H   0  0  0  0  0  0
  -24.6447  -15.8471   20.4603 H   0  0  0  0  0  0
  -26.2362  -15.6133   19.9618 H   0  0  0  0  0  0
  -26.7260  -32.5434   23.1159 H   0  0  0  0  0  0
  -25.0238  -33.9768   25.0559 H   0  0  0  0  0  0
  -22.7252  -31.2902   21.3916 H   0  0  0  0  0  0
  -23.3762  -35.9563   23.3221 H   0  0  0  0  0  0
  -24.3578  -36.8945   22.2065 H   0  0  0  0  0  0
  -23.7187  -37.6417   23.6687 H   0  0  0  0  0  0
  -26.1074  -31.5031   20.5928 H   0  0  0  0  0  0
  -26.8669  -30.8323   22.0032 H   0  0  0  0  0  0
  -28.1149  -28.8976   21.2626 H   0  0  0  0  0  0
  -25.9518  -25.8845   19.0503 H   0  0  0  0  0  0
  -23.9847  -27.2900   19.0148 H   0  0  0  0  0  0
  -23.8179  -30.5869   19.4135 H   0  0  0  0  0  0
  -22.7805  -29.2591   19.8349 H   0  0  0  0  0  0
  -25.1236  -36.1898   25.0845 H   0  0  0  0  0  0
  -20.9927  -28.3285   24.1404 H   0  0  0  0  0  0
  -20.5727  -26.2342   23.3622 H   0  0  0  0  0  0
  -21.6658  -26.7527   22.1209 H   0  0  0  0  0  0
  -19.6974  -25.6289   21.1263 H   0  0  0  0  0  0
  -19.6712  -27.3163   20.6725 H   0  0  0  0  0  0
  -17.4254  -26.6658   21.3970 H   0  0  0  0  0  0
  -18.0333  -26.0070   22.9025 H   0  0  0  0  0  0
  -19.7942  -30.7309   24.2148 H   0  0  0  0  0  0
  -17.5027  -31.6231   24.5203 H   0  0  0  0  0  0
  -15.5340  -30.2951   23.7731 H   0  0  0  0  0  0
  -15.8663  -28.0852   22.6980 H   0  0  0  0  0  0
  -24.5913  -30.7093   25.7774 H   0  0  0  0  0  0
  -24.9040  -32.2808   26.5017 H   0  0  0  0  0  0
  -25.8127  -30.8716   27.0201 H   0  0  0  0  0  0
  -26.3121  -29.6634   24.1317 H   0  0  0  0  0  0
  -27.4317  -29.7358   25.4710 H   0  0  0  0  0  0
  -27.8875  -30.4342   23.9389 H   0  0  0  0  0  0
  -27.2898  -33.3555   26.2095 H   0  0  0  0  0  0
  -28.3966  -32.6747   25.0271 H   0  0  0  0  0  0
  -28.0864  -31.8288   26.5353 H   0  0  0  0  0  0
  -28.2552  -38.0100   24.7587 H   0  0  0  0  0  0
  -28.1109  -36.2644   24.6160 H   0  0  0  0  0  0
  -27.2329  -37.1253   25.8871 H   0  0  0  0  0  0
  -20.9484  -29.8795   21.6869 H   0  0  0  0  0  0
  -26.0096  -38.2848   24.1495 H   0  0  0  0  0  0
  -27.0747  -22.3670   18.8516 H   0  0  0  0  0  0
  -27.9317  -17.9276   20.9647 H   0  0  0  0  0  0
  -29.1391  -18.4669   22.0497 H   0  0  0  0  0  0
  -29.1416  -23.6807   21.7921 H   0  0  0  0  0  0
  -29.9638  -23.8273   20.2719 H   0  0  0  0  0  0
  -30.9551  -17.5931   20.5844 H   0  0  0  0  0  0
  -29.8489  -17.3569   19.2659 H   0  0  0  0  0  0
  -27.0564  -24.6892   20.8671 H   0  0  0  0  0  0
  -27.6767  -24.5939   19.2534 H   0  0  0  0  0  0
  -28.8567  -15.5462   21.0809 H   0  0  0  0  0  0
  1 25  1  0  0  0
  1 30  2  0  0  0
  1 80  1  0  0  0
  2  3  1  0  0  0
  2 25  1  0  0  0
  2 82  1  0  0  0
  2 83  1  0  0  0
  3  4  1  0  0  0
  3 84  1  0  0  0
  3 85  1  0  0  0
  4  5  1  0  0  0
  4 86  1  0  0  0
  4 87  1  0  0  0
  5  6  1  0  0  0
  5 26  1  0  0  0
  5 88  1  0  0  0
  6 25  1  0  0  0
  6 89  1  0  0  0
  6 90  1  0  0  0
  7  8  2  0  0  0
  7 26  1  0  0  0
  7 29  1  0  0  0
  8  9  1  0  0  0
  8 22  1  0  0  0
  9 10  1  0  0  0
  9 27  2  0  0  0
 10 11  2  0  0  0
 10 15  1  0  0  0
 11 12  1  0  0  0
 11 91  1  0  0  0
 12 13  2  0  0  0
 12 92  1  0  0  0
 13 14  1  0  0  0
 13 31  1  0  0  0
 14 15  2  0  0  0
 14 93  1  0  0  0
 15 94  1  0  0  0
 16 17  2  0  0  0
 16 21  1  0  0  0
 16 31  1  0  0  0
 17 18  1  0  0  0
 17 95  1  0  0  0
 18 19  2  0  0  0
 18 96  1  0  0  0
 19 20  1  0  0  0
 19 24  1  0  0  0
 20 21  2  0  0  0
 20 97  1  0  0  0
 21 23  1  0  0  0
 22 28  1  0  0  0
 22 32  2  0  0  0
 26 27  1  0  0  0
 28 98  1  0  0  0
 28 99  1  0  0  0
 29100  1  0  0  0
 29101  1  0  0  0
 33 34  1  0  0  0
 33 66  1  0  0  0
 33 70  2  0  0  0
 34 36  1  0  0  0
 34 59  1  0  0  0
 34102  1  0  0  0
 35 44  2  0  0  0
 35 45  1  0  0  0
 35 68  1  0  0  0
 36 56  1  0  0  0
 36103  1  0  0  0
 37 39  1  0  0  0
 37 47  1  0  0  0
 37 66  1  0  0  0
 37104  1  0  0  0
 38 43  2  0  0  0
 38 46  1  0  0  0
 38 47  1  0  0  0
 39 64  1  0  0  0
 39 67  2  0  0  0
 40 52  1  0  0  0
 40 53  2  0  0  0
 40 58  1  0  0  0
 41105  1  0  0  0
 41106  1  0  0  0
 41107  1  0  0  0
 41 48  1  0  0  0
 42 43  1  0  0  0
 42 66  1  0  0  0
 42108  1  0  0  0
 42109  1  0  0  0
 43 44  1  0  0  0
 44110  1  0  0  0
 45 46  2  0  0  0
 45111  1  0  0  0
 46112  1  0  0  0
 47113  1  0  0  0
 47114  1  0  0  0
 48 56  1  0  0  0
 48 65  1  0  0  0
 48115  1  0  0  0
 49 50  1  0  0  0
 49 53  1  0  0  0
 49 64  1  0  0  0
 49116  1  0  0  0
 50 51  1  0  0  0
 50117  1  0  0  0
 50118  1  0  0  0
 51 52  1  0  0  0
 51119  1  0  0  0
 51120  1  0  0  0
 52121  1  0  0  0
 52122  1  0  0  0
 53 54  1  0  0  0
 54 55  2  0  0  0
 54123  1  0  0  0
 55 57  1  0  0  0
 55124  1  0  0  0
 56 69  2  0  0  0
 57 58  2  0  0  0
 57125  1  0  0  0
 58126  1  0  0  0
 59 60  1  0  0  0
 59 61  1  0  0  0
 59 62  1  0  0  0
 60127  1  0  0  0
 60128  1  0  0  0
 60129  1  0  0  0
 61130  1  0  0  0
 61131  1  0  0  0
 61132  1  0  0  0
 62133  1  0  0  0
 62134  1  0  0  0
 62135  1  0  0  0
 63 65  1  0  0  0
 63136  1  0  0  0
 63137  1  0  0  0
 63138  1  0  0  0
 64139  1  0  0  0
 65140  1  0  0  0
 68 77  1  0  0  0
 71 72  2  0  0  0
 71 79  1  0  0  0
 71141  1  0  0  0
 72 73  1  0  0  0
 72 81  1  0  0  0
 73 74  1  0  0  0
 73 78  2  0  0  0
 74 76  1  0  0  0
 74142  1  0  0  0
 74143  1  0  0  0
 75 77  1  0  0  0
 75 79  1  0  0  0
 75144  1  0  0  0
 75145  1  0  0  0
 76 80  1  0  0  0
 76146  1  0  0  0
 76147  1  0  0  0
 77148  1  0  0  0
 77149  1  0  0  0
 78 79  1  0  0  0
 80150  1  0  0  0
M  ISO  4   1 100  68 101  77 101  80 100
M  END
> <chiral flag>
0

> <version>
0

> <s_m_source_file>
/data/baiqing/PycharmProjects/Reinvent-master-3.2/result/LINK_invent/BTK/process_docking_weight1_custom_sum_contain_oxygen_bond_distance_aromatic_linkinvent_7_9_3/rearranged_h_0059.sdf

> <i_m_source_file_index>
57

> <r_mmod_Potential_Energy-OPLS-2005>
175.602874755859

> <r_mmod_Stretch_Energy-OPLS-2005>
140.904846191406

> <r_mmod_Bend_Energy-OPLS-2005>
180.687744140625

> <r_mmod_Torsional_Energy-OPLS-2005>
218.605712890625

> <r_mmod_Improper_Torsional_Energy-OPLS-2005>
7.25669384002686

> <r_mmod_Van_der_Waal_Energy-OPLS-2005>
116.460227966309

> <r_mmod_Electrostatic_Energy-OPLS-2005>
-350.825286865234

> <r_mmod_Solvation_Energy-OPLS-2005>
-228.97233581543

> <b_mmod_Minimization_Converged-OPLS-2005>
0

> <r_mmod_RMS_Derivative-OPLS-2005>
8.66412448883057

$$$$
57
                    3D
 Structure written by MMmdl.
159167  0  0  1  0            999 V2000
  -30.5649  -14.9570   20.3993 C   0  0  0  0  0  0
  -30.4259  -12.5812   19.5288 C   0  0  0  0  0  0
  -29.5263  -12.5179   18.2724 C   0  0  0  0  0  0
  -28.0593  -12.3019   18.6831 C   0  0  0  0  0  0
  -27.6227  -13.2558   19.8252 C   0  0  2  0  0  0
  -28.6518  -13.3316   20.9694 C   0  0  0  0  0  0
  -25.2453  -13.8243   20.5678 C   0  0  0  0  0  0
  -24.1772  -13.0441   20.9174 C   0  0  0  0  0  0
  -24.6402  -11.6931   20.8714 C   0  0  0  0  0  0
  -23.9089  -10.4284   21.0388 C   0  0  0  0  0  0
  -24.3633   -9.4200   21.9172 C   0  0  0  0  0  0
  -23.6295   -8.2243   22.0760 C   0  0  0  0  0  0
  -22.4276   -8.0279   21.3554 C   0  0  0  0  0  0
  -21.9913   -9.0247   20.4656 C   0  0  0  0  0  0
  -22.7253  -10.2120   20.3050 C   0  0  0  0  0  0
  -21.6855   -6.0724   22.5270 C   0  0  0  0  0  0
  -21.4018   -6.5634   23.8199 C   0  0  0  0  0  0
  -21.3665   -5.6799   24.9167 C   0  0  0  0  0  0
  -21.6038   -4.3057   24.7230 C   0  0  0  0  0  0
  -21.8819   -3.8141   23.4353 C   0  0  0  0  0  0
  -21.9193   -4.6950   22.3402 C   0  0  0  0  0  0
  -22.7804  -13.5204   21.1855 C   0  0  0  0  0  0
  -22.1664   -4.2131   21.0983 F   0  0  0  0  0  0
  -21.5618   -3.4545   25.7743 F   0  0  0  0  0  0
  -29.9400  -13.7090   20.3801 N   0  0  0  0  0  0
  -26.2857  -12.9484   20.3167 N   0  0  0  0  0  0
  -25.9331  -11.6604   20.5696 N   0  0  0  0  0  0
  -22.0508  -12.8160   22.0441 N   0  0  0  0  0  0
  -25.4178  -15.1968   20.4186 N   0  0  0  0  0  0
  -31.7802  -14.9410   20.1696 O   0  0  0  0  0  0
  -21.6647   -6.8870   21.4237 O   0  0  0  0  0  0
  -22.3460  -14.5511   20.6735 O   0  0  0  0  0  0
  -24.6432  -31.8453   23.1848 C   0  0  0  0  0  0
  -25.9190  -32.4712   23.8256 C   0  0  1  0  0  0
  -27.2071  -27.1279   20.1465 C   0  0  0  0  0  0
  -25.5929  -33.8512   24.2186 N   0  0  0  0  0  0
  -23.4468  -30.4632   21.5340 C   0  0  2  0  0  0
  -24.8944  -28.8923   20.1044 C   0  0  0  0  0  0
  -22.7570  -29.4559   22.4882 C   0  0  0  0  0  0
  -18.0332  -28.1372   22.8487 C   0  0  0  0  0  0
  -24.1499  -36.7261   23.2644 C   0  0  0  0  0  0
  -26.0016  -30.7196   21.3800 C   0  0  0  0  0  0
  -26.0724  -29.3287   20.7240 C   0  0  0  0  0  0
  -27.2309  -28.4615   20.7277 C   0  0  0  0  0  0
  -26.0061  -26.8025   19.4776 C   0  0  0  0  0  0
  -24.8753  -27.6454   19.4642 C   0  0  0  0  0  0
  -23.6710  -29.7933   20.1518 C   0  0  0  0  0  0
  -25.4121  -36.3040   24.0331 C   0  0  1  0  0  0
  -20.5923  -28.3735   23.1275 C   0  0  2  0  0  0
  -20.6820  -26.9416   22.5515 C   0  0  0  0  0  0
  -19.5823  -26.6292   21.5310 C   0  0  0  0  0  0
  -18.2002  -26.7880   22.1695 C   0  0  0  0  0  0
  -19.1561  -28.8883   23.2849 C   0  0  0  0  0  0
  -18.9446  -30.1495   23.8827 C   0  0  0  0  0  0
  -17.6432  -30.6599   24.0474 C   0  0  0  0  0  0
  -25.9066  -34.9417   23.5071 C   0  0  0  0  0  0
  -16.5342  -29.9046   23.6260 C   0  0  0  0  0  0
  -16.7297  -28.6444   23.0348 C   0  0  0  0  0  0
  -26.4517  -31.6551   25.0680 C   0  0  0  0  0  0
  -25.3703  -31.3717   26.1375 C   0  0  0  0  0  0
  -27.0371  -30.2958   24.6204 C   0  0  0  0  0  0
  -27.6072  -32.4290   25.7458 C   0  0  0  0  0  0
  -27.5584  -37.1785   24.8475 C   0  0  0  0  0  0
  -21.4260  -29.3036   22.3616 N   0  0  0  0  0  0
  -26.4292  -37.3750   23.9418 N   0  0  0  0  0  0
  -24.7182  -31.0300   22.0886 N   0  0  0  0  0  0
  -23.4209  -28.8143   23.3065 O   0  0  0  0  0  0
  -28.2477  -26.1284   20.2363 O   0  0  0  0  0  0
  -26.5672  -34.8927   22.4657 O   0  0  0  0  0  0
  -23.5549  -32.1331   23.7055 O   0  0  0  0  0  0
  -30.4197  -17.7159   20.6309 C   0  0  0  0  0  0
  -29.8421  -16.4291   20.4943 C   0  0  0  0  0  0
  -29.0514  -21.5547   18.5755 C   0  0  0  0  0  0
  -27.1649  -21.3330   20.1435 C   0  0  0  0  0  0
  -31.0312  -20.7182   20.7736 C   0  0  0  0  0  0
  -29.1735  -20.4635   22.3513 C   0  0  0  0  0  0
  -28.8707  -23.2673   20.5213 C   0  0  0  0  0  0
  -27.9842  -24.6075   19.9863 C   0  0  0  0  0  0
  -28.6797  -21.6282   20.0706 C   0  0  0  0  0  0
  -29.5313  -20.3592   20.8559 C   0  0  0  0  0  0
  -28.4842  -16.7810   20.3296 N   0  0  0  0  0  0
  -28.2712  -18.1005   20.3847 N   0  0  0  0  0  0
  -29.4486  -18.7866   20.5306 N   0  0  0  0  0  0
  -31.4694  -12.7017   19.2360 H   0  0  0  0  0  0
  -30.3836  -11.6419   20.0820 H   0  0  0  0  0  0
  -29.8524  -11.7155   17.6100 H   0  0  0  0  0  0
  -29.6188  -13.4470   17.7067 H   0  0  0  0  0  0
  -27.9612  -11.2668   19.0119 H   0  0  0  0  0  0
  -27.4008  -12.4105   17.8213 H   0  0  0  0  0  0
  -27.5762  -14.2458   19.3706 H   0  0  0  0  0  0
  -28.7236  -12.3846   21.5048 H   0  0  0  0  0  0
  -28.3464  -14.0822   21.7009 H   0  0  0  0  0  0
  -25.2782   -9.5658   22.4748 H   0  0  0  0  0  0
  -23.9993   -7.4634   22.7487 H   0  0  0  0  0  0
  -21.0839   -8.8761   19.8968 H   0  0  0  0  0  0
  -22.3707  -10.9650   19.6155 H   0  0  0  0  0  0
  -21.2020   -7.6147   23.9686 H   0  0  0  0  0  0
  -21.1494   -6.0543   25.9067 H   0  0  0  0  0  0
  -22.0599   -2.7601   23.2860 H   0  0  0  0  0  0
  -22.4184  -11.9818   22.4777 H   0  0  0  0  0  0
  -21.1129  -13.1145   22.2708 H   0  0  0  0  0  0
  -24.6681  -15.8613   20.5737 H   0  0  0  0  0  0
  -26.3048  -15.6405   20.1989 H   0  0  0  0  0  0
  -26.7269  -32.5360   23.1007 H   0  0  0  0  0  0
  -25.0036  -33.9628   25.0306 H   0  0  0  0  0  0
  -22.7500  -31.2891   21.3790 H   0  0  0  0  0  0
  -23.3775  -35.9578   23.3280 H   0  0  0  0  0  0
  -24.3599  -36.8894   22.2063 H   0  0  0  0  0  0
  -23.7243  -37.6452   23.6679 H   0  0  0  0  0  0
  -26.1465  -31.4728   20.6032 H   0  0  0  0  0  0
  -26.8758  -30.7806   22.0152 H   0  0  0  0  0  0
  -28.1297  -28.7850   21.2355 H   0  0  0  0  0  0
  -25.9047  -25.8514   18.9767 H   0  0  0  0  0  0
  -23.9766  -27.3110   18.9647 H   0  0  0  0  0  0
  -23.7973  -30.5663   19.3927 H   0  0  0  0  0  0
  -22.7866  -29.2305   19.8499 H   0  0  0  0  0  0
  -25.1310  -36.1875   25.0828 H   0  0  0  0  0  0
  -21.0003  -28.3390   24.1411 H   0  0  0  0  0  0
  -20.5689  -26.2372   23.3771 H   0  0  0  0  0  0
  -21.6713  -26.7412   22.1386 H   0  0  0  0  0  0
  -19.7008  -25.6145   21.1468 H   0  0  0  0  0  0
  -19.6758  -27.3006   20.6767 H   0  0  0  0  0  0
  -17.4266  -26.6546   21.4115 H   0  0  0  0  0  0
  -18.0417  -26.0064   22.9141 H   0  0  0  0  0  0
  -19.7908  -30.7351   24.2163 H   0  0  0  0  0  0
  -17.4941  -31.6301   24.5014 H   0  0  0  0  0  0
  -15.5322  -30.2916   23.7542 H   0  0  0  0  0  0
  -15.8714  -28.0705   22.7117 H   0  0  0  0  0  0
  -24.5926  -30.7021   25.7690 H   0  0  0  0  0  0
  -24.8845  -32.2886   26.4720 H   0  0  0  0  0  0
  -25.7997  -30.8956   27.0198 H   0  0  0  0  0  0
  -26.2965  -29.6691   24.1232 H   0  0  0  0  0  0
  -27.4049  -29.7242   25.4730 H   0  0  0  0  0  0
  -27.8849  -30.4226   23.9471 H   0  0  0  0  0  0
  -27.2706  -33.3632   26.1969 H   0  0  0  0  0  0
  -28.3920  -32.6760   25.0294 H   0  0  0  0  0  0
  -28.0699  -31.8440   26.5413 H   0  0  0  0  0  0
  -28.2602  -38.0082   24.7520 H   0  0  0  0  0  0
  -28.1082  -36.2615   24.6298 H   0  0  0  0  0  0
  -27.2319  -37.1437   25.8884 H   0  0  0  0  0  0
  -20.9482  -29.8658   21.6716 H   0  0  0  0  0  0
  -26.0167  -38.2835   24.1368 H   0  0  0  0  0  0
  -31.4647  -17.9337   20.8016 H   0  0  0  0  0  0
  -28.4417  -22.2265   17.9700 H   0  0  0  0  0  0
  -28.9178  -20.5483   18.1792 H   0  0  0  0  0  0
  -30.0891  -21.8356   18.4029 H   0  0  0  0  0  0
  -26.5899  -22.0413   19.5446 H   0  0  0  0  0  0
  -26.7812  -21.4039   21.1606 H   0  0  0  0  0  0
  -26.9249  -20.3402   19.7639 H   0  0  0  0  0  0
  -31.2182  -21.7485   21.0720 H   0  0  0  0  0  0
  -31.4327  -20.5773   19.7701 H   0  0  0  0  0  0
  -31.6257  -20.0999   21.4474 H   0  0  0  0  0  0
  -29.3822  -21.4533   22.7567 H   0  0  0  0  0  0
  -29.7494  -19.7524   22.9427 H   0  0  0  0  0  0
  -28.1238  -20.2424   22.5319 H   0  0  0  0  0  0
  -28.7866  -23.3003   21.6062 H   0  0  0  0  0  0
  -29.9139  -23.5159   20.3314 H   0  0  0  0  0  0
  -26.9749  -24.4247   20.3557 H   0  0  0  0  0  0
  -27.9092  -24.5054   18.9026 H   0  0  0  0  0  0
  1 25  1  0  0  0
  1 30  2  0  0  0
  1 72  1  0  0  0
  2  3  1  0  0  0
  2 25  1  0  0  0
  2 84  1  0  0  0
  2 85  1  0  0  0
  3  4  1  0  0  0
  3 86  1  0  0  0
  3 87  1  0  0  0
  4  5  1  0  0  0
  4 88  1  0  0  0
  4 89  1  0  0  0
  5  6  1  0  0  0
  5 26  1  0  0  0
  5 90  1  0  0  0
  6 25  1  0  0  0
  6 91  1  0  0  0
  6 92  1  0  0  0
  7  8  2  0  0  0
  7 26  1  0  0  0
  7 29  1  0  0  0
  8  9  1  0  0  0
  8 22  1  0  0  0
  9 10  1  0  0  0
  9 27  2  0  0  0
 10 11  2  0  0  0
 10 15  1  0  0  0
 11 12  1  0  0  0
 11 93  1  0  0  0
 12 13  2  0  0  0
 12 94  1  0  0  0
 13 14  1  0  0  0
 13 31  1  0  0  0
 14 15  2  0  0  0
 14 95  1  0  0  0
 15 96  1  0  0  0
 16 17  2  0  0  0
 16 21  1  0  0  0
 16 31  1  0  0  0
 17 18  1  0  0  0
 17 97  1  0  0  0
 18 19  2  0  0  0
 18 98  1  0  0  0
 19 20  1  0  0  0
 19 24  1  0  0  0
 20 21  2  0  0  0
 20 99  1  0  0  0
 21 23  1  0  0  0
 22 28  1  0  0  0
 22 32  2  0  0  0
 26 27  1  0  0  0
 28100  1  0  0  0
 28101  1  0  0  0
 29102  1  0  0  0
 29103  1  0  0  0
 33 34  1  0  0  0
 33 66  1  0  0  0
 33 70  2  0  0  0
 34 36  1  0  0  0
 34 59  1  0  0  0
 34104  1  0  0  0
 35 44  2  0  0  0
 35 45  1  0  0  0
 35 68  1  0  0  0
 36 56  1  0  0  0
 36105  1  0  0  0
 37 39  1  0  0  0
 37 47  1  0  0  0
 37 66  1  0  0  0
 37106  1  0  0  0
 38 43  2  0  0  0
 38 46  1  0  0  0
 38 47  1  0  0  0
 39 64  1  0  0  0
 39 67  2  0  0  0
 40 52  1  0  0  0
 40 53  2  0  0  0
 40 58  1  0  0  0
 41107  1  0  0  0
 41108  1  0  0  0
 41109  1  0  0  0
 41 48  1  0  0  0
 42 43  1  0  0  0
 42 66  1  0  0  0
 42110  1  0  0  0
 42111  1  0  0  0
 43 44  1  0  0  0
 44112  1  0  0  0
 45 46  2  0  0  0
 45113  1  0  0  0
 46114  1  0  0  0
 47115  1  0  0  0
 47116  1  0  0  0
 48 56  1  0  0  0
 48 65  1  0  0  0
 48117  1  0  0  0
 49 50  1  0  0  0
 49 53  1  0  0  0
 49 64  1  0  0  0
 49118  1  0  0  0
 50 51  1  0  0  0
 50119  1  0  0  0
 50120  1  0  0  0
 51 52  1  0  0  0
 51121  1  0  0  0
 51122  1  0  0  0
 52123  1  0  0  0
 52124  1  0  0  0
 53 54  1  0  0  0
 54 55  2  0  0  0
 54125  1  0  0  0
 55 57  1  0  0  0
 55126  1  0  0  0
 56 69  2  0  0  0
 57 58  2  0  0  0
 57127  1  0  0  0
 58128  1  0  0  0
 59 60  1  0  0  0
 59 61  1  0  0  0
 59 62  1  0  0  0
 60129  1  0  0  0
 60130  1  0  0  0
 60131  1  0  0  0
 61132  1  0  0  0
 61133  1  0  0  0
 61134  1  0  0  0
 62135  1  0  0  0
 62136  1  0  0  0
 62137  1  0  0  0
 63 65  1  0  0  0
 63138  1  0  0  0
 63139  1  0  0  0
 63140  1  0  0  0
 64141  1  0  0  0
 65142  1  0  0  0
 68 78  1  0  0  0
 71 72  2  0  0  0
 71 83  1  0  0  0
 71143  1  0  0  0
 72 81  1  0  0  0
 73144  1  0  0  0
 73145  1  0  0  0
 73146  1  0  0  0
 73 79  1  0  0  0
 74 79  1  0  0  0
 74147  1  0  0  0
 74148  1  0  0  0
 74149  1  0  0  0
 75150  1  0  0  0
 75151  1  0  0  0
 75152  1  0  0  0
 75 80  1  0  0  0
 76 80  1  0  0  0
 76153  1  0  0  0
 76154  1  0  0  0
 76155  1  0  0  0
 77 78  1  0  0  0
 77 79  1  0  0  0
 77156  1  0  0  0
 77157  1  0  0  0
 78158  1  0  0  0
 78159  1  0  0  0
 79 80  1  0  0  0
 80 83  1  0  0  0
 81 82  2  0  0  0
 82 83  1  0  0  0
M  ISO  4   1 100  68 101  72 100  78 101
M  END
> <chiral flag>
0

> <version>
0

> <s_m_source_file>
/data/baiqing/PycharmProjects/Reinvent-master-3.2/result/LINK_invent/BTK/process_docking_weight1_custom_sum_contain_oxygen_bond_distance_aromatic_linkinvent_7_9_3/rearranged_h_0059.sdf

> <i_m_source_file_index>
58

> <r_mmod_Potential_Energy-OPLS-2005>
667.2646484375

> <r_mmod_Stretch_Energy-OPLS-2005>
293.983795166016

> <r_mmod_Bend_Energy-OPLS-2005>
285.398071289062

> <r_mmod_Torsional_Energy-OPLS-2005>
249.081420898438

> <r_mmod_Improper_Torsional_Energy-OPLS-2005>
5.48271608352661

> <r_mmod_Van_der_Waal_Energy-OPLS-2005>
111.50594329834

> <r_mmod_Electrostatic_Energy-OPLS-2005>
-299.462554931641

> <r_mmod_Solvation_Energy-OPLS-2005>
-180.98796081543

> <b_mmod_Minimization_Converged-OPLS-2005>
0

> <r_mmod_RMS_Derivative-OPLS-2005>
2.5896201133728

$$$$
58
                    3D
 Structure written by MMmdl.
164172  0  0  1  0            999 V2000
  -30.0158  -13.6435   21.1009 C   0  0  0  0  0  0
  -31.2126  -12.9059   18.9274 C   0  0  0  0  0  0
  -30.2758  -12.8861   17.5516 C   0  0  0  0  0  0
  -28.7250  -12.8554   17.7195 C   0  0  0  0  0  0
  -28.6593  -13.5560   19.0548 C   0  0  2  0  0  0
  -29.5923  -12.1476   19.7286 C   0  0  0  0  0  0
  -24.8392  -14.2222   20.9600 C   0  0  0  0  0  0
  -23.8971  -13.2404   21.0390 C   0  0  0  0  0  0
  -24.4911  -11.9742   21.1533 C   0  0  0  0  0  0
  -23.9021  -10.5786   21.1519 C   0  0  0  0  0  0
  -24.3752   -9.5228   21.9796 C   0  0  0  0  0  0
  -23.6734   -8.2962   22.0840 C   0  0  0  0  0  0
  -22.4732   -8.0768   21.3559 C   0  0  0  0  0  0
  -22.0546   -9.0780   20.4633 C   0  0  0  0  0  0
  -22.7709  -10.2955   20.3515 C   0  0  0  0  0  0
  -21.7179   -6.0950   22.5218 C   0  0  0  0  0  0
  -21.4284   -6.5800   23.8160 C   0  0  0  0  0  0
  -21.3671   -5.6896   24.9088 C   0  0  0  0  0  0
  -21.5998   -4.3158   24.7175 C   0  0  0  0  0  0
  -21.8786   -3.8272   23.4300 C   0  0  0  0  0  0
  -21.9288   -4.7098   22.3366 C   0  0  0  0  0  0
  -22.4735  -13.5438   21.1524 C   0  0  0  0  0  0
  -22.1714   -4.2287   21.0961 F   0  0  0  0  0  0
  -21.5535   -3.4588   25.7665 F   0  0  0  0  0  0
  -30.5813  -12.7616   20.2732 N   0  0  0  0  0  0
  -26.0644  -13.6481   21.0968 N   0  0  0  0  0  0
  -25.6194  -12.3738   21.7181 N   0  0  0  0  0  0
  -21.7919  -12.7982   22.0016 N   0  0  0  0  0  0
  -24.7632  -15.5769   20.8044 N   0  0  0  0  0  0
  -30.7217  -14.6970   21.1106 O   0  0  0  0  0  0
  -21.7203   -6.9207   21.4175 O   0  0  0  0  0  0
  -22.0205  -14.5402   20.6017 O   0  0  0  0  0  0
  -24.6558  -31.8365   23.1792 C   0  0  0  0  0  0
  -25.9283  -32.4688   23.8226 C   0  0  1  0  0  0
  -27.0964  -26.9803   20.1406 C   0  0  0  0  0  0
  -25.5988  -33.8509   24.2151 N   0  0  0  0  0  0
  -23.4591  -30.4588   21.5331 C   0  0  2  0  0  0
  -24.8836  -28.8680   20.1061 C   0  0  0  0  0  0
  -22.7593  -29.4521   22.4845 C   0  0  0  0  0  0
  -18.0260  -28.1409   22.8429 C   0  0  0  0  0  0
  -24.1464  -36.7244   23.2636 C   0  0  0  0  0  0
  -26.0265  -30.6589   21.3985 C   0  0  0  0  0  0
  -26.0733  -29.2572   20.7343 C   0  0  0  0  0  0
  -27.1961  -28.3258   20.7318 C   0  0  0  0  0  0
  -25.8940  -26.7337   19.4690 C   0  0  0  0  0  0
  -24.8104  -27.6268   19.4651 C   0  0  0  0  0  0
  -23.6845  -29.8027   20.1476 C   0  0  0  0  0  0
  -25.4121  -36.3065   24.0306 C   0  0  1  0  0  0
  -20.5882  -28.3755   23.1202 C   0  0  2  0  0  0
  -20.6786  -26.9461   22.5395 C   0  0  0  0  0  0
  -19.5782  -26.6374   21.5199 C   0  0  0  0  0  0
  -18.1930  -26.7934   22.1576 C   0  0  0  0  0  0
  -19.1519  -28.8894   23.2792 C   0  0  0  0  0  0
  -18.9459  -30.1477   23.8838 C   0  0  0  0  0  0
  -17.6472  -30.6622   24.0538 C   0  0  0  0  0  0
  -25.9095  -34.9432   23.5055 C   0  0  0  0  0  0
  -16.5348  -29.9123   23.6348 C   0  0  0  0  0  0
  -16.7241  -28.6531   23.0371 C   0  0  0  0  0  0
  -26.4544  -31.6624   25.0740 C   0  0  0  0  0  0
  -25.3663  -31.3916   26.1404 C   0  0  0  0  0  0
  -27.0481  -30.2999   24.6493 C   0  0  0  0  0  0
  -27.6041  -32.4405   25.7558 C   0  0  0  0  0  0
  -27.5589  -37.1773   24.8449 C   0  0  0  0  0  0
  -21.4259  -29.3076   22.3578 N   0  0  0  0  0  0
  -26.4275  -37.3801   23.9434 N   0  0  0  0  0  0
  -24.7366  -31.0114   22.0901 N   0  0  0  0  0  0
  -23.4186  -28.8040   23.3000 O   0  0  0  0  0  0
  -28.0151  -25.8510   20.1406 O   0  0  0  0  0  0
  -26.5673  -34.8937   22.4631 O   0  0  0  0  0  0
  -23.5640  -32.1323   23.6917 O   0  0  0  0  0  0
  -28.3002  -13.3840   21.2182 C   0  0  0  0  0  0
  -29.0773  -18.1345   19.1000 C   0  0  0  0  0  0
  -26.3160  -21.2688   21.3651 C   0  0  0  0  0  0
  -28.7309  -20.8266   21.1731 C   0  0  0  0  0  0
  -26.5667  -19.9990   18.1467 C   0  0  0  0  0  0
  -27.6326  -22.7458   19.6793 C   0  0  0  0  0  0
  -26.8551  -16.6879   19.0742 C   0  0  0  0  0  0
  -27.5868  -24.3239   20.4815 C   0  0  0  0  0  0
  -27.6276  -18.1695   19.6787 C   0  0  2  0  0  0
  -27.4560  -21.1065   20.3377 C   0  0  0  0  0  0
  -27.2271  -12.2332   19.9512 N   0  0  0  0  0  0
  -28.0130  -14.8929   20.8905 N   0  0  0  0  0  0
  -26.4525  -13.5106   18.9064 N   0  0  0  0  0  0
  -27.0514  -15.1108   19.5530 N   0  0  0  0  0  0
  -27.0552  -19.7135   19.5195 N   0  3  1  0  0  0
  -31.7832  -13.8395   18.9177 H   0  0  0  0  0  0
  -31.9732  -12.1223   18.8389 H   0  0  0  0  0  0
  -30.5838  -12.0627   16.9086 H   0  0  0  0  0  0
  -30.5331  -13.7751   16.9748 H   0  0  0  0  0  0
  -28.3168  -11.8459   17.6684 H   0  0  0  0  0  0
  -28.2536  -13.4213   16.9165 H   0  0  0  0  0  0
  -29.2094  -14.5035   18.8688 H   0  0  0  0  0  0
  -29.8007  -11.2574   19.1055 H   0  0  0  0  0  0
  -29.2696  -11.4366   20.5113 H   0  0  0  0  0  0
  -25.2584   -9.6845   22.5795 H   0  0  0  0  0  0
  -24.0484   -7.5286   22.7475 H   0  0  0  0  0  0
  -21.1652   -8.9305   19.8667 H   0  0  0  0  0  0
  -22.4023  -11.0469   19.6702 H   0  0  0  0  0  0
  -21.2440   -7.6325   23.9771 H   0  0  0  0  0  0
  -21.1399   -6.0589   25.9004 H   0  0  0  0  0  0
  -22.0464   -2.7728   23.2774 H   0  0  0  0  0  0
  -22.2280  -12.0321   22.4917 H   0  0  0  0  0  0
  -20.8153  -12.9767   22.1864 H   0  0  0  0  0  0
  -23.8359  -15.9751   20.8928 H   0  0  0  0  0  0
  -25.4719  -16.1246   21.2811 H   0  0  0  0  0  0
  -26.7355  -32.5219   23.0948 H   0  0  0  0  0  0
  -25.0186  -33.9636   25.0327 H   0  0  0  0  0  0
  -22.7663  -31.2859   21.3794 H   0  0  0  0  0  0
  -23.3790  -35.9508   23.3260 H   0  0  0  0  0  0
  -24.3537  -36.8922   22.2057 H   0  0  0  0  0  0
  -23.7108  -37.6378   23.6700 H   0  0  0  0  0  0
  -26.2037  -31.4083   20.6247 H   0  0  0  0  0  0
  -26.8857  -30.7035   22.0554 H   0  0  0  0  0  0
  -28.1078  -28.6013   21.2414 H   0  0  0  0  0  0
  -25.7529  -25.7822   18.9727 H   0  0  0  0  0  0
  -23.8913  -27.3243   18.9846 H   0  0  0  0  0  0
  -23.8544  -30.5820   19.4030 H   0  0  0  0  0  0
  -22.7847  -29.2782   19.8210 H   0  0  0  0  0  0
  -25.1295  -36.1922   25.0793 H   0  0  0  0  0  0
  -20.9909  -28.3353   24.1350 H   0  0  0  0  0  0
  -20.5704  -26.2366   23.3616 H   0  0  0  0  0  0
  -21.6658  -26.7507   22.1192 H   0  0  0  0  0  0
  -19.6996  -25.6261   21.1304 H   0  0  0  0  0  0
  -19.6760  -27.3105   20.6672 H   0  0  0  0  0  0
  -17.4218  -26.6579   21.3974 H   0  0  0  0  0  0
  -18.0366  -26.0097   22.8997 H   0  0  0  0  0  0
  -19.7951  -30.7265   24.2206 H   0  0  0  0  0  0
  -17.5062  -31.6305   24.5137 H   0  0  0  0  0  0
  -15.5364  -30.3051   23.7766 H   0  0  0  0  0  0
  -15.8588  -28.0875   22.7195 H   0  0  0  0  0  0
  -24.5761  -30.7384   25.7705 H   0  0  0  0  0  0
  -24.8960  -32.3169   26.4754 H   0  0  0  0  0  0
  -25.7849  -30.9087   27.0247 H   0  0  0  0  0  0
  -26.3188  -29.6600   24.1529 H   0  0  0  0  0  0
  -27.4045  -29.7470   25.5201 H   0  0  0  0  0  0
  -27.9093  -30.4196   23.9912 H   0  0  0  0  0  0
  -27.2610  -33.3689   26.2148 H   0  0  0  0  0  0
  -28.3888  -32.6997   25.0434 H   0  0  0  0  0  0
  -28.0702  -31.8540   26.5496 H   0  0  0  0  0  0
  -28.2563  -38.0121   24.7633 H   0  0  0  0  0  0
  -28.1135  -36.2671   24.6129 H   0  0  0  0  0  0
  -27.2324  -37.1234   25.8846 H   0  0  0  0  0  0
  -20.9494  -29.8814   21.6760 H   0  0  0  0  0  0
  -26.0157  -38.2862   24.1503 H   0  0  0  0  0  0
  -29.5816  -17.1874   19.3058 H   0  0  0  0  0  0
  -29.7423  -18.8905   19.4984 H   0  0  0  0  0  0
  -29.0848  -18.3024   18.0200 H   0  0  0  0  0  0
  -26.5566  -22.0529   22.0884 H   0  0  0  0  0  0
  -26.1229  -20.3503   21.9244 H   0  0  0  0  0  0
  -25.3792  -21.5589   20.8871 H   0  0  0  0  0  0
  -29.0002  -21.6716   21.8108 H   0  0  0  0  0  0
  -29.6090  -20.6693   20.5524 H   0  0  0  0  0  0
  -28.6009  -19.9604   21.8293 H   0  0  0  0  0  0
  -26.6178  -19.1062   17.5259 H   0  0  0  0  0  0
  -27.1340  -20.7772   17.6389 H   0  0  0  0  0  0
  -25.5173  -20.3066   18.1867 H   0  0  0  0  0  0
  -28.5938  -22.7270   19.1665 H   0  0  0  0  0  0
  -26.9093  -22.8412   18.8717 H   0  0  0  0  0  0
  -27.0713  -16.6755   18.0026 H   0  0  0  0  0  0
  -25.7893  -16.8949   19.0680 H   0  0  0  0  0  0
  -28.1833  -24.1480   21.3775 H   0  0  0  0  0  0
  -26.5769  -24.4268   20.8746 H   0  0  0  0  0  0
  -27.6960  -18.0081   20.7616 H   0  0  0  0  0  0
  -26.1653  -19.5727   19.9776 H   0  0  0  0  0  0
  1 25  1  0  0  0
  1 30  2  0  0  0
  1 71  1  0  0  0
  2  3  1  0  0  0
  2 25  1  0  0  0
  2 86  1  0  0  0
  2 87  1  0  0  0
  3  4  1  0  0  0
  3 88  1  0  0  0
  3 89  1  0  0  0
  4  5  1  0  0  0
  4 90  1  0  0  0
  4 91  1  0  0  0
  5  6  1  0  0  0
  5 26  1  0  0  0
  5 92  1  0  0  0
  6 25  1  0  0  0
  6 93  1  0  0  0
  6 94  1  0  0  0
  7  8  2  0  0  0
  7 26  1  0  0  0
  7 29  1  0  0  0
  8  9  1  0  0  0
  8 22  1  0  0  0
  9 10  1  0  0  0
  9 27  2  0  0  0
 10 11  2  0  0  0
 10 15  1  0  0  0
 11 12  1  0  0  0
 11 95  1  0  0  0
 12 13  2  0  0  0
 12 96  1  0  0  0
 13 14  1  0  0  0
 13 31  1  0  0  0
 14 15  2  0  0  0
 14 97  1  0  0  0
 15 98  1  0  0  0
 16 17  2  0  0  0
 16 21  1  0  0  0
 16 31  1  0  0  0
 17 18  1  0  0  0
 17 99  1  0  0  0
 18 19  2  0  0  0
 18100  1  0  0  0
 19 20  1  0  0  0
 19 24  1  0  0  0
 20 21  2  0  0  0
 20101  1  0  0  0
 21 23  1  0  0  0
 22 28  1  0  0  0
 22 32  2  0  0  0
 26 27  1  0  0  0
 28102  1  0  0  0
 28103  1  0  0  0
 29104  1  0  0  0
 29105  1  0  0  0
 33 34  1  0  0  0
 33 66  1  0  0  0
 33 70  2  0  0  0
 34 36  1  0  0  0
 34 59  1  0  0  0
 34106  1  0  0  0
 35 44  2  0  0  0
 35 45  1  0  0  0
 35 68  1  0  0  0
 36 56  1  0  0  0
 36107  1  0  0  0
 37 39  1  0  0  0
 37 47  1  0  0  0
 37 66  1  0  0  0
 37108  1  0  0  0
 38 43  2  0  0  0
 38 46  1  0  0  0
 38 47  1  0  0  0
 39 64  1  0  0  0
 39 67  2  0  0  0
 40 52  1  0  0  0
 40 53  2  0  0  0
 40 58  1  0  0  0
 41109  1  0  0  0
 41110  1  0  0  0
 41111  1  0  0  0
 41 48  1  0  0  0
 42 43  1  0  0  0
 42 66  1  0  0  0
 42112  1  0  0  0
 42113  1  0  0  0
 43 44  1  0  0  0
 44114  1  0  0  0
 45 46  2  0  0  0
 45115  1  0  0  0
 46116  1  0  0  0
 47117  1  0  0  0
 47118  1  0  0  0
 48 56  1  0  0  0
 48 65  1  0  0  0
 48119  1  0  0  0
 49 50  1  0  0  0
 49 53  1  0  0  0
 49 64  1  0  0  0
 49120  1  0  0  0
 50 51  1  0  0  0
 50121  1  0  0  0
 50122  1  0  0  0
 51 52  1  0  0  0
 51123  1  0  0  0
 51124  1  0  0  0
 52125  1  0  0  0
 52126  1  0  0  0
 53 54  1  0  0  0
 54 55  2  0  0  0
 54127  1  0  0  0
 55 57  1  0  0  0
 55128  1  0  0  0
 56 69  2  0  0  0
 57 58  2  0  0  0
 57129  1  0  0  0
 58130  1  0  0  0
 59 60  1  0  0  0
 59 61  1  0  0  0
 59 62  1  0  0  0
 60131  1  0  0  0
 60132  1  0  0  0
 60133  1  0  0  0
 61134  1  0  0  0
 61135  1  0  0  0
 61136  1  0  0  0
 62137  1  0  0  0
 62138  1  0  0  0
 62139  1  0  0  0
 63 65  1  0  0  0
 63140  1  0  0  0
 63141  1  0  0  0
 63142  1  0  0  0
 64143  1  0  0  0
 65144  1  0  0  0
 68 78  1  0  0  0
 71 81  1  0  0  0
 71 82  2  0  0  0
 72145  1  0  0  0
 72146  1  0  0  0
 72147  1  0  0  0
 72 79  1  0  0  0
 73148  1  0  0  0
 73149  1  0  0  0
 73150  1  0  0  0
 73 80  1  0  0  0
 74 80  1  0  0  0
 74151  1  0  0  0
 74152  1  0  0  0
 74153  1  0  0  0
 75154  1  0  0  0
 75155  1  0  0  0
 75156  1  0  0  0
 75 85  1  0  0  0
 76 78  1  0  0  0
 76 80  1  0  0  0
 76157  1  0  0  0
 76158  1  0  0  0
 77 79  1  0  0  0
 77 84  1  0  0  0
 77159  1  0  0  0
 77160  1  0  0  0
 78161  1  0  0  0
 78162  1  0  0  0
 79 85  1  0  0  0
 79163  1  0  0  0
 80 85  1  0  0  0
 81 83  2  0  0  0
 82 84  1  0  0  0
 83 84  1  0  0  0
 85164  1  0  0  0
M  CHG  1  85   1
M  ISO  4   1 100  68 101  71 100  78 101
M  END
> <chiral flag>
0

> <version>
0

> <s_m_source_file>
/data/baiqing/PycharmProjects/Reinvent-master-3.2/result/LINK_invent/BTK/process_docking_weight1_custom_sum_contain_oxygen_bond_distance_aromatic_linkinvent_7_9_3/rearranged_h_0059.sdf

> <i_m_source_file_index>
59

> <r_mmod_Potential_Energy-OPLS-2005>
13416.560546875

> <r_mmod_Stretch_Energy-OPLS-2005>
7481.92333984375

> <r_mmod_Bend_Energy-OPLS-2005>
831.165283203125

> <r_mmod_Torsional_Energy-OPLS-2005>
498.174011230469

> <r_mmod_Improper_Torsional_Energy-OPLS-2005>
81.2028198242188

> <r_mmod_Van_der_Waal_Energy-OPLS-2005>
3102.16821289062

> <r_mmod_Electrostatic_Energy-OPLS-2005>
-80.0434036254883

> <r_mmod_Solvation_Energy-OPLS-2005>
-464.686706542969

> <b_mmod_Minimization_Converged-OPLS-2005>
0

> <r_mmod_RMS_Derivative-OPLS-2005>
21.4305019378662

$$$$
60
                    3D
 Structure written by MMmdl.
153161  0  0  1  0            999 V2000
  -30.4181  -15.3308   20.3704 C   0  0  0  0  0  0
  -30.4486  -12.8684   19.4915 C   0  0  0  0  0  0
  -29.5295  -12.5905   18.2729 C   0  0  0  0  0  0
  -28.0844  -12.2877   18.7116 C   0  0  0  0  0  0
  -27.6139  -13.2508   19.8265 C   0  0  2  0  0  0
  -28.6696  -13.4066   20.9466 C   0  0  0  0  0  0
  -25.2368  -13.8138   20.5725 C   0  0  0  0  0  0
  -24.1719  -13.0361   20.9252 C   0  0  0  0  0  0
  -24.6378  -11.6868   20.8778 C   0  0  0  0  0  0
  -23.9074  -10.4252   21.0415 C   0  0  0  0  0  0
  -24.3624   -9.4174   21.9193 C   0  0  0  0  0  0
  -23.6290   -8.2218   22.0754 C   0  0  0  0  0  0
  -22.4269   -8.0266   21.3539 C   0  0  0  0  0  0
  -21.9914   -9.0242   20.4637 C   0  0  0  0  0  0
  -22.7251  -10.2113   20.3052 C   0  0  0  0  0  0
  -21.6850   -6.0729   22.5283 C   0  0  0  0  0  0
  -21.4013   -6.5633   23.8216 C   0  0  0  0  0  0
  -21.3659   -5.6786   24.9175 C   0  0  0  0  0  0
  -21.6048   -4.3049   24.7226 C   0  0  0  0  0  0
  -21.8820   -3.8138   23.4348 C   0  0  0  0  0  0
  -21.9193   -4.6956   22.3404 C   0  0  0  0  0  0
  -22.7742  -13.5151   21.1895 C   0  0  0  0  0  0
  -22.1655   -4.2146   21.0978 F   0  0  0  0  0  0
  -21.5635   -3.4530   25.7739 F   0  0  0  0  0  0
  -29.8636  -14.0041   20.3065 N   0  0  0  0  0  0
  -26.2828  -12.9395   20.3275 N   0  0  0  0  0  0
  -25.9321  -11.6528   20.5773 N   0  0  0  0  0  0
  -22.0386  -12.8155   22.0454 N   0  0  0  0  0  0
  -25.3882  -15.1859   20.4111 N   0  0  0  0  0  0
  -31.6468  -15.3076   20.1869 O   0  0  0  0  0  0
  -21.6625   -6.8871   21.4242 O   0  0  0  0  0  0
  -22.3435  -14.5457   20.6730 O   0  0  0  0  0  0
  -24.6649  -31.8215   23.1705 C   0  0  0  0  0  0
  -25.9325  -32.4579   23.8172 C   0  0  1  0  0  0
  -27.2242  -26.9166   20.1818 C   0  0  0  0  0  0
  -25.5989  -33.8394   24.2077 N   0  0  0  0  0  0
  -23.4807  -30.4323   21.5199 C   0  0  2  0  0  0
  -24.9345  -28.8170   20.1126 C   0  0  0  0  0  0
  -22.7676  -29.4429   22.4785 C   0  0  0  0  0  0
  -18.0325  -28.1412   22.8460 C   0  0  0  0  0  0
  -24.1491  -36.7196   23.2647 C   0  0  0  0  0  0
  -26.0511  -30.6225   21.4038 C   0  0  0  0  0  0
  -26.1192  -29.2122   20.7467 C   0  0  0  0  0  0
  -27.2575  -28.2841   20.7548 C   0  0  0  0  0  0
  -26.0112  -26.6799   19.4945 C   0  0  0  0  0  0
  -24.9065  -27.5708   19.4664 C   0  0  0  0  0  0
  -23.7219  -29.7476   20.1463 C   0  0  0  0  0  0
  -25.4136  -36.2961   24.0298 C   0  0  1  0  0  0
  -20.5948  -28.3757   23.1183 C   0  0  2  0  0  0
  -20.6804  -26.9438   22.5400 C   0  0  0  0  0  0
  -19.5779  -26.6374   21.5211 C   0  0  0  0  0  0
  -18.1960  -26.7942   22.1616 C   0  0  0  0  0  0
  -19.1584  -28.8905   23.2804 C   0  0  0  0  0  0
  -18.9498  -30.1495   23.8841 C   0  0  0  0  0  0
  -17.6491  -30.6600   24.0554 C   0  0  0  0  0  0
  -25.9105  -34.9344   23.5006 C   0  0  0  0  0  0
  -16.5380  -29.9087   23.6346 C   0  0  0  0  0  0
  -16.7306  -28.6508   23.0360 C   0  0  0  0  0  0
  -26.4569  -31.6532   25.0709 C   0  0  0  0  0  0
  -25.3692  -31.3784   26.1364 C   0  0  0  0  0  0
  -27.0479  -30.2900   24.6462 C   0  0  0  0  0  0
  -27.6058  -32.4349   25.7509 C   0  0  0  0  0  0
  -27.5569  -37.1758   24.8470 C   0  0  0  0  0  0
  -21.4347  -29.3037   22.3523 N   0  0  0  0  0  0
  -26.4281  -37.3701   23.9404 N   0  0  0  0  0  0
  -24.7536  -30.9859   22.0852 N   0  0  0  0  0  0
  -23.4207  -28.8004   23.3044 O   0  0  0  0  0  0
  -28.2288  -25.8066   20.2576 O   0  0  0  0  0  0
  -26.5711  -34.8881   22.4601 O   0  0  0  0  0  0
  -23.5714  -32.1194   23.6786 O   0  0  0  0  0  0
  -30.4550  -23.5683   20.3537 C   0  0  0  0  0  0
  -30.9072  -21.4688   20.4043 C   0  0  0  0  0  0
  -29.2128  -22.9752   20.2810 C   0  0  0  0  0  0
  -26.9203  -23.8609   21.2657 C   0  0  0  0  0  0
  -28.2211  -16.6105   20.5406 C   0  0  0  0  0  0
  -29.0531  -19.8216   20.3197 C   0  0  0  0  0  0
  -30.0526  -18.2870   20.3289 C   0  0  0  0  0  0
  -27.9650  -24.1671   20.1861 C   0  0  1  0  0  0
  -31.4907  -22.6547   20.4306 N   0  0  0  0  0  0
  -29.5673  -21.4163   20.3173 N   0  0  0  0  0  0
  -29.6727  -16.6480   20.4187 N   0  0  0  0  0  0
  -31.4459  -13.1159   19.1246 H   0  0  0  0  0  0
  -30.5823  -11.9677   20.0932 H   0  0  0  0  0  0
  -29.9218  -11.7633   17.6804 H   0  0  0  0  0  0
  -29.5318  -13.4639   17.6187 H   0  0  0  0  0  0
  -28.0554  -11.2613   19.0790 H   0  0  0  0  0  0
  -27.4085  -12.3266   17.8558 H   0  0  0  0  0  0
  -27.5188  -14.2027   19.3133 H   0  0  0  0  0  0
  -28.8906  -12.4389   21.4001 H   0  0  0  0  0  0
  -28.3130  -14.0148   21.7735 H   0  0  0  0  0  0
  -25.2774   -9.5654   22.4762 H   0  0  0  0  0  0
  -23.9995   -7.4614   22.7477 H   0  0  0  0  0  0
  -21.0845   -8.8773   19.8942 H   0  0  0  0  0  0
  -22.3725  -10.9656   19.6155 H   0  0  0  0  0  0
  -21.1996   -7.6140   23.9723 H   0  0  0  0  0  0
  -21.1482   -6.0508   25.9081 H   0  0  0  0  0  0
  -22.0598   -2.7603   23.2847 H   0  0  0  0  0  0
  -22.3993  -11.9827   22.4865 H   0  0  0  0  0  0
  -21.0998  -13.1185   22.2637 H   0  0  0  0  0  0
  -24.6183  -15.8336   20.5370 H   0  0  0  0  0  0
  -26.2447  -15.6383   20.1237 H   0  0  0  0  0  0
  -26.7395  -32.5102   23.0883 H   0  0  0  0  0  0
  -25.0099  -33.9472   25.0202 H   0  0  0  0  0  0
  -22.7955  -31.2649   21.3489 H   0  0  0  0  0  0
  -23.3770  -35.9511   23.3289 H   0  0  0  0  0  0
  -24.3565  -36.8863   22.2068 H   0  0  0  0  0  0
  -23.7236  -37.6371   23.6719 H   0  0  0  0  0  0
  -26.2356  -31.3638   20.6251 H   0  0  0  0  0  0
  -26.9091  -30.6765   22.0614 H   0  0  0  0  0  0
  -28.1536  -28.5866   21.2781 H   0  0  0  0  0  0
  -25.8819  -25.7303   18.9964 H   0  0  0  0  0  0
  -24.0081  -27.2623   18.9496 H   0  0  0  0  0  0
  -23.8823  -30.5178   19.3911 H   0  0  0  0  0  0
  -22.8303  -29.2062   19.8257 H   0  0  0  0  0  0
  -25.1336  -36.1757   25.0792 H   0  0  0  0  0  0
  -21.0031  -28.3367   24.1308 H   0  0  0  0  0  0
  -20.5684  -26.2377   23.3640 H   0  0  0  0  0  0
  -21.6668  -26.7413   22.1205 H   0  0  0  0  0  0
  -19.6940  -25.6269   21.1281 H   0  0  0  0  0  0
  -19.6722  -27.3151   20.6713 H   0  0  0  0  0  0
  -17.4227  -26.6679   21.4023 H   0  0  0  0  0  0
  -18.0360  -26.0096   22.9027 H   0  0  0  0  0  0
  -19.7973  -30.7326   24.2181 H   0  0  0  0  0  0
  -17.5044  -31.6276   24.5168 H   0  0  0  0  0  0
  -15.5379  -30.2973   23.7705 H   0  0  0  0  0  0
  -15.8704  -28.0814   22.7103 H   0  0  0  0  0  0
  -24.5885  -30.7125   25.7668 H   0  0  0  0  0  0
  -24.8872  -32.2986   26.4676 H   0  0  0  0  0  0
  -25.7920  -30.9020   27.0220 H   0  0  0  0  0  0
  -26.3162  -29.6562   24.1442 H   0  0  0  0  0  0
  -27.3980  -29.7277   25.5130 H   0  0  0  0  0  0
  -27.9112  -30.4085   23.9911 H   0  0  0  0  0  0
  -27.2629  -33.3694   26.1961 H   0  0  0  0  0  0
  -28.3934  -32.6838   25.0384 H   0  0  0  0  0  0
  -28.0660  -31.8562   26.5529 H   0  0  0  0  0  0
  -28.2573  -38.0066   24.7508 H   0  0  0  0  0  0
  -28.1076  -36.2590   24.6309 H   0  0  0  0  0  0
  -27.2280  -37.1415   25.8871 H   0  0  0  0  0  0
  -20.9608  -29.8714   21.6634 H   0  0  0  0  0  0
  -26.0126  -38.2756   24.1414 H   0  0  0  0  0  0
  -30.6775  -24.6267   20.3623 H   0  0  0  0  0  0
  -31.5096  -20.5742   20.4584 H   0  0  0  0  0  0
  -26.5910  -22.8238   21.2028 H   0  0  0  0  0  0
  -26.0338  -24.4856   21.1660 H   0  0  0  0  0  0
  -27.3303  -24.0208   22.2624 H   0  0  0  0  0  0
  -27.8951  -15.9858   21.3647 H   0  0  0  0  0  0
  -27.7865  -16.2794   19.6007 H   0  0  0  0  0  0
  -27.7788  -17.5810   20.7499 H   0  0  0  0  0  0
  -28.4023  -19.7551   21.1911 H   0  0  0  0  0  0
  -28.3738  -19.7396   19.4705 H   0  0  0  0  0  0
  -30.7560  -18.4119   21.1519 H   0  0  0  0  0  0
  -30.6783  -18.3498   19.4380 H   0  0  0  0  0  0
  -27.4807  -24.0089   19.2226 H   0  0  0  0  0  0
  1 25  1  0  0  0
  1 30  2  0  0  0
  1 81  1  0  0  0
  2  3  1  0  0  0
  2 25  1  0  0  0
  2 82  1  0  0  0
  2 83  1  0  0  0
  3  4  1  0  0  0
  3 84  1  0  0  0
  3 85  1  0  0  0
  4  5  1  0  0  0
  4 86  1  0  0  0
  4 87  1  0  0  0
  5  6  1  0  0  0
  5 26  1  0  0  0
  5 88  1  0  0  0
  6 25  1  0  0  0
  6 89  1  0  0  0
  6 90  1  0  0  0
  7  8  2  0  0  0
  7 26  1  0  0  0
  7 29  1  0  0  0
  8  9  1  0  0  0
  8 22  1  0  0  0
  9 10  1  0  0  0
  9 27  2  0  0  0
 10 11  2  0  0  0
 10 15  1  0  0  0
 11 12  1  0  0  0
 11 91  1  0  0  0
 12 13  2  0  0  0
 12 92  1  0  0  0
 13 14  1  0  0  0
 13 31  1  0  0  0
 14 15  2  0  0  0
 14 93  1  0  0  0
 15 94  1  0  0  0
 16 17  2  0  0  0
 16 21  1  0  0  0
 16 31  1  0  0  0
 17 18  1  0  0  0
 17 95  1  0  0  0
 18 19  2  0  0  0
 18 96  1  0  0  0
 19 20  1  0  0  0
 19 24  1  0  0  0
 20 21  2  0  0  0
 20 97  1  0  0  0
 21 23  1  0  0  0
 22 28  1  0  0  0
 22 32  2  0  0  0
 26 27  1  0  0  0
 28 98  1  0  0  0
 28 99  1  0  0  0
 29100  1  0  0  0
 29101  1  0  0  0
 33 34  1  0  0  0
 33 66  1  0  0  0
 33 70  2  0  0  0
 34 36  1  0  0  0
 34 59  1  0  0  0
 34102  1  0  0  0
 35 44  2  0  0  0
 35 45  1  0  0  0
 35 68  1  0  0  0
 36 56  1  0  0  0
 36103  1  0  0  0
 37 39  1  0  0  0
 37 47  1  0  0  0
 37 66  1  0  0  0
 37104  1  0  0  0
 38 43  2  0  0  0
 38 46  1  0  0  0
 38 47  1  0  0  0
 39 64  1  0  0  0
 39 67  2  0  0  0
 40 52  1  0  0  0
 40 53  2  0  0  0
 40 58  1  0  0  0
 41105  1  0  0  0
 41106  1  0  0  0
 41107  1  0  0  0
 41 48  1  0  0  0
 42 43  1  0  0  0
 42 66  1  0  0  0
 42108  1  0  0  0
 42109  1  0  0  0
 43 44  1  0  0  0
 44110  1  0  0  0
 45 46  2  0  0  0
 45111  1  0  0  0
 46112  1  0  0  0
 47113  1  0  0  0
 47114  1  0  0  0
 48 56  1  0  0  0
 48 65  1  0  0  0
 48115  1  0  0  0
 49 50  1  0  0  0
 49 53  1  0  0  0
 49 64  1  0  0  0
 49116  1  0  0  0
 50 51  1  0  0  0
 50117  1  0  0  0
 50118  1  0  0  0
 51 52  1  0  0  0
 51119  1  0  0  0
 51120  1  0  0  0
 52121  1  0  0  0
 52122  1  0  0  0
 53 54  1  0  0  0
 54 55  2  0  0  0
 54123  1  0  0  0
 55 57  1  0  0  0
 55124  1  0  0  0
 56 69  2  0  0  0
 57 58  2  0  0  0
 57125  1  0  0  0
 58126  1  0  0  0
 59 60  1  0  0  0
 59 61  1  0  0  0
 59 62  1  0  0  0
 60127  1  0  0  0
 60128  1  0  0  0
 60129  1  0  0  0
 61130  1  0  0  0
 61131  1  0  0  0
 61132  1  0  0  0
 62133  1  0  0  0
 62134  1  0  0  0
 62135  1  0  0  0
 63 65  1  0  0  0
 63136  1  0  0  0
 63137  1  0  0  0
 63138  1  0  0  0
 64139  1  0  0  0
 65140  1  0  0  0
 68 78  1  0  0  0
 71 73  2  0  0  0
 71 79  1  0  0  0
 71141  1  0  0  0
 72 79  2  0  0  0
 72 80  1  0  0  0
 72142  1  0  0  0
 73 78  1  0  0  0
 73 80  1  0  0  0
 74143  1  0  0  0
 74144  1  0  0  0
 74145  1  0  0  0
 74 78  1  0  0  0
 75 81  1  0  0  0
 75146  1  0  0  0
 75147  1  0  0  0
 75148  1  0  0  0
 76 77  1  0  0  0
 76 80  1  0  0  0
 76149  1  0  0  0
 76150  1  0  0  0
 77 81  1  0  0  0
 77151  1  0  0  0
 77152  1  0  0  0
 78153  1  0  0  0
M  ISO  4   1 100  68 101  78 101  81 100
M  END
> <chiral flag>
0

> <version>
0

> <s_m_source_file>
/data/baiqing/PycharmProjects/Reinvent-master-3.2/result/LINK_invent/BTK/process_docking_weight1_custom_sum_contain_oxygen_bond_distance_aromatic_linkinvent_7_9_3/rearranged_h_0059.sdf

> <i_m_source_file_index>
60

> <r_mmod_Potential_Energy-OPLS-2005>
1569.40710449219

> <r_mmod_Stretch_Energy-OPLS-2005>
684.142272949219

> <r_mmod_Bend_Energy-OPLS-2005>
504.209533691406

> <r_mmod_Torsional_Energy-OPLS-2005>
279.427398681641

> <r_mmod_Improper_Torsional_Energy-OPLS-2005>
4.26936054229736

> <r_mmod_Van_der_Waal_Energy-OPLS-2005>
116.04377746582

> <r_mmod_Electrostatic_Energy-OPLS-2005>
-282.869506835938

> <r_mmod_Solvation_Energy-OPLS-2005>
-230.796875

> <b_mmod_Minimization_Converged-OPLS-2005>
0

> <r_mmod_RMS_Derivative-OPLS-2005>
1.16480278968811

$$$$
61
                    3D
 Structure written by MMmdl.
155163  0  0  1  0            999 V2000
  -30.6916  -14.5734   20.4661 C   0  0  0  0  0  0
  -30.4231  -12.3406   19.4470 C   0  0  0  0  0  0
  -29.5009  -12.4545   18.2153 C   0  0  0  0  0  0
  -28.0211  -12.3239   18.6311 C   0  0  0  0  0  0
  -27.6462  -13.2076   19.8521 C   0  0  2  0  0  0
  -28.6976  -13.1039   20.9797 C   0  0  0  0  0  0
  -25.2562  -13.8149   20.5696 C   0  0  0  0  0  0
  -24.1824  -13.0422   20.9193 C   0  0  0  0  0  0
  -24.6383  -11.6892   20.8744 C   0  0  0  0  0  0
  -23.9057  -10.4283   21.0405 C   0  0  0  0  0  0
  -24.3615   -9.4201   21.9178 C   0  0  0  0  0  0
  -23.6299   -8.2233   22.0743 C   0  0  0  0  0  0
  -22.4276   -8.0272   21.3542 C   0  0  0  0  0  0
  -21.9911   -9.0243   20.4644 C   0  0  0  0  0  0
  -22.7235  -10.2126   20.3052 C   0  0  0  0  0  0
  -21.6850   -6.0742   22.5285 C   0  0  0  0  0  0
  -21.4007   -6.5644   23.8221 C   0  0  0  0  0  0
  -21.3660   -5.6793   24.9182 C   0  0  0  0  0  0
  -21.6046   -4.3054   24.7225 C   0  0  0  0  0  0
  -21.8819   -3.8151   23.4342 C   0  0  0  0  0  0
  -21.9187   -4.6972   22.3403 C   0  0  0  0  0  0
  -22.7854  -13.5219   21.1859 C   0  0  0  0  0  0
  -22.1656   -4.2164   21.0981 F   0  0  0  0  0  0
  -21.5634   -3.4534   25.7733 F   0  0  0  0  0  0
  -30.0137  -13.3901   20.3944 N   0  0  0  0  0  0
  -26.2971  -12.9304   20.3311 N   0  0  0  0  0  0
  -25.9306  -11.6470   20.5780 N   0  0  0  0  0  0
  -22.0495  -12.8207   22.0413 N   0  0  0  0  0  0
  -25.4281  -15.1876   20.4133 N   0  0  0  0  0  0
  -31.8951  -14.6500   20.2055 O   0  0  0  0  0  0
  -21.6630   -6.8881   21.4244 O   0  0  0  0  0  0
  -22.3548  -14.5534   20.6723 O   0  0  0  0  0  0
  -24.6175  -31.8651   23.2066 C   0  0  0  0  0  0
  -25.9054  -32.4806   23.8370 C   0  0  1  0  0  0
  -27.2314  -27.3957   20.1199 C   0  0  0  0  0  0
  -25.5894  -33.8605   24.2298 N   0  0  0  0  0  0
  -23.4082  -30.4876   21.5465 C   0  0  2  0  0  0
  -24.8562  -28.9459   20.1159 C   0  0  0  0  0  0
  -22.7429  -29.4643   22.4959 C   0  0  0  0  0  0
  -18.0273  -28.1388   22.8486 C   0  0  0  0  0  0
  -24.1487  -36.7317   23.2637 C   0  0  0  0  0  0
  -25.9397  -30.8212   21.3643 C   0  0  0  0  0  0
  -26.0184  -29.4516   20.7137 C   0  0  0  0  0  0
  -27.2114  -28.6867   20.7060 C   0  0  0  0  0  0
  -26.0541  -26.9139   19.5104 C   0  0  0  0  0  0
  -24.8710  -27.6779   19.5078 C   0  0  0  0  0  0
  -23.6210  -29.8190   20.1616 C   0  0  0  0  0  0
  -25.4107  -36.3104   24.0331 C   0  0  1  0  0  0
  -20.5869  -28.3677   23.1308 C   0  0  2  0  0  0
  -20.6764  -26.9409   22.5418 C   0  0  0  0  0  0
  -19.5742  -26.6387   21.5216 C   0  0  0  0  0  0
  -18.1921  -26.7926   22.1628 C   0  0  0  0  0  0
  -19.1525  -28.8846   23.2893 C   0  0  0  0  0  0
  -18.9457  -30.1452   23.8902 C   0  0  0  0  0  0
  -17.6462  -30.6589   24.0569 C   0  0  0  0  0  0
  -25.9040  -34.9468   23.5117 C   0  0  0  0  0  0
  -16.5351  -29.9098   23.6327 C   0  0  0  0  0  0
  -16.7264  -28.6521   23.0334 C   0  0  0  0  0  0
  -26.4465  -31.6594   25.0714 C   0  0  0  0  0  0
  -25.3724  -31.3729   26.1466 C   0  0  0  0  0  0
  -27.0294  -30.3023   24.6118 C   0  0  0  0  0  0
  -27.6025  -32.4318   25.7492 C   0  0  0  0  0  0
  -27.5582  -37.1813   24.8460 C   0  0  0  0  0  0
  -21.4151  -29.3043   22.3713 N   0  0  0  0  0  0
  -26.4288  -37.3795   23.9412 N   0  0  0  0  0  0
  -24.6736  -31.0729   22.0976 N   0  0  0  0  0  0
  -23.4191  -28.8178   23.3004 O   0  0  0  0  0  0
  -28.3780  -26.6195   20.1185 O   0  0  0  0  0  0
  -26.5614  -34.8927   22.4688 O   0  0  0  0  0  0
  -23.5359  -32.1410   23.7446 O   0  0  0  0  0  0
  -29.4252  -22.6062   21.9114 C   0  0  0  0  0  0
  -29.6361  -20.7958   20.9015 C   0  0  0  0  0  0
  -29.3749  -16.2073   19.2978 C   0  0  0  0  0  0
  -30.1310  -19.3935   20.5608 C   0  0  0  0  0  0
  -29.6080  -18.1989   21.4307 C   0  0  0  0  0  0
  -28.9446  -24.1525   19.9159 C   0  0  0  0  0  0
  -30.4594  -16.8661   21.3746 C   0  0  0  0  0  0
  -28.2776  -25.3057   20.7353 C   0  0  0  0  0  0
  -29.7345  -21.3309   22.1577 N   0  0  0  0  0  0
  -29.2804  -21.6804   19.9527 N   0  0  0  0  0  0
  -29.1527  -22.8682   20.6281 N   0  0  0  0  0  0
  -29.9495  -15.7230   20.5615 N   0  0  0  0  0  0
  -31.4687  -12.4323   19.1475 H   0  0  0  0  0  0
  -30.3274  -11.3571   19.9104 H   0  0  0  0  0  0
  -29.7525  -11.6783   17.4920 H   0  0  0  0  0  0
  -29.6682  -13.4011   17.7022 H   0  0  0  0  0  0
  -27.8455  -11.2755   18.8727 H   0  0  0  0  0  0
  -27.3720  -12.5530   17.7856 H   0  0  0  0  0  0
  -27.6386  -14.2304   19.4888 H   0  0  0  0  0  0
  -28.6958  -12.1078   21.4250 H   0  0  0  0  0  0
  -28.4649  -13.8053   21.7830 H   0  0  0  0  0  0
  -25.2753   -9.5688   22.4756 H   0  0  0  0  0  0
  -24.0017   -7.4622   22.7449 H   0  0  0  0  0  0
  -21.0848   -8.8754   19.8951 H   0  0  0  0  0  0
  -22.3681  -10.9660   19.6166 H   0  0  0  0  0  0
  -21.1988   -7.6151   23.9727 H   0  0  0  0  0  0
  -21.1488   -6.0524   25.9091 H   0  0  0  0  0  0
  -22.0596   -2.7611   23.2838 H   0  0  0  0  0  0
  -22.4102  -11.9880   22.4831 H   0  0  0  0  0  0
  -21.1117  -13.1240   22.2604 H   0  0  0  0  0  0
  -24.6678  -15.8472   20.5384 H   0  0  0  0  0  0
  -26.2962  -15.6294   20.1396 H   0  0  0  0  0  0
  -26.7126  -32.5509   23.1134 H   0  0  0  0  0  0
  -25.0019  -33.9751   25.0425 H   0  0  0  0  0  0
  -22.6984  -31.3053   21.4047 H   0  0  0  0  0  0
  -23.3739  -35.9661   23.3301 H   0  0  0  0  0  0
  -24.3584  -36.8934   22.2052 H   0  0  0  0  0  0
  -23.7248  -37.6525   23.6656 H   0  0  0  0  0  0
  -26.0561  -31.5848   20.5941 H   0  0  0  0  0  0
  -26.8260  -30.8761   21.9848 H   0  0  0  0  0  0
  -28.1084  -29.0729   21.1699 H   0  0  0  0  0  0
  -26.0521  -25.9416   19.0384 H   0  0  0  0  0  0
  -23.9797  -27.2822   19.0403 H   0  0  0  0  0  0
  -23.7387  -30.5954   19.4044 H   0  0  0  0  0  0
  -22.7430  -29.2454   19.8587 H   0  0  0  0  0  0
  -25.1286  -36.1959   25.0823 H   0  0  0  0  0  0
  -20.9958  -28.3244   24.1429 H   0  0  0  0  0  0
  -20.5667  -26.2286   23.3610 H   0  0  0  0  0  0
  -21.6633  -26.7447   22.1212 H   0  0  0  0  0  0
  -19.6906  -25.6300   21.1237 H   0  0  0  0  0  0
  -19.6679  -27.3205   20.6751 H   0  0  0  0  0  0
  -17.4189  -26.6663   21.4033 H   0  0  0  0  0  0
  -18.0329  -26.0073   22.9029 H   0  0  0  0  0  0
  -19.7937  -30.7264   24.2267 H   0  0  0  0  0  0
  -17.5023  -31.6269   24.5178 H   0  0  0  0  0  0
  -15.5354  -30.3012   23.7645 H   0  0  0  0  0  0
  -15.8658  -28.0858   22.7025 H   0  0  0  0  0  0
  -24.5874  -30.7095   25.7819 H   0  0  0  0  0  0
  -24.8944  -32.2904   26.4911 H   0  0  0  0  0  0
  -25.8070  -30.8900   27.0226 H   0  0  0  0  0  0
  -26.2857  -29.6801   24.1123 H   0  0  0  0  0  0
  -27.3994  -29.7242   25.4596 H   0  0  0  0  0  0
  -27.8721  -30.4323   23.9322 H   0  0  0  0  0  0
  -27.2617  -33.3594   26.2104 H   0  0  0  0  0  0
  -28.3827  -32.6917   25.0326 H   0  0  0  0  0  0
  -28.0703  -31.8423   26.5389 H   0  0  0  0  0  0
  -28.2591  -38.0118   24.7517 H   0  0  0  0  0  0
  -28.1083  -36.2649   24.6266 H   0  0  0  0  0  0
  -27.2307  -37.1445   25.8864 H   0  0  0  0  0  0
  -20.9310  -29.8800   21.6964 H   0  0  0  0  0  0
  -26.0170  -38.2869   24.1421 H   0  0  0  0  0  0
  -29.4520  -23.3698   22.6771 H   0  0  0  0  0  0
  -28.3748  -16.6110   19.4509 H   0  0  0  0  0  0
  -29.2912  -15.4323   18.5375 H   0  0  0  0  0  0
  -29.9997  -16.9852   18.8582 H   0  0  0  0  0  0
  -31.2184  -19.4219   20.6251 H   0  0  0  0  0  0
  -29.9055  -19.1929   19.5135 H   0  0  0  0  0  0
  -28.5483  -18.0207   21.2520 H   0  0  0  0  0  0
  -29.6545  -18.5368   22.4661 H   0  0  0  0  0  0
  -29.9238  -24.4886   19.5744 H   0  0  0  0  0  0
  -28.3569  -23.9611   19.0180 H   0  0  0  0  0  0
  -30.5531  -16.4910   22.3956 H   0  0  0  0  0  0
  -31.4808  -17.1041   21.0702 H   0  0  0  0  0  0
  -28.7780  -25.3943   21.6998 H   0  0  0  0  0  0
  -27.2467  -25.0310   20.9661 H   0  0  0  0  0  0
  1 25  1  0  0  0
  1 30  2  0  0  0
  1 82  1  0  0  0
  2  3  1  0  0  0
  2 25  1  0  0  0
  2 83  1  0  0  0
  2 84  1  0  0  0
  3  4  1  0  0  0
  3 85  1  0  0  0
  3 86  1  0  0  0
  4  5  1  0  0  0
  4 87  1  0  0  0
  4 88  1  0  0  0
  5  6  1  0  0  0
  5 26  1  0  0  0
  5 89  1  0  0  0
  6 25  1  0  0  0
  6 90  1  0  0  0
  6 91  1  0  0  0
  7  8  2  0  0  0
  7 26  1  0  0  0
  7 29  1  0  0  0
  8  9  1  0  0  0
  8 22  1  0  0  0
  9 10  1  0  0  0
  9 27  2  0  0  0
 10 11  2  0  0  0
 10 15  1  0  0  0
 11 12  1  0  0  0
 11 92  1  0  0  0
 12 13  2  0  0  0
 12 93  1  0  0  0
 13 14  1  0  0  0
 13 31  1  0  0  0
 14 15  2  0  0  0
 14 94  1  0  0  0
 15 95  1  0  0  0
 16 17  2  0  0  0
 16 21  1  0  0  0
 16 31  1  0  0  0
 17 18  1  0  0  0
 17 96  1  0  0  0
 18 19  2  0  0  0
 18 97  1  0  0  0
 19 20  1  0  0  0
 19 24  1  0  0  0
 20 21  2  0  0  0
 20 98  1  0  0  0
 21 23  1  0  0  0
 22 28  1  0  0  0
 22 32  2  0  0  0
 26 27  1  0  0  0
 28 99  1  0  0  0
 28100  1  0  0  0
 29101  1  0  0  0
 29102  1  0  0  0
 33 34  1  0  0  0
 33 66  1  0  0  0
 33 70  2  0  0  0
 34 36  1  0  0  0
 34 59  1  0  0  0
 34103  1  0  0  0
 35 44  2  0  0  0
 35 45  1  0  0  0
 35 68  1  0  0  0
 36 56  1  0  0  0
 36104  1  0  0  0
 37 39  1  0  0  0
 37 47  1  0  0  0
 37 66  1  0  0  0
 37105  1  0  0  0
 38 43  2  0  0  0
 38 46  1  0  0  0
 38 47  1  0  0  0
 39 64  1  0  0  0
 39 67  2  0  0  0
 40 52  1  0  0  0
 40 53  2  0  0  0
 40 58  1  0  0  0
 41106  1  0  0  0
 41107  1  0  0  0
 41108  1  0  0  0
 41 48  1  0  0  0
 42 43  1  0  0  0
 42 66  1  0  0  0
 42109  1  0  0  0
 42110  1  0  0  0
 43 44  1  0  0  0
 44111  1  0  0  0
 45 46  2  0  0  0
 45112  1  0  0  0
 46113  1  0  0  0
 47114  1  0  0  0
 47115  1  0  0  0
 48 56  1  0  0  0
 48 65  1  0  0  0
 48116  1  0  0  0
 49 50  1  0  0  0
 49 53  1  0  0  0
 49 64  1  0  0  0
 49117  1  0  0  0
 50 51  1  0  0  0
 50118  1  0  0  0
 50119  1  0  0  0
 51 52  1  0  0  0
 51120  1  0  0  0
 51121  1  0  0  0
 52122  1  0  0  0
 52123  1  0  0  0
 53 54  1  0  0  0
 54 55  2  0  0  0
 54124  1  0  0  0
 55 57  1  0  0  0
 55125  1  0  0  0
 56 69  2  0  0  0
 57 58  2  0  0  0
 57126  1  0  0  0
 58127  1  0  0  0
 59 60  1  0  0  0
 59 61  1  0  0  0
 59 62  1  0  0  0
 60128  1  0  0  0
 60129  1  0  0  0
 60130  1  0  0  0
 61131  1  0  0  0
 61132  1  0  0  0
 61133  1  0  0  0
 62134  1  0  0  0
 62135  1  0  0  0
 62136  1  0  0  0
 63 65  1  0  0  0
 63137  1  0  0  0
 63138  1  0  0  0
 63139  1  0  0  0
 64140  1  0  0  0
 65141  1  0  0  0
 68 78  1  0  0  0
 71 79  2  0  0  0
 71 81  1  0  0  0
 71142  1  0  0  0
 72 74  1  0  0  0
 72 79  1  0  0  0
 72 80  2  0  0  0
 73 82  1  0  0  0
 73143  1  0  0  0
 73144  1  0  0  0
 73145  1  0  0  0
 74 75  1  0  0  0
 74146  1  0  0  0
 74147  1  0  0  0
 75 77  1  0  0  0
 75148  1  0  0  0
 75149  1  0  0  0
 76 78  1  0  0  0
 76 81  1  0  0  0
 76150  1  0  0  0
 76151  1  0  0  0
 77 82  1  0  0  0
 77152  1  0  0  0
 77153  1  0  0  0
 78154  1  0  0  0
 78155  1  0  0  0
 80 81  1  0  0  0
M  ISO  4   1 100  68 101  78 101  82 100
M  END
> <chiral flag>
0

> <version>
0

> <s_m_source_file>
/data/baiqing/PycharmProjects/Reinvent-master-3.2/result/LINK_invent/BTK/process_docking_weight1_custom_sum_contain_oxygen_bond_distance_aromatic_linkinvent_7_9_3/rearranged_h_0059.sdf

> <i_m_source_file_index>
61

> <r_mmod_Potential_Energy-OPLS-2005>
154.912139892578

> <r_mmod_Stretch_Energy-OPLS-2005>
52.2605133056641

> <r_mmod_Bend_Energy-OPLS-2005>
120.953323364258

> <r_mmod_Torsional_Energy-OPLS-2005>
331.803985595703

> <r_mmod_Improper_Torsional_Energy-OPLS-2005>
11.9689807891846

> <r_mmod_Van_der_Waal_Energy-OPLS-2005>
127.226089477539

> <r_mmod_Electrostatic_Energy-OPLS-2005>
-302.216735839844

> <r_mmod_Solvation_Energy-OPLS-2005>
-219.761871337891

> <b_mmod_Minimization_Converged-OPLS-2005>
0

> <r_mmod_RMS_Derivative-OPLS-2005>
1.2397575378418

$$$$
62
                    3D
 Structure written by MMmdl.
145153  0  0  1  0            999 V2000
  -30.2999  -15.6540   20.3468 C   0  0  0  0  0  0
  -30.4282  -13.0914   19.5519 C   0  0  0  0  0  0
  -29.5528  -12.6725   18.3329 C   0  0  0  0  0  0
  -28.1248  -12.3132   18.7689 C   0  0  0  0  0  0
  -27.6017  -13.3097   19.8273 C   0  0  2  0  0  0
  -28.6237  -13.6068   20.9524 C   0  0  0  0  0  0
  -25.2269  -13.8252   20.5732 C   0  0  0  0  0  0
  -24.1690  -13.0398   20.9279 C   0  0  0  0  0  0
  -24.6422  -11.6926   20.8776 C   0  0  0  0  0  0
  -23.9127  -10.4275   21.0403 C   0  0  0  0  0  0
  -24.3660   -9.4190   21.9187 C   0  0  0  0  0  0
  -23.6313   -8.2235   22.0756 C   0  0  0  0  0  0
  -22.4293   -8.0281   21.3545 C   0  0  0  0  0  0
  -21.9944   -9.0258   20.4644 C   0  0  0  0  0  0
  -22.7293  -10.2125   20.3051 C   0  0  0  0  0  0
  -21.6856   -6.0738   22.5277 C   0  0  0  0  0  0
  -21.4018   -6.5641   23.8211 C   0  0  0  0  0  0
  -21.3659   -5.6793   24.9172 C   0  0  0  0  0  0
  -21.6043   -4.3055   24.7223 C   0  0  0  0  0  0
  -21.8820   -3.8148   23.4343 C   0  0  0  0  0  0
  -21.9195   -4.6965   22.3400 C   0  0  0  0  0  0
  -22.7702  -13.5128   21.1912 C   0  0  0  0  0  0
  -22.1663   -4.2151   21.0978 F   0  0  0  0  0  0
  -21.5627   -3.4538   25.7736 F   0  0  0  0  0  0
  -29.7937  -14.2689   20.3144 N   0  0  0  0  0  0
  -26.2784  -12.9624   20.3280 N   0  0  0  0  0  0
  -25.9382  -11.6691   20.5754 N   0  0  0  0  0  0
  -22.0381  -12.8110   22.0479 N   0  0  0  0  0  0
  -25.3694  -15.1975   20.4033 N   0  0  0  0  0  0
  -31.5117  -15.5959   20.0533 O   0  0  0  0  0  0
  -21.6644   -6.8884   21.4242 O   0  0  0  0  0  0
  -22.3372  -14.5428   20.6750 O   0  0  0  0  0  0
  -24.6853  -31.7965   23.1492 C   0  0  0  0  0  0
  -25.9426  -32.4449   23.8046 C   0  0  1  0  0  0
  -27.2352  -26.6859   20.2113 C   0  0  0  0  0  0
  -25.5996  -33.8275   24.1933 N   0  0  0  0  0  0
  -23.5134  -30.3964   21.5022 C   0  0  2  0  0  0
  -24.9740  -28.7344   20.1123 C   0  0  0  0  0  0
  -22.7779  -29.4293   22.4694 C   0  0  0  0  0  0
  -18.0343  -28.1425   22.8452 C   0  0  0  0  0  0
  -24.1493  -36.7144   23.2655 C   0  0  0  0  0  0
  -26.0938  -30.5227   21.4179 C   0  0  0  0  0  0
  -26.1600  -29.0862   20.7666 C   0  0  0  0  0  0
  -27.2702  -28.0879   20.7885 C   0  0  0  0  0  0
  -26.0203  -26.5509   19.4894 C   0  0  0  0  0  0
  -24.9448  -27.4934   19.4502 C   0  0  0  0  0  0
  -23.7688  -29.6901   20.1378 C   0  0  0  0  0  0
  -25.4144  -36.2884   24.0282 C   0  0  1  0  0  0
  -20.5980  -28.3783   23.1133 C   0  0  2  0  0  0
  -20.6809  -26.9438   22.5402 C   0  0  0  0  0  0
  -19.5785  -26.6369   21.5215 C   0  0  0  0  0  0
  -18.1966  -26.7952   22.1616 C   0  0  0  0  0  0
  -19.1611  -28.8929   23.2772 C   0  0  0  0  0  0
  -18.9516  -30.1512   23.8820 C   0  0  0  0  0  0
  -17.6507  -30.6606   24.0550 C   0  0  0  0  0  0
  -25.9124  -34.9276   23.4946 C   0  0  0  0  0  0
  -16.5395  -29.9088   23.6353 C   0  0  0  0  0  0
  -16.7323  -28.6511   23.0368 C   0  0  0  0  0  0
  -26.4603  -31.6499   25.0679 C   0  0  0  0  0  0
  -25.3663  -31.3820   26.1287 C   0  0  0  0  0  0
  -27.0542  -30.2836   24.6596 C   0  0  0  0  0  0
  -27.6047  -32.4370   25.7494 C   0  0  0  0  0  0
  -27.5562  -37.1727   24.8470 C   0  0  0  0  0  0
  -21.4425  -29.3021   22.3446 N   0  0  0  0  0  0
  -26.4269  -37.3649   23.9410 N   0  0  0  0  0  0
  -24.7876  -30.9389   22.0755 N   0  0  0  0  0  0
  -23.4212  -28.7902   23.3054 O   0  0  0  0  0  0
  -28.1902  -25.4594   20.3481 O   0  0  0  0  0  0
  -26.5768  -34.8862   22.4566 O   0  0  0  0  0  0
  -23.5868  -32.1050   23.6434 O   0  0  0  0  0  0
  -29.1583  -20.4433   20.7205 C   0  0  0  0  0  0
  -28.7541  -22.1320   20.6933 C   0  0  0  0  0  0
  -28.4284  -16.9152   21.4334 C   0  0  0  0  0  0
  -29.5160  -18.7533   19.9954 C   0  0  0  0  0  0
  -28.1531  -23.7344   19.9346 C   0  0  0  0  0  0
  -29.4533  -20.2296   21.9830 N   0  0  0  0  0  0
  -28.9067  -22.4942   21.9475 N   0  0  0  0  0  0
  -29.5412  -17.0291   20.4973 N   0  0  0  0  0  0
  -29.3108  -21.4054   22.7166 O   0  0  0  0  0  0
  -31.4195  -13.3528   19.1807 H   0  0  0  0  0  0
  -30.6021  -12.2395   20.2118 H   0  0  0  0  0  0
  -30.0081  -11.8338   17.8044 H   0  0  0  0  0  0
  -29.5154  -13.4991   17.6219 H   0  0  0  0  0  0
  -28.1484  -11.3098   19.1962 H   0  0  0  0  0  0
  -27.4560  -12.2687   17.9086 H   0  0  0  0  0  0
  -27.4734  -14.2433   19.2780 H   0  0  0  0  0  0
  -28.8944  -12.6982   21.4924 H   0  0  0  0  0  0
  -28.1839  -14.2603   21.7025 H   0  0  0  0  0  0
  -25.2799   -9.5660   22.4773 H   0  0  0  0  0  0
  -24.0008   -7.4627   22.7482 H   0  0  0  0  0  0
  -21.0873   -8.8789   19.8952 H   0  0  0  0  0  0
  -22.3755  -10.9668   19.6163 H   0  0  0  0  0  0
  -21.2011   -7.6149   23.9714 H   0  0  0  0  0  0
  -21.1480   -6.0523   25.9075 H   0  0  0  0  0  0
  -22.0598   -2.7610   23.2843 H   0  0  0  0  0  0
  -22.4035  -11.9791   22.4873 H   0  0  0  0  0  0
  -21.0991  -13.1103   22.2691 H   0  0  0  0  0  0
  -24.5843  -15.8317   20.5037 H   0  0  0  0  0  0
  -26.1960  -15.6459   20.0318 H   0  0  0  0  0  0
  -26.7507  -32.4919   23.0755 H   0  0  0  0  0  0
  -25.0064  -33.9306   25.0033 H   0  0  0  0  0  0
  -22.8400  -31.2343   21.3097 H   0  0  0  0  0  0
  -23.3774  -35.9454   23.3270 H   0  0  0  0  0  0
  -24.3557  -36.8855   22.2079 H   0  0  0  0  0  0
  -23.7236  -37.6301   23.6764 H   0  0  0  0  0  0
  -26.2997  -31.2467   20.6287 H   0  0  0  0  0  0
  -26.9432  -30.5904   22.0850 H   0  0  0  0  0  0
  -28.1560  -28.3578   21.3464 H   0  0  0  0  0  0
  -25.8527  -25.6114   18.9827 H   0  0  0  0  0  0
  -24.0507  -27.2164   18.9087 H   0  0  0  0  0  0
  -23.9432  -30.4491   19.3744 H   0  0  0  0  0  0
  -22.8740  -29.1552   19.8148 H   0  0  0  0  0  0
  -25.1355  -36.1643   25.0772 H   0  0  0  0  0  0
  -21.0063  -28.3417   24.1259 H   0  0  0  0  0  0
  -20.5676  -26.2407   23.3669 H   0  0  0  0  0  0
  -21.6670  -26.7382   22.1218 H   0  0  0  0  0  0
  -19.6942  -25.6260   21.1296 H   0  0  0  0  0  0
  -19.6735  -27.3140   20.6715 H   0  0  0  0  0  0
  -17.4239  -26.6699   21.4015 H   0  0  0  0  0  0
  -18.0349  -26.0112   22.9027 H   0  0  0  0  0  0
  -19.7993  -30.7344   24.2158 H   0  0  0  0  0  0
  -17.5060  -31.6280   24.5163 H   0  0  0  0  0  0
  -15.5392  -30.2967   23.7723 H   0  0  0  0  0  0
  -15.8724  -28.0806   22.7126 H   0  0  0  0  0  0
  -24.5873  -30.7145   25.7585 H   0  0  0  0  0  0
  -24.8822  -32.3042   26.4508 H   0  0  0  0  0  0
  -25.7831  -30.9116   27.0201 H   0  0  0  0  0  0
  -26.3266  -29.6435   24.1595 H   0  0  0  0  0  0
  -27.3969  -29.7297   25.5347 H   0  0  0  0  0  0
  -27.9246  -30.3957   24.0130 H   0  0  0  0  0  0
  -27.2585  -33.3748   26.1851 H   0  0  0  0  0  0
  -28.3964  -32.6808   25.0399 H   0  0  0  0  0  0
  -28.0596  -31.8647   26.5588 H   0  0  0  0  0  0
  -28.2550  -38.0049   24.7513 H   0  0  0  0  0  0
  -28.1084  -36.2570   24.6303 H   0  0  0  0  0  0
  -27.2273  -37.1370   25.8871 H   0  0  0  0  0  0
  -20.9739  -29.8664   21.6494 H   0  0  0  0  0  0
  -26.0093  -38.2694   24.1431 H   0  0  0  0  0  0
  -27.6230  -16.3449   20.9820 H   0  0  0  0  0  0
  -28.0119  -17.8816   21.7143 H   0  0  0  0  0  0
  -28.7371  -16.4236   22.3571 H   0  0  0  0  0  0
  -30.5137  -18.8537   19.5676 H   0  0  0  0  0  0
  -28.8853  -18.7041   19.1079 H   0  0  0  0  0  0
  -27.0893  -23.5709   19.7646 H   0  0  0  0  0  0
  -28.5599  -23.7369   18.9237 H   0  0  0  0  0  0
  1 25  1  0  0  0
  1 30  2  0  0  0
  1 78  1  0  0  0
  2  3  1  0  0  0
  2 25  1  0  0  0
  2 80  1  0  0  0
  2 81  1  0  0  0
  3  4  1  0  0  0
  3 82  1  0  0  0
  3 83  1  0  0  0
  4  5  1  0  0  0
  4 84  1  0  0  0
  4 85  1  0  0  0
  5  6  1  0  0  0
  5 26  1  0  0  0
  5 86  1  0  0  0
  6 25  1  0  0  0
  6 87  1  0  0  0
  6 88  1  0  0  0
  7  8  2  0  0  0
  7 26  1  0  0  0
  7 29  1  0  0  0
  8  9  1  0  0  0
  8 22  1  0  0  0
  9 10  1  0  0  0
  9 27  2  0  0  0
 10 11  2  0  0  0
 10 15  1  0  0  0
 11 12  1  0  0  0
 11 89  1  0  0  0
 12 13  2  0  0  0
 12 90  1  0  0  0
 13 14  1  0  0  0
 13 31  1  0  0  0
 14 15  2  0  0  0
 14 91  1  0  0  0
 15 92  1  0  0  0
 16 17  2  0  0  0
 16 21  1  0  0  0
 16 31  1  0  0  0
 17 18  1  0  0  0
 17 93  1  0  0  0
 18 19  2  0  0  0
 18 94  1  0  0  0
 19 20  1  0  0  0
 19 24  1  0  0  0
 20 21  2  0  0  0
 20 95  1  0  0  0
 21 23  1  0  0  0
 22 28  1  0  0  0
 22 32  2  0  0  0
 26 27  1  0  0  0
 28 96  1  0  0  0
 28 97  1  0  0  0
 29 98  1  0  0  0
 29 99  1  0  0  0
 33 34  1  0  0  0
 33 66  1  0  0  0
 33 70  2  0  0  0
 34 36  1  0  0  0
 34 59  1  0  0  0
 34100  1  0  0  0
 35 44  2  0  0  0
 35 45  1  0  0  0
 35 68  1  0  0  0
 36 56  1  0  0  0
 36101  1  0  0  0
 37 39  1  0  0  0
 37 47  1  0  0  0
 37 66  1  0  0  0
 37102  1  0  0  0
 38 43  2  0  0  0
 38 46  1  0  0  0
 38 47  1  0  0  0
 39 64  1  0  0  0
 39 67  2  0  0  0
 40 52  1  0  0  0
 40 53  2  0  0  0
 40 58  1  0  0  0
 41103  1  0  0  0
 41104  1  0  0  0
 41105  1  0  0  0
 41 48  1  0  0  0
 42 43  1  0  0  0
 42 66  1  0  0  0
 42106  1  0  0  0
 42107  1  0  0  0
 43 44  1  0  0  0
 44108  1  0  0  0
 45 46  2  0  0  0
 45109  1  0  0  0
 46110  1  0  0  0
 47111  1  0  0  0
 47112  1  0  0  0
 48 56  1  0  0  0
 48 65  1  0  0  0
 48113  1  0  0  0
 49 50  1  0  0  0
 49 53  1  0  0  0
 49 64  1  0  0  0
 49114  1  0  0  0
 50 51  1  0  0  0
 50115  1  0  0  0
 50116  1  0  0  0
 51 52  1  0  0  0
 51117  1  0  0  0
 51118  1  0  0  0
 52119  1  0  0  0
 52120  1  0  0  0
 53 54  1  0  0  0
 54 55  2  0  0  0
 54121  1  0  0  0
 55 57  1  0  0  0
 55122  1  0  0  0
 56 69  2  0  0  0
 57 58  2  0  0  0
 57123  1  0  0  0
 58124  1  0  0  0
 59 60  1  0  0  0
 59 61  1  0  0  0
 59 62  1  0  0  0
 60125  1  0  0  0
 60126  1  0  0  0
 60127  1  0  0  0
 61128  1  0  0  0
 61129  1  0  0  0
 61130  1  0  0  0
 62131  1  0  0  0
 62132  1  0  0  0
 62133  1  0  0  0
 63 65  1  0  0  0
 63134  1  0  0  0
 63135  1  0  0  0
 63136  1  0  0  0
 64137  1  0  0  0
 65138  1  0  0  0
 68 75  1  0  0  0
 71 72  1  0  0  0
 71 74  1  0  0  0
 71 76  2  0  0  0
 72 75  1  0  0  0
 72 77  2  0  0  0
 73 78  1  0  0  0
 73139  1  0  0  0
 73140  1  0  0  0
 73141  1  0  0  0
 74 78  1  0  0  0
 74142  1  0  0  0
 74143  1  0  0  0
 75144  1  0  0  0
 75145  1  0  0  0
 76 79  1  0  0  0
 77 79  1  0  0  0
M  ISO  4   1 100  68 101  75 101  78 100
M  END
> <chiral flag>
0

> <version>
0

> <s_m_source_file>
/data/baiqing/PycharmProjects/Reinvent-master-3.2/result/LINK_invent/BTK/process_docking_weight1_custom_sum_contain_oxygen_bond_distance_aromatic_linkinvent_7_9_3/rearranged_h_0059.sdf

> <i_m_source_file_index>
62

> <r_mmod_Potential_Energy-OPLS-2005>
2684.76538085938

> <r_mmod_Stretch_Energy-OPLS-2005>
1201.88293457031

> <r_mmod_Bend_Energy-OPLS-2005>
724.775268554688

> <r_mmod_Torsional_Energy-OPLS-2005>
253.379043579102

> <r_mmod_Improper_Torsional_Energy-OPLS-2005>
4.37533569335938

> <r_mmod_Van_der_Waal_Energy-OPLS-2005>
111.439010620117

> <r_mmod_Electrostatic_Energy-OPLS-2005>
-300.860046386719

> <r_mmod_Solvation_Energy-OPLS-2005>
-235.600296020508

> <b_mmod_Minimization_Converged-OPLS-2005>
0

> <r_mmod_RMS_Derivative-OPLS-2005>
0.456111133098602

$$$$
63
                    3D
 Structure written by MMmdl.
156164  0  0  1  0            999 V2000
  -30.6178  -14.7287   20.5342 C   0  0  0  0  0  0
  -30.4321  -12.4573   19.4784 C   0  0  0  0  0  0
  -29.5140  -12.5298   18.2367 C   0  0  0  0  0  0
  -28.0355  -12.3560   18.6362 C   0  0  0  0  0  0
  -27.6445  -13.2313   19.8557 C   0  0  2  0  0  0
  -28.6800  -13.1198   20.9918 C   0  0  0  0  0  0
  -25.2511  -13.8204   20.5676 C   0  0  0  0  0  0
  -24.1800  -13.0449   20.9186 C   0  0  0  0  0  0
  -24.6398  -11.6925   20.8733 C   0  0  0  0  0  0
  -23.9076  -10.4301   21.0400 C   0  0  0  0  0  0
  -24.3627   -9.4217   21.9186 C   0  0  0  0  0  0
  -23.6304   -8.2247   22.0755 C   0  0  0  0  0  0
  -22.4289   -8.0282   21.3549 C   0  0  0  0  0  0
  -21.9922   -9.0251   20.4646 C   0  0  0  0  0  0
  -22.7246  -10.2133   20.3053 C   0  0  0  0  0  0
  -21.6854   -6.0740   22.5281 C   0  0  0  0  0  0
  -21.4013   -6.5641   23.8215 C   0  0  0  0  0  0
  -21.3666   -5.6795   24.9179 C   0  0  0  0  0  0
  -21.6048   -4.3053   24.7225 C   0  0  0  0  0  0
  -21.8818   -3.8145   23.4344 C   0  0  0  0  0  0
  -21.9187   -4.6967   22.3402 C   0  0  0  0  0  0
  -22.7822  -13.5234   21.1862 C   0  0  0  0  0  0
  -22.1652   -4.2152   21.0978 F   0  0  0  0  0  0
  -21.5645   -3.4535   25.7737 F   0  0  0  0  0  0
  -29.9919  -13.4983   20.4416 N   0  0  0  0  0  0
  -26.2938  -12.9409   20.3255 N   0  0  0  0  0  0
  -25.9324  -11.6548   20.5723 N   0  0  0  0  0  0
  -22.0465  -12.8222   22.0414 N   0  0  0  0  0  0
  -25.4232  -15.1931   20.4159 N   0  0  0  0  0  0
  -31.7346  -14.8780   20.0269 O   0  0  0  0  0  0
  -21.6645   -6.8881   21.4242 O   0  0  0  0  0  0
  -22.3497  -14.5532   20.6709 O   0  0  0  0  0  0
  -24.6318  -31.8551   23.1974 C   0  0  0  0  0  0
  -25.9141  -32.4754   23.8330 C   0  0  1  0  0  0
  -27.2224  -27.2563   20.1331 C   0  0  0  0  0  0
  -25.5944  -33.8561   24.2256 N   0  0  0  0  0  0
  -23.4300  -30.4760   21.5411 C   0  0  2  0  0  0
  -24.8776  -28.9221   20.1105 C   0  0  0  0  0  0
  -22.7511  -29.4597   22.4905 C   0  0  0  0  0  0
  -18.0298  -28.1401   22.8475 C   0  0  0  0  0  0
  -24.1496  -36.7275   23.2634 C   0  0  0  0  0  0
  -25.9766  -30.7649   21.3806 C   0  0  0  0  0  0
  -26.0494  -29.3882   20.7203 C   0  0  0  0  0  0
  -27.2242  -28.5686   20.7181 C   0  0  0  0  0  0
  -26.0291  -26.8618   19.4875 C   0  0  0  0  0  0
  -24.8738  -27.6683   19.4814 C   0  0  0  0  0  0
  -23.6484  -29.8089   20.1577 C   0  0  0  0  0  0
  -25.4127  -36.3068   24.0315 C   0  0  1  0  0  0
  -20.5903  -28.3714   23.1257 C   0  0  2  0  0  0
  -20.6799  -26.9432   22.5399 C   0  0  0  0  0  0
  -19.5775  -26.6390   21.5206 C   0  0  0  0  0  0
  -18.1950  -26.7945   22.1612 C   0  0  0  0  0  0
  -19.1554  -28.8874   23.2862 C   0  0  0  0  0  0
  -18.9469  -30.1473   23.8883 C   0  0  0  0  0  0
  -17.6468  -30.6595   24.0564 C   0  0  0  0  0  0
  -25.9063  -34.9438   23.5083 C   0  0  0  0  0  0
  -16.5356  -29.9086   23.6341 C   0  0  0  0  0  0
  -16.7285  -28.6509   23.0350 C   0  0  0  0  0  0
  -26.4505  -31.6595   25.0738 C   0  0  0  0  0  0
  -25.3701  -31.3755   26.1435 C   0  0  0  0  0  0
  -27.0377  -30.3012   24.6262 C   0  0  0  0  0  0
  -27.6057  -32.4345   25.7514 C   0  0  0  0  0  0
  -27.5588  -37.1794   24.8457 C   0  0  0  0  0  0
  -21.4221  -29.3049   22.3640 N   0  0  0  0  0  0
  -26.4300  -37.3767   23.9397 N   0  0  0  0  0  0
  -24.6980  -31.0503   22.0955 N   0  0  0  0  0  0
  -23.4202  -28.8136   23.3015 O   0  0  0  0  0  0
  -28.3185  -26.3621   20.2071 O   0  0  0  0  0  0
  -26.5628  -34.8909   22.4650 O   0  0  0  0  0  0
  -23.5464  -32.1377   23.7260 O   0  0  0  0  0  0
  -30.0167  -21.2298   20.4916 C   0  0  0  0  0  0
  -28.1475  -20.2007   20.6342 C   0  0  0  0  0  0
  -29.0220  -22.2260   20.4917 C   0  0  0  0  0  0
  -31.6265  -18.6364   20.3214 C   0  0  0  0  0  0
  -29.7348  -15.8922   22.4936 C   0  0  0  0  0  0
  -29.1511  -23.8083   20.6428 C   0  0  0  0  0  0
  -29.5333  -17.1547   20.3602 C   0  0  0  0  0  0
  -28.1061  -24.8772   20.0246 C   0  0  0  0  0  0
  -30.1790  -18.5687   20.8378 C   0  0  2  0  0  0
  -27.8219  -21.5108   20.5963 N   0  0  0  0  0  0
  -29.4641  -19.9130   20.5935 N   0  0  0  0  0  0
  -29.9139  -15.8239   21.0399 N   0  0  0  0  0  0
  -31.4739  -12.5812   19.1807 H   0  0  0  0  0  0
  -30.3761  -11.4695   19.9380 H   0  0  0  0  0  0
  -29.7985  -11.7652   17.5134 H   0  0  0  0  0  0
  -29.6488  -13.4885   17.7345 H   0  0  0  0  0  0
  -27.8758  -11.3025   18.8690 H   0  0  0  0  0  0
  -27.3892  -12.5815   17.7873 H   0  0  0  0  0  0
  -27.6526  -14.2648   19.5072 H   0  0  0  0  0  0
  -28.7133  -12.1030   21.3853 H   0  0  0  0  0  0
  -28.3723  -13.7484   21.8240 H   0  0  0  0  0  0
  -25.2767   -9.5700   22.4769 H   0  0  0  0  0  0
  -24.0013   -7.4642   22.7481 H   0  0  0  0  0  0
  -21.0852   -8.8756   19.8962 H   0  0  0  0  0  0
  -22.3686  -10.9669   19.6162 H   0  0  0  0  0  0
  -21.1989   -7.6148   23.9714 H   0  0  0  0  0  0
  -21.1507   -6.0530   25.9085 H   0  0  0  0  0  0
  -22.0590   -2.7606   23.2840 H   0  0  0  0  0  0
  -22.4056  -11.9875   22.4800 H   0  0  0  0  0  0
  -21.1084  -13.1253   22.2614 H   0  0  0  0  0  0
  -24.6646  -15.8544   20.5464 H   0  0  0  0  0  0
  -26.2887  -15.6326   20.1301 H   0  0  0  0  0  0
  -26.7212  -32.5398   23.1074 H   0  0  0  0  0  0
  -25.0127  -33.9713   25.0426 H   0  0  0  0  0  0
  -22.7270  -31.2984   21.3943 H   0  0  0  0  0  0
  -23.3772  -35.9592   23.3283 H   0  0  0  0  0  0
  -24.3579  -36.8916   22.2049 H   0  0  0  0  0  0
  -23.7235  -37.6462   23.6675 H   0  0  0  0  0  0
  -26.1240  -31.5275   20.6143 H   0  0  0  0  0  0
  -26.8492  -30.8077   22.0206 H   0  0  0  0  0  0
  -28.1201  -28.9198   21.2105 H   0  0  0  0  0  0
  -25.9604  -25.9035   18.9944 H   0  0  0  0  0  0
  -23.9775  -27.3087   18.9947 H   0  0  0  0  0  0
  -23.7723  -30.5846   19.4012 H   0  0  0  0  0  0
  -22.7674  -29.2408   19.8530 H   0  0  0  0  0  0
  -25.1314  -36.1912   25.0807 H   0  0  0  0  0  0
  -21.0001  -28.3300   24.1373 H   0  0  0  0  0  0
  -20.5722  -26.2320   23.3603 H   0  0  0  0  0  0
  -21.6662  -26.7472   22.1174 H   0  0  0  0  0  0
  -19.6941  -25.6293   21.1252 H   0  0  0  0  0  0
  -19.6722  -27.3186   20.6724 H   0  0  0  0  0  0
  -17.4226  -26.6690   21.4008 H   0  0  0  0  0  0
  -18.0350  -26.0089   22.9011 H   0  0  0  0  0  0
  -19.7940  -30.7300   24.2243 H   0  0  0  0  0  0
  -17.5014  -31.6267   24.5175 H   0  0  0  0  0  0
  -15.5360  -30.2979   23.7674 H   0  0  0  0  0  0
  -15.8685  -28.0819   22.7076 H   0  0  0  0  0  0
  -24.5861  -30.7148   25.7717 H   0  0  0  0  0  0
  -24.8919  -32.2939   26.4855 H   0  0  0  0  0  0
  -25.7967  -30.8895   27.0220 H   0  0  0  0  0  0
  -26.2990  -29.6738   24.1265 H   0  0  0  0  0  0
  -27.4026  -29.7301   25.4810 H   0  0  0  0  0  0
  -27.8875  -30.4285   23.9552 H   0  0  0  0  0  0
  -27.2665  -33.3637   26.2104 H   0  0  0  0  0  0
  -28.3860  -32.6922   25.0340 H   0  0  0  0  0  0
  -28.0749  -31.8475   26.5422 H   0  0  0  0  0  0
  -28.2583  -38.0115   24.7531 H   0  0  0  0  0  0
  -28.1113  -36.2642   24.6263 H   0  0  0  0  0  0
  -27.2301  -37.1405   25.8858 H   0  0  0  0  0  0
  -20.9420  -29.8739   21.6807 H   0  0  0  0  0  0
  -26.0178  -38.2836   24.1413 H   0  0  0  0  0  0
  -31.0892  -21.3706   20.4995 H   0  0  0  0  0  0
  -27.3985  -19.4318   20.7606 H   0  0  0  0  0  0
  -32.1521  -17.6990   20.4988 H   0  0  0  0  0  0
  -32.1999  -19.4190   20.8177 H   0  0  0  0  0  0
  -31.6536  -18.8279   19.2478 H   0  0  0  0  0  0
  -30.4951  -16.5317   22.9424 H   0  0  0  0  0  0
  -29.8296  -14.9224   22.9843 H   0  0  0  0  0  0
  -28.7528  -16.2954   22.7433 H   0  0  0  0  0  0
  -30.1312  -24.0909   20.2591 H   0  0  0  0  0  0
  -29.2132  -24.0265   21.7093 H   0  0  0  0  0  0
  -29.6928  -17.0396   19.2866 H   0  0  0  0  0  0
  -28.4514  -17.2317   20.4684 H   0  0  0  0  0  0
  -27.1362  -24.6173   20.4513 H   0  0  0  0  0  0
  -28.0296  -24.6909   18.9529 H   0  0  0  0  0  0
  -30.2437  -18.5179   21.9239 H   0  0  0  0  0  0
  1 25  1  0  0  0
  1 30  2  0  0  0
  1 82  1  0  0  0
  2  3  1  0  0  0
  2 25  1  0  0  0
  2 83  1  0  0  0
  2 84  1  0  0  0
  3  4  1  0  0  0
  3 85  1  0  0  0
  3 86  1  0  0  0
  4  5  1  0  0  0
  4 87  1  0  0  0
  4 88  1  0  0  0
  5  6  1  0  0  0
  5 26  1  0  0  0
  5 89  1  0  0  0
  6 25  1  0  0  0
  6 90  1  0  0  0
  6 91  1  0  0  0
  7  8  2  0  0  0
  7 26  1  0  0  0
  7 29  1  0  0  0
  8  9  1  0  0  0
  8 22  1  0  0  0
  9 10  1  0  0  0
  9 27  2  0  0  0
 10 11  2  0  0  0
 10 15  1  0  0  0
 11 12  1  0  0  0
 11 92  1  0  0  0
 12 13  2  0  0  0
 12 93  1  0  0  0
 13 14  1  0  0  0
 13 31  1  0  0  0
 14 15  2  0  0  0
 14 94  1  0  0  0
 15 95  1  0  0  0
 16 17  2  0  0  0
 16 21  1  0  0  0
 16 31  1  0  0  0
 17 18  1  0  0  0
 17 96  1  0  0  0
 18 19  2  0  0  0
 18 97  1  0  0  0
 19 20  1  0  0  0
 19 24  1  0  0  0
 20 21  2  0  0  0
 20 98  1  0  0  0
 21 23  1  0  0  0
 22 28  1  0  0  0
 22 32  2  0  0  0
 26 27  1  0  0  0
 28 99  1  0  0  0
 28100  1  0  0  0
 29101  1  0  0  0
 29102  1  0  0  0
 33 34  1  0  0  0
 33 66  1  0  0  0
 33 70  2  0  0  0
 34 36  1  0  0  0
 34 59  1  0  0  0
 34103  1  0  0  0
 35 44  2  0  0  0
 35 45  1  0  0  0
 35 68  1  0  0  0
 36 56  1  0  0  0
 36104  1  0  0  0
 37 39  1  0  0  0
 37 47  1  0  0  0
 37 66  1  0  0  0
 37105  1  0  0  0
 38 43  2  0  0  0
 38 46  1  0  0  0
 38 47  1  0  0  0
 39 64  1  0  0  0
 39 67  2  0  0  0
 40 52  1  0  0  0
 40 53  2  0  0  0
 40 58  1  0  0  0
 41106  1  0  0  0
 41107  1  0  0  0
 41108  1  0  0  0
 41 48  1  0  0  0
 42 43  1  0  0  0
 42 66  1  0  0  0
 42109  1  0  0  0
 42110  1  0  0  0
 43 44  1  0  0  0
 44111  1  0  0  0
 45 46  2  0  0  0
 45112  1  0  0  0
 46113  1  0  0  0
 47114  1  0  0  0
 47115  1  0  0  0
 48 56  1  0  0  0
 48 65  1  0  0  0
 48116  1  0  0  0
 49 50  1  0  0  0
 49 53  1  0  0  0
 49 64  1  0  0  0
 49117  1  0  0  0
 50 51  1  0  0  0
 50118  1  0  0  0
 50119  1  0  0  0
 51 52  1  0  0  0
 51120  1  0  0  0
 51121  1  0  0  0
 52122  1  0  0  0
 52123  1  0  0  0
 53 54  1  0  0  0
 54 55  2  0  0  0
 54124  1  0  0  0
 55 57  1  0  0  0
 55125  1  0  0  0
 56 69  2  0  0  0
 57 58  2  0  0  0
 57126  1  0  0  0
 58127  1  0  0  0
 59 60  1  0  0  0
 59 61  1  0  0  0
 59 62  1  0  0  0
 60128  1  0  0  0
 60129  1  0  0  0
 60130  1  0  0  0
 61131  1  0  0  0
 61132  1  0  0  0
 61133  1  0  0  0
 62134  1  0  0  0
 62135  1  0  0  0
 62136  1  0  0  0
 63 65  1  0  0  0
 63137  1  0  0  0
 63138  1  0  0  0
 63139  1  0  0  0
 64140  1  0  0  0
 65141  1  0  0  0
 68 78  1  0  0  0
 71 73  2  0  0  0
 71 81  1  0  0  0
 71142  1  0  0  0
 72 80  2  0  0  0
 72 81  1  0  0  0
 72143  1  0  0  0
 73 76  1  0  0  0
 73 80  1  0  0  0
 74144  1  0  0  0
 74145  1  0  0  0
 74146  1  0  0  0
 74 79  1  0  0  0
 75 82  1  0  0  0
 75147  1  0  0  0
 75148  1  0  0  0
 75149  1  0  0  0
 76 78  1  0  0  0
 76150  1  0  0  0
 76151  1  0  0  0
 77 79  1  0  0  0
 77 82  1  0  0  0
 77152  1  0  0  0
 77153  1  0  0  0
 78154  1  0  0  0
 78155  1  0  0  0
 79 81  1  0  0  0
 79156  1  0  0  0
M  ISO  4   1 100  68 101  78 101  82 100
M  END
> <chiral flag>
0

> <version>
0

> <s_m_source_file>
/data/baiqing/PycharmProjects/Reinvent-master-3.2/result/LINK_invent/BTK/process_docking_weight1_custom_sum_contain_oxygen_bond_distance_aromatic_linkinvent_7_9_3/rearranged_h_0059.sdf

> <i_m_source_file_index>
63

> <r_mmod_Potential_Energy-OPLS-2005>
331.221527099609

> <r_mmod_Stretch_Energy-OPLS-2005>
132.602844238281

> <r_mmod_Bend_Energy-OPLS-2005>
183.58674621582

> <r_mmod_Torsional_Energy-OPLS-2005>
318.946228027344

> <r_mmod_Improper_Torsional_Energy-OPLS-2005>
6.84943628311157

> <r_mmod_Van_der_Waal_Energy-OPLS-2005>
116.898147583008

> <r_mmod_Electrostatic_Energy-OPLS-2005>
-295.001678466797

> <r_mmod_Solvation_Energy-OPLS-2005>
-213.629058837891

> <b_mmod_Minimization_Converged-OPLS-2005>
0

> <r_mmod_RMS_Derivative-OPLS-2005>
1.45744049549103

$$$$
64
                    3D
 Structure written by MMmdl.
158166  0  0  1  0            999 V2000
  -30.6190  -14.8642   20.3680 C   0  0  0  0  0  0
  -30.4328  -12.5259   19.4927 C   0  0  0  0  0  0
  -29.5091  -12.4522   18.2577 C   0  0  0  0  0  0
  -28.0490  -12.2409   18.6927 C   0  0  0  0  0  0
  -27.6165  -13.2025   19.8283 C   0  0  2  0  0  0
  -28.6662  -13.3029   20.9534 C   0  0  0  0  0  0
  -25.2493  -13.8102   20.5789 C   0  0  0  0  0  0
  -24.1745  -13.0369   20.9240 C   0  0  0  0  0  0
  -24.6309  -11.6845   20.8806 C   0  0  0  0  0  0
  -23.9010  -10.4255   21.0444 C   0  0  0  0  0  0
  -24.3562   -9.4169   21.9215 C   0  0  0  0  0  0
  -23.6245   -8.2202   22.0761 C   0  0  0  0  0  0
  -22.4239   -8.0250   21.3538 C   0  0  0  0  0  0
  -21.9861   -9.0227   20.4654 C   0  0  0  0  0  0
  -22.7180  -10.2116   20.3093 C   0  0  0  0  0  0
  -21.6836   -6.0721   22.5281 C   0  0  0  0  0  0
  -21.4000   -6.5629   23.8211 C   0  0  0  0  0  0
  -21.3638   -5.6794   24.9170 C   0  0  0  0  0  0
  -21.6031   -4.3063   24.7241 C   0  0  0  0  0  0
  -21.8813   -3.8142   23.4369 C   0  0  0  0  0  0
  -21.9185   -4.6947   22.3411 C   0  0  0  0  0  0
  -22.7781  -13.5208   21.1847 C   0  0  0  0  0  0
  -22.1664   -4.2123   21.1001 F   0  0  0  0  0  0
  -21.5599   -3.4553   25.7766 F   0  0  0  0  0  0
  -29.9602  -13.6432   20.3484 N   0  0  0  0  0  0
  -26.2828  -12.9211   20.3325 N   0  0  0  0  0  0
  -25.9211  -11.6397   20.5820 N   0  0  0  0  0  0
  -22.0429  -12.8233   22.0436 N   0  0  0  0  0  0
  -25.4231  -15.1834   20.4272 N   0  0  0  0  0  0
  -31.8529  -14.8158   20.3195 O   0  0  0  0  0  0
  -21.6604   -6.8847   21.4238 O   0  0  0  0  0  0
  -22.3493  -14.5512   20.6680 O   0  0  0  0  0  0
  -24.6270  -31.8598   23.2013 C   0  0  0  0  0  0
  -25.9108  -32.4795   23.8361 C   0  0  1  0  0  0
  -27.2326  -27.2606   20.1620 C   0  0  0  0  0  0
  -25.5927  -33.8588   24.2308 N   0  0  0  0  0  0
  -23.4283  -30.4766   21.5435 C   0  0  2  0  0  0
  -24.8833  -28.9139   20.1274 C   0  0  0  0  0  0
  -22.7512  -29.4627   22.4940 C   0  0  0  0  0  0
  -18.0296  -28.1413   22.8491 C   0  0  0  0  0  0
  -24.1488  -36.7268   23.2644 C   0  0  0  0  0  0
  -25.9711  -30.7708   21.3826 C   0  0  0  0  0  0
  -26.0521  -29.3826   20.7440 C   0  0  0  0  0  0
  -27.2308  -28.5666   20.7554 C   0  0  0  0  0  0
  -26.0511  -26.8611   19.5081 C   0  0  0  0  0  0
  -24.8877  -27.6570   19.4982 C   0  0  0  0  0  0
  -23.6528  -29.8013   20.1654 C   0  0  0  0  0  0
  -25.4124  -36.3091   24.0351 C   0  0  1  0  0  0
  -20.5900  -28.3731   23.1306 C   0  0  2  0  0  0
  -20.6784  -26.9442   22.5435 C   0  0  0  0  0  0
  -19.5749  -26.6402   21.5242 C   0  0  0  0  0  0
  -18.1923  -26.7944   22.1649 C   0  0  0  0  0  0
  -19.1541  -28.8875   23.2895 C   0  0  0  0  0  0
  -18.9454  -30.1470   23.8903 C   0  0  0  0  0  0
  -17.6444  -30.6592   24.0559 C   0  0  0  0  0  0
  -25.9048  -34.9460   23.5134 C   0  0  0  0  0  0
  -16.5341  -29.9084   23.6328 C   0  0  0  0  0  0
  -16.7278  -28.6522   23.0326 C   0  0  0  0  0  0
  -26.4477  -31.6582   25.0700 C   0  0  0  0  0  0
  -25.3684  -31.3671   26.1411 C   0  0  0  0  0  0
  -27.0341  -30.3025   24.6122 C   0  0  0  0  0  0
  -27.6060  -32.4283   25.7458 C   0  0  0  0  0  0
  -27.5601  -37.1798   24.8489 C   0  0  0  0  0  0
  -21.4211  -29.3087   22.3689 N   0  0  0  0  0  0
  -26.4315  -37.3779   23.9421 N   0  0  0  0  0  0
  -24.6944  -31.0555   22.0996 N   0  0  0  0  0  0
  -23.4204  -28.8152   23.3039 O   0  0  0  0  0  0
  -28.3295  -26.3745   20.0816 O   0  0  0  0  0  0
  -26.5611  -34.8928   22.4694 O   0  0  0  0  0  0
  -23.5418  -32.1421   23.7314 O   0  0  0  0  0  0
  -29.5201  -19.7294   21.0808 C   0  0  0  0  0  0
  -28.8214  -16.2618   18.9090 C   0  0  0  0  0  0
  -28.2343  -23.4301   22.7287 C   0  0  0  0  0  0
  -26.7306  -23.6358   20.7876 C   0  0  0  0  0  0
  -29.7897  -21.2874   21.2153 C   0  0  0  0  0  0
  -29.0305  -22.5395   20.4630 C   0  0  0  0  0  0
  -28.6122  -25.3444   21.1259 C   0  0  0  0  0  0
  -29.9850  -16.3144   19.9126 C   0  0  2  0  0  0
  -28.2017  -23.7493   21.2121 C   0  0  0  0  0  0
  -28.8187  -19.0110   22.0193 N   0  0  0  0  0  0
  -30.1507  -18.8765   20.2382 N   0  0  0  0  0  0
  -28.9886  -17.7271   21.7853 N   0  0  0  0  0  0
  -29.8370  -17.6030   20.7337 N   0  0  0  0  0  0
  -30.4159  -11.5901   20.0516 H   0  0  0  0  0  0
  -31.4639  -12.6623   19.1673 H   0  0  0  0  0  0
  -29.8167  -11.6302   17.6134 H   0  0  0  0  0  0
  -29.6050  -13.3562   17.6567 H   0  0  0  0  0  0
  -27.9737  -11.2141   19.0514 H   0  0  0  0  0  0
  -27.3718  -12.3159   17.8410 H   0  0  0  0  0  0
  -27.5208  -14.1614   19.3480 H   0  0  0  0  0  0
  -28.7365  -12.3697   21.5110 H   0  0  0  0  0  0
  -28.3751  -14.0731   21.6695 H   0  0  0  0  0  0
  -25.2675   -9.5623   22.4826 H   0  0  0  0  0  0
  -23.9923   -7.4577   22.7468 H   0  0  0  0  0  0
  -21.0786   -8.8734   19.8965 H   0  0  0  0  0  0
  -22.3600  -10.9665   19.6239 H   0  0  0  0  0  0
  -21.2009   -7.6142   23.9702 H   0  0  0  0  0  0
  -21.1450   -6.0533   25.9069 H   0  0  0  0  0  0
  -22.0617   -2.7611   23.2890 H   0  0  0  0  0  0
  -22.4032  -11.9875   22.4785 H   0  0  0  0  0  0
  -21.1057  -13.1298   22.2699 H   0  0  0  0  0  0
  -24.6629  -15.8429   20.5563 H   0  0  0  0  0  0
  -26.2901  -15.6266   20.1522 H   0  0  0  0  0  0
  -26.7164  -32.5488   23.1110 H   0  0  0  0  0  0
  -25.0080  -33.9713   25.0468 H   0  0  0  0  0  0
  -22.7266  -31.2985   21.3938 H   0  0  0  0  0  0
  -23.3779  -35.9574   23.3311 H   0  0  0  0  0  0
  -24.3563  -36.8867   22.2045 H   0  0  0  0  0  0
  -23.7217  -37.6471   23.6642 H   0  0  0  0  0  0
  -26.1012  -31.5184   20.5994 H   0  0  0  0  0  0
  -26.8537  -30.8389   22.0081 H   0  0  0  0  0  0
  -28.1337  -28.9296   21.2274 H   0  0  0  0  0  0
  -26.0323  -25.9074   19.0047 H   0  0  0  0  0  0
  -23.9989  -27.2916   19.0035 H   0  0  0  0  0  0
  -23.7871  -30.5769   19.4099 H   0  0  0  0  0  0
  -22.7721  -29.2377   19.8518 H   0  0  0  0  0  0
  -25.1297  -36.1954   25.0845 H   0  0  0  0  0  0
  -21.0010  -28.3304   24.1427 H   0  0  0  0  0  0
  -20.5743  -26.2320   23.3646 H   0  0  0  0  0  0
  -21.6635  -26.7475   22.1197 H   0  0  0  0  0  0
  -19.6907  -25.6325   21.1253 H   0  0  0  0  0  0
  -19.6681  -27.3210   20.6769 H   0  0  0  0  0  0
  -17.4201  -26.6683   21.4043 H   0  0  0  0  0  0
  -18.0298  -26.0107   22.9054 H   0  0  0  0  0  0
  -19.7912  -30.7296   24.2277 H   0  0  0  0  0  0
  -17.4983  -31.6271   24.5152 H   0  0  0  0  0  0
  -15.5332  -30.2963   23.7681 H   0  0  0  0  0  0
  -15.8684  -28.0857   22.7009 H   0  0  0  0  0  0
  -24.5888  -30.7014   25.7695 H   0  0  0  0  0  0
  -24.8817  -32.2804   26.4837 H   0  0  0  0  0  0
  -25.7965  -30.8829   27.0195 H   0  0  0  0  0  0
  -26.2911  -29.6783   24.1139 H   0  0  0  0  0  0
  -27.4080  -29.7267   25.4595 H   0  0  0  0  0  0
  -27.8760  -30.4380   23.9325 H   0  0  0  0  0  0
  -27.2734  -33.3612   26.2022 H   0  0  0  0  0  0
  -28.3854  -32.6779   25.0245 H   0  0  0  0  0  0
  -28.0744  -31.8398   26.5357 H   0  0  0  0  0  0
  -28.2629  -38.0083   24.7526 H   0  0  0  0  0  0
  -28.1073  -36.2608   24.6315 H   0  0  0  0  0  0
  -27.2299  -37.1450   25.8887 H   0  0  0  0  0  0
  -20.9423  -29.8757   21.6837 H   0  0  0  0  0  0
  -26.0202  -38.2875   24.1405 H   0  0  0  0  0  0
  -28.8462  -17.1447   18.2718 H   0  0  0  0  0  0
  -28.8770  -15.4030   18.2465 H   0  0  0  0  0  0
  -27.8582  -16.2871   19.4134 H   0  0  0  0  0  0
  -27.8501  -22.4327   22.9476 H   0  0  0  0  0  0
  -27.6185  -24.1209   23.3058 H   0  0  0  0  0  0
  -29.2463  -23.5093   23.1275 H   0  0  0  0  0  0
  -26.6215  -23.7999   19.7155 H   0  0  0  0  0  0
  -26.1085  -24.3709   21.3012 H   0  0  0  0  0  0
  -26.3334  -22.6468   21.0118 H   0  0  0  0  0  0
  -30.8413  -21.3992   20.9524 H   0  0  0  0  0  0
  -29.8162  -21.4777   22.2851 H   0  0  0  0  0  0
  -29.8269  -23.0519   19.9214 H   0  0  0  0  0  0
  -28.4253  -22.1299   19.6534 H   0  0  0  0  0  0
  -29.6870  -25.3988   21.2949 H   0  0  0  0  0  0
  -28.1914  -25.8164   22.0146 H   0  0  0  0  0  0
  -30.7976  -16.6029   19.2454 H   0  0  0  0  0  0
  1 25  1  0  0  0
  1 30  2  0  0  0
  1 78  1  0  0  0
  2  3  1  0  0  0
  2 25  1  0  0  0
  2 84  1  0  0  0
  2 85  1  0  0  0
  3  4  1  0  0  0
  3 86  1  0  0  0
  3 87  1  0  0  0
  4  5  1  0  0  0
  4 88  1  0  0  0
  4 89  1  0  0  0
  5  6  1  0  0  0
  5 26  1  0  0  0
  5 90  1  0  0  0
  6 25  1  0  0  0
  6 91  1  0  0  0
  6 92  1  0  0  0
  7  8  2  0  0  0
  7 26  1  0  0  0
  7 29  1  0  0  0
  8  9  1  0  0  0
  8 22  1  0  0  0
  9 10  1  0  0  0
  9 27  2  0  0  0
 10 11  2  0  0  0
 10 15  1  0  0  0
 11 12  1  0  0  0
 11 93  1  0  0  0
 12 13  2  0  0  0
 12 94  1  0  0  0
 13 14  1  0  0  0
 13 31  1  0  0  0
 14 15  2  0  0  0
 14 95  1  0  0  0
 15 96  1  0  0  0
 16 17  2  0  0  0
 16 21  1  0  0  0
 16 31  1  0  0  0
 17 18  1  0  0  0
 17 97  1  0  0  0
 18 19  2  0  0  0
 18 98  1  0  0  0
 19 20  1  0  0  0
 19 24  1  0  0  0
 20 21  2  0  0  0
 20 99  1  0  0  0
 21 23  1  0  0  0
 22 28  1  0  0  0
 22 32  2  0  0  0
 26 27  1  0  0  0
 28100  1  0  0  0
 28101  1  0  0  0
 29102  1  0  0  0
 29103  1  0  0  0
 33 34  1  0  0  0
 33 66  1  0  0  0
 33 70  2  0  0  0
 34 36  1  0  0  0
 34 59  1  0  0  0
 34104  1  0  0  0
 35 44  2  0  0  0
 35 45  1  0  0  0
 35 68  1  0  0  0
 36 56  1  0  0  0
 36105  1  0  0  0
 37 39  1  0  0  0
 37 47  1  0  0  0
 37 66  1  0  0  0
 37106  1  0  0  0
 38 43  2  0  0  0
 38 46  1  0  0  0
 38 47  1  0  0  0
 39 64  1  0  0  0
 39 67  2  0  0  0
 40 52  1  0  0  0
 40 53  2  0  0  0
 40 58  1  0  0  0
 41107  1  0  0  0
 41108  1  0  0  0
 41109  1  0  0  0
 41 48  1  0  0  0
 42 43  1  0  0  0
 42 66  1  0  0  0
 42110  1  0  0  0
 42111  1  0  0  0
 43 44  1  0  0  0
 44112  1  0  0  0
 45 46  2  0  0  0
 45113  1  0  0  0
 46114  1  0  0  0
 47115  1  0  0  0
 47116  1  0  0  0
 48 56  1  0  0  0
 48 65  1  0  0  0
 48117  1  0  0  0
 49 50  1  0  0  0
 49 53  1  0  0  0
 49 64  1  0  0  0
 49118  1  0  0  0
 50 51  1  0  0  0
 50119  1  0  0  0
 50120  1  0  0  0
 51 52  1  0  0  0
 51121  1  0  0  0
 51122  1  0  0  0
 52123  1  0  0  0
 52124  1  0  0  0
 53 54  1  0  0  0
 54 55  2  0  0  0
 54125  1  0  0  0
 55 57  1  0  0  0
 55126  1  0  0  0
 56 69  2  0  0  0
 57 58  2  0  0  0
 57127  1  0  0  0
 58128  1  0  0  0
 59 60  1  0  0  0
 59 61  1  0  0  0
 59 62  1  0  0  0
 60129  1  0  0  0
 60130  1  0  0  0
 60131  1  0  0  0
 61132  1  0  0  0
 61133  1  0  0  0
 61134  1  0  0  0
 62135  1  0  0  0
 62136  1  0  0  0
 62137  1  0  0  0
 63 65  1  0  0  0
 63138  1  0  0  0
 63139  1  0  0  0
 63140  1  0  0  0
 64141  1  0  0  0
 65142  1  0  0  0
 68 77  1  0  0  0
 71 75  1  0  0  0
 71 80  1  0  0  0
 71 81  2  0  0  0
 72143  1  0  0  0
 72144  1  0  0  0
 72145  1  0  0  0
 72 78  1  0  0  0
 73146  1  0  0  0
 73147  1  0  0  0
 73148  1  0  0  0
 73 79  1  0  0  0
 74 79  1  0  0  0
 74149  1  0  0  0
 74150  1  0  0  0
 74151  1  0  0  0
 75 76  1  0  0  0
 75152  1  0  0  0
 75153  1  0  0  0
 76 79  1  0  0  0
 76154  1  0  0  0
 76155  1  0  0  0
 77 79  1  0  0  0
 77156  1  0  0  0
 77157  1  0  0  0
 78 83  1  0  0  0
 78158  1  0  0  0
 80 82  2  0  0  0
 81 83  1  0  0  0
 82 83  1  0  0  0
M  ISO  4   1 100  68 101  77 101  78 100
M  END
> <chiral flag>
0

> <version>
0

> <s_m_source_file>
/data/baiqing/PycharmProjects/Reinvent-master-3.2/result/LINK_invent/BTK/process_docking_weight1_custom_sum_contain_oxygen_bond_distance_aromatic_linkinvent_7_9_3/rearranged_h_0059.sdf

> <i_m_source_file_index>
64

> <r_mmod_Potential_Energy-OPLS-2005>
493.528350830078

> <r_mmod_Stretch_Energy-OPLS-2005>
154.01872253418

> <r_mmod_Bend_Energy-OPLS-2005>
298.197540283203

> <r_mmod_Torsional_Energy-OPLS-2005>
289.233459472656

> <r_mmod_Improper_Torsional_Energy-OPLS-2005>
21.3247547149658

> <r_mmod_Van_der_Waal_Energy-OPLS-2005>
117.845275878906

> <r_mmod_Electrostatic_Energy-OPLS-2005>
-313.446990966797

> <r_mmod_Solvation_Energy-OPLS-2005>
-203.395050048828

> <b_mmod_Minimization_Converged-OPLS-2005>
0

> <r_mmod_RMS_Derivative-OPLS-2005>
4.8185715675354

$$$$
65
                    3D
 Structure written by MMmdl.
159167  0  0  1  0            999 V2000
  -30.5328  -15.0288   20.4886 C   0  0  0  0  0  0
  -30.4432  -12.6551   19.5153 C   0  0  0  0  0  0
  -29.5231  -12.5895   18.2688 C   0  0  0  0  0  0
  -28.0531  -12.3542   18.6658 C   0  0  0  0  0  0
  -27.6320  -13.2500   19.8553 C   0  0  2  0  0  0
  -28.6792  -13.2324   20.9859 C   0  0  0  0  0  0
  -25.2440  -13.8190   20.5719 C   0  0  0  0  0  0
  -24.1775  -13.0423   20.9229 C   0  0  0  0  0  0
  -24.6410  -11.6905   20.8780 C   0  0  0  0  0  0
  -23.9110  -10.4293   21.0451 C   0  0  0  0  0  0
  -24.3661   -9.4190   21.9214 C   0  0  0  0  0  0
  -23.6329   -8.2230   22.0773 C   0  0  0  0  0  0
  -22.4311   -8.0291   21.3556 C   0  0  0  0  0  0
  -21.9954   -9.0276   20.4662 C   0  0  0  0  0  0
  -22.7294  -10.2147   20.3084 C   0  0  0  0  0  0
  -21.6871   -6.0748   22.5272 C   0  0  0  0  0  0
  -21.4029   -6.5646   23.8212 C   0  0  0  0  0  0
  -21.3658   -5.6793   24.9165 C   0  0  0  0  0  0
  -21.6057   -4.3060   24.7213 C   0  0  0  0  0  0
  -21.8818   -3.8153   23.4332 C   0  0  0  0  0  0
  -21.9202   -4.6975   22.3390 C   0  0  0  0  0  0
  -22.7793  -13.5193   21.1851 C   0  0  0  0  0  0
  -22.1670   -4.2167   21.0970 F   0  0  0  0  0  0
  -21.5620   -3.4538   25.7721 F   0  0  0  0  0  0
  -29.9441  -13.7444   20.4234 N   0  0  0  0  0  0
  -26.2899  -12.9434   20.3325 N   0  0  0  0  0  0
  -25.9348  -11.6562   20.5797 N   0  0  0  0  0  0
  -22.0467  -12.8220   22.0429 N   0  0  0  0  0  0
  -25.4051  -15.1920   20.4059 N   0  0  0  0  0  0
  -31.6777  -15.0577   20.0150 O   0  0  0  0  0  0
  -21.6655   -6.8899   21.4245 O   0  0  0  0  0  0
  -22.3484  -14.5502   20.6666 O   0  0  0  0  0  0
  -24.6451  -31.8401   23.1860 C   0  0  0  0  0  0
  -25.9201  -32.4678   23.8263 C   0  0  1  0  0  0
  -27.2370  -27.1125   20.1450 C   0  0  0  0  0  0
  -25.5942  -33.8487   24.2191 N   0  0  0  0  0  0
  -23.4516  -30.4571   21.5288 C   0  0  2  0  0  0
  -24.9052  -28.8726   20.1060 C   0  0  0  0  0  0
  -22.7572  -29.4531   22.4842 C   0  0  0  0  0  0
  -18.0295  -28.1383   22.8465 C   0  0  0  0  0  0
  -24.1479  -36.7250   23.2640 C   0  0  0  0  0  0
  -26.0067  -30.7052   21.3852 C   0  0  0  0  0  0
  -26.0797  -29.3136   20.7247 C   0  0  0  0  0  0
  -27.2397  -28.4480   20.7281 C   0  0  0  0  0  0
  -26.0328  -26.7745   19.4882 C   0  0  0  0  0  0
  -24.8943  -27.6170   19.4750 C   0  0  0  0  0  0
  -23.6811  -29.7773   20.1501 C   0  0  0  0  0  0
  -25.4115  -36.3037   24.0317 C   0  0  1  0  0  0
  -20.5914  -28.3722   23.1213 C   0  0  2  0  0  0
  -20.6771  -26.9415   22.5402 C   0  0  0  0  0  0
  -19.5748  -26.6370   21.5200 C   0  0  0  0  0  0
  -18.1935  -26.7919   22.1619 C   0  0  0  0  0  0
  -19.1556  -28.8867   23.2832 C   0  0  0  0  0  0
  -18.9480  -30.1467   23.8856 C   0  0  0  0  0  0
  -17.6479  -30.6585   24.0551 C   0  0  0  0  0  0
  -25.9070  -34.9405   23.5073 C   0  0  0  0  0  0
  -16.5368  -29.9083   23.6318 C   0  0  0  0  0  0
  -16.7283  -28.6499   23.0335 C   0  0  0  0  0  0
  -26.4511  -31.6560   25.0717 C   0  0  0  0  0  0
  -25.3710  -31.3731   26.1432 C   0  0  0  0  0  0
  -27.0372  -30.2949   24.6316 C   0  0  0  0  0  0
  -27.6037  -32.4339   25.7494 C   0  0  0  0  0  0
  -27.5568  -37.1781   24.8461 C   0  0  0  0  0  0
  -21.4255  -29.3058   22.3587 N   0  0  0  0  0  0
  -26.4273  -37.3756   23.9415 N   0  0  0  0  0  0
  -24.7212  -31.0219   22.0904 N   0  0  0  0  0  0
  -23.4194  -28.8069   23.3004 O   0  0  0  0  0  0
  -28.3132  -26.1475   20.2683 O   0  0  0  0  0  0
  -26.5658  -34.8906   22.4654 O   0  0  0  0  0  0
  -23.5562  -32.1292   23.7064 O   0  0  0  0  0  0
  -29.3248  -20.1873   20.0327 C   0  0  0  0  0  0
  -29.7555  -17.9667   20.4194 C   0  0  0  0  0  0
  -29.7108  -16.8433   17.2387 C   0  0  0  0  0  0
  -31.0763  -16.7792   22.2406 C   0  0  0  0  0  0
  -28.6843  -16.2947   21.9749 C   0  0  0  0  0  0
  -29.4546  -21.8365   19.8770 C   0  0  0  0  0  0
  -28.5694  -23.1613   20.4794 C   0  0  0  0  0  0
  -28.6457  -17.1461   18.3005 C   0  0  0  0  0  0
  -28.4157  -24.6812   19.7122 C   0  0  0  0  0  0
  -29.9833  -16.4958   21.1794 C   0  0  0  0  0  0
  -29.8946  -19.2598   20.9523 N   0  0  0  0  0  0
  -28.8361  -19.4839   19.0005 N   0  0  0  0  0  0
  -29.1015  -18.1407   19.2520 N   0  0  0  0  0  0
  -31.4739  -12.8136   19.1957 H   0  0  0  0  0  0
  -30.4671  -11.6962   20.0356 H   0  0  0  0  0  0
  -29.8567  -11.8141   17.5793 H   0  0  0  0  0  0
  -29.5976  -13.5343   17.7257 H   0  0  0  0  0  0
  -27.9321  -11.3044   18.9337 H   0  0  0  0  0  0
  -27.3958  -12.5289   17.8115 H   0  0  0  0  0  0
  -27.6008  -14.2639   19.4617 H   0  0  0  0  0  0
  -28.8042  -12.2194   21.3715 H   0  0  0  0  0  0
  -28.3219  -13.7919   21.8394 H   0  0  0  0  0  0
  -25.2832   -9.5645   22.4764 H   0  0  0  0  0  0
  -24.0044   -7.4627   22.7495 H   0  0  0  0  0  0
  -21.0884   -8.8820   19.8976 H   0  0  0  0  0  0
  -22.3803  -10.9688   19.6173 H   0  0  0  0  0  0
  -21.2031   -7.6159   23.9723 H   0  0  0  0  0  0
  -21.1481   -6.0516   25.9072 H   0  0  0  0  0  0
  -22.0602   -2.7620   23.2816 H   0  0  0  0  0  0
  -22.4103  -11.9876   22.4798 H   0  0  0  0  0  0
  -21.1092  -13.1256   22.2672 H   0  0  0  0  0  0
  -24.6281  -15.8362   20.5034 H   0  0  0  0  0  0
  -26.2368  -15.6308   20.0391 H   0  0  0  0  0  0
  -26.7264  -32.5285   23.0990 H   0  0  0  0  0  0
  -25.0035  -33.9603   25.0303 H   0  0  0  0  0  0
  -22.7571  -31.2840   21.3689 H   0  0  0  0  0  0
  -23.3762  -35.9559   23.3290 H   0  0  0  0  0  0
  -24.3541  -36.8905   22.2052 H   0  0  0  0  0  0
  -23.7222  -37.6434   23.6690 H   0  0  0  0  0  0
  -26.1598  -31.4618   20.6129 H   0  0  0  0  0  0
  -26.8765  -30.7607   22.0285 H   0  0  0  0  0  0
  -28.1334  -28.7812   21.2343 H   0  0  0  0  0  0
  -25.9311  -25.8121   19.0108 H   0  0  0  0  0  0
  -23.9926  -27.2748   18.9833 H   0  0  0  0  0  0
  -23.8205  -30.5487   19.3930 H   0  0  0  0  0  0
  -22.7967  -29.2187   19.8392 H   0  0  0  0  0  0
  -25.1307  -36.1848   25.0806 H   0  0  0  0  0  0
  -21.0011  -28.3327   24.1331 H   0  0  0  0  0  0
  -20.5611  -26.2352   23.3643 H   0  0  0  0  0  0
  -21.6641  -26.7375   22.1234 H   0  0  0  0  0  0
  -19.6910  -25.6272   21.1245 H   0  0  0  0  0  0
  -19.6684  -27.3158   20.6715 H   0  0  0  0  0  0
  -17.4203  -26.6646   21.4035 H   0  0  0  0  0  0
  -18.0345  -26.0074   22.9026 H   0  0  0  0  0  0
  -19.7963  -30.7281   24.2216 H   0  0  0  0  0  0
  -17.5034  -31.6251   24.5177 H   0  0  0  0  0  0
  -15.5370  -30.2970   23.7658 H   0  0  0  0  0  0
  -15.8683  -28.0810   22.7054 H   0  0  0  0  0  0
  -24.5896  -30.7067   25.7752 H   0  0  0  0  0  0
  -24.8894  -32.2903   26.4834 H   0  0  0  0  0  0
  -25.8023  -30.8921   27.0227 H   0  0  0  0  0  0
  -26.2988  -29.6685   24.1303 H   0  0  0  0  0  0
  -27.3930  -29.7236   25.4901 H   0  0  0  0  0  0
  -27.8919  -30.4162   23.9663 H   0  0  0  0  0  0
  -27.2617  -33.3655   26.2012 H   0  0  0  0  0  0
  -28.3862  -32.6893   25.0337 H   0  0  0  0  0  0
  -28.0692  -31.8523   26.5463 H   0  0  0  0  0  0
  -28.2580  -38.0080   24.7524 H   0  0  0  0  0  0
  -28.1079  -36.2624   24.6282 H   0  0  0  0  0  0
  -27.2283  -37.1405   25.8859 H   0  0  0  0  0  0
  -20.9470  -29.8827   21.6805 H   0  0  0  0  0  0
  -26.0147  -38.2814   24.1455 H   0  0  0  0  0  0
  -30.6072  -16.3936   17.6680 H   0  0  0  0  0  0
  -30.0082  -17.7547   16.7187 H   0  0  0  0  0  0
  -29.3234  -16.1509   16.4902 H   0  0  0  0  0  0
  -30.7595  -17.5447   22.9491 H   0  0  0  0  0  0
  -31.9997  -17.1287   21.7768 H   0  0  0  0  0  0
  -31.3158  -15.8912   22.8269 H   0  0  0  0  0  0
  -28.3891  -17.2220   22.4693 H   0  0  0  0  0  0
  -28.8009  -15.5677   22.7753 H   0  0  0  0  0  0
  -27.8587  -16.0146   21.3255 H   0  0  0  0  0  0
  -29.4217  -21.9886   18.7966 H   0  0  0  0  0  0
  -30.4944  -22.0613   20.1108 H   0  0  0  0  0  0
  -28.9466  -23.3492   21.4858 H   0  0  0  0  0  0
  -27.5498  -22.8144   20.6343 H   0  0  0  0  0  0
  -28.3759  -16.2438   18.8459 H   0  0  0  0  0  0
  -27.7337  -17.5092   17.8244 H   0  0  0  0  0  0
  -27.6529  -24.5537   18.9473 H   0  0  0  0  0  0
  -29.3292  -24.7497   19.1211 H   0  0  0  0  0  0
  1 25  1  0  0  0
  1 30  2  0  0  0
  1 80  1  0  0  0
  2  3  1  0  0  0
  2 25  1  0  0  0
  2 84  1  0  0  0
  2 85  1  0  0  0
  3  4  1  0  0  0
  3 86  1  0  0  0
  3 87  1  0  0  0
  4  5  1  0  0  0
  4 88  1  0  0  0
  4 89  1  0  0  0
  5  6  1  0  0  0
  5 26  1  0  0  0
  5 90  1  0  0  0
  6 25  1  0  0  0
  6 91  1  0  0  0
  6 92  1  0  0  0
  7  8  2  0  0  0
  7 26  1  0  0  0
  7 29  1  0  0  0
  8  9  1  0  0  0
  8 22  1  0  0  0
  9 10  1  0  0  0
  9 27  2  0  0  0
 10 11  2  0  0  0
 10 15  1  0  0  0
 11 12  1  0  0  0
 11 93  1  0  0  0
 12 13  2  0  0  0
 12 94  1  0  0  0
 13 14  1  0  0  0
 13 31  1  0  0  0
 14 15  2  0  0  0
 14 95  1  0  0  0
 15 96  1  0  0  0
 16 17  2  0  0  0
 16 21  1  0  0  0
 16 31  1  0  0  0
 17 18  1  0  0  0
 17 97  1  0  0  0
 18 19  2  0  0  0
 18 98  1  0  0  0
 19 20  1  0  0  0
 19 24  1  0  0  0
 20 21  2  0  0  0
 20 99  1  0  0  0
 21 23  1  0  0  0
 22 28  1  0  0  0
 22 32  2  0  0  0
 26 27  1  0  0  0
 28100  1  0  0  0
 28101  1  0  0  0
 29102  1  0  0  0
 29103  1  0  0  0
 33 34  1  0  0  0
 33 66  1  0  0  0
 33 70  2  0  0  0
 34 36  1  0  0  0
 34 59  1  0  0  0
 34104  1  0  0  0
 35 44  2  0  0  0
 35 45  1  0  0  0
 35 68  1  0  0  0
 36 56  1  0  0  0
 36105  1  0  0  0
 37 39  1  0  0  0
 37 47  1  0  0  0
 37 66  1  0  0  0
 37106  1  0  0  0
 38 43  2  0  0  0
 38 46  1  0  0  0
 38 47  1  0  0  0
 39 64  1  0  0  0
 39 67  2  0  0  0
 40 52  1  0  0  0
 40 53  2  0  0  0
 40 58  1  0  0  0
 41107  1  0  0  0
 41108  1  0  0  0
 41109  1  0  0  0
 41 48  1  0  0  0
 42 43  1  0  0  0
 42 66  1  0  0  0
 42110  1  0  0  0
 42111  1  0  0  0
 43 44  1  0  0  0
 44112  1  0  0  0
 45 46  2  0  0  0
 45113  1  0  0  0
 46114  1  0  0  0
 47115  1  0  0  0
 47116  1  0  0  0
 48 56  1  0  0  0
 48 65  1  0  0  0
 48117  1  0  0  0
 49 50  1  0  0  0
 49 53  1  0  0  0
 49 64  1  0  0  0
 49118  1  0  0  0
 50 51  1  0  0  0
 50119  1  0  0  0
 50120  1  0  0  0
 51 52  1  0  0  0
 51121  1  0  0  0
 51122  1  0  0  0
 52123  1  0  0  0
 52124  1  0  0  0
 53 54  1  0  0  0
 54 55  2  0  0  0
 54125  1  0  0  0
 55 57  1  0  0  0
 55126  1  0  0  0
 56 69  2  0  0  0
 57 58  2  0  0  0
 57127  1  0  0  0
 58128  1  0  0  0
 59 60  1  0  0  0
 59 61  1  0  0  0
 59 62  1  0  0  0
 60129  1  0  0  0
 60130  1  0  0  0
 60131  1  0  0  0
 61132  1  0  0  0
 61133  1  0  0  0
 61134  1  0  0  0
 62135  1  0  0  0
 62136  1  0  0  0
 62137  1  0  0  0
 63 65  1  0  0  0
 63138  1  0  0  0
 63139  1  0  0  0
 63140  1  0  0  0
 64141  1  0  0  0
 65142  1  0  0  0
 68 79  1  0  0  0
 71 76  1  0  0  0
 71 81  1  0  0  0
 71 82  2  0  0  0
 72 80  1  0  0  0
 72 81  2  0  0  0
 72 83  1  0  0  0
 73 78  1  0  0  0
 73143  1  0  0  0
 73144  1  0  0  0
 73145  1  0  0  0
 74146  1  0  0  0
 74147  1  0  0  0
 74148  1  0  0  0
 74 80  1  0  0  0
 75 80  1  0  0  0
 75149  1  0  0  0
 75150  1  0  0  0
 75151  1  0  0  0
 76 77  1  0  0  0
 76152  1  0  0  0
 76153  1  0  0  0
 77 79  1  0  0  0
 77154  1  0  0  0
 77155  1  0  0  0
 78 83  1  0  0  0
 78156  1  0  0  0
 78157  1  0  0  0
 79158  1  0  0  0
 79159  1  0  0  0
 82 83  1  0  0  0
M  ISO  4   1 100  68 101  79 101  80 100
M  END
> <chiral flag>
0

> <version>
0

> <s_m_source_file>
/data/baiqing/PycharmProjects/Reinvent-master-3.2/result/LINK_invent/BTK/process_docking_weight1_custom_sum_contain_oxygen_bond_distance_aromatic_linkinvent_7_9_3/rearranged_h_0059.sdf

> <i_m_source_file_index>
65

> <r_mmod_Potential_Energy-OPLS-2005>
716.027893066406

> <r_mmod_Stretch_Energy-OPLS-2005>
330.643798828125

> <r_mmod_Bend_Energy-OPLS-2005>
389.111694335938

> <r_mmod_Torsional_Energy-OPLS-2005>
197.626281738281

> <r_mmod_Improper_Torsional_Energy-OPLS-2005>
5.70648717880249

> <r_mmod_Van_der_Waal_Energy-OPLS-2005>
110.462440490723

> <r_mmod_Electrostatic_Energy-OPLS-2005>
-328.852172851562

> <r_mmod_Solvation_Energy-OPLS-2005>
-208.115341186523

> <b_mmod_Minimization_Converged-OPLS-2005>
0

> <r_mmod_RMS_Derivative-OPLS-2005>
2.97272157669067

$$$$
66
                    3D
 Structure written by MMmdl.
151159  0  0  1  0            999 V2000
  -30.6563  -14.6901   20.3905 C   0  0  0  0  0  0
  -30.4171  -12.4062   19.4573 C   0  0  0  0  0  0
  -29.4889  -12.4657   18.2287 C   0  0  0  0  0  0
  -28.0233  -12.2947   18.6677 C   0  0  0  0  0  0
  -27.6352  -13.2314   19.8444 C   0  0  2  0  0  0
  -28.6875  -13.2141   20.9706 C   0  0  0  0  0  0
  -25.2505  -13.8251   20.5714 C   0  0  0  0  0  0
  -24.1791  -13.0469   20.9257 C   0  0  0  0  0  0
  -24.6396  -11.6964   20.8819 C   0  0  0  0  0  0
  -23.9078  -10.4315   21.0458 C   0  0  0  0  0  0
  -24.3632   -9.4202   21.9212 C   0  0  0  0  0  0
  -23.6307   -8.2225   22.0739 C   0  0  0  0  0  0
  -22.4281   -8.0277   21.3524 C   0  0  0  0  0  0
  -21.9925   -9.0254   20.4624 C   0  0  0  0  0  0
  -22.7264  -10.2148   20.3073 C   0  0  0  0  0  0
  -21.6844   -6.0744   22.5272 C   0  0  0  0  0  0
  -21.4008   -6.5636   23.8213 C   0  0  0  0  0  0
  -21.3657   -5.6786   24.9176 C   0  0  0  0  0  0
  -21.6060   -4.3046   24.7226 C   0  0  0  0  0  0
  -21.8820   -3.8145   23.4338 C   0  0  0  0  0  0
  -21.9185   -4.6971   22.3401 C   0  0  0  0  0  0
  -22.7805  -13.5219   21.1903 C   0  0  0  0  0  0
  -22.1670   -4.2138   21.0989 F   0  0  0  0  0  0
  -21.5624   -3.4536   25.7748 F   0  0  0  0  0  0
  -29.9888  -13.4963   20.3558 N   0  0  0  0  0  0
  -26.2918  -12.9424   20.3353 N   0  0  0  0  0  0
  -25.9325  -11.6560   20.5889 N   0  0  0  0  0  0
  -22.0477  -12.8153   22.0474 N   0  0  0  0  0  0
  -25.4219  -15.1953   20.4043 N   0  0  0  0  0  0
  -31.8698  -14.7310   20.1845 O   0  0  0  0  0  0
  -21.6631   -6.8880   21.4225 O   0  0  0  0  0  0
  -22.3459  -14.5507   20.6763 O   0  0  0  0  0  0
  -24.6284  -31.8590   23.2081 C   0  0  0  0  0  0
  -25.9088  -32.4795   23.8438 C   0  0  1  0  0  0
  -27.2016  -27.3066   20.1193 C   0  0  0  0  0  0
  -25.5856  -33.8588   24.2312 N   0  0  0  0  0  0
  -23.4175  -30.4920   21.5458 C   0  0  2  0  0  0
  -24.8501  -28.9304   20.1168 C   0  0  0  0  0  0
  -22.7440  -29.4734   22.4947 C   0  0  0  0  0  0
  -18.0331  -28.1434   22.8533 C   0  0  0  0  0  0
  -24.1447  -36.7351   23.2639 C   0  0  0  0  0  0
  -25.9602  -30.7886   21.3691 C   0  0  0  0  0  0
  -26.0237  -29.4130   20.7136 C   0  0  0  0  0  0
  -27.1999  -28.6094   20.7067 C   0  0  0  0  0  0
  -26.0029  -26.8624   19.5234 C   0  0  0  0  0  0
  -24.8397  -27.6608   19.5194 C   0  0  0  0  0  0
  -23.6231  -29.8169   20.1635 C   0  0  0  0  0  0
  -25.4071  -36.3104   24.0335 C   0  0  1  0  0  0
  -20.5939  -28.3805   23.1305 C   0  0  2  0  0  0
  -20.6888  -26.9495   22.5521 C   0  0  0  0  0  0
  -19.5844  -26.6415   21.5400 C   0  0  0  0  0  0
  -18.1986  -26.8006   22.1681 C   0  0  0  0  0  0
  -19.1577  -28.8921   23.2878 C   0  0  0  0  0  0
  -18.9496  -30.1545   23.8848 C   0  0  0  0  0  0
  -17.6477  -30.6625   24.0570 C   0  0  0  0  0  0
  -25.8999  -34.9462   23.5144 C   0  0  0  0  0  0
  -16.5372  -29.9083   23.6315 C   0  0  0  0  0  0
  -16.7330  -28.6524   23.0317 C   0  0  0  0  0  0
  -26.4451  -31.6638   25.0858 C   0  0  0  0  0  0
  -25.3741  -31.3761   26.1661 C   0  0  0  0  0  0
  -27.0276  -30.3049   24.6332 C   0  0  0  0  0  0
  -27.5995  -32.4441   25.7597 C   0  0  0  0  0  0
  -27.5553  -37.1846   24.8467 C   0  0  0  0  0  0
  -21.4167  -29.3182   22.3652 N   0  0  0  0  0  0
  -26.4267  -37.3777   23.9414 N   0  0  0  0  0  0
  -24.6889  -31.0650   22.0980 N   0  0  0  0  0  0
  -23.4127  -28.8286   23.3074 O   0  0  0  0  0  0
  -28.3321  -26.4847   20.1824 O   0  0  0  0  0  0
  -26.5607  -34.8943   22.4732 O   0  0  0  0  0  0
  -23.5470  -32.1356   23.7448 O   0  0  0  0  0  0
  -30.2153  -20.2627   19.6296 C   0  0  0  0  0  0
  -28.1423  -19.1869   20.9467 C   0  0  0  0  0  0
  -29.1767  -21.1190   20.1243 C   0  0  0  0  0  0
  -29.2019  -18.3323   20.4988 C   0  0  0  0  0  0
  -29.3342  -22.6914   20.0628 C   0  0  0  0  0  0
  -29.2520  -16.8023   20.9002 C   0  0  0  0  0  0
  -28.1430  -23.7591   20.1713 C   0  0  0  0  0  0
  -28.4239  -25.1818   19.4823 C   0  0  0  0  0  0
  -28.1318  -20.5515   20.7874 N   0  0  0  0  0  0
  -30.2406  -18.8999   19.8164 N   0  0  0  0  0  0
  -29.9533  -15.8112   20.0309 N   0  0  0  0  0  0
  -31.4571  -12.5040   19.1435 H   0  0  0  0  0  0
  -30.3389  -11.4441   19.9662 H   0  0  0  0  0  0
  -29.7569  -11.6899   17.5109 H   0  0  0  0  0  0
  -29.6070  -13.4181   17.7110 H   0  0  0  0  0  0
  -27.9056  -11.2599   18.9868 H   0  0  0  0  0  0
  -27.3464  -12.4393   17.8241 H   0  0  0  0  0  0
  -27.6201  -14.2398   19.4319 H   0  0  0  0  0  0
  -28.7098  -12.2662   21.5046 H   0  0  0  0  0  0
  -28.4485  -13.9770   21.7153 H   0  0  0  0  0  0
  -25.2775   -9.5645   22.4798 H   0  0  0  0  0  0
  -24.0008   -7.4580   22.7429 H   0  0  0  0  0  0
  -21.0864   -8.8782   19.8908 H   0  0  0  0  0  0
  -22.3737  -10.9691   19.6177 H   0  0  0  0  0  0
  -21.2014   -7.6149   23.9710 H   0  0  0  0  0  0
  -21.1484   -6.0529   25.9082 H   0  0  0  0  0  0
  -22.0615   -2.7597   23.2852 H   0  0  0  0  0  0
  -22.4060  -11.9765   22.4782 H   0  0  0  0  0  0
  -21.1097  -13.1118   22.2763 H   0  0  0  0  0  0
  -24.6523  -15.8561   20.4585 H   0  0  0  0  0  0
  -26.2791  -15.6099   20.0586 H   0  0  0  0  0  0
  -26.7193  -32.5377   23.1216 H   0  0  0  0  0  0
  -24.9904  -33.9722   25.0377 H   0  0  0  0  0  0
  -22.7123  -31.3135   21.3987 H   0  0  0  0  0  0
  -23.3681  -35.9707   23.3321 H   0  0  0  0  0  0
  -24.3521  -36.8960   22.2051 H   0  0  0  0  0  0
  -23.7249  -37.6575   23.6665 H   0  0  0  0  0  0
  -26.0771  -31.5396   20.5870 H   0  0  0  0  0  0
  -26.8497  -30.8467   21.9900 H   0  0  0  0  0  0
  -28.1015  -28.9608   21.1854 H   0  0  0  0  0  0
  -25.9205  -25.8716   19.1078 H   0  0  0  0  0  0
  -23.9256  -27.2756   19.0846 H   0  0  0  0  0  0
  -23.7465  -30.5796   19.3958 H   0  0  0  0  0  0
  -22.7397  -29.2440   19.8742 H   0  0  0  0  0  0
  -25.1239  -36.1958   25.0830 H   0  0  0  0  0  0
  -21.0053  -28.3410   24.1418 H   0  0  0  0  0  0
  -21.6742  -26.7579   22.1196 H   0  0  0  0  0  0
  -20.5831  -26.2472   23.3781 H   0  0  0  0  0  0
  -19.6933  -25.6283   21.1605 H   0  0  0  0  0  0
  -19.6855  -27.3157   20.6865 H   0  0  0  0  0  0
  -17.4373  -26.6738   21.3953 H   0  0  0  0  0  0
  -18.0305  -26.0215   22.9135 H   0  0  0  0  0  0
  -19.7957  -30.7447   24.2086 H   0  0  0  0  0  0
  -17.5017  -31.6274   24.5216 H   0  0  0  0  0  0
  -15.5341  -30.2952   23.7619 H   0  0  0  0  0  0
  -15.8784  -28.0783   22.6960 H   0  0  0  0  0  0
  -24.5908  -30.7065   25.8090 H   0  0  0  0  0  0
  -24.8968  -32.2930   26.5160 H   0  0  0  0  0  0
  -25.8192  -30.8970   27.0412 H   0  0  0  0  0  0
  -26.2850  -29.6843   24.1340 H   0  0  0  0  0  0
  -27.3868  -29.7290   25.4872 H   0  0  0  0  0  0
  -27.8759  -30.4289   23.9607 H   0  0  0  0  0  0
  -27.2525  -33.3718   26.2181 H   0  0  0  0  0  0
  -28.3779  -32.7102   25.0424 H   0  0  0  0  0  0
  -28.0733  -31.8643   26.5535 H   0  0  0  0  0  0
  -28.2623  -38.0078   24.7420 H   0  0  0  0  0  0
  -28.1000  -36.2641   24.6380 H   0  0  0  0  0  0
  -27.2307  -37.1594   25.8871 H   0  0  0  0  0  0
  -20.9349  -29.8800   21.6745 H   0  0  0  0  0  0
  -26.0164  -38.2863   24.1354 H   0  0  0  0  0  0
  -31.0795  -20.6787   19.1198 H   0  0  0  0  0  0
  -27.2872  -18.7782   21.4707 H   0  0  0  0  0  0
  -29.8546  -22.8756   19.1205 H   0  0  0  0  0  0
  -30.0506  -22.9540   20.8418 H   0  0  0  0  0  0
  -29.7144  -16.7577   21.8897 H   0  0  0  0  0  0
  -28.2276  -16.4521   21.0391 H   0  0  0  0  0  0
  -27.8806  -23.8970   21.2217 H   0  0  0  0  0  0
  -27.2433  -23.3389   19.7093 H   0  0  0  0  0  0
  -29.4711  -25.1640   19.1919 H   0  0  0  0  0  0
  -27.9120  -25.2321   18.5228 H   0  0  0  0  0  0
  -30.4696  -16.3189   19.3270 H   0  0  0  0  0  0
  1 25  1  0  0  0
  1 30  2  0  0  0
  1 81  1  0  0  0
  2  3  1  0  0  0
  2 25  1  0  0  0
  2 82  1  0  0  0
  2 83  1  0  0  0
  3  4  1  0  0  0
  3 84  1  0  0  0
  3 85  1  0  0  0
  4  5  1  0  0  0
  4 86  1  0  0  0
  4 87  1  0  0  0
  5  6  1  0  0  0
  5 26  1  0  0  0
  5 88  1  0  0  0
  6 25  1  0  0  0
  6 89  1  0  0  0
  6 90  1  0  0  0
  7  8  2  0  0  0
  7 26  1  0  0  0
  7 29  1  0  0  0
  8  9  1  0  0  0
  8 22  1  0  0  0
  9 10  1  0  0  0
  9 27  2  0  0  0
 10 11  2  0  0  0
 10 15  1  0  0  0
 11 12  1  0  0  0
 11 91  1  0  0  0
 12 13  2  0  0  0
 12 92  1  0  0  0
 13 14  1  0  0  0
 13 31  1  0  0  0
 14 15  2  0  0  0
 14 93  1  0  0  0
 15 94  1  0  0  0
 16 17  2  0  0  0
 16 21  1  0  0  0
 16 31  1  0  0  0
 17 18  1  0  0  0
 17 95  1  0  0  0
 18 19  2  0  0  0
 18 96  1  0  0  0
 19 20  1  0  0  0
 19 24  1  0  0  0
 20 21  2  0  0  0
 20 97  1  0  0  0
 21 23  1  0  0  0
 22 28  1  0  0  0
 22 32  2  0  0  0
 26 27  1  0  0  0
 28 98  1  0  0  0
 28 99  1  0  0  0
 29100  1  0  0  0
 29101  1  0  0  0
 33 34  1  0  0  0
 33 66  1  0  0  0
 33 70  2  0  0  0
 34 36  1  0  0  0
 34 59  1  0  0  0
 34102  1  0  0  0
 35 44  2  0  0  0
 35 45  1  0  0  0
 35 68  1  0  0  0
 36 56  1  0  0  0
 36103  1  0  0  0
 37 39  1  0  0  0
 37 47  1  0  0  0
 37 66  1  0  0  0
 37104  1  0  0  0
 38 43  2  0  0  0
 38 46  1  0  0  0
 38 47  1  0  0  0
 39 64  1  0  0  0
 39 67  2  0  0  0
 40 52  1  0  0  0
 40 53  2  0  0  0
 40 58  1  0  0  0
 41105  1  0  0  0
 41106  1  0  0  0
 41107  1  0  0  0
 41 48  1  0  0  0
 42 43  1  0  0  0
 42 66  1  0  0  0
 42108  1  0  0  0
 42109  1  0  0  0
 43 44  1  0  0  0
 44110  1  0  0  0
 45 46  2  0  0  0
 45111  1  0  0  0
 46112  1  0  0  0
 47113  1  0  0  0
 47114  1  0  0  0
 48 56  1  0  0  0
 48 65  1  0  0  0
 48115  1  0  0  0
 49 50  1  0  0  0
 49 53  1  0  0  0
 49 64  1  0  0  0
 49116  1  0  0  0
 50 51  1  0  0  0
 50117  1  0  0  0
 50118  1  0  0  0
 51 52  1  0  0  0
 51119  1  0  0  0
 51120  1  0  0  0
 52121  1  0  0  0
 52122  1  0  0  0
 53 54  1  0  0  0
 54 55  2  0  0  0
 54123  1  0  0  0
 55 57  1  0  0  0
 55124  1  0  0  0
 56 69  2  0  0  0
 57 58  2  0  0  0
 57125  1  0  0  0
 58126  1  0  0  0
 59 60  1  0  0  0
 59 61  1  0  0  0
 59 62  1  0  0  0
 60127  1  0  0  0
 60128  1  0  0  0
 60129  1  0  0  0
 61130  1  0  0  0
 61131  1  0  0  0
 61132  1  0  0  0
 62133  1  0  0  0
 62134  1  0  0  0
 62135  1  0  0  0
 63 65  1  0  0  0
 63136  1  0  0  0
 63137  1  0  0  0
 63138  1  0  0  0
 64139  1  0  0  0
 65140  1  0  0  0
 68 78  1  0  0  0
 71 73  2  0  0  0
 71 80  1  0  0  0
 71141  1  0  0  0
 72 74  1  0  0  0
 72 79  2  0  0  0
 72142  1  0  0  0
 73 75  1  0  0  0
 73 79  1  0  0  0
 74 76  1  0  0  0
 74 80  2  0  0  0
 75 77  1  0  0  0
 75143  1  0  0  0
 75144  1  0  0  0
 76 81  1  0  0  0
 76145  1  0  0  0
 76146  1  0  0  0
 77 78  1  0  0  0
 77147  1  0  0  0
 77148  1  0  0  0
 78149  1  0  0  0
 78150  1  0  0  0
 81151  1  0  0  0
M  ISO  4   1 100  68 101  78 101  81 100
M  END
> <chiral flag>
0

> <version>
0

> <s_m_source_file>
/data/baiqing/PycharmProjects/Reinvent-master-3.2/result/LINK_invent/BTK/process_docking_weight1_custom_sum_contain_oxygen_bond_distance_aromatic_linkinvent_7_9_3/rearranged_h_0059.sdf

> <i_m_source_file_index>
66

> <r_mmod_Potential_Energy-OPLS-2005>
174.678634643555

> <r_mmod_Stretch_Energy-OPLS-2005>
87.1171112060547

> <r_mmod_Bend_Energy-OPLS-2005>
173.715286254883

> <r_mmod_Torsional_Energy-OPLS-2005>
278.172821044922

> <r_mmod_Improper_Torsional_Energy-OPLS-2005>
27.20485496521

> <r_mmod_Van_der_Waal_Energy-OPLS-2005>
137.505416870117

> <r_mmod_Electrostatic_Energy-OPLS-2005>
-375.807952880859

> <r_mmod_Solvation_Energy-OPLS-2005>
-225.012741088867

> <b_mmod_Minimization_Converged-OPLS-2005>
0

> <r_mmod_RMS_Derivative-OPLS-2005>
7.23878765106201

$$$$
67
                    3D
 Structure written by MMmdl.
150158  0  0  1  0            999 V2000
  -30.4933  -14.9919   20.4567 C   0  0  0  0  0  0
  -30.4542  -12.6166   19.5051 C   0  0  0  0  0  0
  -29.5315  -12.5474   18.2629 C   0  0  0  0  0  0
  -28.0641  -12.3178   18.6749 C   0  0  0  0  0  0
  -27.6339  -13.2449   19.8397 C   0  0  2  0  0  0
  -28.6732  -13.2585   20.9787 C   0  0  0  0  0  0
  -25.2490  -13.8202   20.5702 C   0  0  0  0  0  0
  -24.1795  -13.0432   20.9206 C   0  0  0  0  0  0
  -24.6405  -11.6915   20.8735 C   0  0  0  0  0  0
  -23.9084  -10.4290   21.0399 C   0  0  0  0  0  0
  -24.3629   -9.4206   21.9181 C   0  0  0  0  0  0
  -23.6298   -8.2245   22.0756 C   0  0  0  0  0  0
  -22.4280   -8.0284   21.3546 C   0  0  0  0  0  0
  -21.9917   -9.0257   20.4647 C   0  0  0  0  0  0
  -22.7253  -10.2133   20.3052 C   0  0  0  0  0  0
  -21.6855   -6.0737   22.5279 C   0  0  0  0  0  0
  -21.4016   -6.5641   23.8212 C   0  0  0  0  0  0
  -21.3659   -5.6793   24.9174 C   0  0  0  0  0  0
  -21.6043   -4.3056   24.7224 C   0  0  0  0  0  0
  -21.8819   -3.8147   23.4345 C   0  0  0  0  0  0
  -21.9193   -4.6965   22.3402 C   0  0  0  0  0  0
  -22.7816  -13.5208   21.1869 C   0  0  0  0  0  0
  -22.1662   -4.2151   21.0980 F   0  0  0  0  0  0
  -21.5627   -3.4539   25.7736 F   0  0  0  0  0  0
  -29.9518  -13.7002   20.4021 N   0  0  0  0  0  0
  -26.2909  -12.9426   20.3225 N   0  0  0  0  0  0
  -25.9338  -11.6559   20.5714 N   0  0  0  0  0  0
  -22.0470  -12.8196   22.0428 N   0  0  0  0  0  0
  -25.4169  -15.1933   20.4158 N   0  0  0  0  0  0
  -31.6692  -15.0955   20.0837 O   0  0  0  0  0  0
  -21.6642   -6.8882   21.4242 O   0  0  0  0  0  0
  -22.3497  -14.5512   20.6716 O   0  0  0  0  0  0
  -24.6471  -31.8404   23.1848 C   0  0  0  0  0  0
  -25.9224  -32.4676   23.8255 C   0  0  1  0  0  0
  -27.2214  -27.1014   20.1558 C   0  0  0  0  0  0
  -25.5957  -33.8483   24.2170 N   0  0  0  0  0  0
  -23.4531  -30.4581   21.5311 C   0  0  2  0  0  0
  -24.9038  -28.8780   20.1109 C   0  0  0  0  0  0
  -22.7588  -29.4527   22.4843 C   0  0  0  0  0  0
  -18.0309  -28.1399   22.8474 C   0  0  0  0  0  0
  -24.1491  -36.7247   23.2643 C   0  0  0  0  0  0
  -26.0116  -30.7032   21.3887 C   0  0  0  0  0  0
  -26.0830  -29.3108   20.7306 C   0  0  0  0  0  0
  -27.2415  -28.4402   20.7333 C   0  0  0  0  0  0
  -26.0136  -26.7782   19.4976 C   0  0  0  0  0  0
  -24.8842  -27.6263   19.4781 C   0  0  0  0  0  0
  -23.6820  -29.7843   20.1521 C   0  0  0  0  0  0
  -25.4126  -36.3021   24.0312 C   0  0  1  0  0  0
  -20.5924  -28.3729   23.1225 C   0  0  2  0  0  0
  -20.6791  -26.9428   22.5403 C   0  0  0  0  0  0
  -19.5765  -26.6383   21.5212 C   0  0  0  0  0  0
  -18.1946  -26.7936   22.1624 C   0  0  0  0  0  0
  -19.1567  -28.8883   23.2839 C   0  0  0  0  0  0
  -18.9482  -30.1476   23.8868 C   0  0  0  0  0  0
  -17.6477  -30.6592   24.0559 C   0  0  0  0  0  0
  -25.9079  -34.9397   23.5053 C   0  0  0  0  0  0
  -16.5368  -29.9084   23.6338 C   0  0  0  0  0  0
  -16.7293  -28.6505   23.0356 C   0  0  0  0  0  0
  -26.4534  -31.6558   25.0712 C   0  0  0  0  0  0
  -25.3704  -31.3755   26.1396 C   0  0  0  0  0  0
  -27.0408  -30.2951   24.6318 C   0  0  0  0  0  0
  -27.6058  -32.4334   25.7501 C   0  0  0  0  0  0
  -27.5575  -37.1778   24.8465 C   0  0  0  0  0  0
  -21.4276  -29.3047   22.3592 N   0  0  0  0  0  0
  -26.4286  -37.3737   23.9407 N   0  0  0  0  0  0
  -24.7241  -31.0227   22.0898 N   0  0  0  0  0  0
  -23.4211  -28.8078   23.3013 O   0  0  0  0  0  0
  -28.2673  -26.0963   20.2275 O   0  0  0  0  0  0
  -26.5671  -34.8899   22.4636 O   0  0  0  0  0  0
  -23.5580  -32.1294   23.7046 O   0  0  0  0  0  0
  -30.7062  -18.5457   19.7201 C   0  0  0  0  0  0
  -29.3468  -20.1439   20.2482 C   0  0  0  0  0  0
  -29.7262  -16.4130   22.4790 C   0  0  0  0  0  0
  -28.4994  -21.5655   20.1525 C   0  0  0  0  0  0
  -28.9820  -23.1902   20.3430 C   0  0  0  0  0  0
  -27.9833  -24.5543   20.0804 C   0  0  0  0  0  0
  -29.6504  -16.3666   20.9407 C   0  0  1  0  0  0
  -30.5009  -19.8820   19.5399 N   0  0  0  0  0  0
  -28.8902  -18.9537   20.7963 N   0  0  0  0  0  0
  -29.7875  -17.8861   20.4458 N   0  0  0  0  0  0
  -31.4844  -12.7931   19.1927 H   0  0  0  0  0  0
  -30.4662  -11.6604   20.0307 H   0  0  0  0  0  0
  -29.8605  -11.7547   17.5897 H   0  0  0  0  0  0
  -29.6102  -13.4791   17.7009 H   0  0  0  0  0  0
  -27.9655  -11.2754   18.9803 H   0  0  0  0  0  0
  -27.4020  -12.4484   17.8183 H   0  0  0  0  0  0
  -27.6006  -14.2495   19.4180 H   0  0  0  0  0  0
  -28.7677  -12.2716   21.4342 H   0  0  0  0  0  0
  -28.3490  -13.9286   21.7742 H   0  0  0  0  0  0
  -25.2775   -9.5680   22.4756 H   0  0  0  0  0  0
  -24.0003   -7.4638   22.7479 H   0  0  0  0  0  0
  -21.0847   -8.8778   19.8955 H   0  0  0  0  0  0
  -22.3712  -10.9670   19.6159 H   0  0  0  0  0  0
  -21.2013   -7.6149   23.9715 H   0  0  0  0  0  0
  -21.1480   -6.0524   25.9076 H   0  0  0  0  0  0
  -22.0599   -2.7610   23.2845 H   0  0  0  0  0  0
  -22.4098  -11.9858   22.4807 H   0  0  0  0  0  0
  -21.1089  -13.1218   22.2645 H   0  0  0  0  0  0
  -24.6499  -15.8458   20.5373 H   0  0  0  0  0  0
  -26.2666  -15.6395   20.0955 H   0  0  0  0  0  0
  -26.7288  -32.5267   23.0980 H   0  0  0  0  0  0
  -25.0076  -33.9596   25.0298 H   0  0  0  0  0  0
  -22.7577  -31.2850   21.3729 H   0  0  0  0  0  0
  -23.3760  -35.9572   23.3291 H   0  0  0  0  0  0
  -24.3575  -36.8899   22.2061 H   0  0  0  0  0  0
  -23.7243  -37.6435   23.6694 H   0  0  0  0  0  0
  -26.1710  -31.4552   20.6148 H   0  0  0  0  0  0
  -26.8806  -30.7554   22.0330 H   0  0  0  0  0  0
  -28.1384  -28.7671   21.2406 H   0  0  0  0  0  0
  -25.9063  -25.8214   19.0095 H   0  0  0  0  0  0
  -23.9842  -27.2895   18.9818 H   0  0  0  0  0  0
  -23.8219  -30.5573   19.3955 H   0  0  0  0  0  0
  -22.7961  -29.2280   19.8406 H   0  0  0  0  0  0
  -25.1314  -36.1845   25.0804 H   0  0  0  0  0  0
  -21.0013  -28.3325   24.1348 H   0  0  0  0  0  0
  -20.5686  -26.2342   23.3628 H   0  0  0  0  0  0
  -21.6655  -26.7430   22.1199 H   0  0  0  0  0  0
  -19.6930  -25.6287   21.1261 H   0  0  0  0  0  0
  -19.6705  -27.3177   20.6729 H   0  0  0  0  0  0
  -17.4215  -26.6679   21.4027 H   0  0  0  0  0  0
  -18.0344  -26.0085   22.9028 H   0  0  0  0  0  0
  -19.7958  -30.7299   24.2225 H   0  0  0  0  0  0
  -17.5032  -31.6270   24.5165 H   0  0  0  0  0  0
  -15.5367  -30.2977   23.7679 H   0  0  0  0  0  0
  -15.8695  -28.0815   22.7086 H   0  0  0  0  0  0
  -24.5900  -30.7087   25.7710 H   0  0  0  0  0  0
  -24.8872  -32.2936   26.4748 H   0  0  0  0  0  0
  -25.7974  -30.8978   27.0223 H   0  0  0  0  0  0
  -26.3036  -29.6661   24.1314 H   0  0  0  0  0  0
  -27.3998  -29.7265   25.4906 H   0  0  0  0  0  0
  -27.8951  -30.4180   23.9658 H   0  0  0  0  0  0
  -27.2653  -33.3662   26.2005 H   0  0  0  0  0  0
  -28.3907  -32.6849   25.0356 H   0  0  0  0  0  0
  -28.0681  -31.8508   26.5478 H   0  0  0  0  0  0
  -28.2578  -38.0087   24.7514 H   0  0  0  0  0  0
  -28.1085  -36.2616   24.6291 H   0  0  0  0  0  0
  -27.2290  -37.1420   25.8867 H   0  0  0  0  0  0
  -20.9494  -29.8757   21.6762 H   0  0  0  0  0  0
  -26.0150  -38.2802   24.1416 H   0  0  0  0  0  0
  -31.5630  -18.0331   19.3034 H   0  0  0  0  0  0
  -28.9069  -17.0017   22.8921 H   0  0  0  0  0  0
  -30.6597  -16.8708   22.8072 H   0  0  0  0  0  0
  -29.6722  -15.4239   22.9335 H   0  0  0  0  0  0
  -27.6635  -21.4397   20.8406 H   0  0  0  0  0  0
  -28.0268  -21.5313   19.1711 H   0  0  0  0  0  0
  -29.8495  -23.3227   19.6967 H   0  0  0  0  0  0
  -29.3766  -23.2780   21.3551 H   0  0  0  0  0  0
  -27.0999  -24.3793   20.6956 H   0  0  0  0  0  0
  -27.6343  -24.4368   19.0545 H   0  0  0  0  0  0
  -28.6216  -16.1096   20.6920 H   0  0  0  0  0  0
  1 25  1  0  0  0
  1 30  2  0  0  0
  1 77  1  0  0  0
  2  3  1  0  0  0
  2 25  1  0  0  0
  2 81  1  0  0  0
  2 82  1  0  0  0
  3  4  1  0  0  0
  3 83  1  0  0  0
  3 84  1  0  0  0
  4  5  1  0  0  0
  4 85  1  0  0  0
  4 86  1  0  0  0
  5  6  1  0  0  0
  5 26  1  0  0  0
  5 87  1  0  0  0
  6 25  1  0  0  0
  6 88  1  0  0  0
  6 89  1  0  0  0
  7  8  2  0  0  0
  7 26  1  0  0  0
  7 29  1  0  0  0
  8  9  1  0  0  0
  8 22  1  0  0  0
  9 10  1  0  0  0
  9 27  2  0  0  0
 10 11  2  0  0  0
 10 15  1  0  0  0
 11 12  1  0  0  0
 11 90  1  0  0  0
 12 13  2  0  0  0
 12 91  1  0  0  0
 13 14  1  0  0  0
 13 31  1  0  0  0
 14 15  2  0  0  0
 14 92  1  0  0  0
 15 93  1  0  0  0
 16 17  2  0  0  0
 16 21  1  0  0  0
 16 31  1  0  0  0
 17 18  1  0  0  0
 17 94  1  0  0  0
 18 19  2  0  0  0
 18 95  1  0  0  0
 19 20  1  0  0  0
 19 24  1  0  0  0
 20 21  2  0  0  0
 20 96  1  0  0  0
 21 23  1  0  0  0
 22 28  1  0  0  0
 22 32  2  0  0  0
 26 27  1  0  0  0
 28 97  1  0  0  0
 28 98  1  0  0  0
 29 99  1  0  0  0
 29100  1  0  0  0
 33 34  1  0  0  0
 33 66  1  0  0  0
 33 70  2  0  0  0
 34 36  1  0  0  0
 34 59  1  0  0  0
 34101  1  0  0  0
 35 44  2  0  0  0
 35 45  1  0  0  0
 35 68  1  0  0  0
 36 56  1  0  0  0
 36102  1  0  0  0
 37 39  1  0  0  0
 37 47  1  0  0  0
 37 66  1  0  0  0
 37103  1  0  0  0
 38 43  2  0  0  0
 38 46  1  0  0  0
 38 47  1  0  0  0
 39 64  1  0  0  0
 39 67  2  0  0  0
 40 52  1  0  0  0
 40 53  2  0  0  0
 40 58  1  0  0  0
 41104  1  0  0  0
 41105  1  0  0  0
 41106  1  0  0  0
 41 48  1  0  0  0
 42 43  1  0  0  0
 42 66  1  0  0  0
 42107  1  0  0  0
 42108  1  0  0  0
 43 44  1  0  0  0
 44109  1  0  0  0
 45 46  2  0  0  0
 45110  1  0  0  0
 46111  1  0  0  0
 47112  1  0  0  0
 47113  1  0  0  0
 48 56  1  0  0  0
 48 65  1  0  0  0
 48114  1  0  0  0
 49 50  1  0  0  0
 49 53  1  0  0  0
 49 64  1  0  0  0
 49115  1  0  0  0
 50 51  1  0  0  0
 50116  1  0  0  0
 50117  1  0  0  0
 51 52  1  0  0  0
 51118  1  0  0  0
 51119  1  0  0  0
 52120  1  0  0  0
 52121  1  0  0  0
 53 54  1  0  0  0
 54 55  2  0  0  0
 54122  1  0  0  0
 55 57  1  0  0  0
 55123  1  0  0  0
 56 69  2  0  0  0
 57 58  2  0  0  0
 57124  1  0  0  0
 58125  1  0  0  0
 59 60  1  0  0  0
 59 61  1  0  0  0
 59 62  1  0  0  0
 60126  1  0  0  0
 60127  1  0  0  0
 60128  1  0  0  0
 61129  1  0  0  0
 61130  1  0  0  0
 61131  1  0  0  0
 62132  1  0  0  0
 62133  1  0  0  0
 62134  1  0  0  0
 63 65  1  0  0  0
 63135  1  0  0  0
 63136  1  0  0  0
 63137  1  0  0  0
 64138  1  0  0  0
 65139  1  0  0  0
 68 76  1  0  0  0
 71 78  2  0  0  0
 71 80  1  0  0  0
 71140  1  0  0  0
 72 74  1  0  0  0
 72 78  1  0  0  0
 72 79  2  0  0  0
 73141  1  0  0  0
 73142  1  0  0  0
 73143  1  0  0  0
 73 77  1  0  0  0
 74 75  1  0  0  0
 74144  1  0  0  0
 74145  1  0  0  0
 75 76  1  0  0  0
 75146  1  0  0  0
 75147  1  0  0  0
 76148  1  0  0  0
 76149  1  0  0  0
 77 80  1  0  0  0
 77150  1  0  0  0
 79 80  1  0  0  0
M  ISO  4   1 100  68 101  76 101  77 100
M  END
> <chiral flag>
0

> <version>
0

> <s_m_source_file>
/data/baiqing/PycharmProjects/Reinvent-master-3.2/result/LINK_invent/BTK/process_docking_weight1_custom_sum_contain_oxygen_bond_distance_aromatic_linkinvent_7_9_3/rearranged_h_0059.sdf

> <i_m_source_file_index>
67

> <r_mmod_Potential_Energy-OPLS-2005>
576.573608398438

> <r_mmod_Stretch_Energy-OPLS-2005>
309.183837890625

> <r_mmod_Bend_Energy-OPLS-2005>
292.453582763672

> <r_mmod_Torsional_Energy-OPLS-2005>
195.559844970703

> <r_mmod_Improper_Torsional_Energy-OPLS-2005>
3.54827642440796

> <r_mmod_Van_der_Waal_Energy-OPLS-2005>
107.005584716797

> <r_mmod_Electrostatic_Energy-OPLS-2005>
-337.093597412109

> <r_mmod_Solvation_Energy-OPLS-2005>
-216.555313110352

> <b_mmod_Minimization_Converged-OPLS-2005>
0

> <r_mmod_RMS_Derivative-OPLS-2005>
0.308809071779251

$$$$
68
                    3D
 Structure written by MMmdl.
160168  0  0  1  0            999 V2000
  -30.6754  -14.6172   20.5391 C   0  0  0  0  0  0
  -30.4308  -12.3914   19.4572 C   0  0  0  0  0  0
  -29.5067  -12.5072   18.2270 C   0  0  0  0  0  0
  -28.0313  -12.3487   18.6423 C   0  0  0  0  0  0
  -27.6542  -13.2241   19.8672 C   0  0  2  0  0  0
  -28.6987  -13.0968   20.9989 C   0  0  0  0  0  0
  -25.2562  -13.8188   20.5723 C   0  0  0  0  0  0
  -24.1839  -13.0436   20.9195 C   0  0  0  0  0  0
  -24.6429  -11.6906   20.8768 C   0  0  0  0  0  0
  -23.9112  -10.4281   21.0428 C   0  0  0  0  0  0
  -24.3640   -9.4179   21.9209 C   0  0  0  0  0  0
  -23.6288   -8.2232   22.0769 C   0  0  0  0  0  0
  -22.4274   -8.0289   21.3552 C   0  0  0  0  0  0
  -21.9935   -9.0277   20.4662 C   0  0  0  0  0  0
  -22.7287  -10.2136   20.3070 C   0  0  0  0  0  0
  -21.6845   -6.0742   22.5279 C   0  0  0  0  0  0
  -21.4012   -6.5642   23.8214 C   0  0  0  0  0  0
  -21.3655   -5.6798   24.9179 C   0  0  0  0  0  0
  -21.6036   -4.3058   24.7233 C   0  0  0  0  0  0
  -21.8817   -3.8152   23.4353 C   0  0  0  0  0  0
  -21.9186   -4.6970   22.3406 C   0  0  0  0  0  0
  -22.7853  -13.5220   21.1836 C   0  0  0  0  0  0
  -22.1651   -4.2152   21.0985 F   0  0  0  0  0  0
  -21.5630   -3.4543   25.7744 F   0  0  0  0  0  0
  -30.0145  -13.4211   20.4319 N   0  0  0  0  0  0
  -26.3010  -12.9393   20.3367 N   0  0  0  0  0  0
  -25.9363  -11.6532   20.5801 N   0  0  0  0  0  0
  -22.0485  -12.8221   22.0387 N   0  0  0  0  0  0
  -25.4265  -15.1912   20.4152 N   0  0  0  0  0  0
  -31.8198  -14.7518   20.0948 O   0  0  0  0  0  0
  -21.6622   -6.8889   21.4240 O   0  0  0  0  0  0
  -22.3545  -14.5528   20.6673 O   0  0  0  0  0  0
  -24.6239  -31.8637   23.2110 C   0  0  0  0  0  0
  -25.9100  -32.4798   23.8415 C   0  0  1  0  0  0
  -27.2123  -27.3376   20.1131 C   0  0  0  0  0  0
  -25.5922  -33.8607   24.2316 N   0  0  0  0  0  0
  -23.4171  -30.4912   21.5536 C   0  0  2  0  0  0
  -24.8631  -28.9627   20.1085 C   0  0  0  0  0  0
  -22.7499  -29.4615   22.4968 C   0  0  0  0  0  0
  -18.0294  -28.1374   22.8514 C   0  0  0  0  0  0
  -24.1486  -36.7297   23.2630 C   0  0  0  0  0  0
  -25.9601  -30.7989   21.3845 C   0  0  0  0  0  0
  -26.0312  -29.4308   20.7224 C   0  0  0  0  0  0
  -27.2070  -28.6258   20.7248 C   0  0  0  0  0  0
  -26.0271  -26.9393   19.4443 C   0  0  0  0  0  0
  -24.8608  -27.7201   19.4643 C   0  0  0  0  0  0
  -23.6316  -29.8392   20.1644 C   0  0  0  0  0  0
  -25.4099  -36.3079   24.0331 C   0  0  1  0  0  0
  -20.5909  -28.3659   23.1331 C   0  0  2  0  0  0
  -20.6787  -26.9376   22.5449 C   0  0  0  0  0  0
  -19.5743  -26.6381   21.5261 C   0  0  0  0  0  0
  -18.1921  -26.7931   22.1656 C   0  0  0  0  0  0
  -19.1553  -28.8843   23.2916 C   0  0  0  0  0  0
  -18.9446  -30.1465   23.8901 C   0  0  0  0  0  0
  -17.6434  -30.6568   24.0578 C   0  0  0  0  0  0
  -25.9044  -34.9450   23.5107 C   0  0  0  0  0  0
  -16.5341  -29.9050   23.6334 C   0  0  0  0  0  0
  -16.7280  -28.6488   23.0333 C   0  0  0  0  0  0
  -26.4493  -31.6601   25.0767 C   0  0  0  0  0  0
  -25.3730  -31.3734   26.1491 C   0  0  0  0  0  0
  -27.0313  -30.3019   24.6218 C   0  0  0  0  0  0
  -27.6050  -32.4356   25.7521 C   0  0  0  0  0  0
  -27.5579  -37.1786   24.8447 C   0  0  0  0  0  0
  -21.4216  -29.3010   22.3727 N   0  0  0  0  0  0
  -26.4268  -37.3778   23.9427 N   0  0  0  0  0  0
  -24.6855  -31.0672   22.1060 N   0  0  0  0  0  0
  -23.4243  -28.8133   23.3005 O   0  0  0  0  0  0
  -28.3111  -26.4676   20.2043 O   0  0  0  0  0  0
  -26.5596  -34.8900   22.4675 O   0  0  0  0  0  0
  -23.5412  -32.1418   23.7456 O   0  0  0  0  0  0
  -28.5812  -18.9368   21.1934 C   0  0  0  0  0  0
  -29.5183  -18.3256   20.3149 C   0  0  0  0  0  0
  -29.0009  -21.0718   20.3050 C   0  0  0  0  0  0
  -30.0137  -20.4785   19.4949 C   0  0  0  0  0  0
  -30.3240  -21.3507   17.0918 C   0  0  0  0  0  0
  -30.1873  -16.1622   22.3472 C   0  0  0  0  0  0
  -28.3680  -22.4700   19.9935 C   0  0  0  0  0  0
  -30.8571  -21.3039   18.5300 C   0  0  0  0  0  0
  -29.5459  -16.7844   20.0002 C   0  0  0  0  0  0
  -28.9248  -23.8580   20.5115 C   0  0  0  0  0  0
  -28.0402  -25.0410   19.9442 C   0  0  0  0  0  0
  -28.3299  -20.2834   21.1927 N   0  0  0  0  0  0
  -30.2617  -19.1297   19.5005 N   0  0  0  0  0  0
  -29.9688  -15.7139   20.9709 N   0  0  0  0  0  0
  -31.4747  -12.4997   19.1550 H   0  0  0  0  0  0
  -30.3538  -11.3999   19.9053 H   0  0  0  0  0  0
  -29.7685  -11.7476   17.4892 H   0  0  0  0  0  0
  -29.6547  -13.4736   17.7400 H   0  0  0  0  0  0
  -27.8728  -11.2969   18.8833 H   0  0  0  0  0  0
  -27.3737  -12.5716   17.8009 H   0  0  0  0  0  0
  -27.6685  -14.2573   19.5209 H   0  0  0  0  0  0
  -28.7067  -12.0853   21.4062 H   0  0  0  0  0  0
  -28.4476  -13.7564   21.8311 H   0  0  0  0  0  0
  -25.2782   -9.5621   22.4793 H   0  0  0  0  0  0
  -23.9973   -7.4613   22.7496 H   0  0  0  0  0  0
  -21.0861   -8.8826   19.8970 H   0  0  0  0  0  0
  -22.3784  -10.9683   19.6175 H   0  0  0  0  0  0
  -21.2005   -7.6149   23.9720 H   0  0  0  0  0  0
  -21.1481   -6.0530   25.9081 H   0  0  0  0  0  0
  -22.0601   -2.7612   23.2860 H   0  0  0  0  0  0
  -22.4081  -11.9870   22.4765 H   0  0  0  0  0  0
  -21.1109  -13.1270   22.2585 H   0  0  0  0  0  0
  -24.6637  -15.8482   20.5380 H   0  0  0  0  0  0
  -26.2837  -15.6320   20.1102 H   0  0  0  0  0  0
  -26.7175  -32.5481   23.1175 H   0  0  0  0  0  0
  -25.0066  -33.9783   25.0455 H   0  0  0  0  0  0
  -22.7051  -31.3088   21.4181 H   0  0  0  0  0  0
  -23.3737  -35.9630   23.3265 H   0  0  0  0  0  0
  -24.3589  -36.8960   22.2047 H   0  0  0  0  0  0
  -23.7256  -37.6498   23.6683 H   0  0  0  0  0  0
  -26.0883  -31.5639   20.6174 H   0  0  0  0  0  0
  -26.8440  -30.8493   22.0088 H   0  0  0  0  0  0
  -28.0962  -28.9701   21.2348 H   0  0  0  0  0  0
  -25.9561  -26.0063   18.9066 H   0  0  0  0  0  0
  -23.9658  -27.3642   18.9734 H   0  0  0  0  0  0
  -23.7533  -30.6237   19.4159 H   0  0  0  0  0  0
  -22.7524  -29.2707   19.8576 H   0  0  0  0  0  0
  -25.1277  -36.1913   25.0815 H   0  0  0  0  0  0
  -21.0005  -28.3205   24.1457 H   0  0  0  0  0  0
  -20.5768  -26.2224   23.3630 H   0  0  0  0  0  0
  -21.6636  -26.7445   22.1180 H   0  0  0  0  0  0
  -19.6886  -25.6308   21.1250 H   0  0  0  0  0  0
  -19.6686  -27.3243   20.6837 H   0  0  0  0  0  0
  -17.4223  -26.6769   21.4014 H   0  0  0  0  0  0
  -18.0221  -26.0058   22.9013 H   0  0  0  0  0  0
  -19.7908  -30.7329   24.2238 H   0  0  0  0  0  0
  -17.4953  -31.6247   24.5178 H   0  0  0  0  0  0
  -15.5327  -30.2923   23.7661 H   0  0  0  0  0  0
  -15.8695  -28.0830   22.6964 H   0  0  0  0  0  0
  -24.5926  -30.7056   25.7837 H   0  0  0  0  0  0
  -24.8874  -32.2888   26.4884 H   0  0  0  0  0  0
  -25.8041  -30.8952   27.0295 H   0  0  0  0  0  0
  -26.2875  -29.6801   24.1227 H   0  0  0  0  0  0
  -27.3982  -29.7246   25.4719 H   0  0  0  0  0  0
  -27.8768  -30.4286   23.9449 H   0  0  0  0  0  0
  -27.2658  -33.3678   26.2055 H   0  0  0  0  0  0
  -28.3856  -32.6918   25.0340 H   0  0  0  0  0  0
  -28.0729  -31.8531   26.5468 H   0  0  0  0  0  0
  -28.2538  -38.0129   24.7537 H   0  0  0  0  0  0
  -28.1136  -36.2671   24.6203 H   0  0  0  0  0  0
  -27.2326  -37.1353   25.8851 H   0  0  0  0  0  0
  -20.9378  -29.8718   21.6944 H   0  0  0  0  0  0
  -26.0137  -38.2838   24.1469 H   0  0  0  0  0  0
  -27.9460  -18.3375   21.8300 H   0  0  0  0  0  0
  -30.9931  -21.9437   16.4662 H   0  0  0  0  0  0
  -29.3379  -21.8098   17.0287 H   0  0  0  0  0  0
  -30.2601  -20.3542   16.6558 H   0  0  0  0  0  0
  -29.2904  -16.6251   22.7567 H   0  0  0  0  0  0
  -31.0028  -16.8859   22.3948 H   0  0  0  0  0  0
  -30.4440  -15.3299   23.0060 H   0  0  0  0  0  0
  -27.3267  -22.4061   20.3136 H   0  0  0  0  0  0
  -28.2993  -22.5312   18.9098 H   0  0  0  0  0  0
  -31.8653  -20.8901   18.5200 H   0  0  0  0  0  0
  -30.9627  -22.3193   18.9126 H   0  0  0  0  0  0
  -30.1161  -16.6560   19.0786 H   0  0  0  0  0  0
  -28.5235  -16.5304   19.7171 H   0  0  0  0  0  0
  -29.9621  -23.9881   20.2097 H   0  0  0  0  0  0
  -28.9161  -23.8810   21.6022 H   0  0  0  0  0  0
  -27.0423  -24.8053   20.3164 H   0  0  0  0  0  0
  -27.9996  -24.9298   18.8590 H   0  0  0  0  0  0
  1 25  1  0  0  0
  1 30  2  0  0  0
  1 84  1  0  0  0
  2  3  1  0  0  0
  2 25  1  0  0  0
  2 85  1  0  0  0
  2 86  1  0  0  0
  3  4  1  0  0  0
  3 87  1  0  0  0
  3 88  1  0  0  0
  4  5  1  0  0  0
  4 89  1  0  0  0
  4 90  1  0  0  0
  5  6  1  0  0  0
  5 26  1  0  0  0
  5 91  1  0  0  0
  6 25  1  0  0  0
  6 92  1  0  0  0
  6 93  1  0  0  0
  7  8  2  0  0  0
  7 26  1  0  0  0
  7 29  1  0  0  0
  8  9  1  0  0  0
  8 22  1  0  0  0
  9 10  1  0  0  0
  9 27  2  0  0  0
 10 11  2  0  0  0
 10 15  1  0  0  0
 11 12  1  0  0  0
 11 94  1  0  0  0
 12 13  2  0  0  0
 12 95  1  0  0  0
 13 14  1  0  0  0
 13 31  1  0  0  0
 14 15  2  0  0  0
 14 96  1  0  0  0
 15 97  1  0  0  0
 16 17  2  0  0  0
 16 21  1  0  0  0
 16 31  1  0  0  0
 17 18  1  0  0  0
 17 98  1  0  0  0
 18 19  2  0  0  0
 18 99  1  0  0  0
 19 20  1  0  0  0
 19 24  1  0  0  0
 20 21  2  0  0  0
 20100  1  0  0  0
 21 23  1  0  0  0
 22 28  1  0  0  0
 22 32  2  0  0  0
 26 27  1  0  0  0
 28101  1  0  0  0
 28102  1  0  0  0
 29103  1  0  0  0
 29104  1  0  0  0
 33 34  1  0  0  0
 33 66  1  0  0  0
 33 70  2  0  0  0
 34 36  1  0  0  0
 34 59  1  0  0  0
 34105  1  0  0  0
 35 44  2  0  0  0
 35 45  1  0  0  0
 35 68  1  0  0  0
 36 56  1  0  0  0
 36106  1  0  0  0
 37 39  1  0  0  0
 37 47  1  0  0  0
 37 66  1  0  0  0
 37107  1  0  0  0
 38 43  2  0  0  0
 38 46  1  0  0  0
 38 47  1  0  0  0
 39 64  1  0  0  0
 39 67  2  0  0  0
 40 52  1  0  0  0
 40 53  2  0  0  0
 40 58  1  0  0  0
 41108  1  0  0  0
 41109  1  0  0  0
 41110  1  0  0  0
 41 48  1  0  0  0
 42 43  1  0  0  0
 42 66  1  0  0  0
 42111  1  0  0  0
 42112  1  0  0  0
 43 44  1  0  0  0
 44113  1  0  0  0
 45 46  2  0  0  0
 45114  1  0  0  0
 46115  1  0  0  0
 47116  1  0  0  0
 47117  1  0  0  0
 48 56  1  0  0  0
 48 65  1  0  0  0
 48118  1  0  0  0
 49 50  1  0  0  0
 49 53  1  0  0  0
 49 64  1  0  0  0
 49119  1  0  0  0
 50 51  1  0  0  0
 50120  1  0  0  0
 50121  1  0  0  0
 51 52  1  0  0  0
 51122  1  0  0  0
 51123  1  0  0  0
 52124  1  0  0  0
 52125  1  0  0  0
 53 54  1  0  0  0
 54 55  2  0  0  0
 54126  1  0  0  0
 55 57  1  0  0  0
 55127  1  0  0  0
 56 69  2  0  0  0
 57 58  2  0  0  0
 57128  1  0  0  0
 58129  1  0  0  0
 59 60  1  0  0  0
 59 61  1  0  0  0
 59 62  1  0  0  0
 60130  1  0  0  0
 60131  1  0  0  0
 60132  1  0  0  0
 61133  1  0  0  0
 61134  1  0  0  0
 61135  1  0  0  0
 62136  1  0  0  0
 62137  1  0  0  0
 62138  1  0  0  0
 63 65  1  0  0  0
 63139  1  0  0  0
 63140  1  0  0  0
 63141  1  0  0  0
 64142  1  0  0  0
 65143  1  0  0  0
 68 81  1  0  0  0
 71 72  2  0  0  0
 71 82  1  0  0  0
 71144  1  0  0  0
 72 79  1  0  0  0
 72 83  1  0  0  0
 73 74  1  0  0  0
 73 77  1  0  0  0
 73 82  2  0  0  0
 74 78  1  0  0  0
 74 83  2  0  0  0
 75 78  1  0  0  0
 75145  1  0  0  0
 75146  1  0  0  0
 75147  1  0  0  0
 76 84  1  0  0  0
 76148  1  0  0  0
 76149  1  0  0  0
 76150  1  0  0  0
 77 80  1  0  0  0
 77151  1  0  0  0
 77152  1  0  0  0
 78153  1  0  0  0
 78154  1  0  0  0
 79 84  1  0  0  0
 79155  1  0  0  0
 79156  1  0  0  0
 80 81  1  0  0  0
 80157  1  0  0  0
 80158  1  0  0  0
 81159  1  0  0  0
 81160  1  0  0  0
M  ISO  4   1 100  68 101  81 101  84 100
M  END
> <chiral flag>
0

> <version>
0

> <s_m_source_file>
/data/baiqing/PycharmProjects/Reinvent-master-3.2/result/LINK_invent/BTK/process_docking_weight1_custom_sum_contain_oxygen_bond_distance_aromatic_linkinvent_7_9_3/rearranged_h_0059.sdf

> <i_m_source_file_index>
68

> <r_mmod_Potential_Energy-OPLS-2005>
219.555419921875

> <r_mmod_Stretch_Energy-OPLS-2005>
75.3867950439453

> <r_mmod_Bend_Energy-OPLS-2005>
152.390808105469

> <r_mmod_Torsional_Energy-OPLS-2005>
281.877777099609

> <r_mmod_Improper_Torsional_Energy-OPLS-2005>
9.93687152862549

> <r_mmod_Van_der_Waal_Energy-OPLS-2005>
152.183807373047

> <r_mmod_Electrostatic_Energy-OPLS-2005>
-285.176391601562

> <r_mmod_Solvation_Energy-OPLS-2005>
-212.917007446289

> <b_mmod_Minimization_Converged-OPLS-2005>
0

> <r_mmod_RMS_Derivative-OPLS-2005>
2.4394793510437

$$$$
69
                    3D
 Structure written by MMmdl.
157165  0  0  1  0            999 V2000
  -30.6437  -14.7449   20.5555 C   0  0  0  0  0  0
  -30.4573  -12.4915   19.4560 C   0  0  0  0  0  0
  -29.5199  -12.5481   18.2275 C   0  0  0  0  0  0
  -28.0409  -12.3690   18.6359 C   0  0  0  0  0  0
  -27.6576  -13.2253   19.8732 C   0  0  2  0  0  0
  -28.7156  -13.0577   20.9866 C   0  0  0  0  0  0
  -25.2536  -13.8138   20.5679 C   0  0  0  0  0  0
  -24.1812  -13.0360   20.9172 C   0  0  0  0  0  0
  -24.6418  -11.6874   20.8700 C   0  0  0  0  0  0
  -23.9084  -10.4244   21.0340 C   0  0  0  0  0  0
  -24.3625   -9.4161   21.9104 C   0  0  0  0  0  0
  -23.6269   -8.2216   22.0716 C   0  0  0  0  0  0
  -22.4243   -8.0250   21.3525 C   0  0  0  0  0  0
  -21.9903   -9.0231   20.4629 C   0  0  0  0  0  0
  -22.7261  -10.2091   20.3002 C   0  0  0  0  0  0
  -21.6846   -6.0719   22.5273 C   0  0  0  0  0  0
  -21.4007   -6.5621   23.8216 C   0  0  0  0  0  0
  -21.3660   -5.6775   24.9178 C   0  0  0  0  0  0
  -21.6048   -4.3041   24.7241 C   0  0  0  0  0  0
  -21.8811   -3.8132   23.4358 C   0  0  0  0  0  0
  -21.9184   -4.6940   22.3416 C   0  0  0  0  0  0
  -22.7815  -13.5095   21.1841 C   0  0  0  0  0  0
  -22.1665   -4.2122   21.0994 F   0  0  0  0  0  0
  -21.5663   -3.4545   25.7779 F   0  0  0  0  0  0
  -29.9941  -13.5228   20.4251 N   0  0  0  0  0  0
  -26.3035  -12.9370   20.3392 N   0  0  0  0  0  0
  -25.9376  -11.6496   20.5776 N   0  0  0  0  0  0
  -22.0526  -12.8064   22.0454 N   0  0  0  0  0  0
  -25.4022  -15.1865   20.4054 N   0  0  0  0  0  0
  -31.8096  -14.8083   20.1540 O   0  0  0  0  0  0
  -21.6588   -6.8865   21.4242 O   0  0  0  0  0  0
  -22.3438  -14.5357   20.6677 O   0  0  0  0  0  0
  -24.6283  -31.8563   23.1919 C   0  0  0  0  0  0
  -25.9086  -32.4761   23.8297 C   0  0  1  0  0  0
  -27.2110  -27.2380   20.1588 C   0  0  0  0  0  0
  -25.5876  -33.8567   24.2206 N   0  0  0  0  0  0
  -23.4306  -30.4706   21.5402 C   0  0  2  0  0  0
  -24.8790  -28.9153   20.1099 C   0  0  0  0  0  0
  -22.7511  -29.4559   22.4925 C   0  0  0  0  0  0
  -18.0287  -28.1395   22.8456 C   0  0  0  0  0  0
  -24.1518  -36.7271   23.2653 C   0  0  0  0  0  0
  -25.9794  -30.7578   21.3837 C   0  0  0  0  0  0
  -26.0505  -29.3792   20.7246 C   0  0  0  0  0  0
  -27.2204  -28.5527   20.7338 C   0  0  0  0  0  0
  -26.0234  -26.8465   19.5074 C   0  0  0  0  0  0
  -24.8718  -27.6577   19.4878 C   0  0  0  0  0  0
  -23.6510  -29.8044   20.1585 C   0  0  0  0  0  0
  -25.4159  -36.3080   24.0322 C   0  0  1  0  0  0
  -20.5887  -28.3692   23.1298 C   0  0  2  0  0  0
  -20.6793  -26.9410   22.5443 C   0  0  0  0  0  0
  -19.5772  -26.6396   21.5234 C   0  0  0  0  0  0
  -18.1942  -26.7940   22.1620 C   0  0  0  0  0  0
  -19.1536  -28.8851   23.2862 C   0  0  0  0  0  0
  -18.9465  -30.1455   23.8869 C   0  0  0  0  0  0
  -17.6465  -30.6592   24.0549 C   0  0  0  0  0  0
  -25.9094  -34.9446   23.5091 C   0  0  0  0  0  0
  -16.5348  -29.9087   23.6322 C   0  0  0  0  0  0
  -16.7268  -28.6510   23.0317 C   0  0  0  0  0  0
  -26.4442  -31.6587   25.0693 C   0  0  0  0  0  0
  -25.3600  -31.3752   26.1350 C   0  0  0  0  0  0
  -27.0329  -30.3014   24.6213 C   0  0  0  0  0  0
  -27.6028  -32.4330   25.7403 C   0  0  0  0  0  0
  -27.5605  -37.1764   24.8463 C   0  0  0  0  0  0
  -21.4223  -29.2997   22.3646 N   0  0  0  0  0  0
  -26.4345  -37.3762   23.9378 N   0  0  0  0  0  0
  -24.6984  -31.0468   22.0945 N   0  0  0  0  0  0
  -23.4185  -28.8151   23.3089 O   0  0  0  0  0  0
  -28.2953  -26.3351   20.2036 O   0  0  0  0  0  0
  -26.5724  -34.8899   22.4701 O   0  0  0  0  0  0
  -23.5405  -32.1431   23.7129 O   0  0  0  0  0  0
  -29.3689  -20.3464   19.0912 C   0  0  0  0  0  0
  -29.2284  -20.8348   20.3748 C   0  0  0  0  0  0
  -29.9951  -18.6315   20.4248 C   0  0  0  0  0  0
  -30.2374  -18.2041   18.0131 C   0  0  0  0  0  0
  -28.8166  -16.0238   21.7871 C   0  0  0  0  0  0
  -28.6716  -22.2057   20.9431 C   0  0  0  0  0  0
  -30.7015  -17.2990   20.9069 C   0  0  0  0  0  0
  -28.8944  -23.6365   20.2037 C   0  0  0  0  0  0
  -28.0488  -24.9323   20.7064 C   0  0  0  0  0  0
  -29.8482  -19.0441   19.1517 N   0  0  0  0  0  0
  -29.6246  -19.7291   21.1553 N   0  3  0  0  0  0
  -29.9868  -15.9452   20.9020 N   0  0  0  0  0  0
  -31.4915  -12.6433   19.1378 H   0  0  0  0  0  0
  -30.4508  -11.4981   19.9095 H   0  0  0  0  0  0
  -29.8074  -11.7825   17.5091 H   0  0  0  0  0  0
  -29.6459  -13.5004   17.7057 H   0  0  0  0  0  0
  -27.8836  -11.3117   18.8548 H   0  0  0  0  0  0
  -27.3817  -12.6083   17.7976 H   0  0  0  0  0  0
  -27.6794  -14.2614   19.5399 H   0  0  0  0  0  0
  -28.7826  -12.0026   21.2626 H   0  0  0  0  0  0
  -28.4542  -13.5462   21.9195 H   0  0  0  0  0  0
  -25.2812   -9.5615   22.4613 H   0  0  0  0  0  0
  -23.9975   -7.4595   22.7420 H   0  0  0  0  0  0
  -21.0837   -8.8721   19.8945 H   0  0  0  0  0  0
  -22.3694  -10.9583   19.6062 H   0  0  0  0  0  0
  -21.1976   -7.6122   23.9719 H   0  0  0  0  0  0
  -21.1504   -6.0500   25.9069 H   0  0  0  0  0  0
  -22.0591   -2.7586   23.2863 H   0  0  0  0  0  0
  -22.4268  -11.9778   22.4864 H   0  0  0  0  0  0
  -21.1118  -13.1005   22.2688 H   0  0  0  0  0  0
  -24.6179  -15.8184   20.5211 H   0  0  0  0  0  0
  -26.2392  -15.6605   20.0941 H   0  0  0  0  0  0
  -26.7118  -32.5398   23.1000 H   0  0  0  0  0  0
  -24.9853  -33.9761   25.0215 H   0  0  0  0  0  0
  -22.7256  -31.2903   21.3881 H   0  0  0  0  0  0
  -23.3816  -35.9562   23.3329 H   0  0  0  0  0  0
  -24.3596  -36.8910   22.2065 H   0  0  0  0  0  0
  -23.7243  -37.6452   23.6695 H   0  0  0  0  0  0
  -26.1384  -31.5209   20.6201 H   0  0  0  0  0  0
  -26.8475  -30.7949   22.0290 H   0  0  0  0  0  0
  -28.1182  -28.8935   21.2270 H   0  0  0  0  0  0
  -25.9665  -25.8852   19.0192 H   0  0  0  0  0  0
  -23.9750  -27.2947   19.0010 H   0  0  0  0  0  0
  -23.7692  -30.5827   19.4043 H   0  0  0  0  0  0
  -22.7711  -29.2385   19.8501 H   0  0  0  0  0  0
  -25.1335  -36.1970   25.0819 H   0  0  0  0  0  0
  -20.9910  -28.3283   24.1446 H   0  0  0  0  0  0
  -20.5764  -26.2275   23.3640 H   0  0  0  0  0  0
  -21.6665  -26.7496   22.1177 H   0  0  0  0  0  0
  -19.6981  -25.6316   21.1265 H   0  0  0  0  0  0
  -19.6752  -27.3200   20.6759 H   0  0  0  0  0  0
  -17.4222  -26.6631   21.4024 H   0  0  0  0  0  0
  -18.0331  -26.0132   22.9053 H   0  0  0  0  0  0
  -19.7941  -30.7278   24.2229 H   0  0  0  0  0  0
  -17.5014  -31.6270   24.5183 H   0  0  0  0  0  0
  -15.5341  -30.2966   23.7702 H   0  0  0  0  0  0
  -15.8668  -28.0852   22.7001 H   0  0  0  0  0  0
  -24.5746  -30.7204   25.7546 H   0  0  0  0  0  0
  -24.8816  -32.2940   26.4748 H   0  0  0  0  0  0
  -25.7778  -30.8843   27.0142 H   0  0  0  0  0  0
  -26.2953  -29.6721   24.1227 H   0  0  0  0  0  0
  -27.4024  -29.7307   25.4739 H   0  0  0  0  0  0
  -27.8793  -30.4309   23.9468 H   0  0  0  0  0  0
  -27.2703  -33.3659   26.1948 H   0  0  0  0  0  0
  -28.3770  -32.6865   25.0146 H   0  0  0  0  0  0
  -28.0762  -31.8490   26.5296 H   0  0  0  0  0  0
  -28.2601  -38.0077   24.7526 H   0  0  0  0  0  0
  -28.1123  -36.2604   24.6283 H   0  0  0  0  0  0
  -27.2301  -37.1368   25.8859 H   0  0  0  0  0  0
  -20.9423  -29.8670   21.6792 H   0  0  0  0  0  0
  -26.0258  -38.2862   24.1326 H   0  0  0  0  0  0
  -29.1752  -20.8335   18.1445 H   0  0  0  0  0  0
  -31.3271  -18.2027   17.9418 H   0  0  0  0  0  0
  -29.8187  -18.6071   17.0904 H   0  0  0  0  0  0
  -29.8785  -17.1807   18.1558 H   0  0  0  0  0  0
  -29.0429  -15.5474   22.7425 H   0  0  0  0  0  0
  -28.5233  -17.0497   22.0120 H   0  0  0  0  0  0
  -27.9310  -15.5692   21.3554 H   0  0  0  0  0  0
  -29.0539  -22.3069   21.9607 H   0  0  0  0  0  0
  -27.5975  -22.0601   21.0714 H   0  0  0  0  0  0
  -31.0320  -17.4961   21.9277 H   0  0  0  0  0  0
  -31.6235  -17.2462   20.3301 H   0  0  0  0  0  0
  -28.6944  -23.5090   19.1383 H   0  0  0  0  0  0
  -29.9558  -23.8740   20.2779 H   0  0  0  0  0  0
  -28.1844  -24.9901   21.7881 H   0  0  0  0  0  0
  -26.9936  -24.6786   20.6035 H   0  0  0  0  0  0
  -29.6815  -19.7514   22.1690 H   0  0  0  0  0  0
  1 25  1  0  0  0
  1 30  2  0  0  0
  1 82  1  0  0  0
  2  3  1  0  0  0
  2 25  1  0  0  0
  2 83  1  0  0  0
  2 84  1  0  0  0
  3  4  1  0  0  0
  3 85  1  0  0  0
  3 86  1  0  0  0
  4  5  1  0  0  0
  4 87  1  0  0  0
  4 88  1  0  0  0
  5  6  1  0  0  0
  5 26  1  0  0  0
  5 89  1  0  0  0
  6 25  1  0  0  0
  6 90  1  0  0  0
  6 91  1  0  0  0
  7  8  2  0  0  0
  7 26  1  0  0  0
  7 29  1  0  0  0
  8  9  1  0  0  0
  8 22  1  0  0  0
  9 10  1  0  0  0
  9 27  2  0  0  0
 10 11  2  0  0  0
 10 15  1  0  0  0
 11 12  1  0  0  0
 11 92  1  0  0  0
 12 13  2  0  0  0
 12 93  1  0  0  0
 13 14  1  0  0  0
 13 31  1  0  0  0
 14 15  2  0  0  0
 14 94  1  0  0  0
 15 95  1  0  0  0
 16 17  2  0  0  0
 16 21  1  0  0  0
 16 31  1  0  0  0
 17 18  1  0  0  0
 17 96  1  0  0  0
 18 19  2  0  0  0
 18 97  1  0  0  0
 19 20  1  0  0  0
 19 24  1  0  0  0
 20 21  2  0  0  0
 20 98  1  0  0  0
 21 23  1  0  0  0
 22 28  1  0  0  0
 22 32  2  0  0  0
 26 27  1  0  0  0
 28 99  1  0  0  0
 28100  1  0  0  0
 29101  1  0  0  0
 29102  1  0  0  0
 33 34  1  0  0  0
 33 66  1  0  0  0
 33 70  2  0  0  0
 34 36  1  0  0  0
 34 59  1  0  0  0
 34103  1  0  0  0
 35 44  2  0  0  0
 35 45  1  0  0  0
 35 68  1  0  0  0
 36 56  1  0  0  0
 36104  1  0  0  0
 37 39  1  0  0  0
 37 47  1  0  0  0
 37 66  1  0  0  0
 37105  1  0  0  0
 38 43  2  0  0  0
 38 46  1  0  0  0
 38 47  1  0  0  0
 39 64  1  0  0  0
 39 67  2  0  0  0
 40 52  1  0  0  0
 40 53  2  0  0  0
 40 58  1  0  0  0
 41106  1  0  0  0
 41107  1  0  0  0
 41108  1  0  0  0
 41 48  1  0  0  0
 42 43  1  0  0  0
 42 66  1  0  0  0
 42109  1  0  0  0
 42110  1  0  0  0
 43 44  1  0  0  0
 44111  1  0  0  0
 45 46  2  0  0  0
 45112  1  0  0  0
 46113  1  0  0  0
 47114  1  0  0  0
 47115  1  0  0  0
 48 56  1  0  0  0
 48 65  1  0  0  0
 48116  1  0  0  0
 49 50  1  0  0  0
 49 53  1  0  0  0
 49 64  1  0  0  0
 49117  1  0  0  0
 50 51  1  0  0  0
 50118  1  0  0  0
 50119  1  0  0  0
 51 52  1  0  0  0
 51120  1  0  0  0
 51121  1  0  0  0
 52122  1  0  0  0
 52123  1  0  0  0
 53 54  1  0  0  0
 54 55  2  0  0  0
 54124  1  0  0  0
 55 57  1  0  0  0
 55125  1  0  0  0
 56 69  2  0  0  0
 57 58  2  0  0  0
 57126  1  0  0  0
 58127  1  0  0  0
 59 60  1  0  0  0
 59 61  1  0  0  0
 59 62  1  0  0  0
 60128  1  0  0  0
 60129  1  0  0  0
 60130  1  0  0  0
 61131  1  0  0  0
 61132  1  0  0  0
 61133  1  0  0  0
 62134  1  0  0  0
 62135  1  0  0  0
 62136  1  0  0  0
 63 65  1  0  0  0
 63137  1  0  0  0
 63138  1  0  0  0
 63139  1  0  0  0
 64140  1  0  0  0
 65141  1  0  0  0
 68 79  1  0  0  0
 71 72  2  0  0  0
 71 80  1  0  0  0
 71142  1  0  0  0
 72 76  1  0  0  0
 72 81  1  0  0  0
 73 77  1  0  0  0
 73 80  1  0  0  0
 73 81  2  0  0  0
 74 80  1  0  0  0
 74143  1  0  0  0
 74144  1  0  0  0
 74145  1  0  0  0
 75 82  1  0  0  0
 75146  1  0  0  0
 75147  1  0  0  0
 75148  1  0  0  0
 76 78  1  0  0  0
 76149  1  0  0  0
 76150  1  0  0  0
 77 82  1  0  0  0
 77151  1  0  0  0
 77152  1  0  0  0
 78 79  1  0  0  0
 78153  1  0  0  0
 78154  1  0  0  0
 79155  1  0  0  0
 79156  1  0  0  0
 81157  1  0  0  0
M  CHG  1  81   1
M  ISO  4   1 100  68 101  79 101  82 100
M  END
> <chiral flag>
0

> <version>
0

> <s_m_source_file>
/data/baiqing/PycharmProjects/Reinvent-master-3.2/result/LINK_invent/BTK/process_docking_weight1_custom_sum_contain_oxygen_bond_distance_aromatic_linkinvent_7_9_3/rearranged_h_0059.sdf

> <i_m_source_file_index>
69

> <r_mmod_Potential_Energy-OPLS-2005>
203.928665161133

> <r_mmod_Stretch_Energy-OPLS-2005>
132.028411865234

> <r_mmod_Bend_Energy-OPLS-2005>
191.925994873047

> <r_mmod_Torsional_Energy-OPLS-2005>
256.564727783203

> <r_mmod_Improper_Torsional_Energy-OPLS-2005>
8.00420570373535

> <r_mmod_Van_der_Waal_Energy-OPLS-2005>
127.994064331055

> <r_mmod_Electrostatic_Energy-OPLS-2005>
-189.196212768555

> <r_mmod_Solvation_Energy-OPLS-2005>
-409.225616455078

> <b_mmod_Minimization_Converged-OPLS-2005>
0

> <r_mmod_RMS_Derivative-OPLS-2005>
5.30566120147705

$$$$
70
                    3D
 Structure written by MMmdl.
168176  0  0  1  0            999 V2000
  -30.7218  -14.5314   20.6185 C   0  0  0  0  0  0
  -30.4170  -12.3627   19.4413 C   0  0  0  0  0  0
  -29.4934  -12.5163   18.2159 C   0  0  0  0  0  0
  -28.0204  -12.3501   18.6295 C   0  0  0  0  0  0
  -27.6514  -13.2160   19.8617 C   0  0  2  0  0  0
  -28.6880  -13.0569   20.9927 C   0  0  0  0  0  0
  -25.2551  -13.8178   20.5678 C   0  0  0  0  0  0
  -24.1818  -13.0442   20.9191 C   0  0  0  0  0  0
  -24.6385  -11.6912   20.8741 C   0  0  0  0  0  0
  -23.9064  -10.4293   21.0409 C   0  0  0  0  0  0
  -24.3619   -9.4205   21.9180 C   0  0  0  0  0  0
  -23.6295   -8.2244   22.0750 C   0  0  0  0  0  0
  -22.4272   -8.0289   21.3555 C   0  0  0  0  0  0
  -21.9919   -9.0257   20.4651 C   0  0  0  0  0  0
  -22.7244  -10.2137   20.3052 C   0  0  0  0  0  0
  -21.6848   -6.0743   22.5282 C   0  0  0  0  0  0
  -21.4012   -6.5647   23.8215 C   0  0  0  0  0  0
  -21.3655   -5.6798   24.9179 C   0  0  0  0  0  0
  -21.6043   -4.3062   24.7224 C   0  0  0  0  0  0
  -21.8818   -3.8156   23.4343 C   0  0  0  0  0  0
  -21.9195   -4.6974   22.3404 C   0  0  0  0  0  0
  -22.7844  -13.5238   21.1868 C   0  0  0  0  0  0
  -22.1668   -4.2159   21.0979 F   0  0  0  0  0  0
  -21.5623   -3.4547   25.7735 F   0  0  0  0  0  0
  -30.0182  -13.3682   20.4487 N   0  0  0  0  0  0
  -26.2963  -12.9356   20.3294 N   0  0  0  0  0  0
  -25.9304  -11.6508   20.5742 N   0  0  0  0  0  0
  -22.0493  -12.8201   22.0411 N   0  0  0  0  0  0
  -25.4283  -15.1887   20.4093 N   0  0  0  0  0  0
  -31.8056  -14.7067   20.0534 O   0  0  0  0  0  0
  -21.6642   -6.8883   21.4242 O   0  0  0  0  0  0
  -22.3532  -14.5554   20.6733 O   0  0  0  0  0  0
  -24.6216  -31.8645   23.2058 C   0  0  0  0  0  0
  -25.9079  -32.4798   23.8379 C   0  0  1  0  0  0
  -27.2246  -27.3639   20.1094 C   0  0  0  0  0  0
  -25.5924  -33.8604   24.2316 N   0  0  0  0  0  0
  -23.4131  -30.4868   21.5482 C   0  0  2  0  0  0
  -24.8614  -28.9483   20.1113 C   0  0  0  0  0  0
  -22.7467  -29.4624   22.4968 C   0  0  0  0  0  0
  -18.0285  -28.1357   22.8496 C   0  0  0  0  0  0
  -24.1483  -36.7296   23.2635 C   0  0  0  0  0  0
  -25.9518  -30.8075   21.3698 C   0  0  0  0  0  0
  -26.0289  -29.4385   20.7127 C   0  0  0  0  0  0
  -27.2189  -28.6569   20.7048 C   0  0  0  0  0  0
  -26.0440  -26.9183   19.4797 C   0  0  0  0  0  0
  -24.8677  -27.6902   19.4869 C   0  0  0  0  0  0
  -23.6257  -29.8229   20.1628 C   0  0  0  0  0  0
  -25.4107  -36.3102   24.0341 C   0  0  1  0  0  0
  -20.5891  -28.3651   23.1310 C   0  0  2  0  0  0
  -20.6786  -26.9380   22.5414 C   0  0  0  0  0  0
  -19.5751  -26.6374   21.5219 C   0  0  0  0  0  0
  -18.1924  -26.7910   22.1625 C   0  0  0  0  0  0
  -19.1536  -28.8821   23.2894 C   0  0  0  0  0  0
  -18.9459  -30.1425   23.8916 C   0  0  0  0  0  0
  -17.6461  -30.6571   24.0559 C   0  0  0  0  0  0
  -25.9050  -34.9468   23.5131 C   0  0  0  0  0  0
  -16.5349  -29.9067   23.6323 C   0  0  0  0  0  0
  -16.7276  -28.6477   23.0362 C   0  0  0  0  0  0
  -26.4484  -31.6580   25.0716 C   0  0  0  0  0  0
  -25.3710  -31.3682   26.1437 C   0  0  0  0  0  0
  -27.0306  -30.3022   24.6092 C   0  0  0  0  0  0
  -27.6093  -32.4283   25.7459 C   0  0  0  0  0  0
  -27.5587  -37.1791   24.8464 C   0  0  0  0  0  0
  -21.4187  -29.3021   22.3724 N   0  0  0  0  0  0
  -26.4294  -37.3787   23.9420 N   0  0  0  0  0  0
  -24.6809  -31.0679   22.0994 N   0  0  0  0  0  0
  -23.4217  -28.8179   23.3035 O   0  0  0  0  0  0
  -28.3358  -26.5249   20.1330 O   0  0  0  0  0  0
  -26.5607  -34.8926   22.4691 O   0  0  0  0  0  0
  -23.5393  -32.1429   23.7427 O   0  0  0  0  0  0
  -30.6725  -21.1539   20.7439 C   0  0  0  0  0  0
  -28.8505  -19.9951   20.4287 C   0  0  0  0  0  0
  -29.2603  -21.3030   20.6368 C   0  0  0  0  0  0
  -31.7052  -15.7138   25.0632 C   0  0  0  0  0  0
  -29.3323  -15.3281   24.4069 C   0  0  0  0  0  0
  -31.0984  -13.6161   23.8675 C   0  0  0  0  0  0
  -28.4176  -22.5882   20.8245 C   0  0  0  0  0  0
  -28.8681  -23.9423   20.1478 C   0  0  0  0  0  0
  -30.1185  -17.6996   20.1184 C   0  0  0  0  0  0
  -29.4074  -16.6456   21.0448 C   0  0  0  0  0  0
  -31.0992  -15.8533   22.6331 C   0  0  0  0  0  0
  -28.1043  -25.1988   20.7197 C   0  0  0  0  0  0
  -30.7948  -15.1218   23.9711 C   0  0  0  0  0  0
  -31.0788  -19.8926   20.6150 N   0  0  0  0  0  0
  -29.9612  -19.1492   20.4278 N   0  0  0  0  0  0
  -30.2406  -15.4745   21.4863 N   0  0  0  0  0  0
  -31.4637  -12.4574   19.1433 H   0  0  0  0  0  0
  -30.3261  -11.3611   19.8631 H   0  0  0  0  0  0
  -29.7509  -11.7846   17.4501 H   0  0  0  0  0  0
  -29.6405  -13.4974   17.7611 H   0  0  0  0  0  0
  -27.8601  -11.2958   18.8585 H   0  0  0  0  0  0
  -27.3597  -12.5813   17.7926 H   0  0  0  0  0  0
  -27.6789  -14.2529   19.5287 H   0  0  0  0  0  0
  -28.6734  -12.0382   21.3847 H   0  0  0  0  0  0
  -28.4198  -13.7024   21.8264 H   0  0  0  0  0  0
  -25.2763   -9.5678   22.4758 H   0  0  0  0  0  0
  -24.0011   -7.4625   22.7446 H   0  0  0  0  0  0
  -21.0862   -8.8763   19.8945 H   0  0  0  0  0  0
  -22.3702  -10.9672   19.6157 H   0  0  0  0  0  0
  -21.2000   -7.6153   23.9727 H   0  0  0  0  0  0
  -21.1481   -6.0526   25.9082 H   0  0  0  0  0  0
  -22.0599   -2.7618   23.2842 H   0  0  0  0  0  0
  -22.4128  -11.9863   22.4775 H   0  0  0  0  0  0
  -21.1107  -13.1206   22.2627 H   0  0  0  0  0  0
  -24.6626  -15.8459   20.5113 H   0  0  0  0  0  0
  -26.2813  -15.6231   20.0817 H   0  0  0  0  0  0
  -26.7154  -32.5489   23.1148 H   0  0  0  0  0  0
  -25.0114  -33.9781   25.0487 H   0  0  0  0  0  0
  -22.7007  -31.3029   21.4068 H   0  0  0  0  0  0
  -23.3758  -35.9609   23.3289 H   0  0  0  0  0  0
  -24.3598  -36.8913   22.2052 H   0  0  0  0  0  0
  -23.7213  -37.6490   23.6652 H   0  0  0  0  0  0
  -26.0707  -31.5682   20.5974 H   0  0  0  0  0  0
  -26.8394  -30.8645   21.9878 H   0  0  0  0  0  0
  -28.1169  -29.0260   21.1794 H   0  0  0  0  0  0
  -26.0207  -25.9522   18.9933 H   0  0  0  0  0  0
  -23.9749  -27.3103   19.0097 H   0  0  0  0  0  0
  -23.7374  -30.6001   19.4073 H   0  0  0  0  0  0
  -22.7483  -29.2474   19.8631 H   0  0  0  0  0  0
  -25.1265  -36.1977   25.0831 H   0  0  0  0  0  0
  -20.9986  -28.3222   24.1430 H   0  0  0  0  0  0
  -20.5696  -26.2251   23.3601 H   0  0  0  0  0  0
  -21.6651  -26.7425   22.1177 H   0  0  0  0  0  0
  -19.6922  -25.6296   21.1214 H   0  0  0  0  0  0
  -19.6704  -27.3214   20.6771 H   0  0  0  0  0  0
  -17.4205  -26.6682   21.4007 H   0  0  0  0  0  0
  -18.0311  -26.0016   22.8984 H   0  0  0  0  0  0
  -19.7928  -30.7231   24.2303 H   0  0  0  0  0  0
  -17.5011  -31.6265   24.5139 H   0  0  0  0  0  0
  -15.5352  -30.2983   23.7630 H   0  0  0  0  0  0
  -15.8667  -28.0808   22.7084 H   0  0  0  0  0  0
  -24.5944  -30.6968   25.7763 H   0  0  0  0  0  0
  -24.8810  -32.2804   26.4848 H   0  0  0  0  0  0
  -25.8033  -30.8891   27.0226 H   0  0  0  0  0  0
  -26.2853  -29.6809   24.1115 H   0  0  0  0  0  0
  -27.4043  -29.7242   25.4555 H   0  0  0  0  0  0
  -27.8698  -30.4341   23.9258 H   0  0  0  0  0  0
  -27.2786  -33.3640   26.1982 H   0  0  0  0  0  0
  -28.3911  -32.6747   25.0256 H   0  0  0  0  0  0
  -28.0713  -31.8394   26.5388 H   0  0  0  0  0  0
  -28.2574  -38.0118   24.7583 H   0  0  0  0  0  0
  -28.1106  -36.2666   24.6195 H   0  0  0  0  0  0
  -27.2321  -37.1326   25.8865 H   0  0  0  0  0  0
  -20.9362  -29.8759   21.6954 H   0  0  0  0  0  0
  -26.0180  -38.2850   24.1472 H   0  0  0  0  0  0
  -31.4122  -21.9208   20.9327 H   0  0  0  0  0  0
  -27.8560  -19.5918   20.2867 H   0  0  0  0  0  0
  -31.5478  -15.2250   26.0262 H   0  0  0  0  0  0
  -31.5208  -16.7793   25.2103 H   0  0  0  0  0  0
  -32.7610  -15.5986   24.8110 H   0  0  0  0  0  0
  -29.1356  -14.8535   25.3695 H   0  0  0  0  0  0
  -28.6243  -14.9069   23.6969 H   0  0  0  0  0  0
  -29.0957  -16.3872   24.5128 H   0  0  0  0  0  0
  -31.0036  -13.1261   24.8384 H   0  0  0  0  0  0
  -32.1156  -13.4386   23.5145 H   0  0  0  0  0  0
  -30.4191  -13.1024   23.1918 H   0  0  0  0  0  0
  -28.3393  -22.7794   21.8943 H   0  0  0  0  0  0
  -27.3907  -22.3949   20.5122 H   0  0  0  0  0  0
  -28.7054  -23.8713   19.0716 H   0  0  0  0  0  0
  -29.9379  -24.0967   20.2834 H   0  0  0  0  0  0
  -29.7747  -17.5536   19.0935 H   0  0  0  0  0  0
  -31.1870  -17.4815   20.0890 H   0  0  0  0  0  0
  -28.5282  -16.2627   20.5280 H   0  0  0  0  0  0
  -29.0022  -17.1480   21.9245 H   0  0  0  0  0  0
  -31.0434  -16.9302   22.8042 H   0  0  0  0  0  0
  -32.1504  -15.6912   22.3822 H   0  0  0  0  0  0
  -28.3619  -25.2877   21.7752 H   0  0  0  0  0  0
  -27.0452  -24.9440   20.7265 H   0  0  0  0  0  0
  1 25  1  0  0  0
  1 30  2  0  0  0
  1 86  1  0  0  0
  2  3  1  0  0  0
  2 25  1  0  0  0
  2 87  1  0  0  0
  2 88  1  0  0  0
  3  4  1  0  0  0
  3 89  1  0  0  0
  3 90  1  0  0  0
  4  5  1  0  0  0
  4 91  1  0  0  0
  4 92  1  0  0  0
  5  6  1  0  0  0
  5 26  1  0  0  0
  5 93  1  0  0  0
  6 25  1  0  0  0
  6 94  1  0  0  0
  6 95  1  0  0  0
  7  8  2  0  0  0
  7 26  1  0  0  0
  7 29  1  0  0  0
  8  9  1  0  0  0
  8 22  1  0  0  0
  9 10  1  0  0  0
  9 27  2  0  0  0
 10 11  2  0  0  0
 10 15  1  0  0  0
 11 12  1  0  0  0
 11 96  1  0  0  0
 12 13  2  0  0  0
 12 97  1  0  0  0
 13 14  1  0  0  0
 13 31  1  0  0  0
 14 15  2  0  0  0
 14 98  1  0  0  0
 15 99  1  0  0  0
 16 17  2  0  0  0
 16 21  1  0  0  0
 16 31  1  0  0  0
 17 18  1  0  0  0
 17100  1  0  0  0
 18 19  2  0  0  0
 18101  1  0  0  0
 19 20  1  0  0  0
 19 24  1  0  0  0
 20 21  2  0  0  0
 20102  1  0  0  0
 21 23  1  0  0  0
 22 28  1  0  0  0
 22 32  2  0  0  0
 26 27  1  0  0  0
 28103  1  0  0  0
 28104  1  0  0  0
 29105  1  0  0  0
 29106  1  0  0  0
 33 34  1  0  0  0
 33 66  1  0  0  0
 33 70  2  0  0  0
 34 36  1  0  0  0
 34 59  1  0  0  0
 34107  1  0  0  0
 35 44  2  0  0  0
 35 45  1  0  0  0
 35 68  1  0  0  0
 36 56  1  0  0  0
 36108  1  0  0  0
 37 39  1  0  0  0
 37 47  1  0  0  0
 37 66  1  0  0  0
 37109  1  0  0  0
 38 43  2  0  0  0
 38 46  1  0  0  0
 38 47  1  0  0  0
 39 64  1  0  0  0
 39 67  2  0  0  0
 40 52  1  0  0  0
 40 53  2  0  0  0
 40 58  1  0  0  0
 41110  1  0  0  0
 41111  1  0  0  0
 41112  1  0  0  0
 41 48  1  0  0  0
 42 43  1  0  0  0
 42 66  1  0  0  0
 42113  1  0  0  0
 42114  1  0  0  0
 43 44  1  0  0  0
 44115  1  0  0  0
 45 46  2  0  0  0
 45116  1  0  0  0
 46117  1  0  0  0
 47118  1  0  0  0
 47119  1  0  0  0
 48 56  1  0  0  0
 48 65  1  0  0  0
 48120  1  0  0  0
 49 50  1  0  0  0
 49 53  1  0  0  0
 49 64  1  0  0  0
 49121  1  0  0  0
 50 51  1  0  0  0
 50122  1  0  0  0
 50123  1  0  0  0
 51 52  1  0  0  0
 51124  1  0  0  0
 51125  1  0  0  0
 52126  1  0  0  0
 52127  1  0  0  0
 53 54  1  0  0  0
 54 55  2  0  0  0
 54128  1  0  0  0
 55 57  1  0  0  0
 55129  1  0  0  0
 56 69  2  0  0  0
 57 58  2  0  0  0
 57130  1  0  0  0
 58131  1  0  0  0
 59 60  1  0  0  0
 59 61  1  0  0  0
 59 62  1  0  0  0
 60132  1  0  0  0
 60133  1  0  0  0
 60134  1  0  0  0
 61135  1  0  0  0
 61136  1  0  0  0
 61137  1  0  0  0
 62138  1  0  0  0
 62139  1  0  0  0
 62140  1  0  0  0
 63 65  1  0  0  0
 63141  1  0  0  0
 63142  1  0  0  0
 63143  1  0  0  0
 64144  1  0  0  0
 65145  1  0  0  0
 68 82  1  0  0  0
 71 73  1  0  0  0
 71 84  2  0  0  0
 71146  1  0  0  0
 72 73  2  0  0  0
 72 85  1  0  0  0
 72147  1  0  0  0
 73 77  1  0  0  0
 74148  1  0  0  0
 74149  1  0  0  0
 74150  1  0  0  0
 74 83  1  0  0  0
 75 83  1  0  0  0
 75151  1  0  0  0
 75152  1  0  0  0
 75153  1  0  0  0
 76 83  1  0  0  0
 76154  1  0  0  0
 76155  1  0  0  0
 76156  1  0  0  0
 77 78  1  0  0  0
 77157  1  0  0  0
 77158  1  0  0  0
 78 82  1  0  0  0
 78159  1  0  0  0
 78160  1  0  0  0
 79 80  1  0  0  0
 79 85  1  0  0  0
 79161  1  0  0  0
 79162  1  0  0  0
 80 86  1  0  0  0
 80163  1  0  0  0
 80164  1  0  0  0
 81 83  1  0  0  0
 81 86  1  0  0  0
 81165  1  0  0  0
 81166  1  0  0  0
 82167  1  0  0  0
 82168  1  0  0  0
 84 85  1  0  0  0
M  ISO  4   1 100  68 101  82 101  86 100
M  END
> <chiral flag>
0

> <version>
0

> <s_m_source_file>
/data/baiqing/PycharmProjects/Reinvent-master-3.2/result/LINK_invent/BTK/process_docking_weight1_custom_sum_contain_oxygen_bond_distance_aromatic_linkinvent_7_9_3/rearranged_h_0059.sdf

> <i_m_source_file_index>
70

> <r_mmod_Potential_Energy-OPLS-2005>
169.878845214844

> <r_mmod_Stretch_Energy-OPLS-2005>
63.1647300720215

> <r_mmod_Bend_Energy-OPLS-2005>
132.769393920898

> <r_mmod_Torsional_Energy-OPLS-2005>
332.190734863281

> <r_mmod_Improper_Torsional_Energy-OPLS-2005>
5.59099769592285

> <r_mmod_Van_der_Waal_Energy-OPLS-2005>
118.143028259277

> <r_mmod_Electrostatic_Energy-OPLS-2005>
-311.930023193359

> <r_mmod_Solvation_Energy-OPLS-2005>
-196.796417236328

> <b_mmod_Minimization_Converged-OPLS-2005>
0

> <r_mmod_RMS_Derivative-OPLS-2005>
2.59258604049683

$$$$
71
                    3D
 Structure written by MMmdl.
155163  0  0  1  0            999 V2000
  -30.7113  -14.5330   20.5381 C   0  0  0  0  0  0
  -30.4200  -12.3276   19.4573 C   0  0  0  0  0  0
  -29.5027  -12.4872   18.2261 C   0  0  0  0  0  0
  -28.0217  -12.3551   18.6275 C   0  0  0  0  0  0
  -27.6576  -13.2233   19.8642 C   0  0  2  0  0  0
  -28.6977  -13.0596   20.9967 C   0  0  0  0  0  0
  -25.2550  -13.8244   20.5692 C   0  0  0  0  0  0
  -24.1822  -13.0493   20.9179 C   0  0  0  0  0  0
  -24.6388  -11.6962   20.8717 C   0  0  0  0  0  0
  -23.9074  -10.4316   21.0366 C   0  0  0  0  0  0
  -24.3620   -9.4228   21.9129 C   0  0  0  0  0  0
  -23.6308   -8.2264   22.0720 C   0  0  0  0  0  0
  -22.4276   -8.0277   21.3527 C   0  0  0  0  0  0
  -21.9918   -9.0251   20.4630 C   0  0  0  0  0  0
  -22.7240  -10.2133   20.3015 C   0  0  0  0  0  0
  -21.6870   -6.0720   22.5259 C   0  0  0  0  0  0
  -21.4031   -6.5627   23.8187 C   0  0  0  0  0  0
  -21.3662   -5.6774   24.9163 C   0  0  0  0  0  0
  -21.6040   -4.3038   24.7205 C   0  0  0  0  0  0
  -21.8835   -3.8123   23.4332 C   0  0  0  0  0  0
  -21.9211   -4.6950   22.3384 C   0  0  0  0  0  0
  -22.7813  -13.5267   21.1817 C   0  0  0  0  0  0
  -22.1675   -4.2124   21.0966 F   0  0  0  0  0  0
  -21.5617   -3.4525   25.7724 F   0  0  0  0  0  0
  -30.0285  -13.3532   20.4434 N   0  0  0  0  0  0
  -26.3003  -12.9421   20.3320 N   0  0  0  0  0  0
  -25.9331  -11.6560   20.5754 N   0  0  0  0  0  0
  -22.0476  -12.8248   22.0377 N   0  0  0  0  0  0
  -25.4324  -15.1967   20.4089 N   0  0  0  0  0  0
  -31.8536  -14.6627   20.0886 O   0  0  0  0  0  0
  -21.6660   -6.8864   21.4215 O   0  0  0  0  0  0
  -22.3465  -14.5528   20.6623 O   0  0  0  0  0  0
  -24.6215  -31.8651   23.2126 C   0  0  0  0  0  0
  -25.9091  -32.4813   23.8400 C   0  0  1  0  0  0
  -27.2075  -27.3741   20.0953 C   0  0  0  0  0  0
  -25.5922  -33.8608   24.2311 N   0  0  0  0  0  0
  -23.4075  -30.4973   21.5566 C   0  0  2  0  0  0
  -24.8471  -28.9730   20.1066 C   0  0  0  0  0  0
  -22.7408  -29.4659   22.4982 C   0  0  0  0  0  0
  -18.0275  -28.1409   22.8498 C   0  0  0  0  0  0
  -24.1488  -36.7338   23.2622 C   0  0  0  0  0  0
  -25.9446  -30.8161   21.3723 C   0  0  0  0  0  0
  -26.0161  -29.4490   20.7133 C   0  0  0  0  0  0
  -27.1967  -28.6574   20.7086 C   0  0  0  0  0  0
  -26.0182  -26.9592   19.4376 C   0  0  0  0  0  0
  -24.8487  -27.7306   19.4625 C   0  0  0  0  0  0
  -23.6143  -29.8468   20.1654 C   0  0  0  0  0  0
  -25.4108  -36.3114   24.0318 C   0  0  1  0  0  0
  -20.5860  -28.3684   23.1331 C   0  0  2  0  0  0
  -20.6768  -26.9419   22.5423 C   0  0  0  0  0  0
  -19.5748  -26.6402   21.5228 C   0  0  0  0  0  0
  -18.1928  -26.7956   22.1633 C   0  0  0  0  0  0
  -19.1515  -28.8862   23.2921 C   0  0  0  0  0  0
  -18.9441  -30.1472   23.8928 C   0  0  0  0  0  0
  -17.6446  -30.6609   24.0575 C   0  0  0  0  0  0
  -25.9038  -34.9469   23.5117 C   0  0  0  0  0  0
  -16.5339  -29.9117   23.6332 C   0  0  0  0  0  0
  -16.7258  -28.6538   23.0331 C   0  0  0  0  0  0
  -26.4474  -31.6615   25.0751 C   0  0  0  0  0  0
  -25.3714  -31.3769   26.1489 C   0  0  0  0  0  0
  -27.0263  -30.3025   24.6179 C   0  0  0  0  0  0
  -27.6051  -32.4314   25.7525 C   0  0  0  0  0  0
  -27.5592  -37.1816   24.8445 C   0  0  0  0  0  0
  -21.4133  -29.3048   22.3716 N   0  0  0  0  0  0
  -26.4291  -37.3809   23.9408 N   0  0  0  0  0  0
  -24.6778  -31.0711   22.1067 N   0  0  0  0  0  0
  -23.4177  -28.8158   23.2994 O   0  0  0  0  0  0
  -28.3235  -26.5379   20.1753 O   0  0  0  0  0  0
  -26.5600  -34.8922   22.4669 O   0  0  0  0  0  0
  -23.5401  -32.1415   23.7508 O   0  0  0  0  0  0
  -30.3659  -23.9967   20.6679 C   0  0  0  0  0  0
  -29.0173  -24.0627   20.3900 C   0  0  0  0  0  0
  -29.5227  -21.9887   21.0715 C   0  0  0  0  0  0
  -31.9602  -22.2340   21.5585 C   0  0  0  0  0  0
  -28.1043  -25.1375   19.8177 C   0  0  0  0  0  0
  -29.5769  -18.1747   21.2786 C   0  0  0  0  0  0
  -30.4863  -17.0279   20.7148 C   0  0  0  0  0  0
  -29.9412  -19.6038   20.7361 C   0  0  0  0  0  0
  -30.6527  -22.7164   21.1073 N   0  0  0  0  0  0
  -28.5326  -22.7983   20.6904 N   0  3  0  0  0  0
  -30.0302  -15.6276   20.9566 N   0  0  0  0  0  0
  -29.3354  -20.6720   21.4992 O   0  0  0  0  0  0
  -31.4683  -12.4121   19.1580 H   0  0  0  0  0  0
  -30.3161  -11.3325   19.8942 H   0  0  0  0  0  0
  -29.7447  -11.7353   17.4742 H   0  0  0  0  0  0
  -29.6817  -13.4588   17.7663 H   0  0  0  0  0  0
  -27.8307  -11.3035   18.8414 H   0  0  0  0  0  0
  -27.3806  -12.6073   17.7819 H   0  0  0  0  0  0
  -27.6867  -14.2629   19.5309 H   0  0  0  0  0  0
  -28.6758  -12.0377   21.3758 H   0  0  0  0  0  0
  -28.4532  -13.7025   21.8432 H   0  0  0  0  0  0
  -25.2761   -9.5691   22.4704 H   0  0  0  0  0  0
  -23.9997   -7.4661   22.7450 H   0  0  0  0  0  0
  -21.0836   -8.8766   19.8957 H   0  0  0  0  0  0
  -22.3684  -10.9648   19.6116 H   0  0  0  0  0  0
  -21.2015   -7.6130   23.9686 H   0  0  0  0  0  0
  -21.1472   -6.0509   25.9069 H   0  0  0  0  0  0
  -22.0612   -2.7580   23.2853 H   0  0  0  0  0  0
  -22.4148  -11.9989   22.4840 H   0  0  0  0  0  0
  -21.1059  -13.1167   22.2526 H   0  0  0  0  0  0
  -24.6766  -15.8619   20.5272 H   0  0  0  0  0  0
  -26.2913  -15.6238   20.0857 H   0  0  0  0  0  0
  -26.7148  -32.5511   23.1144 H   0  0  0  0  0  0
  -25.0044  -33.9742   25.0444 H   0  0  0  0  0  0
  -22.7027  -31.3207   21.4278 H   0  0  0  0  0  0
  -23.3741  -35.9679   23.3261 H   0  0  0  0  0  0
  -24.3592  -36.8974   22.2041 H   0  0  0  0  0  0
  -23.7238  -37.6532   23.6656 H   0  0  0  0  0  0
  -26.0566  -31.5845   20.6054 H   0  0  0  0  0  0
  -26.8323  -30.8712   21.9904 H   0  0  0  0  0  0
  -28.0894  -29.0170   21.2013 H   0  0  0  0  0  0
  -25.9435  -26.0292   18.8931 H   0  0  0  0  0  0
  -23.9547  -27.3708   18.9699 H   0  0  0  0  0  0
  -23.7270  -30.6332   19.4194 H   0  0  0  0  0  0
  -22.7321  -29.2787   19.8634 H   0  0  0  0  0  0
  -25.1286  -36.1959   25.0811 H   0  0  0  0  0  0
  -20.9971  -28.3249   24.1446 H   0  0  0  0  0  0
  -20.5719  -26.2271   23.3598 H   0  0  0  0  0  0
  -21.6635  -26.7500   22.1173 H   0  0  0  0  0  0
  -19.6903  -25.6311   21.1263 H   0  0  0  0  0  0
  -19.6701  -27.3204   20.6754 H   0  0  0  0  0  0
  -17.4191  -26.6701   21.4041 H   0  0  0  0  0  0
  -18.0332  -26.0108   22.9038 H   0  0  0  0  0  0
  -19.7905  -30.7284   24.2305 H   0  0  0  0  0  0
  -17.4989  -31.6292   24.5163 H   0  0  0  0  0  0
  -15.5327  -30.3022   23.7648 H   0  0  0  0  0  0
  -15.8658  -28.0877   22.7012 H   0  0  0  0  0  0
  -24.5901  -30.7085   25.7863 H   0  0  0  0  0  0
  -24.8880  -32.2933   26.4883 H   0  0  0  0  0  0
  -25.8044  -30.9000   27.0289 H   0  0  0  0  0  0
  -26.2813  -29.6839   24.1161 H   0  0  0  0  0  0
  -27.3877  -29.7236   25.4691 H   0  0  0  0  0  0
  -27.8739  -30.4274   23.9433 H   0  0  0  0  0  0
  -27.2669  -33.3590   26.2160 H   0  0  0  0  0  0
  -28.3863  -32.6904   25.0366 H   0  0  0  0  0  0
  -28.0727  -31.8393   26.5400 H   0  0  0  0  0  0
  -28.2591  -38.0136   24.7530 H   0  0  0  0  0  0
  -28.1104  -36.2667   24.6220 H   0  0  0  0  0  0
  -27.2317  -37.1410   25.8847 H   0  0  0  0  0  0
  -20.9269  -29.8773   21.6953 H   0  0  0  0  0  0
  -26.0175  -38.2877   24.1446 H   0  0  0  0  0  0
  -31.1272  -24.7589   20.5866 H   0  0  0  0  0  0
  -32.4533  -23.0458   22.0964 H   0  0  0  0  0  0
  -32.5588  -21.9687   20.6837 H   0  0  0  0  0  0
  -31.8526  -21.3747   22.2236 H   0  0  0  0  0  0
  -27.1131  -24.8173   20.1362 H   0  0  0  0  0  0
  -28.1243  -25.0582   18.7292 H   0  0  0  0  0  0
  -29.6430  -18.1809   22.3708 H   0  0  0  0  0  0
  -28.5273  -17.9735   21.0455 H   0  0  0  0  0  0
  -31.4955  -17.1467   21.1219 H   0  0  0  0  0  0
  -30.5951  -17.1588   19.6350 H   0  0  0  0  0  0
  -29.6131  -19.6759   19.6956 H   0  0  0  0  0  0
  -31.0247  -19.7222   20.7263 H   0  0  0  0  0  0
  -27.5636  -22.5115   20.6228 H   0  0  0  0  0  0
  -29.1019  -15.4826   21.3270 H   0  0  0  0  0  0
  1 25  1  0  0  0
  1 30  2  0  0  0
  1 81  1  0  0  0
  2  3  1  0  0  0
  2 25  1  0  0  0
  2 83  1  0  0  0
  2 84  1  0  0  0
  3  4  1  0  0  0
  3 85  1  0  0  0
  3 86  1  0  0  0
  4  5  1  0  0  0
  4 87  1  0  0  0
  4 88  1  0  0  0
  5  6  1  0  0  0
  5 26  1  0  0  0
  5 89  1  0  0  0
  6 25  1  0  0  0
  6 90  1  0  0  0
  6 91  1  0  0  0
  7  8  2  0  0  0
  7 26  1  0  0  0
  7 29  1  0  0  0
  8  9  1  0  0  0
  8 22  1  0  0  0
  9 10  1  0  0  0
  9 27  2  0  0  0
 10 11  2  0  0  0
 10 15  1  0  0  0
 11 12  1  0  0  0
 11 92  1  0  0  0
 12 13  2  0  0  0
 12 93  1  0  0  0
 13 14  1  0  0  0
 13 31  1  0  0  0
 14 15  2  0  0  0
 14 94  1  0  0  0
 15 95  1  0  0  0
 16 17  2  0  0  0
 16 21  1  0  0  0
 16 31  1  0  0  0
 17 18  1  0  0  0
 17 96  1  0  0  0
 18 19  2  0  0  0
 18 97  1  0  0  0
 19 20  1  0  0  0
 19 24  1  0  0  0
 20 21  2  0  0  0
 20 98  1  0  0  0
 21 23  1  0  0  0
 22 28  1  0  0  0
 22 32  2  0  0  0
 26 27  1  0  0  0
 28 99  1  0  0  0
 28100  1  0  0  0
 29101  1  0  0  0
 29102  1  0  0  0
 33 34  1  0  0  0
 33 66  1  0  0  0
 33 70  2  0  0  0
 34 36  1  0  0  0
 34 59  1  0  0  0
 34103  1  0  0  0
 35 44  2  0  0  0
 35 45  1  0  0  0
 35 68  1  0  0  0
 36 56  1  0  0  0
 36104  1  0  0  0
 37 39  1  0  0  0
 37 47  1  0  0  0
 37 66  1  0  0  0
 37105  1  0  0  0
 38 43  2  0  0  0
 38 46  1  0  0  0
 38 47  1  0  0  0
 39 64  1  0  0  0
 39 67  2  0  0  0
 40 52  1  0  0  0
 40 53  2  0  0  0
 40 58  1  0  0  0
 41106  1  0  0  0
 41107  1  0  0  0
 41108  1  0  0  0
 41 48  1  0  0  0
 42 43  1  0  0  0
 42 66  1  0  0  0
 42109  1  0  0  0
 42110  1  0  0  0
 43 44  1  0  0  0
 44111  1  0  0  0
 45 46  2  0  0  0
 45112  1  0  0  0
 46113  1  0  0  0
 47114  1  0  0  0
 47115  1  0  0  0
 48 56  1  0  0  0
 48 65  1  0  0  0
 48116  1  0  0  0
 49 50  1  0  0  0
 49 53  1  0  0  0
 49 64  1  0  0  0
 49117  1  0  0  0
 50 51  1  0  0  0
 50118  1  0  0  0
 50119  1  0  0  0
 51 52  1  0  0  0
 51120  1  0  0  0
 51121  1  0  0  0
 52122  1  0  0  0
 52123  1  0  0  0
 53 54  1  0  0  0
 54 55  2  0  0  0
 54124  1  0  0  0
 55 57  1  0  0  0
 55125  1  0  0  0
 56 69  2  0  0  0
 57 58  2  0  0  0
 57126  1  0  0  0
 58127  1  0  0  0
 59 60  1  0  0  0
 59 61  1  0  0  0
 59 62  1  0  0  0
 60128  1  0  0  0
 60129  1  0  0  0
 60130  1  0  0  0
 61131  1  0  0  0
 61132  1  0  0  0
 61133  1  0  0  0
 62134  1  0  0  0
 62135  1  0  0  0
 62136  1  0  0  0
 63 65  1  0  0  0
 63137  1  0  0  0
 63138  1  0  0  0
 63139  1  0  0  0
 64140  1  0  0  0
 65141  1  0  0  0
 68 75  1  0  0  0
 71 72  2  0  0  0
 71 79  1  0  0  0
 71142  1  0  0  0
 72 75  1  0  0  0
 72 80  1  0  0  0
 73 79  1  0  0  0
 73 80  2  0  0  0
 73 82  1  0  0  0
 74 79  1  0  0  0
 74143  1  0  0  0
 74144  1  0  0  0
 74145  1  0  0  0
 75146  1  0  0  0
 75147  1  0  0  0
 76 77  1  0  0  0
 76 78  1  0  0  0
 76148  1  0  0  0
 76149  1  0  0  0
 77 81  1  0  0  0
 77150  1  0  0  0
 77151  1  0  0  0
 78 82  1  0  0  0
 78152  1  0  0  0
 78153  1  0  0  0
 80154  1  0  0  0
 81155  1  0  0  0
M  CHG  1  80   1
M  ISO  4   1 100  68 101  75 101  81 100
M  END
> <chiral flag>
0

> <version>
0

> <s_m_source_file>
/data/baiqing/PycharmProjects/Reinvent-master-3.2/result/LINK_invent/BTK/process_docking_weight1_custom_sum_contain_oxygen_bond_distance_aromatic_linkinvent_7_9_3/rearranged_h_0059.sdf

> <i_m_source_file_index>
71

> <r_mmod_Potential_Energy-OPLS-2005>
-137.838973999023

> <r_mmod_Stretch_Energy-OPLS-2005>
51.853084564209

> <r_mmod_Bend_Energy-OPLS-2005>
125.126365661621

> <r_mmod_Torsional_Energy-OPLS-2005>
226.893768310547

> <r_mmod_Improper_Torsional_Energy-OPLS-2005>
5.39777803421021

> <r_mmod_Van_der_Waal_Energy-OPLS-2005>
134.146621704102

> <r_mmod_Electrostatic_Energy-OPLS-2005>
-283.028961181641

> <r_mmod_Solvation_Energy-OPLS-2005>
-427.896362304688

> <b_mmod_Minimization_Converged-OPLS-2005>
0

> <r_mmod_RMS_Derivative-OPLS-2005>
5.56317806243896

$$$$
73
                    3D
 Structure written by MMmdl.
160168  0  0  1  0            999 V2000
  -30.5374  -15.0449   20.3310 C   0  0  0  0  0  0
  -30.4341  -12.6423   19.4799 C   0  0  0  0  0  0
  -29.5104  -12.5041   18.2481 C   0  0  0  0  0  0
  -28.0453  -12.2903   18.6757 C   0  0  0  0  0  0
  -27.6115  -13.2298   19.8308 C   0  0  2  0  0  0
  -28.6743  -13.3566   20.9449 C   0  0  0  0  0  0
  -25.2440  -13.8129   20.5818 C   0  0  0  0  0  0
  -24.1727  -13.0380   20.9267 C   0  0  0  0  0  0
  -24.6337  -11.6861   20.8811 C   0  0  0  0  0  0
  -23.9016  -10.4244   21.0441 C   0  0  0  0  0  0
  -24.3576   -9.4156   21.9212 C   0  0  0  0  0  0
  -23.6255   -8.2192   22.0768 C   0  0  0  0  0  0
  -22.4249   -8.0246   21.3543 C   0  0  0  0  0  0
  -21.9871   -9.0213   20.4649 C   0  0  0  0  0  0
  -22.7197  -10.2098   20.3072 C   0  0  0  0  0  0
  -21.6847   -6.0694   22.5266 C   0  0  0  0  0  0
  -21.4002   -6.5608   23.8191 C   0  0  0  0  0  0
  -21.3670   -5.6779   24.9166 C   0  0  0  0  0  0
  -21.6052   -4.3037   24.7229 C   0  0  0  0  0  0
  -21.8821   -3.8121   23.4350 C   0  0  0  0  0  0
  -21.9192   -4.6928   22.3399 C   0  0  0  0  0  0
  -22.7756  -13.5195   21.1900 C   0  0  0  0  0  0
  -22.1673   -4.2114   21.0976 F   0  0  0  0  0  0
  -21.5635   -3.4526   25.7742 F   0  0  0  0  0  0
  -29.9245  -13.7815   20.2981 N   0  0  0  0  0  0
  -26.2827  -12.9302   20.3373 N   0  0  0  0  0  0
  -25.9272  -11.6463   20.5847 N   0  0  0  0  0  0
  -22.0388  -12.8205   22.0453 N   0  0  0  0  0  0
  -25.4121  -15.1866   20.4282 N   0  0  0  0  0  0
  -31.7711  -15.0463   20.2657 O   0  0  0  0  0  0
  -21.6625   -6.8842   21.4228 O   0  0  0  0  0  0
  -22.3459  -14.5509   20.6748 O   0  0  0  0  0  0
  -24.6472  -31.8413   23.1860 C   0  0  0  0  0  0
  -25.9227  -32.4682   23.8266 C   0  0  1  0  0  0
  -27.2217  -27.1000   20.1472 C   0  0  0  0  0  0
  -25.5962  -33.8494   24.2176 N   0  0  0  0  0  0
  -23.4526  -30.4608   21.5329 C   0  0  2  0  0  0
  -24.9042  -28.8840   20.1102 C   0  0  0  0  0  0
  -22.7580  -29.4541   22.4843 C   0  0  0  0  0  0
  -18.0314  -28.1398   22.8473 C   0  0  0  0  0  0
  -24.1491  -36.7245   23.2640 C   0  0  0  0  0  0
  -26.0138  -30.7004   21.3943 C   0  0  0  0  0  0
  -26.0845  -29.3100   20.7330 C   0  0  0  0  0  0
  -27.2425  -28.4353   20.7336 C   0  0  0  0  0  0
  -26.0109  -26.7900   19.4832 C   0  0  0  0  0  0
  -24.8836  -27.6393   19.4690 C   0  0  0  0  0  0
  -23.6808  -29.7892   20.1532 C   0  0  0  0  0  0
  -25.4128  -36.3025   24.0310 C   0  0  1  0  0  0
  -20.5928  -28.3737   23.1223 C   0  0  2  0  0  0
  -20.6795  -26.9433   22.5408 C   0  0  0  0  0  0
  -19.5773  -26.6380   21.5216 C   0  0  0  0  0  0
  -18.1951  -26.7939   22.1615 C   0  0  0  0  0  0
  -19.1565  -28.8884   23.2846 C   0  0  0  0  0  0
  -18.9478  -30.1479   23.8877 C   0  0  0  0  0  0
  -17.6472  -30.6593   24.0554 C   0  0  0  0  0  0
  -25.9083  -34.9399   23.5055 C   0  0  0  0  0  0
  -16.5368  -29.9079   23.6335 C   0  0  0  0  0  0
  -16.7298  -28.6495   23.0364 C   0  0  0  0  0  0
  -26.4531  -31.6570   25.0729 C   0  0  0  0  0  0
  -25.3683  -31.3782   26.1401 C   0  0  0  0  0  0
  -27.0403  -30.2948   24.6365 C   0  0  0  0  0  0
  -27.6059  -32.4336   25.7518 C   0  0  0  0  0  0
  -27.5581  -37.1776   24.8455 C   0  0  0  0  0  0
  -21.4266  -29.3061   22.3586 N   0  0  0  0  0  0
  -26.4289  -37.3740   23.9403 N   0  0  0  0  0  0
  -24.7244  -31.0232   22.0914 N   0  0  0  0  0  0
  -23.4207  -28.8091   23.3006 O   0  0  0  0  0  0
  -28.2571  -26.0780   20.2191 O   0  0  0  0  0  0
  -26.5677  -34.8900   22.4639 O   0  0  0  0  0  0
  -23.5583  -32.1317   23.7049 O   0  0  0  0  0  0
  -30.1861  -22.9396   20.3036 C   0  0  0  0  0  0
  -28.8270  -23.1873   20.2214 C   0  0  0  0  0  0
  -29.3146  -20.8108   20.3222 C   0  0  0  0  0  0
  -32.8094  -21.7676   21.1965 C   0  0  0  0  0  0
  -32.2850  -20.6069   18.9940 C   0  0  0  0  0  0
  -28.8873  -16.3305   19.0366 C   0  0  0  0  0  0
  -27.9064  -24.5550   20.0230 C   0  0  0  0  0  0
  -29.1020  -19.1525   20.2633 C   0  0  0  0  0  0
  -30.1667  -17.8191   20.4752 C   0  0  0  0  0  0
  -31.7850  -20.9286   20.4125 C   0  0  0  0  0  0
  -30.4478  -21.5550   20.3719 N   0  0  0  0  0  0
  -28.3561  -21.8250   20.2397 N   0  3  0  0  0  0
  -29.7941  -16.2849   20.1891 N   0  0  0  0  0  0
  -31.4610  -12.8107   19.1522 H   0  0  0  0  0  0
  -30.4482  -11.7198   20.0629 H   0  0  0  0  0  0
  -29.8360  -11.6729   17.6198 H   0  0  0  0  0  0
  -29.5892  -13.3963   17.6268 H   0  0  0  0  0  0
  -27.9442  -11.2509   18.9898 H   0  0  0  0  0  0
  -27.3805  -12.4161   17.8201 H   0  0  0  0  0  0
  -27.5027  -14.1983   19.3652 H   0  0  0  0  0  0
  -28.8044  -12.4184   21.4842 H   0  0  0  0  0  0
  -28.3675  -14.0981   21.6837 H   0  0  0  0  0  0
  -25.2714   -9.5628   22.4808 H   0  0  0  0  0  0
  -23.9955   -7.4576   22.7487 H   0  0  0  0  0  0
  -21.0802   -8.8705   19.8955 H   0  0  0  0  0  0
  -22.3637  -10.9633   19.6187 H   0  0  0  0  0  0
  -21.1984   -7.6117   23.9672 H   0  0  0  0  0  0
  -21.1512   -6.0525   25.9070 H   0  0  0  0  0  0
  -22.0603   -2.7581   23.2856 H   0  0  0  0  0  0
  -22.4020  -11.9892   22.4876 H   0  0  0  0  0  0
  -21.0999  -13.1237   22.2646 H   0  0  0  0  0  0
  -24.6480  -15.8402   20.5582 H   0  0  0  0  0  0
  -26.2766  -15.6321   20.1522 H   0  0  0  0  0  0
  -26.7290  -32.5268   23.0993 H   0  0  0  0  0  0
  -25.0084  -33.9605   25.0307 H   0  0  0  0  0  0
  -22.7582  -31.2896   21.3772 H   0  0  0  0  0  0
  -23.3770  -35.9558   23.3270 H   0  0  0  0  0  0
  -24.3578  -36.8916   22.2059 H   0  0  0  0  0  0
  -23.7232  -37.6420   23.6711 H   0  0  0  0  0  0
  -26.1804  -31.4526   20.6217 H   0  0  0  0  0  0
  -26.8797  -30.7483   22.0436 H   0  0  0  0  0  0
  -28.1381  -28.7563   21.2469 H   0  0  0  0  0  0
  -25.8885  -25.8429   18.9824 H   0  0  0  0  0  0
  -23.9847  -27.3108   18.9646 H   0  0  0  0  0  0
  -23.8136  -30.5634   19.3976 H   0  0  0  0  0  0
  -22.7947  -29.2310   19.8438 H   0  0  0  0  0  0
  -25.1321  -36.1843   25.0804 H   0  0  0  0  0  0
  -21.0034  -28.3342   24.1340 H   0  0  0  0  0  0
  -20.5681  -26.2355   23.3637 H   0  0  0  0  0  0
  -21.6661  -26.7423   22.1217 H   0  0  0  0  0  0
  -19.6931  -25.6278   21.1275 H   0  0  0  0  0  0
  -19.6717  -27.3162   20.6725 H   0  0  0  0  0  0
  -17.4227  -26.6703   21.4012 H   0  0  0  0  0  0
  -18.0337  -26.0085   22.9007 H   0  0  0  0  0  0
  -19.7953  -30.7300   24.2241 H   0  0  0  0  0  0
  -17.5022  -31.6272   24.5157 H   0  0  0  0  0  0
  -15.5362  -30.2968   23.7671 H   0  0  0  0  0  0
  -15.8706  -28.0797   22.7104 H   0  0  0  0  0  0
  -24.5878  -30.7125   25.7696 H   0  0  0  0  0  0
  -24.8856  -32.2975   26.4725 H   0  0  0  0  0  0
  -25.7924  -30.9003   27.0241 H   0  0  0  0  0  0
  -26.3038  -29.6661   24.1348 H   0  0  0  0  0  0
  -27.3951  -29.7270   25.4980 H   0  0  0  0  0  0
  -27.8981  -30.4158   23.9748 H   0  0  0  0  0  0
  -27.2662  -33.3665   26.2034 H   0  0  0  0  0  0
  -28.3910  -32.6848   25.0371 H   0  0  0  0  0  0
  -28.0696  -31.8501   26.5485 H   0  0  0  0  0  0
  -28.2569  -38.0098   24.7522 H   0  0  0  0  0  0
  -28.1108  -36.2626   24.6257 H   0  0  0  0  0  0
  -27.2302  -37.1391   25.8857 H   0  0  0  0  0  0
  -20.9480  -29.8747   21.6735 H   0  0  0  0  0  0
  -26.0149  -38.2804   24.1408 H   0  0  0  0  0  0
  -30.9914  -23.6597   20.2973 H   0  0  0  0  0  0
  -33.7214  -21.1966   21.3782 H   0  0  0  0  0  0
  -32.4171  -22.0656   22.1696 H   0  0  0  0  0  0
  -33.0967  -22.6685   20.6546 H   0  0  0  0  0  0
  -33.2433  -20.0858   19.0204 H   0  0  0  0  0  0
  -32.4184  -21.5129   18.4029 H   0  0  0  0  0  0
  -31.5831  -19.9669   18.4582 H   0  0  0  0  0  0
  -27.8671  -16.5413   19.3557 H   0  0  0  0  0  0
  -28.8973  -15.4286   18.4282 H   0  0  0  0  0  0
  -29.1847  -17.1049   18.3293 H   0  0  0  0  0  0
  -27.0141  -24.3886   20.6271 H   0  0  0  0  0  0
  -27.5660  -24.4825   18.9898 H   0  0  0  0  0  0
  -28.6414  -19.0375   19.2841 H   0  0  0  0  0  0
  -28.2887  -18.9899   20.9696 H   0  0  0  0  0  0
  -31.0435  -18.0075   19.8558 H   0  0  0  0  0  0
  -30.5353  -17.8528   21.5014 H   0  0  0  0  0  0
  -31.6778  -19.9968   20.9649 H   0  0  0  0  0  0
  -27.3688  -21.6090   20.1674 H   0  0  0  0  0  0
  1 25  1  0  0  0
  1 30  2  0  0  0
  1 83  1  0  0  0
  2  3  1  0  0  0
  2 25  1  0  0  0
  2 84  1  0  0  0
  2 85  1  0  0  0
  3  4  1  0  0  0
  3 86  1  0  0  0
  3 87  1  0  0  0
  4  5  1  0  0  0
  4 88  1  0  0  0
  4 89  1  0  0  0
  5  6  1  0  0  0
  5 26  1  0  0  0
  5 90  1  0  0  0
  6 25  1  0  0  0
  6 91  1  0  0  0
  6 92  1  0  0  0
  7  8  2  0  0  0
  7 26  1  0  0  0
  7 29  1  0  0  0
  8  9  1  0  0  0
  8 22  1  0  0  0
  9 10  1  0  0  0
  9 27  2  0  0  0
 10 11  2  0  0  0
 10 15  1  0  0  0
 11 12  1  0  0  0
 11 93  1  0  0  0
 12 13  2  0  0  0
 12 94  1  0  0  0
 13 14  1  0  0  0
 13 31  1  0  0  0
 14 15  2  0  0  0
 14 95  1  0  0  0
 15 96  1  0  0  0
 16 17  2  0  0  0
 16 21  1  0  0  0
 16 31  1  0  0  0
 17 18  1  0  0  0
 17 97  1  0  0  0
 18 19  2  0  0  0
 18 98  1  0  0  0
 19 20  1  0  0  0
 19 24  1  0  0  0
 20 21  2  0  0  0
 20 99  1  0  0  0
 21 23  1  0  0  0
 22 28  1  0  0  0
 22 32  2  0  0  0
 26 27  1  0  0  0
 28100  1  0  0  0
 28101  1  0  0  0
 29102  1  0  0  0
 29103  1  0  0  0
 33 34  1  0  0  0
 33 66  1  0  0  0
 33 70  2  0  0  0
 34 36  1  0  0  0
 34 59  1  0  0  0
 34104  1  0  0  0
 35 44  2  0  0  0
 35 45  1  0  0  0
 35 68  1  0  0  0
 36 56  1  0  0  0
 36105  1  0  0  0
 37 39  1  0  0  0
 37 47  1  0  0  0
 37 66  1  0  0  0
 37106  1  0  0  0
 38 43  2  0  0  0
 38 46  1  0  0  0
 38 47  1  0  0  0
 39 64  1  0  0  0
 39 67  2  0  0  0
 40 52  1  0  0  0
 40 53  2  0  0  0
 40 58  1  0  0  0
 41107  1  0  0  0
 41108  1  0  0  0
 41109  1  0  0  0
 41 48  1  0  0  0
 42 43  1  0  0  0
 42 66  1  0  0  0
 42110  1  0  0  0
 42111  1  0  0  0
 43 44  1  0  0  0
 44112  1  0  0  0
 45 46  2  0  0  0
 45113  1  0  0  0
 46114  1  0  0  0
 47115  1  0  0  0
 47116  1  0  0  0
 48 56  1  0  0  0
 48 65  1  0  0  0
 48117  1  0  0  0
 49 50  1  0  0  0
 49 53  1  0  0  0
 49 64  1  0  0  0
 49118  1  0  0  0
 50 51  1  0  0  0
 50119  1  0  0  0
 50120  1  0  0  0
 51 52  1  0  0  0
 51121  1  0  0  0
 51122  1  0  0  0
 52123  1  0  0  0
 52124  1  0  0  0
 53 54  1  0  0  0
 54 55  2  0  0  0
 54125  1  0  0  0
 55 57  1  0  0  0
 55126  1  0  0  0
 56 69  2  0  0  0
 57 58  2  0  0  0
 57127  1  0  0  0
 58128  1  0  0  0
 59 60  1  0  0  0
 59 61  1  0  0  0
 59 62  1  0  0  0
 60129  1  0  0  0
 60130  1  0  0  0
 60131  1  0  0  0
 61132  1  0  0  0
 61133  1  0  0  0
 61134  1  0  0  0
 62135  1  0  0  0
 62136  1  0  0  0
 62137  1  0  0  0
 63 65  1  0  0  0
 63138  1  0  0  0
 63139  1  0  0  0
 63140  1  0  0  0
 64141  1  0  0  0
 65142  1  0  0  0
 68 77  1  0  0  0
 71 72  2  0  0  0
 71 81  1  0  0  0
 71143  1  0  0  0
 72 77  1  0  0  0
 72 82  1  0  0  0
 73 78  1  0  0  0
 73 81  1  0  0  0
 73 82  2  0  0  0
 74144  1  0  0  0
 74145  1  0  0  0
 74146  1  0  0  0
 74 80  1  0  0  0
 75 80  1  0  0  0
 75147  1  0  0  0
 75148  1  0  0  0
 75149  1  0  0  0
 76 83  1  0  0  0
 76150  1  0  0  0
 76151  1  0  0  0
 76152  1  0  0  0
 77153  1  0  0  0
 77154  1  0  0  0
 78 79  1  0  0  0
 78155  1  0  0  0
 78156  1  0  0  0
 79 83  1  0  0  0
 79157  1  0  0  0
 79158  1  0  0  0
 80 81  1  0  0  0
 80159  1  0  0  0
 82160  1  0  0  0
M  CHG  1  82   1
M  ISO  4   1 100  68 101  77 101  83 100
M  END
> <chiral flag>
0

> <version>
0

> <s_m_source_file>
/data/baiqing/PycharmProjects/Reinvent-master-3.2/result/LINK_invent/BTK/process_docking_weight1_custom_sum_contain_oxygen_bond_distance_aromatic_linkinvent_7_9_3/rearranged_h_0059.sdf

> <i_m_source_file_index>
72

> <r_mmod_Potential_Energy-OPLS-2005>
730.489135742188

> <r_mmod_Stretch_Energy-OPLS-2005>
313.224029541016

> <r_mmod_Bend_Energy-OPLS-2005>
289.981903076172

> <r_mmod_Torsional_Energy-OPLS-2005>
324.656707763672

> <r_mmod_Improper_Torsional_Energy-OPLS-2005>
8.52447509765625

> <r_mmod_Van_der_Waal_Energy-OPLS-2005>
119.788597106934

> <r_mmod_Electrostatic_Energy-OPLS-2005>
-163.115982055664

> <r_mmod_Solvation_Energy-OPLS-2005>
-418.754272460938

> <b_mmod_Minimization_Converged-OPLS-2005>
0

> <r_mmod_RMS_Derivative-OPLS-2005>
2.05338597297668

$$$$
74
                    3D
 Structure written by MMmdl.
161169  0  0  1  0            999 V2000
  -30.6129  -14.7734   20.4182 C   0  0  0  0  0  0
  -30.4345  -12.4683   19.4630 C   0  0  0  0  0  0
  -29.5026  -12.4652   18.2313 C   0  0  0  0  0  0
  -28.0309  -12.3011   18.6572 C   0  0  0  0  0  0
  -27.6379  -13.2152   19.8483 C   0  0  2  0  0  0
  -28.6909  -13.1972   20.9733 C   0  0  0  0  0  0
  -25.2528  -13.8161   20.5739 C   0  0  0  0  0  0
  -24.1793  -13.0428   20.9203 C   0  0  0  0  0  0
  -24.6360  -11.6897   20.8753 C   0  0  0  0  0  0
  -23.9038  -10.4285   21.0410 C   0  0  0  0  0  0
  -24.3602   -9.4205   21.9182 C   0  0  0  0  0  0
  -23.6286   -8.2237   22.0747 C   0  0  0  0  0  0
  -22.4267   -8.0275   21.3542 C   0  0  0  0  0  0
  -21.9897   -9.0242   20.4641 C   0  0  0  0  0  0
  -22.7214  -10.2127   20.3056 C   0  0  0  0  0  0
  -21.6852   -6.0728   22.5275 C   0  0  0  0  0  0
  -21.4016   -6.5631   23.8210 C   0  0  0  0  0  0
  -21.3659   -5.6784   24.9169 C   0  0  0  0  0  0
  -21.6047   -4.3049   24.7221 C   0  0  0  0  0  0
  -21.8823   -3.8141   23.4343 C   0  0  0  0  0  0
  -21.9194   -4.6955   22.3399 C   0  0  0  0  0  0
  -22.7822  -13.5226   21.1853 C   0  0  0  0  0  0
  -22.1662   -4.2141   21.0976 F   0  0  0  0  0  0
  -21.5628   -3.4535   25.7733 F   0  0  0  0  0  0
  -29.9754  -13.5522   20.3606 N   0  0  0  0  0  0
  -26.2932  -12.9329   20.3339 N   0  0  0  0  0  0
  -25.9291  -11.6492   20.5808 N   0  0  0  0  0  0
  -22.0464  -12.8225   22.0411 N   0  0  0  0  0  0
  -25.4268  -15.1887   20.4202 N   0  0  0  0  0  0
  -31.8355  -14.8231   20.2495 O   0  0  0  0  0  0
  -21.6641   -6.8867   21.4234 O   0  0  0  0  0  0
  -22.3515  -14.5527   20.6686 O   0  0  0  0  0  0
  -24.6342  -31.8550   23.1975 C   0  0  0  0  0  0
  -25.9158  -32.4758   23.8327 C   0  0  1  0  0  0
  -27.2207  -27.2484   20.1397 C   0  0  0  0  0  0
  -25.5942  -33.8562   24.2247 N   0  0  0  0  0  0
  -23.4315  -30.4790   21.5401 C   0  0  2  0  0  0
  -24.8792  -28.9263   20.1076 C   0  0  0  0  0  0
  -22.7523  -29.4609   22.4887 C   0  0  0  0  0  0
  -18.0300  -28.1408   22.8476 C   0  0  0  0  0  0
  -24.1485  -36.7284   23.2641 C   0  0  0  0  0  0
  -25.9796  -30.7643   21.3795 C   0  0  0  0  0  0
  -26.0518  -29.3871   20.7199 C   0  0  0  0  0  0
  -27.2251  -28.5633   20.7215 C   0  0  0  0  0  0
  -26.0232  -26.8627   19.4913 C   0  0  0  0  0  0
  -24.8720  -27.6725   19.4802 C   0  0  0  0  0  0
  -23.6512  -29.8160   20.1549 C   0  0  0  0  0  0
  -25.4112  -36.3075   24.0331 C   0  0  1  0  0  0
  -20.5906  -28.3727   23.1247 C   0  0  2  0  0  0
  -20.6790  -26.9442   22.5400 C   0  0  0  0  0  0
  -19.5760  -26.6400   21.5211 C   0  0  0  0  0  0
  -18.1940  -26.7951   22.1623 C   0  0  0  0  0  0
  -19.1557  -28.8883   23.2857 C   0  0  0  0  0  0
  -18.9478  -30.1476   23.8888 C   0  0  0  0  0  0
  -17.6479  -30.6604   24.0571 C   0  0  0  0  0  0
  -25.9062  -34.9448   23.5094 C   0  0  0  0  0  0
  -16.5365  -29.9110   23.6334 C   0  0  0  0  0  0
  -16.7286  -28.6530   23.0347 C   0  0  0  0  0  0
  -26.4506  -31.6597   25.0731 C   0  0  0  0  0  0
  -25.3701  -31.3768   26.1436 C   0  0  0  0  0  0
  -27.0360  -30.3010   24.6241 C   0  0  0  0  0  0
  -27.6055  -32.4350   25.7495 C   0  0  0  0  0  0
  -27.5579  -37.1796   24.8471 C   0  0  0  0  0  0
  -21.4229  -29.3067   22.3631 N   0  0  0  0  0  0
  -26.4292  -37.3774   23.9414 N   0  0  0  0  0  0
  -24.7010  -31.0507   22.0952 N   0  0  0  0  0  0
  -23.4210  -28.8148   23.2997 O   0  0  0  0  0  0
  -28.3038  -26.3336   20.2248 O   0  0  0  0  0  0
  -26.5641  -34.8927   22.4666 O   0  0  0  0  0  0
  -23.5487  -32.1380   23.7254 O   0  0  0  0  0  0
  -29.8622  -18.6712   20.6777 C   0  0  0  0  0  0
  -29.3236  -20.7783   20.3980 C   0  0  0  0  0  0
  -28.3284  -17.4241   16.9833 C   0  0  0  0  0  0
  -31.5240  -21.4922   19.3694 C   0  0  0  0  0  0
  -29.8908  -17.1560   21.1535 C   0  0  0  0  0  0
  -28.5124  -22.1237   20.1684 C   0  0  0  0  0  0
  -28.3450  -16.8656   18.4088 C   0  0  0  0  0  0
  -29.0180  -23.6390   20.4845 C   0  0  0  0  0  0
  -29.7453  -16.3511   18.8083 C   0  0  0  0  0  0
  -28.0202  -24.8569   20.0761 C   0  0  0  0  0  0
  -28.8307  -19.5956   20.8729 N   0  0  0  0  0  0
  -30.9467  -19.2575   20.1654 N   0  0  0  0  0  0
  -30.5849  -20.5715   19.9764 N   0  0  0  0  0  0
  -29.8570  -15.9358   20.2226 N   0  0  0  0  0  0
  -31.4688  -12.6080   19.1444 H   0  0  0  0  0  0
  -30.4045  -11.5069   19.9782 H   0  0  0  0  0  0
  -29.7815  -11.6591   17.5520 H   0  0  0  0  0  0
  -29.6200  -13.3874   17.6638 H   0  0  0  0  0  0
  -27.8887  -11.2560   18.9357 H   0  0  0  0  0  0
  -27.3690  -12.4790   17.8086 H   0  0  0  0  0  0
  -27.6194  -14.2224   19.4513 H   0  0  0  0  0  0
  -28.7442  -12.2159   21.4464 H   0  0  0  0  0  0
  -28.4289  -13.9119   21.7553 H   0  0  0  0  0  0
  -25.2744   -9.5688   22.4758 H   0  0  0  0  0  0
  -23.9993   -7.4632   22.7471 H   0  0  0  0  0  0
  -21.0825   -8.8754   19.8954 H   0  0  0  0  0  0
  -22.3660  -10.9664   19.6173 H   0  0  0  0  0  0
  -21.2011   -7.6141   23.9706 H   0  0  0  0  0  0
  -21.1477   -6.0515   25.9067 H   0  0  0  0  0  0
  -22.0605   -2.7604   23.2844 H   0  0  0  0  0  0
  -22.4077  -11.9887   22.4810 H   0  0  0  0  0  0
  -21.1082  -13.1257   22.2613 H   0  0  0  0  0  0
  -24.6663  -15.8475   20.5474 H   0  0  0  0  0  0
  -26.2932  -15.6314   20.1439 H   0  0  0  0  0  0
  -26.7227  -32.5396   23.1067 H   0  0  0  0  0  0
  -25.0078  -33.9694   25.0387 H   0  0  0  0  0  0
  -22.7288  -31.3020   21.3942 H   0  0  0  0  0  0
  -23.3759  -35.9607   23.3310 H   0  0  0  0  0  0
  -24.3567  -36.8900   22.2054 H   0  0  0  0  0  0
  -23.7229  -37.6482   23.6659 H   0  0  0  0  0  0
  -26.1244  -31.5240   20.6099 H   0  0  0  0  0  0
  -26.8554  -30.8094   22.0156 H   0  0  0  0  0  0
  -28.1200  -28.9105   21.2188 H   0  0  0  0  0  0
  -25.9387  -25.9039   19.0025 H   0  0  0  0  0  0
  -23.9761  -27.3138   18.9914 H   0  0  0  0  0  0
  -23.7801  -30.5960   19.4036 H   0  0  0  0  0  0
  -22.7676  -29.2555   19.8453 H   0  0  0  0  0  0
  -25.1289  -36.1925   25.0823 H   0  0  0  0  0  0
  -20.9996  -28.3326   24.1368 H   0  0  0  0  0  0
  -20.5695  -26.2349   23.3615 H   0  0  0  0  0  0
  -21.6653  -26.7469   22.1178 H   0  0  0  0  0  0
  -19.6923  -25.6312   21.1247 H   0  0  0  0  0  0
  -19.6690  -27.3204   20.6735 H   0  0  0  0  0  0
  -17.4203  -26.6697   21.4030 H   0  0  0  0  0  0
  -18.0337  -26.0099   22.9026 H   0  0  0  0  0  0
  -19.7954  -30.7292   24.2252 H   0  0  0  0  0  0
  -17.5038  -31.6272   24.5194 H   0  0  0  0  0  0
  -15.5369  -30.3013   23.7667 H   0  0  0  0  0  0
  -15.8684  -28.0854   22.7063 H   0  0  0  0  0  0
  -24.5873  -30.7129   25.7753 H   0  0  0  0  0  0
  -24.8891  -32.2945   26.4834 H   0  0  0  0  0  0
  -25.7984  -30.8952   27.0235 H   0  0  0  0  0  0
  -26.2958  -29.6754   24.1241 H   0  0  0  0  0  0
  -27.4012  -29.7286   25.4779 H   0  0  0  0  0  0
  -27.8843  -30.4287   23.9513 H   0  0  0  0  0  0
  -27.2663  -33.3661   26.2051 H   0  0  0  0  0  0
  -28.3860  -32.6910   25.0316 H   0  0  0  0  0  0
  -28.0729  -31.8496   26.5422 H   0  0  0  0  0  0
  -28.2605  -38.0088   24.7516 H   0  0  0  0  0  0
  -28.1067  -36.2622   24.6294 H   0  0  0  0  0  0
  -27.2298  -37.1442   25.8875 H   0  0  0  0  0  0
  -20.9437  -29.8799   21.6830 H   0  0  0  0  0  0
  -26.0180  -38.2852   24.1410 H   0  0  0  0  0  0
  -27.3294  -17.7682   16.7135 H   0  0  0  0  0  0
  -28.6269  -16.6665   16.2575 H   0  0  0  0  0  0
  -29.0072  -18.2717   16.8835 H   0  0  0  0  0  0
  -32.3820  -20.9570   18.9609 H   0  0  0  0  0  0
  -31.8753  -22.2017   20.1195 H   0  0  0  0  0  0
  -31.0356  -22.0373   18.5622 H   0  0  0  0  0  0
  -29.0504  -17.0251   21.8346 H   0  0  0  0  0  0
  -30.7705  -17.0489   21.7900 H   0  0  0  0  0  0
  -27.5659  -21.9968   20.6938 H   0  0  0  0  0  0
  -28.2387  -22.1110   19.1136 H   0  0  0  0  0  0
  -27.6036  -16.0750   18.4691 H   0  0  0  0  0  0
  -27.9979  -17.6413   19.0883 H   0  0  0  0  0  0
  -29.9679  -23.8028   19.9787 H   0  0  0  0  0  0
  -29.2347  -23.7113   21.5508 H   0  0  0  0  0  0
  -30.5080  -17.0999   18.5932 H   0  0  0  0  0  0
  -29.9933  -15.5256   18.1404 H   0  0  0  0  0  0
  -27.0960  -24.6573   20.6201 H   0  0  0  0  0  0
  -27.7855  -24.7001   19.0234 H   0  0  0  0  0  0
  1 25  1  0  0  0
  1 30  2  0  0  0
  1 84  1  0  0  0
  2  3  1  0  0  0
  2 25  1  0  0  0
  2 85  1  0  0  0
  2 86  1  0  0  0
  3  4  1  0  0  0
  3 87  1  0  0  0
  3 88  1  0  0  0
  4  5  1  0  0  0
  4 89  1  0  0  0
  4 90  1  0  0  0
  5  6  1  0  0  0
  5 26  1  0  0  0
  5 91  1  0  0  0
  6 25  1  0  0  0
  6 92  1  0  0  0
  6 93  1  0  0  0
  7  8  2  0  0  0
  7 26  1  0  0  0
  7 29  1  0  0  0
  8  9  1  0  0  0
  8 22  1  0  0  0
  9 10  1  0  0  0
  9 27  2  0  0  0
 10 11  2  0  0  0
 10 15  1  0  0  0
 11 12  1  0  0  0
 11 94  1  0  0  0
 12 13  2  0  0  0
 12 95  1  0  0  0
 13 14  1  0  0  0
 13 31  1  0  0  0
 14 15  2  0  0  0
 14 96  1  0  0  0
 15 97  1  0  0  0
 16 17  2  0  0  0
 16 21  1  0  0  0
 16 31  1  0  0  0
 17 18  1  0  0  0
 17 98  1  0  0  0
 18 19  2  0  0  0
 18 99  1  0  0  0
 19 20  1  0  0  0
 19 24  1  0  0  0
 20 21  2  0  0  0
 20100  1  0  0  0
 21 23  1  0  0  0
 22 28  1  0  0  0
 22 32  2  0  0  0
 26 27  1  0  0  0
 28101  1  0  0  0
 28102  1  0  0  0
 29103  1  0  0  0
 29104  1  0  0  0
 33 34  1  0  0  0
 33 66  1  0  0  0
 33 70  2  0  0  0
 34 36  1  0  0  0
 34 59  1  0  0  0
 34105  1  0  0  0
 35 44  2  0  0  0
 35 45  1  0  0  0
 35 68  1  0  0  0
 36 56  1  0  0  0
 36106  1  0  0  0
 37 39  1  0  0  0
 37 47  1  0  0  0
 37 66  1  0  0  0
 37107  1  0  0  0
 38 43  2  0  0  0
 38 46  1  0  0  0
 38 47  1  0  0  0
 39 64  1  0  0  0
 39 67  2  0  0  0
 40 52  1  0  0  0
 40 53  2  0  0  0
 40 58  1  0  0  0
 41108  1  0  0  0
 41109  1  0  0  0
 41110  1  0  0  0
 41 48  1  0  0  0
 42 43  1  0  0  0
 42 66  1  0  0  0
 42111  1  0  0  0
 42112  1  0  0  0
 43 44  1  0  0  0
 44113  1  0  0  0
 45 46  2  0  0  0
 45114  1  0  0  0
 46115  1  0  0  0
 47116  1  0  0  0
 47117  1  0  0  0
 48 56  1  0  0  0
 48 65  1  0  0  0
 48118  1  0  0  0
 49 50  1  0  0  0
 49 53  1  0  0  0
 49 64  1  0  0  0
 49119  1  0  0  0
 50 51  1  0  0  0
 50120  1  0  0  0
 50121  1  0  0  0
 51 52  1  0  0  0
 51122  1  0  0  0
 51123  1  0  0  0
 52124  1  0  0  0
 52125  1  0  0  0
 53 54  1  0  0  0
 54 55  2  0  0  0
 54126  1  0  0  0
 55 57  1  0  0  0
 55127  1  0  0  0
 56 69  2  0  0  0
 57 58  2  0  0  0
 57128  1  0  0  0
 58129  1  0  0  0
 59 60  1  0  0  0
 59 61  1  0  0  0
 59 62  1  0  0  0
 60130  1  0  0  0
 60131  1  0  0  0
 60132  1  0  0  0
 61133  1  0  0  0
 61134  1  0  0  0
 61135  1  0  0  0
 62136  1  0  0  0
 62137  1  0  0  0
 62138  1  0  0  0
 63 65  1  0  0  0
 63139  1  0  0  0
 63140  1  0  0  0
 63141  1  0  0  0
 64142  1  0  0  0
 65143  1  0  0  0
 68 80  1  0  0  0
 71 75  1  0  0  0
 71 81  1  0  0  0
 71 82  2  0  0  0
 72 76  1  0  0  0
 72 81  2  0  0  0
 72 83  1  0  0  0
 73 77  1  0  0  0
 73144  1  0  0  0
 73145  1  0  0  0
 73146  1  0  0  0
 74 83  1  0  0  0
 74147  1  0  0  0
 74148  1  0  0  0
 74149  1  0  0  0
 75 84  1  0  0  0
 75150  1  0  0  0
 75151  1  0  0  0
 76 78  1  0  0  0
 76152  1  0  0  0
 76153  1  0  0  0
 77 79  1  0  0  0
 77154  1  0  0  0
 77155  1  0  0  0
 78 80  1  0  0  0
 78156  1  0  0  0
 78157  1  0  0  0
 79 84  1  0  0  0
 79158  1  0  0  0
 79159  1  0  0  0
 80160  1  0  0  0
 80161  1  0  0  0
 82 83  1  0  0  0
M  ISO  4   1 100  68 101  80 101  84 100
M  END
> <chiral flag>
0

> <version>
0

> <s_m_source_file>
/data/baiqing/PycharmProjects/Reinvent-master-3.2/result/LINK_invent/BTK/process_docking_weight1_custom_sum_contain_oxygen_bond_distance_aromatic_linkinvent_7_9_3/rearranged_h_0059.sdf

> <i_m_source_file_index>
73

> <r_mmod_Potential_Energy-OPLS-2005>
246.647048950195

> <r_mmod_Stretch_Energy-OPLS-2005>
132.057632446289

> <r_mmod_Bend_Energy-OPLS-2005>
192.620666503906

> <r_mmod_Torsional_Energy-OPLS-2005>
298.111175537109

> <r_mmod_Improper_Torsional_Energy-OPLS-2005>
16.9940700531006

> <r_mmod_Van_der_Waal_Energy-OPLS-2005>
113.806510925293

> <r_mmod_Electrostatic_Energy-OPLS-2005>
-395.81005859375

> <r_mmod_Solvation_Energy-OPLS-2005>
-215.180267333984

> <b_mmod_Minimization_Converged-OPLS-2005>
0

> <r_mmod_RMS_Derivative-OPLS-2005>
1.26585447788239

$$$$
75
                    3D
 Structure written by MMmdl.
153161  0  0  1  0            999 V2000
  -30.6054  -14.7759   20.3659 C   0  0  0  0  0  0
  -30.4450  -12.4451   19.4721 C   0  0  0  0  0  0
  -29.5159  -12.3812   18.2387 C   0  0  0  0  0  0
  -28.0302  -12.2811   18.6541 C   0  0  0  0  0  0
  -27.6314  -13.2073   19.8371 C   0  0  2  0  0  0
  -28.6909  -13.2060   20.9578 C   0  0  0  0  0  0
  -25.2527  -13.8127   20.5742 C   0  0  0  0  0  0
  -24.1785  -13.0411   20.9230 C   0  0  0  0  0  0
  -24.6347  -11.6881   20.8790 C   0  0  0  0  0  0
  -23.9025  -10.4275   21.0436 C   0  0  0  0  0  0
  -24.3593   -9.4191   21.9203 C   0  0  0  0  0  0
  -23.6276   -8.2226   22.0757 C   0  0  0  0  0  0
  -22.4260   -8.0268   21.3542 C   0  0  0  0  0  0
  -21.9889   -9.0242   20.4647 C   0  0  0  0  0  0
  -22.7210  -10.2124   20.3066 C   0  0  0  0  0  0
  -21.6846   -6.0724   22.5278 C   0  0  0  0  0  0
  -21.4014   -6.5633   23.8210 C   0  0  0  0  0  0
  -21.3659   -5.6785   24.9171 C   0  0  0  0  0  0
  -21.6047   -4.3049   24.7224 C   0  0  0  0  0  0
  -21.8819   -3.8141   23.4344 C   0  0  0  0  0  0
  -21.9191   -4.6954   22.3400 C   0  0  0  0  0  0
  -22.7817  -13.5227   21.1868 C   0  0  0  0  0  0
  -22.1661   -4.2143   21.0976 F   0  0  0  0  0  0
  -21.5628   -3.4531   25.7735 F   0  0  0  0  0  0
  -29.9783  -13.5472   20.3398 N   0  0  0  0  0  0
  -26.2906  -12.9261   20.3325 N   0  0  0  0  0  0
  -25.9270  -11.6443   20.5834 N   0  0  0  0  0  0
  -22.0447  -12.8230   22.0424 N   0  0  0  0  0  0
  -25.4279  -15.1850   20.4179 N   0  0  0  0  0  0
  -31.8343  -14.8384   20.2692 O   0  0  0  0  0  0
  -21.6631   -6.8862   21.4236 O   0  0  0  0  0  0
  -22.3520  -14.5532   20.6702 O   0  0  0  0  0  0
  -24.6286  -31.8573   23.1993 C   0  0  0  0  0  0
  -25.9115  -32.4770   23.8342 C   0  0  1  0  0  0
  -27.2252  -27.2855   20.1373 C   0  0  0  0  0  0
  -25.5914  -33.8573   24.2267 N   0  0  0  0  0  0
  -23.4250  -30.4788   21.5421 C   0  0  2  0  0  0
  -24.8735  -28.9251   20.1148 C   0  0  0  0  0  0
  -22.7491  -29.4612   22.4924 C   0  0  0  0  0  0
  -18.0287  -28.1386   22.8486 C   0  0  0  0  0  0
  -24.1486  -36.7296   23.2642 C   0  0  0  0  0  0
  -25.9680  -30.7787   21.3747 C   0  0  0  0  0  0
  -26.0429  -29.4013   20.7214 C   0  0  0  0  0  0
  -27.2232  -28.5950   20.7180 C   0  0  0  0  0  0
  -26.0365  -26.8713   19.4975 C   0  0  0  0  0  0
  -24.8740  -27.6672   19.4914 C   0  0  0  0  0  0
  -23.6433  -29.8101   20.1591 C   0  0  0  0  0  0
  -25.4110  -36.3085   24.0331 C   0  0  1  0  0  0
  -20.5891  -28.3695   23.1273 C   0  0  2  0  0  0
  -20.6776  -26.9415   22.5408 C   0  0  0  0  0  0
  -19.5751  -26.6382   21.5212 C   0  0  0  0  0  0
  -18.1932  -26.7928   22.1626 C   0  0  0  0  0  0
  -19.1542  -28.8854   23.2877 C   0  0  0  0  0  0
  -18.9465  -30.1455   23.8898 C   0  0  0  0  0  0
  -17.6466  -30.6587   24.0563 C   0  0  0  0  0  0
  -25.9047  -34.9452   23.5104 C   0  0  0  0  0  0
  -16.5356  -29.9088   23.6328 C   0  0  0  0  0  0
  -16.7277  -28.6503   23.0353 C   0  0  0  0  0  0
  -26.4487  -31.6587   25.0724 C   0  0  0  0  0  0
  -25.3708  -31.3737   26.1444 C   0  0  0  0  0  0
  -27.0329  -30.3007   24.6192 C   0  0  0  0  0  0
  -27.6041  -32.4326   25.7500 C   0  0  0  0  0  0
  -27.5581  -37.1803   24.8464 C   0  0  0  0  0  0
  -21.4199  -29.3046   22.3663 N   0  0  0  0  0  0
  -26.4291  -37.3778   23.9409 N   0  0  0  0  0  0
  -24.6928  -31.0558   22.0956 N   0  0  0  0  0  0
  -23.4200  -28.8155   23.3020 O   0  0  0  0  0  0
  -28.3388  -26.4233   20.1570 O   0  0  0  0  0  0
  -26.5628  -34.8923   22.4680 O   0  0  0  0  0  0
  -23.5439  -32.1383   23.7296 O   0  0  0  0  0  0
  -29.1948  -21.8099   21.7289 C   0  0  0  0  0  0
  -29.2418  -21.1949   19.6635 C   0  0  0  0  0  0
  -29.1654  -22.3679   20.4101 C   0  0  0  0  0  0
  -29.2466  -16.0318   18.8182 C   0  0  0  0  0  0
  -29.1633  -23.8871   19.9368 C   0  0  0  0  0  0
  -29.1998  -18.5811   20.0853 C   0  0  0  0  0  0
  -30.1009  -17.3577   20.6823 C   0  0  0  0  0  0
  -28.1546  -24.9841   20.5349 C   0  0  0  0  0  0
  -29.2714  -20.4655   21.7669 N   0  0  0  0  0  0
  -29.3234  -20.0448   20.4796 N   0  0  0  0  0  0
  -29.8312  -15.9280   20.1652 N   0  0  0  0  0  0
  -31.4790  -12.5869   19.1523 H   0  0  0  0  0  0
  -30.4246  -11.5021   20.0203 H   0  0  0  0  0  0
  -29.7761  -11.5079   17.6389 H   0  0  0  0  0  0
  -29.6876  -13.2238   17.5738 H   0  0  0  0  0  0
  -27.8591  -11.2427   18.9391 H   0  0  0  0  0  0
  -27.3833  -12.4639   17.7951 H   0  0  0  0  0  0
  -27.5761  -14.2077   19.4272 H   0  0  0  0  0  0
  -28.7425  -12.2336   21.4495 H   0  0  0  0  0  0
  -28.4327  -13.9348   21.7279 H   0  0  0  0  0  0
  -25.2735   -9.5669   22.4779 H   0  0  0  0  0  0
  -23.9986   -7.4611   22.7469 H   0  0  0  0  0  0
  -21.0824   -8.8759   19.8950 H   0  0  0  0  0  0
  -22.3674  -10.9668   19.6178 H   0  0  0  0  0  0
  -21.2012   -7.6142   23.9710 H   0  0  0  0  0  0
  -21.1482   -6.0518   25.9073 H   0  0  0  0  0  0
  -22.0602   -2.7604   23.2845 H   0  0  0  0  0  0
  -22.4051  -11.9891   22.4819 H   0  0  0  0  0  0
  -21.1067  -13.1271   22.2620 H   0  0  0  0  0  0
  -24.6704  -15.8478   20.5407 H   0  0  0  0  0  0
  -26.2980  -15.6232   20.1439 H   0  0  0  0  0  0
  -26.7188  -32.5433   23.1094 H   0  0  0  0  0  0
  -25.0038  -33.9710   25.0397 H   0  0  0  0  0  0
  -22.7207  -31.3003   21.3952 H   0  0  0  0  0  0
  -23.3749  -35.9627   23.3301 H   0  0  0  0  0  0
  -24.3578  -36.8921   22.2057 H   0  0  0  0  0  0
  -23.7236  -37.6496   23.6665 H   0  0  0  0  0  0
  -26.1001  -31.5371   20.6018 H   0  0  0  0  0  0
  -26.8483  -30.8322   22.0037 H   0  0  0  0  0  0
  -28.1223  -28.9577   21.1963 H   0  0  0  0  0  0
  -25.9943  -25.9158   18.9955 H   0  0  0  0  0  0
  -23.9810  -27.2999   19.0041 H   0  0  0  0  0  0
  -23.7682  -30.5850   19.4021 H   0  0  0  0  0  0
  -22.7624  -29.2425   19.8542 H   0  0  0  0  0  0
  -25.1290  -36.1941   25.0825 H   0  0  0  0  0  0
  -20.9988  -28.3274   24.1393 H   0  0  0  0  0  0
  -20.5672  -26.2309   23.3614 H   0  0  0  0  0  0
  -21.6644  -26.7437   22.1204 H   0  0  0  0  0  0
  -19.6911  -25.6291   21.1246 H   0  0  0  0  0  0
  -19.6684  -27.3188   20.6739 H   0  0  0  0  0  0
  -17.4200  -26.6675   21.4031 H   0  0  0  0  0  0
  -18.0333  -26.0070   22.9022 H   0  0  0  0  0  0
  -19.7940  -30.7268   24.2276 H   0  0  0  0  0  0
  -17.5019  -31.6267   24.5165 H   0  0  0  0  0  0
  -15.5356  -30.2992   23.7643 H   0  0  0  0  0  0
  -15.8678  -28.0819   22.7073 H   0  0  0  0  0  0
  -24.5865  -30.7112   25.7765 H   0  0  0  0  0  0
  -24.8918  -32.2910   26.4880 H   0  0  0  0  0  0
  -25.8012  -30.8895   27.0218 H   0  0  0  0  0  0
  -26.2906  -29.6762   24.1207 H   0  0  0  0  0  0
  -27.4010  -29.7264   25.4705 H   0  0  0  0  0  0
  -27.8785  -30.4293   23.9430 H   0  0  0  0  0  0
  -27.2642  -33.3618   26.2088 H   0  0  0  0  0  0
  -28.3843  -32.6903   25.0325 H   0  0  0  0  0  0
  -28.0719  -31.8448   26.5408 H   0  0  0  0  0  0
  -28.2596  -38.0102   24.7511 H   0  0  0  0  0  0
  -28.1077  -36.2632   24.6285 H   0  0  0  0  0  0
  -27.2301  -37.1450   25.8869 H   0  0  0  0  0  0
  -20.9384  -29.8771   21.6869 H   0  0  0  0  0  0
  -26.0175  -38.2856   24.1402 H   0  0  0  0  0  0
  -29.1725  -22.3447   22.6684 H   0  0  0  0  0  0
  -29.2377  -21.0797   18.5879 H   0  0  0  0  0  0
  -28.2320  -16.4271   18.8531 H   0  0  0  0  0  0
  -29.1865  -15.0959   18.2802 H   0  0  0  0  0  0
  -29.8587  -16.6682   18.1780 H   0  0  0  0  0  0
  -29.0328  -23.9148   18.8548 H   0  0  0  0  0  0
  -30.1659  -24.2873   20.0889 H   0  0  0  0  0  0
  -28.1536  -18.3227   20.2552 H   0  0  0  0  0  0
  -29.3143  -18.5995   19.0032 H   0  0  0  0  0  0
  -29.9863  -17.3384   21.7664 H   0  0  0  0  0  0
  -31.1523  -17.5850   20.5013 H   0  0  0  0  0  0
  -28.2391  -24.9529   21.6214 H   0  0  0  0  0  0
  -27.1413  -24.6458   20.3272 H   0  0  0  0  0  0
  1 25  1  0  0  0
  1 30  2  0  0  0
  1 81  1  0  0  0
  2  3  1  0  0  0
  2 25  1  0  0  0
  2 82  1  0  0  0
  2 83  1  0  0  0
  3  4  1  0  0  0
  3 84  1  0  0  0
  3 85  1  0  0  0
  4  5  1  0  0  0
  4 86  1  0  0  0
  4 87  1  0  0  0
  5  6  1  0  0  0
  5 26  1  0  0  0
  5 88  1  0  0  0
  6 25  1  0  0  0
  6 89  1  0  0  0
  6 90  1  0  0  0
  7  8  2  0  0  0
  7 26  1  0  0  0
  7 29  1  0  0  0
  8  9  1  0  0  0
  8 22  1  0  0  0
  9 10  1  0  0  0
  9 27  2  0  0  0
 10 11  2  0  0  0
 10 15  1  0  0  0
 11 12  1  0  0  0
 11 91  1  0  0  0
 12 13  2  0  0  0
 12 92  1  0  0  0
 13 14  1  0  0  0
 13 31  1  0  0  0
 14 15  2  0  0  0
 14 93  1  0  0  0
 15 94  1  0  0  0
 16 17  2  0  0  0
 16 21  1  0  0  0
 16 31  1  0  0  0
 17 18  1  0  0  0
 17 95  1  0  0  0
 18 19  2  0  0  0
 18 96  1  0  0  0
 19 20  1  0  0  0
 19 24  1  0  0  0
 20 21  2  0  0  0
 20 97  1  0  0  0
 21 23  1  0  0  0
 22 28  1  0  0  0
 22 32  2  0  0  0
 26 27  1  0  0  0
 28 98  1  0  0  0
 28 99  1  0  0  0
 29100  1  0  0  0
 29101  1  0  0  0
 33 34  1  0  0  0
 33 66  1  0  0  0
 33 70  2  0  0  0
 34 36  1  0  0  0
 34 59  1  0  0  0
 34102  1  0  0  0
 35 44  2  0  0  0
 35 45  1  0  0  0
 35 68  1  0  0  0
 36 56  1  0  0  0
 36103  1  0  0  0
 37 39  1  0  0  0
 37 47  1  0  0  0
 37 66  1  0  0  0
 37104  1  0  0  0
 38 43  2  0  0  0
 38 46  1  0  0  0
 38 47  1  0  0  0
 39 64  1  0  0  0
 39 67  2  0  0  0
 40 52  1  0  0  0
 40 53  2  0  0  0
 40 58  1  0  0  0
 41105  1  0  0  0
 41106  1  0  0  0
 41107  1  0  0  0
 41 48  1  0  0  0
 42 43  1  0  0  0
 42 66  1  0  0  0
 42108  1  0  0  0
 42109  1  0  0  0
 43 44  1  0  0  0
 44110  1  0  0  0
 45 46  2  0  0  0
 45111  1  0  0  0
 46112  1  0  0  0
 47113  1  0  0  0
 47114  1  0  0  0
 48 56  1  0  0  0
 48 65  1  0  0  0
 48115  1  0  0  0
 49 50  1  0  0  0
 49 53  1  0  0  0
 49 64  1  0  0  0
 49116  1  0  0  0
 50 51  1  0  0  0
 50117  1  0  0  0
 50118  1  0  0  0
 51 52  1  0  0  0
 51119  1  0  0  0
 51120  1  0  0  0
 52121  1  0  0  0
 52122  1  0  0  0
 53 54  1  0  0  0
 54 55  2  0  0  0
 54123  1  0  0  0
 55 57  1  0  0  0
 55124  1  0  0  0
 56 69  2  0  0  0
 57 58  2  0  0  0
 57125  1  0  0  0
 58126  1  0  0  0
 59 60  1  0  0  0
 59 61  1  0  0  0
 59 62  1  0  0  0
 60127  1  0  0  0
 60128  1  0  0  0
 60129  1  0  0  0
 61130  1  0  0  0
 61131  1  0  0  0
 61132  1  0  0  0
 62133  1  0  0  0
 62134  1  0  0  0
 62135  1  0  0  0
 63 65  1  0  0  0
 63136  1  0  0  0
 63137  1  0  0  0
 63138  1  0  0  0
 64139  1  0  0  0
 65140  1  0  0  0
 68 78  1  0  0  0
 71 73  1  0  0  0
 71 79  2  0  0  0
 71141  1  0  0  0
 72 73  2  0  0  0
 72 80  1  0  0  0
 72142  1  0  0  0
 73 75  1  0  0  0
 74 81  1  0  0  0
 74143  1  0  0  0
 74144  1  0  0  0
 74145  1  0  0  0
 75 78  1  0  0  0
 75146  1  0  0  0
 75147  1  0  0  0
 76 77  1  0  0  0
 76 80  1  0  0  0
 76148  1  0  0  0
 76149  1  0  0  0
 77 81  1  0  0  0
 77150  1  0  0  0
 77151  1  0  0  0
 78152  1  0  0  0
 78153  1  0  0  0
 79 80  1  0  0  0
M  ISO  4   1 100  68 101  78 101  81 100
M  END
> <chiral flag>
0

> <version>
0

> <s_m_source_file>
/data/baiqing/PycharmProjects/Reinvent-master-3.2/result/LINK_invent/BTK/process_docking_weight1_custom_sum_contain_oxygen_bond_distance_aromatic_linkinvent_7_9_3/rearranged_h_0059.sdf

> <i_m_source_file_index>
74

> <r_mmod_Potential_Energy-OPLS-2005>
333.145751953125

> <r_mmod_Stretch_Energy-OPLS-2005>
115.764739990234

> <r_mmod_Bend_Energy-OPLS-2005>
169.714416503906

> <r_mmod_Torsional_Energy-OPLS-2005>
321.049224853516

> <r_mmod_Improper_Torsional_Energy-OPLS-2005>
12.7063217163086

> <r_mmod_Van_der_Waal_Energy-OPLS-2005>
129.942108154297

> <r_mmod_Electrostatic_Energy-OPLS-2005>
-292.820434570312

> <r_mmod_Solvation_Energy-OPLS-2005>
-219.922332763672

> <b_mmod_Minimization_Converged-OPLS-2005>
0

> <r_mmod_RMS_Derivative-OPLS-2005>
0.762837707996368

$$$$
76
                    3D
 Structure written by MMmdl.
156164  0  0  1  0            999 V2000
  -30.7777  -14.4924   20.6160 C   0  0  0  0  0  0
  -30.4095  -12.3322   19.4583 C   0  0  0  0  0  0
  -29.5018  -12.5229   18.2265 C   0  0  0  0  0  0
  -28.0238  -12.3676   18.6248 C   0  0  0  0  0  0
  -27.6580  -13.2212   19.8655 C   0  0  2  0  0  0
  -28.6941  -13.0584   21.0003 C   0  0  0  0  0  0
  -25.2572  -13.8193   20.5703 C   0  0  0  0  0  0
  -24.1844  -13.0457   20.9176 C   0  0  0  0  0  0
  -24.6423  -11.6925   20.8732 C   0  0  0  0  0  0
  -23.9096  -10.4305   21.0421 C   0  0  0  0  0  0
  -24.3647   -9.4214   21.9197 C   0  0  0  0  0  0
  -23.6322   -8.2254   22.0762 C   0  0  0  0  0  0
  -22.4299   -8.0304   21.3559 C   0  0  0  0  0  0
  -21.9948   -9.0277   20.4654 C   0  0  0  0  0  0
  -22.7277  -10.2150   20.3066 C   0  0  0  0  0  0
  -21.6854   -6.0762   22.5283 C   0  0  0  0  0  0
  -21.4028   -6.5657   23.8218 C   0  0  0  0  0  0
  -21.3662   -5.6806   24.9182 C   0  0  0  0  0  0
  -21.6034   -4.3066   24.7226 C   0  0  0  0  0  0
  -21.8826   -3.8167   23.4343 C   0  0  0  0  0  0
  -21.9196   -4.6989   22.3405 C   0  0  0  0  0  0
  -22.7847  -13.5220   21.1850 C   0  0  0  0  0  0
  -22.1659   -4.2176   21.0982 F   0  0  0  0  0  0
  -21.5639   -3.4550   25.7737 F   0  0  0  0  0  0
  -30.0361  -13.3481   20.4637 N   0  0  0  0  0  0
  -26.3012  -12.9394   20.3318 N   0  0  0  0  0  0
  -25.9342  -11.6533   20.5726 N   0  0  0  0  0  0
  -22.0492  -12.8211   22.0390 N   0  0  0  0  0  0
  -25.4291  -15.1922   20.4171 N   0  0  0  0  0  0
  -31.8413  -14.6443   20.0075 O   0  0  0  0  0  0
  -21.6652   -6.8912   21.4248 O   0  0  0  0  0  0
  -22.3520  -14.5528   20.6707 O   0  0  0  0  0  0
  -24.6205  -31.8666   23.2098 C   0  0  0  0  0  0
  -25.9087  -32.4815   23.8397 C   0  0  1  0  0  0
  -27.2234  -27.3846   20.1108 C   0  0  0  0  0  0
  -25.5949  -33.8620   24.2325 N   0  0  0  0  0  0
  -23.4082  -30.4957   21.5534 C   0  0  2  0  0  0
  -24.8514  -28.9621   20.1187 C   0  0  0  0  0  0
  -22.7429  -29.4672   22.4981 C   0  0  0  0  0  0
  -18.0282  -28.1368   22.8494 C   0  0  0  0  0  0
  -24.1502  -36.7303   23.2628 C   0  0  0  0  0  0
  -25.9468  -30.8200   21.3722 C   0  0  0  0  0  0
  -26.0205  -29.4563   20.7087 C   0  0  0  0  0  0
  -27.2108  -28.6802   20.6941 C   0  0  0  0  0  0
  -26.0196  -26.9216   19.5221 C   0  0  0  0  0  0
  -24.8479  -27.6947   19.5217 C   0  0  0  0  0  0
  -23.6176  -29.8355   20.1667 C   0  0  0  0  0  0
  -25.4120  -36.3096   24.0323 C   0  0  1  0  0  0
  -20.5879  -28.3671   23.1300 C   0  0  2  0  0  0
  -20.6783  -26.9410   22.5399 C   0  0  0  0  0  0
  -19.5758  -26.6375   21.5207 C   0  0  0  0  0  0
  -18.1933  -26.7917   22.1620 C   0  0  0  0  0  0
  -19.1533  -28.8834   23.2894 C   0  0  0  0  0  0
  -18.9459  -30.1446   23.8895 C   0  0  0  0  0  0
  -17.6459  -30.6581   24.0563 C   0  0  0  0  0  0
  -25.9058  -34.9470   23.5112 C   0  0  0  0  0  0
  -16.5348  -29.9073   23.6348 C   0  0  0  0  0  0
  -16.7270  -28.6490   23.0370 C   0  0  0  0  0  0
  -26.4490  -31.6605   25.0747 C   0  0  0  0  0  0
  -25.3733  -31.3758   26.1481 C   0  0  0  0  0  0
  -27.0325  -30.3025   24.6189 C   0  0  0  0  0  0
  -27.6061  -32.4330   25.7514 C   0  0  0  0  0  0
  -27.5596  -37.1803   24.8453 C   0  0  0  0  0  0
  -21.4157  -29.3048   22.3709 N   0  0  0  0  0  0
  -26.4306  -37.3786   23.9401 N   0  0  0  0  0  0
  -24.6770  -31.0743   22.1022 N   0  0  0  0  0  0
  -23.4177  -28.8200   23.3037 O   0  0  0  0  0  0
  -28.3674  -26.5847   20.1513 O   0  0  0  0  0  0
  -26.5603  -34.8925   22.4662 O   0  0  0  0  0  0
  -23.5387  -32.1461   23.7460 O   0  0  0  0  0  0
  -30.9438  -21.4265   20.8818 C   0  0  0  0  0  0
  -31.1118  -20.1104   21.2345 C   0  0  0  0  0  0
  -29.6195  -21.4994   20.3666 C   0  0  0  0  0  0
  -30.1157  -15.3795   22.7794 C   0  0  0  0  0  0
  -28.8320  -22.6981   19.8403 C   0  0  0  0  0  0
  -29.2918  -24.1385   20.2466 C   0  0  0  0  0  0
  -29.5641  -18.0287   21.2119 C   0  0  0  0  0  0
  -30.6564  -16.9421   20.9621 C   0  0  0  0  0  0
  -28.1445  -25.1578   19.9788 C   0  0  0  0  0  0
  -29.0455  -20.2917   20.3842 N   0  0  0  0  0  0
  -29.9524  -19.4264   20.9177 N   0  0  0  0  0  0
  -30.2603  -15.5421   21.3248 N   0  0  0  0  0  0
  -31.4600  -12.3857   19.1692 H   0  0  0  0  0  0
  -30.2729  -11.3340   19.8789 H   0  0  0  0  0  0
  -29.7589  -11.8056   17.4474 H   0  0  0  0  0  0
  -29.6657  -13.5119   17.7956 H   0  0  0  0  0  0
  -27.8393  -11.3116   18.8290 H   0  0  0  0  0  0
  -27.3830  -12.6326   17.7850 H   0  0  0  0  0  0
  -27.6871  -14.2626   19.5454 H   0  0  0  0  0  0
  -28.6676  -12.0454   21.4013 H   0  0  0  0  0  0
  -28.4138  -13.7114   21.8246 H   0  0  0  0  0  0
  -25.2811   -9.5681   22.4749 H   0  0  0  0  0  0
  -24.0033   -7.4649   22.7478 H   0  0  0  0  0  0
  -21.0904   -8.8800   19.8932 H   0  0  0  0  0  0
  -22.3766  -10.9702   19.6168 H   0  0  0  0  0  0
  -21.1999   -7.6161   23.9727 H   0  0  0  0  0  0
  -21.1488   -6.0539   25.9086 H   0  0  0  0  0  0
  -22.0598   -2.7632   23.2838 H   0  0  0  0  0  0
  -22.4125  -11.9871   22.4768 H   0  0  0  0  0  0
  -21.1095  -13.1203   22.2576 H   0  0  0  0  0  0
  -24.6710  -15.8553   20.5362 H   0  0  0  0  0  0
  -26.2936  -15.6307   20.1249 H   0  0  0  0  0  0
  -26.7156  -32.5503   23.1154 H   0  0  0  0  0  0
  -25.0142  -33.9797   25.0496 H   0  0  0  0  0  0
  -22.6990  -31.3148   21.4176 H   0  0  0  0  0  0
  -23.3783  -35.9621   23.3278 H   0  0  0  0  0  0
  -24.3608  -36.8944   22.2052 H   0  0  0  0  0  0
  -23.7251  -37.6496   23.6665 H   0  0  0  0  0  0
  -26.0784  -31.5921   20.6128 H   0  0  0  0  0  0
  -26.8248  -30.8569   22.0045 H   0  0  0  0  0  0
  -28.1102  -29.0600   21.1584 H   0  0  0  0  0  0
  -25.9353  -25.9446   19.0726 H   0  0  0  0  0  0
  -23.9424  -27.2994   19.0825 H   0  0  0  0  0  0
  -23.7320  -30.6166   19.4143 H   0  0  0  0  0  0
  -22.7388  -29.2629   19.8645 H   0  0  0  0  0  0
  -25.1302  -36.1954   25.0820 H   0  0  0  0  0  0
  -20.9978  -28.3237   24.1421 H   0  0  0  0  0  0
  -20.5732  -26.2268   23.3582 H   0  0  0  0  0  0
  -21.6649  -26.7479   22.1172 H   0  0  0  0  0  0
  -19.6934  -25.6287   21.1244 H   0  0  0  0  0  0
  -19.6707  -27.3180   20.6737 H   0  0  0  0  0  0
  -17.4215  -26.6680   21.4018 H   0  0  0  0  0  0
  -18.0340  -26.0045   22.9004 H   0  0  0  0  0  0
  -19.7932  -30.7264   24.2264 H   0  0  0  0  0  0
  -17.5016  -31.6275   24.5142 H   0  0  0  0  0  0
  -15.5352  -30.2971   23.7676 H   0  0  0  0  0  0
  -15.8669  -28.0795   22.7106 H   0  0  0  0  0  0
  -24.5829  -30.7220   25.7791 H   0  0  0  0  0  0
  -24.9033  -32.2950   26.4986 H   0  0  0  0  0  0
  -25.8034  -30.8833   27.0209 H   0  0  0  0  0  0
  -26.2905  -29.6788   24.1197 H   0  0  0  0  0  0
  -27.4008  -29.7274   25.4699 H   0  0  0  0  0  0
  -27.8780  -30.4315   23.9425 H   0  0  0  0  0  0
  -27.2666  -33.3601   26.2153 H   0  0  0  0  0  0
  -28.3837  -32.6950   25.0323 H   0  0  0  0  0  0
  -28.0772  -31.8425   26.5387 H   0  0  0  0  0  0
  -28.2574  -38.0138   24.7543 H   0  0  0  0  0  0
  -28.1134  -36.2671   24.6223 H   0  0  0  0  0  0
  -27.2320  -37.1382   25.8856 H   0  0  0  0  0  0
  -20.9302  -29.8770   21.6934 H   0  0  0  0  0  0
  -26.0189  -38.2860   24.1422 H   0  0  0  0  0  0
  -31.6569  -22.2302   21.0020 H   0  0  0  0  0  0
  -31.9519  -19.6145   21.7026 H   0  0  0  0  0  0
  -30.8399  -15.9870   23.3229 H   0  0  0  0  0  0
  -30.2663  -14.3504   23.1137 H   0  0  0  0  0  0
  -29.1191  -15.6867   23.0998 H   0  0  0  0  0  0
  -27.7958  -22.5767   20.1566 H   0  0  0  0  0  0
  -28.7949  -22.6466   18.7503 H   0  0  0  0  0  0
  -30.1878  -24.4078   19.6880 H   0  0  0  0  0  0
  -29.5588  -24.1658   21.3033 H   0  0  0  0  0  0
  -29.2577  -18.0054   22.2580 H   0  0  0  0  0  0
  -28.6763  -17.7832   20.6292 H   0  0  0  0  0  0
  -31.5686  -17.1995   21.5033 H   0  0  0  0  0  0
  -30.9233  -16.9947   19.9049 H   0  0  0  0  0  0
  -27.3252  -24.8683   20.6398 H   0  0  0  0  0  0
  -27.8200  -24.9871   18.9531 H   0  0  0  0  0  0
  1 25  1  0  0  0
  1 30  2  0  0  0
  1 82  1  0  0  0
  2  3  1  0  0  0
  2 25  1  0  0  0
  2 83  1  0  0  0
  2 84  1  0  0  0
  3  4  1  0  0  0
  3 85  1  0  0  0
  3 86  1  0  0  0
  4  5  1  0  0  0
  4 87  1  0  0  0
  4 88  1  0  0  0
  5  6  1  0  0  0
  5 26  1  0  0  0
  5 89  1  0  0  0
  6 25  1  0  0  0
  6 90  1  0  0  0
  6 91  1  0  0  0
  7  8  2  0  0  0
  7 26  1  0  0  0
  7 29  1  0  0  0
  8  9  1  0  0  0
  8 22  1  0  0  0
  9 10  1  0  0  0
  9 27  2  0  0  0
 10 11  2  0  0  0
 10 15  1  0  0  0
 11 12  1  0  0  0
 11 92  1  0  0  0
 12 13  2  0  0  0
 12 93  1  0  0  0
 13 14  1  0  0  0
 13 31  1  0  0  0
 14 15  2  0  0  0
 14 94  1  0  0  0
 15 95  1  0  0  0
 16 17  2  0  0  0
 16 21  1  0  0  0
 16 31  1  0  0  0
 17 18  1  0  0  0
 17 96  1  0  0  0
 18 19  2  0  0  0
 18 97  1  0  0  0
 19 20  1  0  0  0
 19 24  1  0  0  0
 20 21  2  0  0  0
 20 98  1  0  0  0
 21 23  1  0  0  0
 22 28  1  0  0  0
 22 32  2  0  0  0
 26 27  1  0  0  0
 28 99  1  0  0  0
 28100  1  0  0  0
 29101  1  0  0  0
 29102  1  0  0  0
 33 34  1  0  0  0
 33 66  1  0  0  0
 33 70  2  0  0  0
 34 36  1  0  0  0
 34 59  1  0  0  0
 34103  1  0  0  0
 35 44  2  0  0  0
 35 45  1  0  0  0
 35 68  1  0  0  0
 36 56  1  0  0  0
 36104  1  0  0  0
 37 39  1  0  0  0
 37 47  1  0  0  0
 37 66  1  0  0  0
 37105  1  0  0  0
 38 43  2  0  0  0
 38 46  1  0  0  0
 38 47  1  0  0  0
 39 64  1  0  0  0
 39 67  2  0  0  0
 40 52  1  0  0  0
 40 53  2  0  0  0
 40 58  1  0  0  0
 41106  1  0  0  0
 41107  1  0  0  0
 41108  1  0  0  0
 41 48  1  0  0  0
 42 43  1  0  0  0
 42 66  1  0  0  0
 42109  1  0  0  0
 42110  1  0  0  0
 43 44  1  0  0  0
 44111  1  0  0  0
 45 46  2  0  0  0
 45112  1  0  0  0
 46113  1  0  0  0
 47114  1  0  0  0
 47115  1  0  0  0
 48 56  1  0  0  0
 48 65  1  0  0  0
 48116  1  0  0  0
 49 50  1  0  0  0
 49 53  1  0  0  0
 49 64  1  0  0  0
 49117  1  0  0  0
 50 51  1  0  0  0
 50118  1  0  0  0
 50119  1  0  0  0
 51 52  1  0  0  0
 51120  1  0  0  0
 51121  1  0  0  0
 52122  1  0  0  0
 52123  1  0  0  0
 53 54  1  0  0  0
 54 55  2  0  0  0
 54124  1  0  0  0
 55 57  1  0  0  0
 55125  1  0  0  0
 56 69  2  0  0  0
 57 58  2  0  0  0
 57126  1  0  0  0
 58127  1  0  0  0
 59 60  1  0  0  0
 59 61  1  0  0  0
 59 62  1  0  0  0
 60128  1  0  0  0
 60129  1  0  0  0
 60130  1  0  0  0
 61131  1  0  0  0
 61132  1  0  0  0
 61133  1  0  0  0
 62134  1  0  0  0
 62135  1  0  0  0
 62136  1  0  0  0
 63 65  1  0  0  0
 63137  1  0  0  0
 63138  1  0  0  0
 63139  1  0  0  0
 64140  1  0  0  0
 65141  1  0  0  0
 68 79  1  0  0  0
 71 72  2  0  0  0
 71 73  1  0  0  0
 71142  1  0  0  0
 72 81  1  0  0  0
 72143  1  0  0  0
 73 75  1  0  0  0
 73 80  2  0  0  0
 74 82  1  0  0  0
 74144  1  0  0  0
 74145  1  0  0  0
 74146  1  0  0  0
 75 76  1  0  0  0
 75147  1  0  0  0
 75148  1  0  0  0
 76 79  1  0  0  0
 76149  1  0  0  0
 76150  1  0  0  0
 77 78  1  0  0  0
 77 81  1  0  0  0
 77151  1  0  0  0
 77152  1  0  0  0
 78 82  1  0  0  0
 78153  1  0  0  0
 78154  1  0  0  0
 79155  1  0  0  0
 79156  1  0  0  0
 80 81  1  0  0  0
M  ISO  4   1 100  68 101  79 101  82 100
M  END
> <chiral flag>
0

> <version>
0

> <s_m_source_file>
/data/baiqing/PycharmProjects/Reinvent-master-3.2/result/LINK_invent/BTK/process_docking_weight1_custom_sum_contain_oxygen_bond_distance_aromatic_linkinvent_7_9_3/rearranged_h_0059.sdf

> <i_m_source_file_index>
75

> <r_mmod_Potential_Energy-OPLS-2005>
64.2173538208008

> <r_mmod_Stretch_Energy-OPLS-2005>
51.1630973815918

> <r_mmod_Bend_Energy-OPLS-2005>
119.207397460938

> <r_mmod_Torsional_Energy-OPLS-2005>
269.832061767578

> <r_mmod_Improper_Torsional_Energy-OPLS-2005>
6.98177719116211

> <r_mmod_Van_der_Waal_Energy-OPLS-2005>
141.876800537109

> <r_mmod_Electrostatic_Energy-OPLS-2005>
-335.803344726562

> <r_mmod_Solvation_Energy-OPLS-2005>
-210.679763793945

> <b_mmod_Minimization_Converged-OPLS-2005>
0

> <r_mmod_RMS_Derivative-OPLS-2005>
3.06694221496582

$$$$
77
                    3D
 Structure written by MMmdl.
157165  0  0  1  0            999 V2000
  -30.6959  -14.6348   20.5594 C   0  0  0  0  0  0
  -30.4251  -12.4142   19.4524 C   0  0  0  0  0  0
  -29.4969  -12.5248   18.2250 C   0  0  0  0  0  0
  -28.0236  -12.3596   18.6420 C   0  0  0  0  0  0
  -27.6507  -13.2291   19.8729 C   0  0  2  0  0  0
  -28.7036  -13.0903   20.9991 C   0  0  0  0  0  0
  -25.2411  -13.8131   20.5532 C   0  0  0  0  0  0
  -24.1763  -13.0385   20.9186 C   0  0  0  0  0  0
  -24.6403  -11.6887   20.8792 C   0  0  0  0  0  0
  -23.9084  -10.4266   21.0434 C   0  0  0  0  0  0
  -24.3627   -9.4179   21.9207 C   0  0  0  0  0  0
  -23.6293   -8.2221   22.0765 C   0  0  0  0  0  0
  -22.4276   -8.0271   21.3549 C   0  0  0  0  0  0
  -21.9921   -9.0249   20.4652 C   0  0  0  0  0  0
  -22.7261  -10.2122   20.3071 C   0  0  0  0  0  0
  -21.6848   -6.0732   22.5280 C   0  0  0  0  0  0
  -21.4010   -6.5637   23.8214 C   0  0  0  0  0  0
  -21.3657   -5.6790   24.9176 C   0  0  0  0  0  0
  -21.6043   -4.3054   24.7227 C   0  0  0  0  0  0
  -21.8819   -3.8145   23.4349 C   0  0  0  0  0  0
  -21.9191   -4.6961   22.3404 C   0  0  0  0  0  0
  -22.7783  -13.5171   21.1842 C   0  0  0  0  0  0
  -22.1660   -4.2148   21.0981 F   0  0  0  0  0  0
  -21.5630   -3.4538   25.7739 F   0  0  0  0  0  0
  -30.0130  -13.4451   20.4340 N   0  0  0  0  0  0
  -26.2964  -12.9403   20.3392 N   0  0  0  0  0  0
  -25.9358  -11.6544   20.5877 N   0  0  0  0  0  0
  -22.0444  -12.8183   22.0427 N   0  0  0  0  0  0
  -25.3812  -15.1809   20.3561 N   0  0  0  0  0  0
  -31.8221  -14.7505   20.0653 O   0  0  0  0  0  0
  -21.6633   -6.8875   21.4243 O   0  0  0  0  0  0
  -22.3462  -14.5478   20.6693 O   0  0  0  0  0  0
  -24.6269  -31.8606   23.2046 C   0  0  0  0  0  0
  -25.9116  -32.4786   23.8369 C   0  0  1  0  0  0
  -27.2202  -27.3135   20.1118 C   0  0  0  0  0  0
  -25.5932  -33.8588   24.2291 N   0  0  0  0  0  0
  -23.4209  -30.4863   21.5479 C   0  0  2  0  0  0
  -24.8667  -28.9485   20.1102 C   0  0  0  0  0  0
  -22.7487  -29.4620   22.4938 C   0  0  0  0  0  0
  -18.0291  -28.1379   22.8487 C   0  0  0  0  0  0
  -24.1489  -36.7294   23.2638 C   0  0  0  0  0  0
  -25.9647  -30.7894   21.3785 C   0  0  0  0  0  0
  -26.0381  -29.4184   20.7176 C   0  0  0  0  0  0
  -27.2176  -28.6125   20.7110 C   0  0  0  0  0  0
  -26.0225  -26.9095   19.4709 C   0  0  0  0  0  0
  -24.8615  -27.6993   19.4783 C   0  0  0  0  0  0
  -23.6358  -29.8281   20.1615 C   0  0  0  0  0  0
  -25.4114  -36.3086   24.0330 C   0  0  1  0  0  0
  -20.5893  -28.3680   23.1283 C   0  0  2  0  0  0
  -20.6779  -26.9403   22.5408 C   0  0  0  0  0  0
  -19.5752  -26.6379   21.5213 C   0  0  0  0  0  0
  -18.1932  -26.7922   22.1626 C   0  0  0  0  0  0
  -19.1544  -28.8848   23.2879 C   0  0  0  0  0  0
  -18.9466  -30.1453   23.8889 C   0  0  0  0  0  0
  -17.6463  -30.6580   24.0560 C   0  0  0  0  0  0
  -25.9050  -34.9455   23.5107 C   0  0  0  0  0  0
  -16.5355  -29.9075   23.6332 C   0  0  0  0  0  0
  -16.7277  -28.6497   23.0347 C   0  0  0  0  0  0
  -26.4497  -31.6597   25.0741 C   0  0  0  0  0  0
  -25.3725  -31.3739   26.1466 C   0  0  0  0  0  0
  -27.0338  -30.3020   24.6195 C   0  0  0  0  0  0
  -27.6056  -32.4334   25.7509 C   0  0  0  0  0  0
  -27.5580  -37.1802   24.8465 C   0  0  0  0  0  0
  -21.4199  -29.3039   22.3684 N   0  0  0  0  0  0
  -26.4290  -37.3781   23.9412 N   0  0  0  0  0  0
  -24.6897  -31.0616   22.1002 N   0  0  0  0  0  0
  -23.4212  -28.8144   23.3004 O   0  0  0  0  0  0
  -28.3226  -26.4366   20.1749 O   0  0  0  0  0  0
  -26.5613  -34.8919   22.4669 O   0  0  0  0  0  0
  -23.5430  -32.1404   23.7371 O   0  0  0  0  0  0
  -29.4369  -20.3578   21.5091 C   0  0  0  0  0  0
  -28.9812  -20.0433   19.2256 C   0  0  0  0  0  0
  -29.0079  -20.9553   20.3024 C   0  0  0  0  0  0
  -29.5187  -18.2174   20.5666 C   0  0  0  0  0  0
  -27.9038  -16.6260   21.6504 C   0  0  0  0  0  0
  -31.0501  -16.2024   22.3554 C   0  0  0  0  0  0
  -28.3188  -22.3703   20.1796 C   0  0  0  0  0  0
  -29.0233  -23.7922   20.3501 C   0  0  0  0  0  0
  -28.0321  -24.9921   19.9885 C   0  0  0  0  0  0
  -29.1800  -16.6868   20.7906 C   0  0  2  0  0  0
  -29.6850  -19.0191   21.6280 N   0  0  0  0  0  0
  -29.2105  -18.7109   19.3664 N   0  0  0  0  0  0
  -30.1771  -15.6727   21.3030 N   0  0  0  0  0  0
  -31.4662  -12.5188   19.1426 H   0  0  0  0  0  0
  -30.3543  -11.4202   19.8973 H   0  0  0  0  0  0
  -29.7611  -11.7708   17.4823 H   0  0  0  0  0  0
  -29.6367  -13.4930   17.7417 H   0  0  0  0  0  0
  -27.8634  -11.3059   18.8732 H   0  0  0  0  0  0
  -27.3651  -12.5889   17.8033 H   0  0  0  0  0  0
  -27.6627  -14.2641   19.5336 H   0  0  0  0  0  0
  -28.7236  -12.0649   21.3711 H   0  0  0  0  0  0
  -28.4630  -13.7004   21.8668 H   0  0  0  0  0  0
  -25.2768   -9.5648   22.4791 H   0  0  0  0  0  0
  -23.9993   -7.4608   22.7485 H   0  0  0  0  0  0
  -21.0854   -8.8776   19.8955 H   0  0  0  0  0  0
  -22.3729  -10.9666   19.6182 H   0  0  0  0  0  0
  -21.2001   -7.6145   23.9717 H   0  0  0  0  0  0
  -21.1480   -6.0521   25.9079 H   0  0  0  0  0  0
  -22.0601   -2.7608   23.2849 H   0  0  0  0  0  0
  -22.4066  -11.9849   22.4819 H   0  0  0  0  0  0
  -21.1071  -13.1221   22.2649 H   0  0  0  0  0  0
  -24.5931  -15.8133   20.4411 H   0  0  0  0  0  0
  -26.2102  -15.6267   19.9888 H   0  0  0  0  0  0
  -26.7183  -32.5454   23.1117 H   0  0  0  0  0  0
  -25.0095  -33.9740   25.0445 H   0  0  0  0  0  0
  -22.7146  -31.3072   21.4075 H   0  0  0  0  0  0
  -23.3753  -35.9624   23.3300 H   0  0  0  0  0  0
  -24.3580  -36.8912   22.2052 H   0  0  0  0  0  0
  -23.7240  -37.6496   23.6657 H   0  0  0  0  0  0
  -26.0986  -31.5539   20.6120 H   0  0  0  0  0  0
  -26.8447  -30.8356   22.0086 H   0  0  0  0  0  0
  -28.1123  -28.9658   21.2042 H   0  0  0  0  0  0
  -25.9383  -25.9607   18.9640 H   0  0  0  0  0  0
  -23.9653  -27.3352   18.9949 H   0  0  0  0  0  0
  -23.7559  -30.6073   19.4081 H   0  0  0  0  0  0
  -22.7558  -29.2587   19.8562 H   0  0  0  0  0  0
  -25.1291  -36.1939   25.0823 H   0  0  0  0  0  0
  -20.9988  -28.3246   24.1402 H   0  0  0  0  0  0
  -20.5683  -26.2285   23.3606 H   0  0  0  0  0  0
  -21.6644  -26.7427   22.1197 H   0  0  0  0  0  0
  -19.6911  -25.6290   21.1240 H   0  0  0  0  0  0
  -19.6689  -27.3192   20.6745 H   0  0  0  0  0  0
  -17.4204  -26.6675   21.4027 H   0  0  0  0  0  0
  -18.0326  -26.0060   22.9020 H   0  0  0  0  0  0
  -19.7939  -30.7277   24.2249 H   0  0  0  0  0  0
  -17.5014  -31.6259   24.5161 H   0  0  0  0  0  0
  -15.5354  -30.2971   23.7659 H   0  0  0  0  0  0
  -15.8680  -28.0817   22.7054 H   0  0  0  0  0  0
  -24.5905  -30.7079   25.7799 H   0  0  0  0  0  0
  -24.8912  -32.2908   26.4879 H   0  0  0  0  0  0
  -25.8049  -30.8930   27.0249 H   0  0  0  0  0  0
  -26.2913  -29.6780   24.1208 H   0  0  0  0  0  0
  -27.4023  -29.7268   25.4700 H   0  0  0  0  0  0
  -27.8788  -30.4311   23.9428 H   0  0  0  0  0  0
  -27.2665  -33.3640   26.2074 H   0  0  0  0  0  0
  -28.3869  -32.6887   25.0337 H   0  0  0  0  0  0
  -28.0717  -31.8467   26.5436 H   0  0  0  0  0  0
  -28.2592  -38.0104   24.7517 H   0  0  0  0  0  0
  -28.1081  -36.2636   24.6279 H   0  0  0  0  0  0
  -27.2301  -37.1436   25.8868 H   0  0  0  0  0  0
  -20.9375  -29.8785   21.6916 H   0  0  0  0  0  0
  -26.0172  -38.2854   24.1419 H   0  0  0  0  0  0
  -29.4718  -20.9323   22.4231 H   0  0  0  0  0  0
  -28.6422  -20.3578   18.2495 H   0  0  0  0  0  0
  -27.1063  -17.2160   21.1983 H   0  0  0  0  0  0
  -28.0807  -17.0393   22.6433 H   0  0  0  0  0  0
  -27.5339  -15.6171   21.7919 H   0  0  0  0  0  0
  -30.4792  -16.7599   23.0981 H   0  0  0  0  0  0
  -31.8054  -16.8686   21.9357 H   0  0  0  0  0  0
  -31.5670  -15.4013   22.8875 H   0  0  0  0  0  0
  -27.4827  -22.3447   20.8803 H   0  0  0  0  0  0
  -27.8406  -22.3825   19.1987 H   0  0  0  0  0  0
  -29.9028  -23.8519   19.7085 H   0  0  0  0  0  0
  -29.3768  -23.9050   21.3752 H   0  0  0  0  0  0
  -27.1210  -24.7791   20.5504 H   0  0  0  0  0  0
  -27.7844  -24.8574   18.9348 H   0  0  0  0  0  0
  -28.8912  -16.3183   19.8044 H   0  0  0  0  0  0
  1 25  1  0  0  0
  1 30  2  0  0  0
  1 83  1  0  0  0
  2  3  1  0  0  0
  2 25  1  0  0  0
  2 84  1  0  0  0
  2 85  1  0  0  0
  3  4  1  0  0  0
  3 86  1  0  0  0
  3 87  1  0  0  0
  4  5  1  0  0  0
  4 88  1  0  0  0
  4 89  1  0  0  0
  5  6  1  0  0  0
  5 26  1  0  0  0
  5 90  1  0  0  0
  6 25  1  0  0  0
  6 91  1  0  0  0
  6 92  1  0  0  0
  7  8  2  0  0  0
  7 26  1  0  0  0
  7 29  1  0  0  0
  8  9  1  0  0  0
  8 22  1  0  0  0
  9 10  1  0  0  0
  9 27  2  0  0  0
 10 11  2  0  0  0
 10 15  1  0  0  0
 11 12  1  0  0  0
 11 93  1  0  0  0
 12 13  2  0  0  0
 12 94  1  0  0  0
 13 14  1  0  0  0
 13 31  1  0  0  0
 14 15  2  0  0  0
 14 95  1  0  0  0
 15 96  1  0  0  0
 16 17  2  0  0  0
 16 21  1  0  0  0
 16 31  1  0  0  0
 17 18  1  0  0  0
 17 97  1  0  0  0
 18 19  2  0  0  0
 18 98  1  0  0  0
 19 20  1  0  0  0
 19 24  1  0  0  0
 20 21  2  0  0  0
 20 99  1  0  0  0
 21 23  1  0  0  0
 22 28  1  0  0  0
 22 32  2  0  0  0
 26 27  1  0  0  0
 28100  1  0  0  0
 28101  1  0  0  0
 29102  1  0  0  0
 29103  1  0  0  0
 33 34  1  0  0  0
 33 66  1  0  0  0
 33 70  2  0  0  0
 34 36  1  0  0  0
 34 59  1  0  0  0
 34104  1  0  0  0
 35 44  2  0  0  0
 35 45  1  0  0  0
 35 68  1  0  0  0
 36 56  1  0  0  0
 36105  1  0  0  0
 37 39  1  0  0  0
 37 47  1  0  0  0
 37 66  1  0  0  0
 37106  1  0  0  0
 38 43  2  0  0  0
 38 46  1  0  0  0
 38 47  1  0  0  0
 39 64  1  0  0  0
 39 67  2  0  0  0
 40 52  1  0  0  0
 40 53  2  0  0  0
 40 58  1  0  0  0
 41107  1  0  0  0
 41108  1  0  0  0
 41109  1  0  0  0
 41 48  1  0  0  0
 42 43  1  0  0  0
 42 66  1  0  0  0
 42110  1  0  0  0
 42111  1  0  0  0
 43 44  1  0  0  0
 44112  1  0  0  0
 45 46  2  0  0  0
 45113  1  0  0  0
 46114  1  0  0  0
 47115  1  0  0  0
 47116  1  0  0  0
 48 56  1  0  0  0
 48 65  1  0  0  0
 48117  1  0  0  0
 49 50  1  0  0  0
 49 53  1  0  0  0
 49 64  1  0  0  0
 49118  1  0  0  0
 50 51  1  0  0  0
 50119  1  0  0  0
 50120  1  0  0  0
 51 52  1  0  0  0
 51121  1  0  0  0
 51122  1  0  0  0
 52123  1  0  0  0
 52124  1  0  0  0
 53 54  1  0  0  0
 54 55  2  0  0  0
 54125  1  0  0  0
 55 57  1  0  0  0
 55126  1  0  0  0
 56 69  2  0  0  0
 57 58  2  0  0  0
 57127  1  0  0  0
 58128  1  0  0  0
 59 60  1  0  0  0
 59 61  1  0  0  0
 59 62  1  0  0  0
 60129  1  0  0  0
 60130  1  0  0  0
 60131  1  0  0  0
 61132  1  0  0  0
 61133  1  0  0  0
 61134  1  0  0  0
 62135  1  0  0  0
 62136  1  0  0  0
 62137  1  0  0  0
 63 65  1  0  0  0
 63138  1  0  0  0
 63139  1  0  0  0
 63140  1  0  0  0
 64141  1  0  0  0
 65142  1  0  0  0
 68 79  1  0  0  0
 71 73  2  0  0  0
 71 81  1  0  0  0
 71143  1  0  0  0
 72 73  1  0  0  0
 72 82  2  0  0  0
 72144  1  0  0  0
 73 77  1  0  0  0
 74 80  1  0  0  0
 74 81  2  0  0  0
 74 82  1  0  0  0
 75145  1  0  0  0
 75146  1  0  0  0
 75147  1  0  0  0
 75 80  1  0  0  0
 76 83  1  0  0  0
 76148  1  0  0  0
 76149  1  0  0  0
 76150  1  0  0  0
 77 78  1  0  0  0
 77151  1  0  0  0
 77152  1  0  0  0
 78 79  1  0  0  0
 78153  1  0  0  0
 78154  1  0  0  0
 79155  1  0  0  0
 79156  1  0  0  0
 80 83  1  0  0  0
 80157  1  0  0  0
M  ISO  4   1 100  68 101  79 101  83 100
M  END
> <chiral flag>
0

> <version>
0

> <s_m_source_file>
/data/baiqing/PycharmProjects/Reinvent-master-3.2/result/LINK_invent/BTK/process_docking_weight1_custom_sum_contain_oxygen_bond_distance_aromatic_linkinvent_7_9_3/rearranged_h_0059.sdf

> <i_m_source_file_index>
76

> <r_mmod_Potential_Energy-OPLS-2005>
-216.700653076172

> <r_mmod_Stretch_Energy-OPLS-2005>
85.1892242431641

> <r_mmod_Bend_Energy-OPLS-2005>
175.962493896484

> <r_mmod_Torsional_Energy-OPLS-2005>
281.948333740234

> <r_mmod_Improper_Torsional_Energy-OPLS-2005>
10.9455394744873

> <r_mmod_Van_der_Waal_Energy-OPLS-2005>
158.158935546875

> <r_mmod_Electrostatic_Energy-OPLS-2005>
-767.830993652344

> <r_mmod_Solvation_Energy-OPLS-2005>
-210.984573364258

> <b_mmod_Minimization_Converged-OPLS-2005>
0

> <r_mmod_RMS_Derivative-OPLS-2005>
0.432563841342926

$$$$
78
                    3D
 Structure written by MMmdl.
153161  0  0  1  0            999 V2000
  -30.5998  -14.7897   20.3673 C   0  0  0  0  0  0
  -30.4431  -12.4556   19.4758 C   0  0  0  0  0  0
  -29.5180  -12.3960   18.2394 C   0  0  0  0  0  0
  -28.0324  -12.2901   18.6512 C   0  0  0  0  0  0
  -27.6302  -13.2116   19.8365 C   0  0  2  0  0  0
  -28.6876  -13.2144   20.9591 C   0  0  0  0  0  0
  -25.2519  -13.8130   20.5739 C   0  0  0  0  0  0
  -24.1782  -13.0411   20.9226 C   0  0  0  0  0  0
  -24.6346  -11.6883   20.8778 C   0  0  0  0  0  0
  -23.9020  -10.4276   21.0424 C   0  0  0  0  0  0
  -24.3586   -9.4192   21.9194 C   0  0  0  0  0  0
  -23.6275   -8.2223   22.0751 C   0  0  0  0  0  0
  -22.4257   -8.0265   21.3539 C   0  0  0  0  0  0
  -21.9884   -9.0234   20.4637 C   0  0  0  0  0  0
  -22.7199  -10.2121   20.3061 C   0  0  0  0  0  0
  -21.6847   -6.0723   22.5277 C   0  0  0  0  0  0
  -21.4010   -6.5628   23.8211 C   0  0  0  0  0  0
  -21.3663   -5.6783   24.9175 C   0  0  0  0  0  0
  -21.6051   -4.3047   24.7227 C   0  0  0  0  0  0
  -21.8822   -3.8137   23.4348 C   0  0  0  0  0  0
  -21.9190   -4.6952   22.3402 C   0  0  0  0  0  0
  -22.7811  -13.5225   21.1877 C   0  0  0  0  0  0
  -22.1663   -4.2138   21.0978 F   0  0  0  0  0  0
  -21.5629   -3.4533   25.7740 F   0  0  0  0  0  0
  -29.9745  -13.5592   20.3420 N   0  0  0  0  0  0
  -26.2901  -12.9274   20.3313 N   0  0  0  0  0  0
  -25.9272  -11.6453   20.5817 N   0  0  0  0  0  0
  -22.0449  -12.8230   22.0437 N   0  0  0  0  0  0
  -25.4273  -15.1853   20.4186 N   0  0  0  0  0  0
  -31.8285  -14.8492   20.2668 O   0  0  0  0  0  0
  -21.6630   -6.8858   21.4234 O   0  0  0  0  0  0
  -22.3512  -14.5535   20.6710 O   0  0  0  0  0  0
  -24.6304  -31.8554   23.1977 C   0  0  0  0  0  0
  -25.9134  -32.4755   23.8327 C   0  0  1  0  0  0
  -27.2268  -27.2721   20.1443 C   0  0  0  0  0  0
  -25.5936  -33.8556   24.2257 N   0  0  0  0  0  0
  -23.4271  -30.4762   21.5406 C   0  0  2  0  0  0
  -24.8764  -28.9179   20.1158 C   0  0  0  0  0  0
  -22.7495  -29.4609   22.4920 C   0  0  0  0  0  0
  -18.0293  -28.1390   22.8485 C   0  0  0  0  0  0
  -24.1491  -36.7287   23.2640 C   0  0  0  0  0  0
  -25.9703  -30.7739   21.3740 C   0  0  0  0  0  0
  -26.0465  -29.3945   20.7216 C   0  0  0  0  0  0
  -27.2267  -28.5863   20.7188 C   0  0  0  0  0  0
  -26.0379  -26.8560   19.5105 C   0  0  0  0  0  0
  -24.8765  -27.6564   19.4978 C   0  0  0  0  0  0
  -23.6463  -29.8048   20.1588 C   0  0  0  0  0  0
  -25.4118  -36.3072   24.0327 C   0  0  1  0  0  0
  -20.5894  -28.3705   23.1271 C   0  0  2  0  0  0
  -20.6786  -26.9421   22.5414 C   0  0  0  0  0  0
  -19.5764  -26.6384   21.5215 C   0  0  0  0  0  0
  -18.1940  -26.7932   22.1621 C   0  0  0  0  0  0
  -19.1545  -28.8862   23.2873 C   0  0  0  0  0  0
  -18.9465  -30.1461   23.8893 C   0  0  0  0  0  0
  -17.6463  -30.6587   24.0565 C   0  0  0  0  0  0
  -25.9056  -34.9440   23.5094 C   0  0  0  0  0  0
  -16.5355  -29.9084   23.6328 C   0  0  0  0  0  0
  -16.7279  -28.6503   23.0349 C   0  0  0  0  0  0
  -26.4503  -31.6575   25.0712 C   0  0  0  0  0  0
  -25.3728  -31.3723   26.1432 C   0  0  0  0  0  0
  -27.0357  -30.2999   24.6188 C   0  0  0  0  0  0
  -27.6057  -32.4315   25.7491 C   0  0  0  0  0  0
  -27.5582  -37.1800   24.8462 C   0  0  0  0  0  0
  -21.4204  -29.3048   22.3658 N   0  0  0  0  0  0
  -26.4294  -37.3770   23.9405 N   0  0  0  0  0  0
  -24.6950  -31.0532   22.0944 N   0  0  0  0  0  0
  -23.4194  -28.8155   23.3025 O   0  0  0  0  0  0
  -28.3371  -26.4026   20.1554 O   0  0  0  0  0  0
  -26.5624  -34.8914   22.4660 O   0  0  0  0  0  0
  -23.5460  -32.1373   23.7280 O   0  0  0  0  0  0
  -29.3293  -21.9324   21.8741 C   0  0  0  0  0  0
  -29.4646  -20.5575   21.8869 C   0  0  0  0  0  0
  -29.0771  -22.3135   20.5201 C   0  0  0  0  0  0
  -29.2442  -16.0662   18.8282 C   0  0  0  0  0  0
  -28.9513  -23.7678   19.8834 C   0  0  0  0  0  0
  -29.2418  -18.6329   20.0914 C   0  0  0  0  0  0
  -30.0907  -17.3741   20.7090 C   0  0  0  0  0  0
  -28.1732  -24.9795   20.6183 C   0  0  0  0  0  0
  -29.0780  -21.1673   19.7799 N   0  0  0  0  0  0
  -29.3333  -20.0688   20.6000 N   0  0  0  0  0  0
  -29.8257  -15.9475   20.1748 N   0  0  0  0  0  0
  -31.4792  -12.5951   19.1621 H   0  0  0  0  0  0
  -30.4162  -11.5108   20.0222 H   0  0  0  0  0  0
  -29.7820  -11.5277   17.6338 H   0  0  0  0  0  0
  -29.6886  -13.2461   17.5835 H   0  0  0  0  0  0
  -27.8617  -11.2501   18.9319 H   0  0  0  0  0  0
  -27.3878  -12.4766   17.7910 H   0  0  0  0  0  0
  -27.5737  -14.2126   19.4273 H   0  0  0  0  0  0
  -28.7416  -12.2430   21.4526 H   0  0  0  0  0  0
  -28.4248  -13.9439   21.7277 H   0  0  0  0  0  0
  -25.2729   -9.5674   22.4771 H   0  0  0  0  0  0
  -23.9988   -7.4606   22.7463 H   0  0  0  0  0  0
  -21.0823   -8.8746   19.8933 H   0  0  0  0  0  0
  -22.3656  -10.9665   19.6174 H   0  0  0  0  0  0
  -21.2001   -7.6136   23.9711 H   0  0  0  0  0  0
  -21.1486   -6.0514   25.9078 H   0  0  0  0  0  0
  -22.0598   -2.7597   23.2852 H   0  0  0  0  0  0
  -22.4066  -11.9889   22.4822 H   0  0  0  0  0  0
  -21.1061  -13.1247   22.2632 H   0  0  0  0  0  0
  -24.6701  -15.8491   20.5412 H   0  0  0  0  0  0
  -26.2979  -15.6228   20.1447 H   0  0  0  0  0  0
  -26.7201  -32.5415   23.1070 H   0  0  0  0  0  0
  -25.0098  -33.9688   25.0414 H   0  0  0  0  0  0
  -22.7238  -31.2984   21.3918 H   0  0  0  0  0  0
  -23.3754  -35.9619   23.3296 H   0  0  0  0  0  0
  -24.3581  -36.8918   22.2055 H   0  0  0  0  0  0
  -23.7241  -37.6485   23.6667 H   0  0  0  0  0  0
  -26.1038  -31.5328   20.6021 H   0  0  0  0  0  0
  -26.8493  -30.8271   22.0049 H   0  0  0  0  0  0
  -28.1263  -28.9512   21.1947 H   0  0  0  0  0  0
  -26.0002  -25.8911   19.0256 H   0  0  0  0  0  0
  -23.9825  -27.2873   19.0143 H   0  0  0  0  0  0
  -23.7721  -30.5787   19.4009 H   0  0  0  0  0  0
  -22.7654  -29.2379   19.8535 H   0  0  0  0  0  0
  -25.1300  -36.1923   25.0819 H   0  0  0  0  0  0
  -20.9986  -28.3288   24.1392 H   0  0  0  0  0  0
  -20.5689  -26.2315   23.3621 H   0  0  0  0  0  0
  -21.6654  -26.7451   22.1204 H   0  0  0  0  0  0
  -19.6928  -25.6289   21.1256 H   0  0  0  0  0  0
  -19.6704  -27.3186   20.6739 H   0  0  0  0  0  0
  -17.4214  -26.6685   21.4017 H   0  0  0  0  0  0
  -18.0335  -26.0070   22.9013 H   0  0  0  0  0  0
  -19.7941  -30.7281   24.2264 H   0  0  0  0  0  0
  -17.5015  -31.6265   24.5173 H   0  0  0  0  0  0
  -15.5355  -30.2986   23.7649 H   0  0  0  0  0  0
  -15.8683  -28.0818   22.7067 H   0  0  0  0  0  0
  -24.5895  -30.7084   25.7749 H   0  0  0  0  0  0
  -24.8929  -32.2897   26.4856 H   0  0  0  0  0  0
  -25.8040  -30.8890   27.0209 H   0  0  0  0  0  0
  -26.2941  -29.6735   24.1218 H   0  0  0  0  0  0
  -27.4058  -29.7266   25.4698 H   0  0  0  0  0  0
  -27.8804  -30.4279   23.9415 H   0  0  0  0  0  0
  -27.2663  -33.3613   26.2066 H   0  0  0  0  0  0
  -28.3874  -32.6879   25.0327 H   0  0  0  0  0  0
  -28.0721  -31.8444   26.5413 H   0  0  0  0  0  0
  -28.2594  -38.0102   24.7513 H   0  0  0  0  0  0
  -28.1084  -36.2633   24.6284 H   0  0  0  0  0  0
  -27.2298  -37.1443   25.8864 H   0  0  0  0  0  0
  -20.9395  -29.8763   21.6852 H   0  0  0  0  0  0
  -26.0175  -38.2846   24.1402 H   0  0  0  0  0  0
  -29.4117  -22.5833   22.7332 H   0  0  0  0  0  0
  -29.6364  -19.8846   22.7154 H   0  0  0  0  0  0
  -28.2364  -16.4790   18.8612 H   0  0  0  0  0  0
  -29.1696  -15.1312   18.2885 H   0  0  0  0  0  0
  -29.8670  -16.6981   18.1939 H   0  0  0  0  0  0
  -28.5192  -23.6716   18.8877 H   0  0  0  0  0  0
  -29.9669  -24.1215   19.7046 H   0  0  0  0  0  0
  -28.1852  -18.3742   20.1666 H   0  0  0  0  0  0
  -29.4486  -18.6990   19.0239 H   0  0  0  0  0  0
  -29.9322  -17.3440   21.7877 H   0  0  0  0  0  0
  -31.1533  -17.5826   20.5770 H   0  0  0  0  0  0
  -28.5135  -24.9876   21.6538 H   0  0  0  0  0  0
  -27.1187  -24.7131   20.6823 H   0  0  0  0  0  0
  1 25  1  0  0  0
  1 30  2  0  0  0
  1 81  1  0  0  0
  2  3  1  0  0  0
  2 25  1  0  0  0
  2 82  1  0  0  0
  2 83  1  0  0  0
  3  4  1  0  0  0
  3 84  1  0  0  0
  3 85  1  0  0  0
  4  5  1  0  0  0
  4 86  1  0  0  0
  4 87  1  0  0  0
  5  6  1  0  0  0
  5 26  1  0  0  0
  5 88  1  0  0  0
  6 25  1  0  0  0
  6 89  1  0  0  0
  6 90  1  0  0  0
  7  8  2  0  0  0
  7 26  1  0  0  0
  7 29  1  0  0  0
  8  9  1  0  0  0
  8 22  1  0  0  0
  9 10  1  0  0  0
  9 27  2  0  0  0
 10 11  2  0  0  0
 10 15  1  0  0  0
 11 12  1  0  0  0
 11 91  1  0  0  0
 12 13  2  0  0  0
 12 92  1  0  0  0
 13 14  1  0  0  0
 13 31  1  0  0  0
 14 15  2  0  0  0
 14 93  1  0  0  0
 15 94  1  0  0  0
 16 17  2  0  0  0
 16 21  1  0  0  0
 16 31  1  0  0  0
 17 18  1  0  0  0
 17 95  1  0  0  0
 18 19  2  0  0  0
 18 96  1  0  0  0
 19 20  1  0  0  0
 19 24  1  0  0  0
 20 21  2  0  0  0
 20 97  1  0  0  0
 21 23  1  0  0  0
 22 28  1  0  0  0
 22 32  2  0  0  0
 26 27  1  0  0  0
 28 98  1  0  0  0
 28 99  1  0  0  0
 29100  1  0  0  0
 29101  1  0  0  0
 33 34  1  0  0  0
 33 66  1  0  0  0
 33 70  2  0  0  0
 34 36  1  0  0  0
 34 59  1  0  0  0
 34102  1  0  0  0
 35 44  2  0  0  0
 35 45  1  0  0  0
 35 68  1  0  0  0
 36 56  1  0  0  0
 36103  1  0  0  0
 37 39  1  0  0  0
 37 47  1  0  0  0
 37 66  1  0  0  0
 37104  1  0  0  0
 38 43  2  0  0  0
 38 46  1  0  0  0
 38 47  1  0  0  0
 39 64  1  0  0  0
 39 67  2  0  0  0
 40 52  1  0  0  0
 40 53  2  0  0  0
 40 58  1  0  0  0
 41105  1  0  0  0
 41106  1  0  0  0
 41107  1  0  0  0
 41 48  1  0  0  0
 42 43  1  0  0  0
 42 66  1  0  0  0
 42108  1  0  0  0
 42109  1  0  0  0
 43 44  1  0  0  0
 44110  1  0  0  0
 45 46  2  0  0  0
 45111  1  0  0  0
 46112  1  0  0  0
 47113  1  0  0  0
 47114  1  0  0  0
 48 56  1  0  0  0
 48 65  1  0  0  0
 48115  1  0  0  0
 49 50  1  0  0  0
 49 53  1  0  0  0
 49 64  1  0  0  0
 49116  1  0  0  0
 50 51  1  0  0  0
 50117  1  0  0  0
 50118  1  0  0  0
 51 52  1  0  0  0
 51119  1  0  0  0
 51120  1  0  0  0
 52121  1  0  0  0
 52122  1  0  0  0
 53 54  1  0  0  0
 54 55  2  0  0  0
 54123  1  0  0  0
 55 57  1  0  0  0
 55124  1  0  0  0
 56 69  2  0  0  0
 57 58  2  0  0  0
 57125  1  0  0  0
 58126  1  0  0  0
 59 60  1  0  0  0
 59 61  1  0  0  0
 59 62  1  0  0  0
 60127  1  0  0  0
 60128  1  0  0  0
 60129  1  0  0  0
 61130  1  0  0  0
 61131  1  0  0  0
 61132  1  0  0  0
 62133  1  0  0  0
 62134  1  0  0  0
 62135  1  0  0  0
 63 65  1  0  0  0
 63136  1  0  0  0
 63137  1  0  0  0
 63138  1  0  0  0
 64139  1  0  0  0
 65140  1  0  0  0
 68 78  1  0  0  0
 71 72  2  0  0  0
 71 73  1  0  0  0
 71141  1  0  0  0
 72 80  1  0  0  0
 72142  1  0  0  0
 73 75  1  0  0  0
 73 79  2  0  0  0
 74 81  1  0  0  0
 74143  1  0  0  0
 74144  1  0  0  0
 74145  1  0  0  0
 75 78  1  0  0  0
 75146  1  0  0  0
 75147  1  0  0  0
 76 77  1  0  0  0
 76 80  1  0  0  0
 76148  1  0  0  0
 76149  1  0  0  0
 77 81  1  0  0  0
 77150  1  0  0  0
 77151  1  0  0  0
 78152  1  0  0  0
 78153  1  0  0  0
 79 80  1  0  0  0
M  ISO  4   1 100  68 101  78 101  81 100
M  END
> <chiral flag>
0

> <version>
0

> <s_m_source_file>
/data/baiqing/PycharmProjects/Reinvent-master-3.2/result/LINK_invent/BTK/process_docking_weight1_custom_sum_contain_oxygen_bond_distance_aromatic_linkinvent_7_9_3/rearranged_h_0059.sdf

> <i_m_source_file_index>
77

> <r_mmod_Potential_Energy-OPLS-2005>
345.969696044922

> <r_mmod_Stretch_Energy-OPLS-2005>
128.207168579102

> <r_mmod_Bend_Energy-OPLS-2005>
175.209823608398

> <r_mmod_Torsional_Energy-OPLS-2005>
325.630218505859

> <r_mmod_Improper_Torsional_Energy-OPLS-2005>
11.9545316696167

> <r_mmod_Van_der_Waal_Energy-OPLS-2005>
125.358070373535

> <r_mmod_Electrostatic_Energy-OPLS-2005>
-303.734283447266

> <r_mmod_Solvation_Energy-OPLS-2005>
-219.096405029297

> <b_mmod_Minimization_Converged-OPLS-2005>
0

> <r_mmod_RMS_Derivative-OPLS-2005>
0.986710429191589

$$$$
79
                    3D
 Structure written by MMmdl.
160168  0  0  1  0            999 V2000
  -30.5036  -14.9981   20.3927 C   0  0  0  0  0  0
  -30.4444  -12.6160   19.4767 C   0  0  0  0  0  0
  -29.5156  -12.5087   18.2438 C   0  0  0  0  0  0
  -28.0488  -12.3009   18.6698 C   0  0  0  0  0  0
  -27.6232  -13.2451   19.8239 C   0  0  2  0  0  0
  -28.6719  -13.2929   20.9523 C   0  0  0  0  0  0
  -25.2469  -13.8200   20.5707 C   0  0  0  0  0  0
  -24.1799  -13.0422   20.9244 C   0  0  0  0  0  0
  -24.6410  -11.6920   20.8763 C   0  0  0  0  0  0
  -23.9095  -10.4279   21.0418 C   0  0  0  0  0  0
  -24.3629   -9.4193   21.9200 C   0  0  0  0  0  0
  -23.6307   -8.2240   22.0759 C   0  0  0  0  0  0
  -22.4290   -8.0285   21.3541 C   0  0  0  0  0  0
  -21.9934   -9.0262   20.4644 C   0  0  0  0  0  0
  -22.7273  -10.2140   20.3059 C   0  0  0  0  0  0
  -21.6859   -6.0738   22.5286 C   0  0  0  0  0  0
  -21.4008   -6.5643   23.8214 C   0  0  0  0  0  0
  -21.3651   -5.6800   24.9177 C   0  0  0  0  0  0
  -21.6039   -4.3060   24.7231 C   0  0  0  0  0  0
  -21.8822   -3.8150   23.4353 C   0  0  0  0  0  0
  -21.9200   -4.6966   22.3409 C   0  0  0  0  0  0
  -22.7829  -13.5197   21.1905 C   0  0  0  0  0  0
  -22.1673   -4.2153   21.0984 F   0  0  0  0  0  0
  -21.5626   -3.4546   25.7741 F   0  0  0  0  0  0
  -29.9312  -13.7255   20.3316 N   0  0  0  0  0  0
  -26.2860  -12.9428   20.3198 N   0  0  0  0  0  0
  -25.9331  -11.6542   20.5730 N   0  0  0  0  0  0
  -22.0480  -12.8174   22.0448 N   0  0  0  0  0  0
  -25.4139  -15.1932   20.4068 N   0  0  0  0  0  0
  -31.7265  -15.0701   20.2289 O   0  0  0  0  0  0
  -21.6642   -6.8889   21.4245 O   0  0  0  0  0  0
  -22.3519  -14.5521   20.6779 O   0  0  0  0  0  0
  -24.6524  -31.8325   23.1813 C   0  0  0  0  0  0
  -25.9267  -32.4628   23.8220 C   0  0  1  0  0  0
  -27.2025  -27.0530   20.1373 C   0  0  0  0  0  0
  -25.5985  -33.8448   24.2153 N   0  0  0  0  0  0
  -23.4573  -30.4557   21.5291 C   0  0  2  0  0  0
  -24.9019  -28.8772   20.0990 C   0  0  0  0  0  0
  -22.7609  -29.4483   22.4789 C   0  0  0  0  0  0
  -18.0308  -28.1409   22.8447 C   0  0  0  0  0  0
  -24.1466  -36.7216   23.2650 C   0  0  0  0  0  0
  -26.0198  -30.6797   21.3907 C   0  0  0  0  0  0
  -26.0814  -29.2874   20.7271 C   0  0  0  0  0  0
  -27.2247  -28.3894   20.7390 C   0  0  0  0  0  0
  -25.9934  -26.7721   19.4624 C   0  0  0  0  0  0
  -24.8746  -27.6348   19.4560 C   0  0  0  0  0  0
  -23.6862  -29.7917   20.1467 C   0  0  0  0  0  0
  -25.4106  -36.3005   24.0307 C   0  0  1  0  0  0
  -20.5936  -28.3717   23.1209 C   0  0  2  0  0  0
  -20.6794  -26.9406   22.5404 C   0  0  0  0  0  0
  -19.5777  -26.6369   21.5230 C   0  0  0  0  0  0
  -18.1949  -26.7952   22.1610 C   0  0  0  0  0  0
  -19.1573  -28.8880   23.2819 C   0  0  0  0  0  0
  -18.9506  -30.1476   23.8845 C   0  0  0  0  0  0
  -17.6509  -30.6600   24.0546 C   0  0  0  0  0  0
  -25.9075  -34.9372   23.5043 C   0  0  0  0  0  0
  -16.5394  -29.9084   23.6350 C   0  0  0  0  0  0
  -16.7302  -28.6525   23.0361 C   0  0  0  0  0  0
  -26.4574  -31.6542   25.0703 C   0  0  0  0  0  0
  -25.3738  -31.3736   26.1375 C   0  0  0  0  0  0
  -27.0475  -30.2932   24.6321 C   0  0  0  0  0  0
  -27.6077  -32.4341   25.7498 C   0  0  0  0  0  0
  -27.5552  -37.1750   24.8488 C   0  0  0  0  0  0
  -21.4283  -29.3035   22.3554 N   0  0  0  0  0  0
  -26.4267  -37.3722   23.9428 N   0  0  0  0  0  0
  -24.7316  -31.0087   22.0899 N   0  0  0  0  0  0
  -23.4194  -28.8003   23.2968 O   0  0  0  0  0  0
  -28.2255  -26.0141   20.2559 O   0  0  0  0  0  0
  -26.5673  -34.8888   22.4632 O   0  0  0  0  0  0
  -23.5628  -32.1228   23.6991 O   0  0  0  0  0  0
  -28.2689  -22.5195   21.5253 C   0  0  0  0  0  0
  -28.4987  -23.0509   20.2722 C   0  0  0  0  0  0
  -28.9587  -20.6467   20.3619 C   0  0  0  0  0  0
  -27.0062  -19.4608   22.7061 C   0  0  0  0  0  0
  -30.2249  -19.1341   18.6929 C   0  0  0  0  0  0
  -27.9027  -18.5206   19.2717 C   0  0  0  0  0  0
  -28.2001  -24.5604   19.6101 C   0  0  0  0  0  0
  -28.3033  -20.2917   22.7452 C   0  0  0  0  0  0
  -29.8212  -17.7296   20.7811 C   0  0  0  0  0  0
  -29.2258  -19.0475   19.8618 C   0  0  0  0  0  0
  -28.5186  -21.1317   21.5535 N   0  0  0  0  0  0
  -28.9098  -21.8320   19.6028 N   0  3  0  0  0  0
  -29.6751  -16.1668   20.4417 N   0  0  0  0  0  0
  -31.4698  -12.7959   19.1501 H   0  0  0  0  0  0
  -30.4665  -11.6754   20.0303 H   0  0  0  0  0  0
  -29.8313  -11.6828   17.6053 H   0  0  0  0  0  0
  -29.5977  -13.4132   17.6371 H   0  0  0  0  0  0
  -27.9465  -11.2637   18.9916 H   0  0  0  0  0  0
  -27.3836  -12.4194   17.8127 H   0  0  0  0  0  0
  -27.5785  -14.2383   19.3764 H   0  0  0  0  0  0
  -28.7757  -12.3191   21.4360 H   0  0  0  0  0  0
  -28.3682  -14.0005   21.7247 H   0  0  0  0  0  0
  -25.2760   -9.5688   22.4794 H   0  0  0  0  0  0
  -24.0017   -7.4619   22.7478 H   0  0  0  0  0  0
  -21.0871   -8.8778   19.8944 H   0  0  0  0  0  0
  -22.3726  -10.9682   19.6176 H   0  0  0  0  0  0
  -21.1994   -7.6153   23.9726 H   0  0  0  0  0  0
  -21.1467   -6.0523   25.9082 H   0  0  0  0  0  0
  -22.0608   -2.7613   23.2852 H   0  0  0  0  0  0
  -22.4098  -11.9786   22.4758 H   0  0  0  0  0  0
  -21.1102  -13.1185   22.2686 H   0  0  0  0  0  0
  -24.6373  -15.8372   20.5043 H   0  0  0  0  0  0
  -26.2309  -15.6215   19.9963 H   0  0  0  0  0  0
  -26.7283  -32.5200   23.0887 H   0  0  0  0  0  0
  -25.0219  -33.9552   25.0367 H   0  0  0  0  0  0
  -22.7687  -31.2898   21.3724 H   0  0  0  0  0  0
  -23.3760  -35.9534   23.3338 H   0  0  0  0  0  0
  -24.3537  -36.8838   22.2067 H   0  0  0  0  0  0
  -23.7187  -37.6384   23.6692 H   0  0  0  0  0  0
  -26.1884  -31.4330   20.6188 H   0  0  0  0  0  0
  -26.8882  -30.7172   22.0381 H   0  0  0  0  0  0
  -28.1136  -28.6947   21.2716 H   0  0  0  0  0  0
  -25.8381  -25.8344   18.9596 H   0  0  0  0  0  0
  -23.9727  -27.3104   18.9565 H   0  0  0  0  0  0
  -23.8298  -30.5706   19.3987 H   0  0  0  0  0  0
  -22.7951  -29.2461   19.8297 H   0  0  0  0  0  0
  -25.1286  -36.1809   25.0793 H   0  0  0  0  0  0
  -21.0021  -28.3321   24.1335 H   0  0  0  0  0  0
  -20.5726  -26.2312   23.3607 H   0  0  0  0  0  0
  -21.6638  -26.7429   22.1174 H   0  0  0  0  0  0
  -19.6935  -25.6293   21.1244 H   0  0  0  0  0  0
  -19.6740  -27.3183   20.6774 H   0  0  0  0  0  0
  -17.4219  -26.6727   21.3995 H   0  0  0  0  0  0
  -18.0281  -26.0127   22.9024 H   0  0  0  0  0  0
  -19.8004  -30.7285   24.2172 H   0  0  0  0  0  0
  -17.5096  -31.6282   24.5156 H   0  0  0  0  0  0
  -15.5405  -30.2984   23.7737 H   0  0  0  0  0  0
  -15.8689  -28.0835   22.7099 H   0  0  0  0  0  0
  -24.5980  -30.6983   25.7715 H   0  0  0  0  0  0
  -24.8850  -32.2904   26.4688 H   0  0  0  0  0  0
  -25.8010  -30.9010   27.0224 H   0  0  0  0  0  0
  -26.3119  -29.6604   24.1304 H   0  0  0  0  0  0
  -27.4115  -29.7242   25.4905 H   0  0  0  0  0  0
  -27.8992  -30.4217   23.9627 H   0  0  0  0  0  0
  -27.2660  -33.3737   26.1854 H   0  0  0  0  0  0
  -28.3958  -32.6760   25.0353 H   0  0  0  0  0  0
  -28.0598  -31.8577   26.5563 H   0  0  0  0  0  0
  -28.2562  -38.0052   24.7535 H   0  0  0  0  0  0
  -28.1048  -36.2579   24.6329 H   0  0  0  0  0  0
  -27.2268  -37.1413   25.8890 H   0  0  0  0  0  0
  -20.9485  -29.8800   21.6776 H   0  0  0  0  0  0
  -26.0135  -38.2769   24.1502 H   0  0  0  0  0  0
  -27.8915  -23.0399   22.3968 H   0  0  0  0  0  0
  -26.6772  -19.2021   23.7134 H   0  0  0  0  0  0
  -27.1471  -18.5147   22.1892 H   0  0  0  0  0  0
  -26.1840  -19.9973   22.2291 H   0  0  0  0  0  0
  -29.8556  -19.7532   17.8763 H   0  0  0  0  0  0
  -30.4428  -18.1500   18.2731 H   0  0  0  0  0  0
  -31.1707  -19.5593   19.0265 H   0  0  0  0  0  0
  -27.4550  -19.2313   18.5770 H   0  0  0  0  0  0
  -27.1628  -18.3087   20.0416 H   0  0  0  0  0  0
  -28.0592  -17.5925   18.7184 H   0  0  0  0  0  0
  -27.2693  -24.4294   19.0710 H   0  0  0  0  0  0
  -28.9337  -24.6580   18.8081 H   0  0  0  0  0  0
  -29.1771  -19.6630   22.9059 H   0  0  0  0  0  0
  -28.2603  -20.9613   23.6062 H   0  0  0  0  0  0
  -29.3031  -17.7843   21.7362 H   0  0  0  0  0  0
  -30.8600  -17.9282   21.0427 H   0  0  0  0  0  0
  -29.1124  -21.8293   18.6110 H   0  0  0  0  0  0
  -28.7066  -15.8956   20.3806 H   0  0  0  0  0  0
  1 25  1  0  0  0
  1 30  2  0  0  0
  1 83  1  0  0  0
  2  3  1  0  0  0
  2 25  1  0  0  0
  2 84  1  0  0  0
  2 85  1  0  0  0
  3  4  1  0  0  0
  3 86  1  0  0  0
  3 87  1  0  0  0
  4  5  1  0  0  0
  4 88  1  0  0  0
  4 89  1  0  0  0
  5  6  1  0  0  0
  5 26  1  0  0  0
  5 90  1  0  0  0
  6 25  1  0  0  0
  6 91  1  0  0  0
  6 92  1  0  0  0
  7  8  2  0  0  0
  7 26  1  0  0  0
  7 29  1  0  0  0
  8  9  1  0  0  0
  8 22  1  0  0  0
  9 10  1  0  0  0
  9 27  2  0  0  0
 10 11  2  0  0  0
 10 15  1  0  0  0
 11 12  1  0  0  0
 11 93  1  0  0  0
 12 13  2  0  0  0
 12 94  1  0  0  0
 13 14  1  0  0  0
 13 31  1  0  0  0
 14 15  2  0  0  0
 14 95  1  0  0  0
 15 96  1  0  0  0
 16 17  2  0  0  0
 16 21  1  0  0  0
 16 31  1  0  0  0
 17 18  1  0  0  0
 17 97  1  0  0  0
 18 19  2  0  0  0
 18 98  1  0  0  0
 19 20  1  0  0  0
 19 24  1  0  0  0
 20 21  2  0  0  0
 20 99  1  0  0  0
 21 23  1  0  0  0
 22 28  1  0  0  0
 22 32  2  0  0  0
 26 27  1  0  0  0
 28100  1  0  0  0
 28101  1  0  0  0
 29102  1  0  0  0
 29103  1  0  0  0
 33 34  1  0  0  0
 33 66  1  0  0  0
 33 70  2  0  0  0
 34 36  1  0  0  0
 34 59  1  0  0  0
 34104  1  0  0  0
 35 44  2  0  0  0
 35 45  1  0  0  0
 35 68  1  0  0  0
 36 56  1  0  0  0
 36105  1  0  0  0
 37 39  1  0  0  0
 37 47  1  0  0  0
 37 66  1  0  0  0
 37106  1  0  0  0
 38 43  2  0  0  0
 38 46  1  0  0  0
 38 47  1  0  0  0
 39 64  1  0  0  0
 39 67  2  0  0  0
 40 52  1  0  0  0
 40 53  2  0  0  0
 40 58  1  0  0  0
 41107  1  0  0  0
 41108  1  0  0  0
 41109  1  0  0  0
 41 48  1  0  0  0
 42 43  1  0  0  0
 42 66  1  0  0  0
 42110  1  0  0  0
 42111  1  0  0  0
 43 44  1  0  0  0
 44112  1  0  0  0
 45 46  2  0  0  0
 45113  1  0  0  0
 46114  1  0  0  0
 47115  1  0  0  0
 47116  1  0  0  0
 48 56  1  0  0  0
 48 65  1  0  0  0
 48117  1  0  0  0
 49 50  1  0  0  0
 49 53  1  0  0  0
 49 64  1  0  0  0
 49118  1  0  0  0
 50 51  1  0  0  0
 50119  1  0  0  0
 50120  1  0  0  0
 51 52  1  0  0  0
 51121  1  0  0  0
 51122  1  0  0  0
 52123  1  0  0  0
 52124  1  0  0  0
 53 54  1  0  0  0
 54 55  2  0  0  0
 54125  1  0  0  0
 55 57  1  0  0  0
 55126  1  0  0  0
 56 69  2  0  0  0
 57 58  2  0  0  0
 57127  1  0  0  0
 58128  1  0  0  0
 59 60  1  0  0  0
 59 61  1  0  0  0
 59 62  1  0  0  0
 60129  1  0  0  0
 60130  1  0  0  0
 60131  1  0  0  0
 61132  1  0  0  0
 61133  1  0  0  0
 61134  1  0  0  0
 62135  1  0  0  0
 62136  1  0  0  0
 62137  1  0  0  0
 63 65  1  0  0  0
 63138  1  0  0  0
 63139  1  0  0  0
 63140  1  0  0  0
 64141  1  0  0  0
 65142  1  0  0  0
 68 77  1  0  0  0
 71 72  2  0  0  0
 71 81  1  0  0  0
 71143  1  0  0  0
 72 77  1  0  0  0
 72 82  1  0  0  0
 73 80  1  0  0  0
 73 81  1  0  0  0
 73 82  2  0  0  0
 74 78  1  0  0  0
 74144  1  0  0  0
 74145  1  0  0  0
 74146  1  0  0  0
 75147  1  0  0  0
 75148  1  0  0  0
 75149  1  0  0  0
 75 80  1  0  0  0
 76 80  1  0  0  0
 76150  1  0  0  0
 76151  1  0  0  0
 76152  1  0  0  0
 77153  1  0  0  0
 77154  1  0  0  0
 78 81  1  0  0  0
 78155  1  0  0  0
 78156  1  0  0  0
 79 80  1  0  0  0
 79 83  1  0  0  0
 79157  1  0  0  0
 79158  1  0  0  0
 82159  1  0  0  0
 83160  1  0  0  0
M  CHG  1  82   1
M  ISO  4   1 100  68 101  77 101  83 100
M  END
> <chiral flag>
0

> <version>
0

> <s_m_source_file>
/data/baiqing/PycharmProjects/Reinvent-master-3.2/result/LINK_invent/BTK/process_docking_weight1_custom_sum_contain_oxygen_bond_distance_aromatic_linkinvent_7_9_3/rearranged_h_0059.sdf

> <i_m_source_file_index>
78

> <r_mmod_Potential_Energy-OPLS-2005>
593.901245117188

> <r_mmod_Stretch_Energy-OPLS-2005>
336.472106933594

> <r_mmod_Bend_Energy-OPLS-2005>
313.262481689453

> <r_mmod_Torsional_Energy-OPLS-2005>
268.244720458984

> <r_mmod_Improper_Torsional_Energy-OPLS-2005>
6.36030578613281

> <r_mmod_Van_der_Waal_Energy-OPLS-2005>
106.215782165527

> <r_mmod_Electrostatic_Energy-OPLS-2005>
-267.006683349609

> <r_mmod_Solvation_Energy-OPLS-2005>
-426.596496582031

> <b_mmod_Minimization_Converged-OPLS-2005>
0

> <r_mmod_RMS_Derivative-OPLS-2005>
4.78246307373047

$$$$
80
                    3D
 Structure written by MMmdl.
153161  0  0  1  0            999 V2000
  -30.5973  -14.7375   20.4580 C   0  0  0  0  0  0
  -30.4427  -12.4463   19.4834 C   0  0  0  0  0  0
  -29.5230  -12.5121   18.2426 C   0  0  0  0  0  0
  -28.0443  -12.3395   18.6462 C   0  0  0  0  0  0
  -27.6488  -13.2291   19.8562 C   0  0  2  0  0  0
  -28.6910  -13.1418   20.9940 C   0  0  0  0  0  0
  -25.2535  -13.8188   20.5637 C   0  0  0  0  0  0
  -24.1811  -13.0448   20.9162 C   0  0  0  0  0  0
  -24.6399  -11.6913   20.8728 C   0  0  0  0  0  0
  -23.9067  -10.4294   21.0399 C   0  0  0  0  0  0
  -24.3615   -9.4207   21.9183 C   0  0  0  0  0  0
  -23.6272   -8.2252   22.0766 C   0  0  0  0  0  0
  -22.4255   -8.0278   21.3563 C   0  0  0  0  0  0
  -21.9891   -9.0253   20.4663 C   0  0  0  0  0  0
  -22.7241  -10.2118   20.3065 C   0  0  0  0  0  0
  -21.6849   -6.0725   22.5267 C   0  0  0  0  0  0
  -21.4021   -6.5627   23.8202 C   0  0  0  0  0  0
  -21.3659   -5.6780   24.9155 C   0  0  0  0  0  0
  -21.6032   -4.3044   24.7229 C   0  0  0  0  0  0
  -21.8821   -3.8133   23.4352 C   0  0  0  0  0  0
  -21.9192   -4.6950   22.3400 C   0  0  0  0  0  0
  -22.7828  -13.5242   21.1803 C   0  0  0  0  0  0
  -22.1657   -4.2137   21.0982 F   0  0  0  0  0  0
  -21.5630   -3.4529   25.7748 F   0  0  0  0  0  0
  -29.9990  -13.4963   20.4273 N   0  0  0  0  0  0
  -26.2959  -12.9391   20.3252 N   0  0  0  0  0  0
  -25.9328  -11.6531   20.5726 N   0  0  0  0  0  0
  -22.0455  -12.8272   22.0378 N   0  0  0  0  0  0
  -25.4275  -15.1902   20.4037 N   0  0  0  0  0  0
  -31.7621  -14.8711   20.0759 O   0  0  0  0  0  0
  -21.6632   -6.8865   21.4231 O   0  0  0  0  0  0
  -22.3512  -14.5527   20.6607 O   0  0  0  0  0  0
  -24.6329  -31.8563   23.2010 C   0  0  0  0  0  0
  -25.9160  -32.4761   23.8349 C   0  0  1  0  0  0
  -27.2127  -27.2602   20.1375 C   0  0  0  0  0  0
  -25.5955  -33.8562   24.2274 N   0  0  0  0  0  0
  -23.4280  -30.4818   21.5427 C   0  0  2  0  0  0
  -24.8749  -28.9272   20.1120 C   0  0  0  0  0  0
  -22.7510  -29.4620   22.4909 C   0  0  0  0  0  0
  -18.0299  -28.1397   22.8488 C   0  0  0  0  0  0
  -24.1482  -36.7283   23.2637 C   0  0  0  0  0  0
  -25.9737  -30.7687   21.3805 C   0  0  0  0  0  0
  -26.0445  -29.3894   20.7269 C   0  0  0  0  0  0
  -27.2181  -28.5686   20.7292 C   0  0  0  0  0  0
  -26.0256  -26.8746   19.4778 C   0  0  0  0  0  0
  -24.8700  -27.6782   19.4755 C   0  0  0  0  0  0
  -23.6486  -29.8175   20.1579 C   0  0  0  0  0  0
  -25.4108  -36.3069   24.0332 C   0  0  1  0  0  0
  -20.5905  -28.3720   23.1261 C   0  0  2  0  0  0
  -20.6799  -26.9437   22.5402 C   0  0  0  0  0  0
  -19.5767  -26.6396   21.5214 C   0  0  0  0  0  0
  -18.1945  -26.7943   22.1622 C   0  0  0  0  0  0
  -19.1554  -28.8873   23.2870 C   0  0  0  0  0  0
  -18.9473  -30.1472   23.8896 C   0  0  0  0  0  0
  -17.6470  -30.6590   24.0571 C   0  0  0  0  0  0
  -25.9061  -34.9444   23.5101 C   0  0  0  0  0  0
  -16.5360  -29.9091   23.6325 C   0  0  0  0  0  0
  -16.7287  -28.6506   23.0351 C   0  0  0  0  0  0
  -26.4521  -31.6583   25.0739 C   0  0  0  0  0  0
  -25.3736  -31.3741   26.1457 C   0  0  0  0  0  0
  -27.0375  -30.3001   24.6221 C   0  0  0  0  0  0
  -27.6078  -32.4326   25.7511 C   0  0  0  0  0  0
  -27.5575  -37.1797   24.8464 C   0  0  0  0  0  0
  -21.4218  -29.3060   22.3640 N   0  0  0  0  0  0
  -26.4279  -37.3774   23.9420 N   0  0  0  0  0  0
  -24.6974  -31.0545   22.0965 N   0  0  0  0  0  0
  -23.4209  -28.8156   23.3010 O   0  0  0  0  0  0
  -28.3041  -26.3633   20.1736 O   0  0  0  0  0  0
  -26.5615  -34.8915   22.4659 O   0  0  0  0  0  0
  -23.5490  -32.1374   23.7310 O   0  0  0  0  0  0
  -29.7254  -21.2290   20.6021 C   0  0  0  0  0  0
  -27.7203  -21.6099   19.9320 C   0  0  0  0  0  0
  -29.0691  -19.9815   20.5730 C   0  0  0  0  0  0
  -29.3826  -23.9804   18.4716 C   0  0  0  0  0  0
  -29.4242  -18.5251   21.1141 C   0  0  0  0  0  0
  -29.9150  -17.2885   20.1909 C   0  0  0  0  0  0
  -28.0528  -24.8984   20.4432 C   0  0  0  0  0  0
  -29.1223  -23.7823   19.9727 C   0  0  1  0  0  0
  -27.7782  -20.2801   20.1200 N   0  0  0  0  0  0
  -28.8475  -22.2895   20.2019 N   0  0  0  0  0  0
  -29.7956  -15.8422   20.7015 N   0  0  0  0  0  0
  -31.4852  -12.5690   19.1865 H   0  0  0  0  0  0
  -30.3868  -11.4640   19.9564 H   0  0  0  0  0  0
  -29.8101  -11.7433   17.5224 H   0  0  0  0  0  0
  -29.6582  -13.4670   17.7336 H   0  0  0  0  0  0
  -27.8895  -11.2889   18.8899 H   0  0  0  0  0  0
  -27.3947  -12.5534   17.7965 H   0  0  0  0  0  0
  -27.6521  -14.2553   19.4875 H   0  0  0  0  0  0
  -28.7171  -12.1359   21.4142 H   0  0  0  0  0  0
  -28.4272  -13.8064   21.8175 H   0  0  0  0  0  0
  -25.2774   -9.5657   22.4739 H   0  0  0  0  0  0
  -23.9974   -7.4642   22.7485 H   0  0  0  0  0  0
  -21.0828   -8.8774   19.8979 H   0  0  0  0  0  0
  -22.3716  -10.9638   19.6150 H   0  0  0  0  0  0
  -21.2035   -7.6134   23.9699 H   0  0  0  0  0  0
  -21.1469   -6.0515   25.9055 H   0  0  0  0  0  0
  -22.0616   -2.7603   23.2856 H   0  0  0  0  0  0
  -22.4061  -11.9963   22.4821 H   0  0  0  0  0  0
  -21.1073  -13.1304   22.2545 H   0  0  0  0  0  0
  -24.6623  -15.8510   20.4967 H   0  0  0  0  0  0
  -26.2772  -15.6164   20.0562 H   0  0  0  0  0  0
  -26.7218  -32.5410   23.1088 H   0  0  0  0  0  0
  -25.0138  -33.9689   25.0443 H   0  0  0  0  0  0
  -22.7240  -31.3048   21.3981 H   0  0  0  0  0  0
  -23.3745  -35.9612   23.3284 H   0  0  0  0  0  0
  -24.3576  -36.8920   22.2052 H   0  0  0  0  0  0
  -23.7232  -37.6480   23.6666 H   0  0  0  0  0  0
  -26.1111  -31.5246   20.6059 H   0  0  0  0  0  0
  -26.8530  -30.8209   22.0112 H   0  0  0  0  0  0
  -28.1133  -28.9187   21.2238 H   0  0  0  0  0  0
  -25.9668  -25.9360   18.9484 H   0  0  0  0  0  0
  -23.9802  -27.3283   18.9720 H   0  0  0  0  0  0
  -23.7829  -30.5958   19.4067 H   0  0  0  0  0  0
  -22.7641  -29.2600   19.8461 H   0  0  0  0  0  0
  -25.1280  -36.1912   25.0823 H   0  0  0  0  0  0
  -20.9997  -28.3313   24.1382 H   0  0  0  0  0  0
  -20.5724  -26.2332   23.3616 H   0  0  0  0  0  0
  -21.6667  -26.7490   22.1185 H   0  0  0  0  0  0
  -19.6940  -25.6301   21.1259 H   0  0  0  0  0  0
  -19.6701  -27.3192   20.6731 H   0  0  0  0  0  0
  -17.4226  -26.6702   21.4016 H   0  0  0  0  0  0
  -18.0340  -26.0081   22.9011 H   0  0  0  0  0  0
  -19.7946  -30.7293   24.2276 H   0  0  0  0  0  0
  -17.5019  -31.6273   24.5177 H   0  0  0  0  0  0
  -15.5363  -30.2994   23.7649 H   0  0  0  0  0  0
  -15.8688  -28.0822   22.7069 H   0  0  0  0  0  0
  -24.5899  -30.7102   25.7781 H   0  0  0  0  0  0
  -24.8943  -32.2920   26.4877 H   0  0  0  0  0  0
  -25.8047  -30.8916   27.0238 H   0  0  0  0  0  0
  -26.2961  -29.6738   24.1245 H   0  0  0  0  0  0
  -27.4057  -29.7277   25.4745 H   0  0  0  0  0  0
  -27.8838  -30.4280   23.9466 H   0  0  0  0  0  0
  -27.2684  -33.3624   26.2086 H   0  0  0  0  0  0
  -28.3894  -32.6890   25.0345 H   0  0  0  0  0  0
  -28.0740  -31.8456   26.5434 H   0  0  0  0  0  0
  -28.2589  -38.0095   24.7519 H   0  0  0  0  0  0
  -28.1075  -36.2636   24.6270 H   0  0  0  0  0  0
  -27.2305  -37.1429   25.8868 H   0  0  0  0  0  0
  -20.9413  -29.8758   21.6813 H   0  0  0  0  0  0
  -26.0154  -38.2847   24.1417 H   0  0  0  0  0  0
  -30.7423  -21.4523   20.8966 H   0  0  0  0  0  0
  -26.8318  -22.1043   19.5630 H   0  0  0  0  0  0
  -29.6926  -25.0029   18.2528 H   0  0  0  0  0  0
  -28.4815  -23.7765   17.8902 H   0  0  0  0  0  0
  -30.1675  -23.3136   18.1157 H   0  0  0  0  0  0
  -28.5314  -18.1685   21.6285 H   0  0  0  0  0  0
  -30.1575  -18.6402   21.9124 H   0  0  0  0  0  0
  -30.9385  -17.4751   19.8648 H   0  0  0  0  0  0
  -29.3157  -17.3166   19.2802 H   0  0  0  0  0  0
  -27.9403  -24.8102   21.5249 H   0  0  0  0  0  0
  -27.0898  -24.5821   20.0515 H   0  0  0  0  0  0
  -30.0518  -24.0030   20.4987 H   0  0  0  0  0  0
  -28.8903  -15.6044   21.0805 H   0  0  0  0  0  0
  1 25  1  0  0  0
  1 30  2  0  0  0
  1 81  1  0  0  0
  2  3  1  0  0  0
  2 25  1  0  0  0
  2 82  1  0  0  0
  2 83  1  0  0  0
  3  4  1  0  0  0
  3 84  1  0  0  0
  3 85  1  0  0  0
  4  5  1  0  0  0
  4 86  1  0  0  0
  4 87  1  0  0  0
  5  6  1  0  0  0
  5 26  1  0  0  0
  5 88  1  0  0  0
  6 25  1  0  0  0
  6 89  1  0  0  0
  6 90  1  0  0  0
  7  8  2  0  0  0
  7 26  1  0  0  0
  7 29  1  0  0  0
  8  9  1  0  0  0
  8 22  1  0  0  0
  9 10  1  0  0  0
  9 27  2  0  0  0
 10 11  2  0  0  0
 10 15  1  0  0  0
 11 12  1  0  0  0
 11 91  1  0  0  0
 12 13  2  0  0  0
 12 92  1  0  0  0
 13 14  1  0  0  0
 13 31  1  0  0  0
 14 15  2  0  0  0
 14 93  1  0  0  0
 15 94  1  0  0  0
 16 17  2  0  0  0
 16 21  1  0  0  0
 16 31  1  0  0  0
 17 18  1  0  0  0
 17 95  1  0  0  0
 18 19  2  0  0  0
 18 96  1  0  0  0
 19 20  1  0  0  0
 19 24  1  0  0  0
 20 21  2  0  0  0
 20 97  1  0  0  0
 21 23  1  0  0  0
 22 28  1  0  0  0
 22 32  2  0  0  0
 26 27  1  0  0  0
 28 98  1  0  0  0
 28 99  1  0  0  0
 29100  1  0  0  0
 29101  1  0  0  0
 33 34  1  0  0  0
 33 66  1  0  0  0
 33 70  2  0  0  0
 34 36  1  0  0  0
 34 59  1  0  0  0
 34102  1  0  0  0
 35 44  2  0  0  0
 35 45  1  0  0  0
 35 68  1  0  0  0
 36 56  1  0  0  0
 36103  1  0  0  0
 37 39  1  0  0  0
 37 47  1  0  0  0
 37 66  1  0  0  0
 37104  1  0  0  0
 38 43  2  0  0  0
 38 46  1  0  0  0
 38 47  1  0  0  0
 39 64  1  0  0  0
 39 67  2  0  0  0
 40 52  1  0  0  0
 40 53  2  0  0  0
 40 58  1  0  0  0
 41105  1  0  0  0
 41106  1  0  0  0
 41107  1  0  0  0
 41 48  1  0  0  0
 42 43  1  0  0  0
 42 66  1  0  0  0
 42108  1  0  0  0
 42109  1  0  0  0
 43 44  1  0  0  0
 44110  1  0  0  0
 45 46  2  0  0  0
 45111  1  0  0  0
 46112  1  0  0  0
 47113  1  0  0  0
 47114  1  0  0  0
 48 56  1  0  0  0
 48 65  1  0  0  0
 48115  1  0  0  0
 49 50  1  0  0  0
 49 53  1  0  0  0
 49 64  1  0  0  0
 49116  1  0  0  0
 50 51  1  0  0  0
 50117  1  0  0  0
 50118  1  0  0  0
 51 52  1  0  0  0
 51119  1  0  0  0
 51120  1  0  0  0
 52121  1  0  0  0
 52122  1  0  0  0
 53 54  1  0  0  0
 54 55  2  0  0  0
 54123  1  0  0  0
 55 57  1  0  0  0
 55124  1  0  0  0
 56 69  2  0  0  0
 57 58  2  0  0  0
 57125  1  0  0  0
 58126  1  0  0  0
 59 60  1  0  0  0
 59 61  1  0  0  0
 59 62  1  0  0  0
 60127  1  0  0  0
 60128  1  0  0  0
 60129  1  0  0  0
 61130  1  0  0  0
 61131  1  0  0  0
 61132  1  0  0  0
 62133  1  0  0  0
 62134  1  0  0  0
 62135  1  0  0  0
 63 65  1  0  0  0
 63136  1  0  0  0
 63137  1  0  0  0
 63138  1  0  0  0
 64139  1  0  0  0
 65140  1  0  0  0
 68 77  1  0  0  0
 71 73  2  0  0  0
 71 80  1  0  0  0
 71141  1  0  0  0
 72 79  2  0  0  0
 72 80  1  0  0  0
 72142  1  0  0  0
 73 75  1  0  0  0
 73 79  1  0  0  0
 74143  1  0  0  0
 74144  1  0  0  0
 74145  1  0  0  0
 74 78  1  0  0  0
 75 76  1  0  0  0
 75146  1  0  0  0
 75147  1  0  0  0
 76 81  1  0  0  0
 76148  1  0  0  0
 76149  1  0  0  0
 77 78  1  0  0  0
 77150  1  0  0  0
 77151  1  0  0  0
 78 80  1  0  0  0
 78152  1  0  0  0
 81153  1  0  0  0
M  ISO  4   1 100  68 101  77 101  81 100
M  END
> <chiral flag>
0

> <version>
0

> <s_m_source_file>
/data/baiqing/PycharmProjects/Reinvent-master-3.2/result/LINK_invent/BTK/process_docking_weight1_custom_sum_contain_oxygen_bond_distance_aromatic_linkinvent_7_9_3/rearranged_h_0059.sdf

> <i_m_source_file_index>
79

> <r_mmod_Potential_Energy-OPLS-2005>
147.768035888672

> <r_mmod_Stretch_Energy-OPLS-2005>
122.740608215332

> <r_mmod_Bend_Energy-OPLS-2005>
170.713607788086

> <r_mmod_Torsional_Energy-OPLS-2005>
242.79948425293

> <r_mmod_Improper_Torsional_Energy-OPLS-2005>
7.39993810653687

> <r_mmod_Van_der_Waal_Energy-OPLS-2005>
114.832908630371

> <r_mmod_Electrostatic_Energy-OPLS-2005>
-366.361999511719

> <r_mmod_Solvation_Energy-OPLS-2005>
-227.694473266602

> <b_mmod_Minimization_Converged-OPLS-2005>
0

> <r_mmod_RMS_Derivative-OPLS-2005>
2.82597923278809

$$$$
81
                    3D
 Structure written by MMmdl.
154162  0  0  1  0            999 V2000
  -30.4610  -15.2226   20.3677 C   0  0  0  0  0  0
  -30.4365  -12.7728   19.5416 C   0  0  0  0  0  0
  -29.5447  -12.5639   18.2931 C   0  0  0  0  0  0
  -28.0826  -12.3130   18.7046 C   0  0  0  0  0  0
  -27.6119  -13.2790   19.8224 C   0  0  2  0  0  0
  -28.6414  -13.4372   20.9599 C   0  0  0  0  0  0
  -25.2366  -13.8261   20.5718 C   0  0  0  0  0  0
  -24.1734  -13.0443   20.9253 C   0  0  0  0  0  0
  -24.6405  -11.6943   20.8762 C   0  0  0  0  0  0
  -23.9113  -10.4299   21.0423 C   0  0  0  0  0  0
  -24.3656   -9.4210   21.9194 C   0  0  0  0  0  0
  -23.6301   -8.2259   22.0772 C   0  0  0  0  0  0
  -22.4270   -8.0309   21.3574 C   0  0  0  0  0  0
  -21.9917   -9.0288   20.4679 C   0  0  0  0  0  0
  -22.7280  -10.2155   20.3079 C   0  0  0  0  0  0
  -21.6849   -6.0759   22.5289 C   0  0  0  0  0  0
  -21.4027   -6.5660   23.8228 C   0  0  0  0  0  0
  -21.3650   -5.6800   24.9184 C   0  0  0  0  0  0
  -21.6032   -4.3067   24.7219 C   0  0  0  0  0  0
  -21.8813   -3.8169   23.4332 C   0  0  0  0  0  0
  -21.9194   -4.6989   22.3398 C   0  0  0  0  0  0
  -22.7748  -13.5200   21.1888 C   0  0  0  0  0  0
  -22.1656   -4.2190   21.0972 F   0  0  0  0  0  0
  -21.5611   -3.4544   25.7721 F   0  0  0  0  0  0
  -29.8847  -13.9240   20.3421 N   0  0  0  0  0  0
  -26.2803  -12.9545   20.3174 N   0  0  0  0  0  0
  -25.9336  -11.6647   20.5695 N   0  0  0  0  0  0
  -22.0393  -12.8220   22.0460 N   0  0  0  0  0  0
  -25.3994  -15.1998   20.4158 N   0  0  0  0  0  0
  -31.6787  -15.2167   20.1410 O   0  0  0  0  0  0
  -21.6635   -6.8905   21.4252 O   0  0  0  0  0  0
  -22.3432  -14.5495   20.6717 O   0  0  0  0  0  0
  -24.6610  -31.8249   23.1769 C   0  0  0  0  0  0
  -25.9303  -32.4593   23.8222 C   0  0  1  0  0  0
  -27.2069  -26.9471   20.1681 C   0  0  0  0  0  0
  -25.5975  -33.8414   24.2106 N   0  0  0  0  0  0
  -23.4759  -30.4416   21.5241 C   0  0  2  0  0  0
  -24.9266  -28.8395   20.1111 C   0  0  0  0  0  0
  -22.7658  -29.4460   22.4781 C   0  0  0  0  0  0
  -18.0327  -28.1439   22.8445 C   0  0  0  0  0  0
  -24.1497  -36.7221   23.2650 C   0  0  0  0  0  0
  -26.0465  -30.6346   21.4096 C   0  0  0  0  0  0
  -26.1126  -29.2303   20.7460 C   0  0  0  0  0  0
  -27.2495  -28.3039   20.7548 C   0  0  0  0  0  0
  -25.9964  -26.7162   19.4752 C   0  0  0  0  0  0
  -24.8928  -27.6009   19.4569 C   0  0  0  0  0  0
  -23.7147  -29.7665   20.1476 C   0  0  0  0  0  0
  -25.4131  -36.2970   24.0300 C   0  0  1  0  0  0
  -20.5947  -28.3780   23.1179 C   0  0  2  0  0  0
  -20.6808  -26.9459   22.5402 C   0  0  0  0  0  0
  -19.5789  -26.6387   21.5215 C   0  0  0  0  0  0
  -18.1972  -26.7964   22.1620 C   0  0  0  0  0  0
  -19.1588  -28.8931   23.2799 C   0  0  0  0  0  0
  -18.9496  -30.1517   23.8838 C   0  0  0  0  0  0
  -17.6492  -30.6613   24.0569 C   0  0  0  0  0  0
  -25.9093  -34.9346   23.5028 C   0  0  0  0  0  0
  -16.5385  -29.9100   23.6354 C   0  0  0  0  0  0
  -16.7311  -28.6534   23.0342 C   0  0  0  0  0  0
  -26.4531  -31.6546   25.0761 C   0  0  0  0  0  0
  -25.3649  -31.3829   26.1423 C   0  0  0  0  0  0
  -27.0414  -30.2895   24.6542 C   0  0  0  0  0  0
  -27.6030  -32.4352   25.7540 C   0  0  0  0  0  0
  -27.5564  -37.1768   24.8450 C   0  0  0  0  0  0
  -21.4330  -29.3061   22.3510 N   0  0  0  0  0  0
  -26.4283  -37.3689   23.9386 N   0  0  0  0  0  0
  -24.7492  -30.9923   22.0904 N   0  0  0  0  0  0
  -23.4207  -28.8021   23.3019 O   0  0  0  0  0  0
  -28.1768  -25.8134   20.2328 O   0  0  0  0  0  0
  -26.5710  -34.8871   22.4628 O   0  0  0  0  0  0
  -23.5682  -32.1224   23.6854 O   0  0  0  0  0  0
  -27.7824  -21.4230   20.7849 C   0  0  0  0  0  0
  -28.4645  -22.6530   20.3447 C   0  0  0  0  0  0
  -30.1452  -20.9114   19.7595 C   0  0  0  0  0  0
  -29.4596  -19.6871   20.2325 C   0  0  0  0  0  0
  -32.6528  -21.1896   20.0391 C   0  0  0  0  0  0
  -26.9808  -24.3108   21.7569 C   0  0  0  0  0  0
  -31.5083  -20.8002   19.0965 C   0  0  0  0  0  0
  -30.1410  -18.0749   20.1646 C   0  0  0  0  0  0
  -27.7197  -24.2437   20.4049 C   0  0  1  0  0  0
  -28.2306  -20.0665   20.7522 N   0  0  0  0  0  0
  -29.6920  -22.2703   19.8167 N   0  0  0  0  0  0
  -29.7234  -16.4991   20.4381 N   0  0  0  0  0  0
  -31.4652  -12.9555   19.2288 H   0  0  0  0  0  0
  -30.4755  -11.8650   20.1460 H   0  0  0  0  0  0
  -29.9129  -11.7284   17.6976 H   0  0  0  0  0  0
  -29.6059  -13.4455   17.6536 H   0  0  0  0  0  0
  -28.0148  -11.2832   19.0577 H   0  0  0  0  0  0
  -27.4264  -12.3855   17.8365 H   0  0  0  0  0  0
  -27.5323  -14.2515   19.3358 H   0  0  0  0  0  0
  -28.7878  -12.4975   21.4937 H   0  0  0  0  0  0
  -28.2844  -14.1613   21.6935 H   0  0  0  0  0  0
  -25.2802   -9.5667   22.4774 H   0  0  0  0  0  0
  -24.0010   -7.4636   22.7469 H   0  0  0  0  0  0
  -21.0855   -8.8821   19.8972 H   0  0  0  0  0  0
  -22.3747  -10.9699   19.6189 H   0  0  0  0  0  0
  -21.2043   -7.6169   23.9749 H   0  0  0  0  0  0
  -21.1458   -6.0529   25.9090 H   0  0  0  0  0  0
  -22.0596   -2.7636   23.2822 H   0  0  0  0  0  0
  -22.3979  -11.9899   22.4906 H   0  0  0  0  0  0
  -21.1008  -13.1287   22.2630 H   0  0  0  0  0  0
  -24.6250  -15.8469   20.5263 H   0  0  0  0  0  0
  -26.2322  -15.6433   20.0517 H   0  0  0  0  0  0
  -26.7389  -32.5110   23.0949 H   0  0  0  0  0  0
  -24.9996  -33.9491   25.0173 H   0  0  0  0  0  0
  -22.7912  -31.2751   21.3583 H   0  0  0  0  0  0
  -23.3748  -35.9563   23.3293 H   0  0  0  0  0  0
  -24.3584  -36.8884   22.2068 H   0  0  0  0  0  0
  -23.7275  -37.6417   23.6723 H   0  0  0  0  0  0
  -26.2334  -31.3802   20.6361 H   0  0  0  0  0  0
  -26.9048  -30.6828   22.0678 H   0  0  0  0  0  0
  -28.1425  -28.5926   21.2920 H   0  0  0  0  0  0
  -25.8602  -25.7837   18.9513 H   0  0  0  0  0  0
  -23.9955  -27.2991   18.9348 H   0  0  0  0  0  0
  -23.8732  -30.5409   19.3961 H   0  0  0  0  0  0
  -22.8239  -29.2253   19.8242 H   0  0  0  0  0  0
  -25.1333  -36.1769   25.0791 H   0  0  0  0  0  0
  -21.0041  -28.3407   24.1303 H   0  0  0  0  0  0
  -20.5696  -26.2402   23.3647 H   0  0  0  0  0  0
  -21.6673  -26.7433   22.1215 H   0  0  0  0  0  0
  -19.6947  -25.6275   21.1304 H   0  0  0  0  0  0
  -19.6742  -27.3145   20.6709 H   0  0  0  0  0  0
  -17.4232  -26.6685   21.4040 H   0  0  0  0  0  0
  -18.0377  -26.0137   22.9046 H   0  0  0  0  0  0
  -19.7970  -30.7355   24.2172 H   0  0  0  0  0  0
  -17.5044  -31.6285   24.5193 H   0  0  0  0  0  0
  -15.5389  -30.2990   23.7714 H   0  0  0  0  0  0
  -15.8706  -28.0851   22.7069 H   0  0  0  0  0  0
  -24.5815  -30.7196   25.7740 H   0  0  0  0  0  0
  -24.8859  -32.3047   26.4741 H   0  0  0  0  0  0
  -25.7866  -30.9057   27.0282 H   0  0  0  0  0  0
  -26.3093  -29.6578   24.1506 H   0  0  0  0  0  0
  -27.3844  -29.7272   25.5240 H   0  0  0  0  0  0
  -27.9082  -30.4041   24.0030 H   0  0  0  0  0  0
  -27.2611  -33.3685   26.2023 H   0  0  0  0  0  0
  -28.3882  -32.6866   25.0398 H   0  0  0  0  0  0
  -28.0665  -31.8557   26.5534 H   0  0  0  0  0  0
  -28.2571  -38.0070   24.7471 H   0  0  0  0  0  0
  -28.1080  -36.2602   24.6309 H   0  0  0  0  0  0
  -27.2297  -37.1439   25.8859 H   0  0  0  0  0  0
  -20.9588  -29.8727   21.6610 H   0  0  0  0  0  0
  -26.0134  -38.2752   24.1383 H   0  0  0  0  0  0
  -26.7844  -21.5090   21.1853 H   0  0  0  0  0  0
  -33.6136  -21.1399   19.5259 H   0  0  0  0  0  0
  -32.6980  -20.5256   20.9013 H   0  0  0  0  0  0
  -32.5279  -22.2080   20.4097 H   0  0  0  0  0  0
  -26.2914  -23.4811   21.8923 H   0  0  0  0  0  0
  -26.3752  -25.2067   21.8729 H   0  0  0  0  0  0
  -27.6920  -24.2892   22.5822 H   0  0  0  0  0  0
  -31.5226  -21.4576   18.2255 H   0  0  0  0  0  0
  -31.6754  -19.8001   18.7002 H   0  0  0  0  0  0
  -31.0766  -18.1798   20.7150 H   0  0  0  0  0  0
  -30.4559  -18.0109   19.1234 H   0  0  0  0  0  0
  -26.9647  -24.1148   19.6313 H   0  0  0  0  0  0
  -28.7370  -16.3771   20.6137 H   0  0  0  0  0  0
  1 25  1  0  0  0
  1 30  2  0  0  0
  1 82  1  0  0  0
  2  3  1  0  0  0
  2 25  1  0  0  0
  2 83  1  0  0  0
  2 84  1  0  0  0
  3  4  1  0  0  0
  3 85  1  0  0  0
  3 86  1  0  0  0
  4  5  1  0  0  0
  4 87  1  0  0  0
  4 88  1  0  0  0
  5  6  1  0  0  0
  5 26  1  0  0  0
  5 89  1  0  0  0
  6 25  1  0  0  0
  6 90  1  0  0  0
  6 91  1  0  0  0
  7  8  2  0  0  0
  7 26  1  0  0  0
  7 29  1  0  0  0
  8  9  1  0  0  0
  8 22  1  0  0  0
  9 10  1  0  0  0
  9 27  2  0  0  0
 10 11  2  0  0  0
 10 15  1  0  0  0
 11 12  1  0  0  0
 11 92  1  0  0  0
 12 13  2  0  0  0
 12 93  1  0  0  0
 13 14  1  0  0  0
 13 31  1  0  0  0
 14 15  2  0  0  0
 14 94  1  0  0  0
 15 95  1  0  0  0
 16 17  2  0  0  0
 16 21  1  0  0  0
 16 31  1  0  0  0
 17 18  1  0  0  0
 17 96  1  0  0  0
 18 19  2  0  0  0
 18 97  1  0  0  0
 19 20  1  0  0  0
 19 24  1  0  0  0
 20 21  2  0  0  0
 20 98  1  0  0  0
 21 23  1  0  0  0
 22 28  1  0  0  0
 22 32  2  0  0  0
 26 27  1  0  0  0
 28 99  1  0  0  0
 28100  1  0  0  0
 29101  1  0  0  0
 29102  1  0  0  0
 33 34  1  0  0  0
 33 66  1  0  0  0
 33 70  2  0  0  0
 34 36  1  0  0  0
 34 59  1  0  0  0
 34103  1  0  0  0
 35 44  2  0  0  0
 35 45  1  0  0  0
 35 68  1  0  0  0
 36 56  1  0  0  0
 36104  1  0  0  0
 37 39  1  0  0  0
 37 47  1  0  0  0
 37 66  1  0  0  0
 37105  1  0  0  0
 38 43  2  0  0  0
 38 46  1  0  0  0
 38 47  1  0  0  0
 39 64  1  0  0  0
 39 67  2  0  0  0
 40 52  1  0  0  0
 40 53  2  0  0  0
 40 58  1  0  0  0
 41106  1  0  0  0
 41107  1  0  0  0
 41108  1  0  0  0
 41 48  1  0  0  0
 42 43  1  0  0  0
 42 66  1  0  0  0
 42109  1  0  0  0
 42110  1  0  0  0
 43 44  1  0  0  0
 44111  1  0  0  0
 45 46  2  0  0  0
 45112  1  0  0  0
 46113  1  0  0  0
 47114  1  0  0  0
 47115  1  0  0  0
 48 56  1  0  0  0
 48 65  1  0  0  0
 48116  1  0  0  0
 49 50  1  0  0  0
 49 53  1  0  0  0
 49 64  1  0  0  0
 49117  1  0  0  0
 50 51  1  0  0  0
 50118  1  0  0  0
 50119  1  0  0  0
 51 52  1  0  0  0
 51120  1  0  0  0
 51121  1  0  0  0
 52122  1  0  0  0
 52123  1  0  0  0
 53 54  1  0  0  0
 54 55  2  0  0  0
 54124  1  0  0  0
 55 57  1  0  0  0
 55125  1  0  0  0
 56 69  2  0  0  0
 57 58  2  0  0  0
 57126  1  0  0  0
 58127  1  0  0  0
 59 60  1  0  0  0
 59 61  1  0  0  0
 59 62  1  0  0  0
 60128  1  0  0  0
 60129  1  0  0  0
 60130  1  0  0  0
 61131  1  0  0  0
 61132  1  0  0  0
 61133  1  0  0  0
 62134  1  0  0  0
 62135  1  0  0  0
 62136  1  0  0  0
 63 65  1  0  0  0
 63137  1  0  0  0
 63138  1  0  0  0
 63139  1  0  0  0
 64140  1  0  0  0
 65141  1  0  0  0
 68 79  1  0  0  0
 71 72  2  0  0  0
 71 80  1  0  0  0
 71142  1  0  0  0
 72 79  1  0  0  0
 72 81  1  0  0  0
 73 74  1  0  0  0
 73 77  1  0  0  0
 73 81  2  0  0  0
 74 78  1  0  0  0
 74 80  2  0  0  0
 75 77  1  0  0  0
 75143  1  0  0  0
 75144  1  0  0  0
 75145  1  0  0  0
 76146  1  0  0  0
 76147  1  0  0  0
 76148  1  0  0  0
 76 79  1  0  0  0
 77149  1  0  0  0
 77150  1  0  0  0
 78 82  1  0  0  0
 78151  1  0  0  0
 78152  1  0  0  0
 79153  1  0  0  0
 82154  1  0  0  0
M  ISO  4   1 100  68 101  79 101  82 100
M  END
> <chiral flag>
0

> <version>
0

> <s_m_source_file>
/data/baiqing/PycharmProjects/Reinvent-master-3.2/result/LINK_invent/BTK/process_docking_weight1_custom_sum_contain_oxygen_bond_distance_aromatic_linkinvent_7_9_3/rearranged_h_0059.sdf

> <i_m_source_file_index>
80

> <r_mmod_Potential_Energy-OPLS-2005>
1161.29846191406

> <r_mmod_Stretch_Energy-OPLS-2005>
506.947357177734

> <r_mmod_Bend_Energy-OPLS-2005>
452.601867675781

> <r_mmod_Torsional_Energy-OPLS-2005>
202.801498413086

> <r_mmod_Improper_Torsional_Energy-OPLS-2005>
4.59057474136353

> <r_mmod_Van_der_Waal_Energy-OPLS-2005>
139.256149291992

> <r_mmod_Electrostatic_Energy-OPLS-2005>
-345.230438232422

> <r_mmod_Solvation_Energy-OPLS-2005>
-227.471710205078

> <b_mmod_Minimization_Converged-OPLS-2005>
0

> <r_mmod_RMS_Derivative-OPLS-2005>
2.6817479133606

$$$$
82
                    3D
 Structure written by MMmdl.
159167  0  0  1  0            999 V2000
  -30.6543  -14.7137   20.5259 C   0  0  0  0  0  0
  -30.4287  -12.4451   19.4891 C   0  0  0  0  0  0
  -29.5169  -12.5244   18.2453 C   0  0  0  0  0  0
  -28.0421  -12.3431   18.6485 C   0  0  0  0  0  0
  -27.6471  -13.2321   19.8564 C   0  0  2  0  0  0
  -28.6825  -13.1477   20.9978 C   0  0  0  0  0  0
  -25.2530  -13.8198   20.5689 C   0  0  0  0  0  0
  -24.1811  -13.0433   20.9174 C   0  0  0  0  0  0
  -24.6405  -11.6917   20.8718 C   0  0  0  0  0  0
  -23.9089  -10.4288   21.0399 C   0  0  0  0  0  0
  -24.3640   -9.4207   21.9183 C   0  0  0  0  0  0
  -23.6301   -8.2247   22.0761 C   0  0  0  0  0  0
  -22.4279   -8.0292   21.3556 C   0  0  0  0  0  0
  -21.9925   -9.0261   20.4655 C   0  0  0  0  0  0
  -22.7260  -10.2129   20.3056 C   0  0  0  0  0  0
  -21.6853   -6.0739   22.5269 C   0  0  0  0  0  0
  -21.4019   -6.5637   23.8204 C   0  0  0  0  0  0
  -21.3666   -5.6793   24.9166 C   0  0  0  0  0  0
  -21.6058   -4.3060   24.7226 C   0  0  0  0  0  0
  -21.8822   -3.8147   23.4345 C   0  0  0  0  0  0
  -21.9195   -4.6962   22.3400 C   0  0  0  0  0  0
  -22.7833  -13.5218   21.1841 C   0  0  0  0  0  0
  -22.1661   -4.2139   21.0977 F   0  0  0  0  0  0
  -21.5633   -3.4557   25.7748 F   0  0  0  0  0  0
  -29.9976  -13.5004   20.4413 N   0  0  0  0  0  0
  -26.2959  -12.9409   20.3274 N   0  0  0  0  0  0
  -25.9339  -11.6545   20.5731 N   0  0  0  0  0  0
  -22.0482  -12.8200   22.0401 N   0  0  0  0  0  0
  -25.4233  -15.1923   20.4151 N   0  0  0  0  0  0
  -31.7773  -14.8275   20.0234 O   0  0  0  0  0  0
  -21.6637   -6.8891   21.4237 O   0  0  0  0  0  0
  -22.3506  -14.5526   20.6702 O   0  0  0  0  0  0
  -24.6324  -31.8564   23.2004 C   0  0  0  0  0  0
  -25.9148  -32.4761   23.8342 C   0  0  1  0  0  0
  -27.2143  -27.2610   20.1220 C   0  0  0  0  0  0
  -25.5944  -33.8565   24.2264 N   0  0  0  0  0  0
  -23.4288  -30.4816   21.5451 C   0  0  2  0  0  0
  -24.8742  -28.9357   20.1095 C   0  0  0  0  0  0
  -22.7517  -29.4607   22.4915 C   0  0  0  0  0  0
  -18.0296  -28.1395   22.8486 C   0  0  0  0  0  0
  -24.1492  -36.7277   23.2639 C   0  0  0  0  0  0
  -25.9769  -30.7692   21.3826 C   0  0  0  0  0  0
  -26.0487  -29.3942   20.7201 C   0  0  0  0  0  0
  -27.2219  -28.5701   20.7156 C   0  0  0  0  0  0
  -26.0139  -26.8816   19.4738 C   0  0  0  0  0  0
  -24.8623  -27.6875   19.4761 C   0  0  0  0  0  0
  -23.6461  -29.8217   20.1597 C   0  0  0  0  0  0
  -25.4121  -36.3076   24.0327 C   0  0  1  0  0  0
  -20.5905  -28.3710   23.1265 C   0  0  2  0  0  0
  -20.6790  -26.9425   22.5407 C   0  0  0  0  0  0
  -19.5756  -26.6389   21.5220 C   0  0  0  0  0  0
  -18.1936  -26.7936   22.1633 C   0  0  0  0  0  0
  -19.1551  -28.8869   23.2869 C   0  0  0  0  0  0
  -18.9470  -30.1474   23.8883 C   0  0  0  0  0  0
  -17.6467  -30.6594   24.0568 C   0  0  0  0  0  0
  -25.9064  -34.9444   23.5098 C   0  0  0  0  0  0
  -16.5359  -29.9090   23.6335 C   0  0  0  0  0  0
  -16.7281  -28.6513   23.0349 C   0  0  0  0  0  0
  -26.4514  -31.6585   25.0728 C   0  0  0  0  0  0
  -25.3723  -31.3736   26.1438 C   0  0  0  0  0  0
  -27.0367  -30.2995   24.6230 C   0  0  0  0  0  0
  -27.6067  -32.4332   25.7496 C   0  0  0  0  0  0
  -27.5586  -37.1790   24.8463 C   0  0  0  0  0  0
  -21.4223  -29.3050   22.3651 N   0  0  0  0  0  0
  -26.4295  -37.3777   23.9413 N   0  0  0  0  0  0
  -24.6985  -31.0533   22.0984 N   0  0  0  0  0  0
  -23.4218  -28.8138   23.3006 O   0  0  0  0  0  0
  -28.2921  -26.3423   20.1976 O   0  0  0  0  0  0
  -26.5642  -34.8921   22.4669 O   0  0  0  0  0  0
  -23.5471  -32.1392   23.7289 O   0  0  0  0  0  0
  -30.8661  -22.9811   21.2908 C   0  0  0  0  0  0
  -29.4985  -21.4237   20.4366 C   0  0  0  0  0  0
  -28.9597  -23.6879   20.3692 C   0  0  0  0  0  0
  -32.1658  -23.3134   21.9934 C   0  0  0  0  0  0
  -31.3511  -16.4307   23.0392 C   0  0  0  0  0  0
  -29.3205  -19.9161   19.9449 C   0  0  0  0  0  0
  -27.9750  -24.8813   19.9860 C   0  0  0  0  0  0
  -29.6847  -18.6362   20.8731 C   0  0  0  0  0  0
  -29.9763  -16.0280   22.4691 C   0  0  0  0  0  0
  -29.7819  -17.1476   20.2021 C   0  0  0  0  0  0
  -30.6499  -21.6911   21.0391 N   0  0  0  0  0  0
  -30.0885  -24.0172   20.9869 N   0  0  0  0  0  0
  -28.6158  -22.3958   20.0731 N   0  0  0  0  0  0
  -29.9953  -15.8489   21.0070 N   0  0  0  0  0  0
  -31.4758  -12.5460   19.1971 H   0  0  0  0  0  0
  -30.3531  -11.4627   19.9567 H   0  0  0  0  0  0
  -29.8032  -11.7649   17.5172 H   0  0  0  0  0  0
  -29.6480  -13.4895   17.7526 H   0  0  0  0  0  0
  -27.8958  -11.2915   18.8966 H   0  0  0  0  0  0
  -27.3898  -12.5478   17.7992 H   0  0  0  0  0  0
  -27.6505  -14.2602   19.4920 H   0  0  0  0  0  0
  -28.7055  -12.1462   21.4294 H   0  0  0  0  0  0
  -28.3847  -13.8143   21.8036 H   0  0  0  0  0  0
  -25.2788   -9.5676   22.4758 H   0  0  0  0  0  0
  -24.0020   -7.4634   22.7465 H   0  0  0  0  0  0
  -21.0875   -8.8782   19.8945 H   0  0  0  0  0  0
  -22.3730  -10.9675   19.6174 H   0  0  0  0  0  0
  -21.2008   -7.6144   23.9713 H   0  0  0  0  0  0
  -21.1490   -6.0519   25.9075 H   0  0  0  0  0  0
  -22.0599   -2.7606   23.2839 H   0  0  0  0  0  0
  -22.4121  -11.9877   22.4785 H   0  0  0  0  0  0
  -21.1095  -13.1205   22.2615 H   0  0  0  0  0  0
  -24.6614  -15.8512   20.5363 H   0  0  0  0  0  0
  -26.2902  -15.6317   20.1318 H   0  0  0  0  0  0
  -26.7210  -32.5410   23.1082 H   0  0  0  0  0  0
  -25.0074  -33.9709   25.0399 H   0  0  0  0  0  0
  -22.7245  -31.3041   21.4021 H   0  0  0  0  0  0
  -23.3771  -35.9591   23.3288 H   0  0  0  0  0  0
  -24.3577  -36.8917   22.2053 H   0  0  0  0  0  0
  -23.7229  -37.6466   23.6675 H   0  0  0  0  0  0
  -26.1204  -31.5321   20.6162 H   0  0  0  0  0  0
  -26.8529  -30.8126   22.0182 H   0  0  0  0  0  0
  -28.1178  -28.9159   21.2125 H   0  0  0  0  0  0
  -25.9157  -25.9341   18.9671 H   0  0  0  0  0  0
  -23.9640  -27.3339   18.9895 H   0  0  0  0  0  0
  -23.7710  -30.6008   19.4066 H   0  0  0  0  0  0
  -22.7641  -29.2565   19.8529 H   0  0  0  0  0  0
  -25.1301  -36.1921   25.0820 H   0  0  0  0  0  0
  -20.9997  -28.3291   24.1388 H   0  0  0  0  0  0
  -20.5712  -26.2316   23.3615 H   0  0  0  0  0  0
  -21.6652  -26.7455   22.1185 H   0  0  0  0  0  0
  -19.6917  -25.6299   21.1251 H   0  0  0  0  0  0
  -19.6689  -27.3201   20.6749 H   0  0  0  0  0  0
  -17.4208  -26.6692   21.4033 H   0  0  0  0  0  0
  -18.0327  -26.0081   22.9030 H   0  0  0  0  0  0
  -19.7942  -30.7299   24.2241 H   0  0  0  0  0  0
  -17.5017  -31.6266   24.5179 H   0  0  0  0  0  0
  -15.5360  -30.2987   23.7663 H   0  0  0  0  0  0
  -15.8688  -28.0832   22.7060 H   0  0  0  0  0  0
  -24.5881  -30.7125   25.7734 H   0  0  0  0  0  0
  -24.8942  -32.2910   26.4874 H   0  0  0  0  0  0
  -25.8013  -30.8871   27.0206 H   0  0  0  0  0  0
  -26.2955  -29.6729   24.1255 H   0  0  0  0  0  0
  -27.4038  -29.7276   25.4762 H   0  0  0  0  0  0
  -27.8840  -30.4261   23.9489 H   0  0  0  0  0  0
  -27.2673  -33.3629   26.2077 H   0  0  0  0  0  0
  -28.3866  -32.6906   25.0316 H   0  0  0  0  0  0
  -28.0755  -31.8462   26.5407 H   0  0  0  0  0  0
  -28.2591  -38.0101   24.7540 H   0  0  0  0  0  0
  -28.1100  -36.2634   24.6257 H   0  0  0  0  0  0
  -27.2302  -37.1394   25.8865 H   0  0  0  0  0  0
  -20.9419  -29.8762   21.6843 H   0  0  0  0  0  0
  -26.0173  -38.2846   24.1436 H   0  0  0  0  0  0
  -32.6021  -22.4312   22.4630 H   0  0  0  0  0  0
  -32.0044  -24.0576   22.7734 H   0  0  0  0  0  0
  -32.8907  -23.7131   21.2842 H   0  0  0  0  0  0
  -31.7800  -17.2860   22.5204 H   0  0  0  0  0  0
  -32.0712  -15.6142   22.9664 H   0  0  0  0  0  0
  -31.2694  -16.6954   24.0943 H   0  0  0  0  0  0
  -29.9033  -19.8330   19.0280 H   0  0  0  0  0  0
  -28.2836  -19.8062   19.6264 H   0  0  0  0  0  0
  -27.0564  -24.6595   20.5309 H   0  0  0  0  0  0
  -27.7525  -24.7468   18.9272 H   0  0  0  0  0  0
  -28.9623  -18.6358   21.6881 H   0  0  0  0  0  0
  -30.6469  -18.8517   21.3349 H   0  0  0  0  0  0
  -29.2184  -16.7527   22.7581 H   0  0  0  0  0  0
  -29.6738  -15.1038   22.9618 H   0  0  0  0  0  0
  -30.5609  -17.1888   19.4388 H   0  0  0  0  0  0
  -28.8584  -16.9848   19.6464 H   0  0  0  0  0  0
  1 25  1  0  0  0
  1 30  2  0  0  0
  1 84  1  0  0  0
  2  3  1  0  0  0
  2 25  1  0  0  0
  2 85  1  0  0  0
  2 86  1  0  0  0
  3  4  1  0  0  0
  3 87  1  0  0  0
  3 88  1  0  0  0
  4  5  1  0  0  0
  4 89  1  0  0  0
  4 90  1  0  0  0
  5  6  1  0  0  0
  5 26  1  0  0  0
  5 91  1  0  0  0
  6 25  1  0  0  0
  6 92  1  0  0  0
  6 93  1  0  0  0
  7  8  2  0  0  0
  7 26  1  0  0  0
  7 29  1  0  0  0
  8  9  1  0  0  0
  8 22  1  0  0  0
  9 10  1  0  0  0
  9 27  2  0  0  0
 10 11  2  0  0  0
 10 15  1  0  0  0
 11 12  1  0  0  0
 11 94  1  0  0  0
 12 13  2  0  0  0
 12 95  1  0  0  0
 13 14  1  0  0  0
 13 31  1  0  0  0
 14 15  2  0  0  0
 14 96  1  0  0  0
 15 97  1  0  0  0
 16 17  2  0  0  0
 16 21  1  0  0  0
 16 31  1  0  0  0
 17 18  1  0  0  0
 17 98  1  0  0  0
 18 19  2  0  0  0
 18 99  1  0  0  0
 19 20  1  0  0  0
 19 24  1  0  0  0
 20 21  2  0  0  0
 20100  1  0  0  0
 21 23  1  0  0  0
 22 28  1  0  0  0
 22 32  2  0  0  0
 26 27  1  0  0  0
 28101  1  0  0  0
 28102  1  0  0  0
 29103  1  0  0  0
 29104  1  0  0  0
 33 34  1  0  0  0
 33 66  1  0  0  0
 33 70  2  0  0  0
 34 36  1  0  0  0
 34 59  1  0  0  0
 34105  1  0  0  0
 35 44  2  0  0  0
 35 45  1  0  0  0
 35 68  1  0  0  0
 36 56  1  0  0  0
 36106  1  0  0  0
 37 39  1  0  0  0
 37 47  1  0  0  0
 37 66  1  0  0  0
 37107  1  0  0  0
 38 43  2  0  0  0
 38 46  1  0  0  0
 38 47  1  0  0  0
 39 64  1  0  0  0
 39 67  2  0  0  0
 40 52  1  0  0  0
 40 53  2  0  0  0
 40 58  1  0  0  0
 41108  1  0  0  0
 41109  1  0  0  0
 41110  1  0  0  0
 41 48  1  0  0  0
 42 43  1  0  0  0
 42 66  1  0  0  0
 42111  1  0  0  0
 42112  1  0  0  0
 43 44  1  0  0  0
 44113  1  0  0  0
 45 46  2  0  0  0
 45114  1  0  0  0
 46115  1  0  0  0
 47116  1  0  0  0
 47117  1  0  0  0
 48 56  1  0  0  0
 48 65  1  0  0  0
 48118  1  0  0  0
 49 50  1  0  0  0
 49 53  1  0  0  0
 49 64  1  0  0  0
 49119  1  0  0  0
 50 51  1  0  0  0
 50120  1  0  0  0
 50121  1  0  0  0
 51 52  1  0  0  0
 51122  1  0  0  0
 51123  1  0  0  0
 52124  1  0  0  0
 52125  1  0  0  0
 53 54  1  0  0  0
 54 55  2  0  0  0
 54126  1  0  0  0
 55 57  1  0  0  0
 55127  1  0  0  0
 56 69  2  0  0  0
 57 58  2  0  0  0
 57128  1  0  0  0
 58129  1  0  0  0
 59 60  1  0  0  0
 59 61  1  0  0  0
 59 62  1  0  0  0
 60130  1  0  0  0
 60131  1  0  0  0
 60132  1  0  0  0
 61133  1  0  0  0
 61134  1  0  0  0
 61135  1  0  0  0
 62136  1  0  0  0
 62137  1  0  0  0
 62138  1  0  0  0
 63 65  1  0  0  0
 63139  1  0  0  0
 63140  1  0  0  0
 63141  1  0  0  0
 64142  1  0  0  0
 65143  1  0  0  0
 68 77  1  0  0  0
 71 74  1  0  0  0
 71 81  2  0  0  0
 71 82  1  0  0  0
 72 76  1  0  0  0
 72 81  1  0  0  0
 72 83  2  0  0  0
 73 77  1  0  0  0
 73 82  2  0  0  0
 73 83  1  0  0  0
 74144  1  0  0  0
 74145  1  0  0  0
 74146  1  0  0  0
 75 79  1  0  0  0
 75147  1  0  0  0
 75148  1  0  0  0
 75149  1  0  0  0
 76 78  1  0  0  0
 76150  1  0  0  0
 76151  1  0  0  0
 77152  1  0  0  0
 77153  1  0  0  0
 78 80  1  0  0  0
 78154  1  0  0  0
 78155  1  0  0  0
 79 84  1  0  0  0
 79156  1  0  0  0
 79157  1  0  0  0
 80 84  1  0  0  0
 80158  1  0  0  0
 80159  1  0  0  0
M  ISO  4   1 100  68 101  77 101  84 100
M  END
> <chiral flag>
0

> <version>
0

> <s_m_source_file>
/data/baiqing/PycharmProjects/Reinvent-master-3.2/result/LINK_invent/BTK/process_docking_weight1_custom_sum_contain_oxygen_bond_distance_aromatic_linkinvent_7_9_3/rearranged_h_0059.sdf

> <i_m_source_file_index>
81

> <r_mmod_Potential_Energy-OPLS-2005>
-249.932754516602

> <r_mmod_Stretch_Energy-OPLS-2005>
129.332641601562

> <r_mmod_Bend_Energy-OPLS-2005>
171.740020751953

> <r_mmod_Torsional_Energy-OPLS-2005>
289.919494628906

> <r_mmod_Improper_Torsional_Energy-OPLS-2005>
6.2737250328064

> <r_mmod_Van_der_Waal_Energy-OPLS-2005>
162.673751831055

> <r_mmod_Electrostatic_Energy-OPLS-2005>
-865.225952148438

> <r_mmod_Solvation_Energy-OPLS-2005>
-223.695495605469

> <b_mmod_Minimization_Converged-OPLS-2005>
0

> <r_mmod_RMS_Derivative-OPLS-2005>
1.50704765319824

$$$$
83
                    3D
 Structure written by MMmdl.
156164  0  0  1  0            999 V2000
  -30.7777  -14.4924   20.6160 C   0  0  0  0  0  0
  -30.4095  -12.3322   19.4583 C   0  0  0  0  0  0
  -29.5018  -12.5229   18.2265 C   0  0  0  0  0  0
  -28.0238  -12.3676   18.6248 C   0  0  0  0  0  0
  -27.6580  -13.2212   19.8655 C   0  0  2  0  0  0
  -28.6941  -13.0584   21.0003 C   0  0  0  0  0  0
  -25.2572  -13.8193   20.5703 C   0  0  0  0  0  0
  -24.1844  -13.0457   20.9176 C   0  0  0  0  0  0
  -24.6423  -11.6925   20.8732 C   0  0  0  0  0  0
  -23.9096  -10.4305   21.0421 C   0  0  0  0  0  0
  -24.3647   -9.4214   21.9197 C   0  0  0  0  0  0
  -23.6322   -8.2254   22.0762 C   0  0  0  0  0  0
  -22.4299   -8.0304   21.3559 C   0  0  0  0  0  0
  -21.9948   -9.0277   20.4654 C   0  0  0  0  0  0
  -22.7277  -10.2150   20.3066 C   0  0  0  0  0  0
  -21.6854   -6.0762   22.5283 C   0  0  0  0  0  0
  -21.4028   -6.5657   23.8218 C   0  0  0  0  0  0
  -21.3662   -5.6806   24.9182 C   0  0  0  0  0  0
  -21.6034   -4.3066   24.7226 C   0  0  0  0  0  0
  -21.8826   -3.8167   23.4343 C   0  0  0  0  0  0
  -21.9196   -4.6989   22.3405 C   0  0  0  0  0  0
  -22.7847  -13.5220   21.1850 C   0  0  0  0  0  0
  -22.1659   -4.2176   21.0982 F   0  0  0  0  0  0
  -21.5639   -3.4550   25.7737 F   0  0  0  0  0  0
  -30.0361  -13.3481   20.4637 N   0  0  0  0  0  0
  -26.3012  -12.9394   20.3318 N   0  0  0  0  0  0
  -25.9342  -11.6533   20.5726 N   0  0  0  0  0  0
  -22.0492  -12.8211   22.0390 N   0  0  0  0  0  0
  -25.4291  -15.1922   20.4171 N   0  0  0  0  0  0
  -31.8413  -14.6443   20.0075 O   0  0  0  0  0  0
  -21.6652   -6.8912   21.4248 O   0  0  0  0  0  0
  -22.3520  -14.5528   20.6707 O   0  0  0  0  0  0
  -24.6205  -31.8666   23.2098 C   0  0  0  0  0  0
  -25.9087  -32.4815   23.8397 C   0  0  1  0  0  0
  -27.2234  -27.3846   20.1108 C   0  0  0  0  0  0
  -25.5949  -33.8620   24.2325 N   0  0  0  0  0  0
  -23.4082  -30.4957   21.5534 C   0  0  2  0  0  0
  -24.8514  -28.9621   20.1187 C   0  0  0  0  0  0
  -22.7429  -29.4672   22.4981 C   0  0  0  0  0  0
  -18.0282  -28.1368   22.8494 C   0  0  0  0  0  0
  -24.1502  -36.7303   23.2628 C   0  0  0  0  0  0
  -25.9468  -30.8200   21.3722 C   0  0  0  0  0  0
  -26.0205  -29.4563   20.7087 C   0  0  0  0  0  0
  -27.2108  -28.6802   20.6941 C   0  0  0  0  0  0
  -26.0196  -26.9216   19.5221 C   0  0  0  0  0  0
  -24.8479  -27.6947   19.5217 C   0  0  0  0  0  0
  -23.6176  -29.8355   20.1667 C   0  0  0  0  0  0
  -25.4120  -36.3096   24.0323 C   0  0  1  0  0  0
  -20.5879  -28.3671   23.1300 C   0  0  2  0  0  0
  -20.6783  -26.9410   22.5399 C   0  0  0  0  0  0
  -19.5758  -26.6375   21.5207 C   0  0  0  0  0  0
  -18.1933  -26.7917   22.1620 C   0  0  0  0  0  0
  -19.1533  -28.8834   23.2894 C   0  0  0  0  0  0
  -18.9459  -30.1446   23.8895 C   0  0  0  0  0  0
  -17.6459  -30.6581   24.0563 C   0  0  0  0  0  0
  -25.9058  -34.9470   23.5112 C   0  0  0  0  0  0
  -16.5348  -29.9073   23.6348 C   0  0  0  0  0  0
  -16.7270  -28.6490   23.0370 C   0  0  0  0  0  0
  -26.4490  -31.6605   25.0747 C   0  0  0  0  0  0
  -25.3733  -31.3758   26.1481 C   0  0  0  0  0  0
  -27.0325  -30.3025   24.6189 C   0  0  0  0  0  0
  -27.6061  -32.4330   25.7514 C   0  0  0  0  0  0
  -27.5596  -37.1803   24.8453 C   0  0  0  0  0  0
  -21.4157  -29.3048   22.3709 N   0  0  0  0  0  0
  -26.4306  -37.3786   23.9401 N   0  0  0  0  0  0
  -24.6770  -31.0743   22.1022 N   0  0  0  0  0  0
  -23.4177  -28.8200   23.3037 O   0  0  0  0  0  0
  -28.3674  -26.5847   20.1513 O   0  0  0  0  0  0
  -26.5603  -34.8925   22.4662 O   0  0  0  0  0  0
  -23.5387  -32.1461   23.7460 O   0  0  0  0  0  0
  -30.9438  -21.4265   20.8818 C   0  0  0  0  0  0
  -31.1118  -20.1104   21.2345 C   0  0  0  0  0  0
  -29.6195  -21.4994   20.3666 C   0  0  0  0  0  0
  -30.1157  -15.3795   22.7794 C   0  0  0  0  0  0
  -28.8320  -22.6981   19.8403 C   0  0  0  0  0  0
  -29.2918  -24.1385   20.2466 C   0  0  0  0  0  0
  -29.5641  -18.0287   21.2119 C   0  0  0  0  0  0
  -30.6564  -16.9421   20.9621 C   0  0  0  0  0  0
  -28.1445  -25.1578   19.9788 C   0  0  0  0  0  0
  -29.0455  -20.2917   20.3842 N   0  0  0  0  0  0
  -29.9524  -19.4264   20.9177 N   0  0  0  0  0  0
  -30.2603  -15.5421   21.3248 N   0  0  0  0  0  0
  -31.4600  -12.3857   19.1692 H   0  0  0  0  0  0
  -30.2729  -11.3340   19.8789 H   0  0  0  0  0  0
  -29.7589  -11.8056   17.4474 H   0  0  0  0  0  0
  -29.6657  -13.5119   17.7956 H   0  0  0  0  0  0
  -27.8393  -11.3116   18.8290 H   0  0  0  0  0  0
  -27.3830  -12.6326   17.7850 H   0  0  0  0  0  0
  -27.6871  -14.2626   19.5454 H   0  0  0  0  0  0
  -28.6676  -12.0454   21.4013 H   0  0  0  0  0  0
  -28.4138  -13.7114   21.8246 H   0  0  0  0  0  0
  -25.2811   -9.5681   22.4749 H   0  0  0  0  0  0
  -24.0033   -7.4649   22.7478 H   0  0  0  0  0  0
  -21.0904   -8.8800   19.8932 H   0  0  0  0  0  0
  -22.3766  -10.9702   19.6168 H   0  0  0  0  0  0
  -21.1999   -7.6161   23.9727 H   0  0  0  0  0  0
  -21.1488   -6.0539   25.9086 H   0  0  0  0  0  0
  -22.0598   -2.7632   23.2838 H   0  0  0  0  0  0
  -22.4125  -11.9871   22.4768 H   0  0  0  0  0  0
  -21.1095  -13.1203   22.2576 H   0  0  0  0  0  0
  -24.6710  -15.8553   20.5362 H   0  0  0  0  0  0
  -26.2936  -15.6307   20.1249 H   0  0  0  0  0  0
  -26.7156  -32.5503   23.1154 H   0  0  0  0  0  0
  -25.0142  -33.9797   25.0496 H   0  0  0  0  0  0
  -22.6990  -31.3148   21.4176 H   0  0  0  0  0  0
  -23.3783  -35.9621   23.3278 H   0  0  0  0  0  0
  -24.3608  -36.8944   22.2052 H   0  0  0  0  0  0
  -23.7251  -37.6496   23.6665 H   0  0  0  0  0  0
  -26.0784  -31.5921   20.6128 H   0  0  0  0  0  0
  -26.8248  -30.8569   22.0045 H   0  0  0  0  0  0
  -28.1102  -29.0600   21.1584 H   0  0  0  0  0  0
  -25.9353  -25.9446   19.0726 H   0  0  0  0  0  0
  -23.9424  -27.2994   19.0825 H   0  0  0  0  0  0
  -23.7320  -30.6166   19.4143 H   0  0  0  0  0  0
  -22.7388  -29.2629   19.8645 H   0  0  0  0  0  0
  -25.1302  -36.1954   25.0820 H   0  0  0  0  0  0
  -20.9978  -28.3237   24.1421 H   0  0  0  0  0  0
  -20.5732  -26.2268   23.3582 H   0  0  0  0  0  0
  -21.6649  -26.7479   22.1172 H   0  0  0  0  0  0
  -19.6934  -25.6287   21.1244 H   0  0  0  0  0  0
  -19.6707  -27.3180   20.6737 H   0  0  0  0  0  0
  -17.4215  -26.6680   21.4018 H   0  0  0  0  0  0
  -18.0340  -26.0045   22.9004 H   0  0  0  0  0  0
  -19.7932  -30.7264   24.2264 H   0  0  0  0  0  0
  -17.5016  -31.6275   24.5142 H   0  0  0  0  0  0
  -15.5352  -30.2971   23.7676 H   0  0  0  0  0  0
  -15.8669  -28.0795   22.7106 H   0  0  0  0  0  0
  -24.5829  -30.7220   25.7791 H   0  0  0  0  0  0
  -24.9033  -32.2950   26.4986 H   0  0  0  0  0  0
  -25.8034  -30.8833   27.0209 H   0  0  0  0  0  0
  -26.2905  -29.6788   24.1197 H   0  0  0  0  0  0
  -27.4008  -29.7274   25.4699 H   0  0  0  0  0  0
  -27.8780  -30.4315   23.9425 H   0  0  0  0  0  0
  -27.2666  -33.3601   26.2153 H   0  0  0  0  0  0
  -28.3837  -32.6950   25.0323 H   0  0  0  0  0  0
  -28.0772  -31.8425   26.5387 H   0  0  0  0  0  0
  -28.2574  -38.0138   24.7543 H   0  0  0  0  0  0
  -28.1134  -36.2671   24.6223 H   0  0  0  0  0  0
  -27.2320  -37.1382   25.8856 H   0  0  0  0  0  0
  -20.9302  -29.8770   21.6934 H   0  0  0  0  0  0
  -26.0189  -38.2860   24.1422 H   0  0  0  0  0  0
  -31.6569  -22.2302   21.0020 H   0  0  0  0  0  0
  -31.9519  -19.6145   21.7026 H   0  0  0  0  0  0
  -30.8399  -15.9870   23.3229 H   0  0  0  0  0  0
  -30.2663  -14.3504   23.1137 H   0  0  0  0  0  0
  -29.1191  -15.6867   23.0998 H   0  0  0  0  0  0
  -27.7958  -22.5767   20.1566 H   0  0  0  0  0  0
  -28.7949  -22.6466   18.7503 H   0  0  0  0  0  0
  -30.1878  -24.4078   19.6880 H   0  0  0  0  0  0
  -29.5588  -24.1658   21.3033 H   0  0  0  0  0  0
  -29.2577  -18.0054   22.2580 H   0  0  0  0  0  0
  -28.6763  -17.7832   20.6292 H   0  0  0  0  0  0
  -31.5686  -17.1995   21.5033 H   0  0  0  0  0  0
  -30.9233  -16.9947   19.9049 H   0  0  0  0  0  0
  -27.3252  -24.8683   20.6398 H   0  0  0  0  0  0
  -27.8200  -24.9871   18.9531 H   0  0  0  0  0  0
  1 25  1  0  0  0
  1 30  2  0  0  0
  1 82  1  0  0  0
  2  3  1  0  0  0
  2 25  1  0  0  0
  2 83  1  0  0  0
  2 84  1  0  0  0
  3  4  1  0  0  0
  3 85  1  0  0  0
  3 86  1  0  0  0
  4  5  1  0  0  0
  4 87  1  0  0  0
  4 88  1  0  0  0
  5  6  1  0  0  0
  5 26  1  0  0  0
  5 89  1  0  0  0
  6 25  1  0  0  0
  6 90  1  0  0  0
  6 91  1  0  0  0
  7  8  2  0  0  0
  7 26  1  0  0  0
  7 29  1  0  0  0
  8  9  1  0  0  0
  8 22  1  0  0  0
  9 10  1  0  0  0
  9 27  2  0  0  0
 10 11  2  0  0  0
 10 15  1  0  0  0
 11 12  1  0  0  0
 11 92  1  0  0  0
 12 13  2  0  0  0
 12 93  1  0  0  0
 13 14  1  0  0  0
 13 31  1  0  0  0
 14 15  2  0  0  0
 14 94  1  0  0  0
 15 95  1  0  0  0
 16 17  2  0  0  0
 16 21  1  0  0  0
 16 31  1  0  0  0
 17 18  1  0  0  0
 17 96  1  0  0  0
 18 19  2  0  0  0
 18 97  1  0  0  0
 19 20  1  0  0  0
 19 24  1  0  0  0
 20 21  2  0  0  0
 20 98  1  0  0  0
 21 23  1  0  0  0
 22 28  1  0  0  0
 22 32  2  0  0  0
 26 27  1  0  0  0
 28 99  1  0  0  0
 28100  1  0  0  0
 29101  1  0  0  0
 29102  1  0  0  0
 33 34  1  0  0  0
 33 66  1  0  0  0
 33 70  2  0  0  0
 34 36  1  0  0  0
 34 59  1  0  0  0
 34103  1  0  0  0
 35 44  2  0  0  0
 35 45  1  0  0  0
 35 68  1  0  0  0
 36 56  1  0  0  0
 36104  1  0  0  0
 37 39  1  0  0  0
 37 47  1  0  0  0
 37 66  1  0  0  0
 37105  1  0  0  0
 38 43  2  0  0  0
 38 46  1  0  0  0
 38 47  1  0  0  0
 39 64  1  0  0  0
 39 67  2  0  0  0
 40 52  1  0  0  0
 40 53  2  0  0  0
 40 58  1  0  0  0
 41106  1  0  0  0
 41107  1  0  0  0
 41108  1  0  0  0
 41 48  1  0  0  0
 42 43  1  0  0  0
 42 66  1  0  0  0
 42109  1  0  0  0
 42110  1  0  0  0
 43 44  1  0  0  0
 44111  1  0  0  0
 45 46  2  0  0  0
 45112  1  0  0  0
 46113  1  0  0  0
 47114  1  0  0  0
 47115  1  0  0  0
 48 56  1  0  0  0
 48 65  1  0  0  0
 48116  1  0  0  0
 49 50  1  0  0  0
 49 53  1  0  0  0
 49 64  1  0  0  0
 49117  1  0  0  0
 50 51  1  0  0  0
 50118  1  0  0  0
 50119  1  0  0  0
 51 52  1  0  0  0
 51120  1  0  0  0
 51121  1  0  0  0
 52122  1  0  0  0
 52123  1  0  0  0
 53 54  1  0  0  0
 54 55  2  0  0  0
 54124  1  0  0  0
 55 57  1  0  0  0
 55125  1  0  0  0
 56 69  2  0  0  0
 57 58  2  0  0  0
 57126  1  0  0  0
 58127  1  0  0  0
 59 60  1  0  0  0
 59 61  1  0  0  0
 59 62  1  0  0  0
 60128  1  0  0  0
 60129  1  0  0  0
 60130  1  0  0  0
 61131  1  0  0  0
 61132  1  0  0  0
 61133  1  0  0  0
 62134  1  0  0  0
 62135  1  0  0  0
 62136  1  0  0  0
 63 65  1  0  0  0
 63137  1  0  0  0
 63138  1  0  0  0
 63139  1  0  0  0
 64140  1  0  0  0
 65141  1  0  0  0
 68 79  1  0  0  0
 71 72  2  0  0  0
 71 73  1  0  0  0
 71142  1  0  0  0
 72 81  1  0  0  0
 72143  1  0  0  0
 73 75  1  0  0  0
 73 80  2  0  0  0
 74 82  1  0  0  0
 74144  1  0  0  0
 74145  1  0  0  0
 74146  1  0  0  0
 75 76  1  0  0  0
 75147  1  0  0  0
 75148  1  0  0  0
 76 79  1  0  0  0
 76149  1  0  0  0
 76150  1  0  0  0
 77 78  1  0  0  0
 77 81  1  0  0  0
 77151  1  0  0  0
 77152  1  0  0  0
 78 82  1  0  0  0
 78153  1  0  0  0
 78154  1  0  0  0
 79155  1  0  0  0
 79156  1  0  0  0
 80 81  1  0  0  0
M  ISO  4   1 100  68 101  79 101  82 100
M  END
> <chiral flag>
0

> <version>
0

> <s_m_source_file>
/data/baiqing/PycharmProjects/Reinvent-master-3.2/result/LINK_invent/BTK/process_docking_weight1_custom_sum_contain_oxygen_bond_distance_aromatic_linkinvent_7_9_3/rearranged_h_0059.sdf

> <i_m_source_file_index>
82

> <r_mmod_Potential_Energy-OPLS-2005>
64.2173538208008

> <r_mmod_Stretch_Energy-OPLS-2005>
51.1630973815918

> <r_mmod_Bend_Energy-OPLS-2005>
119.207397460938

> <r_mmod_Torsional_Energy-OPLS-2005>
269.832061767578

> <r_mmod_Improper_Torsional_Energy-OPLS-2005>
6.98177719116211

> <r_mmod_Van_der_Waal_Energy-OPLS-2005>
141.876800537109

> <r_mmod_Electrostatic_Energy-OPLS-2005>
-335.803344726562

> <r_mmod_Solvation_Energy-OPLS-2005>
-210.679763793945

> <b_mmod_Minimization_Converged-OPLS-2005>
0

> <r_mmod_RMS_Derivative-OPLS-2005>
3.06694221496582

$$$$
84
                    3D
 Structure written by MMmdl.
171179  0  0  1  0            999 V2000
  -30.6929  -14.5759   20.6036 C   0  0  0  0  0  0
  -30.4155  -12.3841   19.4567 C   0  0  0  0  0  0
  -29.5078  -12.5397   18.2197 C   0  0  0  0  0  0
  -28.0210  -12.3877   18.6061 C   0  0  0  0  0  0
  -27.6498  -13.2164   19.8637 C   0  0  2  0  0  0
  -28.6796  -12.9873   20.9837 C   0  0  0  0  0  0
  -25.2509  -13.8159   20.5627 C   0  0  0  0  0  0
  -24.1798  -13.0424   20.9181 C   0  0  0  0  0  0
  -24.6377  -11.6904   20.8738 C   0  0  0  0  0  0
  -23.9051  -10.4281   21.0409 C   0  0  0  0  0  0
  -24.3611   -9.4201   21.9202 C   0  0  0  0  0  0
  -23.6295   -8.2220   22.0766 C   0  0  0  0  0  0
  -22.4272   -8.0256   21.3538 C   0  0  0  0  0  0
  -21.9892   -9.0237   20.4647 C   0  0  0  0  0  0
  -22.7211  -10.2123   20.3062 C   0  0  0  0  0  0
  -21.6851   -6.0736   22.5302 C   0  0  0  0  0  0
  -21.4001   -6.5650   23.8233 C   0  0  0  0  0  0
  -21.3648   -5.6798   24.9203 C   0  0  0  0  0  0
  -21.6057   -4.3067   24.7244 C   0  0  0  0  0  0
  -21.8810   -3.8141   23.4365 C   0  0  0  0  0  0
  -21.9182   -4.6959   22.3416 C   0  0  0  0  0  0
  -22.7802  -13.5236   21.1873 C   0  0  0  0  0  0
  -22.1645   -4.2137   21.0998 F   0  0  0  0  0  0
  -21.5649   -3.4566   25.7764 F   0  0  0  0  0  0
  -29.9935  -13.3958   20.4569 N   0  0  0  0  0  0
  -26.2943  -12.9364   20.3250 N   0  0  0  0  0  0
  -25.9284  -11.6514   20.5707 N   0  0  0  0  0  0
  -22.0415  -12.8240   22.0421 N   0  0  0  0  0  0
  -25.4212  -15.1881   20.3984 N   0  0  0  0  0  0
  -31.8403  -14.6303   20.1421 O   0  0  0  0  0  0
  -21.6622   -6.8870   21.4259 O   0  0  0  0  0  0
  -22.3503  -14.5536   20.6714 O   0  0  0  0  0  0
  -24.6217  -31.8591   23.2064 C   0  0  0  0  0  0
  -25.9085  -32.4791   23.8365 C   0  0  1  0  0  0
  -27.2389  -27.3717   20.0948 C   0  0  0  0  0  0
  -25.5909  -33.8600   24.2270 N   0  0  0  0  0  0
  -23.4147  -30.4826   21.5471 C   0  0  2  0  0  0
  -24.8611  -28.9410   20.1131 C   0  0  0  0  0  0
  -22.7417  -29.4605   22.4917 C   0  0  0  0  0  0
  -18.0267  -28.1401   22.8508 C   0  0  0  0  0  0
  -24.1466  -36.7324   23.2643 C   0  0  0  0  0  0
  -25.9471  -30.8069   21.3700 C   0  0  0  0  0  0
  -26.0230  -29.4382   20.7129 C   0  0  0  0  0  0
  -27.2114  -28.6621   20.6962 C   0  0  0  0  0  0
  -26.0505  -26.9014   19.4929 C   0  0  0  0  0  0
  -24.8709  -27.6746   19.5045 C   0  0  0  0  0  0
  -23.6306  -29.8218   20.1582 C   0  0  0  0  0  0
  -25.4090  -36.3086   24.0314 C   0  0  1  0  0  0
  -20.5871  -28.3686   23.1290 C   0  0  2  0  0  0
  -20.6748  -26.9420   22.5401 C   0  0  0  0  0  0
  -19.5729  -26.6391   21.5209 C   0  0  0  0  0  0
  -18.1912  -26.7948   22.1633 C   0  0  0  0  0  0
  -19.1525  -28.8859   23.2907 C   0  0  0  0  0  0
  -18.9462  -30.1470   23.8906 C   0  0  0  0  0  0
  -17.6462  -30.6608   24.0576 C   0  0  0  0  0  0
  -25.9041  -34.9448   23.5085 C   0  0  0  0  0  0
  -16.5352  -29.9108   23.6347 C   0  0  0  0  0  0
  -16.7257  -28.6531   23.0358 C   0  0  0  0  0  0
  -26.4498  -31.6642   25.0749 C   0  0  0  0  0  0
  -25.3763  -31.3806   26.1513 C   0  0  0  0  0  0
  -27.0354  -30.3055   24.6235 C   0  0  0  0  0  0
  -27.6024  -32.4423   25.7543 C   0  0  0  0  0  0
  -27.5565  -37.1796   24.8448 C   0  0  0  0  0  0
  -21.4130  -29.3039   22.3668 N   0  0  0  0  0  0
  -26.4256  -37.3786   23.9420 N   0  0  0  0  0  0
  -24.6800  -31.0645   22.1004 N   0  0  0  0  0  0
  -23.4147  -28.8123   23.2979 O   0  0  0  0  0  0
  -28.4114  -26.6212   20.1213 O   0  0  0  0  0  0
  -26.5607  -34.8914   22.4652 O   0  0  0  0  0  0
  -23.5394  -32.1368   23.7406 O   0  0  0  0  0  0
  -28.6866  -19.4862   18.9401 C   0  0  0  0  0  0
  -29.3333  -20.3760   19.7785 C   0  0  0  0  0  0
  -29.9208  -18.2455   20.2329 C   0  0  0  0  0  0
  -26.4537  -19.2343   17.7596 C   0  0  0  0  0  0
  -29.1163  -17.0645   23.0528 C   0  0  0  0  0  0
  -28.3107  -22.1237   22.0339 C   0  0  0  0  0  0
  -31.1365  -20.0038   21.5513 C   0  0  0  0  0  0
  -27.8899  -19.7607   17.6951 C   0  0  0  0  0  0
  -29.3921  -21.9255   19.6807 C   0  0  0  0  0  0
  -30.7699  -17.0607   20.7230 C   0  0  0  0  0  0
  -27.9338  -24.0877   20.4304 C   0  0  0  0  0  0
  -29.1271  -15.8038   22.1591 C   0  0  0  0  0  0
  -28.4981  -25.2732   19.5646 C   0  0  0  0  0  0
  -28.8942  -22.8894   20.8344 C   0  0  1  0  0  0
  -29.0147  -18.1654   19.2657 N   0  0  0  0  0  0
  -30.1514  -19.5469   20.5822 N   0  0  0  0  0  0
  -30.0831  -15.7519   21.0235 N   0  0  0  0  0  0
  -31.4615  -12.4820   19.1595 H   0  0  0  0  0  0
  -30.3317  -11.3742   19.8629 H   0  0  0  0  0  0
  -29.7768  -11.8093   17.4568 H   0  0  0  0  0  0
  -29.6676  -13.5206   17.7724 H   0  0  0  0  0  0
  -27.8318  -11.3319   18.7972 H   0  0  0  0  0  0
  -27.3848  -12.6706   17.7654 H   0  0  0  0  0  0
  -27.6933  -14.2673   19.5756 H   0  0  0  0  0  0
  -28.7028  -11.9310   21.2491 H   0  0  0  0  0  0
  -28.3596  -13.4529   21.9052 H   0  0  0  0  0  0
  -25.2763   -9.5709   22.4767 H   0  0  0  0  0  0
  -24.0009   -7.4628   22.7489 H   0  0  0  0  0  0
  -21.0801   -8.8754   19.8970 H   0  0  0  0  0  0
  -22.3660  -10.9673   19.6168 H   0  0  0  0  0  0
  -21.1982   -7.6152   23.9761 H   0  0  0  0  0  0
  -21.1493   -6.0524   25.9122 H   0  0  0  0  0  0
  -22.0592   -2.7598   23.2884 H   0  0  0  0  0  0
  -22.3960  -11.9858   22.4789 H   0  0  0  0  0  0
  -21.1062  -13.1341   22.2681 H   0  0  0  0  0  0
  -24.6617  -15.8505   20.5046 H   0  0  0  0  0  0
  -26.2755  -15.6178   20.0692 H   0  0  0  0  0  0
  -26.7141  -32.5458   23.1117 H   0  0  0  0  0  0
  -25.0021  -33.9765   25.0383 H   0  0  0  0  0  0
  -22.7139  -31.3060   21.4041 H   0  0  0  0  0  0
  -23.3709  -35.9679   23.3283 H   0  0  0  0  0  0
  -24.3559  -36.8999   22.2069 H   0  0  0  0  0  0
  -23.7242  -37.6518   23.6700 H   0  0  0  0  0  0
  -26.0747  -31.5738   20.6032 H   0  0  0  0  0  0
  -26.8295  -30.8533   21.9991 H   0  0  0  0  0  0
  -28.1077  -29.0520   21.1581 H   0  0  0  0  0  0
  -26.0130  -25.9370   19.0087 H   0  0  0  0  0  0
  -23.9749  -27.2861   19.0421 H   0  0  0  0  0  0
  -23.7607  -30.6065   19.4112 H   0  0  0  0  0  0
  -22.7496  -29.2627   19.8416 H   0  0  0  0  0  0
  -25.1266  -36.1910   25.0800 H   0  0  0  0  0  0
  -20.9999  -28.3252   24.1404 H   0  0  0  0  0  0
  -20.5643  -26.2295   23.3596 H   0  0  0  0  0  0
  -21.6603  -26.7424   22.1207 H   0  0  0  0  0  0
  -19.6873  -25.6291   21.1267 H   0  0  0  0  0  0
  -19.6667  -27.3161   20.6717 H   0  0  0  0  0  0
  -17.4163  -26.6696   21.4055 H   0  0  0  0  0  0
  -18.0334  -26.0082   22.9027 H   0  0  0  0  0  0
  -19.7929  -30.7295   24.2272 H   0  0  0  0  0  0
  -17.5011  -31.6298   24.5162 H   0  0  0  0  0  0
  -15.5352  -30.3018   23.7684 H   0  0  0  0  0  0
  -15.8659  -28.0865   22.7075 H   0  0  0  0  0  0
  -24.5865  -30.7241   25.7864 H   0  0  0  0  0  0
  -24.9063  -32.3002   26.4993 H   0  0  0  0  0  0
  -25.8105  -30.8932   27.0250 H   0  0  0  0  0  0
  -26.2927  -29.6815   24.1250 H   0  0  0  0  0  0
  -27.4021  -29.7325   25.4765 H   0  0  0  0  0  0
  -27.8807  -30.4342   23.9475 H   0  0  0  0  0  0
  -27.2560  -33.3682   26.2151 H   0  0  0  0  0  0
  -28.3822  -32.7086   25.0402 H   0  0  0  0  0  0
  -28.0717  -31.8573   26.5468 H   0  0  0  0  0  0
  -28.2542  -38.0129   24.7509 H   0  0  0  0  0  0
  -28.1086  -36.2648   24.6210 H   0  0  0  0  0  0
  -27.2298  -37.1394   25.8857 H   0  0  0  0  0  0
  -20.9274  -29.8813   21.6946 H   0  0  0  0  0  0
  -26.0120  -38.2840   24.1468 H   0  0  0  0  0  0
  -25.9226  -19.4561   16.8334 H   0  0  0  0  0  0
  -25.9059  -19.6839   18.5858 H   0  0  0  0  0  0
  -26.4412  -18.1539   17.8978 H   0  0  0  0  0  0
  -28.4596  -16.9094   23.9124 H   0  0  0  0  0  0
  -28.7309  -17.9393   22.5285 H   0  0  0  0  0  0
  -30.1029  -17.2930   23.4566 H   0  0  0  0  0  0
  -29.0336  -21.4255   22.4525 H   0  0  0  0  0  0
  -27.4236  -21.5564   21.7496 H   0  0  0  0  0  0
  -28.0344  -22.7974   22.8475 H   0  0  0  0  0  0
  -31.3059  -21.0741   21.4533 H   0  0  0  0  0  0
  -32.0884  -19.4982   21.3864 H   0  0  0  0  0  0
  -30.7870  -19.7967   22.5617 H   0  0  0  0  0  0
  -28.3929  -19.3010   16.8410 H   0  0  0  0  0  0
  -27.8691  -20.8241   17.4686 H   0  0  0  0  0  0
  -28.8895  -22.2397   18.7701 H   0  0  0  0  0  0
  -30.4324  -22.1859   19.4877 H   0  0  0  0  0  0
  -31.3565  -17.3398   21.5996 H   0  0  0  0  0  0
  -31.5140  -16.9338   19.9372 H   0  0  0  0  0  0
  -27.0387  -23.6883   19.9507 H   0  0  0  0  0  0
  -27.5493  -24.5418   21.3456 H   0  0  0  0  0  0
  -28.1196  -15.6603   21.7667 H   0  0  0  0  0  0
  -29.3495  -14.9869   22.8453 H   0  0  0  0  0  0
  -28.0711  -25.2419   18.5621 H   0  0  0  0  0  0
  -29.5630  -25.0934   19.4089 H   0  0  0  0  0  0
  -29.7923  -23.3678   21.2276 H   0  0  0  0  0  0
  1 25  1  0  0  0
  1 30  2  0  0  0
  1 87  1  0  0  0
  2  3  1  0  0  0
  2 25  1  0  0  0
  2 88  1  0  0  0
  2 89  1  0  0  0
  3  4  1  0  0  0
  3 90  1  0  0  0
  3 91  1  0  0  0
  4  5  1  0  0  0
  4 92  1  0  0  0
  4 93  1  0  0  0
  5  6  1  0  0  0
  5 26  1  0  0  0
  5 94  1  0  0  0
  6 25  1  0  0  0
  6 95  1  0  0  0
  6 96  1  0  0  0
  7  8  2  0  0  0
  7 26  1  0  0  0
  7 29  1  0  0  0
  8  9  1  0  0  0
  8 22  1  0  0  0
  9 10  1  0  0  0
  9 27  2  0  0  0
 10 11  2  0  0  0
 10 15  1  0  0  0
 11 12  1  0  0  0
 11 97  1  0  0  0
 12 13  2  0  0  0
 12 98  1  0  0  0
 13 14  1  0  0  0
 13 31  1  0  0  0
 14 15  2  0  0  0
 14 99  1  0  0  0
 15100  1  0  0  0
 16 17  2  0  0  0
 16 21  1  0  0  0
 16 31  1  0  0  0
 17 18  1  0  0  0
 17101  1  0  0  0
 18 19  2  0  0  0
 18102  1  0  0  0
 19 20  1  0  0  0
 19 24  1  0  0  0
 20 21  2  0  0  0
 20103  1  0  0  0
 21 23  1  0  0  0
 22 28  1  0  0  0
 22 32  2  0  0  0
 26 27  1  0  0  0
 28104  1  0  0  0
 28105  1  0  0  0
 29106  1  0  0  0
 29107  1  0  0  0
 33 34  1  0  0  0
 33 66  1  0  0  0
 33 70  2  0  0  0
 34 36  1  0  0  0
 34 59  1  0  0  0
 34108  1  0  0  0
 35 44  2  0  0  0
 35 45  1  0  0  0
 35 68  1  0  0  0
 36 56  1  0  0  0
 36109  1  0  0  0
 37 39  1  0  0  0
 37 47  1  0  0  0
 37 66  1  0  0  0
 37110  1  0  0  0
 38 43  2  0  0  0
 38 46  1  0  0  0
 38 47  1  0  0  0
 39 64  1  0  0  0
 39 67  2  0  0  0
 40 52  1  0  0  0
 40 53  2  0  0  0
 40 58  1  0  0  0
 41111  1  0  0  0
 41112  1  0  0  0
 41113  1  0  0  0
 41 48  1  0  0  0
 42 43  1  0  0  0
 42 66  1  0  0  0
 42114  1  0  0  0
 42115  1  0  0  0
 43 44  1  0  0  0
 44116  1  0  0  0
 45 46  2  0  0  0
 45117  1  0  0  0
 46118  1  0  0  0
 47119  1  0  0  0
 47120  1  0  0  0
 48 56  1  0  0  0
 48 65  1  0  0  0
 48121  1  0  0  0
 49 50  1  0  0  0
 49 53  1  0  0  0
 49 64  1  0  0  0
 49122  1  0  0  0
 50 51  1  0  0  0
 50123  1  0  0  0
 50124  1  0  0  0
 51 52  1  0  0  0
 51125  1  0  0  0
 51126  1  0  0  0
 52127  1  0  0  0
 52128  1  0  0  0
 53 54  1  0  0  0
 54 55  2  0  0  0
 54129  1  0  0  0
 55 57  1  0  0  0
 55130  1  0  0  0
 56 69  2  0  0  0
 57 58  2  0  0  0
 57131  1  0  0  0
 58132  1  0  0  0
 59 60  1  0  0  0
 59 61  1  0  0  0
 59 62  1  0  0  0
 60133  1  0  0  0
 60134  1  0  0  0
 60135  1  0  0  0
 61136  1  0  0  0
 61137  1  0  0  0
 61138  1  0  0  0
 62139  1  0  0  0
 62140  1  0  0  0
 62141  1  0  0  0
 63 65  1  0  0  0
 63142  1  0  0  0
 63143  1  0  0  0
 63144  1  0  0  0
 64145  1  0  0  0
 65146  1  0  0  0
 68 83  1  0  0  0
 71 72  2  0  0  0
 71 78  1  0  0  0
 71 85  1  0  0  0
 72 79  1  0  0  0
 72 86  1  0  0  0
 73 80  1  0  0  0
 73 85  2  0  0  0
 73 86  1  0  0  0
 74 78  1  0  0  0
 74147  1  0  0  0
 74148  1  0  0  0
 74149  1  0  0  0
 75 82  1  0  0  0
 75150  1  0  0  0
 75151  1  0  0  0
 75152  1  0  0  0
 76153  1  0  0  0
 76154  1  0  0  0
 76155  1  0  0  0
 76 84  1  0  0  0
 77 86  1  0  0  0
 77156  1  0  0  0
 77157  1  0  0  0
 77158  1  0  0  0
 78159  1  0  0  0
 78160  1  0  0  0
 79 84  1  0  0  0
 79161  1  0  0  0
 79162  1  0  0  0
 80 87  1  0  0  0
 80163  1  0  0  0
 80164  1  0  0  0
 81 83  1  0  0  0
 81 84  1  0  0  0
 81165  1  0  0  0
 81166  1  0  0  0
 82 87  1  0  0  0
 82167  1  0  0  0
 82168  1  0  0  0
 83169  1  0  0  0
 83170  1  0  0  0
 84171  1  0  0  0
M  ISO  4   1 100  68 101  83 101  87 100
M  END
> <chiral flag>
0

> <version>
0

> <s_m_source_file>
/data/baiqing/PycharmProjects/Reinvent-master-3.2/result/LINK_invent/BTK/process_docking_weight1_custom_sum_contain_oxygen_bond_distance_aromatic_linkinvent_7_9_3/rearranged_h_0059.sdf

> <i_m_source_file_index>
83

> <r_mmod_Potential_Energy-OPLS-2005>
129.421936035156

> <r_mmod_Stretch_Energy-OPLS-2005>
75.0445175170898

> <r_mmod_Bend_Energy-OPLS-2005>
186.179550170898

> <r_mmod_Torsional_Energy-OPLS-2005>
267.062744140625

> <r_mmod_Improper_Torsional_Energy-OPLS-2005>
9.81556606292725

> <r_mmod_Van_der_Waal_Energy-OPLS-2005>
137.639694213867

> <r_mmod_Electrostatic_Energy-OPLS-2005>
-377.521240234375

> <r_mmod_Solvation_Energy-OPLS-2005>
-196.126998901367

> <b_mmod_Minimization_Converged-OPLS-2005>
0

> <r_mmod_RMS_Derivative-OPLS-2005>
5.22855663299561

$$$$
85
                    3D
 Structure written by MMmdl.
149157  0  0  1  0            999 V2000
  -30.5307  -14.8527   20.4938 C   0  0  0  0  0  0
  -30.4561  -12.5315   19.4747 C   0  0  0  0  0  0
  -29.5201  -12.5399   18.2418 C   0  0  0  0  0  0
  -28.0475  -12.3347   18.6542 C   0  0  0  0  0  0
  -27.6465  -13.2226   19.8605 C   0  0  2  0  0  0
  -28.6974  -13.1268   20.9897 C   0  0  0  0  0  0
  -25.2534  -13.8163   20.5699 C   0  0  0  0  0  0
  -24.1808  -13.0421   20.9179 C   0  0  0  0  0  0
  -24.6392  -11.6895   20.8729 C   0  0  0  0  0  0
  -23.9064  -10.4281   21.0395 C   0  0  0  0  0  0
  -24.3617   -9.4202   21.9178 C   0  0  0  0  0  0
  -23.6292   -8.2238   22.0754 C   0  0  0  0  0  0
  -22.4275   -8.0276   21.3542 C   0  0  0  0  0  0
  -21.9905   -9.0247   20.4645 C   0  0  0  0  0  0
  -22.7234  -10.2125   20.3048 C   0  0  0  0  0  0
  -21.6854   -6.0732   22.5280 C   0  0  0  0  0  0
  -21.4017   -6.5639   23.8213 C   0  0  0  0  0  0
  -21.3658   -5.6792   24.9176 C   0  0  0  0  0  0
  -21.6042   -4.3054   24.7228 C   0  0  0  0  0  0
  -21.8821   -3.8146   23.4350 C   0  0  0  0  0  0
  -21.9195   -4.6961   22.3406 C   0  0  0  0  0  0
  -22.7833  -13.5215   21.1845 C   0  0  0  0  0  0
  -22.1663   -4.2146   21.0982 F   0  0  0  0  0  0
  -21.5626   -3.4539   25.7740 F   0  0  0  0  0  0
  -29.9793  -13.5745   20.4227 N   0  0  0  0  0  0
  -26.2964  -12.9350   20.3328 N   0  0  0  0  0  0
  -25.9328  -11.6501   20.5759 N   0  0  0  0  0  0
  -22.0484  -12.8207   22.0409 N   0  0  0  0  0  0
  -25.4236  -15.1887   20.4158 N   0  0  0  0  0  0
  -31.6871  -14.9818   20.0662 O   0  0  0  0  0  0
  -21.6641   -6.8873   21.4239 O   0  0  0  0  0  0
  -22.3512  -14.5521   20.6696 O   0  0  0  0  0  0
  -24.6372  -31.8487   23.1922 C   0  0  0  0  0  0
  -25.9173  -32.4716   23.8291 C   0  0  1  0  0  0
  -27.2257  -27.1994   20.1298 C   0  0  0  0  0  0
  -25.5943  -33.8520   24.2210 N   0  0  0  0  0  0
  -23.4373  -30.4694   21.5366 C   0  0  2  0  0  0
  -24.8853  -28.9057   20.1075 C   0  0  0  0  0  0
  -22.7534  -29.4567   22.4878 C   0  0  0  0  0  0
  -18.0296  -28.1389   22.8480 C   0  0  0  0  0  0
  -24.1492  -36.7271   23.2642 C   0  0  0  0  0  0
  -25.9878  -30.7416   21.3816 C   0  0  0  0  0  0
  -26.0586  -29.3590   20.7213 C   0  0  0  0  0  0
  -27.2250  -28.5186   20.7206 C   0  0  0  0  0  0
  -26.0215  -26.8273   19.4889 C   0  0  0  0  0  0
  -24.8760  -27.6508   19.4804 C   0  0  0  0  0  0
  -23.6588  -29.7998   20.1540 C   0  0  0  0  0  0
  -25.4122  -36.3044   24.0316 C   0  0  1  0  0  0
  -20.5904  -28.3710   23.1249 C   0  0  2  0  0  0
  -20.6782  -26.9418   22.5406 C   0  0  0  0  0  0
  -19.5755  -26.6379   21.5212 C   0  0  0  0  0  0
  -18.1938  -26.7928   22.1624 C   0  0  0  0  0  0
  -19.1552  -28.8866   23.2858 C   0  0  0  0  0  0
  -18.9471  -30.1465   23.8881 C   0  0  0  0  0  0
  -17.6468  -30.6588   24.0560 C   0  0  0  0  0  0
  -25.9067  -34.9418   23.5068 C   0  0  0  0  0  0
  -16.5360  -29.9082   23.6332 C   0  0  0  0  0  0
  -16.7283  -28.6501   23.0355 C   0  0  0  0  0  0
  -26.4517  -31.6568   25.0715 C   0  0  0  0  0  0
  -25.3717  -31.3744   26.1421 C   0  0  0  0  0  0
  -27.0381  -30.2970   24.6269 C   0  0  0  0  0  0
  -27.6050  -32.4333   25.7500 C   0  0  0  0  0  0
  -27.5576  -37.1790   24.8461 C   0  0  0  0  0  0
  -21.4232  -29.3046   22.3628 N   0  0  0  0  0  0
  -26.4287  -37.3753   23.9406 N   0  0  0  0  0  0
  -24.7069  -31.0396   22.0925 N   0  0  0  0  0  0
  -23.4204  -28.8115   23.3008 O   0  0  0  0  0  0
  -28.3263  -26.2914   20.2282 O   0  0  0  0  0  0
  -26.5652  -34.8907   22.4646 O   0  0  0  0  0  0
  -23.5506  -32.1336   23.7180 O   0  0  0  0  0  0
  -28.5249  -19.4882   19.5084 C   0  0  0  0  0  0
  -30.4945  -18.7877   21.1719 C   0  0  0  0  0  0
  -29.2593  -20.5581   20.1221 C   0  0  0  0  0  0
  -29.7492  -17.7133   20.5682 C   0  0  0  0  0  0
  -29.1162  -22.1036   19.6238 C   0  0  0  0  0  0
  -28.6619  -23.4536   20.4605 C   0  0  0  0  0  0
  -28.3953  -24.8747   19.6484 C   0  0  0  0  0  0
  -29.7493  -16.1685   21.1116 C   0  0  0  0  0  0
  -30.2783  -20.1481   20.9475 N   0  0  0  0  0  0
  -28.7497  -18.1361   19.7206 N   0  0  0  0  0  0
  -30.1581  -16.2509   22.3789 F   0  0  0  0  0  0
  -28.4472  -15.8949   21.1700 F   0  0  0  0  0  0
  -31.4869  -12.7018   19.1600 H   0  0  0  0  0  0
  -30.4569  -11.5501   19.9516 H   0  0  0  0  0  0
  -29.8213  -11.7669   17.5339 H   0  0  0  0  0  0
  -29.6218  -13.4914   17.7176 H   0  0  0  0  0  0
  -27.9195  -11.2831   18.9131 H   0  0  0  0  0  0
  -27.3862  -12.5223   17.8074 H   0  0  0  0  0  0
  -27.6419  -14.2456   19.4860 H   0  0  0  0  0  0
  -28.7728  -12.0990   21.3480 H   0  0  0  0  0  0
  -28.4110  -13.7045   21.8678 H   0  0  0  0  0  0
  -25.2763   -9.5684   22.4751 H   0  0  0  0  0  0
  -24.0004   -7.4633   22.7477 H   0  0  0  0  0  0
  -21.0836   -8.8766   19.8953 H   0  0  0  0  0  0
  -22.3693  -10.9662   19.6158 H   0  0  0  0  0  0
  -21.2010   -7.6146   23.9717 H   0  0  0  0  0  0
  -21.1476   -6.0521   25.9078 H   0  0  0  0  0  0
  -22.0601   -2.7607   23.2855 H   0  0  0  0  0  0
  -22.4112  -11.9874   22.4797 H   0  0  0  0  0  0
  -21.1103  -13.1230   22.2619 H   0  0  0  0  0  0
  -24.6647  -15.8473   20.5506 H   0  0  0  0  0  0
  -26.2969  -15.6365   20.1662 H   0  0  0  0  0  0
  -26.7239  -32.5337   23.1023 H   0  0  0  0  0  0
  -25.0069  -33.9645   25.0343 H   0  0  0  0  0  0
  -22.7369  -31.2934   21.3856 H   0  0  0  0  0  0
  -23.3753  -35.9603   23.3289 H   0  0  0  0  0  0
  -24.3581  -36.8917   22.2059 H   0  0  0  0  0  0
  -23.7248  -37.6465   23.6687 H   0  0  0  0  0  0
  -26.1371  -31.5005   20.6125 H   0  0  0  0  0  0
  -26.8608  -30.7883   22.0209 H   0  0  0  0  0  0
  -28.1204  -28.8616   21.2204 H   0  0  0  0  0  0
  -25.9101  -25.8670   19.0139 H   0  0  0  0  0  0
  -23.9759  -27.2962   18.9975 H   0  0  0  0  0  0
  -23.7880  -30.5746   19.3974 H   0  0  0  0  0  0
  -22.7757  -29.2367   19.8467 H   0  0  0  0  0  0
  -25.1307  -36.1876   25.0808 H   0  0  0  0  0  0
  -20.9998  -28.3297   24.1370 H   0  0  0  0  0  0
  -20.5674  -26.2326   23.3622 H   0  0  0  0  0  0
  -21.6650  -26.7429   22.1206 H   0  0  0  0  0  0
  -19.6919  -25.6286   21.1254 H   0  0  0  0  0  0
  -19.6690  -27.3180   20.6734 H   0  0  0  0  0  0
  -17.4207  -26.6674   21.4026 H   0  0  0  0  0  0
  -18.0336  -26.0071   22.9020 H   0  0  0  0  0  0
  -19.7949  -30.7285   24.2241 H   0  0  0  0  0  0
  -17.5023  -31.6264   24.5169 H   0  0  0  0  0  0
  -15.5360  -30.2980   23.7664 H   0  0  0  0  0  0
  -15.8684  -28.0814   22.7080 H   0  0  0  0  0  0
  -24.5896  -30.7092   25.7744 H   0  0  0  0  0  0
  -24.8910  -32.2924   26.4811 H   0  0  0  0  0  0
  -25.8014  -30.8940   27.0220 H   0  0  0  0  0  0
  -26.2989  -29.6693   24.1277 H   0  0  0  0  0  0
  -27.4006  -29.7265   25.4831 H   0  0  0  0  0  0
  -27.8889  -30.4212   23.9566 H   0  0  0  0  0  0
  -27.2636  -33.3640   26.2043 H   0  0  0  0  0  0
  -28.3880  -32.6885   25.0347 H   0  0  0  0  0  0
  -28.0698  -31.8485   26.5447 H   0  0  0  0  0  0
  -28.2581  -38.0099   24.7512 H   0  0  0  0  0  0
  -28.1084  -36.2627   24.6278 H   0  0  0  0  0  0
  -27.2294  -37.1427   25.8864 H   0  0  0  0  0  0
  -20.9431  -29.8768   21.6823 H   0  0  0  0  0  0
  -26.0153  -38.2821   24.1411 H   0  0  0  0  0  0
  -27.7536  -19.7191   18.7881 H   0  0  0  0  0  0
  -31.2505  -18.5590   21.9089 H   0  0  0  0  0  0
  -28.4345  -22.0518   18.7743 H   0  0  0  0  0  0
  -30.0785  -22.3386   19.1693 H   0  0  0  0  0  0
  -29.4192  -23.6350   21.2229 H   0  0  0  0  0  0
  -27.7504  -23.2182   21.0102 H   0  0  0  0  0  0
  -27.5672  -24.6925   18.9704 H   0  0  0  0  0  0
  -29.2418  -24.9545   18.9665 H   0  0  0  0  0  0
  1 25  1  0  0  0
  1 30  2  0  0  0
  1 78  1  0  0  0
  2  3  1  0  0  0
  2 25  1  0  0  0
  2 83  1  0  0  0
  2 84  1  0  0  0
  3  4  1  0  0  0
  3 85  1  0  0  0
  3 86  1  0  0  0
  4  5  1  0  0  0
  4 87  1  0  0  0
  4 88  1  0  0  0
  5  6  1  0  0  0
  5 26  1  0  0  0
  5 89  1  0  0  0
  6 25  1  0  0  0
  6 90  1  0  0  0
  6 91  1  0  0  0
  7  8  2  0  0  0
  7 26  1  0  0  0
  7 29  1  0  0  0
  8  9  1  0  0  0
  8 22  1  0  0  0
  9 10  1  0  0  0
  9 27  2  0  0  0
 10 11  2  0  0  0
 10 15  1  0  0  0
 11 12  1  0  0  0
 11 92  1  0  0  0
 12 13  2  0  0  0
 12 93  1  0  0  0
 13 14  1  0  0  0
 13 31  1  0  0  0
 14 15  2  0  0  0
 14 94  1  0  0  0
 15 95  1  0  0  0
 16 17  2  0  0  0
 16 21  1  0  0  0
 16 31  1  0  0  0
 17 18  1  0  0  0
 17 96  1  0  0  0
 18 19  2  0  0  0
 18 97  1  0  0  0
 19 20  1  0  0  0
 19 24  1  0  0  0
 20 21  2  0  0  0
 20 98  1  0  0  0
 21 23  1  0  0  0
 22 28  1  0  0  0
 22 32  2  0  0  0
 26 27  1  0  0  0
 28 99  1  0  0  0
 28100  1  0  0  0
 29101  1  0  0  0
 29102  1  0  0  0
 33 34  1  0  0  0
 33 66  1  0  0  0
 33 70  2  0  0  0
 34 36  1  0  0  0
 34 59  1  0  0  0
 34103  1  0  0  0
 35 44  2  0  0  0
 35 45  1  0  0  0
 35 68  1  0  0  0
 36 56  1  0  0  0
 36104  1  0  0  0
 37 39  1  0  0  0
 37 47  1  0  0  0
 37 66  1  0  0  0
 37105  1  0  0  0
 38 43  2  0  0  0
 38 46  1  0  0  0
 38 47  1  0  0  0
 39 64  1  0  0  0
 39 67  2  0  0  0
 40 52  1  0  0  0
 40 53  2  0  0  0
 40 58  1  0  0  0
 41106  1  0  0  0
 41107  1  0  0  0
 41108  1  0  0  0
 41 48  1  0  0  0
 42 43  1  0  0  0
 42 66  1  0  0  0
 42109  1  0  0  0
 42110  1  0  0  0
 43 44  1  0  0  0
 44111  1  0  0  0
 45 46  2  0  0  0
 45112  1  0  0  0
 46113  1  0  0  0
 47114  1  0  0  0
 47115  1  0  0  0
 48 56  1  0  0  0
 48 65  1  0  0  0
 48116  1  0  0  0
 49 50  1  0  0  0
 49 53  1  0  0  0
 49 64  1  0  0  0
 49117  1  0  0  0
 50 51  1  0  0  0
 50118  1  0  0  0
 50119  1  0  0  0
 51 52  1  0  0  0
 51120  1  0  0  0
 51121  1  0  0  0
 52122  1  0  0  0
 52123  1  0  0  0
 53 54  1  0  0  0
 54 55  2  0  0  0
 54124  1  0  0  0
 55 57  1  0  0  0
 55125  1  0  0  0
 56 69  2  0  0  0
 57 58  2  0  0  0
 57126  1  0  0  0
 58127  1  0  0  0
 59 60  1  0  0  0
 59 61  1  0  0  0
 59 62  1  0  0  0
 60128  1  0  0  0
 60129  1  0  0  0
 60130  1  0  0  0
 61131  1  0  0  0
 61132  1  0  0  0
 61133  1  0  0  0
 62134  1  0  0  0
 62135  1  0  0  0
 62136  1  0  0  0
 63 65  1  0  0  0
 63137  1  0  0  0
 63138  1  0  0  0
 63139  1  0  0  0
 64140  1  0  0  0
 65141  1  0  0  0
 68 77  1  0  0  0
 71 73  2  0  0  0
 71 80  1  0  0  0
 71142  1  0  0  0
 72 74  1  0  0  0
 72 79  2  0  0  0
 72143  1  0  0  0
 73 75  1  0  0  0
 73 79  1  0  0  0
 74 78  1  0  0  0
 74 80  2  0  0  0
 75 76  1  0  0  0
 75144  1  0  0  0
 75145  1  0  0  0
 76 77  1  0  0  0
 76146  1  0  0  0
 76147  1  0  0  0
 77148  1  0  0  0
 77149  1  0  0  0
 78 81  1  0  0  0
 78 82  1  0  0  0
M  ISO  4   1 100  68 101  77 101  78 100
M  END
> <chiral flag>
0

> <version>
0

> <s_m_source_file>
/data/baiqing/PycharmProjects/Reinvent-master-3.2/result/LINK_invent/BTK/process_docking_weight1_custom_sum_contain_oxygen_bond_distance_aromatic_linkinvent_7_9_3/rearranged_h_0059.sdf

> <i_m_source_file_index>
84

> <r_mmod_Potential_Energy-OPLS-2005>
538.931762695312

> <r_mmod_Stretch_Energy-OPLS-2005>
194.690155029297

> <r_mmod_Bend_Energy-OPLS-2005>
255.179183959961

> <r_mmod_Torsional_Energy-OPLS-2005>
174.502304077148

> <r_mmod_Improper_Torsional_Energy-OPLS-2005>
6.06912994384766

> <r_mmod_Van_der_Waal_Energy-OPLS-2005>
145.032608032227

> <r_mmod_Electrostatic_Energy-OPLS-2005>
-165.431396484375

> <r_mmod_Solvation_Energy-OPLS-2005>
-198.46418762207

> <b_mmod_Minimization_Converged-OPLS-2005>
0

> <r_mmod_RMS_Derivative-OPLS-2005>
0.562896907329559

$$$$
86
                    3D
 Structure written by MMmdl.
154162  0  0  1  0            999 V2000
  -30.5371  -15.0098   20.3993 C   0  0  0  0  0  0
  -30.4374  -12.6330   19.4908 C   0  0  0  0  0  0
  -29.5219  -12.5318   18.2498 C   0  0  0  0  0  0
  -28.0569  -12.3081   18.6717 C   0  0  0  0  0  0
  -27.6227  -13.2538   19.8221 C   0  0  2  0  0  0
  -28.6658  -13.3222   20.9535 C   0  0  0  0  0  0
  -25.2451  -13.8234   20.5661 C   0  0  0  0  0  0
  -24.1781  -13.0452   20.9211 C   0  0  0  0  0  0
  -24.6411  -11.6945   20.8742 C   0  0  0  0  0  0
  -23.9092  -10.4315   21.0406 C   0  0  0  0  0  0
  -24.3645   -9.4223   21.9183 C   0  0  0  0  0  0
  -23.6300   -8.2261   22.0764 C   0  0  0  0  0  0
  -22.4279   -8.0299   21.3555 C   0  0  0  0  0  0
  -21.9927   -9.0267   20.4642 C   0  0  0  0  0  0
  -22.7273  -10.2139   20.3042 C   0  0  0  0  0  0
  -21.6862   -6.0729   22.5279 C   0  0  0  0  0  0
  -21.4029   -6.5628   23.8213 C   0  0  0  0  0  0
  -21.3675   -5.6778   24.9176 C   0  0  0  0  0  0
  -21.6054   -4.3039   24.7220 C   0  0  0  0  0  0
  -21.8821   -3.8134   23.4335 C   0  0  0  0  0  0
  -21.9199   -4.6958   22.3393 C   0  0  0  0  0  0
  -22.7797  -13.5216   21.1863 C   0  0  0  0  0  0
  -22.1665   -4.2140   21.0966 F   0  0  0  0  0  0
  -21.5638   -3.4524   25.7727 F   0  0  0  0  0  0
  -29.9272  -13.7521   20.3384 N   0  0  0  0  0  0
  -26.2867  -12.9482   20.3161 N   0  0  0  0  0  0
  -25.9337  -11.6608   20.5697 N   0  0  0  0  0  0
  -22.0431  -12.8223   22.0428 N   0  0  0  0  0  0
  -25.4115  -15.1957   20.4068 N   0  0  0  0  0  0
  -31.7560  -15.0140   20.2027 O   0  0  0  0  0  0
  -21.6656   -6.8881   21.4246 O   0  0  0  0  0  0
  -22.3462  -14.5490   20.6662 O   0  0  0  0  0  0
  -24.6497  -31.8372   23.1845 C   0  0  0  0  0  0
  -25.9257  -32.4644   23.8228 C   0  0  1  0  0  0
  -27.2084  -27.0845   20.1505 C   0  0  0  0  0  0
  -25.6001  -33.8454   24.2151 N   0  0  0  0  0  0
  -23.4526  -30.4578   21.5306 C   0  0  2  0  0  0
  -24.9010  -28.8756   20.1053 C   0  0  0  0  0  0
  -22.7580  -29.4520   22.4824 C   0  0  0  0  0  0
  -18.0321  -28.1409   22.8465 C   0  0  0  0  0  0
  -24.1518  -36.7241   23.2635 C   0  0  0  0  0  0
  -26.0119  -30.6924   21.3916 C   0  0  0  0  0  0
  -26.0792  -29.3001   20.7318 C   0  0  0  0  0  0
  -27.2321  -28.4184   20.7409 C   0  0  0  0  0  0
  -26.0061  -26.7755   19.4789 C   0  0  0  0  0  0
  -24.8805  -27.6289   19.4630 C   0  0  0  0  0  0
  -23.6810  -29.7850   20.1507 C   0  0  0  0  0  0
  -25.4148  -36.2989   24.0300 C   0  0  1  0  0  0
  -20.5933  -28.3727   23.1233 C   0  0  2  0  0  0
  -20.6829  -26.9423   22.5408 C   0  0  0  0  0  0
  -19.5808  -26.6375   21.5226 C   0  0  0  0  0  0
  -18.1978  -26.7940   22.1609 C   0  0  0  0  0  0
  -19.1568  -28.8883   23.2843 C   0  0  0  0  0  0
  -18.9483  -30.1489   23.8862 C   0  0  0  0  0  0
  -17.6474  -30.6595   24.0556 C   0  0  0  0  0  0
  -25.9091  -34.9367   23.5026 C   0  0  0  0  0  0
  -16.5372  -29.9084   23.6348 C   0  0  0  0  0  0
  -16.7292  -28.6513   23.0339 C   0  0  0  0  0  0
  -26.4568  -31.6518   25.0684 C   0  0  0  0  0  0
  -25.3739  -31.3740   26.1365 C   0  0  0  0  0  0
  -27.0442  -30.2902   24.6304 C   0  0  0  0  0  0
  -27.6079  -32.4277   25.7500 C   0  0  0  0  0  0
  -27.5588  -37.1773   24.8455 C   0  0  0  0  0  0
  -21.4272  -29.3037   22.3580 N   0  0  0  0  0  0
  -26.4296  -37.3711   23.9399 N   0  0  0  0  0  0
  -24.7244  -31.0183   22.0910 N   0  0  0  0  0  0
  -23.4200  -28.8070   23.2996 O   0  0  0  0  0  0
  -28.2419  -26.0649   20.2298 O   0  0  0  0  0  0
  -26.5655  -34.8878   22.4588 O   0  0  0  0  0  0
  -23.5610  -32.1272   23.7052 O   0  0  0  0  0  0
  -27.6247  -21.1687   19.2266 C   0  0  0  0  0  0
  -27.4320  -19.8057   18.9033 C   0  0  0  0  0  0
  -28.6677  -21.5434   20.0870 C   0  0  0  0  0  0
  -29.2075  -19.0899   20.2013 C   0  0  0  0  0  0
  -26.3422  -19.3916   17.9353 C   0  0  0  0  0  0
  -31.5556  -18.0520   20.0114 C   0  0  0  0  0  0
  -28.9398  -23.1636   20.4136 C   0  0  0  0  0  0
  -27.9829  -24.5213   19.9849 C   0  0  0  0  0  0
  -30.1648  -17.7917   20.6220 C   0  0  2  0  0  0
  -28.2053  -18.7997   19.3795 N   0  0  0  0  0  0
  -29.4425  -20.4363   20.5538 N   0  0  0  0  0  0
  -29.7916  -16.2359   20.4795 N   0  0  0  0  0  0
  -31.4675  -12.7947   19.1693 H   0  0  0  0  0  0
  -30.4427  -11.6930   20.0441 H   0  0  0  0  0  0
  -29.8585  -11.7258   17.5970 H   0  0  0  0  0  0
  -29.5981  -13.4507   17.6658 H   0  0  0  0  0  0
  -27.9631  -11.2696   18.9906 H   0  0  0  0  0  0
  -27.3940  -12.4256   17.8152 H   0  0  0  0  0  0
  -27.5717  -14.2458   19.3722 H   0  0  0  0  0  0
  -28.7699  -12.3532   21.4420 H   0  0  0  0  0  0
  -28.3549  -14.0343   21.7202 H   0  0  0  0  0  0
  -25.2794   -9.5691   22.4769 H   0  0  0  0  0  0
  -24.0002   -7.4652   22.7489 H   0  0  0  0  0  0
  -21.0872   -8.8792   19.8922 H   0  0  0  0  0  0
  -22.3754  -10.9679   19.6136 H   0  0  0  0  0  0
  -21.2021   -7.6137   23.9714 H   0  0  0  0  0  0
  -21.1505   -6.0507   25.9082 H   0  0  0  0  0  0
  -22.0582   -2.7593   23.2837 H   0  0  0  0  0  0
  -22.4016  -11.9899   22.4879 H   0  0  0  0  0  0
  -21.1025  -13.1244   22.2549 H   0  0  0  0  0  0
  -24.6414  -15.8464   20.5228 H   0  0  0  0  0  0
  -26.2514  -15.6408   20.0615 H   0  0  0  0  0  0
  -26.7303  -32.5228   23.0928 H   0  0  0  0  0  0
  -25.0187  -33.9566   25.0325 H   0  0  0  0  0  0
  -22.7568  -31.2851   21.3738 H   0  0  0  0  0  0
  -23.3779  -35.9576   23.3256 H   0  0  0  0  0  0
  -24.3600  -36.8917   22.2056 H   0  0  0  0  0  0
  -23.7282  -37.6428   23.6699 H   0  0  0  0  0  0
  -26.1748  -31.4448   20.6178 H   0  0  0  0  0  0
  -26.8794  -30.7396   22.0380 H   0  0  0  0  0  0
  -28.1210  -28.7298   21.2701 H   0  0  0  0  0  0
  -25.9008  -25.8229   18.9824 H   0  0  0  0  0  0
  -23.9813  -27.2986   18.9618 H   0  0  0  0  0  0
  -23.8195  -30.5586   19.3952 H   0  0  0  0  0  0
  -22.7935  -29.2324   19.8378 H   0  0  0  0  0  0
  -25.1345  -36.1792   25.0794 H   0  0  0  0  0  0
  -21.0030  -28.3339   24.1352 H   0  0  0  0  0  0
  -20.5808  -26.2312   23.3622 H   0  0  0  0  0  0
  -21.6690  -26.7489   22.1150 H   0  0  0  0  0  0
  -19.6994  -25.6286   21.1266 H   0  0  0  0  0  0
  -19.6787  -27.3185   20.6766 H   0  0  0  0  0  0
  -17.4262  -26.6685   21.3998 H   0  0  0  0  0  0
  -18.0364  -26.0102   22.9018 H   0  0  0  0  0  0
  -19.7957  -30.7328   24.2201 H   0  0  0  0  0  0
  -17.5024  -31.6278   24.5155 H   0  0  0  0  0  0
  -15.5369  -30.2962   23.7732 H   0  0  0  0  0  0
  -15.8685  -28.0844   22.7050 H   0  0  0  0  0  0
  -24.5940  -30.7064   25.7686 H   0  0  0  0  0  0
  -24.8927  -32.2944   26.4672 H   0  0  0  0  0  0
  -25.8014  -30.8987   27.0200 H   0  0  0  0  0  0
  -26.3071  -29.6581   24.1338 H   0  0  0  0  0  0
  -27.4065  -29.7242   25.4893 H   0  0  0  0  0  0
  -27.8970  -30.4114   23.9626 H   0  0  0  0  0  0
  -27.2657  -33.3592   26.2016 H   0  0  0  0  0  0
  -28.3954  -32.6789   25.0384 H   0  0  0  0  0  0
  -28.0666  -31.8426   26.5481 H   0  0  0  0  0  0
  -28.2549  -38.0118   24.7504 H   0  0  0  0  0  0
  -28.1133  -36.2630   24.6271 H   0  0  0  0  0  0
  -27.2285  -37.1393   25.8850 H   0  0  0  0  0  0
  -20.9490  -29.8670   21.6686 H   0  0  0  0  0  0
  -26.0150  -38.2774   24.1403 H   0  0  0  0  0  0
  -26.9801  -21.9241   18.7968 H   0  0  0  0  0  0
  -25.5979  -20.1780   17.8160 H   0  0  0  0  0  0
  -25.8289  -18.4908   18.2754 H   0  0  0  0  0  0
  -26.7707  -19.1846   16.9543 H   0  0  0  0  0  0
  -31.8687  -19.0822   20.1883 H   0  0  0  0  0  0
  -31.5524  -17.8867   18.9344 H   0  0  0  0  0  0
  -32.3269  -17.4269   20.4595 H   0  0  0  0  0  0
  -29.9261  -23.3559   19.9944 H   0  0  0  0  0  0
  -29.0833  -23.2189   21.4926 H   0  0  0  0  0  0
  -26.9993  -24.3138   20.4068 H   0  0  0  0  0  0
  -27.8442  -24.4385   18.9058 H   0  0  0  0  0  0
  -30.2828  -17.9170   21.6996 H   0  0  0  0  0  0
  -28.7924  -16.0974   20.4847 H   0  0  0  0  0  0
  1 25  1  0  0  0
  1 30  2  0  0  0
  1 82  1  0  0  0
  2  3  1  0  0  0
  2 25  1  0  0  0
  2 83  1  0  0  0
  2 84  1  0  0  0
  3  4  1  0  0  0
  3 85  1  0  0  0
  3 86  1  0  0  0
  4  5  1  0  0  0
  4 87  1  0  0  0
  4 88  1  0  0  0
  5  6  1  0  0  0
  5 26  1  0  0  0
  5 89  1  0  0  0
  6 25  1  0  0  0
  6 90  1  0  0  0
  6 91  1  0  0  0
  7  8  2  0  0  0
  7 26  1  0  0  0
  7 29  1  0  0  0
  8  9  1  0  0  0
  8 22  1  0  0  0
  9 10  1  0  0  0
  9 27  2  0  0  0
 10 11  2  0  0  0
 10 15  1  0  0  0
 11 12  1  0  0  0
 11 92  1  0  0  0
 12 13  2  0  0  0
 12 93  1  0  0  0
 13 14  1  0  0  0
 13 31  1  0  0  0
 14 15  2  0  0  0
 14 94  1  0  0  0
 15 95  1  0  0  0
 16 17  2  0  0  0
 16 21  1  0  0  0
 16 31  1  0  0  0
 17 18  1  0  0  0
 17 96  1  0  0  0
 18 19  2  0  0  0
 18 97  1  0  0  0
 19 20  1  0  0  0
 19 24  1  0  0  0
 20 21  2  0  0  0
 20 98  1  0  0  0
 21 23  1  0  0  0
 22 28  1  0  0  0
 22 32  2  0  0  0
 26 27  1  0  0  0
 28 99  1  0  0  0
 28100  1  0  0  0
 29101  1  0  0  0
 29102  1  0  0  0
 33 34  1  0  0  0
 33 66  1  0  0  0
 33 70  2  0  0  0
 34 36  1  0  0  0
 34 59  1  0  0  0
 34103  1  0  0  0
 35 44  2  0  0  0
 35 45  1  0  0  0
 35 68  1  0  0  0
 36 56  1  0  0  0
 36104  1  0  0  0
 37 39  1  0  0  0
 37 47  1  0  0  0
 37 66  1  0  0  0
 37105  1  0  0  0
 38 43  2  0  0  0
 38 46  1  0  0  0
 38 47  1  0  0  0
 39 64  1  0  0  0
 39 67  2  0  0  0
 40 52  1  0  0  0
 40 53  2  0  0  0
 40 58  1  0  0  0
 41106  1  0  0  0
 41107  1  0  0  0
 41108  1  0  0  0
 41 48  1  0  0  0
 42 43  1  0  0  0
 42 66  1  0  0  0
 42109  1  0  0  0
 42110  1  0  0  0
 43 44  1  0  0  0
 44111  1  0  0  0
 45 46  2  0  0  0
 45112  1  0  0  0
 46113  1  0  0  0
 47114  1  0  0  0
 47115  1  0  0  0
 48 56  1  0  0  0
 48 65  1  0  0  0
 48116  1  0  0  0
 49 50  1  0  0  0
 49 53  1  0  0  0
 49 64  1  0  0  0
 49117  1  0  0  0
 50 51  1  0  0  0
 50118  1  0  0  0
 50119  1  0  0  0
 51 52  1  0  0  0
 51120  1  0  0  0
 51121  1  0  0  0
 52122  1  0  0  0
 52123  1  0  0  0
 53 54  1  0  0  0
 54 55  2  0  0  0
 54124  1  0  0  0
 55 57  1  0  0  0
 55125  1  0  0  0
 56 69  2  0  0  0
 57 58  2  0  0  0
 57126  1  0  0  0
 58127  1  0  0  0
 59 60  1  0  0  0
 59 61  1  0  0  0
 59 62  1  0  0  0
 60128  1  0  0  0
 60129  1  0  0  0
 60130  1  0  0  0
 61131  1  0  0  0
 61132  1  0  0  0
 61133  1  0  0  0
 62134  1  0  0  0
 62135  1  0  0  0
 62136  1  0  0  0
 63 65  1  0  0  0
 63137  1  0  0  0
 63138  1  0  0  0
 63139  1  0  0  0
 64140  1  0  0  0
 65141  1  0  0  0
 68 78  1  0  0  0
 71 72  2  0  0  0
 71 73  1  0  0  0
 71142  1  0  0  0
 72 75  1  0  0  0
 72 80  1  0  0  0
 73 77  1  0  0  0
 73 81  2  0  0  0
 74 79  1  0  0  0
 74 80  2  0  0  0
 74 81  1  0  0  0
 75143  1  0  0  0
 75144  1  0  0  0
 75145  1  0  0  0
 76146  1  0  0  0
 76147  1  0  0  0
 76148  1  0  0  0
 76 79  1  0  0  0
 77 78  1  0  0  0
 77149  1  0  0  0
 77150  1  0  0  0
 78151  1  0  0  0
 78152  1  0  0  0
 79 82  1  0  0  0
 79153  1  0  0  0
 82154  1  0  0  0
M  ISO  4   1 100  68 101  78 101  82 100
M  END
> <chiral flag>
0

> <version>
0

> <s_m_source_file>
/data/baiqing/PycharmProjects/Reinvent-master-3.2/result/LINK_invent/BTK/process_docking_weight1_custom_sum_contain_oxygen_bond_distance_aromatic_linkinvent_7_9_3/rearranged_h_0059.sdf

> <i_m_source_file_index>
85

> <r_mmod_Potential_Energy-OPLS-2005>
31.09206199646

> <r_mmod_Stretch_Energy-OPLS-2005>
308.112121582031

> <r_mmod_Bend_Energy-OPLS-2005>
279.359008789062

> <r_mmod_Torsional_Energy-OPLS-2005>
192.050872802734

> <r_mmod_Improper_Torsional_Energy-OPLS-2005>
4.44104909896851

> <r_mmod_Van_der_Waal_Energy-OPLS-2005>
133.977828979492

> <r_mmod_Electrostatic_Energy-OPLS-2005>
-893.551574707031

> <r_mmod_Solvation_Energy-OPLS-2005>
-235.113067626953

> <b_mmod_Minimization_Converged-OPLS-2005>
0

> <r_mmod_RMS_Derivative-OPLS-2005>
2.87690162658691

$$$$
87
                    3D
 Structure written by MMmdl.
158166  0  0  1  0            999 V2000
  -30.5315  -15.0671   20.3522 C   0  0  0  0  0  0
  -30.4396  -12.6683   19.4820 C   0  0  0  0  0  0
  -29.5157  -12.5165   18.2521 C   0  0  0  0  0  0
  -28.0598  -12.2684   18.6919 C   0  0  0  0  0  0
  -27.6116  -13.2278   19.8228 C   0  0  2  0  0  0
  -28.6665  -13.3679   20.9416 C   0  0  0  0  0  0
  -25.2437  -13.8117   20.5783 C   0  0  0  0  0  0
  -24.1738  -13.0372   20.9266 C   0  0  0  0  0  0
  -24.6345  -11.6858   20.8794 C   0  0  0  0  0  0
  -23.9034  -10.4251   21.0430 C   0  0  0  0  0  0
  -24.3597   -9.4170   21.9199 C   0  0  0  0  0  0
  -23.6275   -8.2208   22.0756 C   0  0  0  0  0  0
  -22.4259   -8.0258   21.3542 C   0  0  0  0  0  0
  -21.9892   -9.0231   20.4644 C   0  0  0  0  0  0
  -22.7218  -10.2108   20.3062 C   0  0  0  0  0  0
  -21.6843   -6.0725   22.5280 C   0  0  0  0  0  0
  -21.4009   -6.5632   23.8213 C   0  0  0  0  0  0
  -21.3656   -5.6786   24.9175 C   0  0  0  0  0  0
  -21.6043   -4.3049   24.7227 C   0  0  0  0  0  0
  -21.8821   -3.8140   23.4349 C   0  0  0  0  0  0
  -21.9190   -4.6954   22.3403 C   0  0  0  0  0  0
  -22.7768  -13.5178   21.1898 C   0  0  0  0  0  0
  -22.1661   -4.2140   21.0981 F   0  0  0  0  0  0
  -21.5628   -3.4535   25.7742 F   0  0  0  0  0  0
  -29.9173  -13.8034   20.3005 N   0  0  0  0  0  0
  -26.2822  -12.9295   20.3293 N   0  0  0  0  0  0
  -25.9270  -11.6454   20.5793 N   0  0  0  0  0  0
  -22.0406  -12.8181   22.0451 N   0  0  0  0  0  0
  -25.4106  -15.1847   20.4253 N   0  0  0  0  0  0
  -31.7664  -15.0562   20.2798 O   0  0  0  0  0  0
  -21.6619   -6.8862   21.4239 O   0  0  0  0  0  0
  -22.3471  -14.5487   20.6733 O   0  0  0  0  0  0
  -24.6484  -31.8388   23.1827 C   0  0  0  0  0  0
  -25.9230  -32.4670   23.8239 C   0  0  1  0  0  0
  -27.2238  -27.0854   20.1607 C   0  0  0  0  0  0
  -25.5955  -33.8477   24.2156 N   0  0  0  0  0  0
  -23.4547  -30.4552   21.5294 C   0  0  2  0  0  0
  -24.9056  -28.8681   20.1138 C   0  0  0  0  0  0
  -22.7591  -29.4522   22.4842 C   0  0  0  0  0  0
  -18.0308  -28.1401   22.8475 C   0  0  0  0  0  0
  -24.1491  -36.7243   23.2643 C   0  0  0  0  0  0
  -26.0137  -30.6969   21.3877 C   0  0  0  0  0  0
  -26.0853  -29.3015   20.7319 C   0  0  0  0  0  0
  -27.2439  -28.4290   20.7321 C   0  0  0  0  0  0
  -26.0143  -26.7611   19.5080 C   0  0  0  0  0  0
  -24.8860  -27.6132   19.4854 C   0  0  0  0  0  0
  -23.6845  -29.7772   20.1520 C   0  0  0  0  0  0
  -25.4127  -36.3018   24.0310 C   0  0  1  0  0  0
  -20.5924  -28.3733   23.1227 C   0  0  2  0  0  0
  -20.6791  -26.9430   22.5407 C   0  0  0  0  0  0
  -19.5765  -26.6383   21.5214 C   0  0  0  0  0  0
  -18.1947  -26.7938   22.1624 C   0  0  0  0  0  0
  -19.1565  -28.8885   23.2842 C   0  0  0  0  0  0
  -18.9480  -30.1479   23.8871 C   0  0  0  0  0  0
  -17.6477  -30.6597   24.0558 C   0  0  0  0  0  0
  -25.9081  -34.9395   23.5047 C   0  0  0  0  0  0
  -16.5367  -29.9089   23.6338 C   0  0  0  0  0  0
  -16.7292  -28.6506   23.0361 C   0  0  0  0  0  0
  -26.4533  -31.6559   25.0704 C   0  0  0  0  0  0
  -25.3701  -31.3762   26.1385 C   0  0  0  0  0  0
  -27.0406  -30.2949   24.6320 C   0  0  0  0  0  0
  -27.6052  -32.4336   25.7497 C   0  0  0  0  0  0
  -27.5575  -37.1779   24.8465 C   0  0  0  0  0  0
  -21.4277  -29.3048   22.3590 N   0  0  0  0  0  0
  -26.4285  -37.3739   23.9408 N   0  0  0  0  0  0
  -24.7259  -31.0199   22.0881 N   0  0  0  0  0  0
  -23.4208  -28.8082   23.3021 O   0  0  0  0  0  0
  -28.2828  -26.0899   20.2112 O   0  0  0  0  0  0
  -26.5677  -34.8902   22.4633 O   0  0  0  0  0  0
  -23.5593  -32.1282   23.7020 O   0  0  0  0  0  0
  -30.0120  -20.6361   20.7280 C   0  0  0  0  0  0
  -29.5560  -19.3283   20.4069 C   0  0  0  0  0  0
  -31.6917  -23.6626   21.3244 C   0  0  0  0  0  0
  -30.0411  -23.5715   18.9257 C   0  0  0  0  0  0
  -28.7832  -16.4152   19.2211 C   0  0  0  0  0  0
  -30.2474  -17.8101   20.6618 C   0  0  0  0  0  0
  -30.1570  -23.7339   21.4749 C   0  0  0  0  0  0
  -28.0582  -24.5190   20.2047 C   0  0  0  0  0  0
  -29.2860  -23.3212   20.2473 C   0  0  1  0  0  0
  -28.3304  -19.6669   19.7863 N   0  0  0  0  0  0
  -28.1100  -20.9925   19.7083 N   0  0  0  0  0  0
  -29.1138  -21.7050   20.3161 N   0  0  0  0  0  0
  -29.8022  -16.3232   20.2668 N   0  0  0  0  0  0
  -31.4638  -12.8473   19.1508 H   0  0  0  0  0  0
  -30.4692  -11.7474   20.0666 H   0  0  0  0  0  0
  -29.8605  -11.6985   17.6181 H   0  0  0  0  0  0
  -29.5666  -13.4182   17.6403 H   0  0  0  0  0  0
  -27.9956  -11.2379   19.0432 H   0  0  0  0  0  0
  -27.3850  -12.3412   17.8380 H   0  0  0  0  0  0
  -27.5080  -14.1849   19.3309 H   0  0  0  0  0  0
  -28.7995  -12.4304   21.4834 H   0  0  0  0  0  0
  -28.3456  -14.1112   21.6730 H   0  0  0  0  0  0
  -25.2742   -9.5650   22.4773 H   0  0  0  0  0  0
  -23.9982   -7.4597   22.7474 H   0  0  0  0  0  0
  -21.0823   -8.8754   19.8951 H   0  0  0  0  0  0
  -22.3685  -10.9652   19.6173 H   0  0  0  0  0  0
  -21.2004   -7.6141   23.9716 H   0  0  0  0  0  0
  -21.1476   -6.0515   25.9078 H   0  0  0  0  0  0
  -22.0604   -2.7602   23.2850 H   0  0  0  0  0  0
  -22.4018  -11.9844   22.4845 H   0  0  0  0  0  0
  -21.1025  -13.1212   22.2653 H   0  0  0  0  0  0
  -24.6474  -15.8398   20.5550 H   0  0  0  0  0  0
  -26.2714  -15.6307   20.1382 H   0  0  0  0  0  0
  -26.7293  -32.5261   23.0961 H   0  0  0  0  0  0
  -25.0064  -33.9581   25.0279 H   0  0  0  0  0  0
  -22.7600  -31.2825   21.3700 H   0  0  0  0  0  0
  -23.3762  -35.9564   23.3290 H   0  0  0  0  0  0
  -24.3570  -36.8897   22.2060 H   0  0  0  0  0  0
  -23.7238  -37.6428   23.6696 H   0  0  0  0  0  0
  -26.1743  -31.4474   20.6123 H   0  0  0  0  0  0
  -26.8815  -30.7506   22.0333 H   0  0  0  0  0  0
  -28.1442  -28.7601   21.2304 H   0  0  0  0  0  0
  -25.9123  -25.8040   19.0199 H   0  0  0  0  0  0
  -23.9858  -27.2768   18.9895 H   0  0  0  0  0  0
  -23.8257  -30.5483   19.3938 H   0  0  0  0  0  0
  -22.7978  -29.2221   19.8409 H   0  0  0  0  0  0
  -25.1320  -36.1836   25.0803 H   0  0  0  0  0  0
  -21.0014  -28.3327   24.1348 H   0  0  0  0  0  0
  -20.5685  -26.2346   23.3631 H   0  0  0  0  0  0
  -21.6656  -26.7431   22.1206 H   0  0  0  0  0  0
  -19.6927  -25.6286   21.1265 H   0  0  0  0  0  0
  -19.6703  -27.3174   20.6730 H   0  0  0  0  0  0
  -17.4215  -26.6680   21.4028 H   0  0  0  0  0  0
  -18.0346  -26.0088   22.9029 H   0  0  0  0  0  0
  -19.7955  -30.7301   24.2231 H   0  0  0  0  0  0
  -17.5030  -31.6274   24.5165 H   0  0  0  0  0  0
  -15.5367  -30.2984   23.7680 H   0  0  0  0  0  0
  -15.8690  -28.0816   22.7099 H   0  0  0  0  0  0
  -24.5890  -30.7103   25.7698 H   0  0  0  0  0  0
  -24.8874  -32.2947   26.4736 H   0  0  0  0  0  0
  -25.7965  -30.8980   27.0211 H   0  0  0  0  0  0
  -26.3033  -29.6661   24.1315 H   0  0  0  0  0  0
  -27.3988  -29.7267   25.4915 H   0  0  0  0  0  0
  -27.8954  -30.4176   23.9665 H   0  0  0  0  0  0
  -27.2637  -33.3662   26.2003 H   0  0  0  0  0  0
  -28.3901  -32.6858   25.0354 H   0  0  0  0  0  0
  -28.0675  -31.8507   26.5474 H   0  0  0  0  0  0
  -28.2584  -38.0085   24.7517 H   0  0  0  0  0  0
  -28.1082  -36.2615   24.6288 H   0  0  0  0  0  0
  -27.2291  -37.1420   25.8867 H   0  0  0  0  0  0
  -20.9502  -29.8742   21.6743 H   0  0  0  0  0  0
  -26.0148  -38.2804   24.1414 H   0  0  0  0  0  0
  -30.9430  -20.8870   21.2139 H   0  0  0  0  0  0
  -32.1786  -23.8605   22.2796 H   0  0  0  0  0  0
  -32.0550  -24.4150   20.6238 H   0  0  0  0  0  0
  -32.0453  -22.6961   20.9732 H   0  0  0  0  0  0
  -30.3643  -24.6093   18.8372 H   0  0  0  0  0  0
  -29.3999  -23.3571   18.0705 H   0  0  0  0  0  0
  -30.9207  -22.9356   18.8265 H   0  0  0  0  0  0
  -27.7879  -16.4413   19.6598 H   0  0  0  0  0  0
  -28.8480  -15.6040   18.4963 H   0  0  0  0  0  0
  -28.9047  -17.3180   18.6240 H   0  0  0  0  0  0
  -30.4119  -17.7344   21.7369 H   0  0  0  0  0  0
  -31.2606  -17.8769   20.2643 H   0  0  0  0  0  0
  -29.9301  -24.7617   21.7602 H   0  0  0  0  0  0
  -29.8512  -23.1406   22.3377 H   0  0  0  0  0  0
  -27.3996  -24.3200   21.0508 H   0  0  0  0  0  0
  -27.4539  -24.2923   19.3275 H   0  0  0  0  0  0
  1 25  1  0  0  0
  1 30  2  0  0  0
  1 83  1  0  0  0
  2  3  1  0  0  0
  2 25  1  0  0  0
  2 84  1  0  0  0
  2 85  1  0  0  0
  3  4  1  0  0  0
  3 86  1  0  0  0
  3 87  1  0  0  0
  4  5  1  0  0  0
  4 88  1  0  0  0
  4 89  1  0  0  0
  5  6  1  0  0  0
  5 26  1  0  0  0
  5 90  1  0  0  0
  6 25  1  0  0  0
  6 91  1  0  0  0
  6 92  1  0  0  0
  7  8  2  0  0  0
  7 26  1  0  0  0
  7 29  1  0  0  0
  8  9  1  0  0  0
  8 22  1  0  0  0
  9 10  1  0  0  0
  9 27  2  0  0  0
 10 11  2  0  0  0
 10 15  1  0  0  0
 11 12  1  0  0  0
 11 93  1  0  0  0
 12 13  2  0  0  0
 12 94  1  0  0  0
 13 14  1  0  0  0
 13 31  1  0  0  0
 14 15  2  0  0  0
 14 95  1  0  0  0
 15 96  1  0  0  0
 16 17  2  0  0  0
 16 21  1  0  0  0
 16 31  1  0  0  0
 17 18  1  0  0  0
 17 97  1  0  0  0
 18 19  2  0  0  0
 18 98  1  0  0  0
 19 20  1  0  0  0
 19 24  1  0  0  0
 20 21  2  0  0  0
 20 99  1  0  0  0
 21 23  1  0  0  0
 22 28  1  0  0  0
 22 32  2  0  0  0
 26 27  1  0  0  0
 28100  1  0  0  0
 28101  1  0  0  0
 29102  1  0  0  0
 29103  1  0  0  0
 33 34  1  0  0  0
 33 66  1  0  0  0
 33 70  2  0  0  0
 34 36  1  0  0  0
 34 59  1  0  0  0
 34104  1  0  0  0
 35 44  2  0  0  0
 35 45  1  0  0  0
 35 68  1  0  0  0
 36 56  1  0  0  0
 36105  1  0  0  0
 37 39  1  0  0  0
 37 47  1  0  0  0
 37 66  1  0  0  0
 37106  1  0  0  0
 38 43  2  0  0  0
 38 46  1  0  0  0
 38 47  1  0  0  0
 39 64  1  0  0  0
 39 67  2  0  0  0
 40 52  1  0  0  0
 40 53  2  0  0  0
 40 58  1  0  0  0
 41107  1  0  0  0
 41108  1  0  0  0
 41109  1  0  0  0
 41 48  1  0  0  0
 42 43  1  0  0  0
 42 66  1  0  0  0
 42110  1  0  0  0
 42111  1  0  0  0
 43 44  1  0  0  0
 44112  1  0  0  0
 45 46  2  0  0  0
 45113  1  0  0  0
 46114  1  0  0  0
 47115  1  0  0  0
 47116  1  0  0  0
 48 56  1  0  0  0
 48 65  1  0  0  0
 48117  1  0  0  0
 49 50  1  0  0  0
 49 53  1  0  0  0
 49 64  1  0  0  0
 49118  1  0  0  0
 50 51  1  0  0  0
 50119  1  0  0  0
 50120  1  0  0  0
 51 52  1  0  0  0
 51121  1  0  0  0
 51122  1  0  0  0
 52123  1  0  0  0
 52124  1  0  0  0
 53 54  1  0  0  0
 54 55  2  0  0  0
 54125  1  0  0  0
 55 57  1  0  0  0
 55126  1  0  0  0
 56 69  2  0  0  0
 57 58  2  0  0  0
 57127  1  0  0  0
 58128  1  0  0  0
 59 60  1  0  0  0
 59 61  1  0  0  0
 59 62  1  0  0  0
 60129  1  0  0  0
 60130  1  0  0  0
 60131  1  0  0  0
 61132  1  0  0  0
 61133  1  0  0  0
 61134  1  0  0  0
 62135  1  0  0  0
 62136  1  0  0  0
 62137  1  0  0  0
 63 65  1  0  0  0
 63138  1  0  0  0
 63139  1  0  0  0
 63140  1  0  0  0
 64141  1  0  0  0
 65142  1  0  0  0
 68 78  1  0  0  0
 71 72  2  0  0  0
 71 82  1  0  0  0
 71143  1  0  0  0
 72 76  1  0  0  0
 72 80  1  0  0  0
 73 77  1  0  0  0
 73144  1  0  0  0
 73145  1  0  0  0
 73146  1  0  0  0
 74147  1  0  0  0
 74148  1  0  0  0
 74149  1  0  0  0
 74 79  1  0  0  0
 75 83  1  0  0  0
 75150  1  0  0  0
 75151  1  0  0  0
 75152  1  0  0  0
 76 83  1  0  0  0
 76153  1  0  0  0
 76154  1  0  0  0
 77 79  1  0  0  0
 77155  1  0  0  0
 77156  1  0  0  0
 78 79  1  0  0  0
 78157  1  0  0  0
 78158  1  0  0  0
 79 82  1  0  0  0
 80 81  2  0  0  0
 81 82  1  0  0  0
M  ISO  4   1 100  68 101  78 101  83 100
M  END
> <chiral flag>
0

> <version>
0

> <s_m_source_file>
/data/baiqing/PycharmProjects/Reinvent-master-3.2/result/LINK_invent/BTK/process_docking_weight1_custom_sum_contain_oxygen_bond_distance_aromatic_linkinvent_7_9_3/rearranged_h_0059.sdf

> <i_m_source_file_index>
86

> <r_mmod_Potential_Energy-OPLS-2005>
805.31103515625

> <r_mmod_Stretch_Energy-OPLS-2005>
331.686248779297

> <r_mmod_Bend_Energy-OPLS-2005>
324.439361572266

> <r_mmod_Torsional_Energy-OPLS-2005>
316.780517578125

> <r_mmod_Improper_Torsional_Energy-OPLS-2005>
7.31685495376587

> <r_mmod_Van_der_Waal_Energy-OPLS-2005>
116.931869506836

> <r_mmod_Electrostatic_Energy-OPLS-2005>
-346.919250488281

> <r_mmod_Solvation_Energy-OPLS-2005>
-212.653228759766

> <b_mmod_Minimization_Converged-OPLS-2005>
0

> <r_mmod_RMS_Derivative-OPLS-2005>
0.416605472564697

$$$$
88
                    3D
 Structure written by MMmdl.
163171  0  0  1  0            999 V2000
  -30.6814  -14.5809   20.5049 C   0  0  0  0  0  0
  -30.4182  -12.3547   19.4615 C   0  0  0  0  0  0
  -29.5026  -12.4867   18.2265 C   0  0  0  0  0  0
  -28.0260  -12.3370   18.6381 C   0  0  0  0  0  0
  -27.6493  -13.2191   19.8593 C   0  0  2  0  0  0
  -28.6892  -13.0967   20.9972 C   0  0  0  0  0  0
  -25.2520  -13.8170   20.5636 C   0  0  0  0  0  0
  -24.1800  -13.0435   20.9181 C   0  0  0  0  0  0
  -24.6361  -11.6909   20.8730 C   0  0  0  0  0  0
  -23.9022  -10.4286   21.0415 C   0  0  0  0  0  0
  -24.3569   -9.4197   21.9204 C   0  0  0  0  0  0
  -23.6252   -8.2224   22.0768 C   0  0  0  0  0  0
  -22.4245   -8.0241   21.3544 C   0  0  0  0  0  0
  -21.9867   -9.0221   20.4663 C   0  0  0  0  0  0
  -22.7180  -10.2114   20.3075 C   0  0  0  0  0  0
  -21.6853   -6.0690   22.5265 C   0  0  0  0  0  0
  -21.4028   -6.5614   23.8192 C   0  0  0  0  0  0
  -21.3670   -5.6783   24.9168 C   0  0  0  0  0  0
  -21.6043   -4.3043   24.7239 C   0  0  0  0  0  0
  -21.8816   -3.8110   23.4369 C   0  0  0  0  0  0
  -21.9197   -4.6916   22.3407 C   0  0  0  0  0  0
  -22.7823  -13.5243   21.1848 C   0  0  0  0  0  0
  -22.1677   -4.2086   21.0991 F   0  0  0  0  0  0
  -21.5620   -3.4537   25.7766 F   0  0  0  0  0  0
  -30.0109  -13.3934   20.4292 N   0  0  0  0  0  0
  -26.2954  -12.9368   20.3275 N   0  0  0  0  0  0
  -25.9293  -11.6522   20.5743 N   0  0  0  0  0  0
  -22.0447  -12.8236   22.0397 N   0  0  0  0  0  0
  -25.4192  -15.1888   20.4024 N   0  0  0  0  0  0
  -31.8476  -14.6828   20.1171 O   0  0  0  0  0  0
  -21.6636   -6.8822   21.4216 O   0  0  0  0  0  0
  -22.3521  -14.5554   20.6700 O   0  0  0  0  0  0
  -24.6201  -31.8645   23.2065 C   0  0  0  0  0  0
  -25.9075  -32.4801   23.8369 C   0  0  1  0  0  0
  -27.2190  -27.3506   20.1046 C   0  0  0  0  0  0
  -25.5931  -33.8597   24.2317 N   0  0  0  0  0  0
  -23.4118  -30.4913   21.5471 C   0  0  2  0  0  0
  -24.8531  -28.9493   20.1114 C   0  0  0  0  0  0
  -22.7432  -29.4666   22.4935 C   0  0  0  0  0  0
  -18.0280  -28.1396   22.8506 C   0  0  0  0  0  0
  -24.1494  -36.7312   23.2634 C   0  0  0  0  0  0
  -25.9478  -30.8048   21.3691 C   0  0  0  0  0  0
  -26.0183  -29.4322   20.7165 C   0  0  0  0  0  0
  -27.2012  -28.6422   20.7061 C   0  0  0  0  0  0
  -26.0218  -26.9024   19.4980 C   0  0  0  0  0  0
  -24.8540  -27.6880   19.4974 C   0  0  0  0  0  0
  -23.6206  -29.8277   20.1609 C   0  0  0  0  0  0
  -25.4118  -36.3109   24.0338 C   0  0  1  0  0  0
  -20.5884  -28.3677   23.1249 C   0  0  2  0  0  0
  -20.6784  -26.9431   22.5306 C   0  0  0  0  0  0
  -19.5726  -26.6484   21.5114 C   0  0  0  0  0  0
  -18.1929  -26.7953   22.1601 C   0  0  0  0  0  0
  -19.1537  -28.8833   23.2914 C   0  0  0  0  0  0
  -18.9500  -30.1394   23.9017 C   0  0  0  0  0  0
  -17.6514  -30.6546   24.0724 C   0  0  0  0  0  0
  -25.9052  -34.9466   23.5126 C   0  0  0  0  0  0
  -16.5386  -29.9116   23.6419 C   0  0  0  0  0  0
  -16.7276  -28.6553   23.0390 C   0  0  0  0  0  0
  -26.4478  -31.6593   25.0716 C   0  0  0  0  0  0
  -25.3740  -31.3713   26.1471 C   0  0  0  0  0  0
  -27.0302  -30.3034   24.6120 C   0  0  0  0  0  0
  -27.6077  -32.4280   25.7474 C   0  0  0  0  0  0
  -27.5590  -37.1824   24.8458 C   0  0  0  0  0  0
  -21.4154  -29.3062   22.3668 N   0  0  0  0  0  0
  -26.4302  -37.3801   23.9399 N   0  0  0  0  0  0
  -24.6792  -31.0699   22.0984 N   0  0  0  0  0  0
  -23.4168  -28.8202   23.2992 O   0  0  0  0  0  0
  -28.3845  -26.5782   20.1397 O   0  0  0  0  0  0
  -26.5605  -34.8923   22.4684 O   0  0  0  0  0  0
  -23.5381  -32.1405   23.7442 O   0  0  0  0  0  0
  -27.2116  -22.2592   19.1340 C   0  0  0  0  0  0
  -28.1050  -22.6138   20.1058 C   0  0  0  0  0  0
  -28.0677  -20.3186   19.9060 C   0  0  0  0  0  0
  -27.2106  -18.3123   21.1804 C   0  0  0  0  0  0
  -28.1452  -17.9302   18.8934 C   0  0  0  0  0  0
  -26.2188  -20.1935   18.1891 C   0  0  0  0  0  0
  -28.3852  -24.0184   20.6753 C   0  0  0  0  0  0
  -29.6841  -18.4053   20.8422 C   0  0  0  0  0  0
  -30.4798  -17.0779   20.4712 C   0  0  0  0  0  0
  -28.4383  -25.2010   19.6293 C   0  0  0  0  0  0
  -28.2923  -18.7797   20.1840 C   0  0  0  0  0  0
  -27.1682  -20.8901   19.0617 N   0  0  0  0  0  0
  -28.6068  -21.3867   20.5571 N   0  3  0  0  0  0
  -29.9680  -15.7069   20.7980 N   0  0  0  0  0  0
  -31.4661  -12.4386   19.1678 H   0  0  0  0  0  0
  -30.3150  -11.3644   19.9097 H   0  0  0  0  0  0
  -29.7607  -11.7312   17.4824 H   0  0  0  0  0  0
  -29.6558  -13.4556   17.7477 H   0  0  0  0  0  0
  -27.8598  -11.2848   18.8773 H   0  0  0  0  0  0
  -27.3712  -12.5605   17.7943 H   0  0  0  0  0  0
  -27.6660  -14.2511   19.5087 H   0  0  0  0  0  0
  -28.6825  -12.0941   21.4271 H   0  0  0  0  0  0
  -28.4438  -13.7752   21.8156 H   0  0  0  0  0  0
  -25.2719   -9.5657   22.4783 H   0  0  0  0  0  0
  -23.9957   -7.4614   22.7492 H   0  0  0  0  0  0
  -21.0800   -8.8734   19.8975 H   0  0  0  0  0  0
  -22.3636  -10.9650   19.6184 H   0  0  0  0  0  0
  -21.2038   -7.6126   23.9679 H   0  0  0  0  0  0
  -21.1505   -6.0525   25.9069 H   0  0  0  0  0  0
  -22.0591   -2.7561   23.2898 H   0  0  0  0  0  0
  -22.4091  -11.9924   22.4812 H   0  0  0  0  0  0
  -21.1070  -13.1272   22.2635 H   0  0  0  0  0  0
  -24.6476  -15.8368   20.5168 H   0  0  0  0  0  0
  -26.2540  -15.6285   20.0390 H   0  0  0  0  0  0
  -26.7129  -32.5465   23.1106 H   0  0  0  0  0  0
  -25.0082  -33.9720   25.0469 H   0  0  0  0  0  0
  -22.7066  -31.3128   21.4091 H   0  0  0  0  0  0
  -23.3760  -35.9637   23.3287 H   0  0  0  0  0  0
  -24.3584  -36.8931   22.2047 H   0  0  0  0  0  0
  -23.7235  -37.6517   23.6642 H   0  0  0  0  0  0
  -26.0672  -31.5659   20.5964 H   0  0  0  0  0  0
  -26.8328  -30.8581   21.9929 H   0  0  0  0  0  0
  -28.0972  -29.0107   21.1844 H   0  0  0  0  0  0
  -25.9366  -25.9391   19.0237 H   0  0  0  0  0  0
  -23.9565  -27.3069   19.0293 H   0  0  0  0  0  0
  -23.7409  -30.6041   19.4054 H   0  0  0  0  0  0
  -22.7392  -29.2584   19.8585 H   0  0  0  0  0  0
  -25.1287  -36.1989   25.0832 H   0  0  0  0  0  0
  -21.0003  -28.3243   24.1354 H   0  0  0  0  0  0
  -20.5743  -26.2261   23.3486 H   0  0  0  0  0  0
  -21.6657  -26.7543   22.1053 H   0  0  0  0  0  0
  -19.6856  -25.6428   21.1046 H   0  0  0  0  0  0
  -19.6643  -27.3352   20.6674 H   0  0  0  0  0  0
  -17.4156  -26.6729   21.4054 H   0  0  0  0  0  0
  -18.0417  -26.0062   22.8994 H   0  0  0  0  0  0
  -19.8003  -30.7115   24.2496 H   0  0  0  0  0  0
  -17.5131  -31.6165   24.5469 H   0  0  0  0  0  0
  -15.5398  -30.3065   23.7784 H   0  0  0  0  0  0
  -15.8651  -28.0945   22.7059 H   0  0  0  0  0  0
  -24.5924  -30.7042   25.7827 H   0  0  0  0  0  0
  -24.8902  -32.2858   26.4906 H   0  0  0  0  0  0
  -25.8082  -30.8903   27.0243 H   0  0  0  0  0  0
  -26.2854  -29.6812   24.1152 H   0  0  0  0  0  0
  -27.4044  -29.7265   25.4587 H   0  0  0  0  0  0
  -27.8694  -30.4355   23.9292 H   0  0  0  0  0  0
  -27.2748  -33.3576   26.2098 H   0  0  0  0  0  0
  -28.3870  -32.6842   25.0285 H   0  0  0  0  0  0
  -28.0768  -31.8359   26.5345 H   0  0  0  0  0  0
  -28.2620  -38.0116   24.7503 H   0  0  0  0  0  0
  -28.1080  -36.2648   24.6286 H   0  0  0  0  0  0
  -27.2288  -37.1462   25.8857 H   0  0  0  0  0  0
  -20.9299  -29.8796   21.6919 H   0  0  0  0  0  0
  -26.0198  -38.2882   24.1404 H   0  0  0  0  0  0
  -26.5596  -22.8801   18.5337 H   0  0  0  0  0  0
  -26.2006  -18.4661   20.8017 H   0  0  0  0  0  0
  -27.2864  -18.8503   22.1252 H   0  0  0  0  0  0
  -27.3124  -17.2515   21.4139 H   0  0  0  0  0  0
  -27.1248  -17.8712   18.5282 H   0  0  0  0  0  0
  -28.3952  -16.8829   19.0437 H   0  0  0  0  0  0
  -28.7833  -18.3052   18.0927 H   0  0  0  0  0  0
  -25.5309  -20.9128   17.7462 H   0  0  0  0  0  0
  -25.6291  -19.4869   18.7723 H   0  0  0  0  0  0
  -26.7555  -19.7038   17.3787 H   0  0  0  0  0  0
  -29.3101  -23.9996   21.2514 H   0  0  0  0  0  0
  -27.5917  -24.2384   21.3892 H   0  0  0  0  0  0
  -30.3709  -19.2028   20.5566 H   0  0  0  0  0  0
  -29.6264  -18.4919   21.9281 H   0  0  0  0  0  0
  -31.4568  -17.1634   20.9515 H   0  0  0  0  0  0
  -30.7012  -17.0977   19.4027 H   0  0  0  0  0  0
  -27.7190  -25.0300   18.8341 H   0  0  0  0  0  0
  -29.3924  -25.1141   19.1080 H   0  0  0  0  0  0
  -29.2805  -21.2930   21.3086 H   0  0  0  0  0  0
  -29.0109  -15.5969   21.0965 H   0  0  0  0  0  0
  1 25  1  0  0  0
  1 30  2  0  0  0
  1 84  1  0  0  0
  2  3  1  0  0  0
  2 25  1  0  0  0
  2 85  1  0  0  0
  2 86  1  0  0  0
  3  4  1  0  0  0
  3 87  1  0  0  0
  3 88  1  0  0  0
  4  5  1  0  0  0
  4 89  1  0  0  0
  4 90  1  0  0  0
  5  6  1  0  0  0
  5 26  1  0  0  0
  5 91  1  0  0  0
  6 25  1  0  0  0
  6 92  1  0  0  0
  6 93  1  0  0  0
  7  8  2  0  0  0
  7 26  1  0  0  0
  7 29  1  0  0  0
  8  9  1  0  0  0
  8 22  1  0  0  0
  9 10  1  0  0  0
  9 27  2  0  0  0
 10 11  2  0  0  0
 10 15  1  0  0  0
 11 12  1  0  0  0
 11 94  1  0  0  0
 12 13  2  0  0  0
 12 95  1  0  0  0
 13 14  1  0  0  0
 13 31  1  0  0  0
 14 15  2  0  0  0
 14 96  1  0  0  0
 15 97  1  0  0  0
 16 17  2  0  0  0
 16 21  1  0  0  0
 16 31  1  0  0  0
 17 18  1  0  0  0
 17 98  1  0  0  0
 18 19  2  0  0  0
 18 99  1  0  0  0
 19 20  1  0  0  0
 19 24  1  0  0  0
 20 21  2  0  0  0
 20100  1  0  0  0
 21 23  1  0  0  0
 22 28  1  0  0  0
 22 32  2  0  0  0
 26 27  1  0  0  0
 28101  1  0  0  0
 28102  1  0  0  0
 29103  1  0  0  0
 29104  1  0  0  0
 33 34  1  0  0  0
 33 66  1  0  0  0
 33 70  2  0  0  0
 34 36  1  0  0  0
 34 59  1  0  0  0
 34105  1  0  0  0
 35 44  2  0  0  0
 35 45  1  0  0  0
 35 68  1  0  0  0
 36 56  1  0  0  0
 36106  1  0  0  0
 37 39  1  0  0  0
 37 47  1  0  0  0
 37 66  1  0  0  0
 37107  1  0  0  0
 38 43  2  0  0  0
 38 46  1  0  0  0
 38 47  1  0  0  0
 39 64  1  0  0  0
 39 67  2  0  0  0
 40 52  1  0  0  0
 40 53  2  0  0  0
 40 58  1  0  0  0
 41108  1  0  0  0
 41109  1  0  0  0
 41110  1  0  0  0
 41 48  1  0  0  0
 42 43  1  0  0  0
 42 66  1  0  0  0
 42111  1  0  0  0
 42112  1  0  0  0
 43 44  1  0  0  0
 44113  1  0  0  0
 45 46  2  0  0  0
 45114  1  0  0  0
 46115  1  0  0  0
 47116  1  0  0  0
 47117  1  0  0  0
 48 56  1  0  0  0
 48 65  1  0  0  0
 48118  1  0  0  0
 49 50  1  0  0  0
 49 53  1  0  0  0
 49 64  1  0  0  0
 49119  1  0  0  0
 50 51  1  0  0  0
 50120  1  0  0  0
 50121  1  0  0  0
 51 52  1  0  0  0
 51122  1  0  0  0
 51123  1  0  0  0
 52124  1  0  0  0
 52125  1  0  0  0
 53 54  1  0  0  0
 54 55  2  0  0  0
 54126  1  0  0  0
 55 57  1  0  0  0
 55127  1  0  0  0
 56 69  2  0  0  0
 57 58  2  0  0  0
 57128  1  0  0  0
 58129  1  0  0  0
 59 60  1  0  0  0
 59 61  1  0  0  0
 59 62  1  0  0  0
 60130  1  0  0  0
 60131  1  0  0  0
 60132  1  0  0  0
 61133  1  0  0  0
 61134  1  0  0  0
 61135  1  0  0  0
 62136  1  0  0  0
 62137  1  0  0  0
 62138  1  0  0  0
 63 65  1  0  0  0
 63139  1  0  0  0
 63140  1  0  0  0
 63141  1  0  0  0
 64142  1  0  0  0
 65143  1  0  0  0
 68 80  1  0  0  0
 71 72  2  0  0  0
 71 82  1  0  0  0
 71144  1  0  0  0
 72 77  1  0  0  0
 72 83  1  0  0  0
 73 81  1  0  0  0
 73 82  1  0  0  0
 73 83  2  0  0  0
 74145  1  0  0  0
 74146  1  0  0  0
 74147  1  0  0  0
 74 81  1  0  0  0
 75 81  1  0  0  0
 75148  1  0  0  0
 75149  1  0  0  0
 75150  1  0  0  0
 76 82  1  0  0  0
 76151  1  0  0  0
 76152  1  0  0  0
 76153  1  0  0  0
 77 80  1  0  0  0
 77154  1  0  0  0
 77155  1  0  0  0
 78 79  1  0  0  0
 78 81  1  0  0  0
 78156  1  0  0  0
 78157  1  0  0  0
 79 84  1  0  0  0
 79158  1  0  0  0
 79159  1  0  0  0
 80160  1  0  0  0
 80161  1  0  0  0
 83162  1  0  0  0
 84163  1  0  0  0
M  CHG  1  83   1
M  ISO  4   1 100  68 101  80 101  84 100
M  END
> <chiral flag>
0

> <version>
0

> <s_m_source_file>
/data/baiqing/PycharmProjects/Reinvent-master-3.2/result/LINK_invent/BTK/process_docking_weight1_custom_sum_contain_oxygen_bond_distance_aromatic_linkinvent_7_9_3/rearranged_h_0059.sdf

> <i_m_source_file_index>
87

> <r_mmod_Potential_Energy-OPLS-2005>
38.5607147216797

> <r_mmod_Stretch_Energy-OPLS-2005>
74.414924621582

> <r_mmod_Bend_Energy-OPLS-2005>
160.055297851562

> <r_mmod_Torsional_Energy-OPLS-2005>
237.19873046875

> <r_mmod_Improper_Torsional_Energy-OPLS-2005>
6.38139629364014

> <r_mmod_Van_der_Waal_Energy-OPLS-2005>
133.687423706055

> <r_mmod_Electrostatic_Energy-OPLS-2005>
-184.376068115234

> <r_mmod_Solvation_Energy-OPLS-2005>
-422.757385253906

> <b_mmod_Minimization_Converged-OPLS-2005>
0

> <r_mmod_RMS_Derivative-OPLS-2005>
2.72984886169434

$$$$
89
                    3D
 Structure written by MMmdl.
147155  0  0  1  0            999 V2000
  -30.4842  -14.9627   20.4386 C   0  0  0  0  0  0
  -30.4592  -12.5907   19.5004 C   0  0  0  0  0  0
  -29.5326  -12.5395   18.2596 C   0  0  0  0  0  0
  -28.0640  -12.3122   18.6711 C   0  0  0  0  0  0
  -27.6363  -13.2357   19.8392 C   0  0  2  0  0  0
  -28.6781  -13.2409   20.9781 C   0  0  0  0  0  0
  -25.2509  -13.8175   20.5696 C   0  0  0  0  0  0
  -24.1804  -13.0422   20.9206 C   0  0  0  0  0  0
  -24.6398  -11.6900   20.8734 C   0  0  0  0  0  0
  -23.9066  -10.4282   21.0402 C   0  0  0  0  0  0
  -24.3615   -9.4203   21.9184 C   0  0  0  0  0  0
  -23.6291   -8.2238   22.0757 C   0  0  0  0  0  0
  -22.4275   -8.0272   21.3544 C   0  0  0  0  0  0
  -21.9908   -9.0244   20.4646 C   0  0  0  0  0  0
  -22.7235  -10.2124   20.3054 C   0  0  0  0  0  0
  -21.6854   -6.0727   22.5277 C   0  0  0  0  0  0
  -21.4015   -6.5635   23.8209 C   0  0  0  0  0  0
  -21.3663   -5.6792   24.9174 C   0  0  0  0  0  0
  -21.6047   -4.3054   24.7229 C   0  0  0  0  0  0
  -21.8821   -3.8141   23.4351 C   0  0  0  0  0  0
  -21.9195   -4.6953   22.3405 C   0  0  0  0  0  0
  -22.7826  -13.5207   21.1871 C   0  0  0  0  0  0
  -22.1664   -4.2136   21.0984 F   0  0  0  0  0  0
  -21.5630   -3.4542   25.7744 F   0  0  0  0  0  0
  -29.9631  -13.6665   20.4047 N   0  0  0  0  0  0
  -26.2920  -12.9379   20.3220 N   0  0  0  0  0  0
  -25.9327  -11.6523   20.5708 N   0  0  0  0  0  0
  -22.0476  -12.8194   22.0426 N   0  0  0  0  0  0
  -25.4210  -15.1903   20.4143 N   0  0  0  0  0  0
  -31.6709  -15.0883   20.1071 O   0  0  0  0  0  0
  -21.6642   -6.8867   21.4238 O   0  0  0  0  0  0
  -22.3509  -14.5515   20.6724 O   0  0  0  0  0  0
  -24.6456  -31.8420   23.1868 C   0  0  0  0  0  0
  -25.9221  -32.4680   23.8262 C   0  0  1  0  0  0
  -27.2225  -27.1218   20.1522 C   0  0  0  0  0  0
  -25.5962  -33.8487   24.2179 N   0  0  0  0  0  0
  -23.4498  -30.4610   21.5328 C   0  0  2  0  0  0
  -24.9007  -28.8851   20.1122 C   0  0  0  0  0  0
  -22.7580  -29.4534   22.4855 C   0  0  0  0  0  0
  -18.0307  -28.1394   22.8474 C   0  0  0  0  0  0
  -24.1495  -36.7252   23.2643 C   0  0  0  0  0  0
  -26.0076  -30.7119   21.3877 C   0  0  0  0  0  0
  -26.0797  -29.3217   20.7292 C   0  0  0  0  0  0
  -27.2418  -28.4583   20.7284 C   0  0  0  0  0  0
  -26.0130  -26.7900   19.5001 C   0  0  0  0  0  0
  -24.8815  -27.6331   19.4817 C   0  0  0  0  0  0
  -23.6777  -29.7886   20.1533 C   0  0  0  0  0  0
  -25.4126  -36.3020   24.0314 C   0  0  1  0  0  0
  -20.5921  -28.3720   23.1231 C   0  0  2  0  0  0
  -20.6791  -26.9421   22.5402 C   0  0  0  0  0  0
  -19.5765  -26.6379   21.5209 C   0  0  0  0  0  0
  -18.1946  -26.7932   22.1619 C   0  0  0  0  0  0
  -19.1564  -28.8875   23.2844 C   0  0  0  0  0  0
  -18.9477  -30.1471   23.8868 C   0  0  0  0  0  0
  -17.6472  -30.6589   24.0554 C   0  0  0  0  0  0
  -25.9078  -34.9397   23.5055 C   0  0  0  0  0  0
  -16.5364  -29.9077   23.6337 C   0  0  0  0  0  0
  -16.7290  -28.6498   23.0355 C   0  0  0  0  0  0
  -26.4538  -31.6555   25.0712 C   0  0  0  0  0  0
  -25.3716  -31.3747   26.1401 C   0  0  0  0  0  0
  -27.0408  -30.2946   24.6313 C   0  0  0  0  0  0
  -27.6060  -32.4326   25.7504 C   0  0  0  0  0  0
  -27.5576  -37.1782   24.8464 C   0  0  0  0  0  0
  -21.4269  -29.3043   22.3602 N   0  0  0  0  0  0
  -26.4286  -37.3735   23.9406 N   0  0  0  0  0  0
  -24.7209  -31.0264   22.0907 N   0  0  0  0  0  0
  -23.4215  -28.8087   23.3015 O   0  0  0  0  0  0
  -28.2774  -26.1308   20.2119 O   0  0  0  0  0  0
  -26.5662  -34.8897   22.4634 O   0  0  0  0  0  0
  -23.5572  -32.1299   23.7081 O   0  0  0  0  0  0
  -28.8029  -18.8855   20.1256 C   0  0  0  0  0  0
  -29.2544  -20.1952   20.4231 C   0  0  0  0  0  0
  -28.4642  -21.6542   20.4090 C   0  0  0  0  0  0
  -29.5391  -16.2951   20.7800 C   0  0  0  0  0  0
  -29.0134  -23.2502   20.2892 C   0  0  0  0  0  0
  -27.9802  -24.5933   20.1593 C   0  0  0  0  0  0
  -30.4870  -19.8997   21.0426 N   0  0  0  0  0  0
  -30.7527  -18.5880   21.0955 N   0  0  0  0  0  0
  -29.7323  -17.8603   20.5446 N   0  0  0  0  0  0
  -31.4895  -12.7694   19.1899 H   0  0  0  0  0  0
  -30.4661  -11.6301   20.0181 H   0  0  0  0  0  0
  -29.8567  -11.7534   17.5766 H   0  0  0  0  0  0
  -29.6144  -13.4769   17.7076 H   0  0  0  0  0  0
  -27.9619  -11.2688   18.9718 H   0  0  0  0  0  0
  -27.4025  -12.4492   17.8146 H   0  0  0  0  0  0
  -27.6024  -14.2373   19.4135 H   0  0  0  0  0  0
  -28.7629  -12.2535   21.4340 H   0  0  0  0  0  0
  -28.3697  -13.9185   21.7755 H   0  0  0  0  0  0
  -25.2761   -9.5682   22.4755 H   0  0  0  0  0  0
  -24.0000   -7.4633   22.7482 H   0  0  0  0  0  0
  -21.0837   -8.8758   19.8953 H   0  0  0  0  0  0
  -22.3690  -10.9658   19.6160 H   0  0  0  0  0  0
  -21.2005   -7.6144   23.9704 H   0  0  0  0  0  0
  -21.1486   -6.0527   25.9075 H   0  0  0  0  0  0
  -22.0597   -2.7600   23.2860 H   0  0  0  0  0  0
  -22.4103  -11.9853   22.4801 H   0  0  0  0  0  0
  -21.1094  -13.1213   22.2641 H   0  0  0  0  0  0
  -24.6546  -15.8446   20.5290 H   0  0  0  0  0  0
  -26.2693  -15.6294   20.0821 H   0  0  0  0  0  0
  -26.7287  -32.5282   23.0989 H   0  0  0  0  0  0
  -25.0084  -33.9600   25.0309 H   0  0  0  0  0  0
  -22.7528  -31.2870   21.3765 H   0  0  0  0  0  0
  -23.3758  -35.9582   23.3287 H   0  0  0  0  0  0
  -24.3578  -36.8905   22.2060 H   0  0  0  0  0  0
  -23.7257  -37.6444   23.6694 H   0  0  0  0  0  0
  -26.1652  -31.4658   20.6151 H   0  0  0  0  0  0
  -26.8773  -30.7619   22.0313 H   0  0  0  0  0  0
  -28.1409  -28.7906   21.2281 H   0  0  0  0  0  0
  -25.9024  -25.8362   19.0087 H   0  0  0  0  0  0
  -23.9821  -27.2936   18.9864 H   0  0  0  0  0  0
  -23.8150  -30.5616   19.3963 H   0  0  0  0  0  0
  -22.7926  -29.2305   19.8432 H   0  0  0  0  0  0
  -25.1317  -36.1839   25.0806 H   0  0  0  0  0  0
  -21.0008  -28.3308   24.1353 H   0  0  0  0  0  0
  -20.5681  -26.2332   23.3621 H   0  0  0  0  0  0
  -21.6657  -26.7425   22.1199 H   0  0  0  0  0  0
  -19.6925  -25.6283   21.1256 H   0  0  0  0  0  0
  -19.6704  -27.3174   20.6726 H   0  0  0  0  0  0
  -17.4215  -26.6675   21.4023 H   0  0  0  0  0  0
  -18.0344  -26.0080   22.9021 H   0  0  0  0  0  0
  -19.7951  -30.7297   24.2227 H   0  0  0  0  0  0
  -17.5022  -31.6266   24.5157 H   0  0  0  0  0  0
  -15.5362  -30.2964   23.7682 H   0  0  0  0  0  0
  -15.8693  -28.0807   22.7083 H   0  0  0  0  0  0
  -24.5907  -30.7084   25.7719 H   0  0  0  0  0  0
  -24.8894  -32.2930   26.4761 H   0  0  0  0  0  0
  -25.7996  -30.8964   27.0221 H   0  0  0  0  0  0
  -26.3033  -29.6655   24.1317 H   0  0  0  0  0  0
  -27.4005  -29.7259   25.4899 H   0  0  0  0  0  0
  -27.8946  -30.4168   23.9646 H   0  0  0  0  0  0
  -27.2648  -33.3647   26.2018 H   0  0  0  0  0  0
  -28.3910  -32.6853   25.0364 H   0  0  0  0  0  0
  -28.0686  -31.8493   26.5476 H   0  0  0  0  0  0
  -28.2579  -38.0090   24.7506 H   0  0  0  0  0  0
  -28.1087  -36.2618   24.6296 H   0  0  0  0  0  0
  -27.2292  -37.1431   25.8866 H   0  0  0  0  0  0
  -20.9485  -29.8752   21.6773 H   0  0  0  0  0  0
  -26.0149  -38.2802   24.1402 H   0  0  0  0  0  0
  -27.8364  -18.5927   19.7338 H   0  0  0  0  0  0
  -27.8386  -21.6552   21.3018 H   0  0  0  0  0  0
  -27.7343  -21.5740   19.6032 H   0  0  0  0  0  0
  -28.5822  -16.0715   20.3150 H   0  0  0  0  0  0
  -29.3405  -16.2010   21.8471 H   0  0  0  0  0  0
  -29.6886  -23.2912   19.4346 H   0  0  0  0  0  0
  -29.6513  -23.4221   21.1561 H   0  0  0  0  0  0
  -27.2104  -24.4409   20.9165 H   0  0  0  0  0  0
  -27.4743  -24.4277   19.2097 H   0  0  0  0  0  0
  1 25  1  0  0  0
  1 30  2  0  0  0
  1 74  1  0  0  0
  2  3  1  0  0  0
  2 25  1  0  0  0
  2 80  1  0  0  0
  2 81  1  0  0  0
  3  4  1  0  0  0
  3 82  1  0  0  0
  3 83  1  0  0  0
  4  5  1  0  0  0
  4 84  1  0  0  0
  4 85  1  0  0  0
  5  6  1  0  0  0
  5 26  1  0  0  0
  5 86  1  0  0  0
  6 25  1  0  0  0
  6 87  1  0  0  0
  6 88  1  0  0  0
  7  8  2  0  0  0
  7 26  1  0  0  0
  7 29  1  0  0  0
  8  9  1  0  0  0
  8 22  1  0  0  0
  9 10  1  0  0  0
  9 27  2  0  0  0
 10 11  2  0  0  0
 10 15  1  0  0  0
 11 12  1  0  0  0
 11 89  1  0  0  0
 12 13  2  0  0  0
 12 90  1  0  0  0
 13 14  1  0  0  0
 13 31  1  0  0  0
 14 15  2  0  0  0
 14 91  1  0  0  0
 15 92  1  0  0  0
 16 17  2  0  0  0
 16 21  1  0  0  0
 16 31  1  0  0  0
 17 18  1  0  0  0
 17 93  1  0  0  0
 18 19  2  0  0  0
 18 94  1  0  0  0
 19 20  1  0  0  0
 19 24  1  0  0  0
 20 21  2  0  0  0
 20 95  1  0  0  0
 21 23  1  0  0  0
 22 28  1  0  0  0
 22 32  2  0  0  0
 26 27  1  0  0  0
 28 96  1  0  0  0
 28 97  1  0  0  0
 29 98  1  0  0  0
 29 99  1  0  0  0
 33 34  1  0  0  0
 33 66  1  0  0  0
 33 70  2  0  0  0
 34 36  1  0  0  0
 34 59  1  0  0  0
 34100  1  0  0  0
 35 44  2  0  0  0
 35 45  1  0  0  0
 35 68  1  0  0  0
 36 56  1  0  0  0
 36101  1  0  0  0
 37 39  1  0  0  0
 37 47  1  0  0  0
 37 66  1  0  0  0
 37102  1  0  0  0
 38 43  2  0  0  0
 38 46  1  0  0  0
 38 47  1  0  0  0
 39 64  1  0  0  0
 39 67  2  0  0  0
 40 52  1  0  0  0
 40 53  2  0  0  0
 40 58  1  0  0  0
 41103  1  0  0  0
 41104  1  0  0  0
 41105  1  0  0  0
 41 48  1  0  0  0
 42 43  1  0  0  0
 42 66  1  0  0  0
 42106  1  0  0  0
 42107  1  0  0  0
 43 44  1  0  0  0
 44108  1  0  0  0
 45 46  2  0  0  0
 45109  1  0  0  0
 46110  1  0  0  0
 47111  1  0  0  0
 47112  1  0  0  0
 48 56  1  0  0  0
 48 65  1  0  0  0
 48113  1  0  0  0
 49 50  1  0  0  0
 49 53  1  0  0  0
 49 64  1  0  0  0
 49114  1  0  0  0
 50 51  1  0  0  0
 50115  1  0  0  0
 50116  1  0  0  0
 51 52  1  0  0  0
 51117  1  0  0  0
 51118  1  0  0  0
 52119  1  0  0  0
 52120  1  0  0  0
 53 54  1  0  0  0
 54 55  2  0  0  0
 54121  1  0  0  0
 55 57  1  0  0  0
 55122  1  0  0  0
 56 69  2  0  0  0
 57 58  2  0  0  0
 57123  1  0  0  0
 58124  1  0  0  0
 59 60  1  0  0  0
 59 61  1  0  0  0
 59 62  1  0  0  0
 60125  1  0  0  0
 60126  1  0  0  0
 60127  1  0  0  0
 61128  1  0  0  0
 61129  1  0  0  0
 61130  1  0  0  0
 62131  1  0  0  0
 62132  1  0  0  0
 62133  1  0  0  0
 63 65  1  0  0  0
 63134  1  0  0  0
 63135  1  0  0  0
 63136  1  0  0  0
 64137  1  0  0  0
 65138  1  0  0  0
 68 76  1  0  0  0
 71 72  2  0  0  0
 71 79  1  0  0  0
 71139  1  0  0  0
 72 73  1  0  0  0
 72 77  1  0  0  0
 73 75  1  0  0  0
 73140  1  0  0  0
 73141  1  0  0  0
 74 79  1  0  0  0
 74142  1  0  0  0
 74143  1  0  0  0
 75 76  1  0  0  0
 75144  1  0  0  0
 75145  1  0  0  0
 76146  1  0  0  0
 76147  1  0  0  0
 77 78  2  0  0  0
 78 79  1  0  0  0
M  ISO  4   1 100  68 101  74 100  76 101
M  END
> <chiral flag>
0

> <version>
0

> <s_m_source_file>
/data/baiqing/PycharmProjects/Reinvent-master-3.2/result/LINK_invent/BTK/process_docking_weight1_custom_sum_contain_oxygen_bond_distance_aromatic_linkinvent_7_9_3/rearranged_h_0059.sdf

> <i_m_source_file_index>
88

> <r_mmod_Potential_Energy-OPLS-2005>
521.787475585938

> <r_mmod_Stretch_Energy-OPLS-2005>
271.570617675781

> <r_mmod_Bend_Energy-OPLS-2005>
293.396881103516

> <r_mmod_Torsional_Energy-OPLS-2005>
194.052551269531

> <r_mmod_Improper_Torsional_Energy-OPLS-2005>
6.84536504745483

> <r_mmod_Van_der_Waal_Energy-OPLS-2005>
109.153686523438

> <r_mmod_Electrostatic_Energy-OPLS-2005>
-323.347991943359

> <r_mmod_Solvation_Energy-OPLS-2005>
-233.163299560547

> <b_mmod_Minimization_Converged-OPLS-2005>
0

> <r_mmod_RMS_Derivative-OPLS-2005>
0.471777647733688

$$$$
90
                    3D
 Structure written by MMmdl.
152160  0  0  1  0            999 V2000
  -30.6169  -14.7870   20.3921 C   0  0  0  0  0  0
  -30.4405  -12.4598   19.4861 C   0  0  0  0  0  0
  -29.5194  -12.4180   18.2453 C   0  0  0  0  0  0
  -28.0368  -12.2944   18.6608 C   0  0  0  0  0  0
  -27.6320  -13.2180   19.8431 C   0  0  2  0  0  0
  -28.6868  -13.2256   20.9692 C   0  0  0  0  0  0
  -25.2523  -13.8160   20.5734 C   0  0  0  0  0  0
  -24.1799  -13.0443   20.9243 C   0  0  0  0  0  0
  -24.6366  -11.6901   20.8813 C   0  0  0  0  0  0
  -23.9043  -10.4286   21.0450 C   0  0  0  0  0  0
  -24.3596   -9.4187   21.9208 C   0  0  0  0  0  0
  -23.6273   -8.2218   22.0762 C   0  0  0  0  0  0
  -22.4263   -8.0266   21.3536 C   0  0  0  0  0  0
  -21.9898   -9.0257   20.4651 C   0  0  0  0  0  0
  -22.7229  -10.2135   20.3078 C   0  0  0  0  0  0
  -21.6850   -6.0725   22.5259 C   0  0  0  0  0  0
  -21.4005   -6.5629   23.8197 C   0  0  0  0  0  0
  -21.3653   -5.6776   24.9158 C   0  0  0  0  0  0
  -21.6039   -4.3042   24.7203 C   0  0  0  0  0  0
  -21.8837   -3.8141   23.4324 C   0  0  0  0  0  0
  -21.9200   -4.6957   22.3381 C   0  0  0  0  0  0
  -22.7828  -13.5234   21.1889 C   0  0  0  0  0  0
  -22.1688   -4.2146   21.0962 F   0  0  0  0  0  0
  -21.5623   -3.4526   25.7715 F   0  0  0  0  0  0
  -29.9775  -13.5630   20.3557 N   0  0  0  0  0  0
  -26.2920  -12.9310   20.3362 N   0  0  0  0  0  0
  -25.9292  -11.6482   20.5842 N   0  0  0  0  0  0
  -22.0452  -12.8256   22.0459 N   0  0  0  0  0  0
  -25.4262  -15.1886   20.4090 N   0  0  0  0  0  0
  -31.8446  -14.8353   20.2708 O   0  0  0  0  0  0
  -21.6633   -6.8854   21.4221 O   0  0  0  0  0  0
  -22.3518  -14.5535   20.6713 O   0  0  0  0  0  0
  -24.6320  -31.8548   23.1940 C   0  0  0  0  0  0
  -25.9141  -32.4751   23.8299 C   0  0  1  0  0  0
  -27.2359  -27.2607   20.1424 C   0  0  0  0  0  0
  -25.5932  -33.8547   24.2236 N   0  0  0  0  0  0
  -23.4307  -30.4724   21.5379 C   0  0  2  0  0  0
  -24.8836  -28.9145   20.1141 C   0  0  0  0  0  0
  -22.7514  -29.4588   22.4910 C   0  0  0  0  0  0
  -18.0302  -28.1383   22.8490 C   0  0  0  0  0  0
  -24.1494  -36.7292   23.2634 C   0  0  0  0  0  0
  -25.9746  -30.7694   21.3721 C   0  0  0  0  0  0
  -26.0528  -29.3876   20.7223 C   0  0  0  0  0  0
  -27.2328  -28.5752   20.7207 C   0  0  0  0  0  0
  -26.0461  -26.8589   19.4963 C   0  0  0  0  0  0
  -24.8858  -27.6595   19.4867 C   0  0  0  0  0  0
  -23.6527  -29.7996   20.1573 C   0  0  0  0  0  0
  -25.4118  -36.3070   24.0324 C   0  0  1  0  0  0
  -20.5904  -28.3697   23.1277 C   0  0  2  0  0  0
  -20.6785  -26.9415   22.5402 C   0  0  0  0  0  0
  -19.5756  -26.6392   21.5205 C   0  0  0  0  0  0
  -18.1948  -26.7926   22.1630 C   0  0  0  0  0  0
  -19.1553  -28.8851   23.2882 C   0  0  0  0  0  0
  -18.9467  -30.1450   23.8897 C   0  0  0  0  0  0
  -17.6465  -30.6579   24.0568 C   0  0  0  0  0  0
  -25.9053  -34.9439   23.5086 C   0  0  0  0  0  0
  -16.5359  -29.9077   23.6325 C   0  0  0  0  0  0
  -16.7288  -28.6496   23.0349 C   0  0  0  0  0  0
  -26.4502  -31.6563   25.0682 C   0  0  0  0  0  0
  -25.3722  -31.3706   26.1399 C   0  0  0  0  0  0
  -27.0316  -30.2979   24.6127 C   0  0  0  0  0  0
  -27.6059  -32.4274   25.7460 C   0  0  0  0  0  0
  -27.5580  -37.1808   24.8468 C   0  0  0  0  0  0
  -21.4217  -29.3055   22.3669 N   0  0  0  0  0  0
  -26.4293  -37.3768   23.9403 N   0  0  0  0  0  0
  -24.6977  -31.0509   22.0916 N   0  0  0  0  0  0
  -23.4214  -28.8141   23.3023 O   0  0  0  0  0  0
  -28.3462  -26.3812   20.1711 O   0  0  0  0  0  0
  -26.5633  -34.8922   22.4658 O   0  0  0  0  0  0
  -23.5467  -32.1357   23.7244 O   0  0  0  0  0  0
  -29.2778  -22.3318   20.6907 C   0  0  0  0  0  0
  -29.5422  -20.6574   21.9421 C   0  0  0  0  0  0
  -29.2710  -16.1112   18.8932 C   0  0  0  0  0  0
  -29.3232  -23.8352   20.1926 C   0  0  0  0  0  0
  -29.3614  -18.6765   20.1961 C   0  0  0  0  0  0
  -30.1258  -17.3612   20.8254 C   0  0  0  0  0  0
  -28.1423  -24.9103   20.4616 C   0  0  0  0  0  0
  -29.4564  -21.9965   22.0110 N   0  0  0  0  0  0
  -29.2613  -21.2317   19.8821 N   0  0  0  0  0  0
  -29.4663  -20.1182   20.7148 N   0  0  0  0  0  0
  -29.8563  -15.9573   20.2337 N   0  0  0  0  0  0
  -29.7141  -19.6240   23.3055 Cl  0  0  0  0  0  0
  -31.4820  -12.5847   19.1817 H   0  0  0  0  0  0
  -30.3957  -11.5135   20.0280 H   0  0  0  0  0  0
  -29.7906  -11.5660   17.6210 H   0  0  0  0  0  0
  -29.6770  -13.2895   17.6124 H   0  0  0  0  0  0
  -27.8813  -11.2546   18.9482 H   0  0  0  0  0  0
  -27.3849  -12.4665   17.8045 H   0  0  0  0  0  0
  -27.5744  -14.2180   19.4312 H   0  0  0  0  0  0
  -28.7320  -12.2608   21.4764 H   0  0  0  0  0  0
  -28.4229  -13.9649   21.7282 H   0  0  0  0  0  0
  -25.2744   -9.5674   22.4781 H   0  0  0  0  0  0
  -23.9984   -7.4610   22.7495 H   0  0  0  0  0  0
  -21.0814   -8.8798   19.8960 H   0  0  0  0  0  0
  -22.3707  -10.9687   19.6186 H   0  0  0  0  0  0
  -21.2010   -7.6144   23.9703 H   0  0  0  0  0  0
  -21.1460   -6.0503   25.9057 H   0  0  0  0  0  0
  -22.0637   -2.7604   23.2831 H   0  0  0  0  0  0
  -22.4021  -11.9907   22.4875 H   0  0  0  0  0  0
  -21.1106  -13.1365   22.2684 H   0  0  0  0  0  0
  -24.6552  -15.8434   20.4771 H   0  0  0  0  0  0
  -26.2912  -15.6273   20.1178 H   0  0  0  0  0  0
  -26.7212  -32.5414   23.1048 H   0  0  0  0  0  0
  -25.0075  -33.9665   25.0381 H   0  0  0  0  0  0
  -22.7276  -31.2934   21.3857 H   0  0  0  0  0  0
  -23.3743  -35.9638   23.3301 H   0  0  0  0  0  0
  -24.3586  -36.8903   22.2047 H   0  0  0  0  0  0
  -23.7253  -37.6501   23.6648 H   0  0  0  0  0  0
  -26.1037  -31.5235   20.5945 H   0  0  0  0  0  0
  -26.8552  -30.8308   21.9993 H   0  0  0  0  0  0
  -28.1303  -28.9378   21.2012 H   0  0  0  0  0  0
  -25.9972  -25.9097   18.9862 H   0  0  0  0  0  0
  -23.9971  -27.2941   18.9922 H   0  0  0  0  0  0
  -23.7824  -30.5701   19.3963 H   0  0  0  0  0  0
  -22.7744  -29.2299   19.8505 H   0  0  0  0  0  0
  -25.1295  -36.1917   25.0813 H   0  0  0  0  0  0
  -21.0000  -28.3266   24.1397 H   0  0  0  0  0  0
  -20.5674  -26.2312   23.3609 H   0  0  0  0  0  0
  -21.6660  -26.7439   22.1197 H   0  0  0  0  0  0
  -19.6923  -25.6307   21.1227 H   0  0  0  0  0  0
  -19.6680  -27.3210   20.6739 H   0  0  0  0  0  0
  -17.4212  -26.6681   21.4036 H   0  0  0  0  0  0
  -18.0351  -26.0053   22.9007 H   0  0  0  0  0  0
  -19.7941  -30.7269   24.2281 H   0  0  0  0  0  0
  -17.5015  -31.6254   24.5175 H   0  0  0  0  0  0
  -15.5357  -30.2978   23.7630 H   0  0  0  0  0  0
  -15.8701  -28.0807   22.7066 H   0  0  0  0  0  0
  -24.5915  -30.7038   25.7729 H   0  0  0  0  0  0
  -24.8897  -32.2873   26.4800 H   0  0  0  0  0  0
  -25.8044  -30.8902   27.0188 H   0  0  0  0  0  0
  -26.2880  -29.6752   24.1142 H   0  0  0  0  0  0
  -27.4008  -29.7202   25.4613 H   0  0  0  0  0  0
  -27.8758  -30.4254   23.9343 H   0  0  0  0  0  0
  -27.2680  -33.3575   26.2039 H   0  0  0  0  0  0
  -28.3875  -32.6823   25.0290 H   0  0  0  0  0  0
  -28.0720  -31.8384   26.5371 H   0  0  0  0  0  0
  -28.2604  -38.0097   24.7487 H   0  0  0  0  0  0
  -28.1062  -36.2623   24.6319 H   0  0  0  0  0  0
  -27.2298  -37.1492   25.8873 H   0  0  0  0  0  0
  -20.9420  -29.8798   21.6883 H   0  0  0  0  0  0
  -26.0173  -38.2847   24.1374 H   0  0  0  0  0  0
  -28.2860  -16.5737   18.9357 H   0  0  0  0  0  0
  -29.1479  -15.1824   18.3487 H   0  0  0  0  0  0
  -29.9213  -16.7137   18.2593 H   0  0  0  0  0  0
  -29.5028  -23.8137   19.1183 H   0  0  0  0  0  0
  -30.2356  -24.2602   20.6105 H   0  0  0  0  0  0
  -28.2948  -18.4571   20.2070 H   0  0  0  0  0  0
  -29.6338  -18.7436   19.1443 H   0  0  0  0  0  0
  -29.8725  -17.2794   21.8821 H   0  0  0  0  0  0
  -31.2028  -17.5360   20.7996 H   0  0  0  0  0  0
  -27.8893  -24.8543   21.5207 H   0  0  0  0  0  0
  -27.2647  -24.5284   19.9461 H   0  0  0  0  0  0
  1 25  1  0  0  0
  1 30  2  0  0  0
  1 81  1  0  0  0
  2  3  1  0  0  0
  2 25  1  0  0  0
  2 83  1  0  0  0
  2 84  1  0  0  0
  3  4  1  0  0  0
  3 85  1  0  0  0
  3 86  1  0  0  0
  4  5  1  0  0  0
  4 87  1  0  0  0
  4 88  1  0  0  0
  5  6  1  0  0  0
  5 26  1  0  0  0
  5 89  1  0  0  0
  6 25  1  0  0  0
  6 90  1  0  0  0
  6 91  1  0  0  0
  7  8  2  0  0  0
  7 26  1  0  0  0
  7 29  1  0  0  0
  8  9  1  0  0  0
  8 22  1  0  0  0
  9 10  1  0  0  0
  9 27  2  0  0  0
 10 11  2  0  0  0
 10 15  1  0  0  0
 11 12  1  0  0  0
 11 92  1  0  0  0
 12 13  2  0  0  0
 12 93  1  0  0  0
 13 14  1  0  0  0
 13 31  1  0  0  0
 14 15  2  0  0  0
 14 94  1  0  0  0
 15 95  1  0  0  0
 16 17  2  0  0  0
 16 21  1  0  0  0
 16 31  1  0  0  0
 17 18  1  0  0  0
 17 96  1  0  0  0
 18 19  2  0  0  0
 18 97  1  0  0  0
 19 20  1  0  0  0
 19 24  1  0  0  0
 20 21  2  0  0  0
 20 98  1  0  0  0
 21 23  1  0  0  0
 22 28  1  0  0  0
 22 32  2  0  0  0
 26 27  1  0  0  0
 28 99  1  0  0  0
 28100  1  0  0  0
 29101  1  0  0  0
 29102  1  0  0  0
 33 34  1  0  0  0
 33 66  1  0  0  0
 33 70  2  0  0  0
 34 36  1  0  0  0
 34 59  1  0  0  0
 34103  1  0  0  0
 35 44  2  0  0  0
 35 45  1  0  0  0
 35 68  1  0  0  0
 36 56  1  0  0  0
 36104  1  0  0  0
 37 39  1  0  0  0
 37 47  1  0  0  0
 37 66  1  0  0  0
 37105  1  0  0  0
 38 43  2  0  0  0
 38 46  1  0  0  0
 38 47  1  0  0  0
 39 64  1  0  0  0
 39 67  2  0  0  0
 40 52  1  0  0  0
 40 53  2  0  0  0
 40 58  1  0  0  0
 41106  1  0  0  0
 41107  1  0  0  0
 41108  1  0  0  0
 41 48  1  0  0  0
 42 43  1  0  0  0
 42 66  1  0  0  0
 42109  1  0  0  0
 42110  1  0  0  0
 43 44  1  0  0  0
 44111  1  0  0  0
 45 46  2  0  0  0
 45112  1  0  0  0
 46113  1  0  0  0
 47114  1  0  0  0
 47115  1  0  0  0
 48 56  1  0  0  0
 48 65  1  0  0  0
 48116  1  0  0  0
 49 50  1  0  0  0
 49 53  1  0  0  0
 49 64  1  0  0  0
 49117  1  0  0  0
 50 51  1  0  0  0
 50118  1  0  0  0
 50119  1  0  0  0
 51 52  1  0  0  0
 51120  1  0  0  0
 51121  1  0  0  0
 52122  1  0  0  0
 52123  1  0  0  0
 53 54  1  0  0  0
 54 55  2  0  0  0
 54124  1  0  0  0
 55 57  1  0  0  0
 55125  1  0  0  0
 56 69  2  0  0  0
 57 58  2  0  0  0
 57126  1  0  0  0
 58127  1  0  0  0
 59 60  1  0  0  0
 59 61  1  0  0  0
 59 62  1  0  0  0
 60128  1  0  0  0
 60129  1  0  0  0
 60130  1  0  0  0
 61131  1  0  0  0
 61132  1  0  0  0
 61133  1  0  0  0
 62134  1  0  0  0
 62135  1  0  0  0
 62136  1  0  0  0
 63 65  1  0  0  0
 63137  1  0  0  0
 63138  1  0  0  0
 63139  1  0  0  0
 64140  1  0  0  0
 65141  1  0  0  0
 68 77  1  0  0  0
 71 74  1  0  0  0
 71 78  1  0  0  0
 71 79  2  0  0  0
 72 78  2  0  0  0
 72 80  1  0  0  0
 72 82  1  0  0  0
 73 81  1  0  0  0
 73142  1  0  0  0
 73143  1  0  0  0
 73144  1  0  0  0
 74 77  1  0  0  0
 74145  1  0  0  0
 74146  1  0  0  0
 75 76  1  0  0  0
 75 80  1  0  0  0
 75147  1  0  0  0
 75148  1  0  0  0
 76 81  1  0  0  0
 76149  1  0  0  0
 76150  1  0  0  0
 77151  1  0  0  0
 77152  1  0  0  0
 79 80  1  0  0  0
M  ISO  4   1 100  68 101  77 101  81 100
M  END
> <chiral flag>
0

> <version>
0

> <s_m_source_file>
/data/baiqing/PycharmProjects/Reinvent-master-3.2/result/LINK_invent/BTK/process_docking_weight1_custom_sum_contain_oxygen_bond_distance_aromatic_linkinvent_7_9_3/rearranged_h_0059.sdf

> <i_m_source_file_index>
89

> <r_mmod_Potential_Energy-OPLS-2005>
384.334655761719

> <r_mmod_Stretch_Energy-OPLS-2005>
140.403121948242

> <r_mmod_Bend_Energy-OPLS-2005>
190.856506347656

> <r_mmod_Torsional_Energy-OPLS-2005>
310.112823486328

> <r_mmod_Improper_Torsional_Energy-OPLS-2005>
12.5313348770142

> <r_mmod_Van_der_Waal_Energy-OPLS-2005>
126.050354003906

> <r_mmod_Electrostatic_Energy-OPLS-2005>
-285.339294433594

> <r_mmod_Solvation_Energy-OPLS-2005>
-213.996429443359

> <b_mmod_Minimization_Converged-OPLS-2005>
0

> <r_mmod_RMS_Derivative-OPLS-2005>
2.58442950248718

$$$$
91
                    3D
 Structure written by MMmdl.
160168  0  0  1  0            999 V2000
  -30.5161  -15.0482   20.3416 C   0  0  0  0  0  0
  -30.4267  -12.6471   19.4736 C   0  0  0  0  0  0
  -29.5064  -12.5194   18.2384 C   0  0  0  0  0  0
  -28.0403  -12.2979   18.6615 C   0  0  0  0  0  0
  -27.6064  -13.2330   19.8206 C   0  0  2  0  0  0
  -28.6615  -13.3453   20.9400 C   0  0  0  0  0  0
  -25.2413  -13.8127   20.5762 C   0  0  0  0  0  0
  -24.1729  -13.0392   20.9248 C   0  0  0  0  0  0
  -24.6343  -11.6867   20.8783 C   0  0  0  0  0  0
  -23.9042  -10.4265   21.0444 C   0  0  0  0  0  0
  -24.3607   -9.4177   21.9203 C   0  0  0  0  0  0
  -23.6295   -8.2209   22.0759 C   0  0  0  0  0  0
  -22.4276   -8.0261   21.3550 C   0  0  0  0  0  0
  -21.9908   -9.0234   20.4656 C   0  0  0  0  0  0
  -22.7228  -10.2113   20.3082 C   0  0  0  0  0  0
  -21.6850   -6.0737   22.5282 C   0  0  0  0  0  0
  -21.4017   -6.5649   23.8212 C   0  0  0  0  0  0
  -21.3652   -5.6804   24.9170 C   0  0  0  0  0  0
  -21.6030   -4.3069   24.7221 C   0  0  0  0  0  0
  -21.8828   -3.8162   23.4344 C   0  0  0  0  0  0
  -21.9202   -4.6972   22.3403 C   0  0  0  0  0  0
  -22.7761  -13.5187   21.1897 C   0  0  0  0  0  0
  -22.1676   -4.2157   21.0984 F   0  0  0  0  0  0
  -21.5610   -3.4554   25.7737 F   0  0  0  0  0  0
  -29.9108  -13.7813   20.2985 N   0  0  0  0  0  0
  -26.2792  -12.9311   20.3269 N   0  0  0  0  0  0
  -25.9257  -11.6466   20.5759 N   0  0  0  0  0  0
  -22.0423  -12.8168   22.0438 N   0  0  0  0  0  0
  -25.4144  -15.1860   20.4201 N   0  0  0  0  0  0
  -31.7506  -15.0497   20.2693 O   0  0  0  0  0  0
  -21.6639   -6.8871   21.4240 O   0  0  0  0  0  0
  -22.3466  -14.5516   20.6752 O   0  0  0  0  0  0
  -24.6466  -31.8411   23.1824 C   0  0  0  0  0  0
  -25.9216  -32.4681   23.8246 C   0  0  1  0  0  0
  -27.2198  -27.0986   20.1522 C   0  0  0  0  0  0
  -25.5958  -33.8494   24.2159 N   0  0  0  0  0  0
  -23.4524  -30.4546   21.5318 C   0  0  2  0  0  0
  -24.9031  -28.8719   20.1087 C   0  0  0  0  0  0
  -22.7590  -29.4511   22.4862 C   0  0  0  0  0  0
  -18.0303  -28.1399   22.8458 C   0  0  0  0  0  0
  -24.1492  -36.7257   23.2647 C   0  0  0  0  0  0
  -26.0102  -30.6985   21.3870 C   0  0  0  0  0  0
  -26.0796  -29.3049   20.7307 C   0  0  0  0  0  0
  -27.2376  -28.4348   20.7350 C   0  0  0  0  0  0
  -26.0177  -26.7759   19.4865 C   0  0  0  0  0  0
  -24.8863  -27.6228   19.4687 C   0  0  0  0  0  0
  -23.6815  -29.7785   20.1518 C   0  0  0  0  0  0
  -25.4123  -36.3031   24.0313 C   0  0  1  0  0  0
  -20.5912  -28.3729   23.1227 C   0  0  2  0  0  0
  -20.6777  -26.9426   22.5400 C   0  0  0  0  0  0
  -19.5759  -26.6368   21.5204 C   0  0  0  0  0  0
  -18.1940  -26.7928   22.1613 C   0  0  0  0  0  0
  -19.1558  -28.8875   23.2828 C   0  0  0  0  0  0
  -18.9482  -30.1467   23.8854 C   0  0  0  0  0  0
  -17.6478  -30.6591   24.0540 C   0  0  0  0  0  0
  -25.9077  -34.9409   23.5041 C   0  0  0  0  0  0
  -16.5366  -29.9074   23.6343 C   0  0  0  0  0  0
  -16.7281  -28.6501   23.0343 C   0  0  0  0  0  0
  -26.4512  -31.6574   25.0718 C   0  0  0  0  0  0
  -25.3668  -31.3772   26.1391 C   0  0  0  0  0  0
  -27.0381  -30.2967   24.6330 C   0  0  0  0  0  0
  -27.6042  -32.4345   25.7493 C   0  0  0  0  0  0
  -27.5570  -37.1788   24.8466 C   0  0  0  0  0  0
  -21.4279  -29.3043   22.3612 N   0  0  0  0  0  0
  -26.4283  -37.3747   23.9410 N   0  0  0  0  0  0
  -24.7235  -31.0208   22.0885 N   0  0  0  0  0  0
  -23.4213  -28.8076   23.3042 O   0  0  0  0  0  0
  -28.2679  -26.0976   20.2306 O   0  0  0  0  0  0
  -26.5673  -34.8914   22.4632 O   0  0  0  0  0  0
  -23.5573  -32.1319   23.7006 O   0  0  0  0  0  0
  -27.8998  -20.8374   19.7859 C   0  0  0  0  0  0
  -28.9289  -21.6293   20.2615 C   0  0  0  0  0  0
  -29.4767  -19.2584   20.3609 C   0  0  0  0  0  0
  -32.4353  -20.5162   20.4019 C   0  0  0  0  0  0
  -31.2996  -20.5219   22.6918 C   0  0  0  0  0  0
  -28.8792  -16.4013   19.0737 C   0  0  0  0  0  0
  -29.0784  -23.2792   20.4639 C   0  0  0  0  0  0
  -30.2311  -17.7762   20.6370 C   0  0  0  0  0  0
  -28.0419  -24.5523   20.0077 C   0  0  0  0  0  0
  -31.1988  -20.9329   21.2168 C   0  0  0  0  0  0
  -29.8875  -20.5917   20.6034 N   0  0  0  0  0  0
  -28.2414  -19.4819   19.8692 N   0  3  0  0  0  0
  -29.7764  -16.2959   20.2307 N   0  0  0  0  0  0
  -31.4550  -12.8166   19.1485 H   0  0  0  0  0  0
  -30.4335  -11.7162   20.0439 H   0  0  0  0  0  0
  -29.8337  -11.7020   17.5942 H   0  0  0  0  0  0
  -29.5822  -13.4257   17.6370 H   0  0  0  0  0  0
  -27.9344  -11.2543   18.9605 H   0  0  0  0  0  0
  -27.3811  -12.4343   17.8042 H   0  0  0  0  0  0
  -27.5111  -14.2054   19.3554 H   0  0  0  0  0  0
  -28.7865  -12.3976   21.4653 H   0  0  0  0  0  0
  -28.3419  -14.0767   21.6843 H   0  0  0  0  0  0
  -25.2755   -9.5649   22.4767 H   0  0  0  0  0  0
  -24.0017   -7.4594   22.7453 H   0  0  0  0  0  0
  -21.0851   -8.8743   19.8953 H   0  0  0  0  0  0
  -22.3694  -10.9651   19.6193 H   0  0  0  0  0  0
  -21.2027   -7.6162   23.9714 H   0  0  0  0  0  0
  -21.1456   -6.0535   25.9061 H   0  0  0  0  0  0
  -22.0622   -2.7623   23.2844 H   0  0  0  0  0  0
  -22.4066  -11.9810   22.4781 H   0  0  0  0  0  0
  -21.1019  -13.1128   22.2643 H   0  0  0  0  0  0
  -24.6490  -15.8435   20.5231 H   0  0  0  0  0  0
  -26.2758  -15.6205   20.1226 H   0  0  0  0  0  0
  -26.7278  -32.5255   23.0974 H   0  0  0  0  0  0
  -25.0100  -33.9610   25.0298 H   0  0  0  0  0  0
  -22.7573  -31.2804   21.3705 H   0  0  0  0  0  0
  -23.3771  -35.9571   23.3298 H   0  0  0  0  0  0
  -24.3581  -36.8918   22.2067 H   0  0  0  0  0  0
  -23.7232  -37.6443   23.6695 H   0  0  0  0  0  0
  -26.1658  -31.4502   20.6126 H   0  0  0  0  0  0
  -26.8801  -30.7533   22.0311 H   0  0  0  0  0  0
  -28.1303  -28.7603   21.2493 H   0  0  0  0  0  0
  -25.9230  -25.8221   18.9891 H   0  0  0  0  0  0
  -23.9903  -27.2906   18.9636 H   0  0  0  0  0  0
  -23.8187  -30.5507   19.3936 H   0  0  0  0  0  0
  -22.7971  -29.2200   19.8418 H   0  0  0  0  0  0
  -25.1312  -36.1854   25.0802 H   0  0  0  0  0  0
  -20.9965  -28.3298   24.1365 H   0  0  0  0  0  0
  -20.5653  -26.2346   23.3624 H   0  0  0  0  0  0
  -21.6648  -26.7413   22.1213 H   0  0  0  0  0  0
  -19.6933  -25.6263   21.1280 H   0  0  0  0  0  0
  -19.6702  -27.3136   20.6698 H   0  0  0  0  0  0
  -17.4201  -26.6650   21.4023 H   0  0  0  0  0  0
  -18.0348  -26.0072   22.9018 H   0  0  0  0  0  0
  -19.7957  -30.7280   24.2220 H   0  0  0  0  0  0
  -17.5035  -31.6271   24.5148 H   0  0  0  0  0  0
  -15.5364  -30.2959   23.7702 H   0  0  0  0  0  0
  -15.8686  -28.0809   22.7083 H   0  0  0  0  0  0
  -24.5838  -30.7150   25.7680 H   0  0  0  0  0  0
  -24.8865  -32.2956   26.4773 H   0  0  0  0  0  0
  -25.7912  -30.8946   27.0203 H   0  0  0  0  0  0
  -26.3007  -29.6694   24.1314 H   0  0  0  0  0  0
  -27.3962  -29.7274   25.4921 H   0  0  0  0  0  0
  -27.8927  -30.4229   23.9680 H   0  0  0  0  0  0
  -27.2663  -33.3694   26.1979 H   0  0  0  0  0  0
  -28.3887  -32.6837   25.0333 H   0  0  0  0  0  0
  -28.0669  -31.8532   26.5485 H   0  0  0  0  0  0
  -28.2570  -38.0097   24.7511 H   0  0  0  0  0  0
  -28.1079  -36.2631   24.6282 H   0  0  0  0  0  0
  -27.2295  -37.1417   25.8868 H   0  0  0  0  0  0
  -20.9515  -29.8787   21.6809 H   0  0  0  0  0  0
  -26.0155  -38.2823   24.1396 H   0  0  0  0  0  0
  -26.9320  -21.1400   19.4076 H   0  0  0  0  0  0
  -32.5652  -19.4425   20.3129 H   0  0  0  0  0  0
  -33.3367  -20.8828   20.8922 H   0  0  0  0  0  0
  -32.4202  -20.9499   19.4021 H   0  0  0  0  0  0
  -32.1688  -20.9980   23.1514 H   0  0  0  0  0  0
  -31.4206  -19.4488   22.8151 H   0  0  0  0  0  0
  -30.4204  -20.8391   23.2533 H   0  0  0  0  0  0
  -29.1869  -17.2188   18.4213 H   0  0  0  0  0  0
  -27.8502  -16.5843   19.3822 H   0  0  0  0  0  0
  -28.8996  -15.5231   18.4291 H   0  0  0  0  0  0
  -30.0427  -23.5409   20.0296 H   0  0  0  0  0  0
  -29.2218  -23.4137   21.5364 H   0  0  0  0  0  0
  -30.4073  -17.7575   21.7106 H   0  0  0  0  0  0
  -31.2059  -17.8761   20.1712 H   0  0  0  0  0  0
  -27.0695  -24.3216   20.4412 H   0  0  0  0  0  0
  -27.8997  -24.4458   18.9316 H   0  0  0  0  0  0
  -31.2423  -22.0203   21.2366 H   0  0  0  0  0  0
  -27.6046  -18.7418   19.6054 H   0  0  0  0  0  0
  1 25  1  0  0  0
  1 30  2  0  0  0
  1 83  1  0  0  0
  2  3  1  0  0  0
  2 25  1  0  0  0
  2 84  1  0  0  0
  2 85  1  0  0  0
  3  4  1  0  0  0
  3 86  1  0  0  0
  3 87  1  0  0  0
  4  5  1  0  0  0
  4 88  1  0  0  0
  4 89  1  0  0  0
  5  6  1  0  0  0
  5 26  1  0  0  0
  5 90  1  0  0  0
  6 25  1  0  0  0
  6 91  1  0  0  0
  6 92  1  0  0  0
  7  8  2  0  0  0
  7 26  1  0  0  0
  7 29  1  0  0  0
  8  9  1  0  0  0
  8 22  1  0  0  0
  9 10  1  0  0  0
  9 27  2  0  0  0
 10 11  2  0  0  0
 10 15  1  0  0  0
 11 12  1  0  0  0
 11 93  1  0  0  0
 12 13  2  0  0  0
 12 94  1  0  0  0
 13 14  1  0  0  0
 13 31  1  0  0  0
 14 15  2  0  0  0
 14 95  1  0  0  0
 15 96  1  0  0  0
 16 17  2  0  0  0
 16 21  1  0  0  0
 16 31  1  0  0  0
 17 18  1  0  0  0
 17 97  1  0  0  0
 18 19  2  0  0  0
 18 98  1  0  0  0
 19 20  1  0  0  0
 19 24  1  0  0  0
 20 21  2  0  0  0
 20 99  1  0  0  0
 21 23  1  0  0  0
 22 28  1  0  0  0
 22 32  2  0  0  0
 26 27  1  0  0  0
 28100  1  0  0  0
 28101  1  0  0  0
 29102  1  0  0  0
 29103  1  0  0  0
 33 34  1  0  0  0
 33 66  1  0  0  0
 33 70  2  0  0  0
 34 36  1  0  0  0
 34 59  1  0  0  0
 34104  1  0  0  0
 35 44  2  0  0  0
 35 45  1  0  0  0
 35 68  1  0  0  0
 36 56  1  0  0  0
 36105  1  0  0  0
 37 39  1  0  0  0
 37 47  1  0  0  0
 37 66  1  0  0  0
 37106  1  0  0  0
 38 43  2  0  0  0
 38 46  1  0  0  0
 38 47  1  0  0  0
 39 64  1  0  0  0
 39 67  2  0  0  0
 40 52  1  0  0  0
 40 53  2  0  0  0
 40 58  1  0  0  0
 41107  1  0  0  0
 41108  1  0  0  0
 41109  1  0  0  0
 41 48  1  0  0  0
 42 43  1  0  0  0
 42 66  1  0  0  0
 42110  1  0  0  0
 42111  1  0  0  0
 43 44  1  0  0  0
 44112  1  0  0  0
 45 46  2  0  0  0
 45113  1  0  0  0
 46114  1  0  0  0
 47115  1  0  0  0
 47116  1  0  0  0
 48 56  1  0  0  0
 48 65  1  0  0  0
 48117  1  0  0  0
 49 50  1  0  0  0
 49 53  1  0  0  0
 49 64  1  0  0  0
 49118  1  0  0  0
 50 51  1  0  0  0
 50119  1  0  0  0
 50120  1  0  0  0
 51 52  1  0  0  0
 51121  1  0  0  0
 51122  1  0  0  0
 52123  1  0  0  0
 52124  1  0  0  0
 53 54  1  0  0  0
 54 55  2  0  0  0
 54125  1  0  0  0
 55 57  1  0  0  0
 55126  1  0  0  0
 56 69  2  0  0  0
 57 58  2  0  0  0
 57127  1  0  0  0
 58128  1  0  0  0
 59 60  1  0  0  0
 59 61  1  0  0  0
 59 62  1  0  0  0
 60129  1  0  0  0
 60130  1  0  0  0
 60131  1  0  0  0
 61132  1  0  0  0
 61133  1  0  0  0
 61134  1  0  0  0
 62135  1  0  0  0
 62136  1  0  0  0
 62137  1  0  0  0
 63 65  1  0  0  0
 63138  1  0  0  0
 63139  1  0  0  0
 63140  1  0  0  0
 64141  1  0  0  0
 65142  1  0  0  0
 68 79  1  0  0  0
 71 72  2  0  0  0
 71 82  1  0  0  0
 71143  1  0  0  0
 72 77  1  0  0  0
 72 81  1  0  0  0
 73 78  1  0  0  0
 73 81  1  0  0  0
 73 82  2  0  0  0
 74144  1  0  0  0
 74145  1  0  0  0
 74146  1  0  0  0
 74 80  1  0  0  0
 75 80  1  0  0  0
 75147  1  0  0  0
 75148  1  0  0  0
 75149  1  0  0  0
 76 83  1  0  0  0
 76150  1  0  0  0
 76151  1  0  0  0
 76152  1  0  0  0
 77 79  1  0  0  0
 77153  1  0  0  0
 77154  1  0  0  0
 78 83  1  0  0  0
 78155  1  0  0  0
 78156  1  0  0  0
 79157  1  0  0  0
 79158  1  0  0  0
 80 81  1  0  0  0
 80159  1  0  0  0
 82160  1  0  0  0
M  CHG  1  82   1
M  ISO  4   1 100  68 101  79 101  83 100
M  END
> <chiral flag>
0

> <version>
0

> <s_m_source_file>
/data/baiqing/PycharmProjects/Reinvent-master-3.2/result/LINK_invent/BTK/process_docking_weight1_custom_sum_contain_oxygen_bond_distance_aromatic_linkinvent_7_9_3/rearranged_h_0059.sdf

> <i_m_source_file_index>
90

> <r_mmod_Potential_Energy-OPLS-2005>
698.479797363281

> <r_mmod_Stretch_Energy-OPLS-2005>
322.455627441406

> <r_mmod_Bend_Energy-OPLS-2005>
299.899230957031

> <r_mmod_Torsional_Energy-OPLS-2005>
293.709259033203

> <r_mmod_Improper_Torsional_Energy-OPLS-2005>
7.57688093185425

> <r_mmod_Van_der_Waal_Energy-OPLS-2005>
112.782447814941

> <r_mmod_Electrostatic_Energy-OPLS-2005>
-171.190475463867

> <r_mmod_Solvation_Energy-OPLS-2005>
-422.359680175781

> <b_mmod_Minimization_Converged-OPLS-2005>
0

> <r_mmod_RMS_Derivative-OPLS-2005>
3.39234828948975

$$$$
92
                    3D
 Structure written by MMmdl.
157165  0  0  1  0            999 V2000
  -30.5378  -15.0048   20.4288 C   0  0  0  0  0  0
  -30.4456  -12.6257   19.5211 C   0  0  0  0  0  0
  -29.5371  -12.5494   18.2709 C   0  0  0  0  0  0
  -28.0686  -12.3340   18.6708 C   0  0  0  0  0  0
  -27.6354  -13.2578   19.8395 C   0  0  2  0  0  0
  -28.6711  -13.3114   20.9850 C   0  0  0  0  0  0
  -25.2523  -13.8262   20.5712 C   0  0  0  0  0  0
  -24.1842  -13.0436   20.9216 C   0  0  0  0  0  0
  -24.6443  -11.6947   20.8696 C   0  0  0  0  0  0
  -23.9098  -10.4306   21.0374 C   0  0  0  0  0  0
  -24.3644   -9.4229   21.9163 C   0  0  0  0  0  0
  -23.6311   -8.2259   22.0758 C   0  0  0  0  0  0
  -22.4281   -8.0304   21.3562 C   0  0  0  0  0  0
  -21.9929   -9.0265   20.4639 C   0  0  0  0  0  0
  -22.7257  -10.2148   20.3036 C   0  0  0  0  0  0
  -21.6863   -6.0746   22.5288 C   0  0  0  0  0  0
  -21.4029   -6.5644   23.8226 C   0  0  0  0  0  0
  -21.3642   -5.6797   24.9180 C   0  0  0  0  0  0
  -21.6026   -4.3062   24.7221 C   0  0  0  0  0  0
  -21.8833   -3.8162   23.4346 C   0  0  0  0  0  0
  -21.9232   -4.6975   22.3409 C   0  0  0  0  0  0
  -22.7877  -13.5210   21.1871 C   0  0  0  0  0  0
  -22.1717   -4.2160   21.0991 F   0  0  0  0  0  0
  -21.5603   -3.4544   25.7732 F   0  0  0  0  0  0
  -29.9464  -13.7355   20.3971 N   0  0  0  0  0  0
  -26.2927  -12.9487   20.3235 N   0  0  0  0  0  0
  -25.9379  -11.6603   20.5690 N   0  0  0  0  0  0
  -22.0555  -12.8162   22.0404 N   0  0  0  0  0  0
  -25.4201  -15.1986   20.4153 N   0  0  0  0  0  0
  -31.7290  -15.0473   20.1067 O   0  0  0  0  0  0
  -21.6664   -6.8890   21.4254 O   0  0  0  0  0  0
  -22.3537  -14.5506   20.6737 O   0  0  0  0  0  0
  -24.6509  -31.8426   23.1819 C   0  0  0  0  0  0
  -25.9231  -32.4719   23.8248 C   0  0  1  0  0  0
  -27.2233  -27.0782   20.1908 C   0  0  0  0  0  0
  -25.5940  -33.8526   24.2169 N   0  0  0  0  0  0
  -23.4566  -30.4531   21.5331 C   0  0  2  0  0  0
  -24.9079  -28.8612   20.1169 C   0  0  0  0  0  0
  -22.7614  -29.4538   22.4919 C   0  0  0  0  0  0
  -18.0333  -28.1396   22.8518 C   0  0  0  0  0  0
  -24.1470  -36.7231   23.2642 C   0  0  0  0  0  0
  -26.0155  -30.6956   21.3899 C   0  0  0  0  0  0
  -26.0859  -29.2985   20.7379 C   0  0  0  0  0  0
  -27.2453  -28.4270   20.7475 C   0  0  0  0  0  0
  -26.0226  -26.7553   19.5221 C   0  0  0  0  0  0
  -24.8950  -27.6077   19.4828 C   0  0  0  0  0  0
  -23.6861  -29.7691   20.1583 C   0  0  0  0  0  0
  -25.4110  -36.3052   24.0335 C   0  0  1  0  0  0
  -20.5949  -28.3733   23.1264 C   0  0  2  0  0  0
  -20.6795  -26.9436   22.5415 C   0  0  0  0  0  0
  -19.5745  -26.6389   21.5237 C   0  0  0  0  0  0
  -18.1939  -26.7950   22.1653 C   0  0  0  0  0  0
  -19.1588  -28.8886   23.2884 C   0  0  0  0  0  0
  -18.9489  -30.1478   23.8910 C   0  0  0  0  0  0
  -17.6477  -30.6601   24.0556 C   0  0  0  0  0  0
  -25.9067  -34.9435   23.5071 C   0  0  0  0  0  0
  -16.5376  -29.9069   23.6345 C   0  0  0  0  0  0
  -16.7316  -28.6477   23.0407 C   0  0  0  0  0  0
  -26.4528  -31.6607   25.0708 C   0  0  0  0  0  0
  -25.3651  -31.3804   26.1363 C   0  0  0  0  0  0
  -27.0403  -30.3003   24.6282 C   0  0  0  0  0  0
  -27.6050  -32.4372   25.7502 C   0  0  0  0  0  0
  -27.5596  -37.1763   24.8475 C   0  0  0  0  0  0
  -21.4315  -29.3047   22.3647 N   0  0  0  0  0  0
  -26.4282  -37.3757   23.9445 N   0  0  0  0  0  0
  -24.7274  -31.0205   22.0900 N   0  0  0  0  0  0
  -23.4223  -28.8132   23.3134 O   0  0  0  0  0  0
  -28.2796  -26.0802   20.2372 O   0  0  0  0  0  0
  -26.5644  -34.8948   22.4637 O   0  0  0  0  0  0
  -23.5608  -32.1341   23.6983 O   0  0  0  0  0  0
  -28.4879  -20.9452   21.7064 C   0  0  0  0  0  0
  -28.9679  -21.5886   20.5743 C   0  0  0  0  0  0
  -29.4401  -19.1896   20.5557 C   0  0  0  0  0  0
  -29.5093  -18.2376   23.6492 C   0  0  0  0  0  0
  -29.9956  -17.6586   18.5430 C   0  0  0  0  0  0
  -29.0275  -23.1954   20.1000 C   0  0  0  0  0  0
  -28.3559  -18.6114   22.7088 C   0  0  0  0  0  0
  -28.0580  -24.5381   20.5488 C   0  0  0  0  0  0
  -30.0997  -17.7153   20.0779 C   0  0  2  0  0  0
  -28.7590  -19.5611   21.6650 N   0  0  0  0  0  0
  -29.5557  -20.4386   19.9250 N   0  3  0  0  0  0
  -29.7900  -16.2238   20.5882 N   0  0  0  0  0  0
  -31.4761  -12.7855   19.1994 H   0  0  0  0  0  0
  -30.4595  -11.6787   20.0633 H   0  0  0  0  0  0
  -29.8644  -11.7542   17.5979 H   0  0  0  0  0  0
  -29.6282  -13.4821   17.7130 H   0  0  0  0  0  0
  -27.9441  -11.2888   18.9518 H   0  0  0  0  0  0
  -27.4243  -12.4983   17.8042 H   0  0  0  0  0  0
  -27.5933  -14.2574   19.4083 H   0  0  0  0  0  0
  -28.7664  -12.3483   21.4887 H   0  0  0  0  0  0
  -28.3470  -14.0208   21.7464 H   0  0  0  0  0  0
  -25.2808   -9.5677   22.4708 H   0  0  0  0  0  0
  -24.0034   -7.4639   22.7456 H   0  0  0  0  0  0
  -21.0906   -8.8772   19.8896 H   0  0  0  0  0  0
  -22.3760  -10.9676   19.6122 H   0  0  0  0  0  0
  -21.2028   -7.6153   23.9728 H   0  0  0  0  0  0
  -21.1437   -6.0530   25.9083 H   0  0  0  0  0  0
  -22.0624   -2.7620   23.2864 H   0  0  0  0  0  0
  -22.4245  -11.9836   22.4742 H   0  0  0  0  0  0
  -21.1118  -13.1116   22.2540 H   0  0  0  0  0  0
  -24.6475  -15.8460   20.5203 H   0  0  0  0  0  0
  -26.2502  -15.6389   20.0397 H   0  0  0  0  0  0
  -26.7333  -32.5302   23.1022 H   0  0  0  0  0  0
  -25.0070  -33.9656   25.0310 H   0  0  0  0  0  0
  -22.7603  -31.2798   21.3690 H   0  0  0  0  0  0
  -23.3785  -35.9503   23.3253 H   0  0  0  0  0  0
  -24.3568  -36.8893   22.2065 H   0  0  0  0  0  0
  -23.7147  -37.6377   23.6701 H   0  0  0  0  0  0
  -26.1729  -31.4384   20.6075 H   0  0  0  0  0  0
  -26.8883  -30.7555   22.0300 H   0  0  0  0  0  0
  -28.1467  -28.7586   21.2436 H   0  0  0  0  0  0
  -25.9370  -25.7961   19.0321 H   0  0  0  0  0  0
  -24.0058  -27.2663   18.9708 H   0  0  0  0  0  0
  -23.8268  -30.5353   19.3962 H   0  0  0  0  0  0
  -22.7980  -29.2138   19.8522 H   0  0  0  0  0  0
  -25.1295  -36.1882   25.0826 H   0  0  0  0  0  0
  -21.0044  -28.3296   24.1390 H   0  0  0  0  0  0
  -20.5687  -26.2357   23.3646 H   0  0  0  0  0  0
  -21.6656  -26.7432   22.1206 H   0  0  0  0  0  0
  -19.6876  -25.6287   21.1280 H   0  0  0  0  0  0
  -19.6650  -27.3203   20.6767 H   0  0  0  0  0  0
  -17.4212  -26.6785   21.4040 H   0  0  0  0  0  0
  -18.0271  -26.0091   22.9034 H   0  0  0  0  0  0
  -19.7952  -30.7292   24.2296 H   0  0  0  0  0  0
  -17.5023  -31.6297   24.5115 H   0  0  0  0  0  0
  -15.5368  -30.2955   23.7642 H   0  0  0  0  0  0
  -15.8743  -28.0749   22.7162 H   0  0  0  0  0  0
  -24.5826  -30.7202   25.7627 H   0  0  0  0  0  0
  -24.8843  -32.2990   26.4720 H   0  0  0  0  0  0
  -25.7860  -30.8974   27.0186 H   0  0  0  0  0  0
  -26.3040  -29.6734   24.1240 H   0  0  0  0  0  0
  -27.3992  -29.7316   25.4867 H   0  0  0  0  0  0
  -27.8961  -30.4280   23.9647 H   0  0  0  0  0  0
  -27.2658  -33.3696   26.2040 H   0  0  0  0  0  0
  -28.3885  -32.6899   25.0342 H   0  0  0  0  0  0
  -28.0705  -31.8506   26.5437 H   0  0  0  0  0  0
  -28.2568  -38.0105   24.7604 H   0  0  0  0  0  0
  -28.1154  -36.2644   24.6215 H   0  0  0  0  0  0
  -27.2350  -37.1311   25.8885 H   0  0  0  0  0  0
  -20.9561  -29.8735   21.6794 H   0  0  0  0  0  0
  -26.0162  -38.2825   24.1451 H   0  0  0  0  0  0
  -27.9842  -21.3735   22.5630 H   0  0  0  0  0  0
  -29.1277  -17.7248   24.5356 H   0  0  0  0  0  0
  -30.0413  -19.1273   23.9866 H   0  0  0  0  0  0
  -30.2327  -17.5824   23.1640 H   0  0  0  0  0  0
  -30.4775  -18.5155   18.0755 H   0  0  0  0  0  0
  -28.9513  -17.6510   18.2278 H   0  0  0  0  0  0
  -30.4725  -16.7710   18.1280 H   0  0  0  0  0  0
  -28.9858  -23.1770   19.0105 H   0  0  0  0  0  0
  -30.0516  -23.5028   20.3156 H   0  0  0  0  0  0
  -27.5667  -19.0911   23.2869 H   0  0  0  0  0  0
  -27.9112  -17.7346   22.2351 H   0  0  0  0  0  0
  -28.0112  -24.4970   21.6384 H   0  0  0  0  0  0
  -27.0470  -24.2823   20.2378 H   0  0  0  0  0  0
  -31.1560  -17.8650   20.3122 H   0  0  0  0  0  0
  -30.0568  -20.5228   19.0485 H   0  0  0  0  0  0
  -28.8549  -16.0719   20.9272 H   0  0  0  0  0  0
  1 25  1  0  0  0
  1 30  2  0  0  0
  1 82  1  0  0  0
  2  3  1  0  0  0
  2 25  1  0  0  0
  2 83  1  0  0  0
  2 84  1  0  0  0
  3  4  1  0  0  0
  3 85  1  0  0  0
  3 86  1  0  0  0
  4  5  1  0  0  0
  4 87  1  0  0  0
  4 88  1  0  0  0
  5  6  1  0  0  0
  5 26  1  0  0  0
  5 89  1  0  0  0
  6 25  1  0  0  0
  6 90  1  0  0  0
  6 91  1  0  0  0
  7  8  2  0  0  0
  7 26  1  0  0  0
  7 29  1  0  0  0
  8  9  1  0  0  0
  8 22  1  0  0  0
  9 10  1  0  0  0
  9 27  2  0  0  0
 10 11  2  0  0  0
 10 15  1  0  0  0
 11 12  1  0  0  0
 11 92  1  0  0  0
 12 13  2  0  0  0
 12 93  1  0  0  0
 13 14  1  0  0  0
 13 31  1  0  0  0
 14 15  2  0  0  0
 14 94  1  0  0  0
 15 95  1  0  0  0
 16 17  2  0  0  0
 16 21  1  0  0  0
 16 31  1  0  0  0
 17 18  1  0  0  0
 17 96  1  0  0  0
 18 19  2  0  0  0
 18 97  1  0  0  0
 19 20  1  0  0  0
 19 24  1  0  0  0
 20 21  2  0  0  0
 20 98  1  0  0  0
 21 23  1  0  0  0
 22 28  1  0  0  0
 22 32  2  0  0  0
 26 27  1  0  0  0
 28 99  1  0  0  0
 28100  1  0  0  0
 29101  1  0  0  0
 29102  1  0  0  0
 33 34  1  0  0  0
 33 66  1  0  0  0
 33 70  2  0  0  0
 34 36  1  0  0  0
 34 59  1  0  0  0
 34103  1  0  0  0
 35 44  2  0  0  0
 35 45  1  0  0  0
 35 68  1  0  0  0
 36 56  1  0  0  0
 36104  1  0  0  0
 37 39  1  0  0  0
 37 47  1  0  0  0
 37 66  1  0  0  0
 37105  1  0  0  0
 38 43  2  0  0  0
 38 46  1  0  0  0
 38 47  1  0  0  0
 39 64  1  0  0  0
 39 67  2  0  0  0
 40 52  1  0  0  0
 40 53  2  0  0  0
 40 58  1  0  0  0
 41106  1  0  0  0
 41107  1  0  0  0
 41108  1  0  0  0
 41 48  1  0  0  0
 42 43  1  0  0  0
 42 66  1  0  0  0
 42109  1  0  0  0
 42110  1  0  0  0
 43 44  1  0  0  0
 44111  1  0  0  0
 45 46  2  0  0  0
 45112  1  0  0  0
 46113  1  0  0  0
 47114  1  0  0  0
 47115  1  0  0  0
 48 56  1  0  0  0
 48 65  1  0  0  0
 48116  1  0  0  0
 49 50  1  0  0  0
 49 53  1  0  0  0
 49 64  1  0  0  0
 49117  1  0  0  0
 50 51  1  0  0  0
 50118  1  0  0  0
 50119  1  0  0  0
 51 52  1  0  0  0
 51120  1  0  0  0
 51121  1  0  0  0
 52122  1  0  0  0
 52123  1  0  0  0
 53 54  1  0  0  0
 54 55  2  0  0  0
 54124  1  0  0  0
 55 57  1  0  0  0
 55125  1  0  0  0
 56 69  2  0  0  0
 57 58  2  0  0  0
 57126  1  0  0  0
 58127  1  0  0  0
 59 60  1  0  0  0
 59 61  1  0  0  0
 59 62  1  0  0  0
 60128  1  0  0  0
 60129  1  0  0  0
 60130  1  0  0  0
 61131  1  0  0  0
 61132  1  0  0  0
 61133  1  0  0  0
 62134  1  0  0  0
 62135  1  0  0  0
 62136  1  0  0  0
 63 65  1  0  0  0
 63137  1  0  0  0
 63138  1  0  0  0
 63139  1  0  0  0
 64140  1  0  0  0
 65141  1  0  0  0
 68 78  1  0  0  0
 71 72  2  0  0  0
 71 80  1  0  0  0
 71142  1  0  0  0
 72 76  1  0  0  0
 72 81  1  0  0  0
 73 79  1  0  0  0
 73 80  1  0  0  0
 73 81  2  0  0  0
 74 77  1  0  0  0
 74143  1  0  0  0
 74144  1  0  0  0
 74145  1  0  0  0
 75146  1  0  0  0
 75147  1  0  0  0
 75148  1  0  0  0
 75 79  1  0  0  0
 76 78  1  0  0  0
 76149  1  0  0  0
 76150  1  0  0  0
 77 80  1  0  0  0
 77151  1  0  0  0
 77152  1  0  0  0
 78153  1  0  0  0
 78154  1  0  0  0
 79 82  1  0  0  0
 79155  1  0  0  0
 81156  1  0  0  0
 82157  1  0  0  0
M  CHG  1  81   1
M  ISO  4   1 100  68 101  78 101  82 100
M  END
> <chiral flag>
0

> <version>
0

> <s_m_source_file>
/data/baiqing/PycharmProjects/Reinvent-master-3.2/result/LINK_invent/BTK/process_docking_weight1_custom_sum_contain_oxygen_bond_distance_aromatic_linkinvent_7_9_3/rearranged_h_0059.sdf

> <i_m_source_file_index>
91

> <r_mmod_Potential_Energy-OPLS-2005>
561.901062011719

> <r_mmod_Stretch_Energy-OPLS-2005>
326.559448242188

> <r_mmod_Bend_Energy-OPLS-2005>
306.650848388672

> <r_mmod_Torsional_Energy-OPLS-2005>
235.923309326172

> <r_mmod_Improper_Torsional_Energy-OPLS-2005>
5.90203857421875

> <r_mmod_Van_der_Waal_Energy-OPLS-2005>
101.422721862793

> <r_mmod_Electrostatic_Energy-OPLS-2005>
-220.952484130859

> <r_mmod_Solvation_Energy-OPLS-2005>
-428.473358154297

> <b_mmod_Minimization_Converged-OPLS-2005>
0

> <r_mmod_RMS_Derivative-OPLS-2005>
4.59021282196045

$$$$
93
                    3D
 Structure written by MMmdl.
163171  0  0  1  0            999 V2000
  -30.5460  -14.9587   20.4788 C   0  0  0  0  0  0
  -30.4366  -12.5995   19.5201 C   0  0  0  0  0  0
  -29.5240  -12.5449   18.2714 C   0  0  0  0  0  0
  -28.0562  -12.3267   18.6796 C   0  0  0  0  0  0
  -27.6318  -13.2505   19.8498 C   0  0  2  0  0  0
  -28.6659  -13.2610   20.9947 C   0  0  0  0  0  0
  -25.2463  -13.8223   20.5716 C   0  0  0  0  0  0
  -24.1771  -13.0441   20.9201 C   0  0  0  0  0  0
  -24.6385  -11.6922   20.8733 C   0  0  0  0  0  0
  -23.9065  -10.4295   21.0399 C   0  0  0  0  0  0
  -24.3618   -9.4215   21.9181 C   0  0  0  0  0  0
  -23.6294   -8.2253   22.0760 C   0  0  0  0  0  0
  -22.4277   -8.0277   21.3548 C   0  0  0  0  0  0
  -21.9911   -9.0248   20.4651 C   0  0  0  0  0  0
  -22.7237  -10.2128   20.3054 C   0  0  0  0  0  0
  -21.6855   -6.0731   22.5276 C   0  0  0  0  0  0
  -21.4019   -6.5637   23.8209 C   0  0  0  0  0  0
  -21.3662   -5.6789   24.9170 C   0  0  0  0  0  0
  -21.6044   -4.3053   24.7224 C   0  0  0  0  0  0
  -21.8821   -3.8143   23.4343 C   0  0  0  0  0  0
  -21.9194   -4.6962   22.3400 C   0  0  0  0  0  0
  -22.7800  -13.5210   21.1866 C   0  0  0  0  0  0
  -22.1663   -4.2144   21.0978 F   0  0  0  0  0  0
  -21.5626   -3.4536   25.7738 F   0  0  0  0  0  0
  -29.9497  -13.6916   20.4208 N   0  0  0  0  0  0
  -26.2884  -12.9456   20.3272 N   0  0  0  0  0  0
  -25.9321  -11.6579   20.5738 N   0  0  0  0  0  0
  -22.0457  -12.8194   22.0427 N   0  0  0  0  0  0
  -25.4157  -15.1954   20.4201 N   0  0  0  0  0  0
  -31.6914  -15.0469   20.0201 O   0  0  0  0  0  0
  -21.6641   -6.8875   21.4243 O   0  0  0  0  0  0
  -22.3475  -14.5511   20.6706 O   0  0  0  0  0  0
  -24.6450  -31.8415   23.1862 C   0  0  0  0  0  0
  -25.9215  -32.4680   23.8248 C   0  0  1  0  0  0
  -27.2143  -27.1073   20.1620 C   0  0  0  0  0  0
  -25.5961  -33.8487   24.2174 N   0  0  0  0  0  0
  -23.4509  -30.4590   21.5313 C   0  0  2  0  0  0
  -24.9032  -28.8848   20.1061 C   0  0  0  0  0  0
  -22.7580  -29.4519   22.4838 C   0  0  0  0  0  0
  -18.0305  -28.1394   22.8439 C   0  0  0  0  0  0
  -24.1498  -36.7254   23.2640 C   0  0  0  0  0  0
  -26.0098  -30.7040   21.3941 C   0  0  0  0  0  0
  -26.0802  -29.3145   20.7326 C   0  0  0  0  0  0
  -27.2345  -28.4408   20.7461 C   0  0  0  0  0  0
  -26.0184  -26.7951   19.4762 C   0  0  0  0  0  0
  -24.8873  -27.6399   19.4613 C   0  0  0  0  0  0
  -23.6807  -29.7886   20.1509 C   0  0  0  0  0  0
  -25.4131  -36.3028   24.0311 C   0  0  1  0  0  0
  -20.5918  -28.3730   23.1216 C   0  0  2  0  0  0
  -20.6796  -26.9428   22.5404 C   0  0  0  0  0  0
  -19.5781  -26.6380   21.5203 C   0  0  0  0  0  0
  -18.1952  -26.7922   22.1600 C   0  0  0  0  0  0
  -19.1563  -28.8878   23.2809 C   0  0  0  0  0  0
  -18.9479  -30.1465   23.8850 C   0  0  0  0  0  0
  -17.6486  -30.6589   24.0552 C   0  0  0  0  0  0
  -25.9087  -34.9395   23.5049 C   0  0  0  0  0  0
  -16.5377  -29.9076   23.6343 C   0  0  0  0  0  0
  -16.7290  -28.6505   23.0335 C   0  0  0  0  0  0
  -26.4530  -31.6546   25.0691 C   0  0  0  0  0  0
  -25.3700  -31.3751   26.1375 C   0  0  0  0  0  0
  -27.0416  -30.2934   24.6309 C   0  0  0  0  0  0
  -27.6054  -32.4323   25.7478 C   0  0  0  0  0  0
  -27.5583  -37.1774   24.8458 C   0  0  0  0  0  0
  -21.4272  -29.3046   22.3584 N   0  0  0  0  0  0
  -26.4293  -37.3737   23.9404 N   0  0  0  0  0  0
  -24.7213  -31.0226   22.0919 N   0  0  0  0  0  0
  -23.4205  -28.8068   23.3001 O   0  0  0  0  0  0
  -28.2451  -26.0945   20.2742 O   0  0  0  0  0  0
  -26.5669  -34.8890   22.4623 O   0  0  0  0  0  0
  -23.5562  -32.1316   23.7055 O   0  0  0  0  0  0
  -27.5018  -21.8251   18.6750 C   0  0  0  0  0  0
  -27.2569  -20.5973   18.1365 C   0  0  0  0  0  0
  -28.7036  -20.3020   19.8460 C   0  0  0  0  0  0
  -26.3792  -20.1728   17.0042 C   0  0  0  0  0  0
  -28.7581  -19.2451   22.1221 C   0  0  0  0  0  0
  -30.9220  -19.6172   20.9480 C   0  0  0  0  0  0
  -29.6828  -16.2052   22.3620 C   0  0  0  0  0  0
  -28.7620  -23.1196   20.4233 C   0  0  0  0  0  0
  -29.5338  -17.5307   20.1786 C   0  0  0  0  0  0
  -27.9859  -24.5787   19.9588 C   0  0  0  0  0  0
  -29.4674  -19.1654   20.7571 C   0  0  0  0  0  0
  -28.3909  -21.7143   19.7285 N   0  0  0  0  0  0
  -28.0038  -19.7255   18.8621 N   0  3  0  0  0  0
  -29.8411  -16.1361   20.9096 N   0  0  0  0  0  0
  -31.4721  -12.7504   19.2122 H   0  0  0  0  0  0
  -30.4279  -11.6434   20.0453 H   0  0  0  0  0  0
  -29.8476  -11.7511   17.5974 H   0  0  0  0  0  0
  -29.6151  -13.4770   17.7113 H   0  0  0  0  0  0
  -27.9488  -11.2831   18.9777 H   0  0  0  0  0  0
  -27.3957  -12.4676   17.8229 H   0  0  0  0  0  0
  -27.6009  -14.2591   19.4363 H   0  0  0  0  0  0
  -28.7521  -12.2771   21.4586 H   0  0  0  0  0  0
  -28.3338  -13.9385   21.7797 H   0  0  0  0  0  0
  -25.2767   -9.5695   22.4748 H   0  0  0  0  0  0
  -24.0003   -7.4651   22.7489 H   0  0  0  0  0  0
  -21.0841   -8.8763   19.8960 H   0  0  0  0  0  0
  -22.3692  -10.9662   19.6157 H   0  0  0  0  0  0
  -21.2018   -7.6144   23.9707 H   0  0  0  0  0  0
  -21.1481   -6.0521   25.9070 H   0  0  0  0  0  0
  -22.0599   -2.7603   23.2843 H   0  0  0  0  0  0
  -22.4076  -11.9843   22.4792 H   0  0  0  0  0  0
  -21.1080  -13.1225   22.2650 H   0  0  0  0  0  0
  -24.6549  -15.8539   20.5471 H   0  0  0  0  0  0
  -26.2790  -15.6377   20.1341 H   0  0  0  0  0  0
  -26.7266  -32.5265   23.0961 H   0  0  0  0  0  0
  -25.0085  -33.9605   25.0306 H   0  0  0  0  0  0
  -22.7545  -31.2846   21.3720 H   0  0  0  0  0  0
  -23.3767  -35.9578   23.3294 H   0  0  0  0  0  0
  -24.3594  -36.8899   22.2057 H   0  0  0  0  0  0
  -23.7253  -37.6439   23.6694 H   0  0  0  0  0  0
  -26.1696  -31.4578   20.6230 H   0  0  0  0  0  0
  -26.8784  -30.7529   22.0391 H   0  0  0  0  0  0
  -28.1246  -28.7567   21.2731 H   0  0  0  0  0  0
  -25.9135  -25.8494   18.9664 H   0  0  0  0  0  0
  -23.9915  -27.3079   18.9545 H   0  0  0  0  0  0
  -23.8205  -30.5633   19.3962 H   0  0  0  0  0  0
  -22.7972  -29.2299   19.8365 H   0  0  0  0  0  0
  -25.1318  -36.1858   25.0802 H   0  0  0  0  0  0
  -20.9980  -28.3325   24.1347 H   0  0  0  0  0  0
  -20.5704  -26.2329   23.3619 H   0  0  0  0  0  0
  -21.6658  -26.7441   22.1195 H   0  0  0  0  0  0
  -19.6963  -25.6282   21.1248 H   0  0  0  0  0  0
  -19.6738  -27.3168   20.6713 H   0  0  0  0  0  0
  -17.4226  -26.6647   21.4003 H   0  0  0  0  0  0
  -18.0356  -26.0078   22.9012 H   0  0  0  0  0  0
  -19.7966  -30.7269   24.2203 H   0  0  0  0  0  0
  -17.5053  -31.6266   24.5153 H   0  0  0  0  0  0
  -15.5373  -30.2967   23.7711 H   0  0  0  0  0  0
  -15.8683  -28.0834   22.7061 H   0  0  0  0  0  0
  -24.5902  -30.7088   25.7680 H   0  0  0  0  0  0
  -24.8862  -32.2929   26.4714 H   0  0  0  0  0  0
  -25.7947  -30.8973   27.0212 H   0  0  0  0  0  0
  -26.3052  -29.6620   24.1325 H   0  0  0  0  0  0
  -27.4016  -29.7274   25.4915 H   0  0  0  0  0  0
  -27.8955  -30.4153   23.9649 H   0  0  0  0  0  0
  -27.2660  -33.3655   26.1983 H   0  0  0  0  0  0
  -28.3891  -32.6829   25.0322 H   0  0  0  0  0  0
  -28.0689  -31.8498   26.5453 H   0  0  0  0  0  0
  -28.2563  -38.0102   24.7523 H   0  0  0  0  0  0
  -28.1114  -36.2626   24.6269 H   0  0  0  0  0  0
  -27.2295  -37.1393   25.8857 H   0  0  0  0  0  0
  -20.9494  -29.8756   21.6753 H   0  0  0  0  0  0
  -26.0163  -38.2803   24.1418 H   0  0  0  0  0  0
  -27.0720  -22.7607   18.3544 H   0  0  0  0  0  0
  -25.6253  -20.9336   16.8023 H   0  0  0  0  0  0
  -25.8640  -19.2422   17.2441 H   0  0  0  0  0  0
  -26.9706  -20.0246   16.1009 H   0  0  0  0  0  0
  -28.6573  -20.2812   22.4500 H   0  0  0  0  0  0
  -29.3028  -18.7434   22.9171 H   0  0  0  0  0  0
  -27.7535  -18.8243   22.0718 H   0  0  0  0  0  0
  -30.9788  -20.6054   21.4041 H   0  0  0  0  0  0
  -31.4444  -19.6660   19.9911 H   0  0  0  0  0  0
  -31.4720  -18.9252   21.5867 H   0  0  0  0  0  0
  -28.6873  -16.5585   22.6281 H   0  0  0  0  0  0
  -30.4350  -16.8692   22.7883 H   0  0  0  0  0  0
  -29.8178  -15.2433   22.8601 H   0  0  0  0  0  0
  -28.6161  -22.9763   21.4941 H   0  0  0  0  0  0
  -29.8353  -23.2434   20.2862 H   0  0  0  0  0  0
  -30.1683  -17.5382   19.2908 H   0  0  0  0  0  0
  -28.5369  -17.3249   19.7917 H   0  0  0  0  0  0
  -26.9441  -24.4031   20.2272 H   0  0  0  0  0  0
  -28.0192  -24.5861   18.8703 H   0  0  0  0  0  0
  -28.0223  -18.7265   18.6949 H   0  0  0  0  0  0
  1 25  1  0  0  0
  1 30  2  0  0  0
  1 84  1  0  0  0
  2  3  1  0  0  0
  2 25  1  0  0  0
  2 85  1  0  0  0
  2 86  1  0  0  0
  3  4  1  0  0  0
  3 87  1  0  0  0
  3 88  1  0  0  0
  4  5  1  0  0  0
  4 89  1  0  0  0
  4 90  1  0  0  0
  5  6  1  0  0  0
  5 26  1  0  0  0
  5 91  1  0  0  0
  6 25  1  0  0  0
  6 92  1  0  0  0
  6 93  1  0  0  0
  7  8  2  0  0  0
  7 26  1  0  0  0
  7 29  1  0  0  0
  8  9  1  0  0  0
  8 22  1  0  0  0
  9 10  1  0  0  0
  9 27  2  0  0  0
 10 11  2  0  0  0
 10 15  1  0  0  0
 11 12  1  0  0  0
 11 94  1  0  0  0
 12 13  2  0  0  0
 12 95  1  0  0  0
 13 14  1  0  0  0
 13 31  1  0  0  0
 14 15  2  0  0  0
 14 96  1  0  0  0
 15 97  1  0  0  0
 16 17  2  0  0  0
 16 21  1  0  0  0
 16 31  1  0  0  0
 17 18  1  0  0  0
 17 98  1  0  0  0
 18 19  2  0  0  0
 18 99  1  0  0  0
 19 20  1  0  0  0
 19 24  1  0  0  0
 20 21  2  0  0  0
 20100  1  0  0  0
 21 23  1  0  0  0
 22 28  1  0  0  0
 22 32  2  0  0  0
 26 27  1  0  0  0
 28101  1  0  0  0
 28102  1  0  0  0
 29103  1  0  0  0
 29104  1  0  0  0
 33 34  1  0  0  0
 33 66  1  0  0  0
 33 70  2  0  0  0
 34 36  1  0  0  0
 34 59  1  0  0  0
 34105  1  0  0  0
 35 44  2  0  0  0
 35 45  1  0  0  0
 35 68  1  0  0  0
 36 56  1  0  0  0
 36106  1  0  0  0
 37 39  1  0  0  0
 37 47  1  0  0  0
 37 66  1  0  0  0
 37107  1  0  0  0
 38 43  2  0  0  0
 38 46  1  0  0  0
 38 47  1  0  0  0
 39 64  1  0  0  0
 39 67  2  0  0  0
 40 52  1  0  0  0
 40 53  2  0  0  0
 40 58  1  0  0  0
 41108  1  0  0  0
 41109  1  0  0  0
 41110  1  0  0  0
 41 48  1  0  0  0
 42 43  1  0  0  0
 42 66  1  0  0  0
 42111  1  0  0  0
 42112  1  0  0  0
 43 44  1  0  0  0
 44113  1  0  0  0
 45 46  2  0  0  0
 45114  1  0  0  0
 46115  1  0  0  0
 47116  1  0  0  0
 47117  1  0  0  0
 48 56  1  0  0  0
 48 65  1  0  0  0
 48118  1  0  0  0
 49 50  1  0  0  0
 49 53  1  0  0  0
 49 64  1  0  0  0
 49119  1  0  0  0
 50 51  1  0  0  0
 50120  1  0  0  0
 50121  1  0  0  0
 51 52  1  0  0  0
 51122  1  0  0  0
 51123  1  0  0  0
 52124  1  0  0  0
 52125  1  0  0  0
 53 54  1  0  0  0
 54 55  2  0  0  0
 54126  1  0  0  0
 55 57  1  0  0  0
 55127  1  0  0  0
 56 69  2  0  0  0
 57 58  2  0  0  0
 57128  1  0  0  0
 58129  1  0  0  0
 59 60  1  0  0  0
 59 61  1  0  0  0
 59 62  1  0  0  0
 60130  1  0  0  0
 60131  1  0  0  0
 60132  1  0  0  0
 61133  1  0  0  0
 61134  1  0  0  0
 61135  1  0  0  0
 62136  1  0  0  0
 62137  1  0  0  0
 62138  1  0  0  0
 63 65  1  0  0  0
 63139  1  0  0  0
 63140  1  0  0  0
 63141  1  0  0  0
 64142  1  0  0  0
 65143  1  0  0  0
 68 80  1  0  0  0
 71 72  2  0  0  0
 71 82  1  0  0  0
 71144  1  0  0  0
 72 74  1  0  0  0
 72 83  1  0  0  0
 73 81  1  0  0  0
 73 82  1  0  0  0
 73 83  2  0  0  0
 74145  1  0  0  0
 74146  1  0  0  0
 74147  1  0  0  0
 75148  1  0  0  0
 75149  1  0  0  0
 75150  1  0  0  0
 75 81  1  0  0  0
 76 81  1  0  0  0
 76151  1  0  0  0
 76152  1  0  0  0
 76153  1  0  0  0
 77 84  1  0  0  0
 77154  1  0  0  0
 77155  1  0  0  0
 77156  1  0  0  0
 78 80  1  0  0  0
 78 82  1  0  0  0
 78157  1  0  0  0
 78158  1  0  0  0
 79 81  1  0  0  0
 79 84  1  0  0  0
 79159  1  0  0  0
 79160  1  0  0  0
 80161  1  0  0  0
 80162  1  0  0  0
 83163  1  0  0  0
M  CHG  1  83   1
M  ISO  4   1 100  68 101  80 101  84 100
M  END
> <chiral flag>
0

> <version>
0

> <s_m_source_file>
/data/baiqing/PycharmProjects/Reinvent-master-3.2/result/LINK_invent/BTK/process_docking_weight1_custom_sum_contain_oxygen_bond_distance_aromatic_linkinvent_7_9_3/rearranged_h_0059.sdf

> <i_m_source_file_index>
92

> <r_mmod_Potential_Energy-OPLS-2005>
806.96484375

> <r_mmod_Stretch_Energy-OPLS-2005>
334.111480712891

> <r_mmod_Bend_Energy-OPLS-2005>
355.007568359375

> <r_mmod_Torsional_Energy-OPLS-2005>
332.858245849609

> <r_mmod_Improper_Torsional_Energy-OPLS-2005>
3.77681803703308

> <r_mmod_Van_der_Waal_Energy-OPLS-2005>
116.201370239258

> <r_mmod_Electrostatic_Energy-OPLS-2005>
-135.845565795898

> <r_mmod_Solvation_Energy-OPLS-2005>
-409.423553466797

> <b_mmod_Minimization_Converged-OPLS-2005>
0

> <r_mmod_RMS_Derivative-OPLS-2005>
1.87134897708893

$$$$
94
                    3D
 Structure written by MMmdl.
171179  0  0  1  0            999 V2000
  -30.6824  -14.5577   20.5748 C   0  0  0  0  0  0
  -30.4335  -12.3594   19.4424 C   0  0  0  0  0  0
  -29.5022  -12.4982   18.2211 C   0  0  0  0  0  0
  -28.0265  -12.3426   18.6461 C   0  0  0  0  0  0
  -27.6604  -13.2135   19.8730 C   0  0  2  0  0  0
  -28.6995  -13.0365   20.9996 C   0  0  0  0  0  0
  -25.2586  -13.8249   20.5768 C   0  0  0  0  0  0
  -24.1859  -13.0537   20.9252 C   0  0  0  0  0  0
  -24.6398  -11.6978   20.8851 C   0  0  0  0  0  0
  -23.9099  -10.4346   21.0447 C   0  0  0  0  0  0
  -24.3649   -9.4236   21.9188 C   0  0  0  0  0  0
  -23.6334   -8.2267   22.0739 C   0  0  0  0  0  0
  -22.4320   -8.0294   21.3525 C   0  0  0  0  0  0
  -21.9962   -9.0287   20.4670 C   0  0  0  0  0  0
  -22.7282  -10.2170   20.3068 C   0  0  0  0  0  0
  -21.6849   -6.0757   22.5274 C   0  0  0  0  0  0
  -21.3999   -6.5652   23.8211 C   0  0  0  0  0  0
  -21.3661   -5.6795   24.9182 C   0  0  0  0  0  0
  -21.6032   -4.3048   24.7207 C   0  0  0  0  0  0
  -21.8802   -3.8160   23.4323 C   0  0  0  0  0  0
  -21.9185   -4.6989   22.3392 C   0  0  0  0  0  0
  -22.7836  -13.5235   21.1859 C   0  0  0  0  0  0
  -22.1649   -4.2191   21.0963 F   0  0  0  0  0  0
  -21.5642   -3.4515   25.7706 F   0  0  0  0  0  0
  -30.0211  -13.3629   20.4434 N   0  0  0  0  0  0
  -26.3042  -12.9419   20.3434 N   0  0  0  0  0  0
  -25.9332  -11.6595   20.5902 N   0  0  0  0  0  0
  -22.0383  -12.8365   22.0446 N   0  0  0  0  0  0
  -25.4319  -15.1999   20.4110 N   0  0  0  0  0  0
  -31.7833  -14.7443   20.0476 O   0  0  0  0  0  0
  -21.6635   -6.8908   21.4236 O   0  0  0  0  0  0
  -22.3511  -14.5457   20.6532 O   0  0  0  0  0  0
  -24.6159  -31.8654   23.2111 C   0  0  0  0  0  0
  -25.9055  -32.4810   23.8420 C   0  0  1  0  0  0
  -27.2379  -27.4057   20.1217 C   0  0  0  0  0  0
  -25.5904  -33.8612   24.2350 N   0  0  0  0  0  0
  -23.4063  -30.4865   21.5520 C   0  0  2  0  0  0
  -24.8545  -28.9378   20.1358 C   0  0  0  0  0  0
  -22.7456  -29.4637   22.5030 C   0  0  0  0  0  0
  -18.0270  -28.1383   22.8489 C   0  0  0  0  0  0
  -24.1476  -36.7307   23.2648 C   0  0  0  0  0  0
  -25.9396  -30.8239   21.3708 C   0  0  0  0  0  0
  -26.0154  -29.4544   20.7220 C   0  0  0  0  0  0
  -27.2135  -28.6983   20.6991 C   0  0  0  0  0  0
  -26.0518  -26.9012   19.5478 C   0  0  0  0  0  0
  -24.8661  -27.6606   19.5503 C   0  0  0  0  0  0
  -23.6196  -29.8069   20.1711 C   0  0  0  0  0  0
  -25.4104  -36.3105   24.0352 C   0  0  1  0  0  0
  -20.5874  -28.3667   23.1326 C   0  0  2  0  0  0
  -20.6770  -26.9410   22.5417 C   0  0  0  0  0  0
  -19.5732  -26.6379   21.5229 C   0  0  0  0  0  0
  -18.1911  -26.7927   22.1627 C   0  0  0  0  0  0
  -19.1527  -28.8847   23.2899 C   0  0  0  0  0  0
  -18.9445  -30.1447   23.8906 C   0  0  0  0  0  0
  -17.6448  -30.6587   24.0555 C   0  0  0  0  0  0
  -25.9025  -34.9464   23.5151 C   0  0  0  0  0  0
  -16.5333  -29.9086   23.6323 C   0  0  0  0  0  0
  -16.7268  -28.6505   23.0353 C   0  0  0  0  0  0
  -26.4487  -31.6609   25.0765 C   0  0  0  0  0  0
  -25.3776  -31.3751   26.1556 C   0  0  0  0  0  0
  -27.0334  -30.3035   24.6195 C   0  0  0  0  0  0
  -27.6074  -32.4366   25.7473 C   0  0  0  0  0  0
  -27.5585  -37.1811   24.8477 C   0  0  0  0  0  0
  -21.4189  -29.3023   22.3756 N   0  0  0  0  0  0
  -26.4291  -37.3787   23.9422 N   0  0  0  0  0  0
  -24.6710  -31.0765   22.1001 N   0  0  0  0  0  0
  -23.4242  -28.8219   23.3097 O   0  0  0  0  0  0
  -28.4398  -26.7290   20.0251 O   0  0  0  0  0  0
  -26.5573  -34.8921   22.4689 O   0  0  0  0  0  0
  -23.5354  -32.1401   23.7511 O   0  0  0  0  0  0
  -28.0927  -21.5361   19.8753 C   0  0  0  0  0  0
  -28.6374  -22.8542   19.7444 C   0  0  0  0  0  0
  -29.0867  -20.6307   19.5451 C   0  0  0  0  0  0
  -29.6564  -18.6377   18.0497 C   0  0  0  0  0  0
  -27.4936  -18.7100   19.1602 C   0  0  0  0  0  0
  -31.1032  -18.3694   20.7334 C   0  0  0  0  0  0
  -28.9811  -18.7345   21.9331 C   0  0  0  0  0  0
  -31.4977  -21.1774   18.6798 C   0  0  0  0  0  0
  -30.1015  -15.6122   22.6831 C   0  0  0  0  0  0
  -27.9211  -24.2135   19.7491 C   0  0  0  0  0  0
  -29.2114  -16.6213   20.5233 C   0  0  0  0  0  0
  -28.6062  -25.3803   20.5236 C   0  0  0  0  0  0
  -28.9940  -19.0711   19.3851 C   0  0  0  0  0  0
  -29.5780  -18.1816   20.6134 C   0  0  0  0  0  0
  -29.9014  -22.7756   19.3763 N   0  0  0  0  0  0
  -30.1841  -21.4558   19.2424 N   0  0  0  0  0  0
  -30.0302  -15.5690   21.2174 N   0  0  0  0  0  0
  -31.4731  -12.4828   19.1383 H   0  0  0  0  0  0
  -30.3688  -11.3525   19.8614 H   0  0  0  0  0  0
  -29.7568  -11.7536   17.4619 H   0  0  0  0  0  0
  -29.6627  -13.4743   17.7571 H   0  0  0  0  0  0
  -27.8683  -11.2936   18.8982 H   0  0  0  0  0  0
  -27.3615  -12.5772   17.8117 H   0  0  0  0  0  0
  -27.6929  -14.2502   19.5385 H   0  0  0  0  0  0
  -28.7066  -12.0069   21.3625 H   0  0  0  0  0  0
  -28.4297  -13.6615   21.8523 H   0  0  0  0  0  0
  -25.2754   -9.5676   22.4854 H   0  0  0  0  0  0
  -24.0023   -7.4583   22.7422 H   0  0  0  0  0  0
  -21.0885   -8.8779   19.8982 H   0  0  0  0  0  0
  -22.3693  -10.9716   19.6215 H   0  0  0  0  0  0
  -21.1954   -7.6150   23.9744 H   0  0  0  0  0  0
  -21.1530   -6.0519   25.9098 H   0  0  0  0  0  0
  -22.0593   -2.7636   23.2796 H   0  0  0  0  0  0
  -22.3892  -12.0066   22.5022 H   0  0  0  0  0  0
  -21.0937  -13.1381   22.2420 H   0  0  0  0  0  0
  -24.6749  -15.8658   20.5256 H   0  0  0  0  0  0
  -26.2914  -15.6360   20.1098 H   0  0  0  0  0  0
  -26.7138  -32.5515   23.1198 H   0  0  0  0  0  0
  -25.0122  -33.9754   25.0553 H   0  0  0  0  0  0
  -22.6944  -31.3020   21.4064 H   0  0  0  0  0  0
  -23.3757  -35.9612   23.3258 H   0  0  0  0  0  0
  -24.3577  -36.8966   22.2069 H   0  0  0  0  0  0
  -23.7190  -37.6487   23.6681 H   0  0  0  0  0  0
  -26.0655  -31.5863   20.6020 H   0  0  0  0  0  0
  -26.8228  -30.8740   21.9961 H   0  0  0  0  0  0
  -28.1233  -29.1046   21.1200 H   0  0  0  0  0  0
  -26.0335  -25.9321   19.0726 H   0  0  0  0  0  0
  -23.9672  -27.2566   19.1051 H   0  0  0  0  0  0
  -23.7400  -30.5697   19.4023 H   0  0  0  0  0  0
  -22.7447  -29.2240   19.8748 H   0  0  0  0  0  0
  -25.1283  -36.1959   25.0844 H   0  0  0  0  0  0
  -20.9952  -28.3202   24.1457 H   0  0  0  0  0  0
  -20.5700  -26.2287   23.3618 H   0  0  0  0  0  0
  -21.6637  -26.7469   22.1186 H   0  0  0  0  0  0
  -19.6883  -25.6294   21.1249 H   0  0  0  0  0  0
  -19.6645  -27.3195   20.6761 H   0  0  0  0  0  0
  -17.4213  -26.6711   21.3998 H   0  0  0  0  0  0
  -18.0258  -26.0056   22.8995 H   0  0  0  0  0  0
  -19.7924  -30.7239   24.2313 H   0  0  0  0  0  0
  -17.5000  -31.6265   24.5159 H   0  0  0  0  0  0
  -15.5329  -30.2974   23.7654 H   0  0  0  0  0  0
  -15.8675  -28.0800   22.7088 H   0  0  0  0  0  0
  -24.5824  -30.7246   25.7910 H   0  0  0  0  0  0
  -24.9141  -32.2943   26.5146 H   0  0  0  0  0  0
  -25.8127  -30.8778   27.0237 H   0  0  0  0  0  0
  -26.2876  -29.6731   24.1353 H   0  0  0  0  0  0
  -27.4197  -29.7347   25.4669 H   0  0  0  0  0  0
  -27.8668  -30.4343   23.9294 H   0  0  0  0  0  0
  -27.2726  -33.3739   26.1929 H   0  0  0  0  0  0
  -28.3896  -32.6816   25.0275 H   0  0  0  0  0  0
  -28.0716  -31.8575   26.5463 H   0  0  0  0  0  0
  -28.2635  -38.0080   24.7513 H   0  0  0  0  0  0
  -28.1048  -36.2619   24.6312 H   0  0  0  0  0  0
  -27.2313  -37.1496   25.8883 H   0  0  0  0  0  0
  -20.9426  -29.8685   21.6879 H   0  0  0  0  0  0
  -26.0181  -38.2865   24.1397 H   0  0  0  0  0  0
  -27.0621  -21.3027   20.0984 H   0  0  0  0  0  0
  -29.3408  -19.2574   17.2102 H   0  0  0  0  0  0
  -29.3934  -17.6186   17.7726 H   0  0  0  0  0  0
  -30.7405  -18.6888   18.0825 H   0  0  0  0  0  0
  -27.0907  -19.2483   18.3005 H   0  0  0  0  0  0
  -26.8601  -18.9492   20.0102 H   0  0  0  0  0  0
  -27.3319  -17.6538   18.9422 H   0  0  0  0  0  0
  -31.5241  -18.0811   21.6927 H   0  0  0  0  0  0
  -31.3121  -19.4278   20.7490 H   0  0  0  0  0  0
  -31.6677  -17.8566   19.9464 H   0  0  0  0  0  0
  -29.4178  -18.2634   22.8129 H   0  0  0  0  0  0
  -27.9073  -18.5620   21.9787 H   0  0  0  0  0  0
  -29.1343  -19.8071   22.0543 H   0  0  0  0  0  0
  -31.3909  -20.8593   17.6438 H   0  0  0  0  0  0
  -32.0404  -20.4017   19.1961 H   0  0  0  0  0  0
  -32.1159  -22.0776   18.7503 H   0  0  0  0  0  0
  -30.7711  -16.3987   23.0235 H   0  0  0  0  0  0
  -30.4962  -14.6734   23.0780 H   0  0  0  0  0  0
  -29.1194  -15.7623   23.1362 H   0  0  0  0  0  0
  -26.9153  -24.0819   20.1501 H   0  0  0  0  0  0
  -27.7791  -24.5258   18.7157 H   0  0  0  0  0  0
  -29.1375  -16.3248   19.4768 H   0  0  0  0  0  0
  -28.1998  -16.4855   20.9105 H   0  0  0  0  0  0
  -29.6816  -25.2334   20.4214 H   0  0  0  0  0  0
  -28.4140  -25.3333   21.5972 H   0  0  0  0  0  0
  1 25  1  0  0  0
  1 30  2  0  0  0
  1 87  1  0  0  0
  2  3  1  0  0  0
  2 25  1  0  0  0
  2 88  1  0  0  0
  2 89  1  0  0  0
  3  4  1  0  0  0
  3 90  1  0  0  0
  3 91  1  0  0  0
  4  5  1  0  0  0
  4 92  1  0  0  0
  4 93  1  0  0  0
  5  6  1  0  0  0
  5 26  1  0  0  0
  5 94  1  0  0  0
  6 25  1  0  0  0
  6 95  1  0  0  0
  6 96  1  0  0  0
  7  8  2  0  0  0
  7 26  1  0  0  0
  7 29  1  0  0  0
  8  9  1  0  0  0
  8 22  1  0  0  0
  9 10  1  0  0  0
  9 27  2  0  0  0
 10 11  2  0  0  0
 10 15  1  0  0  0
 11 12  1  0  0  0
 11 97  1  0  0  0
 12 13  2  0  0  0
 12 98  1  0  0  0
 13 14  1  0  0  0
 13 31  1  0  0  0
 14 15  2  0  0  0
 14 99  1  0  0  0
 15100  1  0  0  0
 16 17  2  0  0  0
 16 21  1  0  0  0
 16 31  1  0  0  0
 17 18  1  0  0  0
 17101  1  0  0  0
 18 19  2  0  0  0
 18102  1  0  0  0
 19 20  1  0  0  0
 19 24  1  0  0  0
 20 21  2  0  0  0
 20103  1  0  0  0
 21 23  1  0  0  0
 22 28  1  0  0  0
 22 32  2  0  0  0
 26 27  1  0  0  0
 28104  1  0  0  0
 28105  1  0  0  0
 29106  1  0  0  0
 29107  1  0  0  0
 33 34  1  0  0  0
 33 66  1  0  0  0
 33 70  2  0  0  0
 34 36  1  0  0  0
 34 59  1  0  0  0
 34108  1  0  0  0
 35 44  2  0  0  0
 35 45  1  0  0  0
 35 68  1  0  0  0
 36 56  1  0  0  0
 36109  1  0  0  0
 37 39  1  0  0  0
 37 47  1  0  0  0
 37 66  1  0  0  0
 37110  1  0  0  0
 38 43  2  0  0  0
 38 46  1  0  0  0
 38 47  1  0  0  0
 39 64  1  0  0  0
 39 67  2  0  0  0
 40 52  1  0  0  0
 40 53  2  0  0  0
 40 58  1  0  0  0
 41111  1  0  0  0
 41112  1  0  0  0
 41113  1  0  0  0
 41 48  1  0  0  0
 42 43  1  0  0  0
 42 66  1  0  0  0
 42114  1  0  0  0
 42115  1  0  0  0
 43 44  1  0  0  0
 44116  1  0  0  0
 45 46  2  0  0  0
 45117  1  0  0  0
 46118  1  0  0  0
 47119  1  0  0  0
 47120  1  0  0  0
 48 56  1  0  0  0
 48 65  1  0  0  0
 48121  1  0  0  0
 49 50  1  0  0  0
 49 53  1  0  0  0
 49 64  1  0  0  0
 49122  1  0  0  0
 50 51  1  0  0  0
 50123  1  0  0  0
 50124  1  0  0  0
 51 52  1  0  0  0
 51125  1  0  0  0
 51126  1  0  0  0
 52127  1  0  0  0
 52128  1  0  0  0
 53 54  1  0  0  0
 54 55  2  0  0  0
 54129  1  0  0  0
 55 57  1  0  0  0
 55130  1  0  0  0
 56 69  2  0  0  0
 57 58  2  0  0  0
 57131  1  0  0  0
 58132  1  0  0  0
 59 60  1  0  0  0
 59 61  1  0  0  0
 59 62  1  0  0  0
 60133  1  0  0  0
 60134  1  0  0  0
 60135  1  0  0  0
 61136  1  0  0  0
 61137  1  0  0  0
 61138  1  0  0  0
 62139  1  0  0  0
 62140  1  0  0  0
 62141  1  0  0  0
 63 65  1  0  0  0
 63142  1  0  0  0
 63143  1  0  0  0
 63144  1  0  0  0
 64145  1  0  0  0
 65146  1  0  0  0
 68 82  1  0  0  0
 71 72  1  0  0  0
 71 73  2  0  0  0
 71147  1  0  0  0
 72 80  1  0  0  0
 72 85  2  0  0  0
 73 83  1  0  0  0
 73 86  1  0  0  0
 74148  1  0  0  0
 74149  1  0  0  0
 74150  1  0  0  0
 74 83  1  0  0  0
 75 83  1  0  0  0
 75151  1  0  0  0
 75152  1  0  0  0
 75153  1  0  0  0
 76154  1  0  0  0
 76155  1  0  0  0
 76156  1  0  0  0
 76 84  1  0  0  0
 77 84  1  0  0  0
 77157  1  0  0  0
 77158  1  0  0  0
 77159  1  0  0  0
 78 86  1  0  0  0
 78160  1  0  0  0
 78161  1  0  0  0
 78162  1  0  0  0
 79 87  1  0  0  0
 79163  1  0  0  0
 79164  1  0  0  0
 79165  1  0  0  0
 80 82  1  0  0  0
 80166  1  0  0  0
 80167  1  0  0  0
 81 84  1  0  0  0
 81 87  1  0  0  0
 81168  1  0  0  0
 81169  1  0  0  0
 82170  1  0  0  0
 82171  1  0  0  0
 83 84  1  0  0  0
 85 86  1  0  0  0
M  ISO  4   1 100  68 101  82 101  87 100
M  END
> <chiral flag>
0

> <version>
0

> <s_m_source_file>
/data/baiqing/PycharmProjects/Reinvent-master-3.2/result/LINK_invent/BTK/process_docking_weight1_custom_sum_contain_oxygen_bond_distance_aromatic_linkinvent_7_9_3/rearranged_h_0059.sdf

> <i_m_source_file_index>
93

> <r_mmod_Potential_Energy-OPLS-2005>
217.424026489258

> <r_mmod_Stretch_Energy-OPLS-2005>
73.9357528686523

> <r_mmod_Bend_Energy-OPLS-2005>
164.169692993164

> <r_mmod_Torsional_Energy-OPLS-2005>
361.038787841797

> <r_mmod_Improper_Torsional_Energy-OPLS-2005>
4.59423112869263

> <r_mmod_Van_der_Waal_Energy-OPLS-2005>
136.714935302734

> <r_mmod_Electrostatic_Energy-OPLS-2005>
-346.873748779297

> <r_mmod_Solvation_Energy-OPLS-2005>
-196.86604309082

> <b_mmod_Minimization_Converged-OPLS-2005>
0

> <r_mmod_RMS_Derivative-OPLS-2005>
9.38986206054688

$$$$
95
                    3D
 Structure written by MMmdl.
159167  0  0  1  0            999 V2000
  -30.7162  -14.5639   20.4428 C   0  0  0  0  0  0
  -30.4198  -12.3229   19.4605 C   0  0  0  0  0  0
  -29.5031  -12.4037   18.2242 C   0  0  0  0  0  0
  -28.0173  -12.3140   18.6349 C   0  0  0  0  0  0
  -27.6419  -13.2080   19.8509 C   0  0  2  0  0  0
  -28.6957  -13.1278   20.9761 C   0  0  0  0  0  0
  -25.2543  -13.8145   20.5722 C   0  0  0  0  0  0
  -24.1798  -13.0432   20.9209 C   0  0  0  0  0  0
  -24.6358  -11.6900   20.8769 C   0  0  0  0  0  0
  -23.9037  -10.4285   21.0417 C   0  0  0  0  0  0
  -24.3594   -9.4202   21.9192 C   0  0  0  0  0  0
  -23.6275   -8.2235   22.0761 C   0  0  0  0  0  0
  -22.4266   -8.0273   21.3538 C   0  0  0  0  0  0
  -21.9898   -9.0240   20.4644 C   0  0  0  0  0  0
  -22.7218  -10.2124   20.3054 C   0  0  0  0  0  0
  -21.6856   -6.0723   22.5271 C   0  0  0  0  0  0
  -21.4022   -6.5634   23.8203 C   0  0  0  0  0  0
  -21.3665   -5.6781   24.9168 C   0  0  0  0  0  0
  -21.6051   -4.3044   24.7216 C   0  0  0  0  0  0
  -21.8816   -3.8140   23.4338 C   0  0  0  0  0  0
  -21.9189   -4.6954   22.3394 C   0  0  0  0  0  0
  -22.7825  -13.5239   21.1826 C   0  0  0  0  0  0
  -22.1649   -4.2138   21.0972 F   0  0  0  0  0  0
  -21.5630   -3.4525   25.7726 F   0  0  0  0  0  0
  -30.0099  -13.3973   20.3784 N   0  0  0  0  0  0
  -26.2943  -12.9299   20.3341 N   0  0  0  0  0  0
  -25.9289  -11.6477   20.5824 N   0  0  0  0  0  0
  -22.0445  -12.8261   22.0393 N   0  0  0  0  0  0
  -25.4297  -15.1863   20.4150 N   0  0  0  0  0  0
  -31.9330  -14.5813   20.2406 O   0  0  0  0  0  0
  -21.6642   -6.8863   21.4237 O   0  0  0  0  0  0
  -22.3520  -14.5534   20.6644 O   0  0  0  0  0  0
  -24.6182  -31.8671   23.2087 C   0  0  0  0  0  0
  -25.9067  -32.4816   23.8389 C   0  0  1  0  0  0
  -27.2198  -27.3981   20.0967 C   0  0  0  0  0  0
  -25.5907  -33.8613   24.2313 N   0  0  0  0  0  0
  -23.4054  -30.4950   21.5515 C   0  0  2  0  0  0
  -24.8475  -28.9619   20.1129 C   0  0  0  0  0  0
  -22.7425  -29.4674   22.4978 C   0  0  0  0  0  0
  -18.0278  -28.1372   22.8504 C   0  0  0  0  0  0
  -24.1484  -36.7321   23.2639 C   0  0  0  0  0  0
  -25.9395  -30.8246   21.3645 C   0  0  0  0  0  0
  -26.0138  -29.4581   20.7078 C   0  0  0  0  0  0
  -27.2043  -28.6866   20.6919 C   0  0  0  0  0  0
  -26.0280  -26.9344   19.4883 C   0  0  0  0  0  0
  -24.8515  -27.7015   19.4990 C   0  0  0  0  0  0
  -23.6130  -29.8336   20.1641 C   0  0  0  0  0  0
  -25.4102  -36.3106   24.0334 C   0  0  1  0  0  0
  -20.5872  -28.3669   23.1311 C   0  0  2  0  0  0
  -20.6761  -26.9402   22.5415 C   0  0  0  0  0  0
  -19.5739  -26.6382   21.5211 C   0  0  0  0  0  0
  -18.1919  -26.7919   22.1631 C   0  0  0  0  0  0
  -19.1528  -28.8834   23.2907 C   0  0  0  0  0  0
  -18.9454  -30.1434   23.8926 C   0  0  0  0  0  0
  -17.6457  -30.6584   24.0561 C   0  0  0  0  0  0
  -25.9039  -34.9472   23.5123 C   0  0  0  0  0  0
  -16.5348  -29.9089   23.6314 C   0  0  0  0  0  0
  -16.7264  -28.6496   23.0353 C   0  0  0  0  0  0
  -26.4470  -31.6598   25.0727 C   0  0  0  0  0  0
  -25.3725  -31.3726   26.1471 C   0  0  0  0  0  0
  -27.0295  -30.3033   24.6117 C   0  0  0  0  0  0
  -27.6039  -32.4318   25.7498 C   0  0  0  0  0  0
  -27.5575  -37.1813   24.8461 C   0  0  0  0  0  0
  -21.4149  -29.3040   22.3719 N   0  0  0  0  0  0
  -26.4287  -37.3788   23.9410 N   0  0  0  0  0  0
  -24.6731  -31.0766   22.1000 N   0  0  0  0  0  0
  -23.4192  -28.8203   23.3012 O   0  0  0  0  0  0
  -28.3673  -26.6176   20.1289 O   0  0  0  0  0  0
  -26.5606  -34.8926   22.4685 O   0  0  0  0  0  0
  -23.5371  -32.1433   23.7466 O   0  0  0  0  0  0
  -29.3690  -22.8891   20.3155 C   0  0  0  0  0  0
  -29.4210  -24.3070   20.2697 C   0  0  0  0  0  0
  -30.5971  -22.2089   20.3330 C   0  0  0  0  0  0
  -31.7032  -24.2135   20.3413 C   0  0  0  0  0  0
  -33.0270  -24.9451   20.3299 C   0  0  0  0  0  0
  -29.5438  -16.0900   19.0177 C   0  0  0  0  0  0
  -28.1700  -25.1755   20.0762 C   0  0  0  0  0  0
  -30.8217  -18.3969   20.5555 C   0  0  0  0  0  0
  -30.0862  -19.7423   20.8849 C   0  0  0  0  0  0
  -30.3810  -16.9927   21.1825 C   0  0  0  0  0  0
  -30.6038  -24.9527   20.2974 N   0  0  0  0  0  0
  -31.7513  -22.8843   20.3441 N   0  0  0  0  0  0
  -30.7845  -20.8271   20.1763 N   0  0  0  0  0  0
  -30.0155  -15.7506   20.3806 N   0  0  0  0  0  0
  -31.4664  -12.4001   19.1596 H   0  0  0  0  0  0
  -30.3224  -11.3538   19.9539 H   0  0  0  0  0  0
  -29.7425  -11.5848   17.5435 H   0  0  0  0  0  0
  -29.6959  -13.3151   17.6611 H   0  0  0  0  0  0
  -27.8200  -11.2693   18.8803 H   0  0  0  0  0  0
  -27.3769  -12.5440   17.7821 H   0  0  0  0  0  0
  -27.6207  -14.2308   19.4900 H   0  0  0  0  0  0
  -28.6906  -12.1441   21.4468 H   0  0  0  0  0  0
  -28.4727  -13.8519   21.7617 H   0  0  0  0  0  0
  -25.2731   -9.5691   22.4770 H   0  0  0  0  0  0
  -23.9985   -7.4639   22.7498 H   0  0  0  0  0  0
  -21.0818   -8.8762   19.8950 H   0  0  0  0  0  0
  -22.3674  -10.9663   19.6165 H   0  0  0  0  0  0
  -21.2026   -7.6146   23.9703 H   0  0  0  0  0  0
  -21.1493   -6.0513   25.9063 H   0  0  0  0  0  0
  -22.0597   -2.7603   23.2834 H   0  0  0  0  0  0
  -22.4062  -11.9956   22.4833 H   0  0  0  0  0  0
  -21.1062  -13.1328   22.2561 H   0  0  0  0  0  0
  -24.6739  -15.8515   20.5373 H   0  0  0  0  0  0
  -26.3017  -15.6202   20.1374 H   0  0  0  0  0  0
  -26.7141  -32.5520   23.1159 H   0  0  0  0  0  0
  -25.0018  -33.9755   25.0434 H   0  0  0  0  0  0
  -22.6955  -31.3130   21.4154 H   0  0  0  0  0  0
  -23.3729  -35.9672   23.3304 H   0  0  0  0  0  0
  -24.3580  -36.8933   22.2054 H   0  0  0  0  0  0
  -23.7247  -37.6532   23.6652 H   0  0  0  0  0  0
  -26.0558  -31.5902   20.5959 H   0  0  0  0  0  0
  -26.8275  -30.8759   21.9830 H   0  0  0  0  0  0
  -28.1030  -29.0656   21.1567 H   0  0  0  0  0  0
  -25.9698  -25.9772   18.9941 H   0  0  0  0  0  0
  -23.9542  -27.3150   19.0335 H   0  0  0  0  0  0
  -23.7241  -30.6119   19.4082 H   0  0  0  0  0  0
  -22.7340  -29.2591   19.8664 H   0  0  0  0  0  0
  -25.1275  -36.1968   25.0826 H   0  0  0  0  0  0
  -20.9977  -28.3224   24.1426 H   0  0  0  0  0  0
  -20.5652  -26.2277   23.3602 H   0  0  0  0  0  0
  -21.6628  -26.7426   22.1211 H   0  0  0  0  0  0
  -19.6892  -25.6295   21.1229 H   0  0  0  0  0  0
  -19.6666  -27.3200   20.6747 H   0  0  0  0  0  0
  -17.4182  -26.6671   21.4032 H   0  0  0  0  0  0
  -18.0324  -26.0053   22.9025 H   0  0  0  0  0  0
  -19.7926  -30.7233   24.2321 H   0  0  0  0  0  0
  -17.5012  -31.6265   24.5155 H   0  0  0  0  0  0
  -15.5350  -30.3001   23.7605 H   0  0  0  0  0  0
  -15.8668  -28.0815   22.7063 H   0  0  0  0  0  0
  -24.5891  -30.7076   25.7813 H   0  0  0  0  0  0
  -24.8927  -32.2898   26.4904 H   0  0  0  0  0  0
  -25.8070  -30.8905   27.0241 H   0  0  0  0  0  0
  -26.2848  -29.6812   24.1138 H   0  0  0  0  0  0
  -27.4019  -29.7246   25.4582 H   0  0  0  0  0  0
  -27.8705  -30.4334   23.9299 H   0  0  0  0  0  0
  -27.2647  -33.3608   26.2096 H   0  0  0  0  0  0
  -28.3849  -32.6894   25.0333 H   0  0  0  0  0  0
  -28.0712  -31.8433   26.5408 H   0  0  0  0  0  0
  -28.2593  -38.0108   24.7495 H   0  0  0  0  0  0
  -28.1065  -36.2638   24.6292 H   0  0  0  0  0  0
  -27.2302  -37.1474   25.8866 H   0  0  0  0  0  0
  -20.9300  -29.8796   21.6981 H   0  0  0  0  0  0
  -26.0174  -38.2869   24.1392 H   0  0  0  0  0  0
  -28.4272  -22.3627   20.2517 H   0  0  0  0  0  0
  -32.8900  -26.0221   20.4323 H   0  0  0  0  0  0
  -33.5526  -24.7604   19.3932 H   0  0  0  0  0  0
  -33.6590  -24.6074   21.1506 H   0  0  0  0  0  0
  -28.7402  -16.8269   19.0168 H   0  0  0  0  0  0
  -29.1643  -15.2391   18.4625 H   0  0  0  0  0  0
  -30.3642  -16.4795   18.4152 H   0  0  0  0  0  0
  -27.4320  -24.8765   20.8213 H   0  0  0  0  0  0
  -27.7797  -24.8952   19.0977 H   0  0  0  0  0  0
  -31.8593  -18.6074   20.8497 H   0  0  0  0  0  0
  -30.8564  -18.3345   19.4655 H   0  0  0  0  0  0
  -30.1012  -19.9336   21.9597 H   0  0  0  0  0  0
  -29.0420  -19.7040   20.5701 H   0  0  0  0  0  0
  -29.3804  -17.3628   20.9684 H   0  0  0  0  0  0
  -31.3443  -16.8124   20.7122 H   0  0  0  0  0  0
  -31.7618  -20.6210   20.0055 H   0  0  0  0  0  0
  1 25  1  0  0  0
  1 30  2  0  0  0
  1 84  1  0  0  0
  2  3  1  0  0  0
  2 25  1  0  0  0
  2 85  1  0  0  0
  2 86  1  0  0  0
  3  4  1  0  0  0
  3 87  1  0  0  0
  3 88  1  0  0  0
  4  5  1  0  0  0
  4 89  1  0  0  0
  4 90  1  0  0  0
  5  6  1  0  0  0
  5 26  1  0  0  0
  5 91  1  0  0  0
  6 25  1  0  0  0
  6 92  1  0  0  0
  6 93  1  0  0  0
  7  8  2  0  0  0
  7 26  1  0  0  0
  7 29  1  0  0  0
  8  9  1  0  0  0
  8 22  1  0  0  0
  9 10  1  0  0  0
  9 27  2  0  0  0
 10 11  2  0  0  0
 10 15  1  0  0  0
 11 12  1  0  0  0
 11 94  1  0  0  0
 12 13  2  0  0  0
 12 95  1  0  0  0
 13 14  1  0  0  0
 13 31  1  0  0  0
 14 15  2  0  0  0
 14 96  1  0  0  0
 15 97  1  0  0  0
 16 17  2  0  0  0
 16 21  1  0  0  0
 16 31  1  0  0  0
 17 18  1  0  0  0
 17 98  1  0  0  0
 18 19  2  0  0  0
 18 99  1  0  0  0
 19 20  1  0  0  0
 19 24  1  0  0  0
 20 21  2  0  0  0
 20100  1  0  0  0
 21 23  1  0  0  0
 22 28  1  0  0  0
 22 32  2  0  0  0
 26 27  1  0  0  0
 28101  1  0  0  0
 28102  1  0  0  0
 29103  1  0  0  0
 29104  1  0  0  0
 33 34  1  0  0  0
 33 66  1  0  0  0
 33 70  2  0  0  0
 34 36  1  0  0  0
 34 59  1  0  0  0
 34105  1  0  0  0
 35 44  2  0  0  0
 35 45  1  0  0  0
 35 68  1  0  0  0
 36 56  1  0  0  0
 36106  1  0  0  0
 37 39  1  0  0  0
 37 47  1  0  0  0
 37 66  1  0  0  0
 37107  1  0  0  0
 38 43  2  0  0  0
 38 46  1  0  0  0
 38 47  1  0  0  0
 39 64  1  0  0  0
 39 67  2  0  0  0
 40 52  1  0  0  0
 40 53  2  0  0  0
 40 58  1  0  0  0
 41108  1  0  0  0
 41109  1  0  0  0
 41110  1  0  0  0
 41 48  1  0  0  0
 42 43  1  0  0  0
 42 66  1  0  0  0
 42111  1  0  0  0
 42112  1  0  0  0
 43 44  1  0  0  0
 44113  1  0  0  0
 45 46  2  0  0  0
 45114  1  0  0  0
 46115  1  0  0  0
 47116  1  0  0  0
 47117  1  0  0  0
 48 56  1  0  0  0
 48 65  1  0  0  0
 48118  1  0  0  0
 49 50  1  0  0  0
 49 53  1  0  0  0
 49 64  1  0  0  0
 49119  1  0  0  0
 50 51  1  0  0  0
 50120  1  0  0  0
 50121  1  0  0  0
 51 52  1  0  0  0
 51122  1  0  0  0
 51123  1  0  0  0
 52124  1  0  0  0
 52125  1  0  0  0
 53 54  1  0  0  0
 54 55  2  0  0  0
 54126  1  0  0  0
 55 57  1  0  0  0
 55127  1  0  0  0
 56 69  2  0  0  0
 57 58  2  0  0  0
 57128  1  0  0  0
 58129  1  0  0  0
 59 60  1  0  0  0
 59 61  1  0  0  0
 59 62  1  0  0  0
 60130  1  0  0  0
 60131  1  0  0  0
 60132  1  0  0  0
 61133  1  0  0  0
 61134  1  0  0  0
 61135  1  0  0  0
 62136  1  0  0  0
 62137  1  0  0  0
 62138  1  0  0  0
 63 65  1  0  0  0
 63139  1  0  0  0
 63140  1  0  0  0
 63141  1  0  0  0
 64142  1  0  0  0
 65143  1  0  0  0
 68 77  1  0  0  0
 71 72  2  0  0  0
 71 73  1  0  0  0
 71144  1  0  0  0
 72 77  1  0  0  0
 72 81  1  0  0  0
 73 82  2  0  0  0
 73 83  1  0  0  0
 74 75  1  0  0  0
 74 81  2  0  0  0
 74 82  1  0  0  0
 75145  1  0  0  0
 75146  1  0  0  0
 75147  1  0  0  0
 76 84  1  0  0  0
 76148  1  0  0  0
 76149  1  0  0  0
 76150  1  0  0  0
 77151  1  0  0  0
 77152  1  0  0  0
 78 79  1  0  0  0
 78 80  1  0  0  0
 78153  1  0  0  0
 78154  1  0  0  0
 79 83  1  0  0  0
 79155  1  0  0  0
 79156  1  0  0  0
 80 84  1  0  0  0
 80157  1  0  0  0
 80158  1  0  0  0
 83159  1  0  0  0
M  ISO  4   1 100  68 101  77 101  84 100
M  END
> <chiral flag>
0

> <version>
0

> <s_m_source_file>
/data/baiqing/PycharmProjects/Reinvent-master-3.2/result/LINK_invent/BTK/process_docking_weight1_custom_sum_contain_oxygen_bond_distance_aromatic_linkinvent_7_9_3/rearranged_h_0059.sdf

> <i_m_source_file_index>
94

> <r_mmod_Potential_Energy-OPLS-2005>
-52.7604293823242

> <r_mmod_Stretch_Energy-OPLS-2005>
58.0012512207031

> <r_mmod_Bend_Energy-OPLS-2005>
366.633697509766

> <r_mmod_Torsional_Energy-OPLS-2005>
309.59912109375

> <r_mmod_Improper_Torsional_Energy-OPLS-2005>
15.8507032394409

> <r_mmod_Van_der_Waal_Energy-OPLS-2005>
194.385986328125

> <r_mmod_Electrostatic_Energy-OPLS-2005>
-803.040832519531

> <r_mmod_Solvation_Energy-OPLS-2005>
-233.29670715332

> <b_mmod_Minimization_Converged-OPLS-2005>
0

> <r_mmod_RMS_Derivative-OPLS-2005>
1.86013352870941

$$$$
96
                    3D
 Structure written by MMmdl.
171179  0  0  1  0            999 V2000
  -30.6661  -14.5745   20.3799 C   0  0  0  0  0  0
  -30.4180  -12.3191   19.4392 C   0  0  0  0  0  0
  -29.4819  -12.4132   18.2118 C   0  0  0  0  0  0
  -28.0092  -12.2923   18.6429 C   0  0  0  0  0  0
  -27.6409  -13.2102   19.8409 C   0  0  2  0  0  0
  -28.6937  -13.1297   20.9657 C   0  0  0  0  0  0
  -25.2541  -13.8205   20.5699 C   0  0  0  0  0  0
  -24.1790  -13.0474   20.9215 C   0  0  0  0  0  0
  -24.6348  -11.6948   20.8766 C   0  0  0  0  0  0
  -23.9032  -10.4327   21.0424 C   0  0  0  0  0  0
  -24.3603   -9.4250   21.9196 C   0  0  0  0  0  0
  -23.6282   -8.2280   22.0775 C   0  0  0  0  0  0
  -22.4271   -8.0312   21.3564 C   0  0  0  0  0  0
  -21.9893   -9.0287   20.4661 C   0  0  0  0  0  0
  -22.7220  -10.2171   20.3064 C   0  0  0  0  0  0
  -21.6865   -6.0726   22.5276 C   0  0  0  0  0  0
  -21.4024   -6.5630   23.8205 C   0  0  0  0  0  0
  -21.3653   -5.6793   24.9170 C   0  0  0  0  0  0
  -21.6038   -4.3056   24.7232 C   0  0  0  0  0  0
  -21.8823   -3.8137   23.4359 C   0  0  0  0  0  0
  -21.9206   -4.6949   22.3409 C   0  0  0  0  0  0
  -22.7817  -13.5282   21.1864 C   0  0  0  0  0  0
  -22.1672   -4.2118   21.0992 F   0  0  0  0  0  0
  -21.5627   -3.4550   25.7752 F   0  0  0  0  0  0
  -30.0093  -13.3828   20.3679 N   0  0  0  0  0  0
  -26.2926  -12.9352   20.3290 N   0  0  0  0  0  0
  -25.9272  -11.6526   20.5820 N   0  0  0  0  0  0
  -22.0441  -12.8280   22.0418 N   0  0  0  0  0  0
  -25.4296  -15.1901   20.4126 N   0  0  0  0  0  0
  -31.8954  -14.6433   20.3125 O   0  0  0  0  0  0
  -21.6661   -6.8884   21.4250 O   0  0  0  0  0  0
  -22.3521  -14.5597   20.6724 O   0  0  0  0  0  0
  -24.6206  -31.8662   23.2085 C   0  0  0  0  0  0
  -25.9074  -32.4826   23.8418 C   0  0  1  0  0  0
  -27.2367  -27.3765   20.0964 C   0  0  0  0  0  0
  -25.5922  -33.8632   24.2351 N   0  0  0  0  0  0
  -23.4119  -30.4894   21.5496 C   0  0  2  0  0  0
  -24.8554  -28.9411   20.1196 C   0  0  0  0  0  0
  -22.7443  -29.4681   22.4986 C   0  0  0  0  0  0
  -18.0282  -28.1376   22.8490 C   0  0  0  0  0  0
  -24.1489  -36.7309   23.2640 C   0  0  0  0  0  0
  -25.9454  -30.8122   21.3675 C   0  0  0  0  0  0
  -26.0185  -29.4397   20.7168 C   0  0  0  0  0  0
  -27.2050  -28.6633   20.7026 C   0  0  0  0  0  0
  -26.0459  -26.9046   19.5005 C   0  0  0  0  0  0
  -24.8659  -27.6745   19.5112 C   0  0  0  0  0  0
  -23.6233  -29.8166   20.1667 C   0  0  0  0  0  0
  -25.4117  -36.3129   24.0352 C   0  0  1  0  0  0
  -20.5880  -28.3694   23.1285 C   0  0  2  0  0  0
  -20.6776  -26.9424   22.5409 C   0  0  0  0  0  0
  -19.5755  -26.6385   21.5209 C   0  0  0  0  0  0
  -18.1924  -26.7933   22.1607 C   0  0  0  0  0  0
  -19.1535  -28.8857   23.2872 C   0  0  0  0  0  0
  -18.9467  -30.1467   23.8879 C   0  0  0  0  0  0
  -17.6467  -30.6589   24.0562 C   0  0  0  0  0  0
  -25.9048  -34.9489   23.5150 C   0  0  0  0  0  0
  -16.5356  -29.9090   23.6323 C   0  0  0  0  0  0
  -16.7276  -28.6496   23.0362 C   0  0  0  0  0  0
  -26.4480  -31.6624   25.0766 C   0  0  0  0  0  0
  -25.3733  -31.3754   26.1505 C   0  0  0  0  0  0
  -27.0318  -30.3068   24.6167 C   0  0  0  0  0  0
  -27.6050  -32.4347   25.7535 C   0  0  0  0  0  0
  -27.5594  -37.1830   24.8472 C   0  0  0  0  0  0
  -21.4172  -29.3064   22.3694 N   0  0  0  0  0  0
  -26.4299  -37.3818   23.9425 N   0  0  0  0  0  0
  -24.6781  -31.0718   22.1002 N   0  0  0  0  0  0
  -23.4182  -28.8226   23.3059 O   0  0  0  0  0  0
  -28.4188  -26.6413   20.1509 O   0  0  0  0  0  0
  -26.5589  -34.8934   22.4699 O   0  0  0  0  0  0
  -23.5385  -32.1446   23.7444 O   0  0  0  0  0  0
  -27.2731  -21.0241   20.6545 C   0  0  0  0  0  0
  -28.3855  -19.2528   20.1126 C   0  0  0  0  0  0
  -28.9603  -20.3450   19.4688 C   0  0  0  0  0  0
  -26.9831  -21.6230   16.9634 C   0  0  0  0  0  0
  -30.1998  -25.2196   19.7409 C   0  0  0  0  0  0
  -28.5955  -25.6859   17.9126 C   0  0  0  0  0  0
  -30.2896  -15.8244   18.3899 C   0  0  0  0  0  0
  -28.5481  -17.7532   19.8224 C   0  0  0  0  0  0
  -26.9376  -22.7623   17.9940 C   0  0  0  0  0  0
  -27.9649  -24.0852   19.9369 C   0  0  0  0  0  0
  -29.6967  -16.9074   20.4939 C   0  0  0  0  0  0
  -28.0950  -22.7878   19.0333 C   0  0  1  0  0  0
  -30.1345  -20.3584   18.5298 C   0  0  0  0  0  0
  -28.7001  -25.4025   19.4292 C   0  0  0  0  0  0
  -27.3530  -19.7199   20.9298 N   0  0  0  0  0  0
  -28.1405  -21.4699   19.7324 N   0  0  0  0  0  0
  -29.9540  -15.5978   19.8126 N   0  0  0  0  0  0
  -30.9062  -19.2843   18.6912 F   0  0  0  0  0  0
  -29.7558  -20.3695   17.2552 F   0  0  0  0  0  0
  -30.9187  -21.4162   18.7315 F   0  0  0  0  0  0
  -31.4610  -12.4210   19.1310 H   0  0  0  0  0  0
  -30.3300  -11.3414   19.9178 H   0  0  0  0  0  0
  -29.7224  -11.6298   17.4924 H   0  0  0  0  0  0
  -29.6217  -13.3481   17.6782 H   0  0  0  0  0  0
  -27.8456  -11.2497   18.9169 H   0  0  0  0  0  0
  -27.3484  -12.4926   17.7992 H   0  0  0  0  0  0
  -27.6416  -14.2275   19.4509 H   0  0  0  0  0  0
  -28.6785  -12.1522   21.4499 H   0  0  0  0  0  0
  -28.4737  -13.8680   21.7401 H   0  0  0  0  0  0
  -25.2751   -9.5738   22.4766 H   0  0  0  0  0  0
  -23.9979   -7.4683   22.7511 H   0  0  0  0  0  0
  -21.0812   -8.8850   19.8965 H   0  0  0  0  0  0
  -22.3697  -10.9732   19.6181 H   0  0  0  0  0  0
  -21.2026   -7.6138   23.9693 H   0  0  0  0  0  0
  -21.1456   -6.0527   25.9066 H   0  0  0  0  0  0
  -22.0594   -2.7592   23.2887 H   0  0  0  0  0  0
  -22.4043  -11.9921   22.4779 H   0  0  0  0  0  0
  -21.1074  -13.1341   22.2646 H   0  0  0  0  0  0
  -24.6741  -15.8549   20.5346 H   0  0  0  0  0  0
  -26.2949  -15.6235   20.1201 H   0  0  0  0  0  0
  -26.7158  -32.5532   23.1201 H   0  0  0  0  0  0
  -25.0138  -33.9803   25.0541 H   0  0  0  0  0  0
  -22.7052  -31.3097   21.4056 H   0  0  0  0  0  0
  -23.3768  -35.9618   23.3294 H   0  0  0  0  0  0
  -24.3584  -36.8924   22.2053 H   0  0  0  0  0  0
  -23.7195  -37.6503   23.6643 H   0  0  0  0  0  0
  -26.0593  -31.5683   20.5888 H   0  0  0  0  0  0
  -26.8338  -30.8779   21.9838 H   0  0  0  0  0  0
  -28.1012  -29.0435   21.1719 H   0  0  0  0  0  0
  -25.9982  -25.9348   19.0334 H   0  0  0  0  0  0
  -23.9663  -27.2804   19.0580 H   0  0  0  0  0  0
  -23.7508  -30.5899   19.4087 H   0  0  0  0  0  0
  -22.7434  -29.2467   19.8606 H   0  0  0  0  0  0
  -25.1284  -36.2019   25.0846 H   0  0  0  0  0  0
  -20.9973  -28.3264   24.1408 H   0  0  0  0  0  0
  -20.5681  -26.2320   23.3607 H   0  0  0  0  0  0
  -21.6643  -26.7456   22.1210 H   0  0  0  0  0  0
  -19.6921  -25.6296   21.1241 H   0  0  0  0  0  0
  -19.6680  -27.3189   20.6731 H   0  0  0  0  0  0
  -17.4211  -26.6706   21.3984 H   0  0  0  0  0  0
  -18.0296  -26.0058   22.8984 H   0  0  0  0  0  0
  -19.7944  -30.7284   24.2223 H   0  0  0  0  0  0
  -17.5029  -31.6269   24.5166 H   0  0  0  0  0  0
  -15.5364  -30.3003   23.7644 H   0  0  0  0  0  0
  -15.8666  -28.0808   22.7108 H   0  0  0  0  0  0
  -24.5899  -30.7106   25.7847 H   0  0  0  0  0  0
  -24.8930  -32.2922   26.4942 H   0  0  0  0  0  0
  -25.8076  -30.8940   27.0277 H   0  0  0  0  0  0
  -26.2894  -29.6855   24.1143 H   0  0  0  0  0  0
  -27.3998  -29.7288   25.4654 H   0  0  0  0  0  0
  -27.8764  -30.4394   23.9399 H   0  0  0  0  0  0
  -27.2663  -33.3632   26.2148 H   0  0  0  0  0  0
  -28.3842  -32.6934   25.0354 H   0  0  0  0  0  0
  -28.0738  -31.8456   26.5429 H   0  0  0  0  0  0
  -28.2619  -38.0125   24.7532 H   0  0  0  0  0  0
  -28.1089  -36.2662   24.6288 H   0  0  0  0  0  0
  -27.2320  -37.1469   25.8877 H   0  0  0  0  0  0
  -20.9356  -29.8807   21.6912 H   0  0  0  0  0  0
  -26.0196  -38.2900   24.1438 H   0  0  0  0  0  0
  -26.4961  -21.6516   21.0669 H   0  0  0  0  0  0
  -26.1504  -21.7122   16.2650 H   0  0  0  0  0  0
  -26.9132  -20.6386   17.4262 H   0  0  0  0  0  0
  -27.8971  -21.6627   16.3725 H   0  0  0  0  0  0
  -30.6353  -24.3838   19.1915 H   0  0  0  0  0  0
  -30.3705  -25.0336   20.8010 H   0  0  0  0  0  0
  -30.7752  -26.1098   19.4797 H   0  0  0  0  0  0
  -27.5784  -25.8532   17.5679 H   0  0  0  0  0  0
  -29.0044  -24.8676   17.3206 H   0  0  0  0  0  0
  -29.1675  -26.5762   17.6432 H   0  0  0  0  0  0
  -29.3868  -15.8243   17.7792 H   0  0  0  0  0  0
  -30.9498  -15.0653   17.9629 H   0  0  0  0  0  0
  -30.8092  -16.7701   18.2402 H   0  0  0  0  0  0
  -28.6124  -17.6768   18.7389 H   0  0  0  0  0  0
  -27.6088  -17.2506   20.0536 H   0  0  0  0  0  0
  -25.9822  -22.7042   18.5182 H   0  0  0  0  0  0
  -26.9007  -23.6978   17.4409 H   0  0  0  0  0  0
  -28.3404  -23.8553   20.9353 H   0  0  0  0  0  0
  -26.9087  -24.2853   20.1087 H   0  0  0  0  0  0
  -29.4571  -16.7357   21.5428 H   0  0  0  0  0  0
  -30.6262  -17.4757   20.4935 H   0  0  0  0  0  0
  -29.0280  -22.8712   18.4831 H   0  0  0  0  0  0
  1 25  1  0  0  0
  1 30  2  0  0  0
  1 87  1  0  0  0
  2  3  1  0  0  0
  2 25  1  0  0  0
  2 91  1  0  0  0
  2 92  1  0  0  0
  3  4  1  0  0  0
  3 93  1  0  0  0
  3 94  1  0  0  0
  4  5  1  0  0  0
  4 95  1  0  0  0
  4 96  1  0  0  0
  5  6  1  0  0  0
  5 26  1  0  0  0
  5 97  1  0  0  0
  6 25  1  0  0  0
  6 98  1  0  0  0
  6 99  1  0  0  0
  7  8  2  0  0  0
  7 26  1  0  0  0
  7 29  1  0  0  0
  8  9  1  0  0  0
  8 22  1  0  0  0
  9 10  1  0  0  0
  9 27  2  0  0  0
 10 11  2  0  0  0
 10 15  1  0  0  0
 11 12  1  0  0  0
 11100  1  0  0  0
 12 13  2  0  0  0
 12101  1  0  0  0
 13 14  1  0  0  0
 13 31  1  0  0  0
 14 15  2  0  0  0
 14102  1  0  0  0
 15103  1  0  0  0
 16 17  2  0  0  0
 16 21  1  0  0  0
 16 31  1  0  0  0
 17 18  1  0  0  0
 17104  1  0  0  0
 18 19  2  0  0  0
 18105  1  0  0  0
 19 20  1  0  0  0
 19 24  1  0  0  0
 20 21  2  0  0  0
 20106  1  0  0  0
 21 23  1  0  0  0
 22 28  1  0  0  0
 22 32  2  0  0  0
 26 27  1  0  0  0
 28107  1  0  0  0
 28108  1  0  0  0
 29109  1  0  0  0
 29110  1  0  0  0
 33 34  1  0  0  0
 33 66  1  0  0  0
 33 70  2  0  0  0
 34 36  1  0  0  0
 34 59  1  0  0  0
 34111  1  0  0  0
 35 44  2  0  0  0
 35 45  1  0  0  0
 35 68  1  0  0  0
 36 56  1  0  0  0
 36112  1  0  0  0
 37 39  1  0  0  0
 37 47  1  0  0  0
 37 66  1  0  0  0
 37113  1  0  0  0
 38 43  2  0  0  0
 38 46  1  0  0  0
 38 47  1  0  0  0
 39 64  1  0  0  0
 39 67  2  0  0  0
 40 52  1  0  0  0
 40 53  2  0  0  0
 40 58  1  0  0  0
 41114  1  0  0  0
 41115  1  0  0  0
 41116  1  0  0  0
 41 48  1  0  0  0
 42 43  1  0  0  0
 42 66  1  0  0  0
 42117  1  0  0  0
 42118  1  0  0  0
 43 44  1  0  0  0
 44119  1  0  0  0
 45 46  2  0  0  0
 45120  1  0  0  0
 46121  1  0  0  0
 47122  1  0  0  0
 47123  1  0  0  0
 48 56  1  0  0  0
 48 65  1  0  0  0
 48124  1  0  0  0
 49 50  1  0  0  0
 49 53  1  0  0  0
 49 64  1  0  0  0
 49125  1  0  0  0
 50 51  1  0  0  0
 50126  1  0  0  0
 50127  1  0  0  0
 51 52  1  0  0  0
 51128  1  0  0  0
 51129  1  0  0  0
 52130  1  0  0  0
 52131  1  0  0  0
 53 54  1  0  0  0
 54 55  2  0  0  0
 54132  1  0  0  0
 55 57  1  0  0  0
 55133  1  0  0  0
 56 69  2  0  0  0
 57 58  2  0  0  0
 57134  1  0  0  0
 58135  1  0  0  0
 59 60  1  0  0  0
 59 61  1  0  0  0
 59 62  1  0  0  0
 60136  1  0  0  0
 60137  1  0  0  0
 60138  1  0  0  0
 61139  1  0  0  0
 61140  1  0  0  0
 61141  1  0  0  0
 62142  1  0  0  0
 62143  1  0  0  0
 62144  1  0  0  0
 63 65  1  0  0  0
 63145  1  0  0  0
 63146  1  0  0  0
 63147  1  0  0  0
 64148  1  0  0  0
 65149  1  0  0  0
 68 84  1  0  0  0
 71 85  2  0  0  0
 71 86  1  0  0  0
 71150  1  0  0  0
 72 73  2  0  0  0
 72 78  1  0  0  0
 72 85  1  0  0  0
 73 83  1  0  0  0
 73 86  1  0  0  0
 74 79  1  0  0  0
 74151  1  0  0  0
 74152  1  0  0  0
 74153  1  0  0  0
 75154  1  0  0  0
 75155  1  0  0  0
 75156  1  0  0  0
 75 84  1  0  0  0
 76 84  1  0  0  0
 76157  1  0  0  0
 76158  1  0  0  0
 76159  1  0  0  0
 77 87  1  0  0  0
 77160  1  0  0  0
 77161  1  0  0  0
 77162  1  0  0  0
 78 81  1  0  0  0
 78163  1  0  0  0
 78164  1  0  0  0
 79165  1  0  0  0
 79166  1  0  0  0
 79 82  1  0  0  0
 80 82  1  0  0  0
 80 84  1  0  0  0
 80167  1  0  0  0
 80168  1  0  0  0
 81 87  1  0  0  0
 81169  1  0  0  0
 81170  1  0  0  0
 82 86  1  0  0  0
 82171  1  0  0  0
 83 88  1  0  0  0
 83 89  1  0  0  0
 83 90  1  0  0  0
M  ISO  4   1 100  68 101  84 101  87 100
M  END
> <chiral flag>
0

> <version>
0

> <s_m_source_file>
/data/baiqing/PycharmProjects/Reinvent-master-3.2/result/LINK_invent/BTK/process_docking_weight1_custom_sum_contain_oxygen_bond_distance_aromatic_linkinvent_7_9_3/rearranged_h_0059.sdf

> <i_m_source_file_index>
95

> <r_mmod_Potential_Energy-OPLS-2005>
291.362243652344

> <r_mmod_Stretch_Energy-OPLS-2005>
63.8227996826172

> <r_mmod_Bend_Energy-OPLS-2005>
164.426239013672

> <r_mmod_Torsional_Energy-OPLS-2005>
344.133758544922

> <r_mmod_Improper_Torsional_Energy-OPLS-2005>
29.8383541107178

> <r_mmod_Van_der_Waal_Energy-OPLS-2005>
124.007797241211

> <r_mmod_Electrostatic_Energy-OPLS-2005>
-287.830383300781

> <r_mmod_Solvation_Energy-OPLS-2005>
-193.045944213867

> <b_mmod_Minimization_Converged-OPLS-2005>
0

> <r_mmod_RMS_Derivative-OPLS-2005>
2.9400417804718

$$$$
97
                    3D
 Structure written by MMmdl.
159167  0  0  1  0            999 V2000
  -30.6072  -14.8071   20.3759 C   0  0  0  0  0  0
  -30.4372  -12.4781   19.4723 C   0  0  0  0  0  0
  -29.5085  -12.4263   18.2390 C   0  0  0  0  0  0
  -28.0349  -12.2593   18.6659 C   0  0  0  0  0  0
  -27.6230  -13.1931   19.8337 C   0  0  2  0  0  0
  -28.6809  -13.2337   20.9578 C   0  0  0  0  0  0
  -25.2504  -13.8076   20.5760 C   0  0  0  0  0  0
  -24.1758  -13.0377   20.9251 C   0  0  0  0  0  0
  -24.6311  -11.6843   20.8801 C   0  0  0  0  0  0
  -23.9000  -10.4245   21.0446 C   0  0  0  0  0  0
  -24.3573   -9.4168   21.9217 C   0  0  0  0  0  0
  -23.6259   -8.2199   22.0762 C   0  0  0  0  0  0
  -22.4250   -8.0243   21.3541 C   0  0  0  0  0  0
  -21.9872   -9.0215   20.4653 C   0  0  0  0  0  0
  -22.7188  -10.2101   20.3080 C   0  0  0  0  0  0
  -21.6830   -6.0719   22.5284 C   0  0  0  0  0  0
  -21.4003   -6.5636   23.8217 C   0  0  0  0  0  0
  -21.3656   -5.6791   24.9183 C   0  0  0  0  0  0
  -21.6043   -4.3052   24.7232 C   0  0  0  0  0  0
  -21.8814   -3.8137   23.4351 C   0  0  0  0  0  0
  -21.9181   -4.6951   22.3405 C   0  0  0  0  0  0
  -22.7797  -13.5211   21.1886 C   0  0  0  0  0  0
  -22.1652   -4.2141   21.0978 F   0  0  0  0  0  0
  -21.5629   -3.4537   25.7744 F   0  0  0  0  0  0
  -29.9671  -13.5818   20.3398 N   0  0  0  0  0  0
  -26.2856  -12.9179   20.3321 N   0  0  0  0  0  0
  -25.9222  -11.6378   20.5824 N   0  0  0  0  0  0
  -22.0414  -12.8233   22.0438 N   0  0  0  0  0  0
  -25.4258  -15.1806   20.4213 N   0  0  0  0  0  0
  -31.8350  -14.8461   20.2625 O   0  0  0  0  0  0
  -21.6610   -6.8846   21.4239 O   0  0  0  0  0  0
  -22.3512  -14.5517   20.6707 O   0  0  0  0  0  0
  -24.6290  -31.8558   23.1991 C   0  0  0  0  0  0
  -25.9120  -32.4762   23.8337 C   0  0  1  0  0  0
  -27.2257  -27.2752   20.1278 C   0  0  0  0  0  0
  -25.5916  -33.8566   24.2256 N   0  0  0  0  0  0
  -23.4258  -30.4774   21.5418 C   0  0  2  0  0  0
  -24.8737  -28.9260   20.1093 C   0  0  0  0  0  0
  -22.7495  -29.4592   22.4911 C   0  0  0  0  0  0
  -18.0287  -28.1392   22.8484 C   0  0  0  0  0  0
  -24.1487  -36.7295   23.2639 C   0  0  0  0  0  0
  -25.9692  -30.7732   21.3767 C   0  0  0  0  0  0
  -26.0418  -29.3958   20.7213 C   0  0  0  0  0  0
  -27.2169  -28.5809   20.7214 C   0  0  0  0  0  0
  -26.0372  -26.8751   19.4744 C   0  0  0  0  0  0
  -24.8757  -27.6743   19.4759 C   0  0  0  0  0  0
  -23.6447  -29.8123   20.1573 C   0  0  0  0  0  0
  -25.4113  -36.3074   24.0324 C   0  0  1  0  0  0
  -20.5890  -28.3694   23.1272 C   0  0  2  0  0  0
  -20.6773  -26.9411   22.5409 C   0  0  0  0  0  0
  -19.5751  -26.6390   21.5210 C   0  0  0  0  0  0
  -18.1934  -26.7934   22.1622 C   0  0  0  0  0  0
  -19.1541  -28.8863   23.2875 C   0  0  0  0  0  0
  -18.9460  -30.1463   23.8897 C   0  0  0  0  0  0
  -17.6459  -30.6592   24.0567 C   0  0  0  0  0  0
  -25.9051  -34.9445   23.5098 C   0  0  0  0  0  0
  -16.5351  -29.9093   23.6330 C   0  0  0  0  0  0
  -16.7272  -28.6512   23.0349 C   0  0  0  0  0  0
  -26.4499  -31.6586   25.0726 C   0  0  0  0  0  0
  -25.3724  -31.3735   26.1449 C   0  0  0  0  0  0
  -27.0342  -30.3005   24.6199 C   0  0  0  0  0  0
  -27.6044  -32.4334   25.7502 C   0  0  0  0  0  0
  -27.5575  -37.1798   24.8461 C   0  0  0  0  0  0
  -21.4199  -29.3039   22.3656 N   0  0  0  0  0  0
  -26.4287  -37.3771   23.9409 N   0  0  0  0  0  0
  -24.6938  -31.0531   22.0962 N   0  0  0  0  0  0
  -23.4194  -28.8134   23.3005 O   0  0  0  0  0  0
  -28.3471  -26.4187   20.2066 O   0  0  0  0  0  0
  -26.5629  -34.8911   22.4668 O   0  0  0  0  0  0
  -23.5442  -32.1372   23.7293 O   0  0  0  0  0  0
  -29.7426  -21.8002   19.3358 C   0  0  0  0  0  0
  -29.0020  -21.2112   21.2704 C   0  0  0  0  0  0
  -29.2143  -22.3816   20.5337 C   0  0  0  0  0  0
  -30.4829  -24.4909   21.0941 C   0  0  0  0  0  0
  -28.3371  -24.0263   22.2790 C   0  0  0  0  0  0
  -29.0392  -16.1352   19.0521 C   0  0  0  0  0  0
  -29.1967  -18.5658   20.8878 C   0  0  0  0  0  0
  -30.3194  -17.4219   20.6032 C   0  0  0  0  0  0
  -28.2730  -24.9411   19.9328 C   0  0  0  0  0  0
  -29.0584  -23.9311   20.9205 C   0  0  0  0  0  0
  -29.8402  -20.4578   19.3536 N   0  0  0  0  0  0
  -29.4046  -20.0476   20.5697 N   0  0  0  0  0  0
  -29.8555  -15.9938   20.2698 N   0  0  0  0  0  0
  -31.4723  -12.6195   19.1566 H   0  0  0  0  0  0
  -30.4119  -11.5325   20.0154 H   0  0  0  0  0  0
  -29.7987  -11.5946   17.5952 H   0  0  0  0  0  0
  -29.6321  -13.3202   17.6315 H   0  0  0  0  0  0
  -27.9064  -11.2210   18.9729 H   0  0  0  0  0  0
  -27.3734  -12.4029   17.8106 H   0  0  0  0  0  0
  -27.5470  -14.1689   19.3822 H   0  0  0  0  0  0
  -28.7469  -12.2738   21.4699 H   0  0  0  0  0  0
  -28.4082  -13.9749   21.7117 H   0  0  0  0  0  0
  -25.2712   -9.5652   22.4802 H   0  0  0  0  0  0
  -23.9967   -7.4587   22.7477 H   0  0  0  0  0  0
  -21.0800   -8.8733   19.8957 H   0  0  0  0  0  0
  -22.3644  -10.9650   19.6196 H   0  0  0  0  0  0
  -21.2003   -7.6143   23.9721 H   0  0  0  0  0  0
  -21.1488   -6.0523   25.9088 H   0  0  0  0  0  0
  -22.0598   -2.7604   23.2855 H   0  0  0  0  0  0
  -22.3998  -11.9896   22.4862 H   0  0  0  0  0  0
  -21.1040  -13.1294   22.2622 H   0  0  0  0  0  0
  -24.6672  -15.8406   20.5552 H   0  0  0  0  0  0
  -26.2923  -15.6227   20.1473 H   0  0  0  0  0  0
  -26.7183  -32.5420   23.1073 H   0  0  0  0  0  0
  -25.0038  -33.9714   25.0385 H   0  0  0  0  0  0
  -22.7209  -31.2985   21.3963 H   0  0  0  0  0  0
  -23.3744  -35.9633   23.3305 H   0  0  0  0  0  0
  -24.3570  -36.8921   22.2053 H   0  0  0  0  0  0
  -23.7251  -37.6500   23.6666 H   0  0  0  0  0  0
  -26.1017  -31.5325   20.6047 H   0  0  0  0  0  0
  -26.8490  -30.8263   22.0064 H   0  0  0  0  0  0
  -28.1107  -28.9347   21.2160 H   0  0  0  0  0  0
  -25.9744  -25.9311   18.9564 H   0  0  0  0  0  0
  -23.9838  -27.3145   18.9822 H   0  0  0  0  0  0
  -23.7709  -30.5906   19.4037 H   0  0  0  0  0  0
  -22.7633  -29.2470   19.8499 H   0  0  0  0  0  0
  -25.1293  -36.1923   25.0817 H   0  0  0  0  0  0
  -20.9978  -28.3279   24.1393 H   0  0  0  0  0  0
  -20.5672  -26.2305   23.3614 H   0  0  0  0  0  0
  -21.6642  -26.7438   22.1203 H   0  0  0  0  0  0
  -19.6913  -25.6304   21.1241 H   0  0  0  0  0  0
  -19.6693  -27.3199   20.6741 H   0  0  0  0  0  0
  -17.4199  -26.6674   21.4034 H   0  0  0  0  0  0
  -18.0333  -26.0083   22.9024 H   0  0  0  0  0  0
  -19.7940  -30.7277   24.2265 H   0  0  0  0  0  0
  -17.5018  -31.6266   24.5172 H   0  0  0  0  0  0
  -15.5354  -30.2992   23.7663 H   0  0  0  0  0  0
  -15.8669  -28.0833   22.7058 H   0  0  0  0  0  0
  -24.5900  -30.7081   25.7786 H   0  0  0  0  0  0
  -24.8915  -32.2905   26.4863 H   0  0  0  0  0  0
  -25.8047  -30.8929   27.0233 H   0  0  0  0  0  0
  -26.2923  -29.6756   24.1213 H   0  0  0  0  0  0
  -27.4016  -29.7263   25.4713 H   0  0  0  0  0  0
  -27.8801  -30.4284   23.9441 H   0  0  0  0  0  0
  -27.2639  -33.3629   26.2070 H   0  0  0  0  0  0
  -28.3857  -32.6902   25.0340 H   0  0  0  0  0  0
  -28.0705  -31.8472   26.5427 H   0  0  0  0  0  0
  -28.2586  -38.0101   24.7505 H   0  0  0  0  0  0
  -28.1074  -36.2629   24.6286 H   0  0  0  0  0  0
  -27.2292  -37.1450   25.8863 H   0  0  0  0  0  0
  -20.9379  -29.8769   21.6875 H   0  0  0  0  0  0
  -26.0166  -38.2844   24.1417 H   0  0  0  0  0  0
  -30.0821  -22.3200   18.4510 H   0  0  0  0  0  0
  -28.5902  -21.1098   22.2647 H   0  0  0  0  0  0
  -31.0438  -23.9312   21.8433 H   0  0  0  0  0  0
  -30.4690  -25.5338   21.4151 H   0  0  0  0  0  0
  -31.0442  -24.4482   20.1606 H   0  0  0  0  0  0
  -28.8592  -23.4767   23.0624 H   0  0  0  0  0  0
  -27.3234  -23.6302   22.2146 H   0  0  0  0  0  0
  -28.2569  -25.0625   22.6112 H   0  0  0  0  0  0
  -27.9897  -16.2657   19.3104 H   0  0  0  0  0  0
  -29.1296  -15.2985   18.3628 H   0  0  0  0  0  0
  -29.3182  -17.0057   18.4557 H   0  0  0  0  0  0
  -28.9207  -18.5007   21.9413 H   0  0  0  0  0  0
  -28.2799  -18.2991   20.3649 H   0  0  0  0  0  0
  -30.9775  -17.3681   21.4719 H   0  0  0  0  0  0
  -30.9659  -17.7601   19.7912 H   0  0  0  0  0  0
  -27.2419  -24.5940   19.9131 H   0  0  0  0  0  0
  -28.6506  -24.8001   18.9192 H   0  0  0  0  0  0
  1 25  1  0  0  0
  1 30  2  0  0  0
  1 83  1  0  0  0
  2  3  1  0  0  0
  2 25  1  0  0  0
  2 84  1  0  0  0
  2 85  1  0  0  0
  3  4  1  0  0  0
  3 86  1  0  0  0
  3 87  1  0  0  0
  4  5  1  0  0  0
  4 88  1  0  0  0
  4 89  1  0  0  0
  5  6  1  0  0  0
  5 26  1  0  0  0
  5 90  1  0  0  0
  6 25  1  0  0  0
  6 91  1  0  0  0
  6 92  1  0  0  0
  7  8  2  0  0  0
  7 26  1  0  0  0
  7 29  1  0  0  0
  8  9  1  0  0  0
  8 22  1  0  0  0
  9 10  1  0  0  0
  9 27  2  0  0  0
 10 11  2  0  0  0
 10 15  1  0  0  0
 11 12  1  0  0  0
 11 93  1  0  0  0
 12 13  2  0  0  0
 12 94  1  0  0  0
 13 14  1  0  0  0
 13 31  1  0  0  0
 14 15  2  0  0  0
 14 95  1  0  0  0
 15 96  1  0  0  0
 16 17  2  0  0  0
 16 21  1  0  0  0
 16 31  1  0  0  0
 17 18  1  0  0  0
 17 97  1  0  0  0
 18 19  2  0  0  0
 18 98  1  0  0  0
 19 20  1  0  0  0
 19 24  1  0  0  0
 20 21  2  0  0  0
 20 99  1  0  0  0
 21 23  1  0  0  0
 22 28  1  0  0  0
 22 32  2  0  0  0
 26 27  1  0  0  0
 28100  1  0  0  0
 28101  1  0  0  0
 29102  1  0  0  0
 29103  1  0  0  0
 33 34  1  0  0  0
 33 66  1  0  0  0
 33 70  2  0  0  0
 34 36  1  0  0  0
 34 59  1  0  0  0
 34104  1  0  0  0
 35 44  2  0  0  0
 35 45  1  0  0  0
 35 68  1  0  0  0
 36 56  1  0  0  0
 36105  1  0  0  0
 37 39  1  0  0  0
 37 47  1  0  0  0
 37 66  1  0  0  0
 37106  1  0  0  0
 38 43  2  0  0  0
 38 46  1  0  0  0
 38 47  1  0  0  0
 39 64  1  0  0  0
 39 67  2  0  0  0
 40 52  1  0  0  0
 40 53  2  0  0  0
 40 58  1  0  0  0
 41107  1  0  0  0
 41108  1  0  0  0
 41109  1  0  0  0
 41 48  1  0  0  0
 42 43  1  0  0  0
 42 66  1  0  0  0
 42110  1  0  0  0
 42111  1  0  0  0
 43 44  1  0  0  0
 44112  1  0  0  0
 45 46  2  0  0  0
 45113  1  0  0  0
 46114  1  0  0  0
 47115  1  0  0  0
 47116  1  0  0  0
 48 56  1  0  0  0
 48 65  1  0  0  0
 48117  1  0  0  0
 49 50  1  0  0  0
 49 53  1  0  0  0
 49 64  1  0  0  0
 49118  1  0  0  0
 50 51  1  0  0  0
 50119  1  0  0  0
 50120  1  0  0  0
 51 52  1  0  0  0
 51121  1  0  0  0
 51122  1  0  0  0
 52123  1  0  0  0
 52124  1  0  0  0
 53 54  1  0  0  0
 54 55  2  0  0  0
 54125  1  0  0  0
 55 57  1  0  0  0
 55126  1  0  0  0
 56 69  2  0  0  0
 57 58  2  0  0  0
 57127  1  0  0  0
 58128  1  0  0  0
 59 60  1  0  0  0
 59 61  1  0  0  0
 59 62  1  0  0  0
 60129  1  0  0  0
 60130  1  0  0  0
 60131  1  0  0  0
 61132  1  0  0  0
 61133  1  0  0  0
 61134  1  0  0  0
 62135  1  0  0  0
 62136  1  0  0  0
 62137  1  0  0  0
 63 65  1  0  0  0
 63138  1  0  0  0
 63139  1  0  0  0
 63140  1  0  0  0
 64141  1  0  0  0
 65142  1  0  0  0
 68 79  1  0  0  0
 71 73  1  0  0  0
 71 81  2  0  0  0
 71143  1  0  0  0
 72 73  2  0  0  0
 72 82  1  0  0  0
 72144  1  0  0  0
 73 80  1  0  0  0
 74145  1  0  0  0
 74146  1  0  0  0
 74147  1  0  0  0
 74 80  1  0  0  0
 75 80  1  0  0  0
 75148  1  0  0  0
 75149  1  0  0  0
 75150  1  0  0  0
 76 83  1  0  0  0
 76151  1  0  0  0
 76152  1  0  0  0
 76153  1  0  0  0
 77 78  1  0  0  0
 77 82  1  0  0  0
 77154  1  0  0  0
 77155  1  0  0  0
 78 83  1  0  0  0
 78156  1  0  0  0
 78157  1  0  0  0
 79 80  1  0  0  0
 79158  1  0  0  0
 79159  1  0  0  0
 81 82  1  0  0  0
M  ISO  4   1 100  68 101  79 101  83 100
M  END
> <chiral flag>
0

> <version>
0

> <s_m_source_file>
/data/baiqing/PycharmProjects/Reinvent-master-3.2/result/LINK_invent/BTK/process_docking_weight1_custom_sum_contain_oxygen_bond_distance_aromatic_linkinvent_7_9_3/rearranged_h_0059.sdf

> <i_m_source_file_index>
96

> <r_mmod_Potential_Energy-OPLS-2005>
343.903717041016

> <r_mmod_Stretch_Energy-OPLS-2005>
126.667877197266

> <r_mmod_Bend_Energy-OPLS-2005>
180.751586914062

> <r_mmod_Torsional_Energy-OPLS-2005>
305.468658447266

> <r_mmod_Improper_Torsional_Energy-OPLS-2005>
10.977518081665

> <r_mmod_Van_der_Waal_Energy-OPLS-2005>
127.286758422852

> <r_mmod_Electrostatic_Energy-OPLS-2005>
-303.126220703125

> <r_mmod_Solvation_Energy-OPLS-2005>
-211.476959228516

> <b_mmod_Minimization_Converged-OPLS-2005>
0

> <r_mmod_RMS_Derivative-OPLS-2005>
1.64814436435699

$$$$
