0
                    3D
 Structure written by MMmdl.
177185  0  0  1  0            999 V2000
  -30.8815  -14.2303   20.7787 C   0  0  0  0  0  0
  -30.4041  -12.2867   19.3571 C   0  0  0  0  0  0
  -29.4641  -12.5463   18.1733 C   0  0  0  0  0  0
  -28.0007  -12.3800   18.6108 C   0  0  0  0  0  0
  -27.6673  -13.2084   19.8779 C   0  0  2  0  0  0
  -28.7119  -12.9768   20.9948 C   0  0  0  0  0  0
  -25.2613  -13.8178   20.5694 C   0  0  0  0  0  0
  -24.1860  -13.0457   20.9164 C   0  0  0  0  0  0
  -24.6411  -11.6918   20.8732 C   0  0  0  0  0  0
  -23.9077  -10.4298   21.0397 C   0  0  0  0  0  0
  -24.3612   -9.4216   21.9182 C   0  0  0  0  0  0
  -23.6290   -8.2253   22.0744 C   0  0  0  0  0  0
  -22.4278   -8.0284   21.3537 C   0  0  0  0  0  0
  -21.9918   -9.0258   20.4634 C   0  0  0  0  0  0
  -22.7246  -10.2138   20.3048 C   0  0  0  0  0  0
  -21.6843   -6.0743   22.5279 C   0  0  0  0  0  0
  -21.4006   -6.5648   23.8216 C   0  0  0  0  0  0
  -21.3656   -5.6800   24.9180 C   0  0  0  0  0  0
  -21.6045   -4.3063   24.7222 C   0  0  0  0  0  0
  -21.8817   -3.8152   23.4344 C   0  0  0  0  0  0
  -21.9185   -4.6971   22.3403 C   0  0  0  0  0  0
  -22.7877  -13.5251   21.1832 C   0  0  0  0  0  0
  -22.1653   -4.2165   21.0973 F   0  0  0  0  0  0
  -21.5638   -3.4537   25.7730 F   0  0  0  0  0  0
  -30.0645  -13.2028   20.4528 N   0  0  0  0  0  0
  -26.3070  -12.9364   20.3408 N   0  0  0  0  0  0
  -25.9345  -11.6516   20.5784 N   0  0  0  0  0  0
  -22.0520  -12.8243   22.0390 N   0  0  0  0  0  0
  -25.4339  -15.1893   20.4094 N   0  0  0  0  0  0
  -31.7491  -14.6861   20.0271 O   0  0  0  0  0  0
  -21.6636   -6.8882   21.4235 O   0  0  0  0  0  0
  -22.3562  -14.5562   20.6694 O   0  0  0  0  0  0
  -24.6119  -31.8705   23.2144 C   0  0  0  0  0  0
  -25.9033  -32.4821   23.8429 C   0  0  1  0  0  0
  -27.2433  -27.4785   20.0878 C   0  0  0  0  0  0
  -25.5917  -33.8624   24.2356 N   0  0  0  0  0  0
  -23.3977  -30.4952   21.5513 C   0  0  2  0  0  0
  -24.8466  -28.9651   20.1131 C   0  0  0  0  0  0
  -22.7396  -29.4666   22.4985 C   0  0  0  0  0  0
  -18.0274  -28.1372   22.8509 C   0  0  0  0  0  0
  -24.1463  -36.7293   23.2646 C   0  0  0  0  0  0
  -25.9240  -30.8432   21.3694 C   0  0  0  0  0  0
  -25.9990  -29.4814   20.7184 C   0  0  0  0  0  0
  -27.1977  -28.7408   20.7167 C   0  0  0  0  0  0
  -26.0842  -26.9768   19.4607 C   0  0  0  0  0  0
  -24.8794  -27.7064   19.4857 C   0  0  0  0  0  0
  -23.6057  -29.8281   20.1643 C   0  0  0  0  0  0
  -25.4091  -36.3115   24.0351 C   0  0  1  0  0  0
  -20.5869  -28.3643   23.1339 C   0  0  2  0  0  0
  -20.6770  -26.9381   22.5425 C   0  0  0  0  0  0
  -19.5739  -26.6383   21.5228 C   0  0  0  0  0  0
  -18.1920  -26.7927   22.1633 C   0  0  0  0  0  0
  -19.1524  -28.8830   23.2919 C   0  0  0  0  0  0
  -18.9456  -30.1452   23.8915 C   0  0  0  0  0  0
  -17.6456  -30.6590   24.0579 C   0  0  0  0  0  0
  -25.9025  -34.9480   23.5140 C   0  0  0  0  0  0
  -16.5343  -29.9102   23.6332 C   0  0  0  0  0  0
  -16.7263  -28.6508   23.0358 C   0  0  0  0  0  0
  -26.4481  -31.6595   25.0757 C   0  0  0  0  0  0
  -25.3769  -31.3683   26.1512 C   0  0  0  0  0  0
  -27.0320  -30.3051   24.6128 C   0  0  0  0  0  0
  -27.6061  -32.4326   25.7514 C   0  0  0  0  0  0
  -27.5558  -37.1805   24.8479 C   0  0  0  0  0  0
  -21.4126  -29.3014   22.3746 N   0  0  0  0  0  0
  -26.4263  -37.3823   23.9435 N   0  0  0  0  0  0
  -24.6613  -31.0847   22.1020 N   0  0  0  0  0  0
  -23.4190  -28.8201   23.2996 O   0  0  0  0  0  0
  -28.3918  -26.7248   20.0680 O   0  0  0  0  0  0
  -26.5571  -34.8937   22.4694 O   0  0  0  0  0  0
  -23.5324  -32.1425   23.7570 O   0  0  0  0  0  0
  -27.8493  -22.1294   22.6229 C   0  0  0  0  0  0
  -27.0898  -21.3472   23.4509 C   0  0  0  0  0  0
  -25.7824  -21.9241   23.5021 C   0  0  0  0  0  0
  -25.7917  -23.0233   22.6822 C   0  0  0  0  0  0
  -27.6582  -20.1621   24.1436 C   0  0  0  0  0  0
  -24.5834  -21.4218   24.2727 C   0  0  0  0  0  0
  -24.6761  -23.9677   22.3497 C   0  0  0  0  0  0
  -27.5535  -23.5896   19.7820 C   0  0  0  0  0  0
  -28.8047  -19.4156   23.4629 C   0  0  0  0  0  0
  -30.0977  -19.4572   24.2941 C   0  0  0  0  0  0
  -31.2643  -18.7322   23.6093 C   0  0  0  0  0  0
  -31.0242  -17.2223   23.4597 C   0  0  0  0  0  0
  -32.2121  -16.5043   22.8102 C   0  0  0  0  0  0
  -28.8510  -24.8472   21.5884 C   0  0  0  0  0  0
  -32.0720  -14.9744   22.8247 C   0  0  0  0  0  0
  -28.8899  -26.3730   21.3620 C   0  0  0  0  0  0
  -27.5060  -24.1877   21.1990 C   0  0  2  0  0  0
  -27.0687  -23.1655   22.1489 N   0  0  0  0  0  0
  -30.9054  -14.4778   22.0940 N   0  0  0  0  0  0
  -27.2166  -19.7518   25.2198 O   0  0  0  0  0  0
  -31.4437  -12.3875   19.0383 H   0  0  0  0  0  0
  -30.3020  -11.2582   19.7063 H   0  0  0  0  0  0
  -29.6912  -11.8609   17.3558 H   0  0  0  0  0  0
  -29.6234  -13.5540   17.7858 H   0  0  0  0  0  0
  -27.8246  -11.3199   18.7980 H   0  0  0  0  0  0
  -27.3334  -12.6595   17.7951 H   0  0  0  0  0  0
  -27.7178  -14.2605   19.5939 H   0  0  0  0  0  0
  -28.6457  -11.9562   21.3759 H   0  0  0  0  0  0
  -28.4854  -13.6339   21.8356 H   0  0  0  0  0  0
  -25.2756   -9.5702   22.4766 H   0  0  0  0  0  0
  -24.0005   -7.4642   22.7476 H   0  0  0  0  0  0
  -21.0855   -8.8777   19.8931 H   0  0  0  0  0  0
  -22.3718  -10.9670   19.6158 H   0  0  0  0  0  0
  -21.2003   -7.6159   23.9723 H   0  0  0  0  0  0
  -21.1472   -6.0529   25.9081 H   0  0  0  0  0  0
  -22.0598   -2.7612   23.2841 H   0  0  0  0  0  0
  -22.4112  -11.9887   22.4755 H   0  0  0  0  0  0
  -21.1147  -13.1287   22.2626 H   0  0  0  0  0  0
  -24.6712  -15.8487   20.5160 H   0  0  0  0  0  0
  -26.2985  -15.6267   20.1140 H   0  0  0  0  0  0
  -26.7129  -32.5542   23.1219 H   0  0  0  0  0  0
  -25.0147  -33.9802   25.0557 H   0  0  0  0  0  0
  -22.6837  -31.3103   21.4154 H   0  0  0  0  0  0
  -23.3743  -35.9612   23.3340 H   0  0  0  0  0  0
  -24.3547  -36.8860   22.2054 H   0  0  0  0  0  0
  -23.7204  -37.6504   23.6627 H   0  0  0  0  0  0
  -26.0434  -31.6102   20.6025 H   0  0  0  0  0  0
  -26.8081  -30.8886   21.9921 H   0  0  0  0  0  0
  -28.0836  -29.1377   21.1920 H   0  0  0  0  0  0
  -26.1106  -26.0180   18.9641 H   0  0  0  0  0  0
  -23.9964  -27.3067   19.0057 H   0  0  0  0  0  0
  -23.7133  -30.6045   19.4056 H   0  0  0  0  0  0
  -22.7326  -29.2456   19.8658 H   0  0  0  0  0  0
  -25.1274  -36.1973   25.0847 H   0  0  0  0  0  0
  -20.9976  -28.3215   24.1452 H   0  0  0  0  0  0
  -20.5700  -26.2252   23.3606 H   0  0  0  0  0  0
  -21.6639  -26.7428   22.1204 H   0  0  0  0  0  0
  -19.6892  -25.6305   21.1232 H   0  0  0  0  0  0
  -19.6694  -27.3225   20.6787 H   0  0  0  0  0  0
  -17.4198  -26.6706   21.4027 H   0  0  0  0  0  0
  -18.0292  -26.0062   22.9013 H   0  0  0  0  0  0
  -19.7924  -30.7288   24.2271 H   0  0  0  0  0  0
  -17.4996  -31.6266   24.5181 H   0  0  0  0  0  0
  -15.5343  -30.3009   23.7638 H   0  0  0  0  0  0
  -15.8653  -28.0842   22.7054 H   0  0  0  0  0  0
  -24.5922  -30.7054   25.7844 H   0  0  0  0  0  0
  -24.8997  -32.2840   26.5017 H   0  0  0  0  0  0
  -25.8145  -30.8803   27.0237 H   0  0  0  0  0  0
  -26.2869  -29.6817   24.1175 H   0  0  0  0  0  0
  -27.4087  -29.7278   25.4581 H   0  0  0  0  0  0
  -27.8715  -30.4380   23.9302 H   0  0  0  0  0  0
  -27.2662  -33.3609   26.2130 H   0  0  0  0  0  0
  -28.3853  -32.6910   25.0326 H   0  0  0  0  0  0
  -28.0768  -31.8442   26.5398 H   0  0  0  0  0  0
  -28.2609  -38.0072   24.7519 H   0  0  0  0  0  0
  -28.1000  -36.2609   24.6295 H   0  0  0  0  0  0
  -27.2275  -37.1459   25.8881 H   0  0  0  0  0  0
  -20.9271  -29.8729   21.6973 H   0  0  0  0  0  0
  -26.0136  -38.2894   24.1450 H   0  0  0  0  0  0
  -28.8865  -22.0464   22.3242 H   0  0  0  0  0  0
  -24.8422  -20.6260   24.9683 H   0  0  0  0  0  0
  -23.8311  -21.0314   23.5869 H   0  0  0  0  0  0
  -24.1330  -22.2300   24.8488 H   0  0  0  0  0  0
  -23.7158  -23.5843   22.6937 H   0  0  0  0  0  0
  -24.5889  -24.1206   21.2740 H   0  0  0  0  0  0
  -24.8339  -24.9384   22.8207 H   0  0  0  0  0  0
  -27.8313  -24.3381   19.0412 H   0  0  0  0  0  0
  -26.5825  -23.1908   19.4904 H   0  0  0  0  0  0
  -28.2777  -22.7777   19.7134 H   0  0  0  0  0  0
  -28.9804  -19.8141   22.4646 H   0  0  0  0  0  0
  -28.4733  -18.3876   23.3245 H   0  0  0  0  0  0
  -29.9217  -19.0206   25.2785 H   0  0  0  0  0  0
  -30.3797  -20.4963   24.4713 H   0  0  0  0  0  0
  -32.1694  -18.8949   24.1968 H   0  0  0  0  0  0
  -31.4517  -19.1808   22.6324 H   0  0  0  0  0  0
  -30.1350  -17.0405   22.8572 H   0  0  0  0  0  0
  -30.8267  -16.7875   24.4409 H   0  0  0  0  0  0
  -33.1265  -16.7693   23.3434 H   0  0  0  0  0  0
  -32.3491  -16.8607   21.7878 H   0  0  0  0  0  0
  -29.0572  -24.6746   22.6448 H   0  0  0  0  0  0
  -29.6694  -24.3687   21.0497 H   0  0  0  0  0  0
  -32.0007  -14.6233   23.8554 H   0  0  0  0  0  0
  -32.9800  -14.5193   22.4223 H   0  0  0  0  0  0
  -29.9153  -26.7347   21.4507 H   0  0  0  0  0  0
  -28.3317  -26.8532   22.1681 H   0  0  0  0  0  0
  -26.7532  -24.9716   21.2134 H   0  0  0  0  0  0
  -30.1933  -14.0132   22.6385 H   0  0  0  0  0  0
  1 25  1  0  0  0
  1 30  2  0  0  0
  1 89  1  0  0  0
  2  3  1  0  0  0
  2 25  1  0  0  0
  2 91  1  0  0  0
  2 92  1  0  0  0
  3  4  1  0  0  0
  3 93  1  0  0  0
  3 94  1  0  0  0
  4  5  1  0  0  0
  4 95  1  0  0  0
  4 96  1  0  0  0
  5  6  1  0  0  0
  5 26  1  0  0  0
  5 97  1  0  0  0
  6 25  1  0  0  0
  6 98  1  0  0  0
  6 99  1  0  0  0
  7  8  2  0  0  0
  7 26  1  0  0  0
  7 29  1  0  0  0
  8  9  1  0  0  0
  8 22  1  0  0  0
  9 10  1  0  0  0
  9 27  2  0  0  0
 10 11  2  0  0  0
 10 15  1  0  0  0
 11 12  1  0  0  0
 11100  1  0  0  0
 12 13  2  0  0  0
 12101  1  0  0  0
 13 14  1  0  0  0
 13 31  1  0  0  0
 14 15  2  0  0  0
 14102  1  0  0  0
 15103  1  0  0  0
 16 17  2  0  0  0
 16 21  1  0  0  0
 16 31  1  0  0  0
 17 18  1  0  0  0
 17104  1  0  0  0
 18 19  2  0  0  0
 18105  1  0  0  0
 19 20  1  0  0  0
 19 24  1  0  0  0
 20 21  2  0  0  0
 20106  1  0  0  0
 21 23  1  0  0  0
 22 28  1  0  0  0
 22 32  2  0  0  0
 26 27  1  0  0  0
 28107  1  0  0  0
 28108  1  0  0  0
 29109  1  0  0  0
 29110  1  0  0  0
 33 34  1  0  0  0
 33 66  1  0  0  0
 33 70  2  0  0  0
 34 36  1  0  0  0
 34 59  1  0  0  0
 34111  1  0  0  0
 35 44  2  0  0  0
 35 45  1  0  0  0
 35 68  1  0  0  0
 36 56  1  0  0  0
 36112  1  0  0  0
 37 39  1  0  0  0
 37 47  1  0  0  0
 37 66  1  0  0  0
 37113  1  0  0  0
 38 43  2  0  0  0
 38 46  1  0  0  0
 38 47  1  0  0  0
 39 64  1  0  0  0
 39 67  2  0  0  0
 40 52  1  0  0  0
 40 53  2  0  0  0
 40 58  1  0  0  0
 41114  1  0  0  0
 41115  1  0  0  0
 41116  1  0  0  0
 41 48  1  0  0  0
 42 43  1  0  0  0
 42 66  1  0  0  0
 42117  1  0  0  0
 42118  1  0  0  0
 43 44  1  0  0  0
 44119  1  0  0  0
 45 46  2  0  0  0
 45120  1  0  0  0
 46121  1  0  0  0
 47122  1  0  0  0
 47123  1  0  0  0
 48 56  1  0  0  0
 48 65  1  0  0  0
 48124  1  0  0  0
 49 50  1  0  0  0
 49 53  1  0  0  0
 49 64  1  0  0  0
 49125  1  0  0  0
 50 51  1  0  0  0
 50126  1  0  0  0
 50127  1  0  0  0
 51 52  1  0  0  0
 51128  1  0  0  0
 51129  1  0  0  0
 52130  1  0  0  0
 52131  1  0  0  0
 53 54  1  0  0  0
 54 55  2  0  0  0
 54132  1  0  0  0
 55 57  1  0  0  0
 55133  1  0  0  0
 56 69  2  0  0  0
 57 58  2  0  0  0
 57134  1  0  0  0
 58135  1  0  0  0
 59 60  1  0  0  0
 59 61  1  0  0  0
 59 62  1  0  0  0
 60136  1  0  0  0
 60137  1  0  0  0
 60138  1  0  0  0
 61139  1  0  0  0
 61140  1  0  0  0
 61141  1  0  0  0
 62142  1  0  0  0
 62143  1  0  0  0
 62144  1  0  0  0
 63 65  1  0  0  0
 63145  1  0  0  0
 63146  1  0  0  0
 63147  1  0  0  0
 64148  1  0  0  0
 65149  1  0  0  0
 68 86  1  0  0  0
 71 72  2  0  0  0
 71 88  1  0  0  0
 71150  1  0  0  0
 72 73  1  0  0  0
 72 75  1  0  0  0
 73 74  2  0  0  0
 73 76  1  0  0  0
 74 77  1  0  0  0
 74 88  1  0  0  0
 75 79  1  0  0  0
 75 90  2  0  0  0
 76151  1  0  0  0
 76152  1  0  0  0
 76153  1  0  0  0
 77154  1  0  0  0
 77155  1  0  0  0
 77156  1  0  0  0
 78157  1  0  0  0
 78158  1  0  0  0
 78159  1  0  0  0
 78 87  1  0  0  0
 79 80  1  0  0  0
 79160  1  0  0  0
 79161  1  0  0  0
 80 81  1  0  0  0
 80162  1  0  0  0
 80163  1  0  0  0
 81 82  1  0  0  0
 81164  1  0  0  0
 81165  1  0  0  0
 82 83  1  0  0  0
 82166  1  0  0  0
 82167  1  0  0  0
 83 85  1  0  0  0
 83168  1  0  0  0
 83169  1  0  0  0
 84 86  1  0  0  0
 84 87  1  0  0  0
 84170  1  0  0  0
 84171  1  0  0  0
 85 89  1  0  0  0
 85172  1  0  0  0
 85173  1  0  0  0
 86174  1  0  0  0
 86175  1  0  0  0
 87 88  1  0  0  0
 87176  1  0  0  0
 89177  1  0  0  0
M  ISO  4   1 100  68 101  86 101  89 100
M  END
> <chiral flag>
0

> <version>
0

> <s_m_source_file>
/data/baiqing/PycharmProjects/Reinvent-master-3.2/result/LINK_invent/BTK/process_docking_weight1_custom_sum_contain_oxygen_bond_distance_aromatic_linkinvent_7_9_3/rearranged_h_0024.sdf

> <i_m_source_file_index>
1

> <r_mmod_Potential_Energy-OPLS-2005>
-19.1809349060059

> <r_mmod_Stretch_Energy-OPLS-2005>
31.2942905426025

> <r_mmod_Bend_Energy-OPLS-2005>
88.3902282714844

> <r_mmod_Torsional_Energy-OPLS-2005>
300.933746337891

> <r_mmod_Improper_Torsional_Energy-OPLS-2005>
9.16450977325439

> <r_mmod_Van_der_Waal_Energy-OPLS-2005>
123.033805847168

> <r_mmod_Electrostatic_Energy-OPLS-2005>
-373.629516601562

> <r_mmod_Solvation_Energy-OPLS-2005>
-209.728729248047

> <b_mmod_Minimization_Converged-OPLS-2005>
0

> <r_mmod_RMS_Derivative-OPLS-2005>
2.23912858963013

$$$$
1
                    3D
 Structure written by MMmdl.
164172  0  0  1  0            999 V2000
  -30.5783  -14.7369   20.4422 C   0  0  0  0  0  0
  -30.4235  -12.4377   19.4616 C   0  0  0  0  0  0
  -29.5034  -12.5095   18.2246 C   0  0  0  0  0  0
  -28.0324  -12.3285   18.6408 C   0  0  0  0  0  0
  -27.6391  -13.2274   19.8433 C   0  0  2  0  0  0
  -28.6804  -13.1400   20.9813 C   0  0  0  0  0  0
  -25.2515  -13.8150   20.5592 C   0  0  0  0  0  0
  -24.1794  -13.0400   20.9135 C   0  0  0  0  0  0
  -24.6364  -11.6850   20.8614 C   0  0  0  0  0  0
  -23.9035  -10.4227   21.0339 C   0  0  0  0  0  0
  -24.3612   -9.4172   21.9153 C   0  0  0  0  0  0
  -23.6293   -8.2190   22.0748 C   0  0  0  0  0  0
  -22.4290   -8.0218   21.3519 C   0  0  0  0  0  0
  -21.9878   -9.0177   20.4630 C   0  0  0  0  0  0
  -22.7175  -10.2067   20.3021 C   0  0  0  0  0  0
  -21.6826   -6.0696   22.5275 C   0  0  0  0  0  0
  -21.3977   -6.5614   23.8207 C   0  0  0  0  0  0
  -21.3680   -5.6777   24.9182 C   0  0  0  0  0  0
  -21.6030   -4.3042   24.7212 C   0  0  0  0  0  0
  -21.8818   -3.8127   23.4335 C   0  0  0  0  0  0
  -21.9197   -4.6927   22.3394 C   0  0  0  0  0  0
  -22.7828  -13.5196   21.1904 C   0  0  0  0  0  0
  -22.1659   -4.2126   21.0965 F   0  0  0  0  0  0
  -21.5681   -3.4533   25.7728 F   0  0  0  0  0  0
  -29.9821  -13.4973   20.4057 N   0  0  0  0  0  0
  -26.2916  -12.9341   20.3162 N   0  0  0  0  0  0
  -25.9266  -11.6468   20.5519 N   0  0  0  0  0  0
  -22.0433  -12.8169   22.0431 N   0  0  0  0  0  0
  -25.4262  -15.1855   20.4037 N   0  0  0  0  0  0
  -31.7646  -14.8467   20.1128 O   0  0  0  0  0  0
  -21.6608   -6.8835   21.4241 O   0  0  0  0  0  0
  -22.3514  -14.5494   20.6757 O   0  0  0  0  0  0
  -24.6333  -31.8531   23.1974 C   0  0  0  0  0  0
  -25.9160  -32.4735   23.8336 C   0  0  1  0  0  0
  -27.2041  -27.2437   20.1298 C   0  0  0  0  0  0
  -25.5938  -33.8549   24.2256 N   0  0  0  0  0  0
  -23.4307  -30.4772   21.5392 C   0  0  2  0  0  0
  -24.8747  -28.9214   20.1095 C   0  0  0  0  0  0
  -22.7507  -29.4600   22.4885 C   0  0  0  0  0  0
  -18.0307  -28.1385   22.8477 C   0  0  0  0  0  0
  -24.1485  -36.7293   23.2642 C   0  0  0  0  0  0
  -25.9788  -30.7552   21.3850 C   0  0  0  0  0  0
  -26.0459  -29.3759   20.7285 C   0  0  0  0  0  0
  -27.2139  -28.5480   20.7374 C   0  0  0  0  0  0
  -26.0216  -26.8713   19.4592 C   0  0  0  0  0  0
  -24.8672  -27.6753   19.4638 C   0  0  0  0  0  0
  -23.6491  -29.8108   20.1552 C   0  0  0  0  0  0
  -25.4112  -36.3068   24.0331 C   0  0  1  0  0  0
  -20.5906  -28.3716   23.1247 C   0  0  2  0  0  0
  -20.6783  -26.9427   22.5404 C   0  0  0  0  0  0
  -19.5757  -26.6383   21.5206 C   0  0  0  0  0  0
  -18.1940  -26.7925   22.1617 C   0  0  0  0  0  0
  -19.1554  -28.8870   23.2859 C   0  0  0  0  0  0
  -18.9471  -30.1466   23.8891 C   0  0  0  0  0  0
  -17.6465  -30.6585   24.0565 C   0  0  0  0  0  0
  -25.9048  -34.9432   23.5105 C   0  0  0  0  0  0
  -16.5364  -29.9087   23.6324 C   0  0  0  0  0  0
  -16.7291  -28.6503   23.0351 C   0  0  0  0  0  0
  -26.4505  -31.6579   25.0747 C   0  0  0  0  0  0
  -25.3726  -31.3750   26.1468 C   0  0  0  0  0  0
  -27.0361  -30.2995   24.6262 C   0  0  0  0  0  0
  -27.6046  -32.4332   25.7525 C   0  0  0  0  0  0
  -27.5578  -37.1802   24.8461 C   0  0  0  0  0  0
  -21.4205  -29.3059   22.3628 N   0  0  0  0  0  0
  -26.4286  -37.3771   23.9404 N   0  0  0  0  0  0
  -24.7001  -31.0474   22.0956 N   0  0  0  0  0  0
  -23.4204  -28.8136   23.2979 O   0  0  0  0  0  0
  -28.2798  -26.3300   20.1712 O   0  0  0  0  0  0
  -26.5618  -34.8916   22.4659 O   0  0  0  0  0  0
  -23.5477  -32.1369   23.7242 O   0  0  0  0  0  0
  -29.1797  -19.8837   20.1026 C   0  0  0  0  0  0
  -29.1852  -18.5655   20.7274 C   0  0  0  0  0  0
  -27.5882  -19.5092   22.3584 C   0  0  0  0  0  0
  -28.4338  -21.0335   20.5978 C   0  0  0  0  0  0
  -28.3523  -18.4237   21.8561 C   0  0  0  0  0  0
  -27.6694  -20.8019   21.7775 C   0  0  0  0  0  0
  -26.6124  -19.2356   23.4972 C   0  0  0  0  0  0
  -30.1717  -23.5581   20.6923 C   0  0  0  0  0  0
  -29.2397  -24.0244   18.4367 C   0  0  0  0  0  0
  -26.9454  -22.1698   19.0895 C   0  0  0  0  0  0
  -30.0574  -17.3184   20.2186 C   0  0  0  0  0  0
  -27.9827  -24.8806   20.4859 C   0  0  0  0  0  0
  -28.8655  -23.6447   19.8925 C   0  0  0  0  0  0
  -29.7733  -15.8603   20.6026 N   0  0  0  0  0  0
  -28.2024  -22.2655   19.8451 N   0  0  0  0  0  0
  -28.2531  -17.2115   22.4511 F   0  0  0  0  0  0
  -26.7170  -22.0911   22.4486 Cl  0  0  0  0  0  0
  -31.4636  -12.5536   19.1610 H   0  0  0  0  0  0
  -30.3584  -11.4467   19.9158 H   0  0  0  0  0  0
  -29.7810  -11.7406   17.4983 H   0  0  0  0  0  0
  -29.6350  -13.4711   17.7243 H   0  0  0  0  0  0
  -27.9082  -11.2809   18.9222 H   0  0  0  0  0  0
  -27.3762  -12.4960   17.7848 H   0  0  0  0  0  0
  -27.6317  -14.2478   19.4585 H   0  0  0  0  0  0
  -28.7058  -12.1303   21.4021 H   0  0  0  0  0  0
  -28.4292  -13.8014   21.8111 H   0  0  0  0  0  0
  -25.2743   -9.5635   22.4725 H   0  0  0  0  0  0
  -23.9984   -7.4578   22.7502 H   0  0  0  0  0  0
  -21.0808   -8.8659   19.8951 H   0  0  0  0  0  0
  -22.3612  -10.9601   19.6139 H   0  0  0  0  0  0
  -21.1914   -7.6113   23.9720 H   0  0  0  0  0  0
  -21.1544   -6.0487   25.9099 H   0  0  0  0  0  0
  -22.0596   -2.7568   23.2814 H   0  0  0  0  0  0
  -22.4029  -11.9773   22.4748 H   0  0  0  0  0  0
  -21.1064  -13.1211   22.2704 H   0  0  0  0  0  0
  -24.6753  -15.8484   20.5576 H   0  0  0  0  0  0
  -26.2812  -15.6253   20.0838 H   0  0  0  0  0  0
  -26.7219  -32.5364   23.1068 H   0  0  0  0  0  0
  -25.0102  -33.9679   25.0416 H   0  0  0  0  0  0
  -22.7312  -31.3015   21.3895 H   0  0  0  0  0  0
  -23.3738  -35.9630   23.3290 H   0  0  0  0  0  0
  -24.3583  -36.8926   22.2057 H   0  0  0  0  0  0
  -23.7242  -37.6498   23.6670 H   0  0  0  0  0  0
  -26.1241  -31.5063   20.6077 H   0  0  0  0  0  0
  -26.8561  -30.8012   22.0182 H   0  0  0  0  0  0
  -28.1083  -28.8761   21.2487 H   0  0  0  0  0  0
  -25.9682  -25.9333   18.9241 H   0  0  0  0  0  0
  -23.9749  -27.3288   18.9620 H   0  0  0  0  0  0
  -23.7842  -30.5837   19.3985 H   0  0  0  0  0  0
  -22.7652  -29.2489   19.8461 H   0  0  0  0  0  0
  -25.1281  -36.1918   25.0824 H   0  0  0  0  0  0
  -21.0016  -28.3302   24.1353 H   0  0  0  0  0  0
  -20.5661  -26.2329   23.3618 H   0  0  0  0  0  0
  -21.6653  -26.7418   22.1205 H   0  0  0  0  0  0
  -19.6915  -25.6288   21.1242 H   0  0  0  0  0  0
  -19.6691  -27.3182   20.6723 H   0  0  0  0  0  0
  -17.4204  -26.6676   21.4026 H   0  0  0  0  0  0
  -18.0347  -26.0078   22.9021 H   0  0  0  0  0  0
  -19.7958  -30.7278   24.2253 H   0  0  0  0  0  0
  -17.5033  -31.6258   24.5169 H   0  0  0  0  0  0
  -15.5369  -30.2984   23.7655 H   0  0  0  0  0  0
  -15.8689  -28.0820   22.7064 H   0  0  0  0  0  0
  -24.5905  -30.7076   25.7823 H   0  0  0  0  0  0
  -24.8911  -32.2922   26.4874 H   0  0  0  0  0  0
  -25.8055  -30.8965   27.0263 H   0  0  0  0  0  0
  -26.2966  -29.6741   24.1244 H   0  0  0  0  0  0
  -27.3974  -29.7265   25.4811 H   0  0  0  0  0  0
  -27.8871  -30.4261   23.9570 H   0  0  0  0  0  0
  -27.2643  -33.3641   26.2083 H   0  0  0  0  0  0
  -28.3879  -32.6880   25.0372 H   0  0  0  0  0  0
  -28.0690  -31.8474   26.5467 H   0  0  0  0  0  0
  -28.2577  -38.0118   24.7506 H   0  0  0  0  0  0
  -28.1089  -36.2638   24.6270 H   0  0  0  0  0  0
  -27.2301  -37.1440   25.8872 H   0  0  0  0  0  0
  -20.9399  -29.8816   21.6854 H   0  0  0  0  0  0
  -26.0157  -38.2843   24.1408 H   0  0  0  0  0  0
  -29.7425  -20.0059   19.1858 H   0  0  0  0  0  0
  -25.6542  -19.7169   23.2995 H   0  0  0  0  0  0
  -26.9946  -19.5984   24.4505 H   0  0  0  0  0  0
  -26.4069  -18.1690   23.5901 H   0  0  0  0  0  0
  -30.7014  -24.5137   20.6902 H   0  0  0  0  0  0
  -30.8542  -22.8116   20.2828 H   0  0  0  0  0  0
  -29.9785  -23.3037   21.7346 H   0  0  0  0  0  0
  -29.8361  -24.9382   18.3936 H   0  0  0  0  0  0
  -28.3673  -24.2095   17.8110 H   0  0  0  0  0  0
  -29.8277  -23.2421   17.9564 H   0  0  0  0  0  0
  -26.2029  -22.8582   19.4915 H   0  0  0  0  0  0
  -26.5044  -21.1706   19.1227 H   0  0  0  0  0  0
  -27.0862  -22.4119   18.0348 H   0  0  0  0  0  0
  -31.0931  -17.5223   20.4908 H   0  0  0  0  0  0
  -30.0442  -17.3630   19.1288 H   0  0  0  0  0  0
  -28.0458  -24.8118   21.5741 H   0  0  0  0  0  0
  -26.9339  -24.6675   20.3102 H   0  0  0  0  0  0
  -28.8189  -15.6846   20.8900 H   0  0  0  0  0  0
  1 25  1  0  0  0
  1 30  2  0  0  0
  1 84  1  0  0  0
  2  3  1  0  0  0
  2 25  1  0  0  0
  2 88  1  0  0  0
  2 89  1  0  0  0
  3  4  1  0  0  0
  3 90  1  0  0  0
  3 91  1  0  0  0
  4  5  1  0  0  0
  4 92  1  0  0  0
  4 93  1  0  0  0
  5  6  1  0  0  0
  5 26  1  0  0  0
  5 94  1  0  0  0
  6 25  1  0  0  0
  6 95  1  0  0  0
  6 96  1  0  0  0
  7  8  2  0  0  0
  7 26  1  0  0  0
  7 29  1  0  0  0
  8  9  1  0  0  0
  8 22  1  0  0  0
  9 10  1  0  0  0
  9 27  2  0  0  0
 10 11  2  0  0  0
 10 15  1  0  0  0
 11 12  1  0  0  0
 11 97  1  0  0  0
 12 13  2  0  0  0
 12 98  1  0  0  0
 13 14  1  0  0  0
 13 31  1  0  0  0
 14 15  2  0  0  0
 14 99  1  0  0  0
 15100  1  0  0  0
 16 17  2  0  0  0
 16 21  1  0  0  0
 16 31  1  0  0  0
 17 18  1  0  0  0
 17101  1  0  0  0
 18 19  2  0  0  0
 18102  1  0  0  0
 19 20  1  0  0  0
 19 24  1  0  0  0
 20 21  2  0  0  0
 20103  1  0  0  0
 21 23  1  0  0  0
 22 28  1  0  0  0
 22 32  2  0  0  0
 26 27  1  0  0  0
 28104  1  0  0  0
 28105  1  0  0  0
 29106  1  0  0  0
 29107  1  0  0  0
 33 34  1  0  0  0
 33 66  1  0  0  0
 33 70  2  0  0  0
 34 36  1  0  0  0
 34 59  1  0  0  0
 34108  1  0  0  0
 35 44  2  0  0  0
 35 45  1  0  0  0
 35 68  1  0  0  0
 36 56  1  0  0  0
 36109  1  0  0  0
 37 39  1  0  0  0
 37 47  1  0  0  0
 37 66  1  0  0  0
 37110  1  0  0  0
 38 43  2  0  0  0
 38 46  1  0  0  0
 38 47  1  0  0  0
 39 64  1  0  0  0
 39 67  2  0  0  0
 40 52  1  0  0  0
 40 53  2  0  0  0
 40 58  1  0  0  0
 41111  1  0  0  0
 41112  1  0  0  0
 41113  1  0  0  0
 41 48  1  0  0  0
 42 43  1  0  0  0
 42 66  1  0  0  0
 42114  1  0  0  0
 42115  1  0  0  0
 43 44  1  0  0  0
 44116  1  0  0  0
 45 46  2  0  0  0
 45117  1  0  0  0
 46118  1  0  0  0
 47119  1  0  0  0
 47120  1  0  0  0
 48 56  1  0  0  0
 48 65  1  0  0  0
 48121  1  0  0  0
 49 50  1  0  0  0
 49 53  1  0  0  0
 49 64  1  0  0  0
 49122  1  0  0  0
 50 51  1  0  0  0
 50123  1  0  0  0
 50124  1  0  0  0
 51 52  1  0  0  0
 51125  1  0  0  0
 51126  1  0  0  0
 52127  1  0  0  0
 52128  1  0  0  0
 53 54  1  0  0  0
 54 55  2  0  0  0
 54129  1  0  0  0
 55 57  1  0  0  0
 55130  1  0  0  0
 56 69  2  0  0  0
 57 58  2  0  0  0
 57131  1  0  0  0
 58132  1  0  0  0
 59 60  1  0  0  0
 59 61  1  0  0  0
 59 62  1  0  0  0
 60133  1  0  0  0
 60134  1  0  0  0
 60135  1  0  0  0
 61136  1  0  0  0
 61137  1  0  0  0
 61138  1  0  0  0
 62139  1  0  0  0
 62140  1  0  0  0
 62141  1  0  0  0
 63 65  1  0  0  0
 63142  1  0  0  0
 63143  1  0  0  0
 63144  1  0  0  0
 64145  1  0  0  0
 65146  1  0  0  0
 68 82  1  0  0  0
 71 72  2  0  0  0
 71 74  1  0  0  0
 71147  1  0  0  0
 72 75  1  0  0  0
 72 81  1  0  0  0
 73 75  2  0  0  0
 73 76  1  0  0  0
 73 77  1  0  0  0
 74 76  2  0  0  0
 74 85  1  0  0  0
 75 86  1  0  0  0
 76 87  1  0  0  0
 77148  1  0  0  0
 77149  1  0  0  0
 77150  1  0  0  0
 78151  1  0  0  0
 78152  1  0  0  0
 78153  1  0  0  0
 78 83  1  0  0  0
 79 83  1  0  0  0
 79154  1  0  0  0
 79155  1  0  0  0
 79156  1  0  0  0
 80 85  1  0  0  0
 80157  1  0  0  0
 80158  1  0  0  0
 80159  1  0  0  0
 81 84  1  0  0  0
 81160  1  0  0  0
 81161  1  0  0  0
 82 83  1  0  0  0
 82162  1  0  0  0
 82163  1  0  0  0
 83 85  1  0  0  0
 84164  1  0  0  0
M  ISO  4   1 100  68 101  82 101  84 100
M  END
> <chiral flag>
0

> <version>
0

> <s_m_source_file>
/data/baiqing/PycharmProjects/Reinvent-master-3.2/result/LINK_invent/BTK/process_docking_weight1_custom_sum_contain_oxygen_bond_distance_aromatic_linkinvent_7_9_3/rearranged_h_0024.sdf

> <i_m_source_file_index>
2

> <r_mmod_Potential_Energy-OPLS-2005>
215.788955688477

> <r_mmod_Stretch_Energy-OPLS-2005>
136.069473266602

> <r_mmod_Bend_Energy-OPLS-2005>
186.754913330078

> <r_mmod_Torsional_Energy-OPLS-2005>
265.0556640625

> <r_mmod_Improper_Torsional_Energy-OPLS-2005>
8.43544960021973

> <r_mmod_Van_der_Waal_Energy-OPLS-2005>
142.676864624023

> <r_mmod_Electrostatic_Energy-OPLS-2005>
-415.394958496094

> <r_mmod_Solvation_Energy-OPLS-2005>
-197.821365356445

> <b_mmod_Minimization_Converged-OPLS-2005>
0

> <r_mmod_RMS_Derivative-OPLS-2005>
6.60550117492676

$$$$
2
                    3D
 Structure written by MMmdl.
156165  0  0  1  0            999 V2000
  -30.6844  -14.6083   20.5076 C   0  0  0  0  0  0
  -30.4204  -12.3737   19.4613 C   0  0  0  0  0  0
  -29.5009  -12.4948   18.2272 C   0  0  0  0  0  0
  -28.0219  -12.3405   18.6286 C   0  0  0  0  0  0
  -27.6479  -13.2223   19.8536 C   0  0  2  0  0  0
  -28.6919  -13.1066   20.9861 C   0  0  0  0  0  0
  -25.2530  -13.8186   20.5618 C   0  0  0  0  0  0
  -24.1815  -13.0443   20.9127 C   0  0  0  0  0  0
  -24.6383  -11.6913   20.8688 C   0  0  0  0  0  0
  -23.9056  -10.4286   21.0373 C   0  0  0  0  0  0
  -24.3614   -9.4205   21.9150 C   0  0  0  0  0  0
  -23.6291   -8.2246   22.0764 C   0  0  0  0  0  0
  -22.4275   -8.0273   21.3554 C   0  0  0  0  0  0
  -21.9883   -9.0236   20.4655 C   0  0  0  0  0  0
  -22.7219  -10.2115   20.3036 C   0  0  0  0  0  0
  -21.6868   -6.0721   22.5275 C   0  0  0  0  0  0
  -21.4023   -6.5626   23.8202 C   0  0  0  0  0  0
  -21.3644   -5.6788   24.9163 C   0  0  0  0  0  0
  -21.6051   -4.3050   24.7228 C   0  0  0  0  0  0
  -21.8822   -3.8134   23.4345 C   0  0  0  0  0  0
  -21.9195   -4.6945   22.3396 C   0  0  0  0  0  0
  -22.7824  -13.5218   21.1789 C   0  0  0  0  0  0
  -22.1670   -4.2121   21.0979 F   0  0  0  0  0  0
  -21.5606   -3.4539   25.7739 F   0  0  0  0  0  0
  -30.0097  -13.4203   20.4163 N   0  0  0  0  0  0
  -26.2960  -12.9379   20.3274 N   0  0  0  0  0  0
  -25.9310  -11.6529   20.5743 N   0  0  0  0  0  0
  -22.0498  -12.8223   22.0385 N   0  0  0  0  0  0
  -25.4247  -15.1893   20.4031 N   0  0  0  0  0  0
  -31.8595  -14.7033   20.1444 O   0  0  0  0  0  0
  -21.6666   -6.8856   21.4243 O   0  0  0  0  0  0
  -22.3484  -14.5509   20.6634 O   0  0  0  0  0  0
  -24.6242  -31.8597   23.2037 C   0  0  0  0  0  0
  -25.9084  -32.4790   23.8348 C   0  0  1  0  0  0
  -27.2410  -27.3506   20.1344 C   0  0  0  0  0  0
  -25.5888  -33.8586   24.2303 N   0  0  0  0  0  0
  -23.4163  -30.4746   21.5494 C   0  0  2  0  0  0
  -24.8694  -28.9325   20.1110 C   0  0  0  0  0  0
  -22.7463  -29.4580   22.5019 C   0  0  0  0  0  0
  -18.0273  -28.1339   22.8481 C   0  0  0  0  0  0
  -24.1509  -36.7326   23.2641 C   0  0  0  0  0  0
  -25.9502  -30.8006   21.3681 C   0  0  0  0  0  0
  -26.0316  -29.4297   20.7132 C   0  0  0  0  0  0
  -27.2226  -28.6511   20.7130 C   0  0  0  0  0  0
  -26.0635  -26.8933   19.5078 C   0  0  0  0  0  0
  -24.8878  -27.6714   19.4918 C   0  0  0  0  0  0
  -23.6281  -29.8024   20.1640 C   0  0  0  0  0  0
  -25.4122  -36.3092   24.0348 C   0  0  1  0  0  0
  -20.5863  -28.3638   23.1327 C   0  0  2  0  0  0
  -20.6761  -26.9365   22.5435 C   0  0  0  0  0  0
  -19.5756  -26.6360   21.5211 C   0  0  0  0  0  0
  -18.1931  -26.7872   22.1620 C   0  0  0  0  0  0
  -19.1514  -28.8820   23.2892 C   0  0  0  0  0  0
  -18.9414  -30.1424   23.8906 C   0  0  0  0  0  0
  -17.6410  -30.6549   24.0543 C   0  0  0  0  0  0
  -25.9041  -34.9455   23.5138 C   0  0  0  0  0  0
  -16.5320  -29.9031   23.6317 C   0  0  0  0  0  0
  -16.7249  -28.6447   23.0342 C   0  0  0  0  0  0
  -26.4464  -31.6551   25.0689 C   0  0  0  0  0  0
  -25.3704  -31.3631   26.1412 C   0  0  0  0  0  0
  -27.0298  -30.2995   24.6084 C   0  0  0  0  0  0
  -27.6073  -32.4228   25.7416 C   0  0  0  0  0  0
  -27.5597  -37.1830   24.8459 C   0  0  0  0  0  0
  -21.4185  -29.2981   22.3756 N   0  0  0  0  0  0
  -26.4323  -37.3763   23.9377 N   0  0  0  0  0  0
  -24.6821  -31.0601   22.1000 N   0  0  0  0  0  0
  -23.4185  -28.8141   23.3103 O   0  0  0  0  0  0
  -28.3453  -26.5003   20.2019 O   0  0  0  0  0  0
  -26.5631  -34.8907   22.4723 O   0  0  0  0  0  0
  -23.5421  -32.1374   23.7419 O   0  0  0  0  0  0
  -27.7723  -22.8567   20.8091 C   0  0  0  0  0  0
  -29.6132  -21.2166   20.7558 C   0  0  0  0  0  0
  -28.2227  -21.5100   20.8125 C   0  0  0  0  0  0
  -28.6800  -23.9336   20.7550 C   0  0  0  0  0  0
  -30.4426  -22.3727   20.6286 C   0  0  0  0  0  0
  -28.8389  -25.8756   22.4874 C   0  0  0  0  0  0
  -27.3746  -25.5743   22.3959 C   0  0  0  0  0  0
  -28.2708  -25.3803   21.1665 C   0  0  0  0  0  0
  -30.2790  -19.7908   20.9563 C   0  0  0  0  0  0
  -29.5848  -18.3822   20.6768 C   0  0  0  0  0  0
  -30.5387  -17.1322   20.9141 C   0  0  0  0  0  0
  -30.0003  -23.6627   20.6228 N   0  0  0  0  0  0
  -29.9791  -15.7339   20.8299 N   0  0  0  0  0  0
  -27.0262  -20.2750   20.9563 Cl  0  0  0  0  0  0
  -32.1619  -22.2107   20.5531 Cl  0  0  0  0  0  0
  -31.4676  -12.4626   19.1620 H   0  0  0  0  0  0
  -30.3361  -11.3878   19.9215 H   0  0  0  0  0  0
  -29.7675  -11.7432   17.4828 H   0  0  0  0  0  0
  -29.6480  -13.4676   17.7557 H   0  0  0  0  0  0
  -27.8399  -11.2892   18.8501 H   0  0  0  0  0  0
  -27.3753  -12.5831   17.7838 H   0  0  0  0  0  0
  -27.6625  -14.2535   19.5010 H   0  0  0  0  0  0
  -28.6909  -12.0988   21.4039 H   0  0  0  0  0  0
  -28.4403  -13.7749   21.8126 H   0  0  0  0  0  0
  -25.2754   -9.5688   22.4726 H   0  0  0  0  0  0
  -23.9992   -7.4646   22.7498 H   0  0  0  0  0  0
  -21.0797   -8.8729   19.8969 H   0  0  0  0  0  0
  -22.3644  -10.9635   19.6139 H   0  0  0  0  0  0
  -21.2059   -7.6144   23.9695 H   0  0  0  0  0  0
  -21.1448   -6.0523   25.9062 H   0  0  0  0  0  0
  -22.0626   -2.7602   23.2861 H   0  0  0  0  0  0
  -22.4170  -11.9885   22.4711 H   0  0  0  0  0  0
  -21.1125  -13.1226   22.2650 H   0  0  0  0  0  0
  -24.6579  -15.8452   20.5047 H   0  0  0  0  0  0
  -26.2810  -15.6250   20.0820 H   0  0  0  0  0  0
  -26.7157  -32.5450   23.1092 H   0  0  0  0  0  0
  -24.9916  -33.9714   25.0363 H   0  0  0  0  0  0
  -22.7080  -31.2920   21.4085 H   0  0  0  0  0  0
  -23.3766  -35.9669   23.3310 H   0  0  0  0  0  0
  -24.3595  -36.8940   22.2050 H   0  0  0  0  0  0
  -23.7281  -37.6548   23.6641 H   0  0  0  0  0  0
  -26.0689  -31.5641   20.5995 H   0  0  0  0  0  0
  -26.8354  -30.8512   21.9913 H   0  0  0  0  0  0
  -28.1125  -29.0282   21.1985 H   0  0  0  0  0  0
  -26.0487  -25.9155   19.0503 H   0  0  0  0  0  0
  -24.0018  -27.2836   19.0087 H   0  0  0  0  0  0
  -23.7212  -30.5726   19.3952 H   0  0  0  0  0  0
  -22.7557  -29.2101   19.8828 H   0  0  0  0  0  0
  -25.1321  -36.1973   25.0852 H   0  0  0  0  0  0
  -20.9900  -28.3142   24.1461 H   0  0  0  0  0  0
  -20.5640  -26.2209   23.3601 H   0  0  0  0  0  0
  -21.6635  -26.7395   22.1246 H   0  0  0  0  0  0
  -19.6922  -25.6286   21.1191 H   0  0  0  0  0  0
  -19.6684  -27.3216   20.6774 H   0  0  0  0  0  0
  -17.4197  -26.6600   21.4018 H   0  0  0  0  0  0
  -18.0359  -26.0003   22.9018 H   0  0  0  0  0  0
  -19.7890  -30.7251   24.2247 H   0  0  0  0  0  0
  -17.4952  -31.6210   24.5153 H   0  0  0  0  0  0
  -15.5318  -30.2923   23.7627 H   0  0  0  0  0  0
  -15.8655  -28.0771   22.7048 H   0  0  0  0  0  0
  -24.5937  -30.6939   25.7697 H   0  0  0  0  0  0
  -24.8816  -32.2745   26.4847 H   0  0  0  0  0  0
  -25.7994  -30.8779   27.0191 H   0  0  0  0  0  0
  -26.2878  -29.6790   24.1054 H   0  0  0  0  0  0
  -27.3977  -29.7169   25.4542 H   0  0  0  0  0  0
  -27.8723  -30.4331   23.9310 H   0  0  0  0  0  0
  -27.2774  -33.3547   26.2009 H   0  0  0  0  0  0
  -28.3813  -32.6752   25.0160 H   0  0  0  0  0  0
  -28.0802  -31.8328   26.5283 H   0  0  0  0  0  0
  -28.2644  -38.0105   24.7502 H   0  0  0  0  0  0
  -28.1067  -36.2642   24.6307 H   0  0  0  0  0  0
  -27.2296  -37.1526   25.8856 H   0  0  0  0  0  0
  -20.9390  -29.8665   21.6932 H   0  0  0  0  0  0
  -26.0239  -38.2863   24.1308 H   0  0  0  0  0  0
  -26.7210  -23.0603   20.9431 H   0  0  0  0  0  0
  -29.4459  -25.1820   23.0645 H   0  0  0  0  0  0
  -29.1238  -26.9232   22.5792 H   0  0  0  0  0  0
  -26.7067  -26.4264   22.4800 H   0  0  0  0  0  0
  -27.0191  -24.6812   22.9039 H   0  0  0  0  0  0
  -30.6156  -19.7836   21.9953 H   0  0  0  0  0  0
  -31.1990  -19.7788   20.3697 H   0  0  0  0  0  0
  -29.2221  -18.3554   19.6472 H   0  0  0  0  0  0
  -28.7169  -18.2561   21.3232 H   0  0  0  0  0  0
  -31.3773  -17.2278   20.2184 H   0  0  0  0  0  0
  -30.9832  -17.2268   21.9065 H   0  0  0  0  0  0
  -29.0138  -15.5968   21.0856 H   0  0  0  0  0  0
  1 25  1  0  0  0
  1 30  2  0  0  0
  1 83  1  0  0  0
  2  3  1  0  0  0
  2 25  1  0  0  0
  2 86  1  0  0  0
  2 87  1  0  0  0
  3  4  1  0  0  0
  3 88  1  0  0  0
  3 89  1  0  0  0
  4  5  1  0  0  0
  4 90  1  0  0  0
  4 91  1  0  0  0
  5  6  1  0  0  0
  5 26  1  0  0  0
  5 92  1  0  0  0
  6 25  1  0  0  0
  6 93  1  0  0  0
  6 94  1  0  0  0
  7  8  2  0  0  0
  7 26  1  0  0  0
  7 29  1  0  0  0
  8  9  1  0  0  0
  8 22  1  0  0  0
  9 10  1  0  0  0
  9 27  2  0  0  0
 10 11  2  0  0  0
 10 15  1  0  0  0
 11 12  1  0  0  0
 11 95  1  0  0  0
 12 13  2  0  0  0
 12 96  1  0  0  0
 13 14  1  0  0  0
 13 31  1  0  0  0
 14 15  2  0  0  0
 14 97  1  0  0  0
 15 98  1  0  0  0
 16 17  2  0  0  0
 16 21  1  0  0  0
 16 31  1  0  0  0
 17 18  1  0  0  0
 17 99  1  0  0  0
 18 19  2  0  0  0
 18100  1  0  0  0
 19 20  1  0  0  0
 19 24  1  0  0  0
 20 21  2  0  0  0
 20101  1  0  0  0
 21 23  1  0  0  0
 22 28  1  0  0  0
 22 32  2  0  0  0
 26 27  1  0  0  0
 28102  1  0  0  0
 28103  1  0  0  0
 29104  1  0  0  0
 29105  1  0  0  0
 33 34  1  0  0  0
 33 66  1  0  0  0
 33 70  2  0  0  0
 34 36  1  0  0  0
 34 59  1  0  0  0
 34106  1  0  0  0
 35 44  2  0  0  0
 35 45  1  0  0  0
 35 68  1  0  0  0
 36 56  1  0  0  0
 36107  1  0  0  0
 37 39  1  0  0  0
 37 47  1  0  0  0
 37 66  1  0  0  0
 37108  1  0  0  0
 38 43  2  0  0  0
 38 46  1  0  0  0
 38 47  1  0  0  0
 39 64  1  0  0  0
 39 67  2  0  0  0
 40 52  1  0  0  0
 40 53  2  0  0  0
 40 58  1  0  0  0
 41109  1  0  0  0
 41110  1  0  0  0
 41111  1  0  0  0
 41 48  1  0  0  0
 42 43  1  0  0  0
 42 66  1  0  0  0
 42112  1  0  0  0
 42113  1  0  0  0
 43 44  1  0  0  0
 44114  1  0  0  0
 45 46  2  0  0  0
 45115  1  0  0  0
 46116  1  0  0  0
 47117  1  0  0  0
 47118  1  0  0  0
 48 56  1  0  0  0
 48 65  1  0  0  0
 48119  1  0  0  0
 49 50  1  0  0  0
 49 53  1  0  0  0
 49 64  1  0  0  0
 49120  1  0  0  0
 50 51  1  0  0  0
 50121  1  0  0  0
 50122  1  0  0  0
 51 52  1  0  0  0
 51123  1  0  0  0
 51124  1  0  0  0
 52125  1  0  0  0
 52126  1  0  0  0
 53 54  1  0  0  0
 54 55  2  0  0  0
 54127  1  0  0  0
 55 57  1  0  0  0
 55128  1  0  0  0
 56 69  2  0  0  0
 57 58  2  0  0  0
 57129  1  0  0  0
 58130  1  0  0  0
 59 60  1  0  0  0
 59 61  1  0  0  0
 59 62  1  0  0  0
 60131  1  0  0  0
 60132  1  0  0  0
 60133  1  0  0  0
 61134  1  0  0  0
 61135  1  0  0  0
 61136  1  0  0  0
 62137  1  0  0  0
 62138  1  0  0  0
 62139  1  0  0  0
 63 65  1  0  0  0
 63140  1  0  0  0
 63141  1  0  0  0
 63142  1  0  0  0
 64143  1  0  0  0
 65144  1  0  0  0
 68 78  1  0  0  0
 71 73  2  0  0  0
 71 74  1  0  0  0
 71145  1  0  0  0
 72 73  1  0  0  0
 72 75  2  0  0  0
 72 79  1  0  0  0
 73 84  1  0  0  0
 74 78  1  0  0  0
 74 82  2  0  0  0
 75 82  1  0  0  0
 75 85  1  0  0  0
 76 77  1  0  0  0
 76 78  1  0  0  0
 76146  1  0  0  0
 76147  1  0  0  0
 77 78  1  0  0  0
 77148  1  0  0  0
 77149  1  0  0  0
 79 80  1  0  0  0
 79150  1  0  0  0
 79151  1  0  0  0
 80 81  1  0  0  0
 80152  1  0  0  0
 80153  1  0  0  0
 81 83  1  0  0  0
 81154  1  0  0  0
 81155  1  0  0  0
 83156  1  0  0  0
M  ISO  4   1 100  68 101  78 101  83 100
M  END
> <chiral flag>
0

> <version>
0

> <s_m_source_file>
/data/baiqing/PycharmProjects/Reinvent-master-3.2/result/LINK_invent/BTK/process_docking_weight1_custom_sum_contain_oxygen_bond_distance_aromatic_linkinvent_7_9_3/rearranged_h_0024.sdf

> <i_m_source_file_index>
3

> <r_mmod_Potential_Energy-OPLS-2005>
-117.350341796875

> <r_mmod_Stretch_Energy-OPLS-2005>
76.6428451538086

> <r_mmod_Bend_Energy-OPLS-2005>
150.037612915039

> <r_mmod_Torsional_Energy-OPLS-2005>
257.959167480469

> <r_mmod_Improper_Torsional_Energy-OPLS-2005>
6.61922597885132

> <r_mmod_Van_der_Waal_Energy-OPLS-2005>
143.148284912109

> <r_mmod_Electrostatic_Energy-OPLS-2005>
-580.290832519531

> <r_mmod_Solvation_Energy-OPLS-2005>
-213.718444824219

> <b_mmod_Minimization_Converged-OPLS-2005>
0

> <r_mmod_RMS_Derivative-OPLS-2005>
4.67747116088867

$$$$
3
                    3D
 Structure written by MMmdl.
176184  0  0  1  0            999 V2000
  -30.7866  -14.2918   20.5022 C   0  0  0  0  0  0
  -31.5358  -12.4718   18.9575 C   0  0  0  0  0  0
  -30.0839  -12.5982   17.6764 C   0  0  0  0  0  0
  -28.2764  -13.0410   18.2435 C   0  0  0  0  0  0
  -27.6830  -13.2636   20.0978 C   0  0  2  0  0  0
  -28.9679  -13.1189   21.5509 C   0  0  0  0  0  0
  -25.2384  -13.9450   20.9407 C   0  0  0  0  0  0
  -24.0747  -13.2080   21.1099 C   0  0  0  0  0  0
  -24.4576  -11.8519   21.0554 C   0  0  0  0  0  0
  -23.7797  -10.5070   21.1631 C   0  0  0  0  0  0
  -24.1417   -9.4999   22.1147 C   0  0  0  0  0  0
  -23.5205   -8.2432   22.1057 C   0  0  0  0  0  0
  -22.3789   -8.0517   21.3069 C   0  0  0  0  0  0
  -21.9529   -9.0857   20.4414 C   0  0  0  0  0  0
  -22.6766  -10.2800   20.3295 C   0  0  0  0  0  0
  -21.6476   -6.0979   22.4900 C   0  0  0  0  0  0
  -21.3779   -6.5952   23.7823 C   0  0  0  0  0  0
  -21.3506   -5.7135   24.8811 C   0  0  0  0  0  0
  -21.5989   -4.3370   24.6922 C   0  0  0  0  0  0
  -21.8558   -3.8537   23.3950 C   0  0  0  0  0  0
  -21.8954   -4.7283   22.3068 C   0  0  0  0  0  0
  -22.6673  -13.6647   21.2606 C   0  0  0  0  0  0
  -22.1334   -4.2446   21.0646 F   0  0  0  0  0  0
  -21.5665   -3.4883   25.7431 F   0  0  0  0  0  0
  -30.7400  -13.0951   20.7070 N   0  0  0  0  0  0
  -26.2438  -13.1019   20.5595 N   0  0  0  0  0  0
  -25.7142  -11.9389   20.7876 N   0  0  0  0  0  0
  -21.9264  -12.9586   22.0950 N   0  0  0  0  0  0
  -25.5173  -15.2999   20.9939 N   0  0  0  0  0  0
  -31.5943  -15.0397   19.9454 O   0  0  0  0  0  0
  -21.6190   -6.9219   21.3794 O   0  0  0  0  0  0
  -22.2635  -14.6466   20.6203 O   0  0  0  0  0  0
  -24.6337  -31.8651   23.2278 C   0  0  0  0  0  0
  -25.9196  -32.4831   23.8496 C   0  0  1  0  0  0
  -27.0592  -27.2623   20.0359 C   0  0  0  0  0  0
  -25.6003  -33.8636   24.2420 N   0  0  0  0  0  0
  -23.4228  -30.5194   21.5753 C   0  0  2  0  0  0
  -24.8325  -29.0444   20.0720 C   0  0  0  0  0  0
  -22.7568  -29.4664   22.4987 C   0  0  0  0  0  0
  -18.0277  -28.1393   22.8467 C   0  0  0  0  0  0
  -24.1464  -36.7303   23.2628 C   0  0  0  0  0  0
  -25.9867  -30.7752   21.4172 C   0  0  0  0  0  0
  -26.0160  -29.4266   20.7068 C   0  0  0  0  0  0
  -27.1344  -28.5325   20.7228 C   0  0  0  0  0  0
  -25.9116  -27.0873   19.2314 C   0  0  0  0  0  0
  -24.7836  -27.8776   19.3345 C   0  0  0  0  0  0
  -23.6195  -29.9213   20.1681 C   0  0  0  0  0  0
  -25.4078  -36.3151   24.0367 C   0  0  1  0  0  0
  -20.5878  -28.3710   23.1273 C   0  0  2  0  0  0
  -20.6795  -26.9456   22.5384 C   0  0  0  0  0  0
  -19.5787  -26.6387   21.5186 C   0  0  0  0  0  0
  -18.1950  -26.7926   22.1593 C   0  0  0  0  0  0
  -19.1536  -28.8864   23.2827 C   0  0  0  0  0  0
  -18.9473  -30.1444   23.8861 C   0  0  0  0  0  0
  -17.6488  -30.6600   24.0560 C   0  0  0  0  0  0
  -25.9028  -34.9502   23.5172 C   0  0  0  0  0  0
  -16.5352  -29.9105   23.6363 C   0  0  0  0  0  0
  -16.7256  -28.6516   23.0374 C   0  0  0  0  0  0
  -26.4513  -31.6664   25.0893 C   0  0  0  0  0  0
  -25.3740  -31.3808   26.1627 C   0  0  0  0  0  0
  -27.0362  -30.3076   24.6438 C   0  0  0  0  0  0
  -27.6071  -32.4403   25.7666 C   0  0  0  0  0  0
  -27.5585  -37.1806   24.8452 C   0  0  0  0  0  0
  -21.4281  -29.3088   22.3763 N   0  0  0  0  0  0
  -26.4256  -37.3856   23.9456 N   0  0  0  0  0  0
  -24.7031  -31.0641   22.1283 N   0  0  0  0  0  0
  -23.4274  -28.8153   23.3029 O   0  0  0  0  0  0
  -27.9217  -26.1347   20.1360 O   0  0  0  0  0  0
  -26.5601  -34.8951   22.4743 O   0  0  0  0  0  0
  -23.5513  -32.1504   23.7614 O   0  0  0  0  0  0
  -27.8136  -10.2891   17.9353 C   0  0  0  0  0  0
  -28.7818  -10.3515   18.9841 C   0  0  0  0  0  0
  -26.7257  -10.6628   18.7141 C   0  0  0  0  0  0
  -28.3229   -9.2279   19.6117 C   0  0  0  0  0  0
  -25.4250  -13.4740   17.6418 C   0  0  0  0  0  0
  -28.9363   -8.1488   20.5277 C   0  0  0  0  0  0
  -27.1695   -9.9762   21.4960 C   0  0  0  0  0  0
  -29.4920  -11.5072   19.7997 C   0  0  0  0  0  0
  -25.5145  -11.7625   18.0895 C   0  0  0  0  0  0
  -26.2080  -20.5302   19.6531 C   0  0  0  0  0  0
  -25.3420  -19.2720   18.8467 C   0  0  0  0  0  0
  -26.1983  -22.2123   19.4383 C   0  0  0  0  0  0
  -25.5804  -17.6015   19.0183 C   0  0  0  0  0  0
  -27.3424  -23.2727   20.0837 C   0  0  0  0  0  0
  -24.9254  -16.2752   18.1230 C   0  0  0  0  0  0
  -27.2358  -24.8373   19.7065 C   0  0  0  0  0  0
  -27.2146   -9.9284   19.9720 N   0  0  0  0  0  0
  -25.0713  -14.6639   18.3470 N   0  0  0  0  0  0
  -29.9647  -13.6562   19.7399 N   0  0  0  0  0  0
  -25.7145  -13.6768   16.4647 O   0  0  0  0  0  0
  -32.2570  -13.2061   18.5724 H   0  0  0  0  0  0
  -32.1420  -11.5971   18.9950 H   0  0  0  0  0  0
  -30.1125  -11.6553   17.0809 H   0  0  0  0  0  0
  -30.3909  -13.3443   16.9325 H   0  0  0  0  0  0
  -27.7030  -12.6298   17.4579 H   0  0  0  0  0  0
  -28.1223  -14.0467   17.8733 H   0  0  0  0  0  0
  -27.6737  -14.3670   20.0159 H   0  0  0  0  0  0
  -28.9183  -12.3264   22.2731 H   0  0  0  0  0  0
  -28.9279  -13.9939   22.1686 H   0  0  0  0  0  0
  -24.8111   -9.5555   22.9636 H   0  0  0  0  0  0
  -23.8775   -7.4238   22.7493 H   0  0  0  0  0  0
  -21.0800   -8.9456   19.7840 H   0  0  0  0  0  0
  -22.3514  -11.0842   19.6597 H   0  0  0  0  0  0
  -21.1776   -7.6484   23.9347 H   0  0  0  0  0  0
  -21.1744   -6.1033   25.8671 H   0  0  0  0  0  0
  -22.0744   -2.8159   23.2323 H   0  0  0  0  0  0
  -22.3867  -12.3682   22.7677 H   0  0  0  0  0  0
  -20.9539  -13.2002   22.2299 H   0  0  0  0  0  0
  -26.3870  -15.5813   20.6024 H   0  0  0  0  0  0
  -24.9667  -16.0424   21.4433 H   0  0  0  0  0  0
  -26.7260  -32.5471   23.1226 H   0  0  0  0  0  0
  -25.0209  -33.9742   25.0622 H   0  0  0  0  0  0
  -22.7137  -31.3496   21.4616 H   0  0  0  0  0  0
  -23.3802  -35.9555   23.3264 H   0  0  0  0  0  0
  -24.3547  -36.8948   22.2041 H   0  0  0  0  0  0
  -23.7118  -37.6465   23.6628 H   0  0  0  0  0  0
  -26.1444  -31.5543   20.6662 H   0  0  0  0  0  0
  -26.8675  -30.7908   22.0547 H   0  0  0  0  0  0
  -28.0073  -28.7883   21.3007 H   0  0  0  0  0  0
  -25.7764  -26.2818   18.5275 H   0  0  0  0  0  0
  -23.8952  -27.6176   18.7631 H   0  0  0  0  0  0
  -23.7858  -30.7333   19.4595 H   0  0  0  0  0  0
  -22.7346  -29.3635   19.8378 H   0  0  0  0  0  0
  -25.1237  -36.2006   25.0857 H   0  0  0  0  0  0
  -20.9784  -28.3199   24.1446 H   0  0  0  0  0  0
  -20.5712  -26.2324   23.3579 H   0  0  0  0  0  0
  -21.6682  -26.7579   22.1187 H   0  0  0  0  0  0
  -19.7014  -25.6289   21.1274 H   0  0  0  0  0  0
  -19.6692  -27.3147   20.6680 H   0  0  0  0  0  0
  -17.4221  -26.6591   21.3983 H   0  0  0  0  0  0
  -18.0418  -26.0031   22.8980 H   0  0  0  0  0  0
  -19.7939  -30.7242   24.2242 H   0  0  0  0  0  0
  -17.5067  -31.6303   24.5178 H   0  0  0  0  0  0
  -15.5357  -30.3058   23.7734 H   0  0  0  0  0  0
  -15.8616  -28.0855   22.7162 H   0  0  0  0  0  0
  -24.5925  -30.7098   25.8033 H   0  0  0  0  0  0
  -24.8916  -32.2957   26.5095 H   0  0  0  0  0  0
  -25.8096  -30.9031   27.0419 H   0  0  0  0  0  0
  -26.2949  -29.6876   24.1392 H   0  0  0  0  0  0
  -27.3911  -29.7291   25.4987 H   0  0  0  0  0  0
  -27.8911  -30.4392   23.9806 H   0  0  0  0  0  0
  -27.2661  -33.3688   26.2291 H   0  0  0  0  0  0
  -28.3865  -32.7006   25.0483 H   0  0  0  0  0  0
  -28.0768  -31.8509   26.5572 H   0  0  0  0  0  0
  -28.2579  -38.0149   24.7677 H   0  0  0  0  0  0
  -28.1111  -36.2705   24.6071 H   0  0  0  0  0  0
  -27.2326  -37.1233   25.8855 H   0  0  0  0  0  0
  -20.9504  -29.8749   21.6917 H   0  0  0  0  0  0
  -26.0175  -38.2914   24.1583 H   0  0  0  0  0  0
  -27.9054  -10.5199   16.8923 H   0  0  0  0  0  0
  -29.5369   -7.3842   20.0888 H   0  0  0  0  0  0
  -28.1625   -7.5754   21.0711 H   0  0  0  0  0  0
  -29.6173   -8.5775   21.2861 H   0  0  0  0  0  0
  -26.3423  -10.2844   22.0763 H   0  0  0  0  0  0
  -27.7692  -10.8546   21.6392 H   0  0  0  0  0  0
  -27.7972   -9.3673   22.1325 H   0  0  0  0  0  0
  -30.3114  -10.8444   19.5914 H   0  0  0  0  0  0
  -29.5944  -11.0735   20.7701 H   0  0  0  0  0  0
  -24.5156  -11.4131   18.2286 H   0  0  0  0  0  0
  -25.6907  -11.4419   17.0477 H   0  0  0  0  0  0
  -27.2613  -20.2658   19.5172 H   0  0  0  0  0  0
  -25.9861  -20.3976   20.7161 H   0  0  0  0  0  0
  -25.3326  -19.4975   17.7750 H   0  0  0  0  0  0
  -24.3013  -19.4097   19.1447 H   0  0  0  0  0  0
  -25.2392  -22.6137   19.7823 H   0  0  0  0  0  0
  -26.1575  -22.4280   18.3526 H   0  0  0  0  0  0
  -25.2173  -17.4717   20.0308 H   0  0  0  0  0  0
  -26.6515  -17.4382   19.1449 H   0  0  0  0  0  0
  -28.3280  -22.9349   19.8032 H   0  0  0  0  0  0
  -27.2793  -23.2332   21.1619 H   0  0  0  0  0  0
  -25.1080  -16.4044   17.0550 H   0  0  0  0  0  0
  -23.8475  -16.4432   18.2963 H   0  0  0  0  0  0
  -26.2063  -24.9304   20.0464 H   0  0  0  0  0  0
  -27.3289  -24.8823   18.6195 H   0  0  0  0  0  0
  -24.6166  -14.3984   19.2186 H   0  0  0  0  0  0
  -29.5330  -14.1820   19.0443 H   0  0  0  0  0  0
  1 25  1  0  0  0
  1 30  2  0  0  0
  1 89  1  0  0  0
  2  3  1  0  0  0
  2 25  1  0  0  0
  2 91  1  0  0  0
  2 92  1  0  0  0
  3  4  1  0  0  0
  3 93  1  0  0  0
  3 94  1  0  0  0
  4  5  1  0  0  0
  4 95  1  0  0  0
  4 96  1  0  0  0
  5  6  1  0  0  0
  5 26  1  0  0  0
  5 97  1  0  0  0
  6 25  1  0  0  0
  6 98  1  0  0  0
  6 99  1  0  0  0
  7  8  2  0  0  0
  7 26  1  0  0  0
  7 29  1  0  0  0
  8  9  1  0  0  0
  8 22  1  0  0  0
  9 10  1  0  0  0
  9 27  2  0  0  0
 10 11  2  0  0  0
 10 15  1  0  0  0
 11 12  1  0  0  0
 11100  1  0  0  0
 12 13  2  0  0  0
 12101  1  0  0  0
 13 14  1  0  0  0
 13 31  1  0  0  0
 14 15  2  0  0  0
 14102  1  0  0  0
 15103  1  0  0  0
 16 17  2  0  0  0
 16 21  1  0  0  0
 16 31  1  0  0  0
 17 18  1  0  0  0
 17104  1  0  0  0
 18 19  2  0  0  0
 18105  1  0  0  0
 19 20  1  0  0  0
 19 24  1  0  0  0
 20 21  2  0  0  0
 20106  1  0  0  0
 21 23  1  0  0  0
 22 28  1  0  0  0
 22 32  2  0  0  0
 26 27  1  0  0  0
 28107  1  0  0  0
 28108  1  0  0  0
 29109  1  0  0  0
 29110  1  0  0  0
 33 34  1  0  0  0
 33 66  1  0  0  0
 33 70  2  0  0  0
 34 36  1  0  0  0
 34 59  1  0  0  0
 34111  1  0  0  0
 35 44  2  0  0  0
 35 45  1  0  0  0
 35 68  1  0  0  0
 36 56  1  0  0  0
 36112  1  0  0  0
 37 39  1  0  0  0
 37 47  1  0  0  0
 37 66  1  0  0  0
 37113  1  0  0  0
 38 43  2  0  0  0
 38 46  1  0  0  0
 38 47  1  0  0  0
 39 64  1  0  0  0
 39 67  2  0  0  0
 40 52  1  0  0  0
 40 53  2  0  0  0
 40 58  1  0  0  0
 41114  1  0  0  0
 41115  1  0  0  0
 41116  1  0  0  0
 41 48  1  0  0  0
 42 43  1  0  0  0
 42 66  1  0  0  0
 42117  1  0  0  0
 42118  1  0  0  0
 43 44  1  0  0  0
 44119  1  0  0  0
 45 46  2  0  0  0
 45120  1  0  0  0
 46121  1  0  0  0
 47122  1  0  0  0
 47123  1  0  0  0
 48 56  1  0  0  0
 48 65  1  0  0  0
 48124  1  0  0  0
 49 50  1  0  0  0
 49 53  1  0  0  0
 49 64  1  0  0  0
 49125  1  0  0  0
 50 51  1  0  0  0
 50126  1  0  0  0
 50127  1  0  0  0
 51 52  1  0  0  0
 51128  1  0  0  0
 51129  1  0  0  0
 52130  1  0  0  0
 52131  1  0  0  0
 53 54  1  0  0  0
 54 55  2  0  0  0
 54132  1  0  0  0
 55 57  1  0  0  0
 55133  1  0  0  0
 56 69  2  0  0  0
 57 58  2  0  0  0
 57134  1  0  0  0
 58135  1  0  0  0
 59 60  1  0  0  0
 59 61  1  0  0  0
 59 62  1  0  0  0
 60136  1  0  0  0
 60137  1  0  0  0
 60138  1  0  0  0
 61139  1  0  0  0
 61140  1  0  0  0
 61141  1  0  0  0
 62142  1  0  0  0
 62143  1  0  0  0
 62144  1  0  0  0
 63 65  1  0  0  0
 63145  1  0  0  0
 63146  1  0  0  0
 63147  1  0  0  0
 64148  1  0  0  0
 65149  1  0  0  0
 68 86  1  0  0  0
 71 72  1  0  0  0
 71 73  2  0  0  0
 71150  1  0  0  0
 72 74  2  0  0  0
 72 78  1  0  0  0
 73 79  1  0  0  0
 73 87  1  0  0  0
 74 76  1  0  0  0
 74 87  1  0  0  0
 75 79  1  0  0  0
 75 88  1  0  0  0
 75 90  2  0  0  0
 76151  1  0  0  0
 76152  1  0  0  0
 76153  1  0  0  0
 77 87  1  0  0  0
 77154  1  0  0  0
 77155  1  0  0  0
 77156  1  0  0  0
 78 89  1  0  0  0
 78157  1  0  0  0
 78158  1  0  0  0
 79159  1  0  0  0
 79160  1  0  0  0
 80 81  1  0  0  0
 80 82  1  0  0  0
 80161  1  0  0  0
 80162  1  0  0  0
 81 83  1  0  0  0
 81163  1  0  0  0
 81164  1  0  0  0
 82 84  1  0  0  0
 82165  1  0  0  0
 82166  1  0  0  0
 83 85  1  0  0  0
 83167  1  0  0  0
 83168  1  0  0  0
 84 86  1  0  0  0
 84169  1  0  0  0
 84170  1  0  0  0
 85 88  1  0  0  0
 85171  1  0  0  0
 85172  1  0  0  0
 86173  1  0  0  0
 86174  1  0  0  0
 88175  1  0  0  0
 89176  1  0  0  0
M  ISO  4   1 100  68 101  86 101  89 100
M  END
> <chiral flag>
0

> <version>
0

> <s_m_source_file>
/data/baiqing/PycharmProjects/Reinvent-master-3.2/result/LINK_invent/BTK/process_docking_weight1_custom_sum_contain_oxygen_bond_distance_aromatic_linkinvent_7_9_3/rearranged_h_0024.sdf

> <i_m_source_file_index>
4

> <r_mmod_Potential_Energy-OPLS-2005>
6981.8515625

> <r_mmod_Stretch_Energy-OPLS-2005>
3034.40673828125

> <r_mmod_Bend_Energy-OPLS-2005>
1447.15417480469

> <r_mmod_Torsional_Energy-OPLS-2005>
634.712158203125

> <r_mmod_Improper_Torsional_Energy-OPLS-2005>
96.320198059082

> <r_mmod_Van_der_Waal_Energy-OPLS-2005>
1816.59094238281

> <r_mmod_Electrostatic_Energy-OPLS-2005>
-439.236267089844

> <r_mmod_Solvation_Energy-OPLS-2005>
-231.111419677734

> <b_mmod_Minimization_Converged-OPLS-2005>
0

> <r_mmod_RMS_Derivative-OPLS-2005>
76.3594589233398

$$$$
4
                    3D
 Structure written by MMmdl.
165173  0  0  1  0            999 V2000
  -30.7334  -14.4429   20.5826 C   0  0  0  0  0  0
  -30.4301  -12.3002   19.3932 C   0  0  0  0  0  0
  -29.4904  -12.5093   18.1867 C   0  0  0  0  0  0
  -28.0140  -12.3733   18.6104 C   0  0  0  0  0  0
  -27.6722  -13.2013   19.8767 C   0  0  2  0  0  0
  -28.7236  -12.9640   20.9877 C   0  0  0  0  0  0
  -25.2687  -13.8136   20.5673 C   0  0  0  0  0  0
  -24.1900  -13.0421   20.9175 C   0  0  0  0  0  0
  -24.6450  -11.6892   20.8747 C   0  0  0  0  0  0
  -23.9088  -10.4289   21.0421 C   0  0  0  0  0  0
  -24.3635   -9.4187   21.9190 C   0  0  0  0  0  0
  -23.6293   -8.2228   22.0752 C   0  0  0  0  0  0
  -22.4281   -8.0293   21.3543 C   0  0  0  0  0  0
  -21.9932   -9.0265   20.4643 C   0  0  0  0  0  0
  -22.7270  -10.2140   20.3052 C   0  0  0  0  0  0
  -21.6855   -6.0739   22.5275 C   0  0  0  0  0  0
  -21.4010   -6.5639   23.8212 C   0  0  0  0  0  0
  -21.3651   -5.6791   24.9174 C   0  0  0  0  0  0
  -21.6044   -4.3055   24.7227 C   0  0  0  0  0  0
  -21.8817   -3.8152   23.4348 C   0  0  0  0  0  0
  -21.9191   -4.6964   22.3406 C   0  0  0  0  0  0
  -22.7946  -13.5235   21.1820 C   0  0  0  0  0  0
  -22.1663   -4.2153   21.0980 F   0  0  0  0  0  0
  -21.5624   -3.4539   25.7739 F   0  0  0  0  0  0
  -30.0557  -13.2717   20.4324 N   0  0  0  0  0  0
  -26.3113  -12.9286   20.3401 N   0  0  0  0  0  0
  -25.9377  -11.6463   20.5795 N   0  0  0  0  0  0
  -22.0553  -12.8222   22.0370 N   0  0  0  0  0  0
  -25.4431  -15.1840   20.4056 N   0  0  0  0  0  0
  -31.8669  -14.6219   20.1449 O   0  0  0  0  0  0
  -21.6635   -6.8894   21.4249 O   0  0  0  0  0  0
  -22.3631  -14.5545   20.6682 O   0  0  0  0  0  0
  -24.6026  -31.8714   23.2109 C   0  0  0  0  0  0
  -25.8930  -32.4827   23.8372 C   0  0  1  0  0  0
  -27.2213  -27.4528   20.0912 C   0  0  0  0  0  0
  -25.5791  -33.8642   24.2250 N   0  0  0  0  0  0
  -23.3944  -30.4965   21.5480 C   0  0  2  0  0  0
  -24.8418  -28.9772   20.1059 C   0  0  0  0  0  0
  -22.7376  -29.4650   22.4929 C   0  0  0  0  0  0
  -18.0280  -28.1437   22.8472 C   0  0  0  0  0  0
  -24.1508  -36.7335   23.2639 C   0  0  0  0  0  0
  -25.9267  -30.8362   21.3787 C   0  0  0  0  0  0
  -26.0006  -29.4805   20.7080 C   0  0  0  0  0  0
  -27.1961  -28.7280   20.6929 C   0  0  0  0  0  0
  -26.0501  -26.9634   19.4749 C   0  0  0  0  0  0
  -24.8616  -27.7172   19.4843 C   0  0  0  0  0  0
  -23.6038  -29.8427   20.1573 C   0  0  0  0  0  0
  -25.4145  -36.3113   24.0300 C   0  0  1  0  0  0
  -20.5868  -28.3705   23.1348 C   0  0  2  0  0  0
  -20.6803  -26.9446   22.5449 C   0  0  0  0  0  0
  -19.5778  -26.6437   21.5257 C   0  0  0  0  0  0
  -18.1938  -26.7974   22.1636 C   0  0  0  0  0  0
  -19.1525  -28.8878   23.2889 C   0  0  0  0  0  0
  -18.9452  -30.1499   23.8875 C   0  0  0  0  0  0
  -17.6450  -30.6597   24.0610 C   0  0  0  0  0  0
  -25.9059  -34.9481   23.5092 C   0  0  0  0  0  0
  -16.5338  -29.9123   23.6363 C   0  0  0  0  0  0
  -16.7269  -28.6590   23.0283 C   0  0  0  0  0  0
  -26.4393  -31.6618   25.0701 C   0  0  0  0  0  0
  -25.3698  -31.3745   26.1489 C   0  0  0  0  0  0
  -27.0221  -30.3028   24.6116 C   0  0  0  0  0  0
  -27.5948  -32.4385   25.7437 C   0  0  0  0  0  0
  -27.5608  -37.1809   24.8439 C   0  0  0  0  0  0
  -21.4111  -29.3029   22.3690 N   0  0  0  0  0  0
  -26.4347  -37.3778   23.9362 N   0  0  0  0  0  0
  -24.6570  -31.0852   22.1000 N   0  0  0  0  0  0
  -23.4154  -28.8197   23.2957 O   0  0  0  0  0  0
  -28.3861  -26.7259   20.0723 O   0  0  0  0  0  0
  -26.5687  -34.8914   22.4698 O   0  0  0  0  0  0
  -23.5230  -32.1481   23.7501 O   0  0  0  0  0  0
  -31.0964  -24.1770   21.9687 C   0  0  0  0  0  0
  -30.0135  -23.3652   22.3641 C   0  0  0  0  0  0
  -31.4600  -21.3741   22.1115 C   0  0  0  0  0  0
  -32.3330  -23.6118   21.6203 C   0  0  0  0  0  0
  -30.2025  -21.9577   22.4317 C   0  0  0  0  0  0
  -32.5246  -22.2154   21.6954 C   0  0  0  0  0  0
  -31.8871  -17.6620   19.3933 C   0  0  0  0  0  0
  -28.6789  -24.0188   22.7531 C   0  0  0  0  0  0
  -31.6508  -19.8506   22.2041 C   0  0  0  0  0  0
  -28.3480  -25.3758   22.0850 C   0  0  0  0  0  0
  -30.0292  -16.9084   21.0748 C   0  0  0  0  0  0
  -28.3037  -25.3753   20.5445 C   0  0  0  0  0  0
  -31.3256  -17.7405   20.8324 C   0  0  2  0  0  0
  -29.9877  -15.4322   21.0995 N   0  0  0  0  0  0
  -30.9717  -19.1633   21.0838 N   0  3  0  0  0  0
  -33.6014  -24.6609   21.0935 Cl  0  0  0  0  0  0
  -28.8852  -20.9253   22.8829 Cl  0  0  0  0  0  0
  -34.0736  -21.5610   21.2741 Cl  0  0  0  0  0  0
  -31.4704  -12.4030   19.0804 H   0  0  0  0  0  0
  -30.3322  -11.2822   19.7705 H   0  0  0  0  0  0
  -29.7138  -11.7855   17.4002 H   0  0  0  0  0  0
  -29.6583  -13.4934   17.7473 H   0  0  0  0  0  0
  -27.8219  -11.3165   18.7994 H   0  0  0  0  0  0
  -27.3585  -12.6586   17.7868 H   0  0  0  0  0  0
  -27.7227  -14.2506   19.5872 H   0  0  0  0  0  0
  -28.7047  -11.9220   21.3116 H   0  0  0  0  0  0
  -28.4933  -13.5488   21.8801 H   0  0  0  0  0  0
  -25.2782   -9.5650   22.4768 H   0  0  0  0  0  0
  -23.9994   -7.4623   22.7485 H   0  0  0  0  0  0
  -21.0852   -8.8800   19.8957 H   0  0  0  0  0  0
  -22.3743  -10.9684   19.6162 H   0  0  0  0  0  0
  -21.2003   -7.6146   23.9721 H   0  0  0  0  0  0
  -21.1469   -6.0520   25.9080 H   0  0  0  0  0  0
  -22.0604   -2.7616   23.2849 H   0  0  0  0  0  0
  -22.4144  -11.9868   22.4738 H   0  0  0  0  0  0
  -21.1170  -13.1272   22.2536 H   0  0  0  0  0  0
  -24.6802  -15.8451   20.5072 H   0  0  0  0  0  0
  -26.2931  -15.6157   20.0635 H   0  0  0  0  0  0
  -26.6976  -32.5500   23.1106 H   0  0  0  0  0  0
  -24.9745  -33.9834   25.0236 H   0  0  0  0  0  0
  -22.6809  -31.3127   21.4144 H   0  0  0  0  0  0
  -23.3777  -35.9666   23.3322 H   0  0  0  0  0  0
  -24.3559  -36.8969   22.2044 H   0  0  0  0  0  0
  -23.7319  -37.6548   23.6704 H   0  0  0  0  0  0
  -26.0878  -31.6265   20.6450 H   0  0  0  0  0  0
  -26.7936  -30.8453   22.0282 H   0  0  0  0  0  0
  -28.0953  -29.1189   21.1484 H   0  0  0  0  0  0
  -26.0526  -26.0123   18.9635 H   0  0  0  0  0  0
  -23.9765  -27.3345   18.9966 H   0  0  0  0  0  0
  -23.7047  -30.6288   19.4069 H   0  0  0  0  0  0
  -22.7292  -29.2651   19.8532 H   0  0  0  0  0  0
  -25.1352  -36.1969   25.0803 H   0  0  0  0  0  0
  -20.9951  -28.3327   24.1487 H   0  0  0  0  0  0
  -20.5856  -26.2293   23.3629 H   0  0  0  0  0  0
  -21.6663  -26.7616   22.1154 H   0  0  0  0  0  0
  -19.6986  -25.6379   21.1247 H   0  0  0  0  0  0
  -19.6737  -27.3302   20.6837 H   0  0  0  0  0  0
  -17.4234  -26.6724   21.4005 H   0  0  0  0  0  0
  -18.0295  -26.0138   22.9047 H   0  0  0  0  0  0
  -19.7921  -30.7335   24.2196 H   0  0  0  0  0  0
  -17.5012  -31.6269   24.5248 H   0  0  0  0  0  0
  -15.5347  -30.2995   23.7769 H   0  0  0  0  0  0
  -15.8672  -28.0980   22.6900 H   0  0  0  0  0  0
  -24.5720  -30.7258   25.7812 H   0  0  0  0  0  0
  -24.9070  -32.2935   26.5075 H   0  0  0  0  0  0
  -25.8036  -30.8740   27.0149 H   0  0  0  0  0  0
  -26.2765  -29.6798   24.1153 H   0  0  0  0  0  0
  -27.3943  -29.7228   25.4564 H   0  0  0  0  0  0
  -27.8625  -30.4301   23.9306 H   0  0  0  0  0  0
  -27.2497  -33.3639   26.2060 H   0  0  0  0  0  0
  -28.3690  -32.7056   25.0244 H   0  0  0  0  0  0
  -28.0695  -31.8527   26.5311 H   0  0  0  0  0  0
  -28.2613  -38.0106   24.7497 H   0  0  0  0  0  0
  -28.1129  -36.2647   24.6296 H   0  0  0  0  0  0
  -27.2288  -37.1460   25.8820 H   0  0  0  0  0  0
  -20.9267  -29.8670   21.6857 H   0  0  0  0  0  0
  -26.0238  -38.2866   24.1316 H   0  0  0  0  0  0
  -30.9948  -25.2494   21.9072 H   0  0  0  0  0  0
  -32.2138  -16.6721   19.1024 H   0  0  0  0  0  0
  -32.7723  -18.2903   19.2835 H   0  0  0  0  0  0
  -31.1592  -17.9849   18.6476 H   0  0  0  0  0  0
  -28.7059  -24.1756   23.8310 H   0  0  0  0  0  0
  -27.8461  -23.3387   22.5771 H   0  0  0  0  0  0
  -31.2568  -19.4816   23.1525 H   0  0  0  0  0  0
  -32.7052  -19.5785   22.2122 H   0  0  0  0  0  0
  -29.0613  -26.1274   22.4220 H   0  0  0  0  0  0
  -27.3798  -25.7170   22.4562 H   0  0  0  0  0  0
  -29.2845  -17.2016   20.3339 H   0  0  0  0  0  0
  -29.6155  -17.2176   22.0366 H   0  0  0  0  0  0
  -27.4235  -24.8358   20.1925 H   0  0  0  0  0  0
  -29.1567  -24.8419   20.1287 H   0  0  0  0  0  0
  -32.1060  -17.4344   21.5344 H   0  0  0  0  0  0
  -29.0974  -15.0813   21.4152 H   0  0  0  0  0  0
  -31.1314  -19.6914   20.2413 H   0  0  0  0  0  0
  -29.9821  -19.2115   21.2766 H   0  0  0  0  0  0
  1 25  1  0  0  0
  1 30  2  0  0  0
  1 84  1  0  0  0
  2  3  1  0  0  0
  2 25  1  0  0  0
  2 89  1  0  0  0
  2 90  1  0  0  0
  3  4  1  0  0  0
  3 91  1  0  0  0
  3 92  1  0  0  0
  4  5  1  0  0  0
  4 93  1  0  0  0
  4 94  1  0  0  0
  5  6  1  0  0  0
  5 26  1  0  0  0
  5 95  1  0  0  0
  6 25  1  0  0  0
  6 96  1  0  0  0
  6 97  1  0  0  0
  7  8  2  0  0  0
  7 26  1  0  0  0
  7 29  1  0  0  0
  8  9  1  0  0  0
  8 22  1  0  0  0
  9 10  1  0  0  0
  9 27  2  0  0  0
 10 11  2  0  0  0
 10 15  1  0  0  0
 11 12  1  0  0  0
 11 98  1  0  0  0
 12 13  2  0  0  0
 12 99  1  0  0  0
 13 14  1  0  0  0
 13 31  1  0  0  0
 14 15  2  0  0  0
 14100  1  0  0  0
 15101  1  0  0  0
 16 17  2  0  0  0
 16 21  1  0  0  0
 16 31  1  0  0  0
 17 18  1  0  0  0
 17102  1  0  0  0
 18 19  2  0  0  0
 18103  1  0  0  0
 19 20  1  0  0  0
 19 24  1  0  0  0
 20 21  2  0  0  0
 20104  1  0  0  0
 21 23  1  0  0  0
 22 28  1  0  0  0
 22 32  2  0  0  0
 26 27  1  0  0  0
 28105  1  0  0  0
 28106  1  0  0  0
 29107  1  0  0  0
 29108  1  0  0  0
 33 34  1  0  0  0
 33 66  1  0  0  0
 33 70  2  0  0  0
 34 36  1  0  0  0
 34 59  1  0  0  0
 34109  1  0  0  0
 35 44  2  0  0  0
 35 45  1  0  0  0
 35 68  1  0  0  0
 36 56  1  0  0  0
 36110  1  0  0  0
 37 39  1  0  0  0
 37 47  1  0  0  0
 37 66  1  0  0  0
 37111  1  0  0  0
 38 43  2  0  0  0
 38 46  1  0  0  0
 38 47  1  0  0  0
 39 64  1  0  0  0
 39 67  2  0  0  0
 40 52  1  0  0  0
 40 53  2  0  0  0
 40 58  1  0  0  0
 41112  1  0  0  0
 41113  1  0  0  0
 41114  1  0  0  0
 41 48  1  0  0  0
 42 43  1  0  0  0
 42 66  1  0  0  0
 42115  1  0  0  0
 42116  1  0  0  0
 43 44  1  0  0  0
 44117  1  0  0  0
 45 46  2  0  0  0
 45118  1  0  0  0
 46119  1  0  0  0
 47120  1  0  0  0
 47121  1  0  0  0
 48 56  1  0  0  0
 48 65  1  0  0  0
 48122  1  0  0  0
 49 50  1  0  0  0
 49 53  1  0  0  0
 49 64  1  0  0  0
 49123  1  0  0  0
 50 51  1  0  0  0
 50124  1  0  0  0
 50125  1  0  0  0
 51 52  1  0  0  0
 51126  1  0  0  0
 51127  1  0  0  0
 52128  1  0  0  0
 52129  1  0  0  0
 53 54  1  0  0  0
 54 55  2  0  0  0
 54130  1  0  0  0
 55 57  1  0  0  0
 55131  1  0  0  0
 56 69  2  0  0  0
 57 58  2  0  0  0
 57132  1  0  0  0
 58133  1  0  0  0
 59 60  1  0  0  0
 59 61  1  0  0  0
 59 62  1  0  0  0
 60134  1  0  0  0
 60135  1  0  0  0
 60136  1  0  0  0
 61137  1  0  0  0
 61138  1  0  0  0
 61139  1  0  0  0
 62140  1  0  0  0
 62141  1  0  0  0
 62142  1  0  0  0
 63 65  1  0  0  0
 63143  1  0  0  0
 63144  1  0  0  0
 63145  1  0  0  0
 64146  1  0  0  0
 65147  1  0  0  0
 68 82  1  0  0  0
 71 72  2  0  0  0
 71 74  1  0  0  0
 71148  1  0  0  0
 72 75  1  0  0  0
 72 78  1  0  0  0
 73 75  2  0  0  0
 73 76  1  0  0  0
 73 79  1  0  0  0
 74 76  2  0  0  0
 74 86  1  0  0  0
 75 87  1  0  0  0
 76 88  1  0  0  0
 77149  1  0  0  0
 77150  1  0  0  0
 77151  1  0  0  0
 77 83  1  0  0  0
 78 80  1  0  0  0
 78152  1  0  0  0
 78153  1  0  0  0
 79 85  1  0  0  0
 79154  1  0  0  0
 79155  1  0  0  0
 80 82  1  0  0  0
 80156  1  0  0  0
 80157  1  0  0  0
 81 83  1  0  0  0
 81 84  1  0  0  0
 81158  1  0  0  0
 81159  1  0  0  0
 82160  1  0  0  0
 82161  1  0  0  0
 83 85  1  0  0  0
 83162  1  0  0  0
 84163  1  0  0  0
 85164  1  0  0  0
 85165  1  0  0  0
M  CHG  1  85   1
M  ISO  4   1 100  68 101  82 101  84 100
M  END
> <chiral flag>
0

> <version>
0

> <s_m_source_file>
/data/baiqing/PycharmProjects/Reinvent-master-3.2/result/LINK_invent/BTK/process_docking_weight1_custom_sum_contain_oxygen_bond_distance_aromatic_linkinvent_7_9_3/rearranged_h_0024.sdf

> <i_m_source_file_index>
5

> <r_mmod_Potential_Energy-OPLS-2005>
-281.996246337891

> <r_mmod_Stretch_Energy-OPLS-2005>
38.2815704345703

> <r_mmod_Bend_Energy-OPLS-2005>
129.615936279297

> <r_mmod_Torsional_Energy-OPLS-2005>
222.209274291992

> <r_mmod_Improper_Torsional_Energy-OPLS-2005>
4.3267068862915

> <r_mmod_Van_der_Waal_Energy-OPLS-2005>
160.448043823242

> <r_mmod_Electrostatic_Energy-OPLS-2005>
-378.7568359375

> <r_mmod_Solvation_Energy-OPLS-2005>
-470.063781738281

> <b_mmod_Minimization_Converged-OPLS-2005>
0

> <r_mmod_RMS_Derivative-OPLS-2005>
4.65655565261841

$$$$
5
                    3D
 Structure written by MMmdl.
153161  0  0  1  0            999 V2000
  -30.5297  -14.9762   20.3883 C   0  0  0  0  0  0
  -30.4393  -12.6061   19.5109 C   0  0  0  0  0  0
  -29.5237  -12.5391   18.2682 C   0  0  0  0  0  0
  -28.0627  -12.3037   18.6903 C   0  0  0  0  0  0
  -27.6280  -13.2480   19.8391 C   0  0  2  0  0  0
  -28.6676  -13.3000   20.9781 C   0  0  0  0  0  0
  -25.2468  -13.8214   20.5766 C   0  0  0  0  0  0
  -24.1770  -13.0420   20.9224 C   0  0  0  0  0  0
  -24.6386  -11.6919   20.8751 C   0  0  0  0  0  0
  -23.9081  -10.4280   21.0423 C   0  0  0  0  0  0
  -24.3623   -9.4191   21.9198 C   0  0  0  0  0  0
  -23.6286   -8.2234   22.0770 C   0  0  0  0  0  0
  -22.4269   -8.0276   21.3551 C   0  0  0  0  0  0
  -21.9916   -9.0258   20.4656 C   0  0  0  0  0  0
  -22.7255  -10.2131   20.3072 C   0  0  0  0  0  0
  -21.6849   -6.0731   22.5275 C   0  0  0  0  0  0
  -21.3997   -6.5639   23.8203 C   0  0  0  0  0  0
  -21.3657   -5.6794   24.9169 C   0  0  0  0  0  0
  -21.6058   -4.3057   24.7221 C   0  0  0  0  0  0
  -21.8816   -3.8144   23.4342 C   0  0  0  0  0  0
  -21.9181   -4.6958   22.3393 C   0  0  0  0  0  0
  -22.7793  -13.5201   21.1858 C   0  0  0  0  0  0
  -22.1656   -4.2155   21.0969 F   0  0  0  0  0  0
  -21.5635   -3.4535   25.7735 F   0  0  0  0  0  0
  -29.9440  -13.7105   20.3811 N   0  0  0  0  0  0
  -26.2886  -12.9439   20.3278 N   0  0  0  0  0  0
  -25.9320  -11.6568   20.5750 N   0  0  0  0  0  0
  -22.0440  -12.8213   22.0439 N   0  0  0  0  0  0
  -25.4112  -15.1950   20.4262 N   0  0  0  0  0  0
  -31.7430  -15.0186   20.1479 O   0  0  0  0  0  0
  -21.6625   -6.8879   21.4250 O   0  0  0  0  0  0
  -22.3492  -14.5490   20.6676 O   0  0  0  0  0  0
  -24.6457  -31.8419   23.1864 C   0  0  0  0  0  0
  -25.9239  -32.4664   23.8238 C   0  0  1  0  0  0
  -27.2243  -27.1224   20.1568 C   0  0  0  0  0  0
  -25.5990  -33.8476   24.2156 N   0  0  0  0  0  0
  -23.4495  -30.4552   21.5372 C   0  0  2  0  0  0
  -24.8989  -28.8788   20.1143 C   0  0  0  0  0  0
  -22.7613  -29.4486   22.4939 C   0  0  0  0  0  0
  -18.0281  -28.1296   22.8419 C   0  0  0  0  0  0
  -24.1515  -36.7246   23.2654 C   0  0  0  0  0  0
  -26.0054  -30.7121   21.3859 C   0  0  0  0  0  0
  -26.0792  -29.3205   20.7292 C   0  0  0  0  0  0
  -27.2445  -28.4620   20.7255 C   0  0  0  0  0  0
  -26.0168  -26.7854   19.5062 C   0  0  0  0  0  0
  -24.8816  -27.6248   19.4851 C   0  0  0  0  0  0
  -23.6763  -29.7823   20.1564 C   0  0  0  0  0  0
  -25.4135  -36.3028   24.0332 C   0  0  1  0  0  0
  -20.5894  -28.3622   23.1214 C   0  0  2  0  0  0
  -20.6777  -26.9336   22.5360 C   0  0  0  0  0  0
  -19.5768  -26.6294   21.5151 C   0  0  0  0  0  0
  -18.1940  -26.7814   22.1558 C   0  0  0  0  0  0
  -19.1538  -28.8789   23.2778 C   0  0  0  0  0  0
  -18.9482  -30.1387   23.8790 C   0  0  0  0  0  0
  -17.6496  -30.6519   24.0497 C   0  0  0  0  0  0
  -25.9082  -34.9411   23.5040 C   0  0  0  0  0  0
  -16.5374  -29.8997   23.6324 C   0  0  0  0  0  0
  -16.7274  -28.6415   23.0324 C   0  0  0  0  0  0
  -26.4557  -31.6539   25.0684 C   0  0  0  0  0  0
  -25.3721  -31.3736   26.1367 C   0  0  0  0  0  0
  -27.0445  -30.2960   24.6245 C   0  0  0  0  0  0
  -27.6103  -32.4327   25.7458 C   0  0  0  0  0  0
  -27.5589  -37.1773   24.8469 C   0  0  0  0  0  0
  -21.4303  -29.2968   22.3689 N   0  0  0  0  0  0
  -26.4292  -37.3748   23.9429 N   0  0  0  0  0  0
  -24.7207  -31.0246   22.0916 N   0  0  0  0  0  0
  -23.4275  -28.8084   23.3116 O   0  0  0  0  0  0
  -28.2859  -26.1400   20.1837 O   0  0  0  0  0  0
  -26.5679  -34.8911   22.4624 O   0  0  0  0  0  0
  -23.5567  -32.1349   23.7055 O   0  0  0  0  0  0
  -30.0868  -20.3355   18.8521 C   0  0  0  0  0  0
  -30.5965  -19.1924   18.1924 C   0  0  0  0  0  0
  -29.3723  -20.2525   20.0566 C   0  0  0  0  0  0
  -29.8721  -17.6246   19.9965 C   0  0  0  0  0  0
  -30.4620  -17.8745   18.7186 C   0  0  0  0  0  0
  -29.3006  -18.8650   20.6135 C   0  0  0  0  0  0
  -31.2800  -19.4182   16.8484 C   0  0  0  0  0  0
  -28.6702  -21.6518   20.6105 C   0  0  0  0  0  0
  -28.9523  -23.2498   20.0858 C   0  0  0  0  0  0
  -28.0331  -24.6222   20.4892 C   0  0  0  0  0  0
  -29.7474  -16.1659   20.5136 N   0  0  0  0  0  0
  -30.9311  -16.5670   17.6780 Cl  0  0  0  0  0  0
  -28.4454  -18.6679   22.1029 Cl  0  0  0  0  0  0
  -31.4696  -12.7692   19.1940 H   0  0  0  0  0  0
  -30.4393  -11.6607   20.0547 H   0  0  0  0  0  0
  -29.8565  -11.7511   17.5917 H   0  0  0  0  0  0
  -29.5937  -13.4760   17.7141 H   0  0  0  0  0  0
  -27.9835  -11.2687   19.0254 H   0  0  0  0  0  0
  -27.3947  -12.4066   17.8342 H   0  0  0  0  0  0
  -27.5835  -14.2428   19.3937 H   0  0  0  0  0  0
  -28.7621  -12.3350   21.4781 H   0  0  0  0  0  0
  -28.3623  -14.0186   21.7391 H   0  0  0  0  0  0
  -25.2766   -9.5657   22.4779 H   0  0  0  0  0  0
  -23.9971   -7.4638   22.7517 H   0  0  0  0  0  0
  -21.0832   -8.8790   19.8985 H   0  0  0  0  0  0
  -22.3712  -10.9674   19.6185 H   0  0  0  0  0  0
  -21.1983   -7.6143   23.9702 H   0  0  0  0  0  0
  -21.1493   -6.0528   25.9076 H   0  0  0  0  0  0
  -22.0600   -2.7615   23.2834 H   0  0  0  0  0  0
  -22.4018  -11.9881   22.4844 H   0  0  0  0  0  0
  -21.1094  -13.1321   22.2644 H   0  0  0  0  0  0
  -24.6433  -15.8446   20.5588 H   0  0  0  0  0  0
  -26.2581  -15.6521   20.1188 H   0  0  0  0  0  0
  -26.7317  -32.5280   23.0976 H   0  0  0  0  0  0
  -25.0122  -33.9563   25.0292 H   0  0  0  0  0  0
  -22.7481  -31.2789   21.3869 H   0  0  0  0  0  0
  -23.3770  -35.9583   23.3282 H   0  0  0  0  0  0
  -24.3616  -36.8918   22.2076 H   0  0  0  0  0  0
  -23.7245  -37.6428   23.6694 H   0  0  0  0  0  0
  -26.1523  -31.4688   20.6167 H   0  0  0  0  0  0
  -26.8794  -30.7659   22.0253 H   0  0  0  0  0  0
  -28.1458  -28.8011   21.2173 H   0  0  0  0  0  0
  -25.9288  -25.8295   19.0121 H   0  0  0  0  0  0
  -23.9854  -27.2782   18.9896 H   0  0  0  0  0  0
  -23.8208  -30.5594   19.4064 H   0  0  0  0  0  0
  -22.7888  -29.2310   19.8413 H   0  0  0  0  0  0
  -25.1310  -36.1864   25.0825 H   0  0  0  0  0  0
  -20.9885  -28.3171   24.1364 H   0  0  0  0  0  0
  -20.5595  -26.2268   23.3586 H   0  0  0  0  0  0
  -21.6675  -26.7309   22.1234 H   0  0  0  0  0  0
  -19.6951  -25.6194   21.1202 H   0  0  0  0  0  0
  -19.6698  -27.3090   20.6670 H   0  0  0  0  0  0
  -17.4217  -26.6504   21.3948 H   0  0  0  0  0  0
  -18.0351  -25.9929   22.8941 H   0  0  0  0  0  0
  -19.8001  -30.7156   24.2139 H   0  0  0  0  0  0
  -17.5081  -31.6206   24.5088 H   0  0  0  0  0  0
  -15.5358  -30.2863   23.7704 H   0  0  0  0  0  0
  -15.8678  -28.0710   22.7053 H   0  0  0  0  0  0
  -24.5894  -30.7084   25.7695 H   0  0  0  0  0  0
  -24.8877  -32.2910   26.4708 H   0  0  0  0  0  0
  -25.7984  -30.8955   27.0189 H   0  0  0  0  0  0
  -26.3074  -29.6629   24.1272 H   0  0  0  0  0  0
  -27.4146  -29.7291   25.4790 H   0  0  0  0  0  0
  -27.8959  -30.4256   23.9550 H   0  0  0  0  0  0
  -27.2718  -33.3692   26.1886 H   0  0  0  0  0  0
  -28.3963  -32.6743   25.0287 H   0  0  0  0  0  0
  -28.0681  -31.8494   26.5448 H   0  0  0  0  0  0
  -28.2568  -38.0114   24.7541 H   0  0  0  0  0  0
  -28.1096  -36.2616   24.6229 H   0  0  0  0  0  0
  -27.2293  -37.1382   25.8873 H   0  0  0  0  0  0
  -20.9546  -29.8756   21.6925 H   0  0  0  0  0  0
  -26.0131  -38.2817   24.1423 H   0  0  0  0  0  0
  -30.2091  -21.3035   18.3880 H   0  0  0  0  0  0
  -31.0923  -20.4195   16.4653 H   0  0  0  0  0  0
  -30.9239  -18.7250   16.0866 H   0  0  0  0  0  0
  -32.3606  -19.3006   16.9408 H   0  0  0  0  0  0
  -28.8050  -21.6469   21.6922 H   0  0  0  0  0  0
  -27.6037  -21.4745   20.4778 H   0  0  0  0  0  0
  -28.9639  -23.2254   18.9972 H   0  0  0  0  0  0
  -29.9847  -23.4682   20.3605 H   0  0  0  0  0  0
  -27.9874  -24.6079   21.5778 H   0  0  0  0  0  0
  -27.0160  -24.3823   20.1862 H   0  0  0  0  0  0
  -28.8536  -15.9796   20.9405 H   0  0  0  0  0  0
  1 25  1  0  0  0
  1 30  2  0  0  0
  1 81  1  0  0  0
  2  3  1  0  0  0
  2 25  1  0  0  0
  2 84  1  0  0  0
  2 85  1  0  0  0
  3  4  1  0  0  0
  3 86  1  0  0  0
  3 87  1  0  0  0
  4  5  1  0  0  0
  4 88  1  0  0  0
  4 89  1  0  0  0
  5  6  1  0  0  0
  5 26  1  0  0  0
  5 90  1  0  0  0
  6 25  1  0  0  0
  6 91  1  0  0  0
  6 92  1  0  0  0
  7  8  2  0  0  0
  7 26  1  0  0  0
  7 29  1  0  0  0
  8  9  1  0  0  0
  8 22  1  0  0  0
  9 10  1  0  0  0
  9 27  2  0  0  0
 10 11  2  0  0  0
 10 15  1  0  0  0
 11 12  1  0  0  0
 11 93  1  0  0  0
 12 13  2  0  0  0
 12 94  1  0  0  0
 13 14  1  0  0  0
 13 31  1  0  0  0
 14 15  2  0  0  0
 14 95  1  0  0  0
 15 96  1  0  0  0
 16 17  2  0  0  0
 16 21  1  0  0  0
 16 31  1  0  0  0
 17 18  1  0  0  0
 17 97  1  0  0  0
 18 19  2  0  0  0
 18 98  1  0  0  0
 19 20  1  0  0  0
 19 24  1  0  0  0
 20 21  2  0  0  0
 20 99  1  0  0  0
 21 23  1  0  0  0
 22 28  1  0  0  0
 22 32  2  0  0  0
 26 27  1  0  0  0
 28100  1  0  0  0
 28101  1  0  0  0
 29102  1  0  0  0
 29103  1  0  0  0
 33 34  1  0  0  0
 33 66  1  0  0  0
 33 70  2  0  0  0
 34 36  1  0  0  0
 34 59  1  0  0  0
 34104  1  0  0  0
 35 44  2  0  0  0
 35 45  1  0  0  0
 35 68  1  0  0  0
 36 56  1  0  0  0
 36105  1  0  0  0
 37 39  1  0  0  0
 37 47  1  0  0  0
 37 66  1  0  0  0
 37106  1  0  0  0
 38 43  2  0  0  0
 38 46  1  0  0  0
 38 47  1  0  0  0
 39 64  1  0  0  0
 39 67  2  0  0  0
 40 52  1  0  0  0
 40 53  2  0  0  0
 40 58  1  0  0  0
 41107  1  0  0  0
 41108  1  0  0  0
 41109  1  0  0  0
 41 48  1  0  0  0
 42 43  1  0  0  0
 42 66  1  0  0  0
 42110  1  0  0  0
 42111  1  0  0  0
 43 44  1  0  0  0
 44112  1  0  0  0
 45 46  2  0  0  0
 45113  1  0  0  0
 46114  1  0  0  0
 47115  1  0  0  0
 47116  1  0  0  0
 48 56  1  0  0  0
 48 65  1  0  0  0
 48117  1  0  0  0
 49 50  1  0  0  0
 49 53  1  0  0  0
 49 64  1  0  0  0
 49118  1  0  0  0
 50 51  1  0  0  0
 50119  1  0  0  0
 50120  1  0  0  0
 51 52  1  0  0  0
 51121  1  0  0  0
 51122  1  0  0  0
 52123  1  0  0  0
 52124  1  0  0  0
 53 54  1  0  0  0
 54 55  2  0  0  0
 54125  1  0  0  0
 55 57  1  0  0  0
 55126  1  0  0  0
 56 69  2  0  0  0
 57 58  2  0  0  0
 57127  1  0  0  0
 58128  1  0  0  0
 59 60  1  0  0  0
 59 61  1  0  0  0
 59 62  1  0  0  0
 60129  1  0  0  0
 60130  1  0  0  0
 60131  1  0  0  0
 61132  1  0  0  0
 61133  1  0  0  0
 61134  1  0  0  0
 62135  1  0  0  0
 62136  1  0  0  0
 62137  1  0  0  0
 63 65  1  0  0  0
 63138  1  0  0  0
 63139  1  0  0  0
 63140  1  0  0  0
 64141  1  0  0  0
 65142  1  0  0  0
 68 80  1  0  0  0
 71 72  2  0  0  0
 71 73  1  0  0  0
 71143  1  0  0  0
 72 75  1  0  0  0
 72 77  1  0  0  0
 73 76  2  0  0  0
 73 78  1  0  0  0
 74 75  2  0  0  0
 74 76  1  0  0  0
 74 81  1  0  0  0
 75 82  1  0  0  0
 76 83  1  0  0  0
 77144  1  0  0  0
 77145  1  0  0  0
 77146  1  0  0  0
 78 79  1  0  0  0
 78147  1  0  0  0
 78148  1  0  0  0
 79 80  1  0  0  0
 79149  1  0  0  0
 79150  1  0  0  0
 80151  1  0  0  0
 80152  1  0  0  0
 81153  1  0  0  0
M  ISO  4   1 100  68 101  80 101  81 100
M  END
> <chiral flag>
0

> <version>
0

> <s_m_source_file>
/data/baiqing/PycharmProjects/Reinvent-master-3.2/result/LINK_invent/BTK/process_docking_weight1_custom_sum_contain_oxygen_bond_distance_aromatic_linkinvent_7_9_3/rearranged_h_0024.sdf

> <i_m_source_file_index>
6

> <r_mmod_Potential_Energy-OPLS-2005>
515.848022460938

> <r_mmod_Stretch_Energy-OPLS-2005>
288.385772705078

> <r_mmod_Bend_Energy-OPLS-2005>
253.771896362305

> <r_mmod_Torsional_Energy-OPLS-2005>
243.790710449219

> <r_mmod_Improper_Torsional_Energy-OPLS-2005>
4.20222139358521

> <r_mmod_Van_der_Waal_Energy-OPLS-2005>
134.615127563477

> <r_mmod_Electrostatic_Energy-OPLS-2005>
-410.829833984375

> <r_mmod_Solvation_Energy-OPLS-2005>
-205.6064453125

> <b_mmod_Minimization_Converged-OPLS-2005>
0

> <r_mmod_RMS_Derivative-OPLS-2005>
4.0557975769043

$$$$
6
                    3D
 Structure written by MMmdl.
162170  0  0  1  0            999 V2000
  -30.7181  -14.3921   20.5748 C   0  0  0  0  0  0
  -30.4166  -12.2577   19.4087 C   0  0  0  0  0  0
  -29.4887  -12.4907   18.2000 C   0  0  0  0  0  0
  -28.0053  -12.3814   18.6093 C   0  0  0  0  0  0
  -27.6639  -13.1911   19.8901 C   0  0  2  0  0  0
  -28.7077  -12.9359   21.0013 C   0  0  0  0  0  0
  -25.2595  -13.8120   20.5708 C   0  0  0  0  0  0
  -24.1830  -13.0422   20.9195 C   0  0  0  0  0  0
  -24.6363  -11.6877   20.8752 C   0  0  0  0  0  0
  -23.9027  -10.4272   21.0405 C   0  0  0  0  0  0
  -24.3585   -9.4192   21.9183 C   0  0  0  0  0  0
  -23.6267   -8.2226   22.0750 C   0  0  0  0  0  0
  -22.4252   -8.0263   21.3542 C   0  0  0  0  0  0
  -21.9881   -9.0234   20.4647 C   0  0  0  0  0  0
  -22.7202  -10.2115   20.3055 C   0  0  0  0  0  0
  -21.6846   -6.0716   22.5271 C   0  0  0  0  0  0
  -21.4007   -6.5624   23.8203 C   0  0  0  0  0  0
  -21.3663   -5.6783   24.9169 C   0  0  0  0  0  0
  -21.6052   -4.3046   24.7223 C   0  0  0  0  0  0
  -21.8820   -3.8132   23.4344 C   0  0  0  0  0  0
  -21.9188   -4.6944   22.3398 C   0  0  0  0  0  0
  -22.7855  -13.5236   21.1844 C   0  0  0  0  0  0
  -22.1658   -4.2130   21.0978 F   0  0  0  0  0  0
  -21.5633   -3.4535   25.7738 F   0  0  0  0  0  0
  -30.0427  -13.2239   20.4492 N   0  0  0  0  0  0
  -26.3025  -12.9257   20.3457 N   0  0  0  0  0  0
  -25.9290  -11.6433   20.5822 N   0  0  0  0  0  0
  -22.0484  -12.8236   22.0398 N   0  0  0  0  0  0
  -25.4361  -15.1837   20.4099 N   0  0  0  0  0  0
  -31.8491  -14.5825   20.1185 O   0  0  0  0  0  0
  -21.6630   -6.8853   21.4234 O   0  0  0  0  0  0
  -22.3559  -14.5550   20.6691 O   0  0  0  0  0  0
  -24.6099  -31.8705   23.2135 C   0  0  0  0  0  0
  -25.9012  -32.4834   23.8423 C   0  0  1  0  0  0
  -27.2422  -27.4761   20.0857 C   0  0  0  0  0  0
  -25.5891  -33.8634   24.2355 N   0  0  0  0  0  0
  -23.3955  -30.4936   21.5528 C   0  0  2  0  0  0
  -24.8410  -28.9613   20.1177 C   0  0  0  0  0  0
  -22.7376  -29.4671   22.5022 C   0  0  0  0  0  0
  -18.0253  -28.1380   22.8521 C   0  0  0  0  0  0
  -24.1485  -36.7324   23.2639 C   0  0  0  0  0  0
  -25.9192  -30.8487   21.3603 C   0  0  0  0  0  0
  -25.9963  -29.4858   20.7073 C   0  0  0  0  0  0
  -27.1965  -28.7496   20.6863 C   0  0  0  0  0  0
  -26.0662  -26.9527   19.4968 C   0  0  0  0  0  0
  -24.8681  -27.6918   19.5123 C   0  0  0  0  0  0
  -23.6014  -29.8230   20.1677 C   0  0  0  0  0  0
  -25.4109  -36.3122   24.0335 C   0  0  1  0  0  0
  -20.5842  -28.3656   23.1336 C   0  0  2  0  0  0
  -20.6749  -26.9396   22.5425 C   0  0  0  0  0  0
  -19.5724  -26.6391   21.5224 C   0  0  0  0  0  0
  -18.1900  -26.7935   22.1640 C   0  0  0  0  0  0
  -19.1505  -28.8840   23.2930 C   0  0  0  0  0  0
  -18.9438  -30.1452   23.8935 C   0  0  0  0  0  0
  -17.6439  -30.6597   24.0574 C   0  0  0  0  0  0
  -25.9033  -34.9478   23.5141 C   0  0  0  0  0  0
  -16.5326  -29.9103   23.6325 C   0  0  0  0  0  0
  -16.7243  -28.6508   23.0369 C   0  0  0  0  0  0
  -26.4461  -31.6601   25.0736 C   0  0  0  0  0  0
  -25.3743  -31.3680   26.1496 C   0  0  0  0  0  0
  -27.0295  -30.3050   24.6097 C   0  0  0  0  0  0
  -27.6048  -32.4310   25.7499 C   0  0  0  0  0  0
  -27.5584  -37.1817   24.8462 C   0  0  0  0  0  0
  -21.4111  -29.3028   22.3753 N   0  0  0  0  0  0
  -26.4291  -37.3806   23.9411 N   0  0  0  0  0  0
  -24.6593  -31.0838   22.1014 N   0  0  0  0  0  0
  -23.4158  -28.8210   23.3056 O   0  0  0  0  0  0
  -28.4521  -26.8227   20.0975 O   0  0  0  0  0  0
  -26.5598  -34.8912   22.4706 O   0  0  0  0  0  0
  -23.5303  -32.1443   23.7556 O   0  0  0  0  0  0
  -30.2838  -18.4901   18.9888 C   0  0  0  0  0  0
  -30.9420  -19.3721   19.8924 C   0  0  0  0  0  0
  -30.2662  -16.7425   20.7099 C   0  0  0  0  0  0
  -29.9102  -17.1972   19.4183 C   0  0  0  0  0  0
  -31.2522  -18.9241   21.2064 C   0  0  0  0  0  0
  -30.9264  -17.6073   21.6064 C   0  0  0  0  0  0
  -29.9568  -18.8848   17.5467 C   0  0  0  0  0  0
  -31.2935  -20.7948   19.4521 C   0  0  0  0  0  0
  -28.9886  -23.5869   18.1977 C   0  0  0  0  0  0
  -28.8667  -25.0983   18.4410 C   0  0  0  0  0  0
  -30.2705  -22.9661   18.7922 C   0  0  0  0  0  0
  -28.4934  -25.4194   19.8970 C   0  0  0  0  0  0
  -30.0053  -15.4010   21.0864 N   0  0  0  0  0  0
  -30.0658  -21.5443   19.1207 N   0  3  0  0  0  0
  -29.0095  -16.1780   18.3432 Cl  0  0  0  0  0  0
  -32.0464  -19.9643   22.3446 Cl  0  0  0  0  0  0
  -31.3481  -17.0447   23.1924 Cl  0  0  0  0  0  0
  -31.4619  -12.3482   19.1068 H   0  0  0  0  0  0
  -30.3067  -11.2396   19.7838 H   0  0  0  0  0  0
  -29.7107  -11.7698   17.4128 H   0  0  0  0  0  0
  -29.6845  -13.4728   17.7695 H   0  0  0  0  0  0
  -27.7838  -11.3262   18.7704 H   0  0  0  0  0  0
  -27.3659  -12.7026   17.7861 H   0  0  0  0  0  0
  -27.7111  -14.2437   19.6296 H   0  0  0  0  0  0
  -28.6672  -11.8938   21.3218 H   0  0  0  0  0  0
  -28.4866  -13.5205   21.8952 H   0  0  0  0  0  0
  -25.2725   -9.5671   22.4764 H   0  0  0  0  0  0
  -23.9976   -7.4617   22.7465 H   0  0  0  0  0  0
  -21.0814   -8.8744   19.8956 H   0  0  0  0  0  0
  -22.3655  -10.9650   19.6163 H   0  0  0  0  0  0
  -21.1993   -7.6132   23.9700 H   0  0  0  0  0  0
  -21.1496   -6.0517   25.9074 H   0  0  0  0  0  0
  -22.0599   -2.7594   23.2853 H   0  0  0  0  0  0
  -22.4088  -11.9889   22.4775 H   0  0  0  0  0  0
  -21.1098  -13.1269   22.2591 H   0  0  0  0  0  0
  -24.6699  -15.8407   20.5078 H   0  0  0  0  0  0
  -26.2841  -15.6142   20.0640 H   0  0  0  0  0  0
  -26.7095  -32.5572   23.1210 H   0  0  0  0  0  0
  -25.0021  -33.9809   25.0490 H   0  0  0  0  0  0
  -22.6833  -31.3098   21.4142 H   0  0  0  0  0  0
  -23.3730  -35.9672   23.3308 H   0  0  0  0  0  0
  -24.3583  -36.8925   22.2048 H   0  0  0  0  0  0
  -23.7229  -37.6528   23.6655 H   0  0  0  0  0  0
  -26.0268  -31.6158   20.5920 H   0  0  0  0  0  0
  -26.8093  -30.9018   21.9750 H   0  0  0  0  0  0
  -28.0927  -29.1561   21.1338 H   0  0  0  0  0  0
  -26.0632  -25.9886   19.0098 H   0  0  0  0  0  0
  -23.9789  -27.2827   19.0533 H   0  0  0  0  0  0
  -23.7083  -30.5967   19.4066 H   0  0  0  0  0  0
  -22.7287  -29.2377   19.8724 H   0  0  0  0  0  0
  -25.1284  -36.1995   25.0823 H   0  0  0  0  0  0
  -20.9947  -28.3228   24.1453 H   0  0  0  0  0  0
  -20.5654  -26.2269   23.3614 H   0  0  0  0  0  0
  -21.6623  -26.7456   22.1209 H   0  0  0  0  0  0
  -19.6873  -25.6307   21.1237 H   0  0  0  0  0  0
  -19.6660  -27.3238   20.6778 H   0  0  0  0  0  0
  -17.4172  -26.6711   21.4029 H   0  0  0  0  0  0
  -18.0284  -26.0067   22.9024 H   0  0  0  0  0  0
  -19.7905  -30.7267   24.2323 H   0  0  0  0  0  0
  -17.4983  -31.6280   24.5177 H   0  0  0  0  0  0
  -15.5330  -30.3018   23.7619 H   0  0  0  0  0  0
  -15.8639  -28.0825   22.7085 H   0  0  0  0  0  0
  -24.5915  -30.7033   25.7830 H   0  0  0  0  0  0
  -24.8945  -32.2817   26.5005 H   0  0  0  0  0  0
  -25.8105  -30.8806   27.0222 H   0  0  0  0  0  0
  -26.2839  -29.6812   24.1151 H   0  0  0  0  0  0
  -27.4058  -29.7284   25.4558 H   0  0  0  0  0  0
  -27.8680  -30.4370   23.9252 H   0  0  0  0  0  0
  -27.2677  -33.3586   26.2142 H   0  0  0  0  0  0
  -28.3836  -32.6893   25.0312 H   0  0  0  0  0  0
  -28.0752  -31.8392   26.5363 H   0  0  0  0  0  0
  -28.2589  -38.0126   24.7528 H   0  0  0  0  0  0
  -28.1084  -36.2650   24.6273 H   0  0  0  0  0  0
  -27.2304  -37.1452   25.8866 H   0  0  0  0  0  0
  -20.9264  -29.8746   21.6980 H   0  0  0  0  0  0
  -26.0172  -38.2874   24.1445 H   0  0  0  0  0  0
  -30.5244  -19.7327   17.1717 H   0  0  0  0  0  0
  -28.8925  -19.1005   17.4425 H   0  0  0  0  0  0
  -30.1907  -18.0677   16.8642 H   0  0  0  0  0  0
  -31.9593  -20.7461   18.5901 H   0  0  0  0  0  0
  -31.8499  -21.3444   20.2088 H   0  0  0  0  0  0
  -28.9758  -23.3889   17.1248 H   0  0  0  0  0  0
  -28.0972  -23.1016   18.5978 H   0  0  0  0  0  0
  -28.1049  -25.5091   17.7786 H   0  0  0  0  0  0
  -29.7988  -25.5966   18.1720 H   0  0  0  0  0  0
  -30.5864  -23.4803   19.6994 H   0  0  0  0  0  0
  -31.0899  -23.0739   18.0795 H   0  0  0  0  0  0
  -27.5746  -24.9173   20.2034 H   0  0  0  0  0  0
  -29.2600  -25.0420   20.5734 H   0  0  0  0  0  0
  -29.0864  -15.1843   21.4383 H   0  0  0  0  0  0
  -29.4318  -21.4788   19.9007 H   0  0  0  0  0  0
  -29.6323  -21.0901   18.3336 H   0  0  0  0  0  0
  1 25  1  0  0  0
  1 30  2  0  0  0
  1 83  1  0  0  0
  2  3  1  0  0  0
  2 25  1  0  0  0
  2 88  1  0  0  0
  2 89  1  0  0  0
  3  4  1  0  0  0
  3 90  1  0  0  0
  3 91  1  0  0  0
  4  5  1  0  0  0
  4 92  1  0  0  0
  4 93  1  0  0  0
  5  6  1  0  0  0
  5 26  1  0  0  0
  5 94  1  0  0  0
  6 25  1  0  0  0
  6 95  1  0  0  0
  6 96  1  0  0  0
  7  8  2  0  0  0
  7 26  1  0  0  0
  7 29  1  0  0  0
  8  9  1  0  0  0
  8 22  1  0  0  0
  9 10  1  0  0  0
  9 27  2  0  0  0
 10 11  2  0  0  0
 10 15  1  0  0  0
 11 12  1  0  0  0
 11 97  1  0  0  0
 12 13  2  0  0  0
 12 98  1  0  0  0
 13 14  1  0  0  0
 13 31  1  0  0  0
 14 15  2  0  0  0
 14 99  1  0  0  0
 15100  1  0  0  0
 16 17  2  0  0  0
 16 21  1  0  0  0
 16 31  1  0  0  0
 17 18  1  0  0  0
 17101  1  0  0  0
 18 19  2  0  0  0
 18102  1  0  0  0
 19 20  1  0  0  0
 19 24  1  0  0  0
 20 21  2  0  0  0
 20103  1  0  0  0
 21 23  1  0  0  0
 22 28  1  0  0  0
 22 32  2  0  0  0
 26 27  1  0  0  0
 28104  1  0  0  0
 28105  1  0  0  0
 29106  1  0  0  0
 29107  1  0  0  0
 33 34  1  0  0  0
 33 66  1  0  0  0
 33 70  2  0  0  0
 34 36  1  0  0  0
 34 59  1  0  0  0
 34108  1  0  0  0
 35 44  2  0  0  0
 35 45  1  0  0  0
 35 68  1  0  0  0
 36 56  1  0  0  0
 36109  1  0  0  0
 37 39  1  0  0  0
 37 47  1  0  0  0
 37 66  1  0  0  0
 37110  1  0  0  0
 38 43  2  0  0  0
 38 46  1  0  0  0
 38 47  1  0  0  0
 39 64  1  0  0  0
 39 67  2  0  0  0
 40 52  1  0  0  0
 40 53  2  0  0  0
 40 58  1  0  0  0
 41111  1  0  0  0
 41112  1  0  0  0
 41113  1  0  0  0
 41 48  1  0  0  0
 42 43  1  0  0  0
 42 66  1  0  0  0
 42114  1  0  0  0
 42115  1  0  0  0
 43 44  1  0  0  0
 44116  1  0  0  0
 45 46  2  0  0  0
 45117  1  0  0  0
 46118  1  0  0  0
 47119  1  0  0  0
 47120  1  0  0  0
 48 56  1  0  0  0
 48 65  1  0  0  0
 48121  1  0  0  0
 49 50  1  0  0  0
 49 53  1  0  0  0
 49 64  1  0  0  0
 49122  1  0  0  0
 50 51  1  0  0  0
 50123  1  0  0  0
 50124  1  0  0  0
 51 52  1  0  0  0
 51125  1  0  0  0
 51126  1  0  0  0
 52127  1  0  0  0
 52128  1  0  0  0
 53 54  1  0  0  0
 54 55  2  0  0  0
 54129  1  0  0  0
 55 57  1  0  0  0
 55130  1  0  0  0
 56 69  2  0  0  0
 57 58  2  0  0  0
 57131  1  0  0  0
 58132  1  0  0  0
 59 60  1  0  0  0
 59 61  1  0  0  0
 59 62  1  0  0  0
 60133  1  0  0  0
 60134  1  0  0  0
 60135  1  0  0  0
 61136  1  0  0  0
 61137  1  0  0  0
 61138  1  0  0  0
 62139  1  0  0  0
 62140  1  0  0  0
 62141  1  0  0  0
 63 65  1  0  0  0
 63142  1  0  0  0
 63143  1  0  0  0
 63144  1  0  0  0
 64145  1  0  0  0
 65146  1  0  0  0
 68 82  1  0  0  0
 71 72  2  0  0  0
 71 74  1  0  0  0
 71 77  1  0  0  0
 72 75  1  0  0  0
 72 78  1  0  0  0
 73 74  2  0  0  0
 73 76  1  0  0  0
 73 83  1  0  0  0
 74 85  1  0  0  0
 75 76  2  0  0  0
 75 86  1  0  0  0
 76 87  1  0  0  0
 77147  1  0  0  0
 77148  1  0  0  0
 77149  1  0  0  0
 78 84  1  0  0  0
 78150  1  0  0  0
 78151  1  0  0  0
 79 80  1  0  0  0
 79 81  1  0  0  0
 79152  1  0  0  0
 79153  1  0  0  0
 80 82  1  0  0  0
 80154  1  0  0  0
 80155  1  0  0  0
 81 84  1  0  0  0
 81156  1  0  0  0
 81157  1  0  0  0
 82158  1  0  0  0
 82159  1  0  0  0
 83160  1  0  0  0
 84161  1  0  0  0
 84162  1  0  0  0
M  CHG  1  84   1
M  ISO  4   1 100  68 101  82 101  83 100
M  END
> <chiral flag>
0

> <version>
0

> <s_m_source_file>
/data/baiqing/PycharmProjects/Reinvent-master-3.2/result/LINK_invent/BTK/process_docking_weight1_custom_sum_contain_oxygen_bond_distance_aromatic_linkinvent_7_9_3/rearranged_h_0024.sdf

> <i_m_source_file_index>
7

> <r_mmod_Potential_Energy-OPLS-2005>
-264.361907958984

> <r_mmod_Stretch_Energy-OPLS-2005>
33.819751739502

> <r_mmod_Bend_Energy-OPLS-2005>
93.7541275024414

> <r_mmod_Torsional_Energy-OPLS-2005>
237.903823852539

> <r_mmod_Improper_Torsional_Energy-OPLS-2005>
5.2164945602417

> <r_mmod_Van_der_Waal_Energy-OPLS-2005>
168.975967407227

> <r_mmod_Electrostatic_Energy-OPLS-2005>
-320.766510009766

> <r_mmod_Solvation_Energy-OPLS-2005>
-493.961853027344

> <b_mmod_Minimization_Converged-OPLS-2005>
0

> <r_mmod_RMS_Derivative-OPLS-2005>
1.7573379278183

$$$$
7
                    3D
 Structure written by MMmdl.
165174  0  0  1  0            999 V2000
  -30.8658  -14.2303   20.7885 C   0  0  0  0  0  0
  -30.4040  -12.2871   19.3565 C   0  0  0  0  0  0
  -29.4644  -12.5451   18.1715 C   0  0  0  0  0  0
  -27.9992  -12.3808   18.6059 C   0  0  0  0  0  0
  -27.6653  -13.2057   19.8744 C   0  0  2  0  0  0
  -28.7058  -12.9644   20.9907 C   0  0  0  0  0  0
  -25.2605  -13.8166   20.5683 C   0  0  0  0  0  0
  -24.1853  -13.0447   20.9175 C   0  0  0  0  0  0
  -24.6402  -11.6914   20.8736 C   0  0  0  0  0  0
  -23.9071  -10.4299   21.0412 C   0  0  0  0  0  0
  -24.3618   -9.4213   21.9192 C   0  0  0  0  0  0
  -23.6292   -8.2250   22.0760 C   0  0  0  0  0  0
  -22.4278   -8.0286   21.3546 C   0  0  0  0  0  0
  -21.9920   -9.0260   20.4645 C   0  0  0  0  0  0
  -22.7248  -10.2139   20.3058 C   0  0  0  0  0  0
  -21.6853   -6.0738   22.5280 C   0  0  0  0  0  0
  -21.4016   -6.5640   23.8213 C   0  0  0  0  0  0
  -21.3655   -5.6792   24.9174 C   0  0  0  0  0  0
  -21.6049   -4.3056   24.7224 C   0  0  0  0  0  0
  -21.8820   -3.8149   23.4342 C   0  0  0  0  0  0
  -21.9189   -4.6966   22.3399 C   0  0  0  0  0  0
  -22.7871  -13.5240   21.1833 C   0  0  0  0  0  0
  -22.1661   -4.2151   21.0979 F   0  0  0  0  0  0
  -21.5627   -3.4539   25.7736 F   0  0  0  0  0  0
  -30.0574  -13.2006   20.4511 N   0  0  0  0  0  0
  -26.3050  -12.9341   20.3379 N   0  0  0  0  0  0
  -25.9326  -11.6496   20.5759 N   0  0  0  0  0  0
  -22.0502  -12.8231   22.0378 N   0  0  0  0  0  0
  -25.4333  -15.1884   20.4092 N   0  0  0  0  0  0
  -31.7505  -14.6818   20.0547 O   0  0  0  0  0  0
  -21.6643   -6.8883   21.4245 O   0  0  0  0  0  0
  -22.3563  -14.5548   20.6680 O   0  0  0  0  0  0
  -24.6110  -31.8710   23.2136 C   0  0  0  0  0  0
  -25.9026  -32.4834   23.8406 C   0  0  1  0  0  0
  -27.2374  -27.4793   20.0561 C   0  0  0  0  0  0
  -25.5894  -33.8634   24.2334 N   0  0  0  0  0  0
  -23.3946  -30.4984   21.5530 C   0  0  2  0  0  0
  -24.8370  -28.9689   20.1157 C   0  0  0  0  0  0
  -22.7371  -29.4695   22.4997 C   0  0  0  0  0  0
  -18.0264  -28.1387   22.8522 C   0  0  0  0  0  0
  -24.1481  -36.7321   23.2627 C   0  0  0  0  0  0
  -25.9202  -30.8472   21.3595 C   0  0  0  0  0  0
  -25.9956  -29.4836   20.7084 C   0  0  0  0  0  0
  -27.1929  -28.7396   20.6876 C   0  0  0  0  0  0
  -26.0482  -26.9569   19.4928 C   0  0  0  0  0  0
  -24.8543  -27.6994   19.5155 C   0  0  0  0  0  0
  -23.5987  -29.8325   20.1672 C   0  0  0  0  0  0
  -25.4101  -36.3123   24.0338 C   0  0  1  0  0  0
  -20.5856  -28.3673   23.1344 C   0  0  2  0  0  0
  -20.6759  -26.9416   22.5435 C   0  0  0  0  0  0
  -19.5733  -26.6408   21.5232 C   0  0  0  0  0  0
  -18.1911  -26.7939   22.1644 C   0  0  0  0  0  0
  -19.1513  -28.8841   23.2937 C   0  0  0  0  0  0
  -18.9445  -30.1450   23.8949 C   0  0  0  0  0  0
  -17.6449  -30.6598   24.0588 C   0  0  0  0  0  0
  -25.9043  -34.9491   23.5140 C   0  0  0  0  0  0
  -16.5341  -29.9112   23.6326 C   0  0  0  0  0  0
  -16.7254  -28.6519   23.0364 C   0  0  0  0  0  0
  -26.4467  -31.6589   25.0710 C   0  0  0  0  0  0
  -25.3743  -31.3650   26.1449 C   0  0  0  0  0  0
  -27.0297  -30.3046   24.6040 C   0  0  0  0  0  0
  -27.6041  -32.4292   25.7491 C   0  0  0  0  0  0
  -27.5603  -37.1787   24.8438 C   0  0  0  0  0  0
  -21.4103  -29.3050   22.3743 N   0  0  0  0  0  0
  -26.4271  -37.3828   23.9448 N   0  0  0  0  0  0
  -24.6602  -31.0856   22.1008 N   0  0  0  0  0  0
  -23.4157  -28.8233   23.3024 O   0  0  0  0  0  0
  -28.4414  -26.8130   20.0490 O   0  0  0  0  0  0
  -26.5604  -34.8948   22.4701 O   0  0  0  0  0  0
  -23.5320  -32.1443   23.7571 O   0  0  0  0  0  0
  -32.7512  -18.7226   21.8562 C   0  0  0  0  0  0
  -32.7742  -17.3222   21.9622 C   0  0  0  0  0  0
  -31.8097  -19.4803   22.5830 C   0  0  0  0  0  0
  -31.8550  -16.6595   22.7983 C   0  0  0  0  0  0
  -30.8881  -18.8184   23.4358 C   0  0  0  0  0  0
  -30.9146  -17.4092   23.5429 C   0  0  0  0  0  0
  -30.7163  -24.3952   19.0555 C   0  0  0  0  0  0
  -29.6707  -23.0396   21.2887 C   0  0  0  0  0  0
  -29.4966  -24.7144   19.5312 C   0  0  0  0  0  0
  -28.9135  -23.8946   20.5853 C   0  0  0  0  0  0
  -31.7631  -20.9396   22.3740 C   0  0  0  0  0  0
  -31.1458  -22.8057   21.0133 C   0  0  2  0  0  0
  -31.5379  -23.2254   19.5672 C   0  0  0  0  0  0
  -32.1313  -21.8004   23.5752 C   0  0  0  0  0  0
  -31.8873  -15.1432   22.8638 C   0  0  0  0  0  0
  -28.7456  -25.9119   18.9847 C   0  0  0  0  0  0
  -31.4263  -21.3934   21.2305 N   0  0  0  0  0  0
  -30.8225  -14.5071   22.0958 N   0  0  0  0  0  0
  -31.3818  -22.2031   18.7222 F   0  0  0  0  0  0
  -32.8310  -23.5507   19.5671 F   0  0  0  0  0  0
  -29.6897  -19.7104   24.3224 Cl  0  0  0  0  0  0
  -29.7750  -16.6011   24.5694 Cl  0  0  0  0  0  0
  -27.2331  -24.0090   20.9738 Cl  0  0  0  0  0  0
  -31.4442  -12.3933   19.0421 H   0  0  0  0  0  0
  -30.3025  -11.2574   19.7028 H   0  0  0  0  0  0
  -29.6916  -11.8593   17.3543 H   0  0  0  0  0  0
  -29.6253  -13.5518   17.7822 H   0  0  0  0  0  0
  -27.8209  -11.3214   18.7935 H   0  0  0  0  0  0
  -27.3324  -12.6614   17.7899 H   0  0  0  0  0  0
  -27.7205  -14.2580   19.5939 H   0  0  0  0  0  0
  -28.6449  -11.9391   21.3591 H   0  0  0  0  0  0
  -28.4692  -13.6080   21.8392 H   0  0  0  0  0  0
  -25.2757   -9.5689   22.4778 H   0  0  0  0  0  0
  -23.9995   -7.4647   22.7486 H   0  0  0  0  0  0
  -21.0855   -8.8782   19.8944 H   0  0  0  0  0  0
  -22.3713  -10.9683   19.6171 H   0  0  0  0  0  0
  -21.2024   -7.6150   23.9720 H   0  0  0  0  0  0
  -21.1473   -6.0521   25.9079 H   0  0  0  0  0  0
  -22.0607   -2.7613   23.2846 H   0  0  0  0  0  0
  -22.4094  -11.9879   22.4758 H   0  0  0  0  0  0
  -21.1118  -13.1261   22.2561 H   0  0  0  0  0  0
  -24.6728  -15.8490   20.5270 H   0  0  0  0  0  0
  -26.2980  -15.6274   20.1180 H   0  0  0  0  0  0
  -26.7093  -32.5572   23.1178 H   0  0  0  0  0  0
  -25.0016  -33.9801   25.0456 H   0  0  0  0  0  0
  -22.6830  -31.3156   21.4188 H   0  0  0  0  0  0
  -23.3783  -35.9606   23.3211 H   0  0  0  0  0  0
  -24.3600  -36.9021   22.2060 H   0  0  0  0  0  0
  -23.7173  -37.6476   23.6697 H   0  0  0  0  0  0
  -26.0226  -31.6141   20.5899 H   0  0  0  0  0  0
  -26.8129  -30.9038   21.9706 H   0  0  0  0  0  0
  -28.0903  -29.1390   21.1388 H   0  0  0  0  0  0
  -26.0032  -25.9757   19.0483 H   0  0  0  0  0  0
  -23.9576  -27.2876   19.0730 H   0  0  0  0  0  0
  -23.7042  -30.6082   19.4083 H   0  0  0  0  0  0
  -22.7217  -29.2530   19.8728 H   0  0  0  0  0  0
  -25.1255  -36.1973   25.0827 H   0  0  0  0  0  0
  -20.9972  -28.3257   24.1456 H   0  0  0  0  0  0
  -20.5690  -26.2278   23.3616 H   0  0  0  0  0  0
  -21.6630  -26.7486   22.1215 H   0  0  0  0  0  0
  -19.6903  -25.6334   21.1234 H   0  0  0  0  0  0
  -19.6667  -27.3249   20.6790 H   0  0  0  0  0  0
  -17.4185  -26.6720   21.4035 H   0  0  0  0  0  0
  -18.0290  -26.0064   22.9019 H   0  0  0  0  0  0
  -19.7916  -30.7256   24.2347 H   0  0  0  0  0  0
  -17.5002  -31.6280   24.5188 H   0  0  0  0  0  0
  -15.5350  -30.3040   23.7611 H   0  0  0  0  0  0
  -15.8652  -28.0857   22.7063 H   0  0  0  0  0  0
  -24.5959  -30.6949   25.7784 H   0  0  0  0  0  0
  -24.8883  -32.2777   26.4895 H   0  0  0  0  0  0
  -25.8117  -30.8836   27.0199 H   0  0  0  0  0  0
  -26.2821  -29.6804   24.1122 H   0  0  0  0  0  0
  -27.4123  -29.7279   25.4473 H   0  0  0  0  0  0
  -27.8629  -30.4404   23.9140 H   0  0  0  0  0  0
  -27.2662  -33.3595   26.2072 H   0  0  0  0  0  0
  -28.3857  -32.6822   25.0316 H   0  0  0  0  0  0
  -28.0674  -31.8381   26.5402 H   0  0  0  0  0  0
  -28.2509  -38.0196   24.7690 H   0  0  0  0  0  0
  -28.1218  -36.2752   24.6013 H   0  0  0  0  0  0
  -27.2349  -37.1127   25.8833 H   0  0  0  0  0  0
  -20.9243  -29.8763   21.6976 H   0  0  0  0  0  0
  -26.0153  -38.2873   24.1585 H   0  0  0  0  0  0
  -33.4472  -19.2185   21.1934 H   0  0  0  0  0  0
  -33.4892  -16.7554   21.3814 H   0  0  0  0  0  0
  -31.1691  -24.9882   18.2741 H   0  0  0  0  0  0
  -29.2196  -22.4655   22.0847 H   0  0  0  0  0  0
  -31.6876  -23.4570   21.7014 H   0  0  0  0  0  0
  -32.3872  -21.1813   24.4353 H   0  0  0  0  0  0
  -31.3002  -22.4444   23.8626 H   0  0  0  0  0  0
  -32.9998  -22.4196   23.3487 H   0  0  0  0  0  0
  -31.8099  -14.8238   23.9035 H   0  0  0  0  0  0
  -32.8576  -14.7767   22.5233 H   0  0  0  0  0  0
  -27.8985  -25.5376   18.4162 H   0  0  0  0  0  0
  -29.3657  -26.4487   18.2654 H   0  0  0  0  0  0
  -30.1027  -14.0380   22.6245 H   0  0  0  0  0  0
  1 25  1  0  0  0
  1 30  2  0  0  0
  1 88  1  0  0  0
  2  3  1  0  0  0
  2 25  1  0  0  0
  2 94  1  0  0  0
  2 95  1  0  0  0
  3  4  1  0  0  0
  3 96  1  0  0  0
  3 97  1  0  0  0
  4  5  1  0  0  0
  4 98  1  0  0  0
  4 99  1  0  0  0
  5  6  1  0  0  0
  5 26  1  0  0  0
  5100  1  0  0  0
  6 25  1  0  0  0
  6101  1  0  0  0
  6102  1  0  0  0
  7  8  2  0  0  0
  7 26  1  0  0  0
  7 29  1  0  0  0
  8  9  1  0  0  0
  8 22  1  0  0  0
  9 10  1  0  0  0
  9 27  2  0  0  0
 10 11  2  0  0  0
 10 15  1  0  0  0
 11 12  1  0  0  0
 11103  1  0  0  0
 12 13  2  0  0  0
 12104  1  0  0  0
 13 14  1  0  0  0
 13 31  1  0  0  0
 14 15  2  0  0  0
 14105  1  0  0  0
 15106  1  0  0  0
 16 17  2  0  0  0
 16 21  1  0  0  0
 16 31  1  0  0  0
 17 18  1  0  0  0
 17107  1  0  0  0
 18 19  2  0  0  0
 18108  1  0  0  0
 19 20  1  0  0  0
 19 24  1  0  0  0
 20 21  2  0  0  0
 20109  1  0  0  0
 21 23  1  0  0  0
 22 28  1  0  0  0
 22 32  2  0  0  0
 26 27  1  0  0  0
 28110  1  0  0  0
 28111  1  0  0  0
 29112  1  0  0  0
 29113  1  0  0  0
 33 34  1  0  0  0
 33 66  1  0  0  0
 33 70  2  0  0  0
 34 36  1  0  0  0
 34 59  1  0  0  0
 34114  1  0  0  0
 35 44  2  0  0  0
 35 45  1  0  0  0
 35 68  1  0  0  0
 36 56  1  0  0  0
 36115  1  0  0  0
 37 39  1  0  0  0
 37 47  1  0  0  0
 37 66  1  0  0  0
 37116  1  0  0  0
 38 43  2  0  0  0
 38 46  1  0  0  0
 38 47  1  0  0  0
 39 64  1  0  0  0
 39 67  2  0  0  0
 40 52  1  0  0  0
 40 53  2  0  0  0
 40 58  1  0  0  0
 41117  1  0  0  0
 41118  1  0  0  0
 41119  1  0  0  0
 41 48  1  0  0  0
 42 43  1  0  0  0
 42 66  1  0  0  0
 42120  1  0  0  0
 42121  1  0  0  0
 43 44  1  0  0  0
 44122  1  0  0  0
 45 46  2  0  0  0
 45123  1  0  0  0
 46124  1  0  0  0
 47125  1  0  0  0
 47126  1  0  0  0
 48 56  1  0  0  0
 48 65  1  0  0  0
 48127  1  0  0  0
 49 50  1  0  0  0
 49 53  1  0  0  0
 49 64  1  0  0  0
 49128  1  0  0  0
 50 51  1  0  0  0
 50129  1  0  0  0
 50130  1  0  0  0
 51 52  1  0  0  0
 51131  1  0  0  0
 51132  1  0  0  0
 52133  1  0  0  0
 52134  1  0  0  0
 53 54  1  0  0  0
 54 55  2  0  0  0
 54135  1  0  0  0
 55 57  1  0  0  0
 55136  1  0  0  0
 56 69  2  0  0  0
 57 58  2  0  0  0
 57137  1  0  0  0
 58138  1  0  0  0
 59 60  1  0  0  0
 59 61  1  0  0  0
 59 62  1  0  0  0
 60139  1  0  0  0
 60140  1  0  0  0
 60141  1  0  0  0
 61142  1  0  0  0
 61143  1  0  0  0
 61144  1  0  0  0
 62145  1  0  0  0
 62146  1  0  0  0
 62147  1  0  0  0
 63 65  1  0  0  0
 63148  1  0  0  0
 63149  1  0  0  0
 63150  1  0  0  0
 64151  1  0  0  0
 65152  1  0  0  0
 68 86  1  0  0  0
 71 72  2  0  0  0
 71 73  1  0  0  0
 71153  1  0  0  0
 72 74  1  0  0  0
 72154  1  0  0  0
 73 75  2  0  0  0
 73 81  1  0  0  0
 74 76  2  0  0  0
 74 85  1  0  0  0
 75 76  1  0  0  0
 75 91  1  0  0  0
 76 92  1  0  0  0
 77 79  2  0  0  0
 77 83  1  0  0  0
 77155  1  0  0  0
 78 80  2  0  0  0
 78 82  1  0  0  0
 78156  1  0  0  0
 79 80  1  0  0  0
 79 86  1  0  0  0
 80 93  1  0  0  0
 81 84  1  0  0  0
 81 87  2  0  0  0
 82 83  1  0  0  0
 82 87  1  0  0  0
 82157  1  0  0  0
 83 89  1  0  0  0
 83 90  1  0  0  0
 84158  1  0  0  0
 84159  1  0  0  0
 84160  1  0  0  0
 85 88  1  0  0  0
 85161  1  0  0  0
 85162  1  0  0  0
 86163  1  0  0  0
 86164  1  0  0  0
 88165  1  0  0  0
M  ISO  4   1 100  68 101  86 101  88 100
M  END
> <chiral flag>
0

> <version>
0

> <s_m_source_file>
/data/baiqing/PycharmProjects/Reinvent-master-3.2/result/LINK_invent/BTK/process_docking_weight1_custom_sum_contain_oxygen_bond_distance_aromatic_linkinvent_7_9_3/rearranged_h_0024.sdf

> <i_m_source_file_index>
8

> <r_mmod_Potential_Energy-OPLS-2005>
-10.492223739624

> <r_mmod_Stretch_Energy-OPLS-2005>
33.2131080627441

> <r_mmod_Bend_Energy-OPLS-2005>
105.506065368652

> <r_mmod_Torsional_Energy-OPLS-2005>
246.657287597656

> <r_mmod_Improper_Torsional_Energy-OPLS-2005>
7.3584132194519

> <r_mmod_Van_der_Waal_Energy-OPLS-2005>
173.133102416992

> <r_mmod_Electrostatic_Energy-OPLS-2005>
-385.370056152344

> <r_mmod_Solvation_Energy-OPLS-2005>
-203.011871337891

> <b_mmod_Minimization_Converged-OPLS-2005>
0

> <r_mmod_RMS_Derivative-OPLS-2005>
1.1181937456131

$$$$
8
                    3D
 Structure written by MMmdl.
150158  0  0  1  0            999 V2000
  -30.5777  -14.8584   20.3858 C   0  0  0  0  0  0
  -30.4399  -12.5235   19.4788 C   0  0  0  0  0  0
  -29.5240  -12.4971   18.2362 C   0  0  0  0  0  0
  -28.0612  -12.2658   18.6608 C   0  0  0  0  0  0
  -27.6285  -13.2248   19.8022 C   0  0  2  0  0  0
  -28.6633  -13.2462   20.9464 C   0  0  0  0  0  0
  -25.2509  -13.8115   20.5577 C   0  0  0  0  0  0
  -24.1817  -13.0384   20.9197 C   0  0  0  0  0  0
  -24.6381  -11.6854   20.8700 C   0  0  0  0  0  0
  -23.9068  -10.4223   21.0358 C   0  0  0  0  0  0
  -24.3628   -9.4159   21.9151 C   0  0  0  0  0  0
  -23.6296   -8.2209   22.0733 C   0  0  0  0  0  0
  -22.4282   -8.0239   21.3531 C   0  0  0  0  0  0
  -21.9896   -9.0204   20.4649 C   0  0  0  0  0  0
  -22.7224  -10.2076   20.3028 C   0  0  0  0  0  0
  -21.6839   -6.0726   22.5287 C   0  0  0  0  0  0
  -21.3983   -6.5628   23.8225 C   0  0  0  0  0  0
  -21.3651   -5.6787   24.9188 C   0  0  0  0  0  0
  -21.6052   -4.3062   24.7234 C   0  0  0  0  0  0
  -21.8831   -3.8148   23.4357 C   0  0  0  0  0  0
  -21.9184   -4.6953   22.3407 C   0  0  0  0  0  0
  -22.7861  -13.5187   21.1945 C   0  0  0  0  0  0
  -22.1672   -4.2145   21.0996 F   0  0  0  0  0  0
  -21.5632   -3.4534   25.7752 F   0  0  0  0  0  0
  -29.9539  -13.6211   20.3539 N   0  0  0  0  0  0
  -26.2877  -12.9321   20.2962 N   0  0  0  0  0  0
  -25.9307  -11.6480   20.5592 N   0  0  0  0  0  0
  -22.0537  -12.8098   22.0456 N   0  0  0  0  0  0
  -25.4197  -15.1849   20.4007 N   0  0  0  0  0  0
  -31.7880  -14.9022   20.1563 O   0  0  0  0  0  0
  -21.6628   -6.8863   21.4244 O   0  0  0  0  0  0
  -22.3521  -14.5478   20.6799 O   0  0  0  0  0  0
  -24.6388  -31.8471   23.1944 C   0  0  0  0  0  0
  -25.9176  -32.4713   23.8319 C   0  0  1  0  0  0
  -27.2172  -27.1866   20.1224 C   0  0  0  0  0  0
  -25.5938  -33.8513   24.2246 N   0  0  0  0  0  0
  -23.4409  -30.4751   21.5337 C   0  0  2  0  0  0
  -24.8885  -28.9078   20.1108 C   0  0  0  0  0  0
  -22.7528  -29.4611   22.4839 C   0  0  0  0  0  0
  -18.0280  -28.1333   22.8570 C   0  0  0  0  0  0
  -24.1501  -36.7275   23.2636 C   0  0  0  0  0  0
  -25.9965  -30.7332   21.3888 C   0  0  0  0  0  0
  -26.0670  -29.3508   20.7268 C   0  0  0  0  0  0
  -27.2318  -28.5044   20.7179 C   0  0  0  0  0  0
  -26.0121  -26.8282   19.4813 C   0  0  0  0  0  0
  -24.8708  -27.6560   19.4765 C   0  0  0  0  0  0
  -23.6720  -29.8146   20.1503 C   0  0  0  0  0  0
  -25.4127  -36.3053   24.0328 C   0  0  1  0  0  0
  -20.5874  -28.3772   23.1257 C   0  0  2  0  0  0
  -20.6818  -26.9524   22.5314 C   0  0  0  0  0  0
  -19.5689  -26.6497   21.5205 C   0  0  0  0  0  0
  -18.1992  -26.7781   22.1944 C   0  0  0  0  0  0
  -19.1509  -28.8898   23.2863 C   0  0  0  0  0  0
  -18.9368  -30.1507   23.8819 C   0  0  0  0  0  0
  -17.6352  -30.6604   24.0437 C   0  0  0  0  0  0
  -25.9071  -34.9423   23.5107 C   0  0  0  0  0  0
  -16.5271  -29.9028   23.6242 C   0  0  0  0  0  0
  -16.7249  -28.6384   23.0411 C   0  0  0  0  0  0
  -26.4517  -31.6546   25.0722 C   0  0  0  0  0  0
  -25.3729  -31.3691   26.1428 C   0  0  0  0  0  0
  -27.0365  -30.2951   24.6268 C   0  0  0  0  0  0
  -27.6079  -32.4284   25.7470 C   0  0  0  0  0  0
  -27.5598  -37.1803   24.8466 C   0  0  0  0  0  0
  -21.4213  -29.3181   22.3717 N   0  0  0  0  0  0
  -26.4314  -37.3756   23.9400 N   0  0  0  0  0  0
  -24.7111  -31.0393   22.0933 N   0  0  0  0  0  0
  -23.4213  -28.8048   23.2862 O   0  0  0  0  0  0
  -28.2908  -26.2410   20.1705 O   0  0  0  0  0  0
  -26.5657  -34.8896   22.4689 O   0  0  0  0  0  0
  -23.5523  -32.1344   23.7214 O   0  0  0  0  0  0
  -29.3348  -21.1122   21.3869 C   0  0  0  0  0  0
  -29.5914  -19.6851   21.3267 C   0  0  0  0  0  0
  -29.1260  -21.9583   20.2419 C   0  0  0  0  0  0
  -29.6534  -18.9438   20.1104 C   0  0  0  0  0  0
  -29.0974  -21.1975   19.0283 C   0  0  0  0  0  0
  -29.3435  -19.7644   18.9644 C   0  0  0  0  0  0
  -29.2078  -23.5987   20.3184 C   0  0  0  0  0  0
  -30.3404  -17.4636   20.0009 C   0  0  0  0  0  0
  -28.0489  -24.7336   19.9922 C   0  0  0  0  0  0
  -29.8264  -16.0539   20.4167 N   0  0  0  0  0  0
  -28.8462  -22.0669   17.5544 Cl  0  0  0  0  0  0
  -29.3435  -19.0186   17.4019 Cl  0  0  0  0  0  0
  -31.4765  -12.6597   19.1681 H   0  0  0  0  0  0
  -30.4132  -11.5726   20.0115 H   0  0  0  0  0  0
  -29.8524  -11.7284   17.5384 H   0  0  0  0  0  0
  -29.6036  -13.4448   17.7051 H   0  0  0  0  0  0
  -27.9887  -11.2338   19.0014 H   0  0  0  0  0  0
  -27.3993  -12.3480   17.7970 H   0  0  0  0  0  0
  -27.5890  -14.2160   19.3479 H   0  0  0  0  0  0
  -28.7272  -12.2644   21.4268 H   0  0  0  0  0  0
  -28.3700  -13.9728   21.7066 H   0  0  0  0  0  0
  -25.2780   -9.5609   22.4725 H   0  0  0  0  0  0
  -24.0003   -7.4572   22.7422 H   0  0  0  0  0  0
  -21.0842   -8.8705   19.8956 H   0  0  0  0  0  0
  -22.3686  -10.9603   19.6131 H   0  0  0  0  0  0
  -21.1966   -7.6138   23.9718 H   0  0  0  0  0  0
  -21.1476   -6.0524   25.9093 H   0  0  0  0  0  0
  -22.0630   -2.7600   23.2863 H   0  0  0  0  0  0
  -22.4178  -11.9700   22.4691 H   0  0  0  0  0  0
  -21.1172  -13.1096   22.2812 H   0  0  0  0  0  0
  -24.6413  -15.8287   20.5084 H   0  0  0  0  0  0
  -26.2413  -15.6243   20.0040 H   0  0  0  0  0  0
  -26.7234  -32.5325   23.1034 H   0  0  0  0  0  0
  -25.0030  -33.9633   25.0356 H   0  0  0  0  0  0
  -22.7425  -31.2990   21.3861 H   0  0  0  0  0  0
  -23.3772  -35.9603   23.3283 H   0  0  0  0  0  0
  -24.3601  -36.8909   22.2058 H   0  0  0  0  0  0
  -23.7258  -37.6466   23.6678 H   0  0  0  0  0  0
  -26.1573  -31.4928   20.6218 H   0  0  0  0  0  0
  -26.8603  -30.7721   22.0389 H   0  0  0  0  0  0
  -28.1285  -28.8418   21.2192 H   0  0  0  0  0  0
  -25.9208  -25.8736   18.9834 H   0  0  0  0  0  0
  -23.9715  -27.3106   18.9855 H   0  0  0  0  0  0
  -23.8328  -30.5948   19.4067 H   0  0  0  0  0  0
  -22.7804  -29.2764   19.8228 H   0  0  0  0  0  0
  -25.1317  -36.1898   25.0829 H   0  0  0  0  0  0
  -20.9975  -28.3279   24.1348 H   0  0  0  0  0  0
  -20.5885  -26.2397   23.3539 H   0  0  0  0  0  0
  -21.6635  -26.7651   22.0959 H   0  0  0  0  0  0
  -19.6917  -25.6502   21.1079 H   0  0  0  0  0  0
  -19.6354  -27.3436   20.6819 H   0  0  0  0  0  0
  -17.4049  -26.6064   21.4669 H   0  0  0  0  0  0
  -18.0890  -26.0089   22.9587 H   0  0  0  0  0  0
  -19.7791  -30.7427   24.2168 H   0  0  0  0  0  0
  -17.4858  -31.6326   24.4927 H   0  0  0  0  0  0
  -15.5264  -30.2941   23.7455 H   0  0  0  0  0  0
  -15.8690  -28.0593   22.7209 H   0  0  0  0  0  0
  -24.5951  -30.6986   25.7750 H   0  0  0  0  0  0
  -24.8854  -32.2836   26.4818 H   0  0  0  0  0  0
  -25.8029  -30.8896   27.0234 H   0  0  0  0  0  0
  -26.2965  -29.6679   24.1287 H   0  0  0  0  0  0
  -27.4000  -29.7236   25.4818 H   0  0  0  0  0  0
  -27.8866  -30.4185   23.9559 H   0  0  0  0  0  0
  -27.2720  -33.3618   26.2006 H   0  0  0  0  0  0
  -28.3883  -32.6785   25.0270 H   0  0  0  0  0  0
  -28.0751  -31.8422   26.5400 H   0  0  0  0  0  0
  -28.2604  -38.0107   24.7510 H   0  0  0  0  0  0
  -28.1099  -36.2640   24.6291 H   0  0  0  0  0  0
  -27.2310  -37.1443   25.8864 H   0  0  0  0  0  0
  -20.9369  -29.9154   21.7154 H   0  0  0  0  0  0
  -26.0185  -38.2835   24.1362 H   0  0  0  0  0  0
  -29.4009  -21.5796   22.3609 H   0  0  0  0  0  0
  -29.8422  -19.1667   22.2464 H   0  0  0  0  0  0
  -30.0335  -23.8448   19.6437 H   0  0  0  0  0  0
  -29.6035  -23.8350   21.3116 H   0  0  0  0  0  0
  -31.2905  -17.5764   20.5289 H   0  0  0  0  0  0
  -30.6604  -17.3448   18.9623 H   0  0  0  0  0  0
  -27.1545  -24.4788   20.5664 H   0  0  0  0  0  0
  -27.7728  -24.6023   18.9448 H   0  0  0  0  0  0
  -28.8336  -15.9498   20.5425 H   0  0  0  0  0  0
  1 25  1  0  0  0
  1 30  2  0  0  0
  1 80  1  0  0  0
  2  3  1  0  0  0
  2 25  1  0  0  0
  2 83  1  0  0  0
  2 84  1  0  0  0
  3  4  1  0  0  0
  3 85  1  0  0  0
  3 86  1  0  0  0
  4  5  1  0  0  0
  4 87  1  0  0  0
  4 88  1  0  0  0
  5  6  1  0  0  0
  5 26  1  0  0  0
  5 89  1  0  0  0
  6 25  1  0  0  0
  6 90  1  0  0  0
  6 91  1  0  0  0
  7  8  2  0  0  0
  7 26  1  0  0  0
  7 29  1  0  0  0
  8  9  1  0  0  0
  8 22  1  0  0  0
  9 10  1  0  0  0
  9 27  2  0  0  0
 10 11  2  0  0  0
 10 15  1  0  0  0
 11 12  1  0  0  0
 11 92  1  0  0  0
 12 13  2  0  0  0
 12 93  1  0  0  0
 13 14  1  0  0  0
 13 31  1  0  0  0
 14 15  2  0  0  0
 14 94  1  0  0  0
 15 95  1  0  0  0
 16 17  2  0  0  0
 16 21  1  0  0  0
 16 31  1  0  0  0
 17 18  1  0  0  0
 17 96  1  0  0  0
 18 19  2  0  0  0
 18 97  1  0  0  0
 19 20  1  0  0  0
 19 24  1  0  0  0
 20 21  2  0  0  0
 20 98  1  0  0  0
 21 23  1  0  0  0
 22 28  1  0  0  0
 22 32  2  0  0  0
 26 27  1  0  0  0
 28 99  1  0  0  0
 28100  1  0  0  0
 29101  1  0  0  0
 29102  1  0  0  0
 33 34  1  0  0  0
 33 66  1  0  0  0
 33 70  2  0  0  0
 34 36  1  0  0  0
 34 59  1  0  0  0
 34103  1  0  0  0
 35 44  2  0  0  0
 35 45  1  0  0  0
 35 68  1  0  0  0
 36 56  1  0  0  0
 36104  1  0  0  0
 37 39  1  0  0  0
 37 47  1  0  0  0
 37 66  1  0  0  0
 37105  1  0  0  0
 38 43  2  0  0  0
 38 46  1  0  0  0
 38 47  1  0  0  0
 39 64  1  0  0  0
 39 67  2  0  0  0
 40 52  1  0  0  0
 40 53  2  0  0  0
 40 58  1  0  0  0
 41106  1  0  0  0
 41107  1  0  0  0
 41108  1  0  0  0
 41 48  1  0  0  0
 42 43  1  0  0  0
 42 66  1  0  0  0
 42109  1  0  0  0
 42110  1  0  0  0
 43 44  1  0  0  0
 44111  1  0  0  0
 45 46  2  0  0  0
 45112  1  0  0  0
 46113  1  0  0  0
 47114  1  0  0  0
 47115  1  0  0  0
 48 56  1  0  0  0
 48 65  1  0  0  0
 48116  1  0  0  0
 49 50  1  0  0  0
 49 53  1  0  0  0
 49 64  1  0  0  0
 49117  1  0  0  0
 50 51  1  0  0  0
 50118  1  0  0  0
 50119  1  0  0  0
 51 52  1  0  0  0
 51120  1  0  0  0
 51121  1  0  0  0
 52122  1  0  0  0
 52123  1  0  0  0
 53 54  1  0  0  0
 54 55  2  0  0  0
 54124  1  0  0  0
 55 57  1  0  0  0
 55125  1  0  0  0
 56 69  2  0  0  0
 57 58  2  0  0  0
 57126  1  0  0  0
 58127  1  0  0  0
 59 60  1  0  0  0
 59 61  1  0  0  0
 59 62  1  0  0  0
 60128  1  0  0  0
 60129  1  0  0  0
 60130  1  0  0  0
 61131  1  0  0  0
 61132  1  0  0  0
 61133  1  0  0  0
 62134  1  0  0  0
 62135  1  0  0  0
 62136  1  0  0  0
 63 65  1  0  0  0
 63137  1  0  0  0
 63138  1  0  0  0
 63139  1  0  0  0
 64140  1  0  0  0
 65141  1  0  0  0
 68 79  1  0  0  0
 71 72  2  0  0  0
 71 73  1  0  0  0
 71142  1  0  0  0
 72 74  1  0  0  0
 72143  1  0  0  0
 73 75  2  0  0  0
 73 77  1  0  0  0
 74 76  2  0  0  0
 74 78  1  0  0  0
 75 76  1  0  0  0
 75 81  1  0  0  0
 76 82  1  0  0  0
 77 79  1  0  0  0
 77144  1  0  0  0
 77145  1  0  0  0
 78 80  1  0  0  0
 78146  1  0  0  0
 78147  1  0  0  0
 79148  1  0  0  0
 79149  1  0  0  0
 80150  1  0  0  0
M  ISO  4   1 100  68 101  79 101  80 100
M  END
> <chiral flag>
0

> <version>
0

> <s_m_source_file>
/data/baiqing/PycharmProjects/Reinvent-master-3.2/result/LINK_invent/BTK/process_docking_weight1_custom_sum_contain_oxygen_bond_distance_aromatic_linkinvent_7_9_3/rearranged_h_0024.sdf

> <i_m_source_file_index>
9

> <r_mmod_Potential_Energy-OPLS-2005>
357.077880859375

> <r_mmod_Stretch_Energy-OPLS-2005>
186.719284057617

> <r_mmod_Bend_Energy-OPLS-2005>
224.139465332031

> <r_mmod_Torsional_Energy-OPLS-2005>
225.382537841797

> <r_mmod_Improper_Torsional_Energy-OPLS-2005>
10.5910530090332

> <r_mmod_Van_der_Waal_Energy-OPLS-2005>
137.541213989258

> <r_mmod_Electrostatic_Energy-OPLS-2005>
-365.156921386719

> <r_mmod_Solvation_Energy-OPLS-2005>
-207.834243774414

> <b_mmod_Minimization_Converged-OPLS-2005>
0

> <r_mmod_RMS_Derivative-OPLS-2005>
7.84385967254639

$$$$
9
                    3D
 Structure written by MMmdl.
168176  0  0  1  0            999 V2000
  -30.7551  -14.5171   20.4411 C   0  0  0  0  0  0
  -30.4047  -12.3063   19.4347 C   0  0  0  0  0  0
  -29.4777  -12.4445   18.2124 C   0  0  0  0  0  0
  -28.0017  -12.3299   18.6378 C   0  0  0  0  0  0
  -27.6460  -13.2134   19.8599 C   0  0  2  0  0  0
  -28.7084  -13.1266   20.9801 C   0  0  0  0  0  0
  -25.2462  -13.8076   20.5835 C   0  0  0  0  0  0
  -24.1779  -13.0335   20.9293 C   0  0  0  0  0  0
  -24.6377  -11.6830   20.8770 C   0  0  0  0  0  0
  -23.9063  -10.4221   21.0417 C   0  0  0  0  0  0
  -24.3604   -9.4140   21.9205 C   0  0  0  0  0  0
  -23.6278   -8.2176   22.0747 C   0  0  0  0  0  0
  -22.4271   -8.0243   21.3539 C   0  0  0  0  0  0
  -21.9907   -9.0207   20.4649 C   0  0  0  0  0  0
  -22.7228  -10.2077   20.3081 C   0  0  0  0  0  0
  -21.6803   -6.0755   22.5282 C   0  0  0  0  0  0
  -21.3961   -6.5663   23.8206 C   0  0  0  0  0  0
  -21.3624   -5.6816   24.9171 C   0  0  0  0  0  0
  -21.6027   -4.3076   24.7213 C   0  0  0  0  0  0
  -21.8836   -3.8189   23.4339 C   0  0  0  0  0  0
  -21.9189   -4.6997   22.3400 C   0  0  0  0  0  0
  -22.7769  -13.5061   21.1928 C   0  0  0  0  0  0
  -22.1685   -4.2207   21.0982 F   0  0  0  0  0  0
  -21.5624   -3.4557   25.7718 F   0  0  0  0  0  0
  -30.0280  -13.3687   20.3824 N   0  0  0  0  0  0
  -26.2961  -12.9331   20.3414 N   0  0  0  0  0  0
  -25.9307  -11.6473   20.5774 N   0  0  0  0  0  0
  -22.0440  -12.8025   22.0479 N   0  0  0  0  0  0
  -25.3878  -15.1794   20.4350 N   0  0  0  0  0  0
  -31.9550  -14.5524   20.1922 O   0  0  0  0  0  0
  -21.6614   -6.8863   21.4227 O   0  0  0  0  0  0
  -22.3400  -14.5330   20.6713 O   0  0  0  0  0  0
  -24.6045  -31.8688   23.2141 C   0  0  0  0  0  0
  -25.8955  -32.4838   23.8406 C   0  0  1  0  0  0
  -27.2530  -27.4706   20.1243 C   0  0  0  0  0  0
  -25.5833  -33.8632   24.2340 N   0  0  0  0  0  0
  -23.3935  -30.4885   21.5494 C   0  0  2  0  0  0
  -24.8519  -28.9597   20.1141 C   0  0  0  0  0  0
  -22.7374  -29.4627   22.4992 C   0  0  0  0  0  0
  -18.0233  -28.1416   22.8476 C   0  0  0  0  0  0
  -24.1492  -36.7370   23.2630 C   0  0  0  0  0  0
  -25.9147  -30.8448   21.3610 C   0  0  0  0  0  0
  -25.9989  -29.4740   20.7335 C   0  0  0  0  0  0
  -27.1967  -28.7330   20.7519 C   0  0  0  0  0  0
  -26.1045  -26.9754   19.4701 C   0  0  0  0  0  0
  -24.9000  -27.7092   19.4744 C   0  0  0  0  0  0
  -23.6027  -29.8153   20.1658 C   0  0  0  0  0  0
  -25.4100  -36.3132   24.0351 C   0  0  1  0  0  0
  -20.5822  -28.3640   23.1362 C   0  0  2  0  0  0
  -20.6728  -26.9367   22.5449 C   0  0  0  0  0  0
  -19.5718  -26.6380   21.5240 C   0  0  0  0  0  0
  -18.1876  -26.7956   22.1625 C   0  0  0  0  0  0
  -19.1485  -28.8841   23.2910 C   0  0  0  0  0  0
  -18.9423  -30.1434   23.8924 C   0  0  0  0  0  0
  -17.6433  -30.6596   24.0563 C   0  0  0  0  0  0
  -25.9023  -34.9483   23.5144 C   0  0  0  0  0  0
  -16.5308  -29.9114   23.6325 C   0  0  0  0  0  0
  -16.7229  -28.6545   23.0332 C   0  0  0  0  0  0
  -26.4415  -31.6601   25.0699 C   0  0  0  0  0  0
  -25.3688  -31.3690   26.1461 C   0  0  0  0  0  0
  -27.0222  -30.3054   24.6014 C   0  0  0  0  0  0
  -27.6027  -32.4284   25.7440 C   0  0  0  0  0  0
  -27.5601  -37.1806   24.8445 C   0  0  0  0  0  0
  -21.4099  -29.3029   22.3786 N   0  0  0  0  0  0
  -26.4299  -37.3799   23.9414 N   0  0  0  0  0  0
  -24.6540  -31.0844   22.0997 N   0  0  0  0  0  0
  -23.4170  -28.8114   23.2957 O   0  0  0  0  0  0
  -28.4008  -26.7170   20.1136 O   0  0  0  0  0  0
  -26.5599  -34.8926   22.4719 O   0  0  0  0  0  0
  -23.5245  -32.1401   23.7572 O   0  0  0  0  0  0
  -27.3690  -17.8046   21.4960 C   0  0  0  0  0  0
  -27.8591  -18.2366   22.7398 C   0  0  0  0  0  0
  -29.2115  -17.9714   23.0946 C   0  0  0  0  0  0
  -29.4048  -16.5320   21.0876 C   0  0  0  0  0  0
  -28.1676  -17.0377   20.6394 C   0  0  0  0  0  0
  -29.9625  -17.0574   22.2935 C   0  0  0  0  0  0
  -26.8993  -19.0166   23.6284 C   0  0  0  0  0  0
  -29.8232  -18.6578   24.3312 C   0  0  0  0  0  0
  -29.8564  -20.2123   24.2738 C   0  0  0  0  0  0
  -31.1652  -20.8759   23.8036 C   0  0  0  0  0  0
  -31.0883  -22.4235   23.8870 C   0  0  0  0  0  0
  -30.4388  -23.0623   22.6415 C   0  0  0  0  0  0
  -30.1903  -24.5851   22.7144 C   0  0  0  0  0  0
  -29.6828  -25.1349   21.3600 C   0  0  0  0  0  0
  -29.0356  -26.5308   21.3861 C   0  0  0  0  0  0
  -30.0951  -15.6606   20.1957 N   0  0  0  0  0  0
  -27.6284  -16.7901   19.0114 Cl  0  0  0  0  0  0
  -31.5855  -16.6484   22.7497 Cl  0  0  0  0  0  0
  -31.4488  -12.3628   19.1204 H   0  0  0  0  0  0
  -30.2844  -11.3276   19.8983 H   0  0  0  0  0  0
  -29.6991  -11.6674   17.4804 H   0  0  0  0  0  0
  -29.6454  -13.3997   17.7129 H   0  0  0  0  0  0
  -27.8064  -11.2820   18.8703 H   0  0  0  0  0  0
  -27.3467  -12.5793   17.8040 H   0  0  0  0  0  0
  -27.6429  -14.2315   19.4877 H   0  0  0  0  0  0
  -28.6913  -12.1537   21.4711 H   0  0  0  0  0  0
  -28.4979  -13.8613   21.7559 H   0  0  0  0  0  0
  -25.2760   -9.5586   22.4758 H   0  0  0  0  0  0
  -24.0018   -7.4502   22.7372 H   0  0  0  0  0  0
  -21.0883   -8.8668   19.8900 H   0  0  0  0  0  0
  -22.3691  -10.9598   19.6181 H   0  0  0  0  0  0
  -21.1923   -7.6166   23.9721 H   0  0  0  0  0  0
  -21.1412   -6.0546   25.9054 H   0  0  0  0  0  0
  -22.0652   -2.7667   23.2797 H   0  0  0  0  0  0
  -22.4152  -11.9775   22.4962 H   0  0  0  0  0  0
  -21.0965  -13.0829   22.2589 H   0  0  0  0  0  0
  -24.5981  -15.8024   20.5522 H   0  0  0  0  0  0
  -26.2136  -15.6424   20.0804 H   0  0  0  0  0  0
  -26.7002  -32.5598   23.1155 H   0  0  0  0  0  0
  -24.9882  -33.9780   25.0410 H   0  0  0  0  0  0
  -22.6758  -31.2985   21.4107 H   0  0  0  0  0  0
  -23.3722  -35.9733   23.3270 H   0  0  0  0  0  0
  -24.3589  -36.9033   22.2059 H   0  0  0  0  0  0
  -23.7294  -37.6588   23.6658 H   0  0  0  0  0  0
  -26.0074  -31.5881   20.5679 H   0  0  0  0  0  0
  -26.8084  -30.9217   21.9672 H   0  0  0  0  0  0
  -28.0780  -29.1305   21.2322 H   0  0  0  0  0  0
  -26.1459  -26.0240   18.9590 H   0  0  0  0  0  0
  -24.0268  -27.3239   18.9648 H   0  0  0  0  0  0
  -23.6748  -30.5804   19.3897 H   0  0  0  0  0  0
  -22.7332  -29.2137   19.8966 H   0  0  0  0  0  0
  -25.1253  -36.2000   25.0838 H   0  0  0  0  0  0
  -20.9901  -28.3225   24.1503 H   0  0  0  0  0  0
  -20.5671  -26.2203   23.3612 H   0  0  0  0  0  0
  -21.6580  -26.7428   22.1198 H   0  0  0  0  0  0
  -19.6846  -25.6308   21.1247 H   0  0  0  0  0  0
  -19.6721  -27.3207   20.6798 H   0  0  0  0  0  0
  -17.4143  -26.6676   21.4033 H   0  0  0  0  0  0
  -18.0234  -26.0163   22.9078 H   0  0  0  0  0  0
  -19.7893  -30.7213   24.2348 H   0  0  0  0  0  0
  -17.4987  -31.6289   24.5139 H   0  0  0  0  0  0
  -15.5310  -30.3006   23.7672 H   0  0  0  0  0  0
  -15.8621  -28.0873   22.7047 H   0  0  0  0  0  0
  -24.5852  -30.7041   25.7795 H   0  0  0  0  0  0
  -24.8829  -32.2824   26.4900 H   0  0  0  0  0  0
  -25.8017  -30.8851   27.0227 H   0  0  0  0  0  0
  -26.2737  -29.6849   24.1063 H   0  0  0  0  0  0
  -27.4022  -29.7253   25.4430 H   0  0  0  0  0  0
  -27.8555  -30.4372   23.9110 H   0  0  0  0  0  0
  -27.2697  -33.3577   26.2067 H   0  0  0  0  0  0
  -28.3807  -32.6874   25.0244 H   0  0  0  0  0  0
  -28.0724  -31.8355   26.5301 H   0  0  0  0  0  0
  -28.2556  -38.0156   24.7528 H   0  0  0  0  0  0
  -28.1152  -36.2683   24.6181 H   0  0  0  0  0  0
  -27.2322  -37.1382   25.8845 H   0  0  0  0  0  0
  -20.9207  -29.8882   21.7162 H   0  0  0  0  0  0
  -26.0203  -38.2882   24.1414 H   0  0  0  0  0  0
  -26.3784  -18.0959   21.1741 H   0  0  0  0  0  0
  -25.8805  -18.6415   23.5136 H   0  0  0  0  0  0
  -26.8895  -20.0665   23.3400 H   0  0  0  0  0  0
  -27.1435  -18.9485   24.6881 H   0  0  0  0  0  0
  -30.8121  -18.2839   24.5938 H   0  0  0  0  0  0
  -29.2046  -18.3624   25.1793 H   0  0  0  0  0  0
  -29.6958  -20.5567   25.2945 H   0  0  0  0  0  0
  -29.0244  -20.6120   23.7005 H   0  0  0  0  0  0
  -31.4209  -20.5580   22.7909 H   0  0  0  0  0  0
  -31.9817  -20.5256   24.4380 H   0  0  0  0  0  0
  -32.0958  -22.8223   24.0161 H   0  0  0  0  0  0
  -30.5406  -22.7266   24.7837 H   0  0  0  0  0  0
  -29.4788  -22.5772   22.4693 H   0  0  0  0  0  0
  -31.0510  -22.8391   21.7691 H   0  0  0  0  0  0
  -29.4463  -24.7823   23.4848 H   0  0  0  0  0  0
  -31.0971  -25.1100   23.0209 H   0  0  0  0  0  0
  -28.9335  -24.4462   20.9731 H   0  0  0  0  0  0
  -30.4898  -25.1289   20.6265 H   0  0  0  0  0  0
  -29.7801  -27.3070   21.5670 H   0  0  0  0  0  0
  -28.3111  -26.5875   22.2017 H   0  0  0  0  0  0
  -30.6391  -16.2007   19.5382 H   0  0  0  0  0  0
  1 25  1  0  0  0
  1 30  2  0  0  0
  1 86  1  0  0  0
  2  3  1  0  0  0
  2 25  1  0  0  0
  2 89  1  0  0  0
  2 90  1  0  0  0
  3  4  1  0  0  0
  3 91  1  0  0  0
  3 92  1  0  0  0
  4  5  1  0  0  0
  4 93  1  0  0  0
  4 94  1  0  0  0
  5  6  1  0  0  0
  5 26  1  0  0  0
  5 95  1  0  0  0
  6 25  1  0  0  0
  6 96  1  0  0  0
  6 97  1  0  0  0
  7  8  2  0  0  0
  7 26  1  0  0  0
  7 29  1  0  0  0
  8  9  1  0  0  0
  8 22  1  0  0  0
  9 10  1  0  0  0
  9 27  2  0  0  0
 10 11  2  0  0  0
 10 15  1  0  0  0
 11 12  1  0  0  0
 11 98  1  0  0  0
 12 13  2  0  0  0
 12 99  1  0  0  0
 13 14  1  0  0  0
 13 31  1  0  0  0
 14 15  2  0  0  0
 14100  1  0  0  0
 15101  1  0  0  0
 16 17  2  0  0  0
 16 21  1  0  0  0
 16 31  1  0  0  0
 17 18  1  0  0  0
 17102  1  0  0  0
 18 19  2  0  0  0
 18103  1  0  0  0
 19 20  1  0  0  0
 19 24  1  0  0  0
 20 21  2  0  0  0
 20104  1  0  0  0
 21 23  1  0  0  0
 22 28  1  0  0  0
 22 32  2  0  0  0
 26 27  1  0  0  0
 28105  1  0  0  0
 28106  1  0  0  0
 29107  1  0  0  0
 29108  1  0  0  0
 33 34  1  0  0  0
 33 66  1  0  0  0
 33 70  2  0  0  0
 34 36  1  0  0  0
 34 59  1  0  0  0
 34109  1  0  0  0
 35 44  2  0  0  0
 35 45  1  0  0  0
 35 68  1  0  0  0
 36 56  1  0  0  0
 36110  1  0  0  0
 37 39  1  0  0  0
 37 47  1  0  0  0
 37 66  1  0  0  0
 37111  1  0  0  0
 38 43  2  0  0  0
 38 46  1  0  0  0
 38 47  1  0  0  0
 39 64  1  0  0  0
 39 67  2  0  0  0
 40 52  1  0  0  0
 40 53  2  0  0  0
 40 58  1  0  0  0
 41112  1  0  0  0
 41113  1  0  0  0
 41114  1  0  0  0
 41 48  1  0  0  0
 42 43  1  0  0  0
 42 66  1  0  0  0
 42115  1  0  0  0
 42116  1  0  0  0
 43 44  1  0  0  0
 44117  1  0  0  0
 45 46  2  0  0  0
 45118  1  0  0  0
 46119  1  0  0  0
 47120  1  0  0  0
 47121  1  0  0  0
 48 56  1  0  0  0
 48 65  1  0  0  0
 48122  1  0  0  0
 49 50  1  0  0  0
 49 53  1  0  0  0
 49 64  1  0  0  0
 49123  1  0  0  0
 50 51  1  0  0  0
 50124  1  0  0  0
 50125  1  0  0  0
 51 52  1  0  0  0
 51126  1  0  0  0
 51127  1  0  0  0
 52128  1  0  0  0
 52129  1  0  0  0
 53 54  1  0  0  0
 54 55  2  0  0  0
 54130  1  0  0  0
 55 57  1  0  0  0
 55131  1  0  0  0
 56 69  2  0  0  0
 57 58  2  0  0  0
 57132  1  0  0  0
 58133  1  0  0  0
 59 60  1  0  0  0
 59 61  1  0  0  0
 59 62  1  0  0  0
 60134  1  0  0  0
 60135  1  0  0  0
 60136  1  0  0  0
 61137  1  0  0  0
 61138  1  0  0  0
 61139  1  0  0  0
 62140  1  0  0  0
 62141  1  0  0  0
 62142  1  0  0  0
 63 65  1  0  0  0
 63143  1  0  0  0
 63144  1  0  0  0
 63145  1  0  0  0
 64146  1  0  0  0
 65147  1  0  0  0
 68 85  1  0  0  0
 71 72  2  0  0  0
 71 75  1  0  0  0
 71148  1  0  0  0
 72 73  1  0  0  0
 72 77  1  0  0  0
 73 76  2  0  0  0
 73 78  1  0  0  0
 74 75  2  0  0  0
 74 76  1  0  0  0
 74 86  1  0  0  0
 75 87  1  0  0  0
 76 88  1  0  0  0
 77149  1  0  0  0
 77150  1  0  0  0
 77151  1  0  0  0
 78 79  1  0  0  0
 78152  1  0  0  0
 78153  1  0  0  0
 79 80  1  0  0  0
 79154  1  0  0  0
 79155  1  0  0  0
 80 81  1  0  0  0
 80156  1  0  0  0
 80157  1  0  0  0
 81 82  1  0  0  0
 81158  1  0  0  0
 81159  1  0  0  0
 82 83  1  0  0  0
 82160  1  0  0  0
 82161  1  0  0  0
 83 84  1  0  0  0
 83162  1  0  0  0
 83163  1  0  0  0
 84 85  1  0  0  0
 84164  1  0  0  0
 84165  1  0  0  0
 85166  1  0  0  0
 85167  1  0  0  0
 86168  1  0  0  0
M  ISO  4   1 100  68 101  85 101  86 100
M  END
> <chiral flag>
0

> <version>
0

> <s_m_source_file>
/data/baiqing/PycharmProjects/Reinvent-master-3.2/result/LINK_invent/BTK/process_docking_weight1_custom_sum_contain_oxygen_bond_distance_aromatic_linkinvent_7_9_3/rearranged_h_0024.sdf

> <i_m_source_file_index>
10

> <r_mmod_Potential_Energy-OPLS-2005>
78.1004028320312

> <r_mmod_Stretch_Energy-OPLS-2005>
38.275562286377

> <r_mmod_Bend_Energy-OPLS-2005>
123.154174804688

> <r_mmod_Torsional_Energy-OPLS-2005>
315.742248535156

> <r_mmod_Improper_Torsional_Energy-OPLS-2005>
24.0333518981934

> <r_mmod_Van_der_Waal_Energy-OPLS-2005>
146.930541992188

> <r_mmod_Electrostatic_Energy-OPLS-2005>
-419.791778564453

> <r_mmod_Solvation_Energy-OPLS-2005>
-179.584808349609

> <b_mmod_Minimization_Converged-OPLS-2005>
0

> <r_mmod_RMS_Derivative-OPLS-2005>
5.5528392791748

$$$$
10
                    3D
 Structure written by MMmdl.
162170  0  0  1  0            999 V2000
  -30.4531  -15.1663   20.3987 C   0  0  0  0  0  0
  -30.4579  -12.7364   19.5305 C   0  0  0  0  0  0
  -29.5520  -12.5794   18.2842 C   0  0  0  0  0  0
  -28.0881  -12.3263   18.6924 C   0  0  0  0  0  0
  -27.6309  -13.2663   19.8378 C   0  0  2  0  0  0
  -28.6666  -13.3612   20.9787 C   0  0  0  0  0  0
  -25.2489  -13.8223   20.5699 C   0  0  0  0  0  0
  -24.1808  -13.0437   20.9212 C   0  0  0  0  0  0
  -24.6443  -11.6933   20.8744 C   0  0  0  0  0  0
  -23.9125  -10.4299   21.0409 C   0  0  0  0  0  0
  -24.3660   -9.4213   21.9192 C   0  0  0  0  0  0
  -23.6317   -8.2257   22.0761 C   0  0  0  0  0  0
  -22.4295   -8.0298   21.3552 C   0  0  0  0  0  0
  -21.9949   -9.0283   20.4662 C   0  0  0  0  0  0
  -22.7292  -10.2152   20.3066 C   0  0  0  0  0  0
  -21.6866   -6.0754   22.5278 C   0  0  0  0  0  0
  -21.4027   -6.5654   23.8211 C   0  0  0  0  0  0
  -21.3656   -5.6798   24.9167 C   0  0  0  0  0  0
  -21.6036   -4.3062   24.7207 C   0  0  0  0  0  0
  -21.8824   -3.8162   23.4329 C   0  0  0  0  0  0
  -21.9199   -4.6985   22.3389 C   0  0  0  0  0  0
  -22.7822  -13.5222   21.1821 C   0  0  0  0  0  0
  -22.1656   -4.2175   21.0965 F   0  0  0  0  0  0
  -21.5627   -3.4536   25.7716 F   0  0  0  0  0  0
  -29.9170  -13.8543   20.3772 N   0  0  0  0  0  0
  -26.2919  -12.9474   20.3216 N   0  0  0  0  0  0
  -25.9389  -11.6592   20.5716 N   0  0  0  0  0  0
  -22.0440  -12.8252   22.0386 N   0  0  0  0  0  0
  -25.4159  -15.1945   20.4111 N   0  0  0  0  0  0
  -31.6578  -15.2256   20.1223 O   0  0  0  0  0  0
  -21.6650   -6.8902   21.4239 O   0  0  0  0  0  0
  -22.3517  -14.5494   20.6618 O   0  0  0  0  0  0
  -24.6621  -31.8305   23.1798 C   0  0  0  0  0  0
  -25.9318  -32.4626   23.8269 C   0  0  1  0  0  0
  -27.2095  -26.9650   20.1787 C   0  0  0  0  0  0
  -25.5995  -33.8444   24.2166 N   0  0  0  0  0  0
  -23.4732  -30.4495   21.5265 C   0  0  2  0  0  0
  -24.9218  -28.8532   20.1107 C   0  0  0  0  0  0
  -22.7669  -29.4498   22.4788 C   0  0  0  0  0  0
  -18.0344  -28.1390   22.8468 C   0  0  0  0  0  0
  -24.1478  -36.7238   23.2652 C   0  0  0  0  0  0
  -26.0417  -30.6481   21.4066 C   0  0  0  0  0  0
  -26.1049  -29.2442   20.7488 C   0  0  0  0  0  0
  -27.2410  -28.3204   20.7640 C   0  0  0  0  0  0
  -26.0057  -26.7433   19.4691 C   0  0  0  0  0  0
  -24.8971  -27.6192   19.4486 C   0  0  0  0  0  0
  -23.7086  -29.7770   20.1471 C   0  0  0  0  0  0
  -25.4114  -36.3010   24.0325 C   0  0  1  0  0  0
  -20.5963  -28.3766   23.1140 C   0  0  2  0  0  0
  -20.6792  -26.9444   22.5363 C   0  0  0  0  0  0
  -19.5763  -26.6362   21.5182 C   0  0  0  0  0  0
  -18.1961  -26.7926   22.1611 C   0  0  0  0  0  0
  -19.1603  -28.8897   23.2795 C   0  0  0  0  0  0
  -18.9513  -30.1473   23.8854 C   0  0  0  0  0  0
  -17.6503  -30.6580   24.0545 C   0  0  0  0  0  0
  -25.9091  -34.9375   23.5066 C   0  0  0  0  0  0
  -16.5397  -29.9066   23.6318 C   0  0  0  0  0  0
  -16.7324  -28.6466   23.0382 C   0  0  0  0  0  0
  -26.4553  -31.6564   25.0792 C   0  0  0  0  0  0
  -25.3675  -31.3824   26.1456 C   0  0  0  0  0  0
  -27.0461  -30.2935   24.6522 C   0  0  0  0  0  0
  -27.6053  -32.4384   25.7590 C   0  0  0  0  0  0
  -27.5571  -37.1788   24.8466 C   0  0  0  0  0  0
  -21.4348  -29.3077   22.3518 N   0  0  0  0  0  0
  -26.4274  -37.3731   23.9417 N   0  0  0  0  0  0
  -24.7471  -31.0013   22.0913 N   0  0  0  0  0  0
  -23.4217  -28.8058   23.3024 O   0  0  0  0  0  0
  -28.2193  -25.8742   20.2885 O   0  0  0  0  0  0
  -26.5693  -34.8888   22.4654 O   0  0  0  0  0  0
  -23.5698  -32.1275   23.6892 O   0  0  0  0  0  0
  -28.7000  -18.7659   21.3171 C   0  0  0  0  0  0
  -29.9621  -20.3657   19.5035 C   0  0  0  0  0  0
  -29.1591  -21.2042   20.4253 C   0  0  0  0  0  0
  -29.5851  -17.9515   20.5093 C   0  0  0  0  0  0
  -28.5004  -20.2285   21.2987 C   0  0  0  0  0  0
  -30.1989  -18.8822   19.5775 C   0  0  0  0  0  0
  -30.5562  -21.0571   18.2836 C   0  0  0  0  0  0
  -29.3479  -23.2167   22.1420 C   0  0  0  0  0  0
  -30.5634  -23.4890   20.1113 C   0  0  0  0  0  0
  -26.7332  -23.8380   20.7655 C   0  0  0  0  0  0
  -27.9492  -24.0266   18.5719 C   0  0  0  0  0  0
  -29.1917  -22.9663   20.6192 C   0  0  0  0  0  0
  -28.0659  -24.2428   20.0969 C   0  0  0  0  0  0
  -29.6182  -16.3496   20.6042 N   0  0  0  0  0  0
  -27.3097  -20.7556   22.4344 Cl  0  0  0  0  0  0
  -31.2727  -18.1500   18.4315 Cl  0  0  0  0  0  0
  -31.4834  -12.9350   19.2160 H   0  0  0  0  0  0
  -30.4997  -11.8033   20.0948 H   0  0  0  0  0  0
  -29.9159  -11.7697   17.6506 H   0  0  0  0  0  0
  -29.6108  -13.4891   17.6837 H   0  0  0  0  0  0
  -28.0124  -11.2883   19.0171 H   0  0  0  0  0  0
  -27.4315  -12.4268   17.8275 H   0  0  0  0  0  0
  -27.5745  -14.2591   19.3896 H   0  0  0  0  0  0
  -28.8060  -12.3934   21.4653 H   0  0  0  0  0  0
  -28.3227  -14.0494   21.7526 H   0  0  0  0  0  0
  -25.2799   -9.5684   22.4780 H   0  0  0  0  0  0
  -24.0027   -7.4649   22.7481 H   0  0  0  0  0  0
  -21.0888   -8.8821   19.8965 H   0  0  0  0  0  0
  -22.3763  -10.9702   19.6189 H   0  0  0  0  0  0
  -21.2024   -7.6162   23.9722 H   0  0  0  0  0  0
  -21.1467   -6.0523   25.9072 H   0  0  0  0  0  0
  -22.0607   -2.7629   23.2812 H   0  0  0  0  0  0
  -22.4044  -11.9960   22.4862 H   0  0  0  0  0  0
  -21.1042  -13.1301   22.2487 H   0  0  0  0  0  0
  -24.6475  -15.8462   20.5205 H   0  0  0  0  0  0
  -26.2489  -15.6258   20.0328 H   0  0  0  0  0  0
  -26.7439  -32.5149   23.1045 H   0  0  0  0  0  0
  -25.0113  -33.9538   25.0302 H   0  0  0  0  0  0
  -22.7870  -31.2835   21.3626 H   0  0  0  0  0  0
  -23.3747  -35.9559   23.3279 H   0  0  0  0  0  0
  -24.3560  -36.8911   22.2074 H   0  0  0  0  0  0
  -23.7218  -37.6420   23.6706 H   0  0  0  0  0  0
  -26.2198  -31.3888   20.6259 H   0  0  0  0  0  0
  -26.9046  -30.6987   22.0588 H   0  0  0  0  0  0
  -28.1319  -28.6147   21.3011 H   0  0  0  0  0  0
  -25.8553  -25.8291   18.9316 H   0  0  0  0  0  0
  -24.0088  -27.3152   18.9123 H   0  0  0  0  0  0
  -23.8658  -30.5509   19.3946 H   0  0  0  0  0  0
  -22.8186  -29.2365   19.8202 H   0  0  0  0  0  0
  -25.1292  -36.1851   25.0819 H   0  0  0  0  0  0
  -21.0083  -28.3375   24.1251 H   0  0  0  0  0  0
  -20.5604  -26.2437   23.3636 H   0  0  0  0  0  0
  -21.6659  -26.7360   22.1213 H   0  0  0  0  0  0
  -19.6900  -25.6243   21.1281 H   0  0  0  0  0  0
  -19.6666  -27.3106   20.6650 H   0  0  0  0  0  0
  -17.4220  -26.6699   21.4022 H   0  0  0  0  0  0
  -18.0352  -26.0061   22.8998 H   0  0  0  0  0  0
  -19.7990  -30.7287   24.2227 H   0  0  0  0  0  0
  -17.5053  -31.6259   24.5150 H   0  0  0  0  0  0
  -15.5389  -30.2956   23.7617 H   0  0  0  0  0  0
  -15.8741  -28.0719   22.7168 H   0  0  0  0  0  0
  -24.5851  -30.7185   25.7768 H   0  0  0  0  0  0
  -24.8868  -32.3031   26.4772 H   0  0  0  0  0  0
  -25.7882  -30.9067   27.0327 H   0  0  0  0  0  0
  -26.3141  -29.6635   24.1465 H   0  0  0  0  0  0
  -27.3933  -29.7276   25.5181 H   0  0  0  0  0  0
  -27.9099  -30.4133   23.9984 H   0  0  0  0  0  0
  -27.2617  -33.3717   26.2068 H   0  0  0  0  0  0
  -28.3902  -32.6922   25.0451 H   0  0  0  0  0  0
  -28.0700  -31.8615   26.5606 H   0  0  0  0  0  0
  -28.2576  -38.0097   24.7508 H   0  0  0  0  0  0
  -28.1081  -36.2628   24.6275 H   0  0  0  0  0  0
  -27.2305  -37.1415   25.8876 H   0  0  0  0  0  0
  -20.9617  -29.8875   21.6728 H   0  0  0  0  0  0
  -26.0140  -38.2807   24.1384 H   0  0  0  0  0  0
  -28.1029  -18.2304   22.0390 H   0  0  0  0  0  0
  -29.9102  -21.8650   17.9486 H   0  0  0  0  0  0
  -30.6195  -20.4049   17.4151 H   0  0  0  0  0  0
  -31.5538  -21.4388   18.4958 H   0  0  0  0  0  0
  -30.1390  -22.6026   22.5735 H   0  0  0  0  0  0
  -28.4479  -23.0194   22.7123 H   0  0  0  0  0  0
  -29.5941  -24.2576   22.3575 H   0  0  0  0  0  0
  -31.3981  -22.9084   20.5077 H   0  0  0  0  0  0
  -30.7356  -24.5239   20.4098 H   0  0  0  0  0  0
  -30.6552  -23.5142   19.0313 H   0  0  0  0  0  0
  -26.7258  -24.1050   21.8211 H   0  0  0  0  0  0
  -26.5752  -22.7628   20.6981 H   0  0  0  0  0  0
  -25.8482  -24.2769   20.3209 H   0  0  0  0  0  0
  -27.0672  -24.4556   18.1119 H   0  0  0  0  0  0
  -28.8068  -24.4496   18.0499 H   0  0  0  0  0  0
  -27.9053  -22.9639   18.3354 H   0  0  0  0  0  0
  -28.7243  -16.0139   20.9266 H   0  0  0  0  0  0
  1 25  1  0  0  0
  1 30  2  0  0  0
  1 84  1  0  0  0
  2  3  1  0  0  0
  2 25  1  0  0  0
  2 87  1  0  0  0
  2 88  1  0  0  0
  3  4  1  0  0  0
  3 89  1  0  0  0
  3 90  1  0  0  0
  4  5  1  0  0  0
  4 91  1  0  0  0
  4 92  1  0  0  0
  5  6  1  0  0  0
  5 26  1  0  0  0
  5 93  1  0  0  0
  6 25  1  0  0  0
  6 94  1  0  0  0
  6 95  1  0  0  0
  7  8  2  0  0  0
  7 26  1  0  0  0
  7 29  1  0  0  0
  8  9  1  0  0  0
  8 22  1  0  0  0
  9 10  1  0  0  0
  9 27  2  0  0  0
 10 11  2  0  0  0
 10 15  1  0  0  0
 11 12  1  0  0  0
 11 96  1  0  0  0
 12 13  2  0  0  0
 12 97  1  0  0  0
 13 14  1  0  0  0
 13 31  1  0  0  0
 14 15  2  0  0  0
 14 98  1  0  0  0
 15 99  1  0  0  0
 16 17  2  0  0  0
 16 21  1  0  0  0
 16 31  1  0  0  0
 17 18  1  0  0  0
 17100  1  0  0  0
 18 19  2  0  0  0
 18101  1  0  0  0
 19 20  1  0  0  0
 19 24  1  0  0  0
 20 21  2  0  0  0
 20102  1  0  0  0
 21 23  1  0  0  0
 22 28  1  0  0  0
 22 32  2  0  0  0
 26 27  1  0  0  0
 28103  1  0  0  0
 28104  1  0  0  0
 29105  1  0  0  0
 29106  1  0  0  0
 33 34  1  0  0  0
 33 66  1  0  0  0
 33 70  2  0  0  0
 34 36  1  0  0  0
 34 59  1  0  0  0
 34107  1  0  0  0
 35 44  2  0  0  0
 35 45  1  0  0  0
 35 68  1  0  0  0
 36 56  1  0  0  0
 36108  1  0  0  0
 37 39  1  0  0  0
 37 47  1  0  0  0
 37 66  1  0  0  0
 37109  1  0  0  0
 38 43  2  0  0  0
 38 46  1  0  0  0
 38 47  1  0  0  0
 39 64  1  0  0  0
 39 67  2  0  0  0
 40 52  1  0  0  0
 40 53  2  0  0  0
 40 58  1  0  0  0
 41110  1  0  0  0
 41111  1  0  0  0
 41112  1  0  0  0
 41 48  1  0  0  0
 42 43  1  0  0  0
 42 66  1  0  0  0
 42113  1  0  0  0
 42114  1  0  0  0
 43 44  1  0  0  0
 44115  1  0  0  0
 45 46  2  0  0  0
 45116  1  0  0  0
 46117  1  0  0  0
 47118  1  0  0  0
 47119  1  0  0  0
 48 56  1  0  0  0
 48 65  1  0  0  0
 48120  1  0  0  0
 49 50  1  0  0  0
 49 53  1  0  0  0
 49 64  1  0  0  0
 49121  1  0  0  0
 50 51  1  0  0  0
 50122  1  0  0  0
 50123  1  0  0  0
 51 52  1  0  0  0
 51124  1  0  0  0
 51125  1  0  0  0
 52126  1  0  0  0
 52127  1  0  0  0
 53 54  1  0  0  0
 54 55  2  0  0  0
 54128  1  0  0  0
 55 57  1  0  0  0
 55129  1  0  0  0
 56 69  2  0  0  0
 57 58  2  0  0  0
 57130  1  0  0  0
 58131  1  0  0  0
 59 60  1  0  0  0
 59 61  1  0  0  0
 59 62  1  0  0  0
 60132  1  0  0  0
 60133  1  0  0  0
 60134  1  0  0  0
 61135  1  0  0  0
 61136  1  0  0  0
 61137  1  0  0  0
 62138  1  0  0  0
 62139  1  0  0  0
 62140  1  0  0  0
 63 65  1  0  0  0
 63141  1  0  0  0
 63142  1  0  0  0
 63143  1  0  0  0
 64144  1  0  0  0
 65145  1  0  0  0
 68 83  1  0  0  0
 71 74  2  0  0  0
 71 75  1  0  0  0
 71146  1  0  0  0
 72 73  1  0  0  0
 72 76  2  0  0  0
 72 77  1  0  0  0
 73 75  2  0  0  0
 73 82  1  0  0  0
 74 76  1  0  0  0
 74 84  1  0  0  0
 75 85  1  0  0  0
 76 86  1  0  0  0
 77147  1  0  0  0
 77148  1  0  0  0
 77149  1  0  0  0
 78150  1  0  0  0
 78151  1  0  0  0
 78152  1  0  0  0
 78 82  1  0  0  0
 79 82  1  0  0  0
 79153  1  0  0  0
 79154  1  0  0  0
 79155  1  0  0  0
 80156  1  0  0  0
 80157  1  0  0  0
 80158  1  0  0  0
 80 83  1  0  0  0
 81 83  1  0  0  0
 81159  1  0  0  0
 81160  1  0  0  0
 81161  1  0  0  0
 82 83  1  0  0  0
 84162  1  0  0  0
M  ISO  4   1 100  68 101  83 101  84 100
M  END
> <chiral flag>
0

> <version>
0

> <s_m_source_file>
/data/baiqing/PycharmProjects/Reinvent-master-3.2/result/LINK_invent/BTK/process_docking_weight1_custom_sum_contain_oxygen_bond_distance_aromatic_linkinvent_7_9_3/rearranged_h_0024.sdf

> <i_m_source_file_index>
11

> <r_mmod_Potential_Energy-OPLS-2005>
1097.6767578125

> <r_mmod_Stretch_Energy-OPLS-2005>
503.570770263672

> <r_mmod_Bend_Energy-OPLS-2005>
426.733795166016

> <r_mmod_Torsional_Energy-OPLS-2005>
248.573699951172

> <r_mmod_Improper_Torsional_Energy-OPLS-2005>
5.1548228263855

> <r_mmod_Van_der_Waal_Energy-OPLS-2005>
153.237442016602

> <r_mmod_Electrostatic_Energy-OPLS-2005>
-413.075256347656

> <r_mmod_Solvation_Energy-OPLS-2005>
-203.812469482422

> <b_mmod_Minimization_Converged-OPLS-2005>
0

> <r_mmod_RMS_Derivative-OPLS-2005>
2.80116534233093

$$$$
11
                    3D
 Structure written by MMmdl.
183191  0  0  1  0            999 V2000
  -30.6890  -14.5076   20.3911 C   0  0  0  0  0  0
  -30.4301  -12.2590   19.4594 C   0  0  0  0  0  0
  -29.4873  -12.2929   18.2386 C   0  0  0  0  0  0
  -28.0012  -12.2826   18.6421 C   0  0  0  0  0  0
  -27.6557  -13.1945   19.8488 C   0  0  2  0  0  0
  -28.7053  -13.0656   20.9763 C   0  0  0  0  0  0
  -25.2618  -13.8134   20.5693 C   0  0  0  0  0  0
  -24.1882  -13.0436   20.9228 C   0  0  0  0  0  0
  -24.6411  -11.6889   20.8807 C   0  0  0  0  0  0
  -23.9081  -10.4267   21.0406 C   0  0  0  0  0  0
  -24.3608   -9.4163   21.9180 C   0  0  0  0  0  0
  -23.6281   -8.2203   22.0732 C   0  0  0  0  0  0
  -22.4270   -8.0256   21.3504 C   0  0  0  0  0  0
  -21.9917   -9.0252   20.4620 C   0  0  0  0  0  0
  -22.7264  -10.2112   20.3030 C   0  0  0  0  0  0
  -21.6849   -6.0731   22.5263 C   0  0  0  0  0  0
  -21.4033   -6.5646   23.8194 C   0  0  0  0  0  0
  -21.3655   -5.6791   24.9153 C   0  0  0  0  0  0
  -21.6035   -4.3054   24.7207 C   0  0  0  0  0  0
  -21.8839   -3.8149   23.4336 C   0  0  0  0  0  0
  -21.9201   -4.6964   22.3389 C   0  0  0  0  0  0
  -22.7900  -13.5224   21.1892 C   0  0  0  0  0  0
  -22.1675   -4.2156   21.0965 F   0  0  0  0  0  0
  -21.5576   -3.4537   25.7721 F   0  0  0  0  0  0
  -30.0291  -13.3211   20.3901 N   0  0  0  0  0  0
  -26.3027  -12.9291   20.3332 N   0  0  0  0  0  0
  -25.9338  -11.6482   20.5932 N   0  0  0  0  0  0
  -22.0531  -12.8182   22.0397 N   0  0  0  0  0  0
  -25.4330  -15.1845   20.3975 N   0  0  0  0  0  0
  -31.8920  -14.6120   20.1439 O   0  0  0  0  0  0
  -21.6617   -6.8876   21.4221 O   0  0  0  0  0  0
  -22.3622  -14.5570   20.6772 O   0  0  0  0  0  0
  -24.6102  -31.8714   23.2130 C   0  0  0  0  0  0
  -25.9010  -32.4847   23.8409 C   0  0  1  0  0  0
  -27.2501  -27.4698   20.1057 C   0  0  0  0  0  0
  -25.5881  -33.8643   24.2344 N   0  0  0  0  0  0
  -23.3961  -30.4928   21.5547 C   0  0  2  0  0  0
  -24.8470  -28.9610   20.1239 C   0  0  0  0  0  0
  -22.7379  -29.4666   22.5033 C   0  0  0  0  0  0
  -18.0255  -28.1370   22.8485 C   0  0  0  0  0  0
  -24.1492  -36.7322   23.2638 C   0  0  0  0  0  0
  -25.9179  -30.8511   21.3566 C   0  0  0  0  0  0
  -26.0020  -29.4817   20.7209 C   0  0  0  0  0  0
  -27.2061  -28.7452   20.7149 C   0  0  0  0  0  0
  -26.0789  -26.9592   19.5084 C   0  0  0  0  0  0
  -24.8774  -27.6935   19.5188 C   0  0  0  0  0  0
  -23.6042  -29.8220   20.1705 C   0  0  0  0  0  0
  -25.4111  -36.3121   24.0341 C   0  0  1  0  0  0
  -20.5838  -28.3648   23.1342 C   0  0  2  0  0  0
  -20.6753  -26.9394   22.5427 C   0  0  0  0  0  0
  -19.5745  -26.6388   21.5208 C   0  0  0  0  0  0
  -18.1915  -26.7920   22.1608 C   0  0  0  0  0  0
  -19.1502  -28.8828   23.2910 C   0  0  0  0  0  0
  -18.9434  -30.1429   23.8933 C   0  0  0  0  0  0
  -17.6442  -30.6586   24.0560 C   0  0  0  0  0  0
  -25.9033  -34.9484   23.5137 C   0  0  0  0  0  0
  -16.5332  -29.9092   23.6314 C   0  0  0  0  0  0
  -16.7247  -28.6501   23.0349 C   0  0  0  0  0  0
  -26.4474  -31.6596   25.0697 C   0  0  0  0  0  0
  -25.3766  -31.3663   26.1459 C   0  0  0  0  0  0
  -27.0285  -30.3054   24.5994 C   0  0  0  0  0  0
  -27.6073  -32.4299   25.7439 C   0  0  0  0  0  0
  -27.5585  -37.1811   24.8466 C   0  0  0  0  0  0
  -21.4111  -29.3015   22.3760 N   0  0  0  0  0  0
  -26.4301  -37.3798   23.9408 N   0  0  0  0  0  0
  -24.6598  -31.0848   22.1016 N   0  0  0  0  0  0
  -23.4167  -28.8212   23.3070 O   0  0  0  0  0  0
  -28.3909  -26.7105   19.9808 O   0  0  0  0  0  0
  -26.5593  -34.8932   22.4699 O   0  0  0  0  0  0
  -23.5307  -32.1440   23.7558 O   0  0  0  0  0  0
  -30.2278  -18.0358   20.4277 C   0  0  0  0  0  0
  -30.6948  -18.1104   17.6555 C   0  0  0  0  0  0
  -30.8359  -19.3463   18.3927 C   0  0  0  0  0  0
  -30.1763  -16.8307   19.7149 C   0  0  0  0  0  0
  -30.5080  -19.2711   19.7965 C   0  0  0  0  0  0
  -30.3221  -16.9087   18.3121 C   0  0  0  0  0  0
  -30.9201  -17.9430   16.1358 C   0  0  0  0  0  0
  -34.7247  -22.0603   22.1177 C   0  0  0  0  0  0
  -30.2337  -20.9723   16.5204 C   0  0  0  0  0  0
  -32.7370  -20.3948   17.0397 C   0  0  0  0  0  0
  -30.4292  -24.8554   22.5513 C   0  0  0  0  0  0
  -31.4562  -24.2166   21.5951 C   0  0  0  0  0  0
  -29.1632  -25.3584   21.8204 C   0  0  0  0  0  0
  -32.5561  -23.3870   22.2905 C   0  0  0  0  0  0
  -31.3982  -22.0278   18.3652 C   0  0  0  0  0  0
  -32.7176  -22.5311   19.0228 C   0  0  0  0  0  0
  -29.3518  -26.6708   21.0341 C   0  0  0  0  0  0
  -33.6340  -22.8050   21.3341 C   0  0  2  0  0  0
  -31.3054  -20.6416   17.6170 C   0  0  0  0  0  0
  -29.8978  -15.5988   20.4068 N   0  0  0  0  0  0
  -33.0485  -21.8958   20.3170 N   0  3  0  0  0  0
  -30.4030  -20.6140   20.8796 Cl  0  0  0  0  0  0
  -29.9743  -15.5293   17.3398 Cl  0  0  0  0  0  0
  -31.4707  -12.3443   19.1376 H   0  0  0  0  0  0
  -30.3461  -11.2943   19.9585 H   0  0  0  0  0  0
  -29.6902  -11.4181   17.6229 H   0  0  0  0  0  0
  -29.7009  -13.1145   17.5786 H   0  0  0  0  0  0
  -27.7662  -11.2463   18.8875 H   0  0  0  0  0  0
  -27.3732  -12.5427   17.7878 H   0  0  0  0  0  0
  -27.6802  -14.2181   19.4757 H   0  0  0  0  0  0
  -28.6821  -12.0698   21.4217 H   0  0  0  0  0  0
  -28.4914  -13.7616   21.7904 H   0  0  0  0  0  0
  -25.2725   -9.5629   22.4796 H   0  0  0  0  0  0
  -23.9960   -7.4605   22.7479 H   0  0  0  0  0  0
  -21.0812   -8.8817   19.8962 H   0  0  0  0  0  0
  -22.3715  -10.9652   19.6133 H   0  0  0  0  0  0
  -21.2062   -7.6166   23.9698 H   0  0  0  0  0  0
  -21.1451   -6.0502   25.9053 H   0  0  0  0  0  0
  -22.0635   -2.7617   23.2836 H   0  0  0  0  0  0
  -22.4149  -11.9847   22.4789 H   0  0  0  0  0  0
  -21.1152  -13.1192   22.2659 H   0  0  0  0  0  0
  -24.6569  -15.8273   20.5077 H   0  0  0  0  0  0
  -26.2525  -15.6157   19.9931 H   0  0  0  0  0  0
  -26.7080  -32.5602   23.1189 H   0  0  0  0  0  0
  -25.0027  -33.9810   25.0484 H   0  0  0  0  0  0
  -22.6816  -31.3067   21.4170 H   0  0  0  0  0  0
  -23.3743  -35.9667   23.3327 H   0  0  0  0  0  0
  -24.3576  -36.8905   22.2044 H   0  0  0  0  0  0
  -23.7266  -37.6548   23.6632 H   0  0  0  0  0  0
  -26.0068  -31.6093   20.5772 H   0  0  0  0  0  0
  -26.8145  -30.9236   21.9594 H   0  0  0  0  0  0
  -28.0931  -29.1851   21.1453 H   0  0  0  0  0  0
  -26.1015  -25.9892   19.0317 H   0  0  0  0  0  0
  -23.9897  -27.2821   19.0575 H   0  0  0  0  0  0
  -23.7040  -30.5946   19.4074 H   0  0  0  0  0  0
  -22.7304  -29.2353   19.8813 H   0  0  0  0  0  0
  -25.1289  -36.1988   25.0835 H   0  0  0  0  0  0
  -20.9909  -28.3205   24.1471 H   0  0  0  0  0  0
  -20.5641  -26.2257   23.3601 H   0  0  0  0  0  0
  -21.6632  -26.7447   22.1234 H   0  0  0  0  0  0
  -19.6914  -25.6303   21.1229 H   0  0  0  0  0  0
  -19.6697  -27.3208   20.6744 H   0  0  0  0  0  0
  -17.4187  -26.6656   21.4008 H   0  0  0  0  0  0
  -18.0316  -26.0062   22.9002 H   0  0  0  0  0  0
  -19.7913  -30.7220   24.2338 H   0  0  0  0  0  0
  -17.5005  -31.6273   24.5149 H   0  0  0  0  0  0
  -15.5337  -30.3015   23.7629 H   0  0  0  0  0  0
  -15.8634  -28.0836   22.7068 H   0  0  0  0  0  0
  -24.5927  -30.7032   25.7781 H   0  0  0  0  0  0
  -24.8975  -32.2805   26.4969 H   0  0  0  0  0  0
  -25.8139  -30.8773   27.0170 H   0  0  0  0  0  0
  -26.2772  -29.6807   24.1144 H   0  0  0  0  0  0
  -27.4196  -29.7291   25.4388 H   0  0  0  0  0  0
  -27.8550  -30.4403   23.9012 H   0  0  0  0  0  0
  -27.2712  -33.3577   26.2082 H   0  0  0  0  0  0
  -28.3837  -32.6894   25.0228 H   0  0  0  0  0  0
  -28.0796  -31.8381   26.5289 H   0  0  0  0  0  0
  -28.2624  -38.0086   24.7496 H   0  0  0  0  0  0
  -28.1056  -36.2621   24.6313 H   0  0  0  0  0  0
  -27.2295  -37.1492   25.8865 H   0  0  0  0  0  0
  -20.9265  -29.8733   21.6982 H   0  0  0  0  0  0
  -26.0193  -38.2879   24.1407 H   0  0  0  0  0  0
  -30.0412  -18.0134   21.4919 H   0  0  0  0  0  0
  -30.0085  -17.5953   15.6456 H   0  0  0  0  0  0
  -31.6994  -17.2000   15.9651 H   0  0  0  0  0  0
  -31.2276  -18.8020   15.5547 H   0  0  0  0  0  0
  -35.2260  -22.7282   22.8192 H   0  0  0  0  0  0
  -35.4927  -21.6633   21.4521 H   0  0  0  0  0  0
  -34.3147  -21.2278   22.6894 H   0  0  0  0  0  0
  -29.7673  -20.1397   16.0077 H   0  0  0  0  0  0
  -30.6378  -21.6207   15.7438 H   0  0  0  0  0  0
  -29.3820  -21.5024   16.9460 H   0  0  0  0  0  0
  -32.8896  -19.5059   16.4412 H   0  0  0  0  0  0
  -33.4612  -20.2606   17.8425 H   0  0  0  0  0  0
  -33.0796  -21.2307   16.4268 H   0  0  0  0  0  0
  -30.8902  -25.6666   23.1171 H   0  0  0  0  0  0
  -30.1226  -24.1094   23.2858 H   0  0  0  0  0  0
  -31.9189  -24.9980   20.9937 H   0  0  0  0  0  0
  -30.9144  -23.5733   20.9040 H   0  0  0  0  0  0
  -28.3528  -25.4976   22.5370 H   0  0  0  0  0  0
  -28.8142  -24.5756   21.1443 H   0  0  0  0  0  0
  -32.0934  -22.5794   22.8599 H   0  0  0  0  0  0
  -33.0503  -24.0232   23.0281 H   0  0  0  0  0  0
  -31.2796  -22.7921   17.5931 H   0  0  0  0  0  0
  -30.5221  -22.2354   18.9708 H   0  0  0  0  0  0
  -32.6022  -23.6047   19.1646 H   0  0  0  0  0  0
  -33.5801  -22.4669   18.3609 H   0  0  0  0  0  0
  -30.3320  -26.6863   20.5581 H   0  0  0  0  0  0
  -29.3270  -27.5254   21.7089 H   0  0  0  0  0  0
  -34.1376  -23.6300   20.8261 H   0  0  0  0  0  0
  -28.9489  -15.4472   20.7098 H   0  0  0  0  0  0
  -33.7175  -21.1659   20.1244 H   0  0  0  0  0  0
  -32.2178  -21.4619   20.6974 H   0  0  0  0  0  0
  1 25  1  0  0  0
  1 30  2  0  0  0
  1 90  1  0  0  0
  2  3  1  0  0  0
  2 25  1  0  0  0
  2 94  1  0  0  0
  2 95  1  0  0  0
  3  4  1  0  0  0
  3 96  1  0  0  0
  3 97  1  0  0  0
  4  5  1  0  0  0
  4 98  1  0  0  0
  4 99  1  0  0  0
  5  6  1  0  0  0
  5 26  1  0  0  0
  5100  1  0  0  0
  6 25  1  0  0  0
  6101  1  0  0  0
  6102  1  0  0  0
  7  8  2  0  0  0
  7 26  1  0  0  0
  7 29  1  0  0  0
  8  9  1  0  0  0
  8 22  1  0  0  0
  9 10  1  0  0  0
  9 27  2  0  0  0
 10 11  2  0  0  0
 10 15  1  0  0  0
 11 12  1  0  0  0
 11103  1  0  0  0
 12 13  2  0  0  0
 12104  1  0  0  0
 13 14  1  0  0  0
 13 31  1  0  0  0
 14 15  2  0  0  0
 14105  1  0  0  0
 15106  1  0  0  0
 16 17  2  0  0  0
 16 21  1  0  0  0
 16 31  1  0  0  0
 17 18  1  0  0  0
 17107  1  0  0  0
 18 19  2  0  0  0
 18108  1  0  0  0
 19 20  1  0  0  0
 19 24  1  0  0  0
 20 21  2  0  0  0
 20109  1  0  0  0
 21 23  1  0  0  0
 22 28  1  0  0  0
 22 32  2  0  0  0
 26 27  1  0  0  0
 28110  1  0  0  0
 28111  1  0  0  0
 29112  1  0  0  0
 29113  1  0  0  0
 33 34  1  0  0  0
 33 66  1  0  0  0
 33 70  2  0  0  0
 34 36  1  0  0  0
 34 59  1  0  0  0
 34114  1  0  0  0
 35 44  2  0  0  0
 35 45  1  0  0  0
 35 68  1  0  0  0
 36 56  1  0  0  0
 36115  1  0  0  0
 37 39  1  0  0  0
 37 47  1  0  0  0
 37 66  1  0  0  0
 37116  1  0  0  0
 38 43  2  0  0  0
 38 46  1  0  0  0
 38 47  1  0  0  0
 39 64  1  0  0  0
 39 67  2  0  0  0
 40 52  1  0  0  0
 40 53  2  0  0  0
 40 58  1  0  0  0
 41117  1  0  0  0
 41118  1  0  0  0
 41119  1  0  0  0
 41 48  1  0  0  0
 42 43  1  0  0  0
 42 66  1  0  0  0
 42120  1  0  0  0
 42121  1  0  0  0
 43 44  1  0  0  0
 44122  1  0  0  0
 45 46  2  0  0  0
 45123  1  0  0  0
 46124  1  0  0  0
 47125  1  0  0  0
 47126  1  0  0  0
 48 56  1  0  0  0
 48 65  1  0  0  0
 48127  1  0  0  0
 49 50  1  0  0  0
 49 53  1  0  0  0
 49 64  1  0  0  0
 49128  1  0  0  0
 50 51  1  0  0  0
 50129  1  0  0  0
 50130  1  0  0  0
 51 52  1  0  0  0
 51131  1  0  0  0
 51132  1  0  0  0
 52133  1  0  0  0
 52134  1  0  0  0
 53 54  1  0  0  0
 54 55  2  0  0  0
 54135  1  0  0  0
 55 57  1  0  0  0
 55136  1  0  0  0
 56 69  2  0  0  0
 57 58  2  0  0  0
 57137  1  0  0  0
 58138  1  0  0  0
 59 60  1  0  0  0
 59 61  1  0  0  0
 59 62  1  0  0  0
 60139  1  0  0  0
 60140  1  0  0  0
 60141  1  0  0  0
 61142  1  0  0  0
 61143  1  0  0  0
 61144  1  0  0  0
 62145  1  0  0  0
 62146  1  0  0  0
 62147  1  0  0  0
 63 65  1  0  0  0
 63148  1  0  0  0
 63149  1  0  0  0
 63150  1  0  0  0
 64151  1  0  0  0
 65152  1  0  0  0
 68 87  1  0  0  0
 71 74  2  0  0  0
 71 75  1  0  0  0
 71153  1  0  0  0
 72 73  1  0  0  0
 72 76  2  0  0  0
 72 77  1  0  0  0
 73 75  2  0  0  0
 73 89  1  0  0  0
 74 76  1  0  0  0
 74 90  1  0  0  0
 75 92  1  0  0  0
 76 93  1  0  0  0
 77154  1  0  0  0
 77155  1  0  0  0
 77156  1  0  0  0
 78157  1  0  0  0
 78158  1  0  0  0
 78159  1  0  0  0
 78 88  1  0  0  0
 79160  1  0  0  0
 79161  1  0  0  0
 79162  1  0  0  0
 79 89  1  0  0  0
 80 89  1  0  0  0
 80163  1  0  0  0
 80164  1  0  0  0
 80165  1  0  0  0
 81 82  1  0  0  0
 81 83  1  0  0  0
 81166  1  0  0  0
 81167  1  0  0  0
 82 84  1  0  0  0
 82168  1  0  0  0
 82169  1  0  0  0
 83 87  1  0  0  0
 83170  1  0  0  0
 83171  1  0  0  0
 84 88  1  0  0  0
 84172  1  0  0  0
 84173  1  0  0  0
 85 86  1  0  0  0
 85 89  1  0  0  0
 85174  1  0  0  0
 85175  1  0  0  0
 86 91  1  0  0  0
 86176  1  0  0  0
 86177  1  0  0  0
 87178  1  0  0  0
 87179  1  0  0  0
 88 91  1  0  0  0
 88180  1  0  0  0
 90181  1  0  0  0
 91182  1  0  0  0
 91183  1  0  0  0
M  CHG  1  91   1
M  ISO  4   1 100  68 101  87 101  90 100
M  END
> <chiral flag>
0

> <version>
0

> <s_m_source_file>
/data/baiqing/PycharmProjects/Reinvent-master-3.2/result/LINK_invent/BTK/process_docking_weight1_custom_sum_contain_oxygen_bond_distance_aromatic_linkinvent_7_9_3/rearranged_h_0024.sdf

> <i_m_source_file_index>
12

> <r_mmod_Potential_Energy-OPLS-2005>
54.2347450256348

> <r_mmod_Stretch_Energy-OPLS-2005>
57.7138137817383

> <r_mmod_Bend_Energy-OPLS-2005>
177.140640258789

> <r_mmod_Torsional_Energy-OPLS-2005>
315.522552490234

> <r_mmod_Improper_Torsional_Energy-OPLS-2005>
7.70886659622192

> <r_mmod_Van_der_Waal_Energy-OPLS-2005>
200.479553222656

> <r_mmod_Electrostatic_Energy-OPLS-2005>
-309.785675048828

> <r_mmod_Solvation_Energy-OPLS-2005>
-423.582946777344

> <b_mmod_Minimization_Converged-OPLS-2005>
0

> <r_mmod_RMS_Derivative-OPLS-2005>
4.09117460250854

$$$$
12
                    3D
 Structure written by MMmdl.
150158  0  0  1  0            999 V2000
  -30.2637  -15.7640   20.3211 C   0  0  0  0  0  0
  -30.4117  -13.1772   19.5383 C   0  0  0  0  0  0
  -29.5532  -12.6903   18.3323 C   0  0  0  0  0  0
  -28.1364  -12.3064   18.7817 C   0  0  0  0  0  0
  -27.5896  -13.3229   19.8074 C   0  0  2  0  0  0
  -28.5973  -13.7153   20.9173 C   0  0  0  0  0  0
  -25.2289  -13.8306   20.5809 C   0  0  0  0  0  0
  -24.1699  -13.0429   20.9295 C   0  0  0  0  0  0
  -24.6426  -11.6950   20.8758 C   0  0  0  0  0  0
  -23.9137  -10.4284   21.0384 C   0  0  0  0  0  0
  -24.3664   -9.4203   21.9174 C   0  0  0  0  0  0
  -23.6318   -8.2251   22.0754 C   0  0  0  0  0  0
  -22.4297   -8.0289   21.3546 C   0  0  0  0  0  0
  -21.9945   -9.0267   20.4647 C   0  0  0  0  0  0
  -22.7294  -10.2132   20.3045 C   0  0  0  0  0  0
  -21.6859   -6.0740   22.5281 C   0  0  0  0  0  0
  -21.4021   -6.5647   23.8215 C   0  0  0  0  0  0
  -21.3659   -5.6799   24.9175 C   0  0  0  0  0  0
  -21.6045   -4.3061   24.7227 C   0  0  0  0  0  0
  -21.8817   -3.8149   23.4347 C   0  0  0  0  0  0
  -21.9193   -4.6966   22.3404 C   0  0  0  0  0  0
  -22.7708  -13.5143   21.1935 C   0  0  0  0  0  0
  -22.1658   -4.2152   21.0979 F   0  0  0  0  0  0
  -21.5624   -3.4541   25.7738 F   0  0  0  0  0  0
  -29.7494  -14.3771   20.2503 N   0  0  0  0  0  0
  -26.2755  -12.9669   20.3231 N   0  0  0  0  0  0
  -25.9379  -11.6721   20.5681 N   0  0  0  0  0  0
  -22.0384  -12.8113   22.0484 N   0  0  0  0  0  0
  -25.3841  -15.2051   20.4251 N   0  0  0  0  0  0
  -31.4999  -15.6511   20.1884 O   0  0  0  0  0  0
  -21.6652   -6.8891   21.4245 O   0  0  0  0  0  0
  -22.3379  -14.5441   20.6775 O   0  0  0  0  0  0
  -24.6929  -31.7879   23.1425 C   0  0  0  0  0  0
  -25.9461  -32.4415   23.8002 C   0  0  1  0  0  0
  -27.2292  -26.6001   20.2261 C   0  0  0  0  0  0
  -25.6003  -33.8246   24.1889 N   0  0  0  0  0  0
  -23.5245  -30.3865   21.4981 C   0  0  2  0  0  0
  -24.9821  -28.7043   20.1209 C   0  0  0  0  0  0
  -22.7817  -29.4254   22.4665 C   0  0  0  0  0  0
  -18.0341  -28.1439   22.8455 C   0  0  0  0  0  0
  -24.1482  -36.7129   23.2652 C   0  0  0  0  0  0
  -26.1089  -30.4889   21.4197 C   0  0  0  0  0  0
  -26.1734  -29.0409   20.7744 C   0  0  0  0  0  0
  -27.2771  -28.0201   20.7901 C   0  0  0  0  0  0
  -26.0038  -26.4987   19.5127 C   0  0  0  0  0  0
  -24.9422  -27.4600   19.4663 C   0  0  0  0  0  0
  -23.7849  -29.6747   20.1376 C   0  0  0  0  0  0
  -25.4137  -36.2865   24.0271 C   0  0  1  0  0  0
  -20.5990  -28.3799   23.1126 C   0  0  2  0  0  0
  -20.6806  -26.9446   22.5413 C   0  0  0  0  0  0
  -19.5783  -26.6371   21.5225 C   0  0  0  0  0  0
  -18.1960  -26.7972   22.1613 C   0  0  0  0  0  0
  -19.1616  -28.8942   23.2771 C   0  0  0  0  0  0
  -18.9524  -30.1526   23.8823 C   0  0  0  0  0  0
  -17.6510  -30.6620   24.0555 C   0  0  0  0  0  0
  -25.9123  -34.9260   23.4918 C   0  0  0  0  0  0
  -16.5398  -29.9110   23.6358 C   0  0  0  0  0  0
  -16.7321  -28.6530   23.0370 C   0  0  0  0  0  0
  -26.4602  -31.6493   25.0669 C   0  0  0  0  0  0
  -25.3643  -31.3867   26.1271 C   0  0  0  0  0  0
  -27.0532  -30.2816   24.6631 C   0  0  0  0  0  0
  -27.6029  -32.4379   25.7502 C   0  0  0  0  0  0
  -27.5551  -37.1721   24.8467 C   0  0  0  0  0  0
  -21.4451  -29.3025   22.3436 N   0  0  0  0  0  0
  -26.4250  -37.3646   23.9417 N   0  0  0  0  0  0
  -24.8004  -30.9233   22.0729 N   0  0  0  0  0  0
  -23.4219  -28.7848   23.3040 O   0  0  0  0  0  0
  -28.1788  -25.3343   20.2971 O   0  0  0  0  0  0
  -26.5770  -34.8862   22.4541 O   0  0  0  0  0  0
  -23.5929  -32.0987   23.6326 O   0  0  0  0  0  0
  -31.2241  -20.9013   20.6673 C   0  0  0  0  0  0
  -30.3347  -22.0188   20.5363 C   0  0  0  0  0  0
  -30.9356  -19.4941   20.6026 C   0  0  0  0  0  0
  -28.9391  -21.8959   20.3200 C   0  0  0  0  0  0
  -29.6384  -18.9409   20.3717 C   0  0  0  0  0  0
  -28.6841  -20.2726   20.2496 C   0  0  0  0  0  0
  -30.9315  -23.4126   20.6465 C   0  0  0  0  0  0
  -32.1198  -18.5695   20.8140 C   0  0  0  0  0  0
  -27.9603  -23.5393   20.1964 C   0  0  0  0  0  0
  -29.5067  -17.1715   20.3365 N   0  0  0  0  0  0
  -27.0268  -19.8697   19.9878 Cl  0  0  0  0  0  0
  -31.3976  -13.4503   19.1607 H   0  0  0  0  0  0
  -30.5977  -12.3557   20.2322 H   0  0  0  0  0  0
  -30.0316  -11.8466   17.8334 H   0  0  0  0  0  0
  -29.4935  -13.4900   17.5925 H   0  0  0  0  0  0
  -28.1847  -11.3177   19.2391 H   0  0  0  0  0  0
  -27.4685  -12.2184   17.9234 H   0  0  0  0  0  0
  -27.4316  -14.2263   19.2162 H   0  0  0  0  0  0
  -28.8868  -12.8587   21.5279 H   0  0  0  0  0  0
  -28.1376  -14.4330   21.5980 H   0  0  0  0  0  0
  -25.2803   -9.5674   22.4755 H   0  0  0  0  0  0
  -24.0012   -7.4645   22.7485 H   0  0  0  0  0  0
  -21.0872   -8.8803   19.8959 H   0  0  0  0  0  0
  -22.3755  -10.9677   19.6155 H   0  0  0  0  0  0
  -21.2020   -7.6154   23.9720 H   0  0  0  0  0  0
  -21.1478   -6.0526   25.9080 H   0  0  0  0  0  0
  -22.0591   -2.7611   23.2849 H   0  0  0  0  0  0
  -22.4031  -11.9784   22.4868 H   0  0  0  0  0  0
  -21.0995  -13.1105   22.2699 H   0  0  0  0  0  0
  -24.6072  -15.8465   20.5393 H   0  0  0  0  0  0
  -26.2198  -15.6541   20.0759 H   0  0  0  0  0  0
  -26.7554  -32.4858   23.0718 H   0  0  0  0  0  0
  -25.0087  -33.9268   25.0005 H   0  0  0  0  0  0
  -22.8557  -31.2263   21.2998 H   0  0  0  0  0  0
  -23.3758  -35.9442   23.3260 H   0  0  0  0  0  0
  -24.3551  -36.8857   22.2076 H   0  0  0  0  0  0
  -23.7222  -37.6286   23.6772 H   0  0  0  0  0  0
  -26.3161  -31.2053   20.6232 H   0  0  0  0  0  0
  -26.9593  -30.5657   22.0851 H   0  0  0  0  0  0
  -28.1719  -28.2887   21.3333 H   0  0  0  0  0  0
  -25.8208  -25.5632   19.0016 H   0  0  0  0  0  0
  -24.0449  -27.1922   18.9257 H   0  0  0  0  0  0
  -23.9745  -30.4315   19.3755 H   0  0  0  0  0  0
  -22.8865  -29.1511   19.8057 H   0  0  0  0  0  0
  -25.1352  -36.1603   25.0762 H   0  0  0  0  0  0
  -21.0067  -28.3425   24.1250 H   0  0  0  0  0  0
  -20.5650  -26.2423   23.3684 H   0  0  0  0  0  0
  -21.6669  -26.7366   22.1236 H   0  0  0  0  0  0
  -19.6939  -25.6258   21.1306 H   0  0  0  0  0  0
  -19.6744  -27.3140   20.6723 H   0  0  0  0  0  0
  -17.4237  -26.6720   21.4007 H   0  0  0  0  0  0
  -18.0333  -26.0143   22.9029 H   0  0  0  0  0  0
  -19.8000  -30.7363   24.2154 H   0  0  0  0  0  0
  -17.5066  -31.6294   24.5176 H   0  0  0  0  0  0
  -15.5397  -30.2987   23.7741 H   0  0  0  0  0  0
  -15.8715  -28.0834   22.7121 H   0  0  0  0  0  0
  -24.5862  -30.7171   25.7591 H   0  0  0  0  0  0
  -24.8785  -32.3106   26.4416 H   0  0  0  0  0  0
  -25.7791  -30.9232   27.0225 H   0  0  0  0  0  0
  -26.3257  -29.6414   24.1634 H   0  0  0  0  0  0
  -27.3932  -29.7302   25.5402 H   0  0  0  0  0  0
  -27.9250  -30.3918   24.0184 H   0  0  0  0  0  0
  -27.2553  -33.3772   26.1816 H   0  0  0  0  0  0
  -28.3975  -32.6790   25.0431 H   0  0  0  0  0  0
  -28.0535  -31.8677   26.5632 H   0  0  0  0  0  0
  -28.2532  -38.0050   24.7507 H   0  0  0  0  0  0
  -28.1072  -36.2566   24.6284 H   0  0  0  0  0  0
  -27.2274  -37.1364   25.8873 H   0  0  0  0  0  0
  -20.9764  -29.8704   21.6512 H   0  0  0  0  0  0
  -26.0055  -38.2679   24.1454 H   0  0  0  0  0  0
  -32.2592  -21.1583   20.8466 H   0  0  0  0  0  0
  -32.0211  -23.3918   20.6327 H   0  0  0  0  0  0
  -30.6191  -23.8880   21.5770 H   0  0  0  0  0  0
  -30.6116  -24.0448   19.8179 H   0  0  0  0  0  0
  -33.0237  -19.1064   21.1016 H   0  0  0  0  0  0
  -32.3460  -18.0313   19.8940 H   0  0  0  0  0  0
  -31.9097  -17.8569   21.6115 H   0  0  0  0  0  0
  -27.1703  -23.3726   20.9287 H   0  0  0  0  0  0
  -27.4494  -23.4222   19.2407 H   0  0  0  0  0  0
  -28.5257  -16.9349   20.3199 H   0  0  0  0  0  0
  1 25  1  0  0  0
  1 30  2  0  0  0
  1 80  1  0  0  0
  2  3  1  0  0  0
  2 25  1  0  0  0
  2 82  1  0  0  0
  2 83  1  0  0  0
  3  4  1  0  0  0
  3 84  1  0  0  0
  3 85  1  0  0  0
  4  5  1  0  0  0
  4 86  1  0  0  0
  4 87  1  0  0  0
  5  6  1  0  0  0
  5 26  1  0  0  0
  5 88  1  0  0  0
  6 25  1  0  0  0
  6 89  1  0  0  0
  6 90  1  0  0  0
  7  8  2  0  0  0
  7 26  1  0  0  0
  7 29  1  0  0  0
  8  9  1  0  0  0
  8 22  1  0  0  0
  9 10  1  0  0  0
  9 27  2  0  0  0
 10 11  2  0  0  0
 10 15  1  0  0  0
 11 12  1  0  0  0
 11 91  1  0  0  0
 12 13  2  0  0  0
 12 92  1  0  0  0
 13 14  1  0  0  0
 13 31  1  0  0  0
 14 15  2  0  0  0
 14 93  1  0  0  0
 15 94  1  0  0  0
 16 17  2  0  0  0
 16 21  1  0  0  0
 16 31  1  0  0  0
 17 18  1  0  0  0
 17 95  1  0  0  0
 18 19  2  0  0  0
 18 96  1  0  0  0
 19 20  1  0  0  0
 19 24  1  0  0  0
 20 21  2  0  0  0
 20 97  1  0  0  0
 21 23  1  0  0  0
 22 28  1  0  0  0
 22 32  2  0  0  0
 26 27  1  0  0  0
 28 98  1  0  0  0
 28 99  1  0  0  0
 29100  1  0  0  0
 29101  1  0  0  0
 33 34  1  0  0  0
 33 66  1  0  0  0
 33 70  2  0  0  0
 34 36  1  0  0  0
 34 59  1  0  0  0
 34102  1  0  0  0
 35 44  2  0  0  0
 35 45  1  0  0  0
 35 68  1  0  0  0
 36 56  1  0  0  0
 36103  1  0  0  0
 37 39  1  0  0  0
 37 47  1  0  0  0
 37 66  1  0  0  0
 37104  1  0  0  0
 38 43  2  0  0  0
 38 46  1  0  0  0
 38 47  1  0  0  0
 39 64  1  0  0  0
 39 67  2  0  0  0
 40 52  1  0  0  0
 40 53  2  0  0  0
 40 58  1  0  0  0
 41105  1  0  0  0
 41106  1  0  0  0
 41107  1  0  0  0
 41 48  1  0  0  0
 42 43  1  0  0  0
 42 66  1  0  0  0
 42108  1  0  0  0
 42109  1  0  0  0
 43 44  1  0  0  0
 44110  1  0  0  0
 45 46  2  0  0  0
 45111  1  0  0  0
 46112  1  0  0  0
 47113  1  0  0  0
 47114  1  0  0  0
 48 56  1  0  0  0
 48 65  1  0  0  0
 48115  1  0  0  0
 49 50  1  0  0  0
 49 53  1  0  0  0
 49 64  1  0  0  0
 49116  1  0  0  0
 50 51  1  0  0  0
 50117  1  0  0  0
 50118  1  0  0  0
 51 52  1  0  0  0
 51119  1  0  0  0
 51120  1  0  0  0
 52121  1  0  0  0
 52122  1  0  0  0
 53 54  1  0  0  0
 54 55  2  0  0  0
 54123  1  0  0  0
 55 57  1  0  0  0
 55124  1  0  0  0
 56 69  2  0  0  0
 57 58  2  0  0  0
 57125  1  0  0  0
 58126  1  0  0  0
 59 60  1  0  0  0
 59 61  1  0  0  0
 59 62  1  0  0  0
 60127  1  0  0  0
 60128  1  0  0  0
 60129  1  0  0  0
 61130  1  0  0  0
 61131  1  0  0  0
 61132  1  0  0  0
 62133  1  0  0  0
 62134  1  0  0  0
 62135  1  0  0  0
 63 65  1  0  0  0
 63136  1  0  0  0
 63137  1  0  0  0
 63138  1  0  0  0
 64139  1  0  0  0
 65140  1  0  0  0
 68 79  1  0  0  0
 71 72  2  0  0  0
 71 73  1  0  0  0
 71141  1  0  0  0
 72 74  1  0  0  0
 72 77  1  0  0  0
 73 75  2  0  0  0
 73 78  1  0  0  0
 74 76  2  0  0  0
 74 79  1  0  0  0
 75 76  1  0  0  0
 75 80  1  0  0  0
 76 81  1  0  0  0
 77142  1  0  0  0
 77143  1  0  0  0
 77144  1  0  0  0
 78145  1  0  0  0
 78146  1  0  0  0
 78147  1  0  0  0
 79148  1  0  0  0
 79149  1  0  0  0
 80150  1  0  0  0
M  ISO  4   1 100  68 101  79 101  80 100
M  END
> <chiral flag>
0

> <version>
0

> <s_m_source_file>
/data/baiqing/PycharmProjects/Reinvent-master-3.2/result/LINK_invent/BTK/process_docking_weight1_custom_sum_contain_oxygen_bond_distance_aromatic_linkinvent_7_9_3/rearranged_h_0024.sdf

> <i_m_source_file_index>
13

> <r_mmod_Potential_Energy-OPLS-2005>
2815.09008789062

> <r_mmod_Stretch_Energy-OPLS-2005>
1278.23010253906

> <r_mmod_Bend_Energy-OPLS-2005>
643.710632324219

> <r_mmod_Torsional_Energy-OPLS-2005>
223.031356811523

> <r_mmod_Improper_Torsional_Energy-OPLS-2005>
4.34627151489258

> <r_mmod_Van_der_Waal_Energy-OPLS-2005>
131.679641723633

> <r_mmod_Electrostatic_Energy-OPLS-2005>
-375.832183837891

> <r_mmod_Solvation_Energy-OPLS-2005>
-200.023239135742

> <b_mmod_Minimization_Converged-OPLS-2005>
0

> <r_mmod_RMS_Derivative-OPLS-2005>
1.5239884853363

$$$$
13
                    3D
 Structure written by MMmdl.
175184  0  0  1  0            999 V2000
  -30.7038  -14.4573   20.5367 C   0  0  0  0  0  0
  -30.4253  -12.2847   19.4101 C   0  0  0  0  0  0
  -29.4896  -12.4829   18.1981 C   0  0  0  0  0  0
  -28.0105  -12.3618   18.6178 C   0  0  0  0  0  0
  -27.6683  -13.2000   19.8779 C   0  0  2  0  0  0
  -28.7159  -12.9675   20.9919 C   0  0  0  0  0  0
  -25.2640  -13.8157   20.5711 C   0  0  0  0  0  0
  -24.1871  -13.0442   20.9188 C   0  0  0  0  0  0
  -24.6396  -11.6890   20.8738 C   0  0  0  0  0  0
  -23.9056  -10.4301   21.0405 C   0  0  0  0  0  0
  -24.3608   -9.4219   21.9182 C   0  0  0  0  0  0
  -23.6291   -8.2249   22.0758 C   0  0  0  0  0  0
  -22.4272   -8.0286   21.3544 C   0  0  0  0  0  0
  -21.9906   -9.0252   20.4644 C   0  0  0  0  0  0
  -22.7226  -10.2132   20.3053 C   0  0  0  0  0  0
  -21.6854   -6.0728   22.5275 C   0  0  0  0  0  0
  -21.4010   -6.5635   23.8205 C   0  0  0  0  0  0
  -21.3654   -5.6788   24.9170 C   0  0  0  0  0  0
  -21.6053   -4.3055   24.7220 C   0  0  0  0  0  0
  -21.8816   -3.8140   23.4342 C   0  0  0  0  0  0
  -21.9197   -4.6958   22.3396 C   0  0  0  0  0  0
  -22.7897  -13.5255   21.1839 C   0  0  0  0  0  0
  -22.1665   -4.2138   21.0976 F   0  0  0  0  0  0
  -21.5634   -3.4536   25.7739 F   0  0  0  0  0  0
  -30.0483  -13.2687   20.4346 N   0  0  0  0  0  0
  -26.3071  -12.9304   20.3407 N   0  0  0  0  0  0
  -25.9332  -11.6467   20.5795 N   0  0  0  0  0  0
  -22.0524  -12.8244   22.0383 N   0  0  0  0  0  0
  -25.4408  -15.1871   20.4134 N   0  0  0  0  0  0
  -31.8236  -14.6516   20.0547 O   0  0  0  0  0  0
  -21.6638   -6.8860   21.4237 O   0  0  0  0  0  0
  -22.3590  -14.5576   20.6711 O   0  0  0  0  0  0
  -24.6146  -31.8649   23.2079 C   0  0  0  0  0  0
  -25.9039  -32.4817   23.8371 C   0  0  1  0  0  0
  -27.2422  -27.4489   20.0853 C   0  0  0  0  0  0
  -25.5917  -33.8617   24.2308 N   0  0  0  0  0  0
  -23.4054  -30.4890   21.5456 C   0  0  2  0  0  0
  -24.8592  -28.9636   20.0965 C   0  0  0  0  0  0
  -22.7442  -29.4622   22.4930 C   0  0  0  0  0  0
  -18.0298  -28.1352   22.8466 C   0  0  0  0  0  0
  -24.1508  -36.7308   23.2637 C   0  0  0  0  0  0
  -25.9339  -30.8362   21.3600 C   0  0  0  0  0  0
  -26.0160  -29.4754   20.6966 C   0  0  0  0  0  0
  -27.2124  -28.7224   20.6926 C   0  0  0  0  0  0
  -26.0732  -26.9433   19.4830 C   0  0  0  0  0  0
  -24.8831  -27.6969   19.4837 C   0  0  0  0  0  0
  -23.6182  -29.8285   20.1559 C   0  0  0  0  0  0
  -25.4128  -36.3100   24.0346 C   0  0  1  0  0  0
  -20.5891  -28.3648   23.1304 C   0  0  2  0  0  0
  -20.6811  -26.9383   22.5414 C   0  0  0  0  0  0
  -19.5804  -26.6353   21.5207 C   0  0  0  0  0  0
  -18.1956  -26.7901   22.1573 C   0  0  0  0  0  0
  -19.1542  -28.8820   23.2881 C   0  0  0  0  0  0
  -18.9473  -30.1430   23.8883 C   0  0  0  0  0  0
  -17.6475  -30.6559   24.0562 C   0  0  0  0  0  0
  -25.9048  -34.9475   23.5113 C   0  0  0  0  0  0
  -16.5365  -29.9050   23.6331 C   0  0  0  0  0  0
  -16.7288  -28.6485   23.0302 C   0  0  0  0  0  0
  -26.4476  -31.6582   25.0684 C   0  0  0  0  0  0
  -25.3748  -31.3705   26.1441 C   0  0  0  0  0  0
  -27.0319  -30.3036   24.6031 C   0  0  0  0  0  0
  -27.6071  -32.4298   25.7432 C   0  0  0  0  0  0
  -27.5609  -37.1790   24.8457 C   0  0  0  0  0  0
  -21.4164  -29.3002   22.3689 N   0  0  0  0  0  0
  -26.4295  -37.3793   23.9443 N   0  0  0  0  0  0
  -24.6690  -31.0763   22.0977 N   0  0  0  0  0  0
  -23.4214  -28.8150   23.2962 O   0  0  0  0  0  0
  -28.3202  -26.6186   20.2592 O   0  0  0  0  0  0
  -26.5571  -34.8929   22.4650 O   0  0  0  0  0  0
  -23.5329  -32.1407   23.7464 O   0  0  0  0  0  0
  -30.5933  -17.4676   19.8165 C   0  0  0  0  0  0
  -30.1388  -19.7284   20.7070 C   0  0  0  0  0  0
  -30.5877  -18.8711   19.6529 C   0  0  0  0  0  0
  -29.5900  -19.0985   21.8745 C   0  0  0  0  0  0
  -29.6084  -17.6774   22.0238 C   0  0  0  0  0  0
  -30.1147  -16.8570   20.9917 C   0  0  0  0  0  0
  -31.5187  -21.9129   20.0592 C   0  0  0  0  0  0
  -29.0308  -21.9961   19.9683 C   0  0  0  0  0  0
  -31.5447  -23.4356   20.3133 C   0  0  0  0  0  0
  -29.0756  -23.5388   20.1720 C   0  0  0  0  0  0
  -30.2296  -21.2894   20.6371 C   0  0  1  0  0  0
  -31.0274  -19.3781   18.2874 C   0  0  0  0  0  0
  -28.9323  -19.9277   22.9813 C   0  0  0  0  0  0
  -29.0804  -16.9896   23.2864 C   0  0  0  0  0  0
  -30.7655  -26.1145   21.3327 C   0  0  0  0  0  0
  -29.3099  -26.4923   19.2508 C   0  0  0  0  0  0
  -30.4703  -25.6544   19.8782 C   0  0  2  0  0  0
  -29.9979  -15.4364   21.1231 N   0  0  0  0  0  0
  -30.3663  -24.1530   19.7292 N   0  3  1  0  0  0
  -31.4683  -12.3752   19.1034 H   0  0  0  0  0  0
  -30.3216  -11.2731   19.8074 H   0  0  0  0  0  0
  -29.7142  -11.7423   17.4286 H   0  0  0  0  0  0
  -29.6677  -13.4589   17.7410 H   0  0  0  0  0  0
  -27.8141  -11.3071   18.8150 H   0  0  0  0  0  0
  -27.3585  -12.6400   17.7896 H   0  0  0  0  0  0
  -27.7175  -14.2500   19.5866 H   0  0  0  0  0  0
  -28.6876  -11.9275   21.3227 H   0  0  0  0  0  0
  -28.4839  -13.5546   21.8810 H   0  0  0  0  0  0
  -25.2733   -9.5698   22.4768 H   0  0  0  0  0  0
  -23.9991   -7.4640   22.7488 H   0  0  0  0  0  0
  -21.0827   -8.8759   19.8951 H   0  0  0  0  0  0
  -22.3673  -10.9668   19.6173 H   0  0  0  0  0  0
  -21.1993   -7.6135   23.9700 H   0  0  0  0  0  0
  -21.1485   -6.0519   25.9066 H   0  0  0  0  0  0
  -22.0605   -2.7601   23.2847 H   0  0  0  0  0  0
  -22.4112  -11.9872   22.4726 H   0  0  0  0  0  0
  -21.1160  -13.1293   22.2610 H   0  0  0  0  0  0
  -24.6866  -15.8511   20.5441 H   0  0  0  0  0  0
  -26.2991  -15.6189   20.0949 H   0  0  0  0  0  0
  -26.7091  -32.5544   23.1116 H   0  0  0  0  0  0
  -25.0199  -33.9789   25.0542 H   0  0  0  0  0  0
  -22.6954  -31.3065   21.4079 H   0  0  0  0  0  0
  -23.3789  -35.9608   23.3239 H   0  0  0  0  0  0
  -24.3651  -36.8962   22.2063 H   0  0  0  0  0  0
  -23.7217  -37.6487   23.6677 H   0  0  0  0  0  0
  -26.0434  -31.6109   20.5993 H   0  0  0  0  0  0
  -26.8212  -30.8854   21.9791 H   0  0  0  0  0  0
  -28.0955  -29.0942   21.1905 H   0  0  0  0  0  0
  -26.0682  -25.9486   19.0585 H   0  0  0  0  0  0
  -23.9914  -27.2924   19.0244 H   0  0  0  0  0  0
  -23.7276  -30.6128   19.4059 H   0  0  0  0  0  0
  -22.7413  -29.2546   19.8483 H   0  0  0  0  0  0
  -25.1291  -36.1950   25.0833 H   0  0  0  0  0  0
  -20.9991  -28.3200   24.1419 H   0  0  0  0  0  0
  -20.5743  -26.2239   23.3587 H   0  0  0  0  0  0
  -21.6687  -26.7427   22.1193 H   0  0  0  0  0  0
  -19.7006  -25.6258   21.1251 H   0  0  0  0  0  0
  -19.6786  -27.3162   20.6737 H   0  0  0  0  0  0
  -17.4265  -26.6672   21.3926 H   0  0  0  0  0  0
  -18.0321  -26.0009   22.8925 H   0  0  0  0  0  0
  -19.7950  -30.7270   24.2200 H   0  0  0  0  0  0
  -17.5032  -31.6242   24.5146 H   0  0  0  0  0  0
  -15.5378  -30.2956   23.7673 H   0  0  0  0  0  0
  -15.8677  -28.0860   22.6935 H   0  0  0  0  0  0
  -24.5943  -30.7023   25.7799 H   0  0  0  0  0  0
  -24.8925  -32.2859   26.4856 H   0  0  0  0  0  0
  -25.8098  -30.8917   27.0208 H   0  0  0  0  0  0
  -26.2835  -29.6769   24.1164 H   0  0  0  0  0  0
  -27.4216  -29.7297   25.4446 H   0  0  0  0  0  0
  -27.8610  -30.4397   23.9083 H   0  0  0  0  0  0
  -27.2717  -33.3610   26.2022 H   0  0  0  0  0  0
  -28.3871  -32.6832   25.0227 H   0  0  0  0  0  0
  -28.0758  -31.8405   26.5330 H   0  0  0  0  0  0
  -28.2542  -38.0159   24.7586 H   0  0  0  0  0  0
  -28.1168  -36.2699   24.6143 H   0  0  0  0  0  0
  -27.2364  -37.1272   25.8857 H   0  0  0  0  0  0
  -20.9318  -29.8720   21.6913 H   0  0  0  0  0  0
  -26.0177  -38.2847   24.1504 H   0  0  0  0  0  0
  -30.9421  -16.8517   18.9996 H   0  0  0  0  0  0
  -32.3923  -21.4543   20.5260 H   0  0  0  0  0  0
  -31.6171  -21.7611   18.9894 H   0  0  0  0  0  0
  -28.9980  -21.7580   18.9044 H   0  0  0  0  0  0
  -28.1008  -21.6106   20.3859 H   0  0  0  0  0  0
  -32.4673  -23.8561   19.9086 H   0  0  0  0  0  0
  -31.5777  -23.5942   21.3906 H   0  0  0  0  0  0
  -28.9086  -23.7713   21.2233 H   0  0  0  0  0  0
  -28.2442  -23.9840   19.6248 H   0  0  0  0  0  0
  -30.2616  -21.6242   21.6725 H   0  0  0  0  0  0
  -30.9662  -18.5845   17.5401 H   0  0  0  0  0  0
  -32.0641  -19.7126   18.3047 H   0  0  0  0  0  0
  -30.3832  -20.1793   17.9299 H   0  0  0  0  0  0
  -29.6360  -20.1170   23.7921 H   0  0  0  0  0  0
  -28.0625  -19.4176   23.3955 H   0  0  0  0  0  0
  -28.5340  -20.8774   22.6323 H   0  0  0  0  0  0
  -28.0880  -16.5783   23.0995 H   0  0  0  0  0  0
  -29.0299  -17.6347   24.1612 H   0  0  0  0  0  0
  -29.7335  -16.1669   23.5807 H   0  0  0  0  0  0
  -30.6935  -27.1996   21.4233 H   0  0  0  0  0  0
  -31.7689  -25.8457   21.6610 H   0  0  0  0  0  0
  -30.0556  -25.6902   22.0428 H   0  0  0  0  0  0
  -28.9116  -26.0433   18.3398 H   0  0  0  0  0  0
  -29.6779  -27.4905   18.9977 H   0  0  0  0  0  0
  -31.3513  -25.9233   19.2918 H   0  0  0  0  0  0
  -29.1822  -15.1165   21.6213 H   0  0  0  0  0  0
  -30.4130  -23.9833   18.7334 H   0  0  0  0  0  0
  1 25  1  0  0  0
  1 30  2  0  0  0
  1 88  1  0  0  0
  2  3  1  0  0  0
  2 25  1  0  0  0
  2 90  1  0  0  0
  2 91  1  0  0  0
  3  4  1  0  0  0
  3 92  1  0  0  0
  3 93  1  0  0  0
  4  5  1  0  0  0
  4 94  1  0  0  0
  4 95  1  0  0  0
  5  6  1  0  0  0
  5 26  1  0  0  0
  5 96  1  0  0  0
  6 25  1  0  0  0
  6 97  1  0  0  0
  6 98  1  0  0  0
  7  8  2  0  0  0
  7 26  1  0  0  0
  7 29  1  0  0  0
  8  9  1  0  0  0
  8 22  1  0  0  0
  9 10  1  0  0  0
  9 27  2  0  0  0
 10 11  2  0  0  0
 10 15  1  0  0  0
 11 12  1  0  0  0
 11 99  1  0  0  0
 12 13  2  0  0  0
 12100  1  0  0  0
 13 14  1  0  0  0
 13 31  1  0  0  0
 14 15  2  0  0  0
 14101  1  0  0  0
 15102  1  0  0  0
 16 17  2  0  0  0
 16 21  1  0  0  0
 16 31  1  0  0  0
 17 18  1  0  0  0
 17103  1  0  0  0
 18 19  2  0  0  0
 18104  1  0  0  0
 19 20  1  0  0  0
 19 24  1  0  0  0
 20 21  2  0  0  0
 20105  1  0  0  0
 21 23  1  0  0  0
 22 28  1  0  0  0
 22 32  2  0  0  0
 26 27  1  0  0  0
 28106  1  0  0  0
 28107  1  0  0  0
 29108  1  0  0  0
 29109  1  0  0  0
 33 34  1  0  0  0
 33 66  1  0  0  0
 33 70  2  0  0  0
 34 36  1  0  0  0
 34 59  1  0  0  0
 34110  1  0  0  0
 35 44  2  0  0  0
 35 45  1  0  0  0
 35 68  1  0  0  0
 36 56  1  0  0  0
 36111  1  0  0  0
 37 39  1  0  0  0
 37 47  1  0  0  0
 37 66  1  0  0  0
 37112  1  0  0  0
 38 43  2  0  0  0
 38 46  1  0  0  0
 38 47  1  0  0  0
 39 64  1  0  0  0
 39 67  2  0  0  0
 40 52  1  0  0  0
 40 53  2  0  0  0
 40 58  1  0  0  0
 41113  1  0  0  0
 41114  1  0  0  0
 41115  1  0  0  0
 41 48  1  0  0  0
 42 43  1  0  0  0
 42 66  1  0  0  0
 42116  1  0  0  0
 42117  1  0  0  0
 43 44  1  0  0  0
 44118  1  0  0  0
 45 46  2  0  0  0
 45119  1  0  0  0
 46120  1  0  0  0
 47121  1  0  0  0
 47122  1  0  0  0
 48 56  1  0  0  0
 48 65  1  0  0  0
 48123  1  0  0  0
 49 50  1  0  0  0
 49 53  1  0  0  0
 49 64  1  0  0  0
 49124  1  0  0  0
 50 51  1  0  0  0
 50125  1  0  0  0
 50126  1  0  0  0
 51 52  1  0  0  0
 51127  1  0  0  0
 51128  1  0  0  0
 52129  1  0  0  0
 52130  1  0  0  0
 53 54  1  0  0  0
 54 55  2  0  0  0
 54131  1  0  0  0
 55 57  1  0  0  0
 55132  1  0  0  0
 56 69  2  0  0  0
 57 58  2  0  0  0
 57133  1  0  0  0
 58134  1  0  0  0
 59 60  1  0  0  0
 59 61  1  0  0  0
 59 62  1  0  0  0
 60135  1  0  0  0
 60136  1  0  0  0
 60137  1  0  0  0
 61138  1  0  0  0
 61139  1  0  0  0
 61140  1  0  0  0
 62141  1  0  0  0
 62142  1  0  0  0
 62143  1  0  0  0
 63 65  1  0  0  0
 63144  1  0  0  0
 63145  1  0  0  0
 63146  1  0  0  0
 64147  1  0  0  0
 65148  1  0  0  0
 68 86  1  0  0  0
 71 73  2  0  0  0
 71 76  1  0  0  0
 71149  1  0  0  0
 72 73  1  0  0  0
 72 74  2  0  0  0
 72 81  1  0  0  0
 73 82  1  0  0  0
 74 75  1  0  0  0
 74 83  1  0  0  0
 75 76  2  0  0  0
 75 84  1  0  0  0
 76 88  1  0  0  0
 77 79  1  0  0  0
 77 81  1  0  0  0
 77150  1  0  0  0
 77151  1  0  0  0
 78 80  1  0  0  0
 78 81  1  0  0  0
 78152  1  0  0  0
 78153  1  0  0  0
 79154  1  0  0  0
 79155  1  0  0  0
 79 89  1  0  0  0
 80 89  1  0  0  0
 80156  1  0  0  0
 80157  1  0  0  0
 81158  1  0  0  0
 82159  1  0  0  0
 82160  1  0  0  0
 82161  1  0  0  0
 83162  1  0  0  0
 83163  1  0  0  0
 83164  1  0  0  0
 84165  1  0  0  0
 84166  1  0  0  0
 84167  1  0  0  0
 85168  1  0  0  0
 85169  1  0  0  0
 85170  1  0  0  0
 85 87  1  0  0  0
 86 87  1  0  0  0
 86171  1  0  0  0
 86172  1  0  0  0
 87 89  1  0  0  0
 87173  1  0  0  0
 88174  1  0  0  0
 89175  1  0  0  0
M  CHG  1  89   1
M  ISO  4   1 100  68 101  86 101  88 100
M  END
> <chiral flag>
0

> <version>
0

> <s_m_source_file>
/data/baiqing/PycharmProjects/Reinvent-master-3.2/result/LINK_invent/BTK/process_docking_weight1_custom_sum_contain_oxygen_bond_distance_aromatic_linkinvent_7_9_3/rearranged_h_0024.sdf

> <i_m_source_file_index>
14

> <r_mmod_Potential_Energy-OPLS-2005>
-24.0735721588135

> <r_mmod_Stretch_Energy-OPLS-2005>
51.6463470458984

> <r_mmod_Bend_Energy-OPLS-2005>
129.531646728516

> <r_mmod_Torsional_Energy-OPLS-2005>
299.944396972656

> <r_mmod_Improper_Torsional_Energy-OPLS-2005>
4.45962524414062

> <r_mmod_Van_der_Waal_Energy-OPLS-2005>
171.796447753906

> <r_mmod_Electrostatic_Energy-OPLS-2005>
-288.967987060547

> <r_mmod_Solvation_Energy-OPLS-2005>
-411.999938964844

> <b_mmod_Minimization_Converged-OPLS-2005>
0

> <r_mmod_RMS_Derivative-OPLS-2005>
3.53328633308411

$$$$
14
                    3D
 Structure written by MMmdl.
153161  0  0  1  0            999 V2000
  -30.5393  -14.8464   20.4454 C   0  0  0  0  0  0
  -30.4495  -12.5178   19.4841 C   0  0  0  0  0  0
  -29.5222  -12.5325   18.2452 C   0  0  0  0  0  0
  -28.0491  -12.3360   18.6556 C   0  0  0  0  0  0
  -27.6429  -13.2349   19.8530 C   0  0  2  0  0  0
  -28.6878  -13.1748   20.9894 C   0  0  0  0  0  0
  -25.2499  -13.8183   20.5674 C   0  0  0  0  0  0
  -24.1795  -13.0426   20.9194 C   0  0  0  0  0  0
  -24.6392  -11.6906   20.8735 C   0  0  0  0  0  0
  -23.9067  -10.4283   21.0390 C   0  0  0  0  0  0
  -24.3617   -9.4199   21.9169 C   0  0  0  0  0  0
  -23.6295   -8.2235   22.0744 C   0  0  0  0  0  0
  -22.4278   -8.0269   21.3538 C   0  0  0  0  0  0
  -21.9910   -9.0238   20.4640 C   0  0  0  0  0  0
  -22.7236  -10.2119   20.3045 C   0  0  0  0  0  0
  -21.6853   -6.0731   22.5276 C   0  0  0  0  0  0
  -21.4012   -6.5633   23.8208 C   0  0  0  0  0  0
  -21.3662   -5.6786   24.9171 C   0  0  0  0  0  0
  -21.6048   -4.3049   24.7220 C   0  0  0  0  0  0
  -21.8819   -3.8140   23.4341 C   0  0  0  0  0  0
  -21.9189   -4.6958   22.3397 C   0  0  0  0  0  0
  -22.7817  -13.5204   21.1861 C   0  0  0  0  0  0
  -22.1659   -4.2142   21.0978 F   0  0  0  0  0  0
  -21.5633   -3.4536   25.7735 F   0  0  0  0  0  0
  -29.9821  -13.5761   20.4168 N   0  0  0  0  0  0
  -26.2937  -12.9398   20.3273 N   0  0  0  0  0  0
  -25.9330  -11.6535   20.5745 N   0  0  0  0  0  0
  -22.0466  -12.8195   22.0428 N   0  0  0  0  0  0
  -25.4161  -15.1905   20.4076 N   0  0  0  0  0  0
  -31.7095  -14.9925   20.0767 O   0  0  0  0  0  0
  -21.6638   -6.8871   21.4236 O   0  0  0  0  0  0
  -22.3487  -14.5498   20.6693 O   0  0  0  0  0  0
  -24.6411  -31.8484   23.1907 C   0  0  0  0  0  0
  -25.9198  -32.4714   23.8289 C   0  0  1  0  0  0
  -27.2223  -27.1829   20.1436 C   0  0  0  0  0  0
  -25.5967  -33.8518   24.2221 N   0  0  0  0  0  0
  -23.4422  -30.4692   21.5352 C   0  0  2  0  0  0
  -24.8919  -28.9049   20.1078 C   0  0  0  0  0  0
  -22.7557  -29.4566   22.4861 C   0  0  0  0  0  0
  -18.0303  -28.1395   22.8476 C   0  0  0  0  0  0
  -24.1494  -36.7268   23.2638 C   0  0  0  0  0  0
  -25.9947  -30.7362   21.3825 C   0  0  0  0  0  0
  -26.0664  -29.3515   20.7262 C   0  0  0  0  0  0
  -27.2323  -28.5054   20.7309 C   0  0  0  0  0  0
  -26.0229  -26.8294   19.4833 C   0  0  0  0  0  0
  -24.8803  -27.6551   19.4725 C   0  0  0  0  0  0
  -23.6670  -29.8026   20.1525 C   0  0  0  0  0  0
  -25.4116  -36.3040   24.0326 C   0  0  1  0  0  0
  -20.5914  -28.3725   23.1239 C   0  0  2  0  0  0
  -20.6798  -26.9429   22.5407 C   0  0  0  0  0  0
  -19.5768  -26.6381   21.5220 C   0  0  0  0  0  0
  -18.1947  -26.7933   22.1626 C   0  0  0  0  0  0
  -19.1558  -28.8876   23.2853 C   0  0  0  0  0  0
  -18.9475  -30.1470   23.8880 C   0  0  0  0  0  0
  -17.6473  -30.6592   24.0555 C   0  0  0  0  0  0
  -25.9071  -34.9416   23.5078 C   0  0  0  0  0  0
  -16.5363  -29.9088   23.6327 C   0  0  0  0  0  0
  -16.7288  -28.6506   23.0349 C   0  0  0  0  0  0
  -26.4522  -31.6563   25.0716 C   0  0  0  0  0  0
  -25.3716  -31.3753   26.1423 C   0  0  0  0  0  0
  -27.0387  -30.2968   24.6262 C   0  0  0  0  0  0
  -27.6059  -32.4315   25.7507 C   0  0  0  0  0  0
  -27.5575  -37.1783   24.8454 C   0  0  0  0  0  0
  -21.4251  -29.3057   22.3615 N   0  0  0  0  0  0
  -26.4275  -37.3755   23.9414 N   0  0  0  0  0  0
  -24.7121  -31.0382   22.0918 N   0  0  0  0  0  0
  -23.4222  -28.8113   23.2996 O   0  0  0  0  0  0
  -28.2859  -26.2242   20.2274 O   0  0  0  0  0  0
  -26.5639  -34.8906   22.4644 O   0  0  0  0  0  0
  -23.5542  -32.1340   23.7156 O   0  0  0  0  0  0
  -30.3999  -18.2744   19.7474 C   0  0  0  0  0  0
  -28.3940  -19.5726   21.1693 C   0  0  0  0  0  0
  -30.1376  -19.6987   19.5659 C   0  0  0  0  0  0
  -29.1012  -20.4200   20.2635 C   0  0  0  0  0  0
  -29.6411  -17.4256   20.6192 C   0  0  0  0  0  0
  -28.6392  -18.1594   21.3339 C   0  0  0  0  0  0
  -30.9543  -20.4453   18.5277 C   0  0  0  0  0  0
  -28.5314  -21.9034   19.8618 C   0  0  0  0  0  0
  -28.9400  -23.4127   20.4099 C   0  0  0  0  0  0
  -28.0264  -24.7309   19.9629 C   0  0  0  0  0  0
  -29.7017  -15.9180   20.7801 N   0  0  0  0  0  0
  -27.6153  -17.2926   22.4236 Cl  0  0  0  0  0  0
  -31.4863  -12.6711   19.1798 H   0  0  0  0  0  0
  -30.4258  -11.5413   19.9705 H   0  0  0  0  0  0
  -29.8224  -11.7570   17.5389 H   0  0  0  0  0  0
  -29.6294  -13.4830   17.7202 H   0  0  0  0  0  0
  -27.9186  -11.2868   18.9227 H   0  0  0  0  0  0
  -27.3900  -12.5157   17.8052 H   0  0  0  0  0  0
  -27.6328  -14.2565   19.4711 H   0  0  0  0  0  0
  -28.7459  -12.1682   21.4058 H   0  0  0  0  0  0
  -28.4025  -13.8274   21.8156 H   0  0  0  0  0  0
  -25.2758   -9.5683   22.4746 H   0  0  0  0  0  0
  -24.0004   -7.4627   22.7462 H   0  0  0  0  0  0
  -21.0841   -8.8745   19.8953 H   0  0  0  0  0  0
  -22.3676  -10.9649   19.6158 H   0  0  0  0  0  0
  -21.2007   -7.6143   23.9712 H   0  0  0  0  0  0
  -21.1491   -6.0518   25.9077 H   0  0  0  0  0  0
  -22.0601   -2.7602   23.2839 H   0  0  0  0  0  0
  -22.4100  -11.9875   22.4834 H   0  0  0  0  0  0
  -21.1076  -13.1205   22.2629 H   0  0  0  0  0  0
  -24.6532  -15.8442   20.5451 H   0  0  0  0  0  0
  -26.2691  -15.6369   20.0989 H   0  0  0  0  0  0
  -26.7272  -32.5335   23.1029 H   0  0  0  0  0  0
  -25.0114  -33.9637   25.0367 H   0  0  0  0  0  0
  -22.7422  -31.2939   21.3843 H   0  0  0  0  0  0
  -23.3764  -35.9589   23.3259 H   0  0  0  0  0  0
  -24.3598  -36.8937   22.2062 H   0  0  0  0  0  0
  -23.7243  -37.6454   23.6693 H   0  0  0  0  0  0
  -26.1437  -31.4889   20.6069 H   0  0  0  0  0  0
  -26.8686  -30.7866   22.0209 H   0  0  0  0  0  0
  -28.1245  -28.8418   21.2406 H   0  0  0  0  0  0
  -25.9301  -25.8759   18.9856 H   0  0  0  0  0  0
  -23.9854  -27.3076   18.9751 H   0  0  0  0  0  0
  -23.8010  -30.5792   19.3981 H   0  0  0  0  0  0
  -22.7837  -29.2434   19.8405 H   0  0  0  0  0  0
  -25.1296  -36.1868   25.0820 H   0  0  0  0  0  0
  -21.0002  -28.3317   24.1362 H   0  0  0  0  0  0
  -20.5713  -26.2334   23.3625 H   0  0  0  0  0  0
  -21.6662  -26.7456   22.1189 H   0  0  0  0  0  0
  -19.6930  -25.6289   21.1259 H   0  0  0  0  0  0
  -19.6704  -27.3181   20.6742 H   0  0  0  0  0  0
  -17.4223  -26.6678   21.4021 H   0  0  0  0  0  0
  -18.0334  -26.0081   22.9027 H   0  0  0  0  0  0
  -19.7953  -30.7285   24.2248 H   0  0  0  0  0  0
  -17.5030  -31.6267   24.5165 H   0  0  0  0  0  0
  -15.5365  -30.2988   23.7662 H   0  0  0  0  0  0
  -15.8686  -28.0824   22.7073 H   0  0  0  0  0  0
  -24.5896  -30.7093   25.7757 H   0  0  0  0  0  0
  -24.8903  -32.2939   26.4793 H   0  0  0  0  0  0
  -25.8011  -30.8973   27.0237 H   0  0  0  0  0  0
  -26.2999  -29.6694   24.1263 H   0  0  0  0  0  0
  -27.4020  -29.7258   25.4818 H   0  0  0  0  0  0
  -27.8890  -30.4226   23.9556 H   0  0  0  0  0  0
  -27.2654  -33.3627   26.2044 H   0  0  0  0  0  0
  -28.3894  -32.6854   25.0355 H   0  0  0  0  0  0
  -28.0689  -31.8463   26.5463 H   0  0  0  0  0  0
  -28.2556  -38.0114   24.7537 H   0  0  0  0  0  0
  -28.1108  -36.2650   24.6221 H   0  0  0  0  0  0
  -27.2301  -37.1352   25.8855 H   0  0  0  0  0  0
  -20.9462  -29.8787   21.6808 H   0  0  0  0  0  0
  -26.0143  -38.2817   24.1439 H   0  0  0  0  0  0
  -31.1734  -17.8107   19.1507 H   0  0  0  0  0  0
  -27.5662  -19.9982   21.7182 H   0  0  0  0  0  0
  -31.7979  -19.8526   18.1709 H   0  0  0  0  0  0
  -31.3480  -21.3736   18.9430 H   0  0  0  0  0  0
  -30.3339  -20.6947   17.6669 H   0  0  0  0  0  0
  -27.4574  -21.8254   20.0330 H   0  0  0  0  0  0
  -28.6047  -21.9541   18.7757 H   0  0  0  0  0  0
  -29.9753  -23.6014   20.1228 H   0  0  0  0  0  0
  -28.9451  -23.3789   21.4992 H   0  0  0  0  0  0
  -27.0397  -24.5149   20.3748 H   0  0  0  0  0  0
  -27.9078  -24.6555   18.8814 H   0  0  0  0  0  0
  -28.8560  -15.5689   21.2056 H   0  0  0  0  0  0
  1 25  1  0  0  0
  1 30  2  0  0  0
  1 81  1  0  0  0
  2  3  1  0  0  0
  2 25  1  0  0  0
  2 83  1  0  0  0
  2 84  1  0  0  0
  3  4  1  0  0  0
  3 85  1  0  0  0
  3 86  1  0  0  0
  4  5  1  0  0  0
  4 87  1  0  0  0
  4 88  1  0  0  0
  5  6  1  0  0  0
  5 26  1  0  0  0
  5 89  1  0  0  0
  6 25  1  0  0  0
  6 90  1  0  0  0
  6 91  1  0  0  0
  7  8  2  0  0  0
  7 26  1  0  0  0
  7 29  1  0  0  0
  8  9  1  0  0  0
  8 22  1  0  0  0
  9 10  1  0  0  0
  9 27  2  0  0  0
 10 11  2  0  0  0
 10 15  1  0  0  0
 11 12  1  0  0  0
 11 92  1  0  0  0
 12 13  2  0  0  0
 12 93  1  0  0  0
 13 14  1  0  0  0
 13 31  1  0  0  0
 14 15  2  0  0  0
 14 94  1  0  0  0
 15 95  1  0  0  0
 16 17  2  0  0  0
 16 21  1  0  0  0
 16 31  1  0  0  0
 17 18  1  0  0  0
 17 96  1  0  0  0
 18 19  2  0  0  0
 18 97  1  0  0  0
 19 20  1  0  0  0
 19 24  1  0  0  0
 20 21  2  0  0  0
 20 98  1  0  0  0
 21 23  1  0  0  0
 22 28  1  0  0  0
 22 32  2  0  0  0
 26 27  1  0  0  0
 28 99  1  0  0  0
 28100  1  0  0  0
 29101  1  0  0  0
 29102  1  0  0  0
 33 34  1  0  0  0
 33 66  1  0  0  0
 33 70  2  0  0  0
 34 36  1  0  0  0
 34 59  1  0  0  0
 34103  1  0  0  0
 35 44  2  0  0  0
 35 45  1  0  0  0
 35 68  1  0  0  0
 36 56  1  0  0  0
 36104  1  0  0  0
 37 39  1  0  0  0
 37 47  1  0  0  0
 37 66  1  0  0  0
 37105  1  0  0  0
 38 43  2  0  0  0
 38 46  1  0  0  0
 38 47  1  0  0  0
 39 64  1  0  0  0
 39 67  2  0  0  0
 40 52  1  0  0  0
 40 53  2  0  0  0
 40 58  1  0  0  0
 41106  1  0  0  0
 41107  1  0  0  0
 41108  1  0  0  0
 41 48  1  0  0  0
 42 43  1  0  0  0
 42 66  1  0  0  0
 42109  1  0  0  0
 42110  1  0  0  0
 43 44  1  0  0  0
 44111  1  0  0  0
 45 46  2  0  0  0
 45112  1  0  0  0
 46113  1  0  0  0
 47114  1  0  0  0
 47115  1  0  0  0
 48 56  1  0  0  0
 48 65  1  0  0  0
 48116  1  0  0  0
 49 50  1  0  0  0
 49 53  1  0  0  0
 49 64  1  0  0  0
 49117  1  0  0  0
 50 51  1  0  0  0
 50118  1  0  0  0
 50119  1  0  0  0
 51 52  1  0  0  0
 51120  1  0  0  0
 51121  1  0  0  0
 52122  1  0  0  0
 52123  1  0  0  0
 53 54  1  0  0  0
 54 55  2  0  0  0
 54124  1  0  0  0
 55 57  1  0  0  0
 55125  1  0  0  0
 56 69  2  0  0  0
 57 58  2  0  0  0
 57126  1  0  0  0
 58127  1  0  0  0
 59 60  1  0  0  0
 59 61  1  0  0  0
 59 62  1  0  0  0
 60128  1  0  0  0
 60129  1  0  0  0
 60130  1  0  0  0
 61131  1  0  0  0
 61132  1  0  0  0
 61133  1  0  0  0
 62134  1  0  0  0
 62135  1  0  0  0
 62136  1  0  0  0
 63 65  1  0  0  0
 63137  1  0  0  0
 63138  1  0  0  0
 63139  1  0  0  0
 64140  1  0  0  0
 65141  1  0  0  0
 68 80  1  0  0  0
 71 73  2  0  0  0
 71 75  1  0  0  0
 71142  1  0  0  0
 72 74  2  0  0  0
 72 76  1  0  0  0
 72143  1  0  0  0
 73 74  1  0  0  0
 73 77  1  0  0  0
 74 78  1  0  0  0
 75 76  2  0  0  0
 75 81  1  0  0  0
 76 82  1  0  0  0
 77144  1  0  0  0
 77145  1  0  0  0
 77146  1  0  0  0
 78 79  1  0  0  0
 78147  1  0  0  0
 78148  1  0  0  0
 79 80  1  0  0  0
 79149  1  0  0  0
 79150  1  0  0  0
 80151  1  0  0  0
 80152  1  0  0  0
 81153  1  0  0  0
M  ISO  4   1 100  68 101  80 101  81 100
M  END
> <chiral flag>
0

> <version>
0

> <s_m_source_file>
/data/baiqing/PycharmProjects/Reinvent-master-3.2/result/LINK_invent/BTK/process_docking_weight1_custom_sum_contain_oxygen_bond_distance_aromatic_linkinvent_7_9_3/rearranged_h_0024.sdf

> <i_m_source_file_index>
15

> <r_mmod_Potential_Energy-OPLS-2005>
321.187286376953

> <r_mmod_Stretch_Energy-OPLS-2005>
186.123046875

> <r_mmod_Bend_Energy-OPLS-2005>
237.920974731445

> <r_mmod_Torsional_Energy-OPLS-2005>
218.845367431641

> <r_mmod_Improper_Torsional_Energy-OPLS-2005>
5.68469333648682

> <r_mmod_Van_der_Waal_Energy-OPLS-2005>
131.009506225586

> <r_mmod_Electrostatic_Energy-OPLS-2005>
-398.998657226562

> <r_mmod_Solvation_Energy-OPLS-2005>
-199.488006591797

> <b_mmod_Minimization_Converged-OPLS-2005>
0

> <r_mmod_RMS_Derivative-OPLS-2005>
1.26475822925568

$$$$
15
                    3D
 Structure written by MMmdl.
158166  0  0  1  0            999 V2000
  -30.4128  -15.0517   20.4608 C   0  0  0  0  0  0
  -30.4487  -12.6575   19.5496 C   0  0  0  0  0  0
  -29.5373  -12.5698   18.2980 C   0  0  0  0  0  0
  -28.0719  -12.3197   18.6993 C   0  0  0  0  0  0
  -27.6292  -13.2458   19.8607 C   0  0  2  0  0  0
  -28.6543  -13.2708   21.0133 C   0  0  0  0  0  0
  -25.2414  -13.8046   20.5694 C   0  0  0  0  0  0
  -24.1733  -13.0321   20.9212 C   0  0  0  0  0  0
  -24.6393  -11.6807   20.8802 C   0  0  0  0  0  0
  -23.9081  -10.4196   21.0448 C   0  0  0  0  0  0
  -24.3635   -9.4095   21.9214 C   0  0  0  0  0  0
  -23.6286   -8.2138   22.0766 C   0  0  0  0  0  0
  -22.4255   -8.0231   21.3556 C   0  0  0  0  0  0
  -21.9911   -9.0206   20.4645 C   0  0  0  0  0  0
  -22.7261  -10.2072   20.3071 C   0  0  0  0  0  0
  -21.6794   -6.0716   22.5279 C   0  0  0  0  0  0
  -21.3955   -6.5631   23.8214 C   0  0  0  0  0  0
  -21.3657   -5.6804   24.9194 C   0  0  0  0  0  0
  -21.6058   -4.3075   24.7235 C   0  0  0  0  0  0
  -21.8817   -3.8147   23.4363 C   0  0  0  0  0  0
  -21.9175   -4.6949   22.3412 C   0  0  0  0  0  0
  -22.7762  -13.5093   21.1949 C   0  0  0  0  0  0
  -22.1667   -4.2142   21.0984 F   0  0  0  0  0  0
  -21.5662   -3.4553   25.7751 F   0  0  0  0  0  0
  -29.9220  -13.7379   20.4444 N   0  0  0  0  0  0
  -26.2890  -12.9346   20.3344 N   0  0  0  0  0  0
  -25.9357  -11.6476   20.5812 N   0  0  0  0  0  0
  -22.0485  -12.8048   22.0539 N   0  0  0  0  0  0
  -25.4050  -15.1729   20.4085 N   0  0  0  0  0  0
  -31.5739  -15.1900   20.0467 O   0  0  0  0  0  0
  -21.6598   -6.8853   21.4244 O   0  0  0  0  0  0
  -22.3425  -14.5413   20.6825 O   0  0  0  0  0  0
  -24.6476  -31.8469   23.1862 C   0  0  0  0  0  0
  -25.9253  -32.4710   23.8316 C   0  0  1  0  0  0
  -27.2377  -27.1295   20.1539 C   0  0  0  0  0  0
  -25.6035  -33.8538   24.2236 N   0  0  0  0  0  0
  -23.4495  -30.4637   21.5332 C   0  0  2  0  0  0
  -24.8985  -28.8706   20.1258 C   0  0  0  0  0  0
  -22.7543  -29.4645   22.4920 C   0  0  0  0  0  0
  -18.0304  -28.1396   22.8469 C   0  0  0  0  0  0
  -24.1506  -36.7253   23.2639 C   0  0  0  0  0  0
  -26.0046  -30.7145   21.3843 C   0  0  0  0  0  0
  -26.0746  -29.3180   20.7404 C   0  0  0  0  0  0
  -27.2397  -28.4634   20.7372 C   0  0  0  0  0  0
  -26.0435  -26.7949   19.4845 C   0  0  0  0  0  0
  -24.8901  -27.6145   19.4941 C   0  0  0  0  0  0
  -23.6733  -29.7725   20.1613 C   0  0  0  0  0  0
  -25.4154  -36.3055   24.0307 C   0  0  1  0  0  0
  -20.5895  -28.3726   23.1230 C   0  0  2  0  0  0
  -20.6737  -26.9455   22.5351 C   0  0  0  0  0  0
  -19.5667  -26.6323   21.5228 C   0  0  0  0  0  0
  -18.1879  -26.7941   22.1667 C   0  0  0  0  0  0
  -19.1539  -28.8881   23.2838 C   0  0  0  0  0  0
  -18.9442  -30.1445   23.8925 C   0  0  0  0  0  0
  -17.6406  -30.6519   24.0598 C   0  0  0  0  0  0
  -25.9092  -34.9416   23.5055 C   0  0  0  0  0  0
  -16.5311  -29.9010   23.6344 C   0  0  0  0  0  0
  -16.7246  -28.6451   23.0368 C   0  0  0  0  0  0
  -26.4466  -31.6537   25.0787 C   0  0  0  0  0  0
  -25.3538  -31.3799   26.1404 C   0  0  0  0  0  0
  -27.0259  -30.2907   24.6316 C   0  0  0  0  0  0
  -27.6011  -32.4165   25.7741 C   0  0  0  0  0  0
  -27.5601  -37.1774   24.8487 C   0  0  0  0  0  0
  -21.4247  -29.3127   22.3648 N   0  0  0  0  0  0
  -26.4342  -37.3759   23.9386 N   0  0  0  0  0  0
  -24.7201  -31.0316   22.0888 N   0  0  0  0  0  0
  -23.4176  -28.8246   23.3118 O   0  0  0  0  0  0
  -28.3705  -26.2483   20.0143 O   0  0  0  0  0  0
  -26.5612  -34.8873   22.4584 O   0  0  0  0  0  0
  -23.5585  -32.1327   23.7092 O   0  0  0  0  0  0
  -27.3966  -19.8991   20.2009 C   0  0  0  0  0  0
  -28.7439  -20.1775   20.4491 C   0  0  0  0  0  0
  -29.5568  -18.9228   20.6638 C   0  0  0  0  0  0
  -26.8988  -18.5883   20.2508 C   0  0  0  0  0  0
  -29.0165  -17.5214   20.5697 C   0  0  0  0  0  0
  -25.3860  -18.4349   20.2913 C   0  0  0  0  0  0
  -25.7594  -23.9057   21.0913 C   0  0  0  0  0  0
  -29.1484  -21.7992   20.5376 C   0  0  0  0  0  0
  -27.0160  -23.0998   21.4308 C   0  0  0  0  0  0
  -28.7236  -24.7832   20.4775 C   0  0  0  0  0  0
  -28.1371  -23.1864   20.3680 C   0  0  1  0  0  0
  -27.6640  -17.4676   20.3781 N   0  0  0  0  0  0
  -29.6093  -16.1369   20.9656 N   0  0  0  0  0  0
  -31.2043  -19.1175   21.1373 Cl  0  0  0  0  0  0
  -31.4827  -12.8508   19.2587 H   0  0  0  0  0  0
  -30.4761  -11.7050   20.0805 H   0  0  0  0  0  0
  -29.8799  -11.7830   17.6247 H   0  0  0  0  0  0
  -29.6031  -13.5070   17.7398 H   0  0  0  0  0  0
  -27.9947  -11.2769   19.0120 H   0  0  0  0  0  0
  -27.4113  -12.4384   17.8400 H   0  0  0  0  0  0
  -27.5923  -14.2505   19.4374 H   0  0  0  0  0  0
  -28.7608  -12.2856   21.4727 H   0  0  0  0  0  0
  -28.3123  -13.9390   21.8066 H   0  0  0  0  0  0
  -25.2803   -9.5526   22.4789 H   0  0  0  0  0  0
  -23.9982   -7.4488   22.7471 H   0  0  0  0  0  0
  -21.0831   -8.8714   19.8950 H   0  0  0  0  0  0
  -22.3740  -10.9616   19.6165 H   0  0  0  0  0  0
  -21.1903   -7.6141   23.9696 H   0  0  0  0  0  0
  -21.1508   -6.0560   25.9096 H   0  0  0  0  0  0
  -22.0606   -2.7603   23.2865 H   0  0  0  0  0  0
  -22.4111  -11.9619   22.4744 H   0  0  0  0  0  0
  -21.1170  -13.1085   22.2981 H   0  0  0  0  0  0
  -24.6157  -15.8049   20.4561 H   0  0  0  0  0  0
  -26.2753  -15.6565   20.2039 H   0  0  0  0  0  0
  -26.7337  -32.5261   23.1076 H   0  0  0  0  0  0
  -25.0383  -33.9693   25.0524 H   0  0  0  0  0  0
  -22.7548  -31.2911   21.3664 H   0  0  0  0  0  0
  -23.3811  -35.9565   23.3317 H   0  0  0  0  0  0
  -24.3545  -36.8886   22.2054 H   0  0  0  0  0  0
  -23.7190  -37.6418   23.6655 H   0  0  0  0  0  0
  -26.1532  -31.4599   20.6020 H   0  0  0  0  0  0
  -26.8753  -30.7746   22.0251 H   0  0  0  0  0  0
  -28.1481  -28.8198   21.2011 H   0  0  0  0  0  0
  -26.0009  -25.8593   18.9489 H   0  0  0  0  0  0
  -23.9907  -27.2612   19.0072 H   0  0  0  0  0  0
  -23.7990  -30.5313   19.3888 H   0  0  0  0  0  0
  -22.7872  -29.2069   19.8682 H   0  0  0  0  0  0
  -25.1329  -36.1904   25.0799 H   0  0  0  0  0  0
  -20.9975  -28.3263   24.1347 H   0  0  0  0  0  0
  -20.5633  -26.2384   23.3568 H   0  0  0  0  0  0
  -21.6608  -26.7434   22.1133 H   0  0  0  0  0  0
  -19.6761  -25.6159   21.1385 H   0  0  0  0  0  0
  -19.6527  -27.2982   20.6672 H   0  0  0  0  0  0
  -17.4128  -26.6751   21.4082 H   0  0  0  0  0  0
  -18.0173  -26.0085   22.9060 H   0  0  0  0  0  0
  -19.7908  -30.7277   24.2325 H   0  0  0  0  0  0
  -17.4944  -31.6170   24.5206 H   0  0  0  0  0  0
  -15.5302  -30.2907   23.7641 H   0  0  0  0  0  0
  -15.8683  -28.0693   22.7119 H   0  0  0  0  0  0
  -24.8667  -32.3011   26.4607 H   0  0  0  0  0  0
  -25.7708  -30.9027   27.0267 H   0  0  0  0  0  0
  -24.5731  -30.7194   25.7650 H   0  0  0  0  0  0
  -27.8685  -30.4219   23.9565 H   0  0  0  0  0  0
  -27.3883  -29.7127   25.4836 H   0  0  0  0  0  0
  -26.2816  -29.6726   24.1304 H   0  0  0  0  0  0
  -27.2691  -33.3487   26.2300 H   0  0  0  0  0  0
  -28.3930  -32.6669   25.0662 H   0  0  0  0  0  0
  -28.0517  -31.8172   26.5680 H   0  0  0  0  0  0
  -28.2642  -38.0065   24.7627 H   0  0  0  0  0  0
  -28.1060  -36.2597   24.6266 H   0  0  0  0  0  0
  -27.2279  -37.1381   25.8877 H   0  0  0  0  0  0
  -20.9485  -29.8846   21.6798 H   0  0  0  0  0  0
  -26.0226  -38.2849   24.1336 H   0  0  0  0  0  0
  -26.6950  -20.7104   20.0604 H   0  0  0  0  0  0
  -24.9256  -19.3296   20.7204 H   0  0  0  0  0  0
  -25.0788  -17.6216   20.9447 H   0  0  0  0  0  0
  -24.9635  -18.2877   19.2972 H   0  0  0  0  0  0
  -25.9811  -24.9629   21.1862 H   0  0  0  0  0  0
  -24.9495  -23.7040   21.7952 H   0  0  0  0  0  0
  -25.3924  -23.7103   20.0810 H   0  0  0  0  0  0
  -29.9624  -21.9247   19.8225 H   0  0  0  0  0  0
  -29.6237  -21.9015   21.5122 H   0  0  0  0  0  0
  -26.7158  -22.0763   21.6322 H   0  0  0  0  0  0
  -27.4121  -23.4605   22.3815 H   0  0  0  0  0  0
  -29.6594  -24.6742   19.9247 H   0  0  0  0  0  0
  -29.0645  -24.9141   21.5038 H   0  0  0  0  0  0
  -27.6895  -23.0874   19.3778 H   0  0  0  0  0  0
  -28.8959  -15.6781   21.5138 H   0  0  0  0  0  0
  1 25  1  0  0  0
  1 30  2  0  0  0
  1 83  1  0  0  0
  2  3  1  0  0  0
  2 25  1  0  0  0
  2 85  1  0  0  0
  2 86  1  0  0  0
  3  4  1  0  0  0
  3 87  1  0  0  0
  3 88  1  0  0  0
  4  5  1  0  0  0
  4 89  1  0  0  0
  4 90  1  0  0  0
  5  6  1  0  0  0
  5 26  1  0  0  0
  5 91  1  0  0  0
  6 25  1  0  0  0
  6 92  1  0  0  0
  6 93  1  0  0  0
  7  8  2  0  0  0
  7 26  1  0  0  0
  7 29  1  0  0  0
  8  9  1  0  0  0
  8 22  1  0  0  0
  9 10  1  0  0  0
  9 27  2  0  0  0
 10 11  2  0  0  0
 10 15  1  0  0  0
 11 12  1  0  0  0
 11 94  1  0  0  0
 12 13  2  0  0  0
 12 95  1  0  0  0
 13 14  1  0  0  0
 13 31  1  0  0  0
 14 15  2  0  0  0
 14 96  1  0  0  0
 15 97  1  0  0  0
 16 17  2  0  0  0
 16 21  1  0  0  0
 16 31  1  0  0  0
 17 18  1  0  0  0
 17 98  1  0  0  0
 18 19  2  0  0  0
 18 99  1  0  0  0
 19 20  1  0  0  0
 19 24  1  0  0  0
 20 21  2  0  0  0
 20100  1  0  0  0
 21 23  1  0  0  0
 22 28  1  0  0  0
 22 32  2  0  0  0
 26 27  1  0  0  0
 28101  1  0  0  0
 28102  1  0  0  0
 29103  1  0  0  0
 29104  1  0  0  0
 33 34  1  0  0  0
 33 66  1  0  0  0
 33 70  2  0  0  0
 34 36  1  0  0  0
 34 59  1  0  0  0
 34105  1  0  0  0
 35 44  2  0  0  0
 35 45  1  0  0  0
 35 68  1  0  0  0
 36 56  1  0  0  0
 36106  1  0  0  0
 37 39  1  0  0  0
 37 47  1  0  0  0
 37 66  1  0  0  0
 37107  1  0  0  0
 38 43  2  0  0  0
 38 46  1  0  0  0
 38 47  1  0  0  0
 39 64  1  0  0  0
 39 67  2  0  0  0
 40 52  1  0  0  0
 40 53  2  0  0  0
 40 58  1  0  0  0
 41108  1  0  0  0
 41109  1  0  0  0
 41110  1  0  0  0
 41 48  1  0  0  0
 42 43  1  0  0  0
 42 66  1  0  0  0
 42111  1  0  0  0
 42112  1  0  0  0
 43 44  1  0  0  0
 44113  1  0  0  0
 45 46  2  0  0  0
 45114  1  0  0  0
 46115  1  0  0  0
 47116  1  0  0  0
 47117  1  0  0  0
 48 56  1  0  0  0
 48 65  1  0  0  0
 48118  1  0  0  0
 49 50  1  0  0  0
 49 53  1  0  0  0
 49 64  1  0  0  0
 49119  1  0  0  0
 50 51  1  0  0  0
 50120  1  0  0  0
 50121  1  0  0  0
 51 52  1  0  0  0
 51122  1  0  0  0
 51123  1  0  0  0
 52124  1  0  0  0
 52125  1  0  0  0
 53 54  1  0  0  0
 54 55  2  0  0  0
 54126  1  0  0  0
 55 57  1  0  0  0
 55127  1  0  0  0
 56 69  2  0  0  0
 57 58  2  0  0  0
 57128  1  0  0  0
 58129  1  0  0  0
 59 60  1  0  0  0
 59 61  1  0  0  0
 59 62  1  0  0  0
 60130  1  0  0  0
 60131  1  0  0  0
 60132  1  0  0  0
 61133  1  0  0  0
 61134  1  0  0  0
 61135  1  0  0  0
 62136  1  0  0  0
 62137  1  0  0  0
 62138  1  0  0  0
 63 65  1  0  0  0
 63139  1  0  0  0
 63140  1  0  0  0
 63141  1  0  0  0
 64142  1  0  0  0
 65143  1  0  0  0
 68 80  1  0  0  0
 71 72  2  0  0  0
 71 74  1  0  0  0
 71144  1  0  0  0
 72 73  1  0  0  0
 72 78  1  0  0  0
 73 75  2  0  0  0
 73 84  1  0  0  0
 74 76  1  0  0  0
 74 82  2  0  0  0
 75 82  1  0  0  0
 75 83  1  0  0  0
 76145  1  0  0  0
 76146  1  0  0  0
 76147  1  0  0  0
 77 79  1  0  0  0
 77148  1  0  0  0
 77149  1  0  0  0
 77150  1  0  0  0
 78151  1  0  0  0
 78152  1  0  0  0
 78 81  1  0  0  0
 79 81  1  0  0  0
 79153  1  0  0  0
 79154  1  0  0  0
 80 81  1  0  0  0
 80155  1  0  0  0
 80156  1  0  0  0
 81157  1  0  0  0
 83158  1  0  0  0
M  ISO  4   1 100  68 101  80 101  83 100
M  END
> <chiral flag>
0

> <version>
0

> <s_m_source_file>
/data/baiqing/PycharmProjects/Reinvent-master-3.2/result/LINK_invent/BTK/process_docking_weight1_custom_sum_contain_oxygen_bond_distance_aromatic_linkinvent_7_9_3/rearranged_h_0024.sdf

> <i_m_source_file_index>
16

> <r_mmod_Potential_Energy-OPLS-2005>
671.044555664062

> <r_mmod_Stretch_Energy-OPLS-2005>
324.161926269531

> <r_mmod_Bend_Energy-OPLS-2005>
410.317108154297

> <r_mmod_Torsional_Energy-OPLS-2005>
273.249298095703

> <r_mmod_Improper_Torsional_Energy-OPLS-2005>
9.48998546600342

> <r_mmod_Van_der_Waal_Energy-OPLS-2005>
124.657051086426

> <r_mmod_Electrostatic_Energy-OPLS-2005>
-496.931091308594

> <r_mmod_Solvation_Energy-OPLS-2005>
-202.43359375

> <b_mmod_Minimization_Converged-OPLS-2005>
0

> <r_mmod_RMS_Derivative-OPLS-2005>
6.70007610321045

$$$$
16
                    3D
 Structure written by MMmdl.
188196  0  0  1  0            999 V2000
  -30.2835  -14.8740   20.6747 C   0  0  0  0  0  0
  -30.4421  -12.6000   19.5131 C   0  0  0  0  0  0
  -29.5184  -12.5703   18.2677 C   0  0  0  0  0  0
  -28.0394  -12.3391   18.6538 C   0  0  0  0  0  0
  -27.6158  -13.2051   19.8632 C   0  0  2  0  0  0
  -28.6161  -13.0678   21.0174 C   0  0  0  0  0  0
  -25.2430  -13.8145   20.5632 C   0  0  0  0  0  0
  -24.1706  -13.0402   20.9204 C   0  0  0  0  0  0
  -24.6281  -11.6890   20.8756 C   0  0  0  0  0  0
  -23.8987  -10.4284   21.0458 C   0  0  0  0  0  0
  -24.3576   -9.4217   21.9224 C   0  0  0  0  0  0
  -23.6281   -8.2229   22.0754 C   0  0  0  0  0  0
  -22.4267   -8.0278   21.3537 C   0  0  0  0  0  0
  -21.9894   -9.0253   20.4641 C   0  0  0  0  0  0
  -22.7189  -10.2152   20.3083 C   0  0  0  0  0  0
  -21.6848   -6.0755   22.5301 C   0  0  0  0  0  0
  -21.3999   -6.5654   23.8239 C   0  0  0  0  0  0
  -21.3657   -5.6801   24.9199 C   0  0  0  0  0  0
  -21.6041   -4.3065   24.7240 C   0  0  0  0  0  0
  -21.8813   -3.8162   23.4357 C   0  0  0  0  0  0
  -21.9187   -4.6980   22.3415 C   0  0  0  0  0  0
  -22.7784  -13.5262   21.1894 C   0  0  0  0  0  0
  -22.1660   -4.2162   21.0990 F   0  0  0  0  0  0
  -21.5633   -3.4546   25.7754 F   0  0  0  0  0  0
  -29.8751  -13.5685   20.4892 N   0  0  0  0  0  0
  -26.2715  -12.9230   20.3199 N   0  0  0  0  0  0
  -25.9161  -11.6415   20.5703 N   0  0  0  0  0  0
  -22.0419  -12.8258   22.0476 N   0  0  0  0  0  0
  -25.4220  -15.1826   20.3976 N   0  0  0  0  0  0
  -31.4598  -15.1540   20.3865 O   0  0  0  0  0  0
  -21.6611   -6.8893   21.4261 O   0  0  0  0  0  0
  -22.3496  -14.5580   20.6796 O   0  0  0  0  0  0
  -24.6678  -31.9458   23.2232 C   0  0  0  0  0  0
  -25.9618  -32.5106   23.8581 C   0  0  1  0  0  0
  -26.1017  -27.2235   20.4680 C   0  0  0  0  0  0
  -25.6507  -33.8831   24.2625 N   0  0  0  0  0  0
  -23.4707  -30.6172   21.5698 C   0  0  2  0  0  0
  -24.8599  -29.3407   19.7964 C   0  0  0  0  0  0
  -23.0514  -29.5353   22.5982 C   0  0  0  0  0  0
  -18.5189  -27.9922   22.3821 C   0  0  0  0  0  0
  -24.1552  -36.7319   23.2604 C   0  0  0  0  0  0
  -25.9946  -30.8534   21.4204 C   0  0  0  0  0  0
  -25.9268  -29.5421   20.6746 C   0  0  0  0  0  0
  -26.7463  -28.4225   20.9090 C   0  0  0  0  0  0
  -25.8747  -27.2233   19.1198 C   0  0  0  0  0  0
  -24.9708  -28.2653   18.8582 C   0  0  0  0  0  0
  -23.6189  -30.1601   20.0701 C   0  0  0  0  0  0
  -25.4169  -36.3199   24.0355 C   0  0  1  0  0  0
  -21.2406  -28.2478   23.5475 C   0  0  2  0  0  0
  -22.0218  -26.4399   22.9028 C   0  0  0  0  0  0
  -20.5060  -25.4713   21.4974 C   0  0  0  0  0  0
  -18.8222  -26.5230   21.4184 C   0  0  0  0  0  0
  -19.5614  -28.7250   23.2338 C   0  0  0  0  0  0
  -19.1131  -29.9148   23.8998 C   0  0  0  0  0  0
  -17.7701  -30.3591   23.9489 C   0  0  0  0  0  0
  -25.9180  -34.9638   23.5172 C   0  0  0  0  0  0
  -16.7736  -29.5869   23.3453 C   0  0  0  0  0  0
  -17.1536  -28.4429   22.5922 C   0  0  0  0  0  0
  -26.4746  -31.6640   25.0840 C   0  0  0  0  0  0
  -25.3863  -31.3721   26.1403 C   0  0  0  0  0  0
  -27.0543  -30.3031   24.6299 C   0  0  0  0  0  0
  -27.6314  -32.4224   25.7742 C   0  0  0  0  0  0
  -27.5618  -37.1904   24.8497 C   0  0  0  0  0  0
  -21.8058  -29.4690   22.9665 N   0  0  0  0  0  0
  -26.4323  -37.3900   23.9450 N   0  0  0  0  0  0
  -24.7258  -31.1990   22.0914 N   0  0  0  0  0  0
  -23.8556  -28.8057   23.1650 O   0  0  0  0  0  0
  -24.7758  -27.0028   21.0575 O   0  0  0  0  0  0
  -26.5467  -34.9034   22.4563 O   0  0  0  0  0  0
  -23.5843  -32.2144   23.7665 O   0  0  0  0  0  0
  -27.9225  -18.3191   21.6342 C   0  0  0  0  0  0
  -26.8220  -18.6667   22.5705 C   0  0  0  0  0  0
  -28.0579  -19.3051   20.5924 C   0  0  0  0  0  0
  -25.9179  -19.8240   22.3756 C   0  0  0  0  0  0
  -26.9891  -20.2395   20.3096 C   0  0  0  0  0  0
  -26.6403  -17.8666   23.8571 C   0  0  0  0  0  0
  -30.0197  -18.6561   18.9647 C   0  0  0  0  0  0
  -27.7931  -20.9268   17.8657 C   0  0  0  0  0  0
  -26.7593  -22.6223   19.3776 C   0  0  0  0  0  0
  -29.4665  -19.5872   20.0541 C   0  0  0  0  0  0
  -29.1008  -17.1486   21.8187 C   0  0  0  0  0  0
  -24.7824  -20.4739   23.3697 C   0  0  0  0  0  0
  -20.5043  -24.5890   24.0281 C   0  0  0  0  0  0
  -19.8964  -26.2471   23.5300 C   0  0  0  0  0  0
  -21.6791  -23.5162   23.2695 C   0  0  0  0  0  0
  -21.0605  -27.6336   21.2848 C   0  0  0  0  0  0
  -22.7280  -22.3273   23.8421 C   0  0  0  0  0  0
  -22.9838  -27.2042   20.6378 C   0  0  0  0  0  0
  -26.7637  -21.1123   19.0121 C   0  0  0  0  0  0
  -25.3904  -20.7357   18.3462 C   0  0  0  0  0  0
  -26.0166  -20.4924   21.2215 N   0  0  0  0  0  0
  -29.2498  -15.7876   21.0604 N   0  0  0  0  0  0
  -23.8765  -21.6891   22.9405 N   0  3  0  0  0  0
  -24.3338  -20.9848   19.1226 F   0  0  0  0  0  0
  -25.3797  -19.4405   18.0251 F   0  0  0  0  0  0
  -25.1854  -21.4300   17.2203 F   0  0  0  0  0  0
  -31.4544  -12.8810   19.2158 H   0  0  0  0  0  0
  -30.5193  -11.6120   19.9686 H   0  0  0  0  0  0
  -29.8496  -11.8073   17.5636 H   0  0  0  0  0  0
  -29.6036  -13.5187   17.7374 H   0  0  0  0  0  0
  -27.9080  -11.2857   18.9001 H   0  0  0  0  0  0
  -27.3845  -12.5396   17.8033 H   0  0  0  0  0  0
  -27.6225  -14.2340   19.5039 H   0  0  0  0  0  0
  -28.7050  -12.0366   21.3588 H   0  0  0  0  0  0
  -28.2823  -13.6320   21.8924 H   0  0  0  0  0  0
  -25.2725   -9.5710   22.4803 H   0  0  0  0  0  0
  -24.0018   -7.4603   22.7444 H   0  0  0  0  0  0
  -21.0841   -8.8772   19.8919 H   0  0  0  0  0  0
  -22.3661  -10.9710   19.6198 H   0  0  0  0  0  0
  -21.1974   -7.6156   23.9764 H   0  0  0  0  0  0
  -21.1486   -6.0515   25.9108 H   0  0  0  0  0  0
  -22.0582   -2.7621   23.2856 H   0  0  0  0  0  0
  -22.3988  -11.9878   22.4822 H   0  0  0  0  0  0
  -21.1065  -13.1363   22.2695 H   0  0  0  0  0  0
  -24.6393  -15.8276   20.4268 H   0  0  0  0  0  0
  -26.2488  -15.6006   19.9926 H   0  0  0  0  0  0
  -26.7798  -32.5698   23.1388 H   0  0  0  0  0  0
  -25.0959  -34.0034   25.0980 H   0  0  0  0  0  0
  -22.6965  -31.3876   21.5662 H   0  0  0  0  0  0
  -23.3855  -35.9608   23.3253 H   0  0  0  0  0  0
  -24.3656  -36.8895   22.2020 H   0  0  0  0  0  0
  -23.7286  -37.6527   23.6554 H   0  0  0  0  0  0
  -26.2523  -31.6534   20.7254 H   0  0  0  0  0  0
  -26.8403  -30.7630   22.0918 H   0  0  0  0  0  0
  -27.4720  -28.4335   21.7131 H   0  0  0  0  0  0
  -25.8252  -26.3108   18.5440 H   0  0  0  0  0  0
  -24.2863  -28.1697   18.0278 H   0  0  0  0  0  0
  -23.7062  -31.0490   19.4480 H   0  0  0  0  0  0
  -22.7094  -29.6805   19.7171 H   0  0  0  0  0  0
  -25.1339  -36.2020   25.0843 H   0  0  0  0  0  0
  -21.4241  -28.3397   24.6206 H   0  0  0  0  0  0
  -22.2710  -25.9832   23.8548 H   0  0  0  0  0  0
  -23.0840  -26.3595   22.7113 H   0  0  0  0  0  0
  -20.1590  -24.4574   21.6659 H   0  0  0  0  0  0
  -20.9108  -25.3012   20.4977 H   0  0  0  0  0  0
  -18.6036  -26.7653   20.3742 H   0  0  0  0  0  0
  -18.0036  -25.8406   21.6469 H   0  0  0  0  0  0
  -19.8342  -30.4938   24.4584 H   0  0  0  0  0  0
  -17.5077  -31.2629   24.4823 H   0  0  0  0  0  0
  -15.7252  -29.8675   23.4076 H   0  0  0  0  0  0
  -16.3772  -27.8815   22.0913 H   0  0  0  0  0  0
  -24.6119  -30.7076   25.7568 H   0  0  0  0  0  0
  -24.8985  -32.2831   26.4839 H   0  0  0  0  0  0
  -25.8089  -30.8820   27.0177 H   0  0  0  0  0  0
  -26.3175  -29.6890   24.1096 H   0  0  0  0  0  0
  -27.3972  -29.7184   25.4865 H   0  0  0  0  0  0
  -27.9208  -30.4303   23.9798 H   0  0  0  0  0  0
  -27.3037  -33.3569   26.2308 H   0  0  0  0  0  0
  -28.4213  -32.6671   25.0631 H   0  0  0  0  0  0
  -28.0840  -31.8252   26.5673 H   0  0  0  0  0  0
  -28.2613  -38.0220   24.7523 H   0  0  0  0  0  0
  -28.1149  -36.2746   24.6335 H   0  0  0  0  0  0
  -27.2320  -37.1558   25.8896 H   0  0  0  0  0  0
  -21.1496  -30.1582   22.6219 H   0  0  0  0  0  0
  -26.0177  -38.2949   24.1476 H   0  0  0  0  0  0
  -27.2274  -16.9538   23.8879 H   0  0  0  0  0  0
  -25.5974  -17.5725   23.9962 H   0  0  0  0  0  0
  -26.9299  -18.4688   24.7212 H   0  0  0  0  0  0
  -30.9294  -19.0822   18.5347 H   0  0  0  0  0  0
  -29.3243  -18.4860   18.1478 H   0  0  0  0  0  0
  -30.2924  -17.6819   19.3659 H   0  0  0  0  0  0
  -28.7848  -21.3206   18.0582 H   0  0  0  0  0  0
  -27.4954  -21.4678   16.9709 H   0  0  0  0  0  0
  -27.8578  -19.8864   17.5670 H   0  0  0  0  0  0
  -27.7383  -22.9695   19.7037 H   0  0  0  0  0  0
  -26.0526  -22.8550   20.1732 H   0  0  0  0  0  0
  -26.4647  -23.2331   18.5259 H   0  0  0  0  0  0
  -30.1545  -19.5780   20.8958 H   0  0  0  0  0  0
  -29.5480  -20.6308   19.7812 H   0  0  0  0  0  0
  -29.0749  -16.8422   22.8629 H   0  0  0  0  0  0
  -30.0753  -17.6282   21.7583 H   0  0  0  0  0  0
  -25.3163  -20.8001   24.2660 H   0  0  0  0  0  0
  -24.1278  -19.6671   23.6982 H   0  0  0  0  0  0
  -19.6170  -23.9817   24.2186 H   0  0  0  0  0  0
  -20.9037  -24.7323   25.0308 H   0  0  0  0  0  0
  -19.9404  -26.6957   24.5326 H   0  0  0  0  0  0
  -18.8238  -26.0572   23.6357 H   0  0  0  0  0  0
  -22.3393  -24.0746   22.6167 H   0  0  0  0  0  0
  -21.0995  -22.9135   22.5725 H   0  0  0  0  0  0
  -20.7779  -28.6723   21.1051 H   0  0  0  0  0  0
  -20.6213  -27.4442   20.2974 H   0  0  0  0  0  0
  -22.1172  -21.4912   24.1861 H   0  0  0  0  0  0
  -23.2130  -22.7190   24.7320 H   0  0  0  0  0  0
  -22.8814  -26.1465   20.3970 H   0  0  0  0  0  0
  -22.8732  -27.5671   19.6258 H   0  0  0  0  0  0
  -28.3568  -15.3268   21.0205 H   0  0  0  0  0  0
  -23.5021  -21.4232   22.0467 H   0  0  0  0  0  0
  -24.5536  -22.4072   22.7429 H   0  0  0  0  0  0
  1 25  1  0  0  0
  1 30  2  0  0  0
  1 92  1  0  0  0
  2  3  1  0  0  0
  2 25  1  0  0  0
  2 97  1  0  0  0
  2 98  1  0  0  0
  3  4  1  0  0  0
  3 99  1  0  0  0
  3100  1  0  0  0
  4  5  1  0  0  0
  4101  1  0  0  0
  4102  1  0  0  0
  5  6  1  0  0  0
  5 26  1  0  0  0
  5103  1  0  0  0
  6 25  1  0  0  0
  6104  1  0  0  0
  6105  1  0  0  0
  7  8  2  0  0  0
  7 26  1  0  0  0
  7 29  1  0  0  0
  8  9  1  0  0  0
  8 22  1  0  0  0
  9 10  1  0  0  0
  9 27  2  0  0  0
 10 11  2  0  0  0
 10 15  1  0  0  0
 11 12  1  0  0  0
 11106  1  0  0  0
 12 13  2  0  0  0
 12107  1  0  0  0
 13 14  1  0  0  0
 13 31  1  0  0  0
 14 15  2  0  0  0
 14108  1  0  0  0
 15109  1  0  0  0
 16 17  2  0  0  0
 16 21  1  0  0  0
 16 31  1  0  0  0
 17 18  1  0  0  0
 17110  1  0  0  0
 18 19  2  0  0  0
 18111  1  0  0  0
 19 20  1  0  0  0
 19 24  1  0  0  0
 20 21  2  0  0  0
 20112  1  0  0  0
 21 23  1  0  0  0
 22 28  1  0  0  0
 22 32  2  0  0  0
 26 27  1  0  0  0
 28113  1  0  0  0
 28114  1  0  0  0
 29115  1  0  0  0
 29116  1  0  0  0
 33 34  1  0  0  0
 33 66  1  0  0  0
 33 70  2  0  0  0
 34 36  1  0  0  0
 34 59  1  0  0  0
 34117  1  0  0  0
 35 44  2  0  0  0
 35 45  1  0  0  0
 35 68  1  0  0  0
 36 56  1  0  0  0
 36118  1  0  0  0
 37 39  1  0  0  0
 37 47  1  0  0  0
 37 66  1  0  0  0
 37119  1  0  0  0
 38 43  2  0  0  0
 38 46  1  0  0  0
 38 47  1  0  0  0
 39 64  1  0  0  0
 39 67  2  0  0  0
 40 52  1  0  0  0
 40 53  2  0  0  0
 40 58  1  0  0  0
 41120  1  0  0  0
 41121  1  0  0  0
 41122  1  0  0  0
 41 48  1  0  0  0
 42 43  1  0  0  0
 42 66  1  0  0  0
 42123  1  0  0  0
 42124  1  0  0  0
 43 44  1  0  0  0
 44125  1  0  0  0
 45 46  2  0  0  0
 45126  1  0  0  0
 46127  1  0  0  0
 47128  1  0  0  0
 47129  1  0  0  0
 48 56  1  0  0  0
 48 65  1  0  0  0
 48130  1  0  0  0
 49 50  1  0  0  0
 49 53  1  0  0  0
 49 64  1  0  0  0
 49131  1  0  0  0
 50 51  1  0  0  0
 50132  1  0  0  0
 50133  1  0  0  0
 51 52  1  0  0  0
 51134  1  0  0  0
 51135  1  0  0  0
 52136  1  0  0  0
 52137  1  0  0  0
 53 54  1  0  0  0
 54 55  2  0  0  0
 54138  1  0  0  0
 55 57  1  0  0  0
 55139  1  0  0  0
 56 69  2  0  0  0
 57 58  2  0  0  0
 57140  1  0  0  0
 58141  1  0  0  0
 59 60  1  0  0  0
 59 61  1  0  0  0
 59 62  1  0  0  0
 60142  1  0  0  0
 60143  1  0  0  0
 60144  1  0  0  0
 61145  1  0  0  0
 61146  1  0  0  0
 61147  1  0  0  0
 62148  1  0  0  0
 62149  1  0  0  0
 62150  1  0  0  0
 63 65  1  0  0  0
 63151  1  0  0  0
 63152  1  0  0  0
 63153  1  0  0  0
 64154  1  0  0  0
 65155  1  0  0  0
 68 88  1  0  0  0
 71 72  2  0  0  0
 71 73  1  0  0  0
 71 81  1  0  0  0
 72 74  1  0  0  0
 72 76  1  0  0  0
 73 75  2  0  0  0
 73 80  1  0  0  0
 74 82  1  0  0  0
 74 91  2  0  0  0
 75 89  1  0  0  0
 75 91  1  0  0  0
 76156  1  0  0  0
 76157  1  0  0  0
 76158  1  0  0  0
 77 80  1  0  0  0
 77159  1  0  0  0
 77160  1  0  0  0
 77161  1  0  0  0
 78162  1  0  0  0
 78163  1  0  0  0
 78164  1  0  0  0
 78 89  1  0  0  0
 79 89  1  0  0  0
 79165  1  0  0  0
 79166  1  0  0  0
 79167  1  0  0  0
 80168  1  0  0  0
 80169  1  0  0  0
 81 92  1  0  0  0
 81170  1  0  0  0
 81171  1  0  0  0
 82 93  1  0  0  0
 82172  1  0  0  0
 82173  1  0  0  0
 83 84  1  0  0  0
 83 85  1  0  0  0
 83174  1  0  0  0
 83175  1  0  0  0
 84 86  1  0  0  0
 84176  1  0  0  0
 84177  1  0  0  0
 85 87  1  0  0  0
 85178  1  0  0  0
 85179  1  0  0  0
 86 88  1  0  0  0
 86180  1  0  0  0
 86181  1  0  0  0
 87 93  1  0  0  0
 87182  1  0  0  0
 87183  1  0  0  0
 88184  1  0  0  0
 88185  1  0  0  0
 89 90  1  0  0  0
 90 94  1  0  0  0
 90 95  1  0  0  0
 90 96  1  0  0  0
 92186  1  0  0  0
 93187  1  0  0  0
 93188  1  0  0  0
M  CHG  1  93   1
M  ISO  4   1 100  68 101  88 101  92 100
M  END
> <chiral flag>
0

> <version>
0

> <s_m_source_file>
/data/baiqing/PycharmProjects/Reinvent-master-3.2/result/LINK_invent/BTK/process_docking_weight1_custom_sum_contain_oxygen_bond_distance_aromatic_linkinvent_7_9_3/rearranged_h_0024.sdf

> <i_m_source_file_index>
17

> <r_mmod_Potential_Energy-OPLS-2005>
9682.666015625

> <r_mmod_Stretch_Energy-OPLS-2005>
4523.2109375

> <r_mmod_Bend_Energy-OPLS-2005>
835.47021484375

> <r_mmod_Torsional_Energy-OPLS-2005>
587.440795898438

> <r_mmod_Improper_Torsional_Energy-OPLS-2005>
43.132511138916

> <r_mmod_Van_der_Waal_Energy-OPLS-2005>
1929.56103515625

> <r_mmod_Electrostatic_Energy-OPLS-2005>
-567.536315917969

> <r_mmod_Solvation_Energy-OPLS-2005>
-430.193389892578

> <b_mmod_Minimization_Converged-OPLS-2005>
0

> <r_mmod_RMS_Derivative-OPLS-2005>
11.4308156967163

$$$$
17
                    3D
 Structure written by MMmdl.
185193  0  0  1  0            999 V2000
  -30.6851  -14.4183   20.5617 C   0  0  0  0  0  0
  -30.4313  -12.2632   19.4222 C   0  0  0  0  0  0
  -29.4972  -12.4831   18.2100 C   0  0  0  0  0  0
  -28.0146  -12.3642   18.6198 C   0  0  0  0  0  0
  -27.6684  -13.1914   19.8861 C   0  0  2  0  0  0
  -28.7083  -12.9310   21.0035 C   0  0  0  0  0  0
  -25.2631  -13.8118   20.5707 C   0  0  0  0  0  0
  -24.1841  -13.0420   20.9167 C   0  0  0  0  0  0
  -24.6373  -11.6869   20.8739 C   0  0  0  0  0  0
  -23.9046  -10.4262   21.0404 C   0  0  0  0  0  0
  -24.3596   -9.4169   21.9178 C   0  0  0  0  0  0
  -23.6272   -8.2201   22.0725 C   0  0  0  0  0  0
  -22.4250   -8.0256   21.3511 C   0  0  0  0  0  0
  -21.9886   -9.0239   20.4617 C   0  0  0  0  0  0
  -22.7221  -10.2117   20.3039 C   0  0  0  0  0  0
  -21.6841   -6.0744   22.5278 C   0  0  0  0  0  0
  -21.4011   -6.5651   23.8220 C   0  0  0  0  0  0
  -21.3652   -5.6792   24.9171 C   0  0  0  0  0  0
  -21.6022   -4.3054   24.7230 C   0  0  0  0  0  0
  -21.8814   -3.8151   23.4354 C   0  0  0  0  0  0
  -21.9188   -4.6966   22.3410 C   0  0  0  0  0  0
  -22.7876  -13.5224   21.1846 C   0  0  0  0  0  0
  -22.1668   -4.2149   21.0990 F   0  0  0  0  0  0
  -21.5613   -3.4554   25.7753 F   0  0  0  0  0  0
  -30.0496  -13.2246   20.4644 N   0  0  0  0  0  0
  -26.3039  -12.9261   20.3411 N   0  0  0  0  0  0
  -25.9298  -11.6437   20.5790 N   0  0  0  0  0  0
  -22.0507  -12.8220   22.0387 N   0  0  0  0  0  0
  -25.4398  -15.1845   20.4179 N   0  0  0  0  0  0
  -31.8166  -14.6400   20.1194 O   0  0  0  0  0  0
  -21.6599   -6.8863   21.4231 O   0  0  0  0  0  0
  -22.3586  -14.5577   20.6745 O   0  0  0  0  0  0
  -24.6104  -31.8700   23.2132 C   0  0  0  0  0  0
  -25.9014  -32.4834   23.8412 C   0  0  1  0  0  0
  -27.2458  -27.4734   20.0796 C   0  0  0  0  0  0
  -25.5888  -33.8635   24.2343 N   0  0  0  0  0  0
  -23.3976  -30.4917   21.5518 C   0  0  2  0  0  0
  -24.8467  -28.9574   20.1178 C   0  0  0  0  0  0
  -22.7383  -29.4661   22.5012 C   0  0  0  0  0  0
  -18.0264  -28.1373   22.8492 C   0  0  0  0  0  0
  -24.1485  -36.7324   23.2637 C   0  0  0  0  0  0
  -25.9223  -30.8403   21.3659 C   0  0  0  0  0  0
  -26.0002  -29.4738   20.7212 C   0  0  0  0  0  0
  -27.1979  -28.7298   20.7172 C   0  0  0  0  0  0
  -26.0766  -26.9551   19.4809 C   0  0  0  0  0  0
  -24.8757  -27.6917   19.5036 C   0  0  0  0  0  0
  -23.6066  -29.8208   20.1667 C   0  0  0  0  0  0
  -25.4103  -36.3122   24.0340 C   0  0  1  0  0  0
  -20.5849  -28.3648   23.1337 C   0  0  2  0  0  0
  -20.6753  -26.9387   22.5434 C   0  0  0  0  0  0
  -19.5745  -26.6381   21.5215 C   0  0  0  0  0  0
  -18.1915  -26.7928   22.1608 C   0  0  0  0  0  0
  -19.1512  -28.8825   23.2914 C   0  0  0  0  0  0
  -18.9443  -30.1433   23.8922 C   0  0  0  0  0  0
  -17.6448  -30.6580   24.0568 C   0  0  0  0  0  0
  -25.9027  -34.9484   23.5137 C   0  0  0  0  0  0
  -16.5338  -29.9084   23.6328 C   0  0  0  0  0  0
  -16.7254  -28.6501   23.0345 C   0  0  0  0  0  0
  -26.4457  -31.6605   25.0728 C   0  0  0  0  0  0
  -25.3736  -31.3717   26.1490 C   0  0  0  0  0  0
  -27.0261  -30.3043   24.6086 C   0  0  0  0  0  0
  -27.6051  -32.4311   25.7473 C   0  0  0  0  0  0
  -27.5587  -37.1808   24.8460 C   0  0  0  0  0  0
  -21.4114  -29.3023   22.3746 N   0  0  0  0  0  0
  -26.4296  -37.3799   23.9410 N   0  0  0  0  0  0
  -24.6608  -31.0815   22.1025 N   0  0  0  0  0  0
  -23.4169  -28.8215   23.3052 O   0  0  0  0  0  0
  -28.4310  -26.7801   20.0568 O   0  0  0  0  0  0
  -26.5585  -34.8927   22.4696 O   0  0  0  0  0  0
  -23.5305  -32.1443   23.7542 O   0  0  0  0  0  0
  -30.8897  -21.4779   15.7460 C   0  0  0  0  0  0
  -28.3303  -20.4231   16.3002 C   0  0  0  0  0  0
  -30.2110  -20.7524   14.7533 C   0  0  0  0  0  0
  -30.3066  -21.7120   17.0037 C   0  0  0  0  0  0
  -28.9266  -20.2191   15.0192 C   0  0  0  0  0  0
  -29.0060  -21.2104   17.2831 C   0  0  0  0  0  0
  -26.9926  -19.8244   16.6075 C   0  0  0  0  0  0
  -30.8999  -20.5467   13.4135 C   0  0  0  0  0  0
  -28.2286  -19.4171   13.9173 C   0  0  0  0  0  0
  -28.3612  -21.4747   18.6492 C   0  0  0  0  0  0
  -32.4084  -24.8791   19.5357 C   0  0  0  0  0  0
  -31.1168  -22.5196   18.0134 C   0  0  0  0  0  0
  -26.9230  -18.3016   16.7567 C   0  0  0  0  0  0
  -27.6031  -17.7429   18.0230 C   0  0  0  0  0  0
  -29.1460  -17.8094   18.0076 C   0  0  0  0  0  0
  -29.7962  -16.6242   18.7277 C   0  0  0  0  0  0
  -30.3902  -26.2213   18.7679 C   0  0  0  0  0  0
  -29.8357  -16.7344   20.2714 C   0  0  0  0  0  0
  -28.8530  -26.3338   18.7726 C   0  0  0  0  0  0
  -30.9455  -24.8053   19.0508 C   0  0  1  0  0  0
  -29.8615  -15.4165   20.9033 N   0  0  0  0  0  0
  -30.8138  -23.9517   17.8425 N   0  3  0  0  0  0
  -25.9639  -20.4922   16.7339 O   0  0  0  0  0  0
  -31.4771  -12.3659   19.1244 H   0  0  0  0  0  0
  -30.3292  -11.2466   19.8041 H   0  0  0  0  0  0
  -29.7175  -11.7541   17.4289 H   0  0  0  0  0  0
  -29.6799  -13.4628   17.7691 H   0  0  0  0  0  0
  -27.8059  -11.3107   18.8061 H   0  0  0  0  0  0
  -27.3710  -12.6583   17.7886 H   0  0  0  0  0  0
  -27.7212  -14.2421   19.6025 H   0  0  0  0  0  0
  -28.6696  -11.8871   21.3189 H   0  0  0  0  0  0
  -28.4765  -13.5108   21.8990 H   0  0  0  0  0  0
  -25.2734   -9.5655   22.4778 H   0  0  0  0  0  0
  -23.9987   -7.4574   22.7433 H   0  0  0  0  0  0
  -21.0805   -8.8763   19.8947 H   0  0  0  0  0  0
  -22.3664  -10.9674   19.6162 H   0  0  0  0  0  0
  -21.2008   -7.6154   23.9745 H   0  0  0  0  0  0
  -21.1487   -6.0509   25.9076 H   0  0  0  0  0  0
  -22.0603   -2.7622   23.2851 H   0  0  0  0  0  0
  -22.4170  -11.9897   22.4774 H   0  0  0  0  0  0
  -21.1141  -13.1267   22.2653 H   0  0  0  0  0  0
  -24.6772  -15.8369   20.5614 H   0  0  0  0  0  0
  -26.3015  -15.6378   20.1423 H   0  0  0  0  0  0
  -26.7088  -32.5558   23.1183 H   0  0  0  0  0  0
  -25.0060  -33.9807   25.0501 H   0  0  0  0  0  0
  -22.6854  -31.3075   21.4118 H   0  0  0  0  0  0
  -23.3740  -35.9664   23.3313 H   0  0  0  0  0  0
  -24.3582  -36.8920   22.2048 H   0  0  0  0  0  0
  -23.7243  -37.6537   23.6636 H   0  0  0  0  0  0
  -26.0302  -31.6024   20.5930 H   0  0  0  0  0  0
  -26.8125  -30.8981   21.9802 H   0  0  0  0  0  0
  -28.0913  -29.1260   21.1797 H   0  0  0  0  0  0
  -26.0903  -25.9868   19.0001 H   0  0  0  0  0  0
  -23.9876  -27.2843   19.0405 H   0  0  0  0  0  0
  -23.7146  -30.5947   19.4061 H   0  0  0  0  0  0
  -22.7321  -29.2383   19.8717 H   0  0  0  0  0  0
  -25.1278  -36.1994   25.0831 H   0  0  0  0  0  0
  -20.9937  -28.3210   24.1457 H   0  0  0  0  0  0
  -20.5638  -26.2255   23.3614 H   0  0  0  0  0  0
  -21.6630  -26.7429   22.1240 H   0  0  0  0  0  0
  -19.6910  -25.6294   21.1236 H   0  0  0  0  0  0
  -19.6708  -27.3200   20.6754 H   0  0  0  0  0  0
  -17.4199  -26.6695   21.3993 H   0  0  0  0  0  0
  -18.0299  -26.0052   22.8982 H   0  0  0  0  0  0
  -19.7916  -30.7242   24.2306 H   0  0  0  0  0  0
  -17.5000  -31.6263   24.5163 H   0  0  0  0  0  0
  -15.5339  -30.2994   23.7637 H   0  0  0  0  0  0
  -15.8652  -28.0830   22.7047 H   0  0  0  0  0  0
  -24.5957  -30.6986   25.7873 H   0  0  0  0  0  0
  -24.8860  -32.2860   26.4878 H   0  0  0  0  0  0
  -25.8115  -30.8978   27.0282 H   0  0  0  0  0  0
  -26.2786  -29.6833   24.1134 H   0  0  0  0  0  0
  -27.4019  -29.7258   25.4535 H   0  0  0  0  0  0
  -27.8634  -30.4358   23.9228 H   0  0  0  0  0  0
  -27.2688  -33.3598   26.2094 H   0  0  0  0  0  0
  -28.3830  -32.6886   25.0274 H   0  0  0  0  0  0
  -28.0749  -31.8404   26.5346 H   0  0  0  0  0  0
  -28.2616  -38.0095   24.7496 H   0  0  0  0  0  0
  -28.1067  -36.2627   24.6283 H   0  0  0  0  0  0
  -27.2313  -37.1466   25.8867 H   0  0  0  0  0  0
  -20.9266  -29.8738   21.6967 H   0  0  0  0  0  0
  -26.0191  -38.2880   24.1414 H   0  0  0  0  0  0
  -31.8765  -21.8690   15.5354 H   0  0  0  0  0  0
  -31.8711  -21.0425   13.3771 H   0  0  0  0  0  0
  -30.3051  -20.9551   12.5960 H   0  0  0  0  0  0
  -31.0638  -19.4845   13.2342 H   0  0  0  0  0  0
  -27.1499  -19.3450   14.0416 H   0  0  0  0  0  0
  -28.6300  -18.4035   13.8877 H   0  0  0  0  0  0
  -28.3740  -19.8692   12.9369 H   0  0  0  0  0  0
  -28.7303  -22.3771   19.1304 H   0  0  0  0  0  0
  -28.5411  -20.6394   19.3253 H   0  0  0  0  0  0
  -27.2859  -21.6236   18.5781 H   0  0  0  0  0  0
  -32.4904  -25.5027   20.4261 H   0  0  0  0  0  0
  -33.0661  -25.3072   18.7794 H   0  0  0  0  0  0
  -32.8016  -23.8994   19.8072 H   0  0  0  0  0  0
  -32.1852  -22.3638   17.8545 H   0  0  0  0  0  0
  -30.9257  -22.1748   19.0284 H   0  0  0  0  0  0
  -27.3442  -17.8244   15.8721 H   0  0  0  0  0  0
  -25.8684  -18.0242   16.7673 H   0  0  0  0  0  0
  -27.2917  -16.7023   18.1068 H   0  0  0  0  0  0
  -27.2165  -18.2359   18.9164 H   0  0  0  0  0  0
  -29.5074  -18.7416   18.4383 H   0  0  0  0  0  0
  -29.4953  -17.8063   16.9741 H   0  0  0  0  0  0
  -30.8176  -16.5101   18.3628 H   0  0  0  0  0  0
  -29.2824  -15.7166   18.4130 H   0  0  0  0  0  0
  -30.7799  -26.9248   19.5040 H   0  0  0  0  0  0
  -30.7780  -26.5787   17.8131 H   0  0  0  0  0  0
  -28.9426  -17.2484   20.6291 H   0  0  0  0  0  0
  -30.6913  -17.3277   20.5969 H   0  0  0  0  0  0
  -28.3777  -25.3850   18.5214 H   0  0  0  0  0  0
  -28.5527  -27.0558   18.0098 H   0  0  0  0  0  0
  -30.3520  -24.3647   19.8542 H   0  0  0  0  0  0
  -28.9997  -15.1223   21.3373 H   0  0  0  0  0  0
  -29.8628  -23.9912   17.5158 H   0  0  0  0  0  0
  -31.3957  -24.3040   17.0994 H   0  0  0  0  0  0
  1 25  1  0  0  0
  1 30  2  0  0  0
  1 91  1  0  0  0
  2  3  1  0  0  0
  2 25  1  0  0  0
  2 94  1  0  0  0
  2 95  1  0  0  0
  3  4  1  0  0  0
  3 96  1  0  0  0
  3 97  1  0  0  0
  4  5  1  0  0  0
  4 98  1  0  0  0
  4 99  1  0  0  0
  5  6  1  0  0  0
  5 26  1  0  0  0
  5100  1  0  0  0
  6 25  1  0  0  0
  6101  1  0  0  0
  6102  1  0  0  0
  7  8  2  0  0  0
  7 26  1  0  0  0
  7 29  1  0  0  0
  8  9  1  0  0  0
  8 22  1  0  0  0
  9 10  1  0  0  0
  9 27  2  0  0  0
 10 11  2  0  0  0
 10 15  1  0  0  0
 11 12  1  0  0  0
 11103  1  0  0  0
 12 13  2  0  0  0
 12104  1  0  0  0
 13 14  1  0  0  0
 13 31  1  0  0  0
 14 15  2  0  0  0
 14105  1  0  0  0
 15106  1  0  0  0
 16 17  2  0  0  0
 16 21  1  0  0  0
 16 31  1  0  0  0
 17 18  1  0  0  0
 17107  1  0  0  0
 18 19  2  0  0  0
 18108  1  0  0  0
 19 20  1  0  0  0
 19 24  1  0  0  0
 20 21  2  0  0  0
 20109  1  0  0  0
 21 23  1  0  0  0
 22 28  1  0  0  0
 22 32  2  0  0  0
 26 27  1  0  0  0
 28110  1  0  0  0
 28111  1  0  0  0
 29112  1  0  0  0
 29113  1  0  0  0
 33 34  1  0  0  0
 33 66  1  0  0  0
 33 70  2  0  0  0
 34 36  1  0  0  0
 34 59  1  0  0  0
 34114  1  0  0  0
 35 44  2  0  0  0
 35 45  1  0  0  0
 35 68  1  0  0  0
 36 56  1  0  0  0
 36115  1  0  0  0
 37 39  1  0  0  0
 37 47  1  0  0  0
 37 66  1  0  0  0
 37116  1  0  0  0
 38 43  2  0  0  0
 38 46  1  0  0  0
 38 47  1  0  0  0
 39 64  1  0  0  0
 39 67  2  0  0  0
 40 52  1  0  0  0
 40 53  2  0  0  0
 40 58  1  0  0  0
 41117  1  0  0  0
 41118  1  0  0  0
 41119  1  0  0  0
 41 48  1  0  0  0
 42 43  1  0  0  0
 42 66  1  0  0  0
 42120  1  0  0  0
 42121  1  0  0  0
 43 44  1  0  0  0
 44122  1  0  0  0
 45 46  2  0  0  0
 45123  1  0  0  0
 46124  1  0  0  0
 47125  1  0  0  0
 47126  1  0  0  0
 48 56  1  0  0  0
 48 65  1  0  0  0
 48127  1  0  0  0
 49 50  1  0  0  0
 49 53  1  0  0  0
 49 64  1  0  0  0
 49128  1  0  0  0
 50 51  1  0  0  0
 50129  1  0  0  0
 50130  1  0  0  0
 51 52  1  0  0  0
 51131  1  0  0  0
 51132  1  0  0  0
 52133  1  0  0  0
 52134  1  0  0  0
 53 54  1  0  0  0
 54 55  2  0  0  0
 54135  1  0  0  0
 55 57  1  0  0  0
 55136  1  0  0  0
 56 69  2  0  0  0
 57 58  2  0  0  0
 57137  1  0  0  0
 58138  1  0  0  0
 59 60  1  0  0  0
 59 61  1  0  0  0
 59 62  1  0  0  0
 60139  1  0  0  0
 60140  1  0  0  0
 60141  1  0  0  0
 61142  1  0  0  0
 61143  1  0  0  0
 61144  1  0  0  0
 62145  1  0  0  0
 62146  1  0  0  0
 62147  1  0  0  0
 63 65  1  0  0  0
 63148  1  0  0  0
 63149  1  0  0  0
 63150  1  0  0  0
 64151  1  0  0  0
 65152  1  0  0  0
 68 89  1  0  0  0
 71 73  2  0  0  0
 71 74  1  0  0  0
 71153  1  0  0  0
 72 75  2  0  0  0
 72 76  1  0  0  0
 72 77  1  0  0  0
 73 75  1  0  0  0
 73 78  1  0  0  0
 74 76  2  0  0  0
 74 82  1  0  0  0
 75 79  1  0  0  0
 76 80  1  0  0  0
 77 83  1  0  0  0
 77 93  2  0  0  0
 78154  1  0  0  0
 78155  1  0  0  0
 78156  1  0  0  0
 79157  1  0  0  0
 79158  1  0  0  0
 79159  1  0  0  0
 80160  1  0  0  0
 80161  1  0  0  0
 80162  1  0  0  0
 81163  1  0  0  0
 81164  1  0  0  0
 81165  1  0  0  0
 81 90  1  0  0  0
 82 92  1  0  0  0
 82166  1  0  0  0
 82167  1  0  0  0
 83 84  1  0  0  0
 83168  1  0  0  0
 83169  1  0  0  0
 84 85  1  0  0  0
 84170  1  0  0  0
 84171  1  0  0  0
 85 86  1  0  0  0
 85172  1  0  0  0
 85173  1  0  0  0
 86 88  1  0  0  0
 86174  1  0  0  0
 86175  1  0  0  0
 87 89  1  0  0  0
 87 90  1  0  0  0
 87176  1  0  0  0
 87177  1  0  0  0
 88 91  1  0  0  0
 88178  1  0  0  0
 88179  1  0  0  0
 89180  1  0  0  0
 89181  1  0  0  0
 90 92  1  0  0  0
 90182  1  0  0  0
 91183  1  0  0  0
 92184  1  0  0  0
 92185  1  0  0  0
M  CHG  1  92   1
M  ISO  4   1 100  68 101  89 101  91 100
M  END
> <chiral flag>
0

> <version>
0

> <s_m_source_file>
/data/baiqing/PycharmProjects/Reinvent-master-3.2/result/LINK_invent/BTK/process_docking_weight1_custom_sum_contain_oxygen_bond_distance_aromatic_linkinvent_7_9_3/rearranged_h_0024.sdf

> <i_m_source_file_index>
18

> <r_mmod_Potential_Energy-OPLS-2005>
-111.159683227539

> <r_mmod_Stretch_Energy-OPLS-2005>
38.7696495056152

> <r_mmod_Bend_Energy-OPLS-2005>
97.1433715820312

> <r_mmod_Torsional_Energy-OPLS-2005>
300.888031005859

> <r_mmod_Improper_Torsional_Energy-OPLS-2005>
9.0260066986084

> <r_mmod_Van_der_Waal_Energy-OPLS-2005>
159.831848144531

> <r_mmod_Electrostatic_Energy-OPLS-2005>
-267.909973144531

> <r_mmod_Solvation_Energy-OPLS-2005>
-458.750793457031

> <b_mmod_Minimization_Converged-OPLS-2005>
0

> <r_mmod_RMS_Derivative-OPLS-2005>
2.7936418056488

$$$$
18
                    3D
 Structure written by MMmdl.
171179  0  0  1  0            999 V2000
  -30.8105  -14.4989   20.4280 C   0  0  0  0  0  0
  -30.3740  -12.3157   19.4251 C   0  0  0  0  0  0
  -29.4611  -12.4552   18.1999 C   0  0  0  0  0  0
  -27.9884  -12.3302   18.6259 C   0  0  0  0  0  0
  -27.6309  -13.2148   19.8527 C   0  0  2  0  0  0
  -28.6986  -13.1492   20.9691 C   0  0  0  0  0  0
  -25.2419  -13.8071   20.5778 C   0  0  0  0  0  0
  -24.1750  -13.0334   20.9346 C   0  0  0  0  0  0
  -24.6363  -11.6849   20.8884 C   0  0  0  0  0  0
  -23.9070  -10.4227   21.0480 C   0  0  0  0  0  0
  -24.3608   -9.4123   21.9249 C   0  0  0  0  0  0
  -23.6260   -8.2161   22.0763 C   0  0  0  0  0  0
  -22.4237   -8.0247   21.3537 C   0  0  0  0  0  0
  -21.9912   -9.0242   20.4652 C   0  0  0  0  0  0
  -22.7257  -10.2117   20.3094 C   0  0  0  0  0  0
  -21.6792   -6.0744   22.5312 C   0  0  0  0  0  0
  -21.3976   -6.5654   23.8245 C   0  0  0  0  0  0
  -21.3645   -5.6796   24.9209 C   0  0  0  0  0  0
  -21.6022   -4.3061   24.7229 C   0  0  0  0  0  0
  -21.8813   -3.8161   23.4366 C   0  0  0  0  0  0
  -21.9161   -4.6975   22.3413 C   0  0  0  0  0  0
  -22.7782  -13.5153   21.1969 C   0  0  0  0  0  0
  -22.1638   -4.2189   21.0977 F   0  0  0  0  0  0
  -21.5632   -3.4538   25.7735 F   0  0  0  0  0  0
  -30.0023  -13.4050   20.3443 N   0  0  0  0  0  0
  -26.2899  -12.9314   20.3455 N   0  0  0  0  0  0
  -25.9288  -11.6476   20.5894 N   0  0  0  0  0  0
  -22.0413  -12.8151   22.0507 N   0  0  0  0  0  0
  -25.3876  -15.1740   20.4023 N   0  0  0  0  0  0
  -32.0266  -14.3713   20.2931 O   0  0  0  0  0  0
  -21.6541   -6.8888   21.4274 O   0  0  0  0  0  0
  -22.3503  -14.5456   20.6794 O   0  0  0  0  0  0
  -24.6125  -31.8710   23.2127 C   0  0  0  0  0  0
  -25.9011  -32.4842   23.8447 C   0  0  1  0  0  0
  -27.2367  -27.4556   20.0886 C   0  0  0  0  0  0
  -25.5881  -33.8639   24.2366 N   0  0  0  0  0  0
  -23.4004  -30.4966   21.5523 C   0  0  2  0  0  0
  -24.8454  -28.9639   20.1190 C   0  0  0  0  0  0
  -22.7406  -29.4692   22.5000 C   0  0  0  0  0  0
  -18.0307  -28.1384   22.8540 C   0  0  0  0  0  0
  -24.1500  -36.7301   23.2640 C   0  0  0  0  0  0
  -25.9288  -30.8431   21.3622 C   0  0  0  0  0  0
  -26.0064  -29.4826   20.7041 C   0  0  0  0  0  0
  -27.2058  -28.7391   20.6769 C   0  0  0  0  0  0
  -26.0522  -26.9438   19.5042 C   0  0  0  0  0  0
  -24.8605  -27.6912   19.5254 C   0  0  0  0  0  0
  -23.6066  -29.8275   20.1691 C   0  0  0  0  0  0
  -25.4116  -36.3105   24.0345 C   0  0  1  0  0  0
  -20.5891  -28.3660   23.1318 C   0  0  2  0  0  0
  -20.6785  -26.9377   22.5426 C   0  0  0  0  0  0
  -19.5733  -26.6383   21.5237 C   0  0  0  0  0  0
  -18.1923  -26.7944   22.1649 C   0  0  0  0  0  0
  -19.1560  -28.8842   23.2952 C   0  0  0  0  0  0
  -18.9463  -30.1465   23.8934 C   0  0  0  0  0  0
  -17.6452  -30.6588   24.0555 C   0  0  0  0  0  0
  -25.9036  -34.9471   23.5157 C   0  0  0  0  0  0
  -16.5354  -29.9066   23.6336 C   0  0  0  0  0  0
  -16.7295  -28.6489   23.0375 C   0  0  0  0  0  0
  -26.4461  -31.6598   25.0760 C   0  0  0  0  0  0
  -25.3706  -31.3625   26.1478 C   0  0  0  0  0  0
  -27.0313  -30.3065   24.6107 C   0  0  0  0  0  0
  -27.6117  -32.4276   25.7461 C   0  0  0  0  0  0
  -27.5576  -37.1808   24.8469 C   0  0  0  0  0  0
  -21.4148  -29.3026   22.3715 N   0  0  0  0  0  0
  -26.4306  -37.3766   23.9392 N   0  0  0  0  0  0
  -24.6655  -31.0834   22.1018 N   0  0  0  0  0  0
  -23.4200  -28.8270   23.3064 O   0  0  0  0  0  0
  -28.4247  -26.7522   20.1088 O   0  0  0  0  0  0
  -26.5584  -34.8904   22.4724 O   0  0  0  0  0  0
  -23.5308  -32.1490   23.7507 O   0  0  0  0  0  0
  -27.6576  -17.6374   21.9818 C   0  0  0  0  0  0
  -26.9042  -18.1179   20.8886 C   0  0  0  0  0  0
  -27.1741  -17.6208   19.5825 C   0  0  0  0  0  0
  -29.0443  -16.3026   20.4874 C   0  0  0  0  0  0
  -28.7264  -16.7442   21.7910 C   0  0  0  0  0  0
  -28.2560  -16.7286   19.3901 C   0  0  0  0  0  0
  -26.3524  -18.0288   18.3597 C   0  0  0  0  0  0
  -24.2556  -21.5439   19.8836 C   0  0  0  0  0  0
  -31.2722  -16.7718   19.6888 C   0  0  0  0  0  0
  -25.8676  -19.2021   21.1499 C   0  0  0  0  0  0
  -27.4119  -23.3070   21.4656 C   0  0  0  0  0  0
  -27.7932  -24.8011   21.4673 C   0  0  0  0  0  0
  -26.2081  -22.9978   20.5523 C   0  0  0  0  0  0
  -28.3623  -25.3226   20.1277 C   0  0  0  0  0  0
  -25.4786  -21.6600   20.8191 C   0  0  2  0  0  0
  -30.3297  -15.7630   20.2268 N   0  0  0  0  0  0
  -26.3847  -20.4993   20.6587 N   0  3  0  0  0  0
  -29.7127  -16.3223   23.1497 Cl  0  0  0  0  0  0
  -28.6521  -16.1982   17.7861 Cl  0  0  0  0  0  0
  -31.4175  -12.3464   19.1052 H   0  0  0  0  0  0
  -30.2373  -11.3473   19.9038 H   0  0  0  0  0  0
  -29.7030  -11.6896   17.4609 H   0  0  0  0  0  0
  -29.6329  -13.4160   17.7123 H   0  0  0  0  0  0
  -27.8046  -11.2796   18.8535 H   0  0  0  0  0  0
  -27.3396  -12.5709   17.7839 H   0  0  0  0  0  0
  -27.6108  -14.2277   19.4710 H   0  0  0  0  0  0
  -28.7020  -12.1702   21.4535 H   0  0  0  0  0  0
  -28.4873  -13.8766   21.7534 H   0  0  0  0  0  0
  -25.2746   -9.5532   22.4885 H   0  0  0  0  0  0
  -23.9925   -7.4495   22.7461 H   0  0  0  0  0  0
  -21.0855   -8.8795   19.8944 H   0  0  0  0  0  0
  -22.3749  -10.9688   19.6217 H   0  0  0  0  0  0
  -21.1947   -7.6164   23.9752 H   0  0  0  0  0  0
  -21.1495   -6.0551   25.9110 H   0  0  0  0  0  0
  -22.0586   -2.7628   23.2850 H   0  0  0  0  0  0
  -22.3894  -11.9699   22.4776 H   0  0  0  0  0  0
  -21.1087  -13.1295   22.2756 H   0  0  0  0  0  0
  -24.5773  -15.7807   20.4588 H   0  0  0  0  0  0
  -26.1875  -15.6221   19.9797 H   0  0  0  0  0  0
  -26.7083  -32.5571   23.1212 H   0  0  0  0  0  0
  -25.0049  -33.9830   25.0514 H   0  0  0  0  0  0
  -22.6927  -31.3147   21.4086 H   0  0  0  0  0  0
  -23.3767  -35.9624   23.3314 H   0  0  0  0  0  0
  -24.3582  -36.8910   22.2047 H   0  0  0  0  0  0
  -23.7269  -37.6514   23.6665 H   0  0  0  0  0  0
  -26.0419  -31.6121   20.5964 H   0  0  0  0  0  0
  -26.8165  -30.8901   21.9825 H   0  0  0  0  0  0
  -28.1061  -29.1361   21.1243 H   0  0  0  0  0  0
  -26.0214  -25.9752   19.0284 H   0  0  0  0  0  0
  -23.9624  -27.2841   19.0858 H   0  0  0  0  0  0
  -23.7115  -30.5977   19.4048 H   0  0  0  0  0  0
  -22.7325  -29.2440   19.8811 H   0  0  0  0  0  0
  -25.1293  -36.1955   25.0831 H   0  0  0  0  0  0
  -21.0064  -28.3197   24.1397 H   0  0  0  0  0  0
  -20.5707  -26.2236   23.3619 H   0  0  0  0  0  0
  -21.6643  -26.7408   22.1164 H   0  0  0  0  0  0
  -19.6862  -25.6300   21.1245 H   0  0  0  0  0  0
  -19.6671  -27.3217   20.6780 H   0  0  0  0  0  0
  -17.4205  -26.6785   21.4030 H   0  0  0  0  0  0
  -18.0262  -26.0077   22.9027 H   0  0  0  0  0  0
  -19.7919  -30.7334   24.2280 H   0  0  0  0  0  0
  -17.4965  -31.6266   24.5145 H   0  0  0  0  0  0
  -15.5350  -30.2945   23.7641 H   0  0  0  0  0  0
  -15.8713  -28.0799   22.7061 H   0  0  0  0  0  0
  -24.5969  -30.6899   25.7732 H   0  0  0  0  0  0
  -24.8791  -32.2728   26.4936 H   0  0  0  0  0  0
  -25.8050  -30.8780   27.0231 H   0  0  0  0  0  0
  -26.2857  -29.6786   24.1235 H   0  0  0  0  0  0
  -27.4175  -29.7337   25.4545 H   0  0  0  0  0  0
  -27.8636  -30.4429   23.9203 H   0  0  0  0  0  0
  -27.2889  -33.3630   26.2049 H   0  0  0  0  0  0
  -28.3902  -32.6739   25.0214 H   0  0  0  0  0  0
  -28.0821  -31.8364   26.5334 H   0  0  0  0  0  0
  -28.2607  -38.0086   24.7499 H   0  0  0  0  0  0
  -28.1082  -36.2644   24.6349 H   0  0  0  0  0  0
  -27.2291  -37.1458   25.8865 H   0  0  0  0  0  0
  -20.9317  -29.8691   21.6889 H   0  0  0  0  0  0
  -26.0211  -38.2839   24.1403 H   0  0  0  0  0  0
  -27.4584  -18.0049   22.9778 H   0  0  0  0  0  0
  -25.4864  -18.6502   18.5748 H   0  0  0  0  0  0
  -25.9691  -17.1398   17.8580 H   0  0  0  0  0  0
  -26.9752  -18.5634   17.6424 H   0  0  0  0  0  0
  -23.6581  -22.4552   19.8978 H   0  0  0  0  0  0
  -23.5869  -20.7379   20.1802 H   0  0  0  0  0  0
  -24.5485  -21.3708   18.8475 H   0  0  0  0  0  0
  -31.5740  -16.5007   18.6737 H   0  0  0  0  0  0
  -32.1776  -16.8504   20.2915 H   0  0  0  0  0  0
  -30.8442  -17.7762   19.6493 H   0  0  0  0  0  0
  -25.6668  -19.2767   22.2211 H   0  0  0  0  0  0
  -24.9164  -18.9262   20.6907 H   0  0  0  0  0  0
  -27.1602  -23.0219   22.4889 H   0  0  0  0  0  0
  -28.2761  -22.7050   21.1789 H   0  0  0  0  0  0
  -28.5390  -24.9813   22.2418 H   0  0  0  0  0  0
  -26.9190  -25.3796   21.7715 H   0  0  0  0  0  0
  -26.5164  -23.0509   19.5094 H   0  0  0  0  0  0
  -25.4787  -23.7991   20.6841 H   0  0  0  0  0  0
  -27.8286  -24.9415   19.2541 H   0  0  0  0  0  0
  -29.3759  -24.9371   20.0145 H   0  0  0  0  0  0
  -25.1289  -21.6760   21.8541 H   0  0  0  0  0  0
  -26.6304  -20.4017   19.6886 H   0  0  0  0  0  0
  -27.2352  -20.6799   21.1669 H   0  0  0  0  0  0
  1 25  1  0  0  0
  1 30  2  0  0  0
  1 86  1  0  0  0
  2  3  1  0  0  0
  2 25  1  0  0  0
  2 90  1  0  0  0
  2 91  1  0  0  0
  3  4  1  0  0  0
  3 92  1  0  0  0
  3 93  1  0  0  0
  4  5  1  0  0  0
  4 94  1  0  0  0
  4 95  1  0  0  0
  5  6  1  0  0  0
  5 26  1  0  0  0
  5 96  1  0  0  0
  6 25  1  0  0  0
  6 97  1  0  0  0
  6 98  1  0  0  0
  7  8  2  0  0  0
  7 26  1  0  0  0
  7 29  1  0  0  0
  8  9  1  0  0  0
  8 22  1  0  0  0
  9 10  1  0  0  0
  9 27  2  0  0  0
 10 11  2  0  0  0
 10 15  1  0  0  0
 11 12  1  0  0  0
 11 99  1  0  0  0
 12 13  2  0  0  0
 12100  1  0  0  0
 13 14  1  0  0  0
 13 31  1  0  0  0
 14 15  2  0  0  0
 14101  1  0  0  0
 15102  1  0  0  0
 16 17  2  0  0  0
 16 21  1  0  0  0
 16 31  1  0  0  0
 17 18  1  0  0  0
 17103  1  0  0  0
 18 19  2  0  0  0
 18104  1  0  0  0
 19 20  1  0  0  0
 19 24  1  0  0  0
 20 21  2  0  0  0
 20105  1  0  0  0
 21 23  1  0  0  0
 22 28  1  0  0  0
 22 32  2  0  0  0
 26 27  1  0  0  0
 28106  1  0  0  0
 28107  1  0  0  0
 29108  1  0  0  0
 29109  1  0  0  0
 33 34  1  0  0  0
 33 66  1  0  0  0
 33 70  2  0  0  0
 34 36  1  0  0  0
 34 59  1  0  0  0
 34110  1  0  0  0
 35 44  2  0  0  0
 35 45  1  0  0  0
 35 68  1  0  0  0
 36 56  1  0  0  0
 36111  1  0  0  0
 37 39  1  0  0  0
 37 47  1  0  0  0
 37 66  1  0  0  0
 37112  1  0  0  0
 38 43  2  0  0  0
 38 46  1  0  0  0
 38 47  1  0  0  0
 39 64  1  0  0  0
 39 67  2  0  0  0
 40 52  1  0  0  0
 40 53  2  0  0  0
 40 58  1  0  0  0
 41113  1  0  0  0
 41114  1  0  0  0
 41115  1  0  0  0
 41 48  1  0  0  0
 42 43  1  0  0  0
 42 66  1  0  0  0
 42116  1  0  0  0
 42117  1  0  0  0
 43 44  1  0  0  0
 44118  1  0  0  0
 45 46  2  0  0  0
 45119  1  0  0  0
 46120  1  0  0  0
 47121  1  0  0  0
 47122  1  0  0  0
 48 56  1  0  0  0
 48 65  1  0  0  0
 48123  1  0  0  0
 49 50  1  0  0  0
 49 53  1  0  0  0
 49 64  1  0  0  0
 49124  1  0  0  0
 50 51  1  0  0  0
 50125  1  0  0  0
 50126  1  0  0  0
 51 52  1  0  0  0
 51127  1  0  0  0
 51128  1  0  0  0
 52129  1  0  0  0
 52130  1  0  0  0
 53 54  1  0  0  0
 54 55  2  0  0  0
 54131  1  0  0  0
 55 57  1  0  0  0
 55132  1  0  0  0
 56 69  2  0  0  0
 57 58  2  0  0  0
 57133  1  0  0  0
 58134  1  0  0  0
 59 60  1  0  0  0
 59 61  1  0  0  0
 59 62  1  0  0  0
 60135  1  0  0  0
 60136  1  0  0  0
 60137  1  0  0  0
 61138  1  0  0  0
 61139  1  0  0  0
 61140  1  0  0  0
 62141  1  0  0  0
 62142  1  0  0  0
 62143  1  0  0  0
 63 65  1  0  0  0
 63144  1  0  0  0
 63145  1  0  0  0
 63146  1  0  0  0
 64147  1  0  0  0
 65148  1  0  0  0
 68 84  1  0  0  0
 71 72  2  0  0  0
 71 75  1  0  0  0
 71149  1  0  0  0
 72 73  1  0  0  0
 72 80  1  0  0  0
 73 76  2  0  0  0
 73 77  1  0  0  0
 74 75  2  0  0  0
 74 76  1  0  0  0
 74 86  1  0  0  0
 75 88  1  0  0  0
 76 89  1  0  0  0
 77150  1  0  0  0
 77151  1  0  0  0
 77152  1  0  0  0
 78153  1  0  0  0
 78154  1  0  0  0
 78155  1  0  0  0
 78 85  1  0  0  0
 79 86  1  0  0  0
 79156  1  0  0  0
 79157  1  0  0  0
 79158  1  0  0  0
 80 87  1  0  0  0
 80159  1  0  0  0
 80160  1  0  0  0
 81 82  1  0  0  0
 81 83  1  0  0  0
 81161  1  0  0  0
 81162  1  0  0  0
 82 84  1  0  0  0
 82163  1  0  0  0
 82164  1  0  0  0
 83 85  1  0  0  0
 83165  1  0  0  0
 83166  1  0  0  0
 84167  1  0  0  0
 84168  1  0  0  0
 85 87  1  0  0  0
 85169  1  0  0  0
 87170  1  0  0  0
 87171  1  0  0  0
M  CHG  1  87   1
M  ISO  4   1 100  68 101  84 101  86 100
M  END
> <chiral flag>
0

> <version>
0

> <s_m_source_file>
/data/baiqing/PycharmProjects/Reinvent-master-3.2/result/LINK_invent/BTK/process_docking_weight1_custom_sum_contain_oxygen_bond_distance_aromatic_linkinvent_7_9_3/rearranged_h_0024.sdf

> <i_m_source_file_index>
19

> <r_mmod_Potential_Energy-OPLS-2005>
-11.6797065734863

> <r_mmod_Stretch_Energy-OPLS-2005>
38.8531188964844

> <r_mmod_Bend_Energy-OPLS-2005>
131.28092956543

> <r_mmod_Torsional_Energy-OPLS-2005>
293.769165039062

> <r_mmod_Improper_Torsional_Energy-OPLS-2005>
16.4012126922607

> <r_mmod_Van_der_Waal_Energy-OPLS-2005>
152.172714233398

> <r_mmod_Electrostatic_Energy-OPLS-2005>
-228.068634033203

> <r_mmod_Solvation_Energy-OPLS-2005>
-463.932861328125

> <b_mmod_Minimization_Converged-OPLS-2005>
0

> <r_mmod_RMS_Derivative-OPLS-2005>
4.87357902526855

$$$$
19
                    3D
 Structure written by MMmdl.
153161  0  0  1  0            999 V2000
  -30.6066  -14.6317   20.5168 C   0  0  0  0  0  0
  -30.4446  -12.3893   19.4473 C   0  0  0  0  0  0
  -29.5102  -12.5123   18.2212 C   0  0  0  0  0  0
  -28.0290  -12.3560   18.6289 C   0  0  0  0  0  0
  -27.6560  -13.2140   19.8679 C   0  0  2  0  0  0
  -28.7010  -13.0344   20.9927 C   0  0  0  0  0  0
  -25.2525  -13.8141   20.5596 C   0  0  0  0  0  0
  -24.1827  -13.0408   20.9186 C   0  0  0  0  0  0
  -24.6421  -11.6894   20.8777 C   0  0  0  0  0  0
  -23.9082  -10.4283   21.0440 C   0  0  0  0  0  0
  -24.3619   -9.4189   21.9210 C   0  0  0  0  0  0
  -23.6295   -8.2217   22.0754 C   0  0  0  0  0  0
  -22.4272   -8.0269   21.3544 C   0  0  0  0  0  0
  -21.9920   -9.0253   20.4645 C   0  0  0  0  0  0
  -22.7264  -10.2130   20.3073 C   0  0  0  0  0  0
  -21.6853   -6.0738   22.5280 C   0  0  0  0  0  0
  -21.4015   -6.5640   23.8216 C   0  0  0  0  0  0
  -21.3656   -5.6794   24.9173 C   0  0  0  0  0  0
  -21.6038   -4.3058   24.7227 C   0  0  0  0  0  0
  -21.8822   -3.8152   23.4346 C   0  0  0  0  0  0
  -21.9193   -4.6965   22.3400 C   0  0  0  0  0  0
  -22.7850  -13.5194   21.1858 C   0  0  0  0  0  0
  -22.1677   -4.2157   21.0983 F   0  0  0  0  0  0
  -21.5608   -3.4538   25.7734 F   0  0  0  0  0  0
  -30.0198  -13.3936   20.4406 N   0  0  0  0  0  0
  -26.3003  -12.9350   20.3348 N   0  0  0  0  0  0
  -25.9352  -11.6504   20.5807 N   0  0  0  0  0  0
  -22.0499  -12.8187   22.0432 N   0  0  0  0  0  0
  -25.4122  -15.1842   20.3840 N   0  0  0  0  0  0
  -31.7443  -14.8405   20.0834 O   0  0  0  0  0  0
  -21.6634   -6.8877   21.4241 O   0  0  0  0  0  0
  -22.3502  -14.5481   20.6686 O   0  0  0  0  0  0
  -24.6259  -31.8570   23.1974 C   0  0  0  0  0  0
  -25.9083  -32.4762   23.8306 C   0  0  1  0  0  0
  -27.2385  -27.3271   20.1268 C   0  0  0  0  0  0
  -25.5903  -33.8562   24.2261 N   0  0  0  0  0  0
  -23.4209  -30.4806   21.5335 C   0  0  2  0  0  0
  -24.8689  -28.9176   20.1189 C   0  0  0  0  0  0
  -22.7458  -29.4640   22.4850 C   0  0  0  0  0  0
  -18.0300  -28.1440   22.8481 C   0  0  0  0  0  0
  -24.1481  -36.7290   23.2639 C   0  0  0  0  0  0
  -25.9567  -30.7964   21.3579 C   0  0  0  0  0  0
  -26.0345  -29.4164   20.7127 C   0  0  0  0  0  0
  -27.2239  -28.6363   20.6975 C   0  0  0  0  0  0
  -26.0486  -26.8570   19.5352 C   0  0  0  0  0  0
  -24.8747  -27.6434   19.5231 C   0  0  0  0  0  0
  -23.6407  -29.8061   20.1516 C   0  0  0  0  0  0
  -25.4109  -36.3075   24.0334 C   0  0  1  0  0  0
  -20.5908  -28.3733   23.1262 C   0  0  2  0  0  0
  -20.6765  -26.9439   22.5402 C   0  0  0  0  0  0
  -19.5734  -26.6425   21.5202 C   0  0  0  0  0  0
  -18.1930  -26.7971   22.1632 C   0  0  0  0  0  0
  -19.1561  -28.8895   23.2888 C   0  0  0  0  0  0
  -18.9481  -30.1491   23.8910 C   0  0  0  0  0  0
  -17.6487  -30.6620   24.0603 C   0  0  0  0  0  0
  -25.9048  -34.9439   23.5104 C   0  0  0  0  0  0
  -16.5375  -29.9141   23.6344 C   0  0  0  0  0  0
  -16.7295  -28.6574   23.0344 C   0  0  0  0  0  0
  -26.4491  -31.6575   25.0673 C   0  0  0  0  0  0
  -25.3763  -31.3721   26.1438 C   0  0  0  0  0  0
  -27.0318  -30.2995   24.6090 C   0  0  0  0  0  0
  -27.6045  -32.4294   25.7467 C   0  0  0  0  0  0
  -27.5573  -37.1815   24.8471 C   0  0  0  0  0  0
  -21.4163  -29.3103   22.3637 N   0  0  0  0  0  0
  -26.4273  -37.3780   23.9432 N   0  0  0  0  0  0
  -24.6862  -31.0621   22.0863 N   0  0  0  0  0  0
  -23.4180  -28.8166   23.2919 O   0  0  0  0  0  0
  -28.4000  -26.5527   20.0813 O   0  0  0  0  0  0
  -26.5611  -34.8904   22.4676 O   0  0  0  0  0  0
  -23.5419  -32.1317   23.7331 O   0  0  0  0  0  0
  -28.3695  -19.0799   21.4487 C   0  0  0  0  0  0
  -30.5593  -17.9518   20.1433 C   0  0  0  0  0  0
  -29.1988  -19.9763   20.7305 C   0  0  0  0  0  0
  -29.7052  -17.0721   20.8712 C   0  0  0  0  0  0
  -28.6129  -17.6864   21.5306 C   0  0  0  0  0  0
  -30.3250  -19.3719   20.0806 C   0  0  0  0  0  0
  -28.8041  -21.5076   20.8280 C   0  0  0  0  0  0
  -29.2142  -22.6166   19.7754 C   0  0  0  0  0  0
  -28.3207  -23.9426   19.6044 C   0  0  0  0  0  0
  -28.4290  -25.1719   20.6062 C   0  0  0  0  0  0
  -29.7983  -15.6153   21.0052 N   0  0  0  0  0  0
  -27.5389  -16.7223   22.4839 Cl  0  0  0  0  0  0
  -31.4614  -20.3375   19.2110 Cl  0  0  0  0  0  0
  -31.4853  -12.5248   19.1468 H   0  0  0  0  0  0
  -30.3864  -11.3884   19.8778 H   0  0  0  0  0  0
  -29.7754  -11.7635   17.4724 H   0  0  0  0  0  0
  -29.6553  -13.4831   17.7468 H   0  0  0  0  0  0
  -27.8533  -11.3020   18.8453 H   0  0  0  0  0  0
  -27.3798  -12.6057   17.7891 H   0  0  0  0  0  0
  -27.6835  -14.2564   19.5475 H   0  0  0  0  0  0
  -28.7087  -11.9998   21.3387 H   0  0  0  0  0  0
  -28.4416  -13.6296   21.8696 H   0  0  0  0  0  0
  -25.2759   -9.5649   22.4805 H   0  0  0  0  0  0
  -24.0010   -7.4590   22.7453 H   0  0  0  0  0  0
  -21.0857   -8.8775   19.8940 H   0  0  0  0  0  0
  -22.3737  -10.9668   19.6178 H   0  0  0  0  0  0
  -21.2022   -7.6150   23.9725 H   0  0  0  0  0  0
  -21.1479   -6.0520   25.9079 H   0  0  0  0  0  0
  -22.0608   -2.7615   23.2842 H   0  0  0  0  0  0
  -22.4116  -11.9842   22.4825 H   0  0  0  0  0  0
  -21.1113  -13.1205   22.2654 H   0  0  0  0  0  0
  -24.6385  -15.8310   20.4858 H   0  0  0  0  0  0
  -26.2688  -15.6350   20.0914 H   0  0  0  0  0  0
  -26.7148  -32.5471   23.1055 H   0  0  0  0  0  0
  -25.0050  -33.9675   25.0406 H   0  0  0  0  0  0
  -22.7179  -31.3034   21.3835 H   0  0  0  0  0  0
  -23.3717  -35.9650   23.3315 H   0  0  0  0  0  0
  -24.3555  -36.8899   22.2045 H   0  0  0  0  0  0
  -23.7236  -37.6501   23.6641 H   0  0  0  0  0  0
  -26.0790  -31.5518   20.5796 H   0  0  0  0  0  0
  -26.8392  -30.8576   21.9814 H   0  0  0  0  0  0
  -28.1283  -29.0249   21.1434 H   0  0  0  0  0  0
  -26.0282  -25.8814   19.0692 H   0  0  0  0  0  0
  -23.9783  -27.2595   19.0560 H   0  0  0  0  0  0
  -23.7736  -30.5763   19.3903 H   0  0  0  0  0  0
  -22.7598  -29.2414   19.8428 H   0  0  0  0  0  0
  -25.1292  -36.1913   25.0821 H   0  0  0  0  0  0
  -21.0070  -28.3318   24.1360 H   0  0  0  0  0  0
  -20.5633  -26.2348   23.3621 H   0  0  0  0  0  0
  -21.6646  -26.7429   22.1228 H   0  0  0  0  0  0
  -19.6858  -25.6330   21.1252 H   0  0  0  0  0  0
  -19.6674  -27.3218   20.6717 H   0  0  0  0  0  0
  -17.4192  -26.6738   21.4034 H   0  0  0  0  0  0
  -18.0327  -26.0129   22.9051 H   0  0  0  0  0  0
  -19.7960  -30.7330   24.2253 H   0  0  0  0  0  0
  -17.5049  -31.6286   24.5242 H   0  0  0  0  0  0
  -15.5389  -30.3079   23.7630 H   0  0  0  0  0  0
  -15.8695  -28.0922   22.7022 H   0  0  0  0  0  0
  -24.5926  -30.7062   25.7811 H   0  0  0  0  0  0
  -24.8980  -32.2907   26.4861 H   0  0  0  0  0  0
  -25.8156  -30.8924   27.0197 H   0  0  0  0  0  0
  -26.2849  -29.6757   24.1161 H   0  0  0  0  0  0
  -27.4057  -29.7250   25.4573 H   0  0  0  0  0  0
  -27.8712  -30.4273   23.9251 H   0  0  0  0  0  0
  -27.2636  -33.3596   26.2030 H   0  0  0  0  0  0
  -28.3895  -32.6859   25.0342 H   0  0  0  0  0  0
  -28.0649  -31.8415   26.5408 H   0  0  0  0  0  0
  -28.2625  -38.0081   24.7518 H   0  0  0  0  0  0
  -28.1045  -36.2627   24.6321 H   0  0  0  0  0  0
  -27.2305  -37.1512   25.8873 H   0  0  0  0  0  0
  -20.9281  -29.8906   21.6958 H   0  0  0  0  0  0
  -26.0150  -38.2856   24.1429 H   0  0  0  0  0  0
  -27.5156  -19.4728   21.9795 H   0  0  0  0  0  0
  -31.4163  -17.5462   19.6276 H   0  0  0  0  0  0
  -29.1266  -21.8476   21.8129 H   0  0  0  0  0  0
  -27.7142  -21.5233   20.8741 H   0  0  0  0  0  0
  -29.1924  -22.1262   18.8001 H   0  0  0  0  0  0
  -30.2588  -22.8945   19.9245 H   0  0  0  0  0  0
  -27.2722  -23.6572   19.5142 H   0  0  0  0  0  0
  -28.5711  -24.3395   18.6195 H   0  0  0  0  0  0
  -29.3943  -25.0866   21.1070 H   0  0  0  0  0  0
  -27.6940  -25.0649   21.4072 H   0  0  0  0  0  0
  -28.9785  -15.2290   21.4485 H   0  0  0  0  0  0
  1 25  1  0  0  0
  1 30  2  0  0  0
  1 81  1  0  0  0
  2  3  1  0  0  0
  2 25  1  0  0  0
  2 84  1  0  0  0
  2 85  1  0  0  0
  3  4  1  0  0  0
  3 86  1  0  0  0
  3 87  1  0  0  0
  4  5  1  0  0  0
  4 88  1  0  0  0
  4 89  1  0  0  0
  5  6  1  0  0  0
  5 26  1  0  0  0
  5 90  1  0  0  0
  6 25  1  0  0  0
  6 91  1  0  0  0
  6 92  1  0  0  0
  7  8  2  0  0  0
  7 26  1  0  0  0
  7 29  1  0  0  0
  8  9  1  0  0  0
  8 22  1  0  0  0
  9 10  1  0  0  0
  9 27  2  0  0  0
 10 11  2  0  0  0
 10 15  1  0  0  0
 11 12  1  0  0  0
 11 93  1  0  0  0
 12 13  2  0  0  0
 12 94  1  0  0  0
 13 14  1  0  0  0
 13 31  1  0  0  0
 14 15  2  0  0  0
 14 95  1  0  0  0
 15 96  1  0  0  0
 16 17  2  0  0  0
 16 21  1  0  0  0
 16 31  1  0  0  0
 17 18  1  0  0  0
 17 97  1  0  0  0
 18 19  2  0  0  0
 18 98  1  0  0  0
 19 20  1  0  0  0
 19 24  1  0  0  0
 20 21  2  0  0  0
 20 99  1  0  0  0
 21 23  1  0  0  0
 22 28  1  0  0  0
 22 32  2  0  0  0
 26 27  1  0  0  0
 28100  1  0  0  0
 28101  1  0  0  0
 29102  1  0  0  0
 29103  1  0  0  0
 33 34  1  0  0  0
 33 66  1  0  0  0
 33 70  2  0  0  0
 34 36  1  0  0  0
 34 59  1  0  0  0
 34104  1  0  0  0
 35 44  2  0  0  0
 35 45  1  0  0  0
 35 68  1  0  0  0
 36 56  1  0  0  0
 36105  1  0  0  0
 37 39  1  0  0  0
 37 47  1  0  0  0
 37 66  1  0  0  0
 37106  1  0  0  0
 38 43  2  0  0  0
 38 46  1  0  0  0
 38 47  1  0  0  0
 39 64  1  0  0  0
 39 67  2  0  0  0
 40 52  1  0  0  0
 40 53  2  0  0  0
 40 58  1  0  0  0
 41107  1  0  0  0
 41108  1  0  0  0
 41109  1  0  0  0
 41 48  1  0  0  0
 42 43  1  0  0  0
 42 66  1  0  0  0
 42110  1  0  0  0
 42111  1  0  0  0
 43 44  1  0  0  0
 44112  1  0  0  0
 45 46  2  0  0  0
 45113  1  0  0  0
 46114  1  0  0  0
 47115  1  0  0  0
 47116  1  0  0  0
 48 56  1  0  0  0
 48 65  1  0  0  0
 48117  1  0  0  0
 49 50  1  0  0  0
 49 53  1  0  0  0
 49 64  1  0  0  0
 49118  1  0  0  0
 50 51  1  0  0  0
 50119  1  0  0  0
 50120  1  0  0  0
 51 52  1  0  0  0
 51121  1  0  0  0
 51122  1  0  0  0
 52123  1  0  0  0
 52124  1  0  0  0
 53 54  1  0  0  0
 54 55  2  0  0  0
 54125  1  0  0  0
 55 57  1  0  0  0
 55126  1  0  0  0
 56 69  2  0  0  0
 57 58  2  0  0  0
 57127  1  0  0  0
 58128  1  0  0  0
 59 60  1  0  0  0
 59 61  1  0  0  0
 59 62  1  0  0  0
 60129  1  0  0  0
 60130  1  0  0  0
 60131  1  0  0  0
 61132  1  0  0  0
 61133  1  0  0  0
 61134  1  0  0  0
 62135  1  0  0  0
 62136  1  0  0  0
 62137  1  0  0  0
 63 65  1  0  0  0
 63138  1  0  0  0
 63139  1  0  0  0
 63140  1  0  0  0
 64141  1  0  0  0
 65142  1  0  0  0
 68 80  1  0  0  0
 71 73  2  0  0  0
 71 75  1  0  0  0
 71143  1  0  0  0
 72 74  1  0  0  0
 72 76  2  0  0  0
 72144  1  0  0  0
 73 76  1  0  0  0
 73 77  1  0  0  0
 74 75  2  0  0  0
 74 81  1  0  0  0
 75 82  1  0  0  0
 76 83  1  0  0  0
 77 78  1  0  0  0
 77145  1  0  0  0
 77146  1  0  0  0
 78 79  1  0  0  0
 78147  1  0  0  0
 78148  1  0  0  0
 79 80  1  0  0  0
 79149  1  0  0  0
 79150  1  0  0  0
 80151  1  0  0  0
 80152  1  0  0  0
 81153  1  0  0  0
M  ISO  4   1 100  68 101  80 101  81 100
M  END
> <chiral flag>
0

> <version>
0

> <s_m_source_file>
/data/baiqing/PycharmProjects/Reinvent-master-3.2/result/LINK_invent/BTK/process_docking_weight1_custom_sum_contain_oxygen_bond_distance_aromatic_linkinvent_7_9_3/rearranged_h_0024.sdf

> <i_m_source_file_index>
20

> <r_mmod_Potential_Energy-OPLS-2005>
85.2975463867188

> <r_mmod_Stretch_Energy-OPLS-2005>
80.4600601196289

> <r_mmod_Bend_Energy-OPLS-2005>
178.511444091797

> <r_mmod_Torsional_Energy-OPLS-2005>
236.561264038086

> <r_mmod_Improper_Torsional_Energy-OPLS-2005>
3.41172051429749

> <r_mmod_Van_der_Waal_Energy-OPLS-2005>
131.176315307617

> <r_mmod_Electrostatic_Energy-OPLS-2005>
-387.8330078125

> <r_mmod_Solvation_Energy-OPLS-2005>
-198.392654418945

> <b_mmod_Minimization_Converged-OPLS-2005>
0

> <r_mmod_RMS_Derivative-OPLS-2005>
3.49572563171387

$$$$
20
                    3D
 Structure written by MMmdl.
147155  0  0  1  0            999 V2000
  -30.4032  -15.3216   20.3770 C   0  0  0  0  0  0
  -30.4392  -12.8556   19.5144 C   0  0  0  0  0  0
  -29.5375  -12.5806   18.2849 C   0  0  0  0  0  0
  -28.0896  -12.2933   18.7200 C   0  0  0  0  0  0
  -27.6069  -13.2767   19.8158 C   0  0  2  0  0  0
  -28.6403  -13.4752   20.9435 C   0  0  0  0  0  0
  -25.2381  -13.8237   20.5764 C   0  0  0  0  0  0
  -24.1736  -13.0420   20.9272 C   0  0  0  0  0  0
  -24.6399  -11.6924   20.8760 C   0  0  0  0  0  0
  -23.9094  -10.4290   21.0408 C   0  0  0  0  0  0
  -24.3635   -9.4208   21.9186 C   0  0  0  0  0  0
  -23.6304   -8.2243   22.0746 C   0  0  0  0  0  0
  -22.4280   -8.0293   21.3542 C   0  0  0  0  0  0
  -21.9924   -9.0267   20.4640 C   0  0  0  0  0  0
  -22.7261  -10.2140   20.3059 C   0  0  0  0  0  0
  -21.6857   -6.0744   22.5279 C   0  0  0  0  0  0
  -21.4018   -6.5640   23.8216 C   0  0  0  0  0  0
  -21.3656   -5.6787   24.9171 C   0  0  0  0  0  0
  -21.6046   -4.3050   24.7220 C   0  0  0  0  0  0
  -21.8817   -3.8150   23.4340 C   0  0  0  0  0  0
  -21.9190   -4.6972   22.3400 C   0  0  0  0  0  0
  -22.7755  -13.5189   21.1909 C   0  0  0  0  0  0
  -22.1658   -4.2161   21.0974 F   0  0  0  0  0  0
  -21.5623   -3.4532   25.7730 F   0  0  0  0  0  0
  -29.8529  -14.0062   20.2987 N   0  0  0  0  0  0
  -26.2801  -12.9519   20.3195 N   0  0  0  0  0  0
  -25.9332  -11.6626   20.5701 N   0  0  0  0  0  0
  -22.0394  -12.8189   22.0462 N   0  0  0  0  0  0
  -25.4000  -15.1977   20.4231 N   0  0  0  0  0  0
  -31.6349  -15.3147   20.2295 O   0  0  0  0  0  0
  -21.6637   -6.8895   21.4244 O   0  0  0  0  0  0
  -22.3449  -14.5496   20.6746 O   0  0  0  0  0  0
  -24.6680  -31.8196   23.1676 C   0  0  0  0  0  0
  -25.9337  -32.4570   23.8148 C   0  0  1  0  0  0
  -27.2158  -26.8862   20.1931 C   0  0  0  0  0  0
  -25.5987  -33.8386   24.2055 N   0  0  0  0  0  0
  -23.4828  -30.4288   21.5199 C   0  0  2  0  0  0
  -24.9345  -28.8036   20.1200 C   0  0  0  0  0  0
  -22.7684  -29.4409   22.4796 C   0  0  0  0  0  0
  -18.0324  -28.1409   22.8463 C   0  0  0  0  0  0
  -24.1486  -36.7193   23.2644 C   0  0  0  0  0  0
  -26.0547  -30.6128   21.4021 C   0  0  0  0  0  0
  -26.1217  -29.1967   20.7505 C   0  0  0  0  0  0
  -27.2585  -28.2627   20.7541 C   0  0  0  0  0  0
  -25.9957  -26.6503   19.5224 C   0  0  0  0  0  0
  -24.8987  -27.5516   19.4847 C   0  0  0  0  0  0
  -23.7249  -29.7395   20.1486 C   0  0  0  0  0  0
  -25.4132  -36.2957   24.0295 C   0  0  1  0  0  0
  -20.5951  -28.3748   23.1188 C   0  0  2  0  0  0
  -20.6799  -26.9426   22.5402 C   0  0  0  0  0  0
  -19.5771  -26.6372   21.5214 C   0  0  0  0  0  0
  -18.1958  -26.7939   22.1625 C   0  0  0  0  0  0
  -19.1591  -28.8904   23.2807 C   0  0  0  0  0  0
  -18.9494  -30.1497   23.8837 C   0  0  0  0  0  0
  -17.6486  -30.6597   24.0554 C   0  0  0  0  0  0
  -25.9104  -34.9340   23.5002 C   0  0  0  0  0  0
  -16.5376  -29.9084   23.6350 C   0  0  0  0  0  0
  -16.7306  -28.6505   23.0365 C   0  0  0  0  0  0
  -26.4580  -31.6534   25.0696 C   0  0  0  0  0  0
  -25.3687  -31.3804   26.1341 C   0  0  0  0  0  0
  -27.0491  -30.2900   24.6450 C   0  0  0  0  0  0
  -27.6060  -32.4352   25.7507 C   0  0  0  0  0  0
  -27.5564  -37.1754   24.8469 C   0  0  0  0  0  0
  -21.4351  -29.3029   22.3542 N   0  0  0  0  0  0
  -26.4275  -37.3698   23.9410 N   0  0  0  0  0  0
  -24.7574  -30.9809   22.0843 N   0  0  0  0  0  0
  -23.4219  -28.7979   23.3048 O   0  0  0  0  0  0
  -28.2342  -25.7829   20.1894 O   0  0  0  0  0  0
  -26.5711  -34.8883   22.4596 O   0  0  0  0  0  0
  -23.5738  -32.1192   23.6730 O   0  0  0  0  0  0
  -30.5120  -19.8477   22.3516 C   0  0  0  0  0  0
  -29.1895  -20.9704   20.5625 C   0  0  0  0  0  0
  -29.7195  -18.1882   20.6702 C   0  0  0  0  0  0
  -29.9536  -21.0054   21.7539 C   0  0  0  0  0  0
  -30.4132  -18.5201   21.8636 C   0  0  0  0  0  0
  -29.1040  -19.4908   20.0661 C   0  0  0  0  0  0
  -28.7584  -22.5592   19.8935 C   0  0  0  0  0  0
  -28.0683  -24.1471   20.5006 C   0  0  0  0  0  0
  -29.6093  -16.5915   20.3172 N   0  0  0  0  0  0
  -30.2854  -22.5139   22.5271 Cl  0  0  0  0  0  0
  -31.1282  -17.2965   22.8575 Cl  0  0  0  0  0  0
  -28.2029  -19.2585   18.6131 Cl  0  0  0  0  0  0
  -31.4491  -13.0851   19.1710 H   0  0  0  0  0  0
  -30.5347  -11.9639   20.1364 H   0  0  0  0  0  0
  -29.9304  -11.7449   17.7054 H   0  0  0  0  0  0
  -29.5537  -13.4478   17.6225 H   0  0  0  0  0  0
  -28.0612  -11.2744   19.1094 H   0  0  0  0  0  0
  -27.4193  -12.3139   17.8597 H   0  0  0  0  0  0
  -27.5114  -14.2354   19.3054 H   0  0  0  0  0  0
  -28.8304  -12.5479   21.4856 H   0  0  0  0  0  0
  -28.2710  -14.1957   21.6754 H   0  0  0  0  0  0
  -25.2774   -9.5676   22.4774 H   0  0  0  0  0  0
  -24.0003   -7.4630   22.7464 H   0  0  0  0  0  0
  -21.0855   -8.8804   19.8950 H   0  0  0  0  0  0
  -22.3728  -10.9688   19.6183 H   0  0  0  0  0  0
  -21.2020   -7.6149   23.9729 H   0  0  0  0  0  0
  -21.1477   -6.0511   25.9078 H   0  0  0  0  0  0
  -22.0599   -2.7617   23.2828 H   0  0  0  0  0  0
  -22.3996  -11.9875   22.4903 H   0  0  0  0  0  0
  -21.1010  -13.1226   22.2625 H   0  0  0  0  0  0
  -24.6274  -15.8435   20.5473 H   0  0  0  0  0  0
  -26.2409  -15.6484   20.0876 H   0  0  0  0  0  0
  -26.7404  -32.5099   23.0858 H   0  0  0  0  0  0
  -25.0109  -33.9458   25.0188 H   0  0  0  0  0  0
  -22.7971  -31.2608   21.3464 H   0  0  0  0  0  0
  -23.3767  -35.9507   23.3292 H   0  0  0  0  0  0
  -24.3549  -36.8862   22.2062 H   0  0  0  0  0  0
  -23.7232  -37.6369   23.6716 H   0  0  0  0  0  0
  -26.2371  -31.3486   20.6186 H   0  0  0  0  0  0
  -26.9138  -30.6717   22.0591 H   0  0  0  0  0  0
  -28.1638  -28.5691   21.2596 H   0  0  0  0  0  0
  -25.8665  -25.6973   19.0293 H   0  0  0  0  0  0
  -23.9981  -27.2461   18.9690 H   0  0  0  0  0  0
  -23.8875  -30.5075   19.3909 H   0  0  0  0  0  0
  -22.8323  -29.1994   19.8277 H   0  0  0  0  0  0
  -25.1332  -36.1752   25.0787 H   0  0  0  0  0  0
  -21.0026  -28.3352   24.1313 H   0  0  0  0  0  0
  -20.5690  -26.2349   23.3644 H   0  0  0  0  0  0
  -21.6661  -26.7407   22.1199 H   0  0  0  0  0  0
  -19.6928  -25.6271   21.1279 H   0  0  0  0  0  0
  -19.6720  -27.3155   20.6729 H   0  0  0  0  0  0
  -17.4225  -26.6682   21.4036 H   0  0  0  0  0  0
  -18.0350  -26.0102   22.9036 H   0  0  0  0  0  0
  -19.7972  -30.7337   24.2165 H   0  0  0  0  0  0
  -17.5039  -31.6269   24.5168 H   0  0  0  0  0  0
  -15.5376  -30.2964   23.7708 H   0  0  0  0  0  0
  -15.8706  -28.0807   22.7107 H   0  0  0  0  0  0
  -24.5861  -30.7171   25.7640 H   0  0  0  0  0  0
  -24.8888  -32.3021   26.4642 H   0  0  0  0  0  0
  -25.7892  -30.9040   27.0202 H   0  0  0  0  0  0
  -26.3178  -29.6563   24.1422 H   0  0  0  0  0  0
  -27.3993  -29.7279   25.5114 H   0  0  0  0  0  0
  -27.9123  -30.4097   23.9898 H   0  0  0  0  0  0
  -27.2618  -33.3689   26.1965 H   0  0  0  0  0  0
  -28.3936  -32.6859   25.0387 H   0  0  0  0  0  0
  -28.0658  -31.8563   26.5527 H   0  0  0  0  0  0
  -28.2572  -38.0056   24.7507 H   0  0  0  0  0  0
  -28.1069  -36.2584   24.6315 H   0  0  0  0  0  0
  -27.2271  -37.1415   25.8867 H   0  0  0  0  0  0
  -20.9616  -29.8701   21.6651 H   0  0  0  0  0  0
  -26.0126  -38.2755   24.1425 H   0  0  0  0  0  0
  -31.0671  -19.9892   23.2668 H   0  0  0  0  0  0
  -28.1767  -22.3187   19.0036 H   0  0  0  0  0  0
  -29.7202  -22.8642   19.4806 H   0  0  0  0  0  0
  -28.2957  -24.1328   21.5648 H   0  0  0  0  0  0
  -26.9897  -23.9892   20.4859 H   0  0  0  0  0  0
  -28.6619  -16.3598   20.0653 H   0  0  0  0  0  0
  1 25  1  0  0  0
  1 30  2  0  0  0
  1 79  1  0  0  0
  2  3  1  0  0  0
  2 25  1  0  0  0
  2 83  1  0  0  0
  2 84  1  0  0  0
  3  4  1  0  0  0
  3 85  1  0  0  0
  3 86  1  0  0  0
  4  5  1  0  0  0
  4 87  1  0  0  0
  4 88  1  0  0  0
  5  6  1  0  0  0
  5 26  1  0  0  0
  5 89  1  0  0  0
  6 25  1  0  0  0
  6 90  1  0  0  0
  6 91  1  0  0  0
  7  8  2  0  0  0
  7 26  1  0  0  0
  7 29  1  0  0  0
  8  9  1  0  0  0
  8 22  1  0  0  0
  9 10  1  0  0  0
  9 27  2  0  0  0
 10 11  2  0  0  0
 10 15  1  0  0  0
 11 12  1  0  0  0
 11 92  1  0  0  0
 12 13  2  0  0  0
 12 93  1  0  0  0
 13 14  1  0  0  0
 13 31  1  0  0  0
 14 15  2  0  0  0
 14 94  1  0  0  0
 15 95  1  0  0  0
 16 17  2  0  0  0
 16 21  1  0  0  0
 16 31  1  0  0  0
 17 18  1  0  0  0
 17 96  1  0  0  0
 18 19  2  0  0  0
 18 97  1  0  0  0
 19 20  1  0  0  0
 19 24  1  0  0  0
 20 21  2  0  0  0
 20 98  1  0  0  0
 21 23  1  0  0  0
 22 28  1  0  0  0
 22 32  2  0  0  0
 26 27  1  0  0  0
 28 99  1  0  0  0
 28100  1  0  0  0
 29101  1  0  0  0
 29102  1  0  0  0
 33 34  1  0  0  0
 33 66  1  0  0  0
 33 70  2  0  0  0
 34 36  1  0  0  0
 34 59  1  0  0  0
 34103  1  0  0  0
 35 44  2  0  0  0
 35 45  1  0  0  0
 35 68  1  0  0  0
 36 56  1  0  0  0
 36104  1  0  0  0
 37 39  1  0  0  0
 37 47  1  0  0  0
 37 66  1  0  0  0
 37105  1  0  0  0
 38 43  2  0  0  0
 38 46  1  0  0  0
 38 47  1  0  0  0
 39 64  1  0  0  0
 39 67  2  0  0  0
 40 52  1  0  0  0
 40 53  2  0  0  0
 40 58  1  0  0  0
 41106  1  0  0  0
 41107  1  0  0  0
 41108  1  0  0  0
 41 48  1  0  0  0
 42 43  1  0  0  0
 42 66  1  0  0  0
 42109  1  0  0  0
 42110  1  0  0  0
 43 44  1  0  0  0
 44111  1  0  0  0
 45 46  2  0  0  0
 45112  1  0  0  0
 46113  1  0  0  0
 47114  1  0  0  0
 47115  1  0  0  0
 48 56  1  0  0  0
 48 65  1  0  0  0
 48116  1  0  0  0
 49 50  1  0  0  0
 49 53  1  0  0  0
 49 64  1  0  0  0
 49117  1  0  0  0
 50 51  1  0  0  0
 50118  1  0  0  0
 50119  1  0  0  0
 51 52  1  0  0  0
 51120  1  0  0  0
 51121  1  0  0  0
 52122  1  0  0  0
 52123  1  0  0  0
 53 54  1  0  0  0
 54 55  2  0  0  0
 54124  1  0  0  0
 55 57  1  0  0  0
 55125  1  0  0  0
 56 69  2  0  0  0
 57 58  2  0  0  0
 57126  1  0  0  0
 58127  1  0  0  0
 59 60  1  0  0  0
 59 61  1  0  0  0
 59 62  1  0  0  0
 60128  1  0  0  0
 60129  1  0  0  0
 60130  1  0  0  0
 61131  1  0  0  0
 61132  1  0  0  0
 61133  1  0  0  0
 62134  1  0  0  0
 62135  1  0  0  0
 62136  1  0  0  0
 63 65  1  0  0  0
 63137  1  0  0  0
 63138  1  0  0  0
 63139  1  0  0  0
 64140  1  0  0  0
 65141  1  0  0  0
 68 78  1  0  0  0
 71 74  2  0  0  0
 71 75  1  0  0  0
 71142  1  0  0  0
 72 74  1  0  0  0
 72 76  2  0  0  0
 72 77  1  0  0  0
 73 75  2  0  0  0
 73 76  1  0  0  0
 73 79  1  0  0  0
 74 80  1  0  0  0
 75 81  1  0  0  0
 76 82  1  0  0  0
 77 78  1  0  0  0
 77143  1  0  0  0
 77144  1  0  0  0
 78145  1  0  0  0
 78146  1  0  0  0
 79147  1  0  0  0
M  ISO  4   1 100  68 101  78 101  79 100
M  END
> <chiral flag>
0

> <version>
0

> <s_m_source_file>
/data/baiqing/PycharmProjects/Reinvent-master-3.2/result/LINK_invent/BTK/process_docking_weight1_custom_sum_contain_oxygen_bond_distance_aromatic_linkinvent_7_9_3/rearranged_h_0024.sdf

> <i_m_source_file_index>
21

> <r_mmod_Potential_Energy-OPLS-2005>
1354.853515625

> <r_mmod_Stretch_Energy-OPLS-2005>
657.844360351562

> <r_mmod_Bend_Energy-OPLS-2005>
449.282318115234

> <r_mmod_Torsional_Energy-OPLS-2005>
252.951385498047

> <r_mmod_Improper_Torsional_Energy-OPLS-2005>
9.15908241271973

> <r_mmod_Van_der_Waal_Energy-OPLS-2005>
124.500549316406

> <r_mmod_Electrostatic_Energy-OPLS-2005>
-439.983276367188

> <r_mmod_Solvation_Energy-OPLS-2005>
-215.4150390625

> <b_mmod_Minimization_Converged-OPLS-2005>
0

> <r_mmod_RMS_Derivative-OPLS-2005>
1.63129031658173

$$$$
21
                    3D
 Structure written by MMmdl.
148156  0  0  1  0            999 V2000
  -30.3763  -15.3852   20.3530 C   0  0  0  0  0  0
  -30.4373  -12.8904   19.5462 C   0  0  0  0  0  0
  -29.5432  -12.6045   18.3098 C   0  0  0  0  0  0
  -28.1010  -12.2942   18.7416 C   0  0  0  0  0  0
  -27.6076  -13.2840   19.8244 C   0  0  2  0  0  0
  -28.6312  -13.5021   20.9611 C   0  0  0  0  0  0
  -25.2366  -13.8254   20.5765 C   0  0  0  0  0  0
  -24.1724  -13.0438   20.9268 C   0  0  0  0  0  0
  -24.6390  -11.6938   20.8762 C   0  0  0  0  0  0
  -23.9089  -10.4290   21.0402 C   0  0  0  0  0  0
  -24.3630   -9.4205   21.9181 C   0  0  0  0  0  0
  -23.6297   -8.2245   22.0753 C   0  0  0  0  0  0
  -22.4275   -8.0281   21.3544 C   0  0  0  0  0  0
  -21.9919   -9.0255   20.4641 C   0  0  0  0  0  0
  -22.7256  -10.2132   20.3048 C   0  0  0  0  0  0
  -21.6861   -6.0734   22.5274 C   0  0  0  0  0  0
  -21.4013   -6.5637   23.8210 C   0  0  0  0  0  0
  -21.3657   -5.6788   24.9171 C   0  0  0  0  0  0
  -21.6048   -4.3056   24.7221 C   0  0  0  0  0  0
  -21.8816   -3.8144   23.4340 C   0  0  0  0  0  0
  -21.9192   -4.6962   22.3401 C   0  0  0  0  0  0
  -22.7741  -13.5182   21.1913 C   0  0  0  0  0  0
  -22.1661   -4.2149   21.0978 F   0  0  0  0  0  0
  -21.5627   -3.4536   25.7731 F   0  0  0  0  0  0
  -29.8540  -14.0446   20.3408 N   0  0  0  0  0  0
  -26.2794  -12.9542   20.3222 N   0  0  0  0  0  0
  -25.9331  -11.6638   20.5718 N   0  0  0  0  0  0
  -22.0398  -12.8166   22.0463 N   0  0  0  0  0  0
  -25.4002  -15.1987   20.4208 N   0  0  0  0  0  0
  -31.5906  -15.3906   20.0877 O   0  0  0  0  0  0
  -21.6642   -6.8877   21.4237 O   0  0  0  0  0  0
  -22.3421  -14.5489   20.6759 O   0  0  0  0  0  0
  -24.6692  -31.8127   23.1638 C   0  0  0  0  0  0
  -25.9333  -32.4533   23.8123 C   0  0  1  0  0  0
  -27.2215  -26.8488   20.1984 C   0  0  0  0  0  0
  -25.5973  -33.8359   24.2018 N   0  0  0  0  0  0
  -23.4883  -30.4215   21.5138 C   0  0  2  0  0  0
  -24.9429  -28.7924   20.1091 C   0  0  0  0  0  0
  -22.7701  -29.4379   22.4761 C   0  0  0  0  0  0
  -18.0326  -28.1416   22.8449 C   0  0  0  0  0  0
  -24.1490  -36.7190   23.2656 C   0  0  0  0  0  0
  -26.0600  -30.5959   21.4036 C   0  0  0  0  0  0
  -26.1261  -29.1766   20.7513 C   0  0  0  0  0  0
  -27.2520  -28.2259   20.7721 C   0  0  0  0  0  0
  -26.0130  -26.6380   19.4942 C   0  0  0  0  0  0
  -24.9175  -27.5464   19.4579 C   0  0  0  0  0  0
  -23.7321  -29.7291   20.1420 C   0  0  0  0  0  0
  -25.4131  -36.2943   24.0301 C   0  0  1  0  0  0
  -20.5957  -28.3757   23.1175 C   0  0  2  0  0  0
  -20.6802  -26.9428   22.5403 C   0  0  0  0  0  0
  -19.5776  -26.6372   21.5218 C   0  0  0  0  0  0
  -18.1957  -26.7948   22.1611 C   0  0  0  0  0  0
  -19.1587  -28.8908   23.2801 C   0  0  0  0  0  0
  -18.9505  -30.1500   23.8844 C   0  0  0  0  0  0
  -17.6498  -30.6600   24.0555 C   0  0  0  0  0  0
  -25.9105  -34.9328   23.4983 C   0  0  0  0  0  0
  -16.5386  -29.9086   23.6355 C   0  0  0  0  0  0
  -16.7306  -28.6514   23.0357 C   0  0  0  0  0  0
  -26.4569  -31.6513   25.0684 C   0  0  0  0  0  0
  -25.3668  -31.3782   26.1322 C   0  0  0  0  0  0
  -27.0486  -30.2877   24.6454 C   0  0  0  0  0  0
  -27.6051  -32.4348   25.7478 C   0  0  0  0  0  0
  -27.5565  -37.1737   24.8470 C   0  0  0  0  0  0
  -21.4365  -29.3034   22.3520 N   0  0  0  0  0  0
  -26.4268  -37.3686   23.9422 N   0  0  0  0  0  0
  -24.7614  -30.9720   22.0815 N   0  0  0  0  0  0
  -23.4210  -28.7973   23.3046 O   0  0  0  0  0  0
  -28.2162  -25.7160   20.3295 O   0  0  0  0  0  0
  -26.5738  -34.8881   22.4595 O   0  0  0  0  0  0
  -23.5741  -32.1138   23.6673 O   0  0  0  0  0  0
  -30.4045  -19.0612   19.3780 C   0  0  0  0  0  0
  -29.6037  -18.2920   20.3000 C   0  0  0  0  0  0
  -30.1349  -20.4542   19.3869 C   0  0  0  0  0  0
  -28.8535  -19.4519   20.8027 C   0  0  0  0  0  0
  -30.8274  -21.5029   18.5772 C   0  0  0  0  0  0
  -28.6831  -22.4701   20.7448 C   0  0  0  0  0  0
  -28.1740  -24.0643   19.9548 C   0  0  0  0  0  0
  -29.1223  -20.8599   20.2929 N   0  0  0  0  0  0
  -29.5784  -16.6520   20.5360 N   0  0  0  0  0  0
  -27.6655  -19.2959   22.0335 Cl  0  0  0  0  0  0
  -31.4504  -13.1120   19.2081 H   0  0  0  0  0  0
  -30.5314  -11.9998   20.1692 H   0  0  0  0  0  0
  -29.9495  -11.7754   17.7285 H   0  0  0  0  0  0
  -29.5462  -13.4739   17.6512 H   0  0  0  0  0  0
  -28.0904  -11.2812   19.1469 H   0  0  0  0  0  0
  -27.4300  -12.2883   17.8820 H   0  0  0  0  0  0
  -27.5083  -14.2369   19.3032 H   0  0  0  0  0  0
  -28.8231  -12.5795   21.5112 H   0  0  0  0  0  0
  -28.2429  -14.2199   21.6856 H   0  0  0  0  0  0
  -25.2768   -9.5694   22.4764 H   0  0  0  0  0  0
  -24.0002   -7.4640   22.7482 H   0  0  0  0  0  0
  -21.0844   -8.8772   19.8947 H   0  0  0  0  0  0
  -22.3702  -10.9673   19.6157 H   0  0  0  0  0  0
  -21.2007   -7.6145   23.9712 H   0  0  0  0  0  0
  -21.1481   -6.0519   25.9073 H   0  0  0  0  0  0
  -22.0599   -2.7603   23.2839 H   0  0  0  0  0  0
  -22.4027  -11.9832   22.4850 H   0  0  0  0  0  0
  -21.1012  -13.1177   22.2669 H   0  0  0  0  0  0
  -24.6290  -15.8491   20.5309 H   0  0  0  0  0  0
  -26.2407  -15.6397   20.0702 H   0  0  0  0  0  0
  -26.7383  -32.5040   23.0813 H   0  0  0  0  0  0
  -25.0070  -33.9420   25.0135 H   0  0  0  0  0  0
  -22.8075  -31.2565   21.3349 H   0  0  0  0  0  0
  -23.3774  -35.9497   23.3269 H   0  0  0  0  0  0
  -24.3576  -36.8885   22.2082 H   0  0  0  0  0  0
  -23.7206  -37.6346   23.6741 H   0  0  0  0  0  0
  -26.2450  -31.3292   20.6178 H   0  0  0  0  0  0
  -26.9184  -30.6580   22.0598 H   0  0  0  0  0  0
  -28.1394  -28.5174   21.3157 H   0  0  0  0  0  0
  -25.8761  -25.6888   18.9966 H   0  0  0  0  0  0
  -24.0217  -27.2478   18.9305 H   0  0  0  0  0  0
  -23.8908  -30.4952   19.3821 H   0  0  0  0  0  0
  -22.8398  -29.1868   19.8244 H   0  0  0  0  0  0
  -25.1314  -36.1738   25.0787 H   0  0  0  0  0  0
  -21.0027  -28.3369   24.1307 H   0  0  0  0  0  0
  -20.5693  -26.2376   23.3656 H   0  0  0  0  0  0
  -21.6662  -26.7399   22.1205 H   0  0  0  0  0  0
  -19.6956  -25.6279   21.1271 H   0  0  0  0  0  0
  -19.6733  -27.3171   20.6746 H   0  0  0  0  0  0
  -17.4228  -26.6701   21.4015 H   0  0  0  0  0  0
  -18.0324  -26.0109   22.9023 H   0  0  0  0  0  0
  -19.7985  -30.7315   24.2191 H   0  0  0  0  0  0
  -17.5054  -31.6276   24.5156 H   0  0  0  0  0  0
  -15.5386  -30.2967   23.7725 H   0  0  0  0  0  0
  -15.8708  -28.0819   22.7096 H   0  0  0  0  0  0
  -24.5887  -30.7099   25.7603 H   0  0  0  0  0  0
  -24.8834  -32.2994   26.4586 H   0  0  0  0  0  0
  -25.7880  -30.9043   27.0201 H   0  0  0  0  0  0
  -26.3172  -29.6529   24.1443 H   0  0  0  0  0  0
  -27.3995  -29.7253   25.5116 H   0  0  0  0  0  0
  -27.9108  -30.4062   23.9896 H   0  0  0  0  0  0
  -27.2616  -33.3717   26.1872 H   0  0  0  0  0  0
  -28.3940  -32.6791   25.0353 H   0  0  0  0  0  0
  -28.0624  -31.8600   26.5535 H   0  0  0  0  0  0
  -28.2530  -38.0081   24.7529 H   0  0  0  0  0  0
  -28.1102  -36.2597   24.6259 H   0  0  0  0  0  0
  -27.2299  -37.1330   25.8878 H   0  0  0  0  0  0
  -20.9650  -29.8703   21.6617 H   0  0  0  0  0  0
  -26.0116  -38.2738   24.1457 H   0  0  0  0  0  0
  -31.1504  -18.6247   18.7274 H   0  0  0  0  0  0
  -31.7808  -21.1349   18.1951 H   0  0  0  0  0  0
  -31.0358  -22.3951   19.1682 H   0  0  0  0  0  0
  -30.2176  -21.8012   17.7238 H   0  0  0  0  0  0
  -27.9333  -22.3199   21.5208 H   0  0  0  0  0  0
  -29.5552  -22.7827   21.3180 H   0  0  0  0  0  0
  -27.1404  -23.8889   19.6620 H   0  0  0  0  0  0
  -28.7081  -24.0505   19.0057 H   0  0  0  0  0  0
  -28.6789  -16.3792   20.9055 H   0  0  0  0  0  0
  1 25  1  0  0  0
  1 30  2  0  0  0
  1 79  1  0  0  0
  2  3  1  0  0  0
  2 25  1  0  0  0
  2 81  1  0  0  0
  2 82  1  0  0  0
  3  4  1  0  0  0
  3 83  1  0  0  0
  3 84  1  0  0  0
  4  5  1  0  0  0
  4 85  1  0  0  0
  4 86  1  0  0  0
  5  6  1  0  0  0
  5 26  1  0  0  0
  5 87  1  0  0  0
  6 25  1  0  0  0
  6 88  1  0  0  0
  6 89  1  0  0  0
  7  8  2  0  0  0
  7 26  1  0  0  0
  7 29  1  0  0  0
  8  9  1  0  0  0
  8 22  1  0  0  0
  9 10  1  0  0  0
  9 27  2  0  0  0
 10 11  2  0  0  0
 10 15  1  0  0  0
 11 12  1  0  0  0
 11 90  1  0  0  0
 12 13  2  0  0  0
 12 91  1  0  0  0
 13 14  1  0  0  0
 13 31  1  0  0  0
 14 15  2  0  0  0
 14 92  1  0  0  0
 15 93  1  0  0  0
 16 17  2  0  0  0
 16 21  1  0  0  0
 16 31  1  0  0  0
 17 18  1  0  0  0
 17 94  1  0  0  0
 18 19  2  0  0  0
 18 95  1  0  0  0
 19 20  1  0  0  0
 19 24  1  0  0  0
 20 21  2  0  0  0
 20 96  1  0  0  0
 21 23  1  0  0  0
 22 28  1  0  0  0
 22 32  2  0  0  0
 26 27  1  0  0  0
 28 97  1  0  0  0
 28 98  1  0  0  0
 29 99  1  0  0  0
 29100  1  0  0  0
 33 34  1  0  0  0
 33 66  1  0  0  0
 33 70  2  0  0  0
 34 36  1  0  0  0
 34 59  1  0  0  0
 34101  1  0  0  0
 35 44  2  0  0  0
 35 45  1  0  0  0
 35 68  1  0  0  0
 36 56  1  0  0  0
 36102  1  0  0  0
 37 39  1  0  0  0
 37 47  1  0  0  0
 37 66  1  0  0  0
 37103  1  0  0  0
 38 43  2  0  0  0
 38 46  1  0  0  0
 38 47  1  0  0  0
 39 64  1  0  0  0
 39 67  2  0  0  0
 40 52  1  0  0  0
 40 53  2  0  0  0
 40 58  1  0  0  0
 41104  1  0  0  0
 41105  1  0  0  0
 41106  1  0  0  0
 41 48  1  0  0  0
 42 43  1  0  0  0
 42 66  1  0  0  0
 42107  1  0  0  0
 42108  1  0  0  0
 43 44  1  0  0  0
 44109  1  0  0  0
 45 46  2  0  0  0
 45110  1  0  0  0
 46111  1  0  0  0
 47112  1  0  0  0
 47113  1  0  0  0
 48 56  1  0  0  0
 48 65  1  0  0  0
 48114  1  0  0  0
 49 50  1  0  0  0
 49 53  1  0  0  0
 49 64  1  0  0  0
 49115  1  0  0  0
 50 51  1  0  0  0
 50116  1  0  0  0
 50117  1  0  0  0
 51 52  1  0  0  0
 51118  1  0  0  0
 51119  1  0  0  0
 52120  1  0  0  0
 52121  1  0  0  0
 53 54  1  0  0  0
 54 55  2  0  0  0
 54122  1  0  0  0
 55 57  1  0  0  0
 55123  1  0  0  0
 56 69  2  0  0  0
 57 58  2  0  0  0
 57124  1  0  0  0
 58125  1  0  0  0
 59 60  1  0  0  0
 59 61  1  0  0  0
 59 62  1  0  0  0
 60126  1  0  0  0
 60127  1  0  0  0
 60128  1  0  0  0
 61129  1  0  0  0
 61130  1  0  0  0
 61131  1  0  0  0
 62132  1  0  0  0
 62133  1  0  0  0
 62134  1  0  0  0
 63 65  1  0  0  0
 63135  1  0  0  0
 63136  1  0  0  0
 63137  1  0  0  0
 64138  1  0  0  0
 65139  1  0  0  0
 68 77  1  0  0  0
 71 72  1  0  0  0
 71 73  2  0  0  0
 71140  1  0  0  0
 72 74  2  0  0  0
 72 79  1  0  0  0
 73 75  1  0  0  0
 73 78  1  0  0  0
 74 78  1  0  0  0
 74 80  1  0  0  0
 75141  1  0  0  0
 75142  1  0  0  0
 75143  1  0  0  0
 76 77  1  0  0  0
 76 78  1  0  0  0
 76144  1  0  0  0
 76145  1  0  0  0
 77146  1  0  0  0
 77147  1  0  0  0
 79148  1  0  0  0
M  ISO  4   1 100  68 101  77 101  79 100
M  END
> <chiral flag>
0

> <version>
0

> <s_m_source_file>
/data/baiqing/PycharmProjects/Reinvent-master-3.2/result/LINK_invent/BTK/process_docking_weight1_custom_sum_contain_oxygen_bond_distance_aromatic_linkinvent_7_9_3/rearranged_h_0024.sdf

> <i_m_source_file_index>
22

> <r_mmod_Potential_Energy-OPLS-2005>
1563.56323242188

> <r_mmod_Stretch_Energy-OPLS-2005>
698.369018554688

> <r_mmod_Bend_Energy-OPLS-2005>
519.921936035156

> <r_mmod_Torsional_Energy-OPLS-2005>
232.127716064453

> <r_mmod_Improper_Torsional_Energy-OPLS-2005>
4.74729108810425

> <r_mmod_Van_der_Waal_Energy-OPLS-2005>
101.948539733887

> <r_mmod_Electrostatic_Energy-OPLS-2005>
-373.052703857422

> <r_mmod_Solvation_Energy-OPLS-2005>
-211.645065307617

> <b_mmod_Minimization_Converged-OPLS-2005>
0

> <r_mmod_RMS_Derivative-OPLS-2005>
1.75854504108429

$$$$
22
                    3D
 Structure written by MMmdl.
179187  0  0  1  0            999 V2000
  -30.7929  -14.3203   20.7378 C   0  0  0  0  0  0
  -30.4216  -12.2940   19.3746 C   0  0  0  0  0  0
  -29.4825  -12.5510   18.1832 C   0  0  0  0  0  0
  -28.0091  -12.3972   18.6025 C   0  0  0  0  0  0
  -27.6720  -13.2026   19.8836 C   0  0  2  0  0  0
  -28.7109  -12.9199   20.9907 C   0  0  0  0  0  0
  -25.2641  -13.8156   20.5671 C   0  0  0  0  0  0
  -24.1872  -13.0434   20.9143 C   0  0  0  0  0  0
  -24.6416  -11.6901   20.8705 C   0  0  0  0  0  0
  -23.9074  -10.4292   21.0386 C   0  0  0  0  0  0
  -24.3616   -9.4209   21.9177 C   0  0  0  0  0  0
  -23.6285   -8.2250   22.0762 C   0  0  0  0  0  0
  -22.4271   -8.0285   21.3543 C   0  0  0  0  0  0
  -21.9908   -9.0254   20.4635 C   0  0  0  0  0  0
  -22.7241  -10.2134   20.3036 C   0  0  0  0  0  0
  -21.6857   -6.0737   22.5280 C   0  0  0  0  0  0
  -21.4009   -6.5639   23.8216 C   0  0  0  0  0  0
  -21.3653   -5.6792   24.9173 C   0  0  0  0  0  0
  -21.6051   -4.3053   24.7230 C   0  0  0  0  0  0
  -21.8816   -3.8146   23.4350 C   0  0  0  0  0  0
  -21.9194   -4.6962   22.3408 C   0  0  0  0  0  0
  -22.7888  -13.5233   21.1814 C   0  0  0  0  0  0
  -22.1659   -4.2144   21.0984 F   0  0  0  0  0  0
  -21.5637   -3.4542   25.7745 F   0  0  0  0  0  0
  -30.0590  -13.2123   20.4620 N   0  0  0  0  0  0
  -26.3086  -12.9315   20.3386 N   0  0  0  0  0  0
  -25.9345  -11.6477   20.5738 N   0  0  0  0  0  0
  -22.0513  -12.8229   22.0348 N   0  0  0  0  0  0
  -25.4373  -15.1867   20.4111 N   0  0  0  0  0  0
  -31.7657  -14.6850   20.0703 O   0  0  0  0  0  0
  -21.6641   -6.8878   21.4244 O   0  0  0  0  0  0
  -22.3571  -14.5545   20.6684 O   0  0  0  0  0  0
  -24.6149  -31.8697   23.2146 C   0  0  0  0  0  0
  -25.9046  -32.4836   23.8419 C   0  0  1  0  0  0
  -27.2140  -27.4627   20.0514 C   0  0  0  0  0  0
  -25.5907  -33.8640   24.2349 N   0  0  0  0  0  0
  -23.3973  -30.4968   21.5618 C   0  0  2  0  0  0
  -24.8302  -28.9652   20.1225 C   0  0  0  0  0  0
  -22.7390  -29.4679   22.5093 C   0  0  0  0  0  0
  -18.0275  -28.1368   22.8526 C   0  0  0  0  0  0
  -24.1474  -36.7322   23.2650 C   0  0  0  0  0  0
  -25.9203  -30.8486   21.3487 C   0  0  0  0  0  0
  -25.9978  -29.4814   20.7013 C   0  0  0  0  0  0
  -27.1974  -28.7344   20.6640 C   0  0  0  0  0  0
  -26.0142  -26.9312   19.5444 C   0  0  0  0  0  0
  -24.8290  -27.6819   19.5505 C   0  0  0  0  0  0
  -23.5933  -29.8330   20.1746 C   0  0  0  0  0  0
  -25.4090  -36.3117   24.0358 C   0  0  1  0  0  0
  -20.5851  -28.3650   23.1357 C   0  0  2  0  0  0
  -20.6756  -26.9389   22.5448 C   0  0  0  0  0  0
  -19.5734  -26.6392   21.5229 C   0  0  0  0  0  0
  -18.1904  -26.7930   22.1628 C   0  0  0  0  0  0
  -19.1514  -28.8831   23.2941 C   0  0  0  0  0  0
  -18.9438  -30.1441   23.8942 C   0  0  0  0  0  0
  -17.6440  -30.6580   24.0588 C   0  0  0  0  0  0
  -25.9036  -34.9494   23.5152 C   0  0  0  0  0  0
  -16.5337  -29.9085   23.6351 C   0  0  0  0  0  0
  -16.7265  -28.6504   23.0372 C   0  0  0  0  0  0
  -26.4530  -31.6591   25.0714 C   0  0  0  0  0  0
  -25.3847  -31.3570   26.1474 C   0  0  0  0  0  0
  -27.0430  -30.3094   24.5978 C   0  0  0  0  0  0
  -27.6084  -32.4338   25.7450 C   0  0  0  0  0  0
  -27.5583  -37.1795   24.8453 C   0  0  0  0  0  0
  -21.4124  -29.3037   22.3800 N   0  0  0  0  0  0
  -26.4255  -37.3825   23.9479 N   0  0  0  0  0  0
  -24.6652  -31.0812   22.1035 N   0  0  0  0  0  0
  -23.4161  -28.8213   23.3126 O   0  0  0  0  0  0
  -28.3707  -26.7264   19.9711 O   0  0  0  0  0  0
  -26.5606  -34.8964   22.4706 O   0  0  0  0  0  0
  -23.5356  -32.1447   23.7565 O   0  0  0  0  0  0
  -24.8519  -23.6834   18.0261 C   0  0  0  0  0  0
  -25.4683  -23.4130   16.7868 C   0  0  0  0  0  0
  -25.9572  -22.1026   16.5309 C   0  0  0  0  0  0
  -25.3302  -21.4220   18.8119 C   0  0  0  0  0  0
  -24.7901  -22.7065   19.0353 C   0  0  0  0  0  0
  -25.8776  -21.1120   17.5420 C   0  0  0  0  0  0
  -26.5497  -21.7087   15.1818 C   0  0  0  0  0  0
  -25.5426  -24.5401   15.7570 C   0  0  0  0  0  0
  -28.5488  -18.8948   21.2071 C   0  0  0  0  0  0
  -29.0490  -17.4768   21.5076 C   0  0  0  0  0  0
  -27.1064  -18.9332   20.6786 C   0  0  0  0  0  0
  -30.5580  -17.4346   21.8166 C   0  0  0  0  0  0
  -28.2230  -25.4936   17.7379 C   0  0  0  0  0  0
  -26.6385  -20.3841   20.4942 C   0  0  0  0  0  0
  -31.0281  -16.1242   22.4735 C   0  0  0  0  0  0
  -27.3623  -26.0967   16.5974 C   0  0  0  0  0  0
  -28.9061  -26.5515   18.6510 C   0  0  0  0  0  0
  -25.3294  -20.4866   19.8588 N   0  0  0  0  0  0
  -30.4303  -14.9390   21.8672 N   0  0  0  0  0  0
  -26.9056  -25.1025   15.5951 N   0  3  0  0  0  0
  -24.0672  -23.1092   20.5552 Cl  0  0  0  0  0  0
  -26.4352  -19.5029   17.2122 Cl  0  0  0  0  0  0
  -31.4635  -12.4064   19.0699 H   0  0  0  0  0  0
  -30.3266  -11.2624   19.7163 H   0  0  0  0  0  0
  -29.7130  -11.8675   17.3650 H   0  0  0  0  0  0
  -29.6475  -13.5578   17.7956 H   0  0  0  0  0  0
  -27.8139  -11.3365   18.7652 H   0  0  0  0  0  0
  -27.3566  -12.7074   17.7848 H   0  0  0  0  0  0
  -27.7358  -14.2608   19.6288 H   0  0  0  0  0  0
  -28.6700  -11.8698   21.2838 H   0  0  0  0  0  0
  -28.4504  -13.4782   21.8897 H   0  0  0  0  0  0
  -25.2757   -9.5703   22.4752 H   0  0  0  0  0  0
  -23.9995   -7.4656   22.7494 H   0  0  0  0  0  0
  -21.0842   -8.8759   19.8932 H   0  0  0  0  0  0
  -22.3691  -10.9671   19.6142 H   0  0  0  0  0  0
  -21.1989   -7.6144   23.9720 H   0  0  0  0  0  0
  -21.1482   -6.0519   25.9076 H   0  0  0  0  0  0
  -22.0599   -2.7604   23.2863 H   0  0  0  0  0  0
  -22.4123  -11.9871   22.4704 H   0  0  0  0  0  0
  -21.1124  -13.1260   22.2533 H   0  0  0  0  0  0
  -24.6725  -15.8436   20.5195 H   0  0  0  0  0  0
  -26.2997  -15.6274   20.1168 H   0  0  0  0  0  0
  -26.7098  -32.5568   23.1174 H   0  0  0  0  0  0
  -25.0015  -33.9830   25.0446 H   0  0  0  0  0  0
  -22.6873  -31.3149   21.4273 H   0  0  0  0  0  0
  -23.3782  -35.9601   23.3227 H   0  0  0  0  0  0
  -24.3568  -36.9039   22.2083 H   0  0  0  0  0  0
  -23.7169  -37.6464   23.6740 H   0  0  0  0  0  0
  -26.0041  -31.6116   20.5743 H   0  0  0  0  0  0
  -26.8181  -30.9165   21.9497 H   0  0  0  0  0  0
  -28.1070  -29.1401   21.0799 H   0  0  0  0  0  0
  -25.9869  -25.9288   19.1537 H   0  0  0  0  0  0
  -23.9208  -27.2644   19.1406 H   0  0  0  0  0  0
  -23.6941  -30.6153   19.4201 H   0  0  0  0  0  0
  -22.7161  -29.2519   19.8838 H   0  0  0  0  0  0
  -25.1248  -36.1959   25.0850 H   0  0  0  0  0  0
  -20.9933  -28.3175   24.1477 H   0  0  0  0  0  0
  -20.5661  -26.2249   23.3630 H   0  0  0  0  0  0
  -21.6614  -26.7435   22.1200 H   0  0  0  0  0  0
  -19.6909  -25.6313   21.1235 H   0  0  0  0  0  0
  -19.6684  -27.3243   20.6787 H   0  0  0  0  0  0
  -17.4197  -26.6758   21.4006 H   0  0  0  0  0  0
  -18.0258  -26.0013   22.8966 H   0  0  0  0  0  0
  -19.7895  -30.7278   24.2294 H   0  0  0  0  0  0
  -17.4981  -31.6264   24.5180 H   0  0  0  0  0  0
  -15.5336  -30.3006   23.7641 H   0  0  0  0  0  0
  -15.8656  -28.0851   22.7050 H   0  0  0  0  0  0
  -24.6045  -30.6904   25.7782 H   0  0  0  0  0  0
  -24.9011  -32.2662   26.5056 H   0  0  0  0  0  0
  -25.8254  -30.8641   27.0145 H   0  0  0  0  0  0
  -26.2906  -29.6704   24.1339 H   0  0  0  0  0  0
  -27.4650  -29.7473   25.4319 H   0  0  0  0  0  0
  -27.8510  -30.4560   23.8804 H   0  0  0  0  0  0
  -27.2685  -33.3634   26.2047 H   0  0  0  0  0  0
  -28.3834  -32.6934   25.0217 H   0  0  0  0  0  0
  -28.0830  -31.8473   26.5337 H   0  0  0  0  0  0
  -28.2488  -38.0211   24.7625 H   0  0  0  0  0  0
  -28.1190  -36.2742   24.6059 H   0  0  0  0  0  0
  -27.2351  -37.1142   25.8863 H   0  0  0  0  0  0
  -20.9314  -29.8732   21.6981 H   0  0  0  0  0  0
  -26.0134  -38.2874   24.1588 H   0  0  0  0  0  0
  -24.4213  -24.6550   18.2194 H   0  0  0  0  0  0
  -26.7044  -22.5336   14.4912 H   0  0  0  0  0  0
  -25.8897  -20.9923   14.6921 H   0  0  0  0  0  0
  -27.5189  -21.2276   15.3206 H   0  0  0  0  0  0
  -24.8421  -25.3373   16.0111 H   0  0  0  0  0  0
  -25.2008  -24.1612   14.7928 H   0  0  0  0  0  0
  -29.2046  -19.3700   20.4760 H   0  0  0  0  0  0
  -28.6198  -19.4925   22.1171 H   0  0  0  0  0  0
  -28.8422  -16.8293   20.6549 H   0  0  0  0  0  0
  -28.4839  -17.0711   22.3486 H   0  0  0  0  0  0
  -26.4414  -18.4088   21.3675 H   0  0  0  0  0  0
  -27.0583  -18.3924   19.7307 H   0  0  0  0  0  0
  -30.8228  -18.2616   22.4773 H   0  0  0  0  0  0
  -31.1209  -17.6005   20.8968 H   0  0  0  0  0  0
  -29.0181  -24.9136   17.2664 H   0  0  0  0  0  0
  -27.6635  -24.7694   18.3297 H   0  0  0  0  0  0
  -27.3971  -20.9335   19.9321 H   0  0  0  0  0  0
  -26.5780  -20.8651   21.4716 H   0  0  0  0  0  0
  -30.7322  -16.1321   23.5231 H   0  0  0  0  0  0
  -32.1172  -16.0543   22.4666 H   0  0  0  0  0  0
  -27.9777  -26.8131   16.0527 H   0  0  0  0  0  0
  -26.5207  -26.6765   16.9744 H   0  0  0  0  0  0
  -28.9794  -27.5156   18.1446 H   0  0  0  0  0  0
  -29.9394  -26.2309   18.7998 H   0  0  0  0  0  0
  -24.6232  -20.7518   20.5387 H   0  0  0  0  0  0
  -29.6570  -14.5211   22.3623 H   0  0  0  0  0  0
  -26.8844  -25.5929   14.7147 H   0  0  0  0  0  0
  -27.5835  -24.3663   15.4953 H   0  0  0  0  0  0
  1 25  1  0  0  0
  1 30  2  0  0  0
  1 89  1  0  0  0
  2  3  1  0  0  0
  2 25  1  0  0  0
  2 93  1  0  0  0
  2 94  1  0  0  0
  3  4  1  0  0  0
  3 95  1  0  0  0
  3 96  1  0  0  0
  4  5  1  0  0  0
  4 97  1  0  0  0
  4 98  1  0  0  0
  5  6  1  0  0  0
  5 26  1  0  0  0
  5 99  1  0  0  0
  6 25  1  0  0  0
  6100  1  0  0  0
  6101  1  0  0  0
  7  8  2  0  0  0
  7 26  1  0  0  0
  7 29  1  0  0  0
  8  9  1  0  0  0
  8 22  1  0  0  0
  9 10  1  0  0  0
  9 27  2  0  0  0
 10 11  2  0  0  0
 10 15  1  0  0  0
 11 12  1  0  0  0
 11102  1  0  0  0
 12 13  2  0  0  0
 12103  1  0  0  0
 13 14  1  0  0  0
 13 31  1  0  0  0
 14 15  2  0  0  0
 14104  1  0  0  0
 15105  1  0  0  0
 16 17  2  0  0  0
 16 21  1  0  0  0
 16 31  1  0  0  0
 17 18  1  0  0  0
 17106  1  0  0  0
 18 19  2  0  0  0
 18107  1  0  0  0
 19 20  1  0  0  0
 19 24  1  0  0  0
 20 21  2  0  0  0
 20108  1  0  0  0
 21 23  1  0  0  0
 22 28  1  0  0  0
 22 32  2  0  0  0
 26 27  1  0  0  0
 28109  1  0  0  0
 28110  1  0  0  0
 29111  1  0  0  0
 29112  1  0  0  0
 33 34  1  0  0  0
 33 66  1  0  0  0
 33 70  2  0  0  0
 34 36  1  0  0  0
 34 59  1  0  0  0
 34113  1  0  0  0
 35 44  2  0  0  0
 35 45  1  0  0  0
 35 68  1  0  0  0
 36 56  1  0  0  0
 36114  1  0  0  0
 37 39  1  0  0  0
 37 47  1  0  0  0
 37 66  1  0  0  0
 37115  1  0  0  0
 38 43  2  0  0  0
 38 46  1  0  0  0
 38 47  1  0  0  0
 39 64  1  0  0  0
 39 67  2  0  0  0
 40 52  1  0  0  0
 40 53  2  0  0  0
 40 58  1  0  0  0
 41116  1  0  0  0
 41117  1  0  0  0
 41118  1  0  0  0
 41 48  1  0  0  0
 42 43  1  0  0  0
 42 66  1  0  0  0
 42119  1  0  0  0
 42120  1  0  0  0
 43 44  1  0  0  0
 44121  1  0  0  0
 45 46  2  0  0  0
 45122  1  0  0  0
 46123  1  0  0  0
 47124  1  0  0  0
 47125  1  0  0  0
 48 56  1  0  0  0
 48 65  1  0  0  0
 48126  1  0  0  0
 49 50  1  0  0  0
 49 53  1  0  0  0
 49 64  1  0  0  0
 49127  1  0  0  0
 50 51  1  0  0  0
 50128  1  0  0  0
 50129  1  0  0  0
 51 52  1  0  0  0
 51130  1  0  0  0
 51131  1  0  0  0
 52132  1  0  0  0
 52133  1  0  0  0
 53 54  1  0  0  0
 54 55  2  0  0  0
 54134  1  0  0  0
 55 57  1  0  0  0
 55135  1  0  0  0
 56 69  2  0  0  0
 57 58  2  0  0  0
 57136  1  0  0  0
 58137  1  0  0  0
 59 60  1  0  0  0
 59 61  1  0  0  0
 59 62  1  0  0  0
 60138  1  0  0  0
 60139  1  0  0  0
 60140  1  0  0  0
 61141  1  0  0  0
 61142  1  0  0  0
 61143  1  0  0  0
 62144  1  0  0  0
 62145  1  0  0  0
 62146  1  0  0  0
 63 65  1  0  0  0
 63147  1  0  0  0
 63148  1  0  0  0
 63149  1  0  0  0
 64150  1  0  0  0
 65151  1  0  0  0
 68 87  1  0  0  0
 71 72  2  0  0  0
 71 75  1  0  0  0
 71152  1  0  0  0
 72 73  1  0  0  0
 72 78  1  0  0  0
 73 76  2  0  0  0
 73 77  1  0  0  0
 74 75  2  0  0  0
 74 76  1  0  0  0
 74 88  1  0  0  0
 75 91  1  0  0  0
 76 92  1  0  0  0
 77153  1  0  0  0
 77154  1  0  0  0
 77155  1  0  0  0
 78 90  1  0  0  0
 78156  1  0  0  0
 78157  1  0  0  0
 79 80  1  0  0  0
 79 81  1  0  0  0
 79158  1  0  0  0
 79159  1  0  0  0
 80 82  1  0  0  0
 80160  1  0  0  0
 80161  1  0  0  0
 81 84  1  0  0  0
 81162  1  0  0  0
 81163  1  0  0  0
 82 85  1  0  0  0
 82164  1  0  0  0
 82165  1  0  0  0
 83 86  1  0  0  0
 83 87  1  0  0  0
 83166  1  0  0  0
 83167  1  0  0  0
 84 88  1  0  0  0
 84168  1  0  0  0
 84169  1  0  0  0
 85 89  1  0  0  0
 85170  1  0  0  0
 85171  1  0  0  0
 86 90  1  0  0  0
 86172  1  0  0  0
 86173  1  0  0  0
 87174  1  0  0  0
 87175  1  0  0  0
 88176  1  0  0  0
 89177  1  0  0  0
 90178  1  0  0  0
 90179  1  0  0  0
M  CHG  1  90   1
M  ISO  4   1 100  68 101  87 101  89 100
M  END
> <chiral flag>
0

> <version>
0

> <s_m_source_file>
/data/baiqing/PycharmProjects/Reinvent-master-3.2/result/LINK_invent/BTK/process_docking_weight1_custom_sum_contain_oxygen_bond_distance_aromatic_linkinvent_7_9_3/rearranged_h_0024.sdf

> <i_m_source_file_index>
23

> <r_mmod_Potential_Energy-OPLS-2005>
-212.110748291016

> <r_mmod_Stretch_Energy-OPLS-2005>
35.5885696411133

> <r_mmod_Bend_Energy-OPLS-2005>
104.51000213623

> <r_mmod_Torsional_Energy-OPLS-2005>
244.733413696289

> <r_mmod_Improper_Torsional_Energy-OPLS-2005>
8.2280387878418

> <r_mmod_Van_der_Waal_Energy-OPLS-2005>
141.377426147461

> <r_mmod_Electrostatic_Energy-OPLS-2005>
-252.723846435547

> <r_mmod_Solvation_Energy-OPLS-2005>
-503.207092285156

> <b_mmod_Minimization_Converged-OPLS-2005>
0

> <r_mmod_RMS_Derivative-OPLS-2005>
3.28524923324585

$$$$
23
                    3D
 Structure written by MMmdl.
159167  0  0  1  0            999 V2000
  -30.5443  -14.8645   20.4488 C   0  0  0  0  0  0
  -30.4482  -12.5320   19.4884 C   0  0  0  0  0  0
  -29.5218  -12.5267   18.2496 C   0  0  0  0  0  0
  -28.0499  -12.3287   18.6629 C   0  0  0  0  0  0
  -27.6397  -13.2376   19.8513 C   0  0  2  0  0  0
  -28.6840  -13.1998   20.9882 C   0  0  0  0  0  0
  -25.2463  -13.8166   20.5632 C   0  0  0  0  0  0
  -24.1780  -13.0412   20.9190 C   0  0  0  0  0  0
  -24.6400  -11.6902   20.8754 C   0  0  0  0  0  0
  -23.9080  -10.4281   21.0413 C   0  0  0  0  0  0
  -24.3625   -9.4197   21.9193 C   0  0  0  0  0  0
  -23.6296   -8.2234   22.0757 C   0  0  0  0  0  0
  -22.4279   -8.0277   21.3545 C   0  0  0  0  0  0
  -21.9919   -9.0252   20.4647 C   0  0  0  0  0  0
  -22.7251  -10.2129   20.3061 C   0  0  0  0  0  0
  -21.6852   -6.0736   22.5279 C   0  0  0  0  0  0
  -21.4011   -6.5641   23.8212 C   0  0  0  0  0  0
  -21.3659   -5.6793   24.9175 C   0  0  0  0  0  0
  -21.6044   -4.3055   24.7224 C   0  0  0  0  0  0
  -21.8821   -3.8149   23.4344 C   0  0  0  0  0  0
  -21.9193   -4.6966   22.3402 C   0  0  0  0  0  0
  -22.7804  -13.5197   21.1861 C   0  0  0  0  0  0
  -22.1664   -4.2151   21.0978 F   0  0  0  0  0  0
  -21.5629   -3.4539   25.7737 F   0  0  0  0  0  0
  -29.9746  -13.5998   20.4080 N   0  0  0  0  0  0
  -26.2926  -12.9403   20.3283 N   0  0  0  0  0  0
  -25.9341  -11.6542   20.5776 N   0  0  0  0  0  0
  -22.0464  -12.8190   22.0429 N   0  0  0  0  0  0
  -25.4062  -15.1869   20.3938 N   0  0  0  0  0  0
  -31.7317  -14.9773   20.1333 O   0  0  0  0  0  0
  -21.6640   -6.8878   21.4241 O   0  0  0  0  0  0
  -22.3477  -14.5501   20.6714 O   0  0  0  0  0  0
  -24.6373  -31.8483   23.1912 C   0  0  0  0  0  0
  -25.9163  -32.4721   23.8290 C   0  0  1  0  0  0
  -27.2233  -27.1893   20.1599 C   0  0  0  0  0  0
  -25.5928  -33.8526   24.2211 N   0  0  0  0  0  0
  -23.4392  -30.4670   21.5354 C   0  0  2  0  0  0
  -24.8895  -28.8937   20.1189 C   0  0  0  0  0  0
  -22.7539  -29.4567   22.4883 C   0  0  0  0  0  0
  -18.0301  -28.1402   22.8488 C   0  0  0  0  0  0
  -24.1484  -36.7266   23.2645 C   0  0  0  0  0  0
  -25.9894  -30.7394   21.3812 C   0  0  0  0  0  0
  -26.0631  -29.3513   20.7328 C   0  0  0  0  0  0
  -27.2345  -28.5146   20.7351 C   0  0  0  0  0  0
  -26.0286  -26.8135   19.5139 C   0  0  0  0  0  0
  -24.8801  -27.6346   19.4967 C   0  0  0  0  0  0
  -23.6649  -29.7924   20.1561 C   0  0  0  0  0  0
  -25.4116  -36.3049   24.0323 C   0  0  1  0  0  0
  -20.5909  -28.3715   23.1257 C   0  0  2  0  0  0
  -20.6784  -26.9422   22.5410 C   0  0  0  0  0  0
  -19.5757  -26.6387   21.5219 C   0  0  0  0  0  0
  -18.1941  -26.7944   22.1628 C   0  0  0  0  0  0
  -19.1558  -28.8876   23.2867 C   0  0  0  0  0  0
  -18.9476  -30.1476   23.8889 C   0  0  0  0  0  0
  -17.6474  -30.6601   24.0567 C   0  0  0  0  0  0
  -25.9063  -34.9422   23.5077 C   0  0  0  0  0  0
  -16.5366  -29.9099   23.6335 C   0  0  0  0  0  0
  -16.7286  -28.6516   23.0358 C   0  0  0  0  0  0
  -26.4508  -31.6571   25.0709 C   0  0  0  0  0  0
  -25.3709  -31.3746   26.1415 C   0  0  0  0  0  0
  -27.0366  -30.2978   24.6232 C   0  0  0  0  0  0
  -27.6044  -32.4326   25.7493 C   0  0  0  0  0  0
  -27.5573  -37.1790   24.8468 C   0  0  0  0  0  0
  -21.4236  -29.3050   22.3636 N   0  0  0  0  0  0
  -26.4284  -37.3756   23.9413 N   0  0  0  0  0  0
  -24.7081  -31.0385   22.0918 N   0  0  0  0  0  0
  -23.4204  -28.8121   23.3018 O   0  0  0  0  0  0
  -28.3165  -26.2692   20.1216 O   0  0  0  0  0  0
  -26.5650  -34.8913   22.4655 O   0  0  0  0  0  0
  -23.5504  -32.1335   23.7163 O   0  0  0  0  0  0
  -30.3708  -19.8444   20.0138 C   0  0  0  0  0  0
  -29.2860  -20.5306   20.6583 C   0  0  0  0  0  0
  -28.3697  -19.6040   21.2609 C   0  0  0  0  0  0
  -29.6708  -17.4791   20.6363 C   0  0  0  0  0  0
  -30.5588  -18.4033   19.9811 C   0  0  0  0  0  0
  -28.5714  -18.1628   21.2606 C   0  0  0  0  0  0
  -27.1502  -20.1630   21.9843 C   0  0  0  0  0  0
  -27.1676  -24.7850   21.7975 C   0  0  0  0  0  0
  -29.6245  -25.1838   21.7215 C   0  0  0  0  0  0
  -29.2781  -22.1440   20.9617 C   0  0  0  0  0  0
  -28.6081  -23.4210   20.1300 C   0  0  0  0  0  0
  -28.3821  -24.9150   20.8545 C   0  0  0  0  0  0
  -29.6965  -15.9547   20.7088 N   0  0  0  0  0  0
  -31.9281  -17.8259   19.1038 Cl  0  0  0  0  0  0
  -27.4352  -17.1714   22.1157 Cl  0  0  0  0  0  0
  -31.4822  -12.6915   19.1786 H   0  0  0  0  0  0
  -30.4334  -11.5623   19.9884 H   0  0  0  0  0  0
  -29.8239  -11.7417   17.5549 H   0  0  0  0  0  0
  -29.6267  -13.4693   17.7101 H   0  0  0  0  0  0
  -27.9255  -11.2818   18.9413 H   0  0  0  0  0  0
  -27.3903  -12.4970   17.8106 H   0  0  0  0  0  0
  -27.6221  -14.2539   19.4570 H   0  0  0  0  0  0
  -28.7485  -12.2021   21.4253 H   0  0  0  0  0  0
  -28.3949  -13.8680   21.8009 H   0  0  0  0  0  0
  -25.2769   -9.5675   22.4770 H   0  0  0  0  0  0
  -24.0006   -7.4625   22.7475 H   0  0  0  0  0  0
  -21.0853   -8.8773   19.8949 H   0  0  0  0  0  0
  -22.3713  -10.9671   19.6172 H   0  0  0  0  0  0
  -21.2000   -7.6149   23.9716 H   0  0  0  0  0  0
  -21.1480   -6.0523   25.9077 H   0  0  0  0  0  0
  -22.0600   -2.7611   23.2843 H   0  0  0  0  0  0
  -22.4091  -11.9857   22.4817 H   0  0  0  0  0  0
  -21.1083  -13.1210   22.2644 H   0  0  0  0  0  0
  -24.6429  -15.8378   20.5371 H   0  0  0  0  0  0
  -26.2653  -15.6434   20.1194 H   0  0  0  0  0  0
  -26.7229  -32.5353   23.1028 H   0  0  0  0  0  0
  -25.0049  -33.9646   25.0340 H   0  0  0  0  0  0
  -22.7394  -31.2914   21.3813 H   0  0  0  0  0  0
  -23.3749  -35.9596   23.3301 H   0  0  0  0  0  0
  -24.3572  -36.8896   22.2061 H   0  0  0  0  0  0
  -23.7234  -37.6461   23.6678 H   0  0  0  0  0  0
  -26.1332  -31.4911   20.6038 H   0  0  0  0  0  0
  -26.8648  -30.7962   22.0163 H   0  0  0  0  0  0
  -28.1381  -28.8663   21.2129 H   0  0  0  0  0  0
  -25.9785  -25.8475   19.0316 H   0  0  0  0  0  0
  -23.9834  -27.2796   19.0075 H   0  0  0  0  0  0
  -23.8024  -30.5645   19.3982 H   0  0  0  0  0  0
  -22.7809  -29.2330   19.8451 H   0  0  0  0  0  0
  -25.1301  -36.1881   25.0816 H   0  0  0  0  0  0
  -21.0004  -28.3294   24.1376 H   0  0  0  0  0  0
  -20.5678  -26.2326   23.3622 H   0  0  0  0  0  0
  -21.6653  -26.7440   22.1208 H   0  0  0  0  0  0
  -19.6914  -25.6293   21.1258 H   0  0  0  0  0  0
  -19.6693  -27.3193   20.6744 H   0  0  0  0  0  0
  -17.4208  -26.6695   21.4031 H   0  0  0  0  0  0
  -18.0335  -26.0094   22.9028 H   0  0  0  0  0  0
  -19.7952  -30.7299   24.2244 H   0  0  0  0  0  0
  -17.5031  -31.6277   24.5177 H   0  0  0  0  0  0
  -15.5367  -30.3002   23.7667 H   0  0  0  0  0  0
  -15.8685  -28.0836   22.7076 H   0  0  0  0  0  0
  -24.5890  -30.7090   25.7741 H   0  0  0  0  0  0
  -24.8898  -32.2926   26.4798 H   0  0  0  0  0  0
  -25.8005  -30.8952   27.0218 H   0  0  0  0  0  0
  -26.2969  -29.6714   24.1235 H   0  0  0  0  0  0
  -27.4011  -29.7254   25.4769 H   0  0  0  0  0  0
  -27.8855  -30.4242   23.9514 H   0  0  0  0  0  0
  -27.2639  -33.3638   26.2032 H   0  0  0  0  0  0
  -28.3877  -32.6863   25.0339 H   0  0  0  0  0  0
  -28.0683  -31.8476   26.5442 H   0  0  0  0  0  0
  -28.2591  -38.0089   24.7513 H   0  0  0  0  0  0
  -28.1070  -36.2615   24.6295 H   0  0  0  0  0  0
  -27.2294  -37.1442   25.8874 H   0  0  0  0  0  0
  -20.9433  -29.8767   21.6828 H   0  0  0  0  0  0
  -26.0151  -38.2823   24.1420 H   0  0  0  0  0  0
  -31.1349  -20.4504   19.5479 H   0  0  0  0  0  0
  -27.3119  -20.1543   23.0624 H   0  0  0  0  0  0
  -26.2587  -19.5747   21.7666 H   0  0  0  0  0  0
  -26.9164  -21.1827   21.6802 H   0  0  0  0  0  0
  -27.2766  -23.9339   22.4697 H   0  0  0  0  0  0
  -26.2444  -24.6315   21.2399 H   0  0  0  0  0  0
  -27.0379  -25.6688   22.4229 H   0  0  0  0  0  0
  -29.7874  -24.4041   22.4648 H   0  0  0  0  0  0
  -29.5348  -26.1249   22.2654 H   0  0  0  0  0  0
  -30.5231  -25.2461   21.1064 H   0  0  0  0  0  0
  -30.3342  -22.3966   21.0629 H   0  0  0  0  0  0
  -28.9148  -22.2288   21.9847 H   0  0  0  0  0  0
  -27.6376  -23.0961   19.7541 H   0  0  0  0  0  0
  -29.2130  -23.5698   19.2356 H   0  0  0  0  0  0
  -28.8082  -15.6110   21.0409 H   0  0  0  0  0  0
  1 25  1  0  0  0
  1 30  2  0  0  0
  1 83  1  0  0  0
  2  3  1  0  0  0
  2 25  1  0  0  0
  2 86  1  0  0  0
  2 87  1  0  0  0
  3  4  1  0  0  0
  3 88  1  0  0  0
  3 89  1  0  0  0
  4  5  1  0  0  0
  4 90  1  0  0  0
  4 91  1  0  0  0
  5  6  1  0  0  0
  5 26  1  0  0  0
  5 92  1  0  0  0
  6 25  1  0  0  0
  6 93  1  0  0  0
  6 94  1  0  0  0
  7  8  2  0  0  0
  7 26  1  0  0  0
  7 29  1  0  0  0
  8  9  1  0  0  0
  8 22  1  0  0  0
  9 10  1  0  0  0
  9 27  2  0  0  0
 10 11  2  0  0  0
 10 15  1  0  0  0
 11 12  1  0  0  0
 11 95  1  0  0  0
 12 13  2  0  0  0
 12 96  1  0  0  0
 13 14  1  0  0  0
 13 31  1  0  0  0
 14 15  2  0  0  0
 14 97  1  0  0  0
 15 98  1  0  0  0
 16 17  2  0  0  0
 16 21  1  0  0  0
 16 31  1  0  0  0
 17 18  1  0  0  0
 17 99  1  0  0  0
 18 19  2  0  0  0
 18100  1  0  0  0
 19 20  1  0  0  0
 19 24  1  0  0  0
 20 21  2  0  0  0
 20101  1  0  0  0
 21 23  1  0  0  0
 22 28  1  0  0  0
 22 32  2  0  0  0
 26 27  1  0  0  0
 28102  1  0  0  0
 28103  1  0  0  0
 29104  1  0  0  0
 29105  1  0  0  0
 33 34  1  0  0  0
 33 66  1  0  0  0
 33 70  2  0  0  0
 34 36  1  0  0  0
 34 59  1  0  0  0
 34106  1  0  0  0
 35 44  2  0  0  0
 35 45  1  0  0  0
 35 68  1  0  0  0
 36 56  1  0  0  0
 36107  1  0  0  0
 37 39  1  0  0  0
 37 47  1  0  0  0
 37 66  1  0  0  0
 37108  1  0  0  0
 38 43  2  0  0  0
 38 46  1  0  0  0
 38 47  1  0  0  0
 39 64  1  0  0  0
 39 67  2  0  0  0
 40 52  1  0  0  0
 40 53  2  0  0  0
 40 58  1  0  0  0
 41109  1  0  0  0
 41110  1  0  0  0
 41111  1  0  0  0
 41 48  1  0  0  0
 42 43  1  0  0  0
 42 66  1  0  0  0
 42112  1  0  0  0
 42113  1  0  0  0
 43 44  1  0  0  0
 44114  1  0  0  0
 45 46  2  0  0  0
 45115  1  0  0  0
 46116  1  0  0  0
 47117  1  0  0  0
 47118  1  0  0  0
 48 56  1  0  0  0
 48 65  1  0  0  0
 48119  1  0  0  0
 49 50  1  0  0  0
 49 53  1  0  0  0
 49 64  1  0  0  0
 49120  1  0  0  0
 50 51  1  0  0  0
 50121  1  0  0  0
 50122  1  0  0  0
 51 52  1  0  0  0
 51123  1  0  0  0
 51124  1  0  0  0
 52125  1  0  0  0
 52126  1  0  0  0
 53 54  1  0  0  0
 54 55  2  0  0  0
 54127  1  0  0  0
 55 57  1  0  0  0
 55128  1  0  0  0
 56 69  2  0  0  0
 57 58  2  0  0  0
 57129  1  0  0  0
 58130  1  0  0  0
 59 60  1  0  0  0
 59 61  1  0  0  0
 59 62  1  0  0  0
 60131  1  0  0  0
 60132  1  0  0  0
 60133  1  0  0  0
 61134  1  0  0  0
 61135  1  0  0  0
 61136  1  0  0  0
 62137  1  0  0  0
 62138  1  0  0  0
 62139  1  0  0  0
 63 65  1  0  0  0
 63140  1  0  0  0
 63141  1  0  0  0
 63142  1  0  0  0
 64143  1  0  0  0
 65144  1  0  0  0
 68 82  1  0  0  0
 71 72  2  0  0  0
 71 75  1  0  0  0
 71145  1  0  0  0
 72 73  1  0  0  0
 72 80  1  0  0  0
 73 76  2  0  0  0
 73 77  1  0  0  0
 74 75  2  0  0  0
 74 76  1  0  0  0
 74 83  1  0  0  0
 75 84  1  0  0  0
 76 85  1  0  0  0
 77146  1  0  0  0
 77147  1  0  0  0
 77148  1  0  0  0
 78149  1  0  0  0
 78150  1  0  0  0
 78151  1  0  0  0
 78 82  1  0  0  0
 79 82  1  0  0  0
 79152  1  0  0  0
 79153  1  0  0  0
 79154  1  0  0  0
 80 81  1  0  0  0
 80155  1  0  0  0
 80156  1  0  0  0
 81 82  1  0  0  0
 81157  1  0  0  0
 81158  1  0  0  0
 83159  1  0  0  0
M  ISO  4   1 100  68 101  82 101  83 100
M  END
> <chiral flag>
0

> <version>
0

> <s_m_source_file>
/data/baiqing/PycharmProjects/Reinvent-master-3.2/result/LINK_invent/BTK/process_docking_weight1_custom_sum_contain_oxygen_bond_distance_aromatic_linkinvent_7_9_3/rearranged_h_0024.sdf

> <i_m_source_file_index>
24

> <r_mmod_Potential_Energy-OPLS-2005>
356.173675537109

> <r_mmod_Stretch_Energy-OPLS-2005>
198.883422851562

> <r_mmod_Bend_Energy-OPLS-2005>
268.606262207031

> <r_mmod_Torsional_Energy-OPLS-2005>
252.334991455078

> <r_mmod_Improper_Torsional_Energy-OPLS-2005>
5.44095039367676

> <r_mmod_Van_der_Waal_Energy-OPLS-2005>
133.198120117188

> <r_mmod_Electrostatic_Energy-OPLS-2005>
-440.820465087891

> <r_mmod_Solvation_Energy-OPLS-2005>
-197.325485229492

> <b_mmod_Minimization_Converged-OPLS-2005>
0

> <r_mmod_RMS_Derivative-OPLS-2005>
0.73295783996582

$$$$
24
                    3D
 Structure written by MMmdl.
153161  0  0  1  0            999 V2000
  -30.5586  -14.9527   20.3706 C   0  0  0  0  0  0
  -30.4267  -12.5816   19.4986 C   0  0  0  0  0  0
  -29.5202  -12.5283   18.2489 C   0  0  0  0  0  0
  -28.0524  -12.3133   18.6618 C   0  0  0  0  0  0
  -27.6240  -13.2497   19.8230 C   0  0  2  0  0  0
  -28.6648  -13.3061   20.9604 C   0  0  0  0  0  0
  -25.2464  -13.8195   20.5682 C   0  0  0  0  0  0
  -24.1786  -13.0427   20.9195 C   0  0  0  0  0  0
  -24.6396  -11.6908   20.8708 C   0  0  0  0  0  0
  -23.9077  -10.4278   21.0371 C   0  0  0  0  0  0
  -24.3633   -9.4207   21.9158 C   0  0  0  0  0  0
  -23.6315   -8.2243   22.0745 C   0  0  0  0  0  0
  -22.4293   -8.0270   21.3544 C   0  0  0  0  0  0
  -21.9921   -9.0227   20.4631 C   0  0  0  0  0  0
  -22.7243  -10.2109   20.3033 C   0  0  0  0  0  0
  -21.6866   -6.0739   22.5280 C   0  0  0  0  0  0
  -21.4015   -6.5646   23.8209 C   0  0  0  0  0  0
  -21.3668   -5.6799   24.9175 C   0  0  0  0  0  0
  -21.6052   -4.3061   24.7219 C   0  0  0  0  0  0
  -21.8823   -3.8155   23.4337 C   0  0  0  0  0  0
  -21.9191   -4.6967   22.3398 C   0  0  0  0  0  0
  -22.7804  -13.5184   21.1856 C   0  0  0  0  0  0
  -22.1670   -4.2163   21.0978 F   0  0  0  0  0  0
  -21.5624   -3.4545   25.7733 F   0  0  0  0  0  0
  -29.9415  -13.7023   20.3540 N   0  0  0  0  0  0
  -26.2872  -12.9428   20.3161 N   0  0  0  0  0  0
  -25.9329  -11.6552   20.5674 N   0  0  0  0  0  0
  -22.0488  -12.8172   22.0419 N   0  0  0  0  0  0
  -25.4123  -15.1927   20.4131 N   0  0  0  0  0  0
  -31.7815  -14.9538   20.2122 O   0  0  0  0  0  0
  -21.6659   -6.8877   21.4242 O   0  0  0  0  0  0
  -22.3478  -14.5485   20.6690 O   0  0  0  0  0  0
  -24.6457  -31.8420   23.1855 C   0  0  0  0  0  0
  -25.9219  -32.4679   23.8266 C   0  0  1  0  0  0
  -27.2116  -27.1178   20.1532 C   0  0  0  0  0  0
  -25.5970  -33.8493   24.2168 N   0  0  0  0  0  0
  -23.4494  -30.4631   21.5307 C   0  0  2  0  0  0
  -24.8978  -28.8869   20.1123 C   0  0  0  0  0  0
  -22.7590  -29.4521   22.4818 C   0  0  0  0  0  0
  -18.0308  -28.1388   22.8458 C   0  0  0  0  0  0
  -24.1498  -36.7245   23.2644 C   0  0  0  0  0  0
  -26.0093  -30.7089   21.3887 C   0  0  0  0  0  0
  -26.0773  -29.3189   20.7309 C   0  0  0  0  0  0
  -27.2363  -28.4524   20.7315 C   0  0  0  0  0  0
  -26.0084  -26.7966   19.4877 C   0  0  0  0  0  0
  -24.8779  -27.6392   19.4739 C   0  0  0  0  0  0
  -23.6774  -29.7933   20.1512 C   0  0  0  0  0  0
  -25.4124  -36.3014   24.0307 C   0  0  1  0  0  0
  -20.5925  -28.3706   23.1217 C   0  0  2  0  0  0
  -20.6781  -26.9408   22.5383 C   0  0  0  0  0  0
  -19.5754  -26.6369   21.5200 C   0  0  0  0  0  0
  -18.1935  -26.7928   22.1611 C   0  0  0  0  0  0
  -19.1567  -28.8870   23.2820 C   0  0  0  0  0  0
  -18.9489  -30.1465   23.8844 C   0  0  0  0  0  0
  -17.6487  -30.6580   24.0560 C   0  0  0  0  0  0
  -25.9090  -34.9400   23.5044 C   0  0  0  0  0  0
  -16.5373  -29.9072   23.6341 C   0  0  0  0  0  0
  -16.7291  -28.6497   23.0351 C   0  0  0  0  0  0
  -26.4530  -31.6569   25.0730 C   0  0  0  0  0  0
  -25.3700  -31.3763   26.1414 C   0  0  0  0  0  0
  -27.0391  -30.2959   24.6327 C   0  0  0  0  0  0
  -27.6053  -32.4352   25.7507 C   0  0  0  0  0  0
  -27.5568  -37.1767   24.8467 C   0  0  0  0  0  0
  -21.4279  -29.3043   22.3594 N   0  0  0  0  0  0
  -26.4274  -37.3741   23.9421 N   0  0  0  0  0  0
  -24.7215  -31.0267   22.0891 N   0  0  0  0  0  0
  -23.4244  -28.8076   23.2962 O   0  0  0  0  0  0
  -28.2558  -26.1159   20.2072 O   0  0  0  0  0  0
  -26.5670  -34.8900   22.4621 O   0  0  0  0  0  0
  -23.5564  -32.1317   23.7041 O   0  0  0  0  0  0
  -31.2862  -19.2415   18.5313 C   0  0  0  0  0  0
  -29.5705  -20.2736   19.9685 C   0  0  0  0  0  0
  -30.0645  -17.6309   19.9592 C   0  0  0  0  0  0
  -30.6334  -20.3803   19.0353 C   0  0  0  0  0  0
  -30.9935  -17.9176   18.9150 C   0  0  0  0  0  0
  -29.3431  -18.8599   20.4230 C   0  0  0  0  0  0
  -27.3320  -24.3951   21.7434 C   0  0  0  0  0  0
  -28.6866  -21.6286   20.3847 C   0  0  0  0  0  0
  -28.9966  -23.2798   20.0798 C   0  0  0  0  0  0
  -27.9494  -24.5808   20.3494 C   0  0  2  0  0  0
  -29.8039  -16.1662   20.3993 N   0  0  0  0  0  0
  -31.1914  -21.8849   18.3972 Cl  0  0  0  0  0  0
  -31.7550  -16.7091   17.9381 Cl  0  0  0  0  0  0
  -28.0972  -18.6078   21.5901 Cl  0  0  0  0  0  0
  -31.4677  -12.7116   19.2015 H   0  0  0  0  0  0
  -30.3857  -11.6372   20.0442 H   0  0  0  0  0  0
  -29.8425  -11.7313   17.5773 H   0  0  0  0  0  0
  -29.6140  -13.4608   17.6890 H   0  0  0  0  0  0
  -27.9524  -11.2708   18.9684 H   0  0  0  0  0  0
  -27.3938  -12.4456   17.8031 H   0  0  0  0  0  0
  -27.5765  -14.2471   19.3830 H   0  0  0  0  0  0
  -28.7487  -12.3422   21.4650 H   0  0  0  0  0  0
  -28.3619  -14.0329   21.7173 H   0  0  0  0  0  0
  -25.2783   -9.5701   22.4722 H   0  0  0  0  0  0
  -24.0044   -7.4635   22.7459 H   0  0  0  0  0  0
  -21.0861   -8.8712   19.8926 H   0  0  0  0  0  0
  -22.3683  -10.9633   19.6133 H   0  0  0  0  0  0
  -21.2018   -7.6155   23.9717 H   0  0  0  0  0  0
  -21.1492   -6.0534   25.9081 H   0  0  0  0  0  0
  -22.0592   -2.7619   23.2834 H   0  0  0  0  0  0
  -22.4184  -11.9872   22.4832 H   0  0  0  0  0  0
  -21.1065  -13.1117   22.2580 H   0  0  0  0  0  0
  -24.6391  -15.8385   20.5248 H   0  0  0  0  0  0
  -26.2568  -15.6396   20.0844 H   0  0  0  0  0  0
  -26.7288  -32.5257   23.0998 H   0  0  0  0  0  0
  -25.0154  -33.9622   25.0339 H   0  0  0  0  0  0
  -22.7502  -31.2868   21.3727 H   0  0  0  0  0  0
  -23.3768  -35.9572   23.3288 H   0  0  0  0  0  0
  -24.3592  -36.8911   22.2072 H   0  0  0  0  0  0
  -23.7256  -37.6431   23.6703 H   0  0  0  0  0  0
  -26.1748  -31.4582   20.6132 H   0  0  0  0  0  0
  -26.8777  -30.7552   22.0337 H   0  0  0  0  0  0
  -28.1351  -28.7790   21.2348 H   0  0  0  0  0  0
  -25.9008  -25.8559   18.9733 H   0  0  0  0  0  0
  -23.9809  -27.3050   18.9692 H   0  0  0  0  0  0
  -23.8239  -30.5672   19.3973 H   0  0  0  0  0  0
  -22.7922  -29.2408   19.8326 H   0  0  0  0  0  0
  -25.1312  -36.1827   25.0792 H   0  0  0  0  0  0
  -21.0007  -28.3287   24.1345 H   0  0  0  0  0  0
  -20.5659  -26.2322   23.3596 H   0  0  0  0  0  0
  -21.6639  -26.7394   22.1180 H   0  0  0  0  0  0
  -19.6910  -25.6276   21.1237 H   0  0  0  0  0  0
  -19.6694  -27.3159   20.6718 H   0  0  0  0  0  0
  -17.4196  -26.6679   21.4011 H   0  0  0  0  0  0
  -18.0320  -26.0072   22.9012 H   0  0  0  0  0  0
  -19.7969  -30.7296   24.2174 H   0  0  0  0  0  0
  -17.5046  -31.6255   24.5179 H   0  0  0  0  0  0
  -15.5364  -30.2972   23.7693 H   0  0  0  0  0  0
  -15.8690  -28.0813   22.7087 H   0  0  0  0  0  0
  -24.5877  -30.7116   25.7730 H   0  0  0  0  0  0
  -24.8885  -32.2947   26.4785 H   0  0  0  0  0  0
  -25.7963  -30.8970   27.0231 H   0  0  0  0  0  0
  -26.2992  -29.6665   24.1360 H   0  0  0  0  0  0
  -27.4048  -29.7279   25.4894 H   0  0  0  0  0  0
  -27.8894  -30.4207   23.9612 H   0  0  0  0  0  0
  -27.2650  -33.3693   26.1978 H   0  0  0  0  0  0
  -28.3901  -32.6852   25.0356 H   0  0  0  0  0  0
  -28.0675  -31.8558   26.5509 H   0  0  0  0  0  0
  -28.2549  -38.0097   24.7522 H   0  0  0  0  0  0
  -28.1091  -36.2619   24.6261 H   0  0  0  0  0  0
  -27.2286  -37.1382   25.8870 H   0  0  0  0  0  0
  -20.9483  -29.8838   21.6844 H   0  0  0  0  0  0
  -26.0126  -38.2788   24.1470 H   0  0  0  0  0  0
  -32.0292  -19.3916   17.7620 H   0  0  0  0  0  0
  -26.5528  -25.1291   21.9496 H   0  0  0  0  0  0
  -28.0865  -24.4737   22.5252 H   0  0  0  0  0  0
  -26.8704  -23.4107   21.8350 H   0  0  0  0  0  0
  -28.5387  -21.5462   21.4621 H   0  0  0  0  0  0
  -27.7017  -21.4380   19.9582 H   0  0  0  0  0  0
  -29.2048  -23.3677   19.0169 H   0  0  0  0  0  0
  -29.9337  -23.5184   20.5816 H   0  0  0  0  0  0
  -27.1559  -24.3741   19.6374 H   0  0  0  0  0  0
  -28.8577  -16.0170   20.7110 H   0  0  0  0  0  0
  1 25  1  0  0  0
  1 30  2  0  0  0
  1 81  1  0  0  0
  2  3  1  0  0  0
  2 25  1  0  0  0
  2 85  1  0  0  0
  2 86  1  0  0  0
  3  4  1  0  0  0
  3 87  1  0  0  0
  3 88  1  0  0  0
  4  5  1  0  0  0
  4 89  1  0  0  0
  4 90  1  0  0  0
  5  6  1  0  0  0
  5 26  1  0  0  0
  5 91  1  0  0  0
  6 25  1  0  0  0
  6 92  1  0  0  0
  6 93  1  0  0  0
  7  8  2  0  0  0
  7 26  1  0  0  0
  7 29  1  0  0  0
  8  9  1  0  0  0
  8 22  1  0  0  0
  9 10  1  0  0  0
  9 27  2  0  0  0
 10 11  2  0  0  0
 10 15  1  0  0  0
 11 12  1  0  0  0
 11 94  1  0  0  0
 12 13  2  0  0  0
 12 95  1  0  0  0
 13 14  1  0  0  0
 13 31  1  0  0  0
 14 15  2  0  0  0
 14 96  1  0  0  0
 15 97  1  0  0  0
 16 17  2  0  0  0
 16 21  1  0  0  0
 16 31  1  0  0  0
 17 18  1  0  0  0
 17 98  1  0  0  0
 18 19  2  0  0  0
 18 99  1  0  0  0
 19 20  1  0  0  0
 19 24  1  0  0  0
 20 21  2  0  0  0
 20100  1  0  0  0
 21 23  1  0  0  0
 22 28  1  0  0  0
 22 32  2  0  0  0
 26 27  1  0  0  0
 28101  1  0  0  0
 28102  1  0  0  0
 29103  1  0  0  0
 29104  1  0  0  0
 33 34  1  0  0  0
 33 66  1  0  0  0
 33 70  2  0  0  0
 34 36  1  0  0  0
 34 59  1  0  0  0
 34105  1  0  0  0
 35 44  2  0  0  0
 35 45  1  0  0  0
 35 68  1  0  0  0
 36 56  1  0  0  0
 36106  1  0  0  0
 37 39  1  0  0  0
 37 47  1  0  0  0
 37 66  1  0  0  0
 37107  1  0  0  0
 38 43  2  0  0  0
 38 46  1  0  0  0
 38 47  1  0  0  0
 39 64  1  0  0  0
 39 67  2  0  0  0
 40 52  1  0  0  0
 40 53  2  0  0  0
 40 58  1  0  0  0
 41108  1  0  0  0
 41109  1  0  0  0
 41110  1  0  0  0
 41 48  1  0  0  0
 42 43  1  0  0  0
 42 66  1  0  0  0
 42111  1  0  0  0
 42112  1  0  0  0
 43 44  1  0  0  0
 44113  1  0  0  0
 45 46  2  0  0  0
 45114  1  0  0  0
 46115  1  0  0  0
 47116  1  0  0  0
 47117  1  0  0  0
 48 56  1  0  0  0
 48 65  1  0  0  0
 48118  1  0  0  0
 49 50  1  0  0  0
 49 53  1  0  0  0
 49 64  1  0  0  0
 49119  1  0  0  0
 50 51  1  0  0  0
 50120  1  0  0  0
 50121  1  0  0  0
 51 52  1  0  0  0
 51122  1  0  0  0
 51123  1  0  0  0
 52124  1  0  0  0
 52125  1  0  0  0
 53 54  1  0  0  0
 54 55  2  0  0  0
 54126  1  0  0  0
 55 57  1  0  0  0
 55127  1  0  0  0
 56 69  2  0  0  0
 57 58  2  0  0  0
 57128  1  0  0  0
 58129  1  0  0  0
 59 60  1  0  0  0
 59 61  1  0  0  0
 59 62  1  0  0  0
 60130  1  0  0  0
 60131  1  0  0  0
 60132  1  0  0  0
 61133  1  0  0  0
 61134  1  0  0  0
 61135  1  0  0  0
 62136  1  0  0  0
 62137  1  0  0  0
 62138  1  0  0  0
 63 65  1  0  0  0
 63139  1  0  0  0
 63140  1  0  0  0
 63141  1  0  0  0
 64142  1  0  0  0
 65143  1  0  0  0
 68 80  1  0  0  0
 71 74  2  0  0  0
 71 75  1  0  0  0
 71144  1  0  0  0
 72 74  1  0  0  0
 72 76  2  0  0  0
 72 78  1  0  0  0
 73 75  2  0  0  0
 73 76  1  0  0  0
 73 81  1  0  0  0
 74 82  1  0  0  0
 75 83  1  0  0  0
 76 84  1  0  0  0
 77145  1  0  0  0
 77146  1  0  0  0
 77147  1  0  0  0
 77 80  1  0  0  0
 78 79  1  0  0  0
 78148  1  0  0  0
 78149  1  0  0  0
 79 80  1  0  0  0
 79150  1  0  0  0
 79151  1  0  0  0
 80152  1  0  0  0
 81153  1  0  0  0
M  ISO  4   1 100  68 101  80 101  81 100
M  END
> <chiral flag>
0

> <version>
0

> <s_m_source_file>
/data/baiqing/PycharmProjects/Reinvent-master-3.2/result/LINK_invent/BTK/process_docking_weight1_custom_sum_contain_oxygen_bond_distance_aromatic_linkinvent_7_9_3/rearranged_h_0024.sdf

> <i_m_source_file_index>
25

> <r_mmod_Potential_Energy-OPLS-2005>
495.656585693359

> <r_mmod_Stretch_Energy-OPLS-2005>
291.584289550781

> <r_mmod_Bend_Energy-OPLS-2005>
264.044372558594

> <r_mmod_Torsional_Energy-OPLS-2005>
238.663040161133

> <r_mmod_Improper_Torsional_Energy-OPLS-2005>
4.12243604660034

> <r_mmod_Van_der_Waal_Energy-OPLS-2005>
141.487335205078

> <r_mmod_Electrostatic_Energy-OPLS-2005>
-440.535552978516

> <r_mmod_Solvation_Energy-OPLS-2005>
-208.429870605469

> <b_mmod_Minimization_Converged-OPLS-2005>
0

> <r_mmod_RMS_Derivative-OPLS-2005>
2.72506546974182

$$$$
25
                    3D
 Structure written by MMmdl.
170178  0  0  1  0            999 V2000
  -30.7105  -14.3796   20.6573 C   0  0  0  0  0  0
  -30.4409  -12.2811   19.3877 C   0  0  0  0  0  0
  -29.4921  -12.5019   18.1908 C   0  0  0  0  0  0
  -28.0147  -12.3636   18.6093 C   0  0  0  0  0  0
  -27.6762  -13.1800   19.8829 C   0  0  2  0  0  0
  -28.7145  -12.8830   20.9875 C   0  0  0  0  0  0
  -25.2695  -13.8111   20.5658 C   0  0  0  0  0  0
  -24.1884  -13.0436   20.9131 C   0  0  0  0  0  0
  -24.6398  -11.6894   20.8711 C   0  0  0  0  0  0
  -23.9058  -10.4298   21.0394 C   0  0  0  0  0  0
  -24.3620   -9.4227   21.9178 C   0  0  0  0  0  0
  -23.6300   -8.2264   22.0757 C   0  0  0  0  0  0
  -22.4285   -8.0290   21.3545 C   0  0  0  0  0  0
  -21.9911   -9.0260   20.4644 C   0  0  0  0  0  0
  -22.7231  -10.2144   20.3045 C   0  0  0  0  0  0
  -21.6871   -6.0744   22.5272 C   0  0  0  0  0  0
  -21.4032   -6.5650   23.8206 C   0  0  0  0  0  0
  -21.3640   -5.6791   24.9163 C   0  0  0  0  0  0
  -21.6038   -4.3055   24.7208 C   0  0  0  0  0  0
  -21.8822   -3.8153   23.4328 C   0  0  0  0  0  0
  -21.9203   -4.6972   22.3389 C   0  0  0  0  0  0
  -22.7917  -13.5288   21.1779 C   0  0  0  0  0  0
  -22.1662   -4.2155   21.0966 F   0  0  0  0  0  0
  -21.5620   -3.4537   25.7721 F   0  0  0  0  0  0
  -30.0544  -13.2099   20.4547 N   0  0  0  0  0  0
  -26.3100  -12.9217   20.3386 N   0  0  0  0  0  0
  -25.9309  -11.6404   20.5741 N   0  0  0  0  0  0
  -22.0564  -12.8275   22.0330 N   0  0  0  0  0  0
  -25.4480  -15.1820   20.4089 N   0  0  0  0  0  0
  -31.7601  -14.6951   20.0867 O   0  0  0  0  0  0
  -21.6658   -6.8878   21.4235 O   0  0  0  0  0  0
  -22.3604  -14.5586   20.6622 O   0  0  0  0  0  0
  -24.6093  -31.8697   23.2103 C   0  0  0  0  0  0
  -25.9011  -32.4819   23.8379 C   0  0  1  0  0  0
  -27.2487  -27.4730   20.0776 C   0  0  0  0  0  0
  -25.5892  -33.8622   24.2325 N   0  0  0  0  0  0
  -23.3936  -30.4921   21.5499 C   0  0  2  0  0  0
  -24.8400  -28.9536   20.1183 C   0  0  0  0  0  0
  -22.7371  -29.4670   22.4994 C   0  0  0  0  0  0
  -18.0271  -28.1366   22.8491 C   0  0  0  0  0  0
  -24.1490  -36.7318   23.2635 C   0  0  0  0  0  0
  -25.9163  -30.8426   21.3573 C   0  0  0  0  0  0
  -25.9941  -29.4769   20.7108 C   0  0  0  0  0  0
  -27.1936  -28.7395   20.6931 C   0  0  0  0  0  0
  -26.0724  -26.9458   19.4931 C   0  0  0  0  0  0
  -24.8717  -27.6841   19.5115 C   0  0  0  0  0  0
  -23.6013  -29.8188   20.1647 C   0  0  0  0  0  0
  -25.4103  -36.3103   24.0333 C   0  0  1  0  0  0
  -20.5855  -28.3656   23.1331 C   0  0  2  0  0  0
  -20.6773  -26.9395   22.5420 C   0  0  0  0  0  0
  -19.5754  -26.6376   21.5215 C   0  0  0  0  0  0
  -18.1928  -26.7911   22.1622 C   0  0  0  0  0  0
  -19.1514  -28.8827   23.2911 C   0  0  0  0  0  0
  -18.9448  -30.1432   23.8920 C   0  0  0  0  0  0
  -17.6451  -30.6575   24.0571 C   0  0  0  0  0  0
  -25.9031  -34.9470   23.5123 C   0  0  0  0  0  0
  -16.5345  -29.9081   23.6321 C   0  0  0  0  0  0
  -16.7261  -28.6496   23.0338 C   0  0  0  0  0  0
  -26.4463  -31.6577   25.0688 C   0  0  0  0  0  0
  -25.3757  -31.3678   26.1462 C   0  0  0  0  0  0
  -27.0286  -30.3024   24.6020 C   0  0  0  0  0  0
  -27.6042  -32.4287   25.7452 C   0  0  0  0  0  0
  -27.5575  -37.1806   24.8461 C   0  0  0  0  0  0
  -21.4104  -29.3025   22.3740 N   0  0  0  0  0  0
  -26.4289  -37.3787   23.9410 N   0  0  0  0  0  0
  -24.6578  -31.0832   22.0983 N   0  0  0  0  0  0
  -23.4157  -28.8219   23.3032 O   0  0  0  0  0  0
  -28.4784  -26.8563   20.0552 O   0  0  0  0  0  0
  -26.5586  -34.8922   22.4681 O   0  0  0  0  0  0
  -23.5304  -32.1445   23.7528 O   0  0  0  0  0  0
  -25.8270  -21.8881   20.6760 C   0  0  0  0  0  0
  -25.9884  -20.6743   21.2986 C   0  0  0  0  0  0
  -23.8726  -21.0879   21.2649 C   0  0  0  0  0  0
  -22.3926  -20.9819   21.4627 C   0  0  0  0  0  0
  -23.7839  -23.2909   20.0815 C   0  0  0  0  0  0
  -26.8717  -22.8214   20.1400 C   0  0  0  0  0  0
  -27.2440  -23.9307   21.1409 C   0  0  0  0  0  0
  -28.7060  -18.4081   22.6836 C   0  0  0  0  0  0
  -28.9791  -17.3824   21.5709 C   0  0  0  0  0  0
  -28.6084  -24.5751   20.8522 C   0  0  0  0  0  0
  -27.2991  -19.0235   22.6102 C   0  0  0  0  0  0
  -30.2970  -16.6052   21.7774 C   0  0  0  0  0  0
  -28.6462  -25.5094   19.6328 C   0  0  0  0  0  0
  -24.7483  -20.1733   21.6729 N   0  0  0  0  0  0
  -24.4557  -22.1374   20.6526 N   0  0  0  0  0  0
  -27.1957  -20.0159   21.5546 N   0  0  0  0  0  0
  -30.0712  -15.1955   21.5006 N   0  0  0  0  0  0
  -31.4797  -12.4143   19.0788 H   0  0  0  0  0  0
  -30.3733  -11.2536   19.7510 H   0  0  0  0  0  0
  -29.7252  -11.7876   17.4006 H   0  0  0  0  0  0
  -29.6570  -13.4921   17.7645 H   0  0  0  0  0  0
  -27.8175  -11.3049   18.7863 H   0  0  0  0  0  0
  -27.3612  -12.6574   17.7869 H   0  0  0  0  0  0
  -27.7507  -14.2366   19.6274 H   0  0  0  0  0  0
  -28.6893  -11.8248   21.2527 H   0  0  0  0  0  0
  -28.4541  -13.4018   21.9101 H   0  0  0  0  0  0
  -25.2775   -9.5723   22.4742 H   0  0  0  0  0  0
  -24.0014   -7.4673   22.7489 H   0  0  0  0  0  0
  -21.0839   -8.8781   19.8949 H   0  0  0  0  0  0
  -22.3693  -10.9685   19.6150 H   0  0  0  0  0  0
  -21.2040   -7.6159   23.9710 H   0  0  0  0  0  0
  -21.1456   -6.0520   25.9064 H   0  0  0  0  0  0
  -22.0622   -2.7617   23.2823 H   0  0  0  0  0  0
  -22.4210  -11.9944   22.4700 H   0  0  0  0  0  0
  -21.1182  -13.1284   22.2541 H   0  0  0  0  0  0
  -24.6943  -15.8464   20.5477 H   0  0  0  0  0  0
  -26.3072  -15.6210   20.1031 H   0  0  0  0  0  0
  -26.7067  -32.5554   23.1139 H   0  0  0  0  0  0
  -25.0086  -33.9800   25.0495 H   0  0  0  0  0  0
  -22.6804  -31.3075   21.4094 H   0  0  0  0  0  0
  -23.3740  -35.9663   23.3302 H   0  0  0  0  0  0
  -24.3592  -36.8935   22.2047 H   0  0  0  0  0  0
  -23.7250  -37.6531   23.6646 H   0  0  0  0  0  0
  -26.0182  -31.6058   20.5848 H   0  0  0  0  0  0
  -26.8088  -30.9026   21.9686 H   0  0  0  0  0  0
  -28.0893  -29.1490   21.1404 H   0  0  0  0  0  0
  -26.0595  -25.9841   19.0036 H   0  0  0  0  0  0
  -23.9847  -27.2758   19.0487 H   0  0  0  0  0  0
  -23.7073  -30.5925   19.4027 H   0  0  0  0  0  0
  -22.7267  -29.2367   19.8699 H   0  0  0  0  0  0
  -25.1275  -36.1961   25.0821 H   0  0  0  0  0  0
  -20.9946  -28.3217   24.1452 H   0  0  0  0  0  0
  -20.5700  -26.2252   23.3599 H   0  0  0  0  0  0
  -21.6647  -26.7466   22.1202 H   0  0  0  0  0  0
  -19.6931  -25.6295   21.1224 H   0  0  0  0  0  0
  -19.6692  -27.3213   20.6760 H   0  0  0  0  0  0
  -17.4205  -26.6669   21.4014 H   0  0  0  0  0  0
  -18.0327  -26.0046   22.9007 H   0  0  0  0  0  0
  -19.7928  -30.7237   24.2295 H   0  0  0  0  0  0
  -17.5014  -31.6260   24.5167 H   0  0  0  0  0  0
  -15.5348  -30.2990   23.7634 H   0  0  0  0  0  0
  -15.8664  -28.0832   22.7025 H   0  0  0  0  0  0
  -24.5933  -30.7010   25.7824 H   0  0  0  0  0  0
  -24.8957  -32.2839   26.4913 H   0  0  0  0  0  0
  -25.8151  -30.8860   27.0208 H   0  0  0  0  0  0
  -26.2811  -29.6785   24.1110 H   0  0  0  0  0  0
  -27.4118  -29.7243   25.4441 H   0  0  0  0  0  0
  -27.8610  -30.4361   23.9111 H   0  0  0  0  0  0
  -27.2658  -33.3571   26.2069 H   0  0  0  0  0  0
  -28.3839  -32.6871   25.0274 H   0  0  0  0  0  0
  -28.0717  -31.8380   26.5348 H   0  0  0  0  0  0
  -28.2586  -38.0114   24.7518 H   0  0  0  0  0  0
  -28.1080  -36.2641   24.6264 H   0  0  0  0  0  0
  -27.2307  -37.1432   25.8873 H   0  0  0  0  0  0
  -20.9239  -29.8748   21.6985 H   0  0  0  0  0  0
  -26.0173  -38.2863   24.1421 H   0  0  0  0  0  0
  -22.1398  -20.0756   22.0128 H   0  0  0  0  0  0
  -21.8800  -20.9561   20.5001 H   0  0  0  0  0  0
  -22.0252  -21.8336   22.0362 H   0  0  0  0  0  0
  -24.4865  -24.1015   19.8976 H   0  0  0  0  0  0
  -23.0188  -23.6561   20.7660 H   0  0  0  0  0  0
  -23.3162  -23.0071   19.1388 H   0  0  0  0  0  0
  -26.5530  -23.2525   19.1906 H   0  0  0  0  0  0
  -27.7615  -22.2397   19.8973 H   0  0  0  0  0  0
  -27.3057  -23.4864   22.1356 H   0  0  0  0  0  0
  -26.4571  -24.6828   21.2060 H   0  0  0  0  0  0
  -29.4732  -19.1837   22.6977 H   0  0  0  0  0  0
  -28.7851  -17.8936   23.6419 H   0  0  0  0  0  0
  -28.9909  -17.8684   20.5938 H   0  0  0  0  0  0
  -28.1328  -16.6922   21.5411 H   0  0  0  0  0  0
  -29.3503  -23.7861   20.7215 H   0  0  0  0  0  0
  -28.9378  -25.1316   21.7303 H   0  0  0  0  0  0
  -27.0616  -19.5158   23.5552 H   0  0  0  0  0  0
  -26.5477  -18.2445   22.4712 H   0  0  0  0  0  0
  -30.6335  -16.6825   22.8113 H   0  0  0  0  0  0
  -31.0962  -17.0224   21.1616 H   0  0  0  0  0  0
  -27.9948  -25.1898   18.8222 H   0  0  0  0  0  0
  -29.6515  -25.4649   19.2138 H   0  0  0  0  0  0
  -28.0483  -20.5088   21.3106 H   0  0  0  0  0  0
  -29.2505  -14.7877   21.9235 H   0  0  0  0  0  0
  1 25  1  0  0  0
  1 30  2  0  0  0
  1 87  1  0  0  0
  2  3  1  0  0  0
  2 25  1  0  0  0
  2 88  1  0  0  0
  2 89  1  0  0  0
  3  4  1  0  0  0
  3 90  1  0  0  0
  3 91  1  0  0  0
  4  5  1  0  0  0
  4 92  1  0  0  0
  4 93  1  0  0  0
  5  6  1  0  0  0
  5 26  1  0  0  0
  5 94  1  0  0  0
  6 25  1  0  0  0
  6 95  1  0  0  0
  6 96  1  0  0  0
  7  8  2  0  0  0
  7 26  1  0  0  0
  7 29  1  0  0  0
  8  9  1  0  0  0
  8 22  1  0  0  0
  9 10  1  0  0  0
  9 27  2  0  0  0
 10 11  2  0  0  0
 10 15  1  0  0  0
 11 12  1  0  0  0
 11 97  1  0  0  0
 12 13  2  0  0  0
 12 98  1  0  0  0
 13 14  1  0  0  0
 13 31  1  0  0  0
 14 15  2  0  0  0
 14 99  1  0  0  0
 15100  1  0  0  0
 16 17  2  0  0  0
 16 21  1  0  0  0
 16 31  1  0  0  0
 17 18  1  0  0  0
 17101  1  0  0  0
 18 19  2  0  0  0
 18102  1  0  0  0
 19 20  1  0  0  0
 19 24  1  0  0  0
 20 21  2  0  0  0
 20103  1  0  0  0
 21 23  1  0  0  0
 22 28  1  0  0  0
 22 32  2  0  0  0
 26 27  1  0  0  0
 28104  1  0  0  0
 28105  1  0  0  0
 29106  1  0  0  0
 29107  1  0  0  0
 33 34  1  0  0  0
 33 66  1  0  0  0
 33 70  2  0  0  0
 34 36  1  0  0  0
 34 59  1  0  0  0
 34108  1  0  0  0
 35 44  2  0  0  0
 35 45  1  0  0  0
 35 68  1  0  0  0
 36 56  1  0  0  0
 36109  1  0  0  0
 37 39  1  0  0  0
 37 47  1  0  0  0
 37 66  1  0  0  0
 37110  1  0  0  0
 38 43  2  0  0  0
 38 46  1  0  0  0
 38 47  1  0  0  0
 39 64  1  0  0  0
 39 67  2  0  0  0
 40 52  1  0  0  0
 40 53  2  0  0  0
 40 58  1  0  0  0
 41111  1  0  0  0
 41112  1  0  0  0
 41113  1  0  0  0
 41 48  1  0  0  0
 42 43  1  0  0  0
 42 66  1  0  0  0
 42114  1  0  0  0
 42115  1  0  0  0
 43 44  1  0  0  0
 44116  1  0  0  0
 45 46  2  0  0  0
 45117  1  0  0  0
 46118  1  0  0  0
 47119  1  0  0  0
 47120  1  0  0  0
 48 56  1  0  0  0
 48 65  1  0  0  0
 48121  1  0  0  0
 49 50  1  0  0  0
 49 53  1  0  0  0
 49 64  1  0  0  0
 49122  1  0  0  0
 50 51  1  0  0  0
 50123  1  0  0  0
 50124  1  0  0  0
 51 52  1  0  0  0
 51125  1  0  0  0
 51126  1  0  0  0
 52127  1  0  0  0
 52128  1  0  0  0
 53 54  1  0  0  0
 54 55  2  0  0  0
 54129  1  0  0  0
 55 57  1  0  0  0
 55130  1  0  0  0
 56 69  2  0  0  0
 57 58  2  0  0  0
 57131  1  0  0  0
 58132  1  0  0  0
 59 60  1  0  0  0
 59 61  1  0  0  0
 59 62  1  0  0  0
 60133  1  0  0  0
 60134  1  0  0  0
 60135  1  0  0  0
 61136  1  0  0  0
 61137  1  0  0  0
 61138  1  0  0  0
 62139  1  0  0  0
 62140  1  0  0  0
 62141  1  0  0  0
 63 65  1  0  0  0
 63142  1  0  0  0
 63143  1  0  0  0
 63144  1  0  0  0
 64145  1  0  0  0
 65146  1  0  0  0
 68 83  1  0  0  0
 71 72  2  0  0  0
 71 76  1  0  0  0
 71 85  1  0  0  0
 72 84  1  0  0  0
 72 86  1  0  0  0
 73 74  1  0  0  0
 73 84  2  0  0  0
 73 85  1  0  0  0
 74147  1  0  0  0
 74148  1  0  0  0
 74149  1  0  0  0
 75 85  1  0  0  0
 75150  1  0  0  0
 75151  1  0  0  0
 75152  1  0  0  0
 76 77  1  0  0  0
 76153  1  0  0  0
 76154  1  0  0  0
 77 80  1  0  0  0
 77155  1  0  0  0
 77156  1  0  0  0
 78 79  1  0  0  0
 78 81  1  0  0  0
 78157  1  0  0  0
 78158  1  0  0  0
 79 82  1  0  0  0
 79159  1  0  0  0
 79160  1  0  0  0
 80 83  1  0  0  0
 80161  1  0  0  0
 80162  1  0  0  0
 81 86  1  0  0  0
 81163  1  0  0  0
 81164  1  0  0  0
 82 87  1  0  0  0
 82165  1  0  0  0
 82166  1  0  0  0
 83167  1  0  0  0
 83168  1  0  0  0
 86169  1  0  0  0
 87170  1  0  0  0
M  ISO  4   1 100  68 101  83 101  87 100
M  END
> <chiral flag>
0

> <version>
0

> <s_m_source_file>
/data/baiqing/PycharmProjects/Reinvent-master-3.2/result/LINK_invent/BTK/process_docking_weight1_custom_sum_contain_oxygen_bond_distance_aromatic_linkinvent_7_9_3/rearranged_h_0024.sdf

> <i_m_source_file_index>
26

> <r_mmod_Potential_Energy-OPLS-2005>
-230.892623901367

> <r_mmod_Stretch_Energy-OPLS-2005>
30.4552631378174

> <r_mmod_Bend_Energy-OPLS-2005>
120.057022094727

> <r_mmod_Torsional_Energy-OPLS-2005>
211.944381713867

> <r_mmod_Improper_Torsional_Energy-OPLS-2005>
3.95725011825562

> <r_mmod_Van_der_Waal_Energy-OPLS-2005>
122.861228942871

> <r_mmod_Electrostatic_Energy-OPLS-2005>
-496.844635009766

> <r_mmod_Solvation_Energy-OPLS-2005>
-233.206985473633

> <b_mmod_Minimization_Converged-OPLS-2005>
0

> <r_mmod_RMS_Derivative-OPLS-2005>
2.49933505058289

$$$$
26
                    3D
 Structure written by MMmdl.
178186  0  0  1  0            999 V2000
  -30.7582  -14.3848   20.6938 C   0  0  0  0  0  0
  -30.4182  -12.3035   19.4003 C   0  0  0  0  0  0
  -29.4854  -12.5272   18.1951 C   0  0  0  0  0  0
  -28.0097  -12.3777   18.6115 C   0  0  0  0  0  0
  -27.6637  -13.2036   19.8784 C   0  0  2  0  0  0
  -28.7002  -12.9508   20.9945 C   0  0  0  0  0  0
  -25.2594  -13.8163   20.5676 C   0  0  0  0  0  0
  -24.1837  -13.0441   20.9166 C   0  0  0  0  0  0
  -24.6384  -11.6906   20.8723 C   0  0  0  0  0  0
  -23.9049  -10.4295   21.0402 C   0  0  0  0  0  0
  -24.3606   -9.4211   21.9180 C   0  0  0  0  0  0
  -23.6286   -8.2243   22.0750 C   0  0  0  0  0  0
  -22.4269   -8.0280   21.3541 C   0  0  0  0  0  0
  -21.9900   -9.0252   20.4644 C   0  0  0  0  0  0
  -22.7223  -10.2133   20.3052 C   0  0  0  0  0  0
  -21.6851   -6.0732   22.5278 C   0  0  0  0  0  0
  -21.4012   -6.5637   23.8211 C   0  0  0  0  0  0
  -21.3661   -5.6792   24.9175 C   0  0  0  0  0  0
  -21.6044   -4.3054   24.7226 C   0  0  0  0  0  0
  -21.8820   -3.8144   23.4347 C   0  0  0  0  0  0
  -21.9192   -4.6960   22.3403 C   0  0  0  0  0  0
  -22.7862  -13.5242   21.1838 C   0  0  0  0  0  0
  -22.1661   -4.2144   21.0980 F   0  0  0  0  0  0
  -21.5629   -3.4538   25.7739 F   0  0  0  0  0  0
  -30.0407  -13.2540   20.4581 N   0  0  0  0  0  0
  -26.3027  -12.9323   20.3369 N   0  0  0  0  0  0
  -25.9308  -11.6484   20.5750 N   0  0  0  0  0  0
  -22.0500  -12.8239   22.0398 N   0  0  0  0  0  0
  -25.4343  -15.1879   20.4090 N   0  0  0  0  0  0
  -31.8028  -14.6529   20.0888 O   0  0  0  0  0  0
  -21.6638   -6.8874   21.4238 O   0  0  0  0  0  0
  -22.3551  -14.5552   20.6695 O   0  0  0  0  0  0
  -24.6138  -31.8685   23.2100 C   0  0  0  0  0  0
  -25.9044  -32.4825   23.8383 C   0  0  1  0  0  0
  -27.2358  -27.4487   20.0991 C   0  0  0  0  0  0
  -25.5911  -33.8619   24.2331 N   0  0  0  0  0  0
  -23.4006  -30.4943   21.5493 C   0  0  2  0  0  0
  -24.8466  -28.9538   20.1237 C   0  0  0  0  0  0
  -22.7388  -29.4693   22.4980 C   0  0  0  0  0  0
  -18.0267  -28.1385   22.8500 C   0  0  0  0  0  0
  -24.1488  -36.7321   23.2637 C   0  0  0  0  0  0
  -25.9275  -30.8386   21.3592 C   0  0  0  0  0  0
  -26.0048  -29.4683   20.7207 C   0  0  0  0  0  0
  -27.2052  -28.7226   20.7091 C   0  0  0  0  0  0
  -26.0662  -26.9490   19.4902 C   0  0  0  0  0  0
  -24.8686  -27.6897   19.5095 C   0  0  0  0  0  0
  -23.6091  -29.8225   20.1664 C   0  0  0  0  0  0
  -25.4110  -36.3118   24.0341 C   0  0  1  0  0  0
  -20.5859  -28.3678   23.1320 C   0  0  2  0  0  0
  -20.6775  -26.9416   22.5415 C   0  0  0  0  0  0
  -19.5751  -26.6399   21.5213 C   0  0  0  0  0  0
  -18.1927  -26.7940   22.1628 C   0  0  0  0  0  0
  -19.1515  -28.8846   23.2915 C   0  0  0  0  0  0
  -18.9450  -30.1458   23.8916 C   0  0  0  0  0  0
  -17.6456  -30.6599   24.0573 C   0  0  0  0  0  0
  -25.9042  -34.9484   23.5136 C   0  0  0  0  0  0
  -16.5348  -29.9106   23.6325 C   0  0  0  0  0  0
  -16.7258  -28.6521   23.0348 C   0  0  0  0  0  0
  -26.4475  -31.6595   25.0702 C   0  0  0  0  0  0
  -25.3749  -31.3693   26.1455 C   0  0  0  0  0  0
  -27.0295  -30.3040   24.6057 C   0  0  0  0  0  0
  -27.6055  -32.4304   25.7471 C   0  0  0  0  0  0
  -27.5584  -37.1823   24.8467 C   0  0  0  0  0  0
  -21.4121  -29.3050   22.3723 N   0  0  0  0  0  0
  -26.4293  -37.3808   23.9413 N   0  0  0  0  0  0
  -24.6657  -31.0819   22.0982 N   0  0  0  0  0  0
  -23.4175  -28.8228   23.3006 O   0  0  0  0  0  0
  -28.4115  -26.7418   20.0038 O   0  0  0  0  0  0
  -26.5593  -34.8938   22.4692 O   0  0  0  0  0  0
  -23.5345  -32.1414   23.7530 O   0  0  0  0  0  0
  -30.2861  -17.6738   22.0965 C   0  0  0  0  0  0
  -30.8508  -16.3672   22.1598 C   0  0  0  0  0  0
  -31.1794  -18.5027   22.7440 C   0  0  0  0  0  0
  -32.0026  -16.3796   22.8888 C   0  0  0  0  0  0
  -28.9799  -18.0349   21.4310 C   0  0  0  0  0  0
  -32.9130  -15.2704   23.3239 C   0  0  0  0  0  0
  -30.4708  -22.6430   24.3509 C   0  0  0  0  0  0
  -31.1370  -23.0293   21.9688 C   0  0  0  0  0  0
  -33.3771  -18.1950   23.9810 C   0  0  0  0  0  0
  -27.2987  -22.0625   20.8916 C   0  0  0  0  0  0
  -31.2184  -19.9962   23.0092 C   0  0  0  0  0  0
  -29.9816  -20.8431   22.6170 C   0  0  0  0  0  0
  -27.7093  -24.4712   20.7729 C   0  0  0  0  0  0
  -28.6868  -23.0888   22.6600 C   0  0  0  0  0  0
  -28.6361  -25.7009   20.9621 C   0  0  0  0  0  0
  -30.0684  -22.3833   22.8808 C   0  0  0  0  0  0
  -32.2283  -17.7080   23.2221 N   0  0  0  0  0  0
  -30.2423  -15.2030   21.6270 N   0  0  0  0  0  0
  -28.2510  -23.1512   21.2340 N   0  3  1  0  0  0
  -31.4609  -12.4072   19.0949 H   0  0  0  0  0  0
  -30.3220  -11.2820   19.7717 H   0  0  0  0  0  0
  -29.7221  -11.8201   17.3987 H   0  0  0  0  0  0
  -29.6516  -13.5229   17.7806 H   0  0  0  0  0  0
  -27.8210  -11.3194   18.7960 H   0  0  0  0  0  0
  -27.3549  -12.6624   17.7872 H   0  0  0  0  0  0
  -27.7204  -14.2570   19.6021 H   0  0  0  0  0  0
  -28.6689  -11.9064   21.3082 H   0  0  0  0  0  0
  -28.4426  -13.5215   21.8867 H   0  0  0  0  0  0
  -25.2752   -9.5690   22.4749 H   0  0  0  0  0  0
  -23.9999   -7.4635   22.7468 H   0  0  0  0  0  0
  -21.0829   -8.8765   19.8951 H   0  0  0  0  0  0
  -22.3680  -10.9667   19.6156 H   0  0  0  0  0  0
  -21.2004   -7.6145   23.9712 H   0  0  0  0  0  0
  -21.1482   -6.0524   25.9078 H   0  0  0  0  0  0
  -22.0598   -2.7606   23.2850 H   0  0  0  0  0  0
  -22.4107  -11.9895   22.4785 H   0  0  0  0  0  0
  -21.1118  -13.1268   22.2600 H   0  0  0  0  0  0
  -24.6723  -15.8484   20.5192 H   0  0  0  0  0  0
  -26.2942  -15.6223   20.0981 H   0  0  0  0  0  0
  -26.7115  -32.5536   23.1143 H   0  0  0  0  0  0
  -25.0073  -33.9760   25.0489 H   0  0  0  0  0  0
  -22.6899  -31.3115   21.4086 H   0  0  0  0  0  0
  -23.3747  -35.9659   23.3311 H   0  0  0  0  0  0
  -24.3579  -36.8912   22.2046 H   0  0  0  0  0  0
  -23.7252  -37.6541   23.6633 H   0  0  0  0  0  0
  -26.0323  -31.5950   20.5799 H   0  0  0  0  0  0
  -26.8201  -30.8991   21.9704 H   0  0  0  0  0  0
  -28.1035  -29.1266   21.1543 H   0  0  0  0  0  0
  -26.0777  -25.9961   18.9815 H   0  0  0  0  0  0
  -23.9821  -27.2910   19.0359 H   0  0  0  0  0  0
  -23.7209  -30.5939   19.4029 H   0  0  0  0  0  0
  -22.7328  -29.2422   19.8709 H   0  0  0  0  0  0
  -25.1293  -36.1978   25.0834 H   0  0  0  0  0  0
  -20.9955  -28.3251   24.1440 H   0  0  0  0  0  0
  -20.5703  -26.2273   23.3598 H   0  0  0  0  0  0
  -21.6650  -26.7489   22.1193 H   0  0  0  0  0  0
  -19.6904  -25.6308   21.1233 H   0  0  0  0  0  0
  -19.6698  -27.3231   20.6753 H   0  0  0  0  0  0
  -17.4206  -26.6690   21.4020 H   0  0  0  0  0  0
  -18.0334  -26.0070   22.9009 H   0  0  0  0  0  0
  -19.7919  -30.7276   24.2299 H   0  0  0  0  0  0
  -17.5007  -31.6276   24.5180 H   0  0  0  0  0  0
  -15.5353  -30.3024   23.7644 H   0  0  0  0  0  0
  -15.8649  -28.0860   22.7048 H   0  0  0  0  0  0
  -24.5925  -30.7034   25.7799 H   0  0  0  0  0  0
  -24.8942  -32.2849   26.4913 H   0  0  0  0  0  0
  -25.8114  -30.8862   27.0204 H   0  0  0  0  0  0
  -26.2828  -29.6794   24.1144 H   0  0  0  0  0  0
  -27.4106  -29.7276   25.4495 H   0  0  0  0  0  0
  -27.8638  -30.4363   23.9165 H   0  0  0  0  0  0
  -27.2684  -33.3595   26.2078 H   0  0  0  0  0  0
  -28.3862  -32.6873   25.0299 H   0  0  0  0  0  0
  -28.0724  -31.8399   26.5365 H   0  0  0  0  0  0
  -28.2629  -38.0097   24.7518 H   0  0  0  0  0  0
  -28.1056  -36.2639   24.6299 H   0  0  0  0  0  0
  -27.2296  -37.1474   25.8866 H   0  0  0  0  0  0
  -20.9273  -29.8735   21.6915 H   0  0  0  0  0  0
  -26.0176  -38.2887   24.1405 H   0  0  0  0  0  0
  -28.4745  -17.1507   21.0441 H   0  0  0  0  0  0
  -29.1475  -18.7104   20.5929 H   0  0  0  0  0  0
  -28.3049  -18.5092   22.1419 H   0  0  0  0  0  0
  -32.4737  -14.2935   23.1233 H   0  0  0  0  0  0
  -33.1076  -15.3189   24.3958 H   0  0  0  0  0  0
  -33.8679  -15.3187   22.8007 H   0  0  0  0  0  0
  -31.4862  -22.3092   24.5665 H   0  0  0  0  0  0
  -29.7999  -22.1369   25.0471 H   0  0  0  0  0  0
  -30.4479  -23.7063   24.5936 H   0  0  0  0  0  0
  -32.1328  -22.6319   22.1664 H   0  0  0  0  0  0
  -31.2027  -24.1063   22.1297 H   0  0  0  0  0  0
  -30.9369  -22.8622   20.9096 H   0  0  0  0  0  0
  -33.0915  -18.3594   25.0200 H   0  0  0  0  0  0
  -33.7470  -19.1302   23.5632 H   0  0  0  0  0  0
  -34.2010  -17.4827   23.9532 H   0  0  0  0  0  0
  -27.1027  -22.0351   19.8200 H   0  0  0  0  0  0
  -26.3442  -22.2057   21.3999 H   0  0  0  0  0  0
  -27.6670  -21.0781   21.1732 H   0  0  0  0  0  0
  -32.0915  -20.4030   22.4992 H   0  0  0  0  0  0
  -31.4072  -20.1343   24.0729 H   0  0  0  0  0  0
  -29.1183  -20.4433   23.1495 H   0  0  0  0  0  0
  -29.8064  -20.6838   21.5553 H   0  0  0  0  0  0
  -27.5196  -24.3653   19.7044 H   0  0  0  0  0  0
  -26.7438  -24.6671   21.2401 H   0  0  0  0  0  0
  -28.7530  -24.0986   23.0605 H   0  0  0  0  0  0
  -27.9153  -22.6126   23.2690 H   0  0  0  0  0  0
  -29.6741  -25.3982   20.8282 H   0  0  0  0  0  0
  -28.5590  -26.1045   21.9726 H   0  0  0  0  0  0
  -29.3239  -14.9657   21.9688 H   0  0  0  0  0  0
  -29.0879  -22.9820   20.6936 H   0  0  0  0  0  0
  1 25  1  0  0  0
  1 30  2  0  0  0
  1 88  1  0  0  0
  2  3  1  0  0  0
  2 25  1  0  0  0
  2 90  1  0  0  0
  2 91  1  0  0  0
  3  4  1  0  0  0
  3 92  1  0  0  0
  3 93  1  0  0  0
  4  5  1  0  0  0
  4 94  1  0  0  0
  4 95  1  0  0  0
  5  6  1  0  0  0
  5 26  1  0  0  0
  5 96  1  0  0  0
  6 25  1  0  0  0
  6 97  1  0  0  0
  6 98  1  0  0  0
  7  8  2  0  0  0
  7 26  1  0  0  0
  7 29  1  0  0  0
  8  9  1  0  0  0
  8 22  1  0  0  0
  9 10  1  0  0  0
  9 27  2  0  0  0
 10 11  2  0  0  0
 10 15  1  0  0  0
 11 12  1  0  0  0
 11 99  1  0  0  0
 12 13  2  0  0  0
 12100  1  0  0  0
 13 14  1  0  0  0
 13 31  1  0  0  0
 14 15  2  0  0  0
 14101  1  0  0  0
 15102  1  0  0  0
 16 17  2  0  0  0
 16 21  1  0  0  0
 16 31  1  0  0  0
 17 18  1  0  0  0
 17103  1  0  0  0
 18 19  2  0  0  0
 18104  1  0  0  0
 19 20  1  0  0  0
 19 24  1  0  0  0
 20 21  2  0  0  0
 20105  1  0  0  0
 21 23  1  0  0  0
 22 28  1  0  0  0
 22 32  2  0  0  0
 26 27  1  0  0  0
 28106  1  0  0  0
 28107  1  0  0  0
 29108  1  0  0  0
 29109  1  0  0  0
 33 34  1  0  0  0
 33 66  1  0  0  0
 33 70  2  0  0  0
 34 36  1  0  0  0
 34 59  1  0  0  0
 34110  1  0  0  0
 35 44  2  0  0  0
 35 45  1  0  0  0
 35 68  1  0  0  0
 36 56  1  0  0  0
 36111  1  0  0  0
 37 39  1  0  0  0
 37 47  1  0  0  0
 37 66  1  0  0  0
 37112  1  0  0  0
 38 43  2  0  0  0
 38 46  1  0  0  0
 38 47  1  0  0  0
 39 64  1  0  0  0
 39 67  2  0  0  0
 40 52  1  0  0  0
 40 53  2  0  0  0
 40 58  1  0  0  0
 41113  1  0  0  0
 41114  1  0  0  0
 41115  1  0  0  0
 41 48  1  0  0  0
 42 43  1  0  0  0
 42 66  1  0  0  0
 42116  1  0  0  0
 42117  1  0  0  0
 43 44  1  0  0  0
 44118  1  0  0  0
 45 46  2  0  0  0
 45119  1  0  0  0
 46120  1  0  0  0
 47121  1  0  0  0
 47122  1  0  0  0
 48 56  1  0  0  0
 48 65  1  0  0  0
 48123  1  0  0  0
 49 50  1  0  0  0
 49 53  1  0  0  0
 49 64  1  0  0  0
 49124  1  0  0  0
 50 51  1  0  0  0
 50125  1  0  0  0
 50126  1  0  0  0
 51 52  1  0  0  0
 51127  1  0  0  0
 51128  1  0  0  0
 52129  1  0  0  0
 52130  1  0  0  0
 53 54  1  0  0  0
 54 55  2  0  0  0
 54131  1  0  0  0
 55 57  1  0  0  0
 55132  1  0  0  0
 56 69  2  0  0  0
 57 58  2  0  0  0
 57133  1  0  0  0
 58134  1  0  0  0
 59 60  1  0  0  0
 59 61  1  0  0  0
 59 62  1  0  0  0
 60135  1  0  0  0
 60136  1  0  0  0
 60137  1  0  0  0
 61138  1  0  0  0
 61139  1  0  0  0
 61140  1  0  0  0
 62141  1  0  0  0
 62142  1  0  0  0
 62143  1  0  0  0
 63 65  1  0  0  0
 63144  1  0  0  0
 63145  1  0  0  0
 63146  1  0  0  0
 64147  1  0  0  0
 65148  1  0  0  0
 68 85  1  0  0  0
 71 72  1  0  0  0
 71 73  2  0  0  0
 71 75  1  0  0  0
 72 74  2  0  0  0
 72 88  1  0  0  0
 73 81  1  0  0  0
 73 87  1  0  0  0
 74 76  1  0  0  0
 74 87  1  0  0  0
 75149  1  0  0  0
 75150  1  0  0  0
 75151  1  0  0  0
 76152  1  0  0  0
 76153  1  0  0  0
 76154  1  0  0  0
 77155  1  0  0  0
 77156  1  0  0  0
 77157  1  0  0  0
 77 86  1  0  0  0
 78 86  1  0  0  0
 78158  1  0  0  0
 78159  1  0  0  0
 78160  1  0  0  0
 79 87  1  0  0  0
 79161  1  0  0  0
 79162  1  0  0  0
 79163  1  0  0  0
 80164  1  0  0  0
 80165  1  0  0  0
 80166  1  0  0  0
 80 89  1  0  0  0
 81 82  1  0  0  0
 81167  1  0  0  0
 81168  1  0  0  0
 82 86  1  0  0  0
 82169  1  0  0  0
 82170  1  0  0  0
 83 85  1  0  0  0
 83 89  1  0  0  0
 83171  1  0  0  0
 83172  1  0  0  0
 84 86  1  0  0  0
 84 89  1  0  0  0
 84173  1  0  0  0
 84174  1  0  0  0
 85175  1  0  0  0
 85176  1  0  0  0
 88177  1  0  0  0
 89178  1  0  0  0
M  CHG  1  89   1
M  ISO  4   1 100  68 101  85 101  88 100
M  END
> <chiral flag>
0

> <version>
0

> <s_m_source_file>
/data/baiqing/PycharmProjects/Reinvent-master-3.2/result/LINK_invent/BTK/process_docking_weight1_custom_sum_contain_oxygen_bond_distance_aromatic_linkinvent_7_9_3/rearranged_h_0024.sdf

> <i_m_source_file_index>
27

> <r_mmod_Potential_Energy-OPLS-2005>
-129.190002441406

> <r_mmod_Stretch_Energy-OPLS-2005>
40.0324668884277

> <r_mmod_Bend_Energy-OPLS-2005>
119.18335723877

> <r_mmod_Torsional_Energy-OPLS-2005>
282.073272705078

> <r_mmod_Improper_Torsional_Energy-OPLS-2005>
2.15666484832764

> <r_mmod_Van_der_Waal_Energy-OPLS-2005>
133.302627563477

> <r_mmod_Electrostatic_Energy-OPLS-2005>
-289.644287109375

> <r_mmod_Solvation_Energy-OPLS-2005>
-423.480285644531

> <b_mmod_Minimization_Converged-OPLS-2005>
0

> <r_mmod_RMS_Derivative-OPLS-2005>
1.69102704524994

$$$$
27
                    3D
 Structure written by MMmdl.
176184  0  0  1  0            999 V2000
  -30.8647  -14.2509   20.7891 C   0  0  0  0  0  0
  -30.4145  -12.2931   19.3668 C   0  0  0  0  0  0
  -29.4721  -12.5489   18.1821 C   0  0  0  0  0  0
  -28.0067  -12.3848   18.6149 C   0  0  0  0  0  0
  -27.6726  -13.2064   19.8848 C   0  0  2  0  0  0
  -28.7146  -12.9653   21.0006 C   0  0  0  0  0  0
  -25.2625  -13.8168   20.5695 C   0  0  0  0  0  0
  -24.1877  -13.0459   20.9174 C   0  0  0  0  0  0
  -24.6416  -11.6908   20.8730 C   0  0  0  0  0  0
  -23.9067  -10.4300   21.0398 C   0  0  0  0  0  0
  -24.3618   -9.4214   21.9181 C   0  0  0  0  0  0
  -23.6295   -8.2253   22.0755 C   0  0  0  0  0  0
  -22.4277   -8.0285   21.3548 C   0  0  0  0  0  0
  -21.9913   -9.0262   20.4650 C   0  0  0  0  0  0
  -22.7236  -10.2141   20.3052 C   0  0  0  0  0  0
  -21.6859   -6.0730   22.5280 C   0  0  0  0  0  0
  -21.4013   -6.5640   23.8207 C   0  0  0  0  0  0
  -21.3658   -5.6793   24.9173 C   0  0  0  0  0  0
  -21.6046   -4.3056   24.7225 C   0  0  0  0  0  0
  -21.8819   -3.8147   23.4346 C   0  0  0  0  0  0
  -21.9193   -4.6963   22.3402 C   0  0  0  0  0  0
  -22.7882  -13.5242   21.1834 C   0  0  0  0  0  0
  -22.1664   -4.2147   21.0980 F   0  0  0  0  0  0
  -21.5628   -3.4537   25.7736 F   0  0  0  0  0  0
  -30.0676  -13.2057   20.4632 N   0  0  0  0  0  0
  -26.3094  -12.9355   20.3440 N   0  0  0  0  0  0
  -25.9358  -11.6507   20.5791 N   0  0  0  0  0  0
  -22.0518  -12.8243   22.0384 N   0  0  0  0  0  0
  -25.4355  -15.1893   20.4108 N   0  0  0  0  0  0
  -31.7492  -14.6981   20.0515 O   0  0  0  0  0  0
  -21.6641   -6.8882   21.4239 O   0  0  0  0  0  0
  -22.3570  -14.5559   20.6688 O   0  0  0  0  0  0
  -24.6063  -31.8748   23.2142 C   0  0  0  0  0  0
  -25.8990  -32.4856   23.8427 C   0  0  1  0  0  0
  -27.2415  -27.4846   20.1067 C   0  0  0  0  0  0
  -25.5896  -33.8658   24.2394 N   0  0  0  0  0  0
  -23.3900  -30.4960   21.5520 C   0  0  2  0  0  0
  -24.8385  -28.9611   20.1207 C   0  0  0  0  0  0
  -22.7347  -29.4700   22.5013 C   0  0  0  0  0  0
  -18.0268  -28.1376   22.8490 C   0  0  0  0  0  0
  -24.1476  -36.7313   23.2636 C   0  0  0  0  0  0
  -25.9126  -30.8536   21.3573 C   0  0  0  0  0  0
  -25.9901  -29.4870   20.7168 C   0  0  0  0  0  0
  -27.1926  -28.7578   20.7150 C   0  0  0  0  0  0
  -26.0784  -26.9687   19.4981 C   0  0  0  0  0  0
  -24.8718  -27.6944   19.5112 C   0  0  0  0  0  0
  -23.5973  -29.8234   20.1676 C   0  0  0  0  0  0
  -25.4089  -36.3128   24.0359 C   0  0  1  0  0  0
  -20.5856  -28.3642   23.1381 C   0  0  2  0  0  0
  -20.6753  -26.9363   22.5501 C   0  0  0  0  0  0
  -19.5761  -26.6341   21.5264 C   0  0  0  0  0  0
  -18.1911  -26.7930   22.1611 C   0  0  0  0  0  0
  -19.1517  -28.8829   23.2931 C   0  0  0  0  0  0
  -18.9440  -30.1452   23.8923 C   0  0  0  0  0  0
  -17.6442  -30.6573   24.0579 C   0  0  0  0  0  0
  -25.9020  -34.9492   23.5146 C   0  0  0  0  0  0
  -16.5340  -29.9061   23.6337 C   0  0  0  0  0  0
  -16.7256  -28.6507   23.0327 C   0  0  0  0  0  0
  -26.4453  -31.6584   25.0690 C   0  0  0  0  0  0
  -25.3789  -31.3621   26.1475 C   0  0  0  0  0  0
  -27.0272  -30.3052   24.5985 C   0  0  0  0  0  0
  -27.6076  -32.4237   25.7434 C   0  0  0  0  0  0
  -27.5574  -37.1800   24.8469 C   0  0  0  0  0  0
  -21.4084  -29.3005   22.3758 N   0  0  0  0  0  0
  -26.4287  -37.3794   23.9409 N   0  0  0  0  0  0
  -24.6542  -31.0892   22.1011 N   0  0  0  0  0  0
  -23.4167  -28.8302   23.3068 O   0  0  0  0  0  0
  -28.3721  -26.7058   20.0558 O   0  0  0  0  0  0
  -26.5536  -34.8931   22.4678 O   0  0  0  0  0  0
  -23.5283  -32.1508   23.7585 O   0  0  0  0  0  0
  -27.5421  -24.9970   24.0435 C   0  0  0  0  0  0
  -27.7624  -24.2979   21.7342 C   0  0  0  0  0  0
  -28.0447  -25.2347   22.7509 C   0  0  0  0  0  0
  -26.7752  -23.8482   24.3226 C   0  0  0  0  0  0
  -26.9612  -23.1638   21.9867 C   0  0  0  0  0  0
  -26.4775  -22.9188   23.2987 C   0  0  0  0  0  0
  -26.2911  -23.6166   25.7441 C   0  0  0  0  0  0
  -26.5959  -22.2769   20.8087 C   0  0  0  0  0  0
  -28.8519  -26.5120   22.5210 C   0  0  0  0  0  0
  -29.5478  -18.5169   23.7324 C   0  0  0  0  0  0
  -28.0316  -18.7366   23.8281 C   0  0  0  0  0  0
  -29.9223  -17.0338   23.5704 C   0  0  0  0  0  0
  -27.6358  -20.2233   23.8971 C   0  0  0  0  0  0
  -31.3342  -16.8445   22.9898 C   0  0  0  0  0  0
  -26.1749  -20.4496   23.4508 C   0  0  0  0  0  0
  -31.7630  -15.3757   22.8370 C   0  0  0  0  0  0
  -29.3503  -26.8306   21.0873 C   0  0  0  0  0  0
  -25.6777  -21.8132   23.6306 N   0  0  0  0  0  0
  -30.7925  -14.5808   22.0835 N   0  0  0  0  0  0
  -31.4543  -12.4053   19.0503 H   0  0  0  0  0  0
  -30.3208  -11.2619   19.7118 H   0  0  0  0  0  0
  -29.7008  -11.8640   17.3645 H   0  0  0  0  0  0
  -29.6347  -13.5560   17.7942 H   0  0  0  0  0  0
  -27.8297  -11.3253   18.8004 H   0  0  0  0  0  0
  -27.3409  -12.6677   17.7998 H   0  0  0  0  0  0
  -27.7295  -14.2601   19.6087 H   0  0  0  0  0  0
  -28.6545  -11.9411   21.3711 H   0  0  0  0  0  0
  -28.4774  -13.6076   21.8495 H   0  0  0  0  0  0
  -25.2764   -9.5691   22.4754 H   0  0  0  0  0  0
  -23.9996   -7.4646   22.7477 H   0  0  0  0  0  0
  -21.0838   -8.8784   19.8957 H   0  0  0  0  0  0
  -22.3700  -10.9678   19.6166 H   0  0  0  0  0  0
  -21.2004   -7.6145   23.9714 H   0  0  0  0  0  0
  -21.1481   -6.0523   25.9076 H   0  0  0  0  0  0
  -22.0599   -2.7607   23.2848 H   0  0  0  0  0  0
  -22.4120  -11.9893   22.4764 H   0  0  0  0  0  0
  -21.1140  -13.1282   22.2594 H   0  0  0  0  0  0
  -24.6732  -15.8491   20.5231 H   0  0  0  0  0  0
  -26.3007  -15.6276   20.1195 H   0  0  0  0  0  0
  -26.7037  -32.5573   23.1177 H   0  0  0  0  0  0
  -25.0088  -33.9870   25.0570 H   0  0  0  0  0  0
  -22.6717  -31.3063   21.4101 H   0  0  0  0  0  0
  -23.3748  -35.9629   23.3301 H   0  0  0  0  0  0
  -24.3588  -36.8918   22.2052 H   0  0  0  0  0  0
  -23.7229  -37.6524   23.6633 H   0  0  0  0  0  0
  -26.0118  -31.6088   20.5778 H   0  0  0  0  0  0
  -26.8089  -30.9225   21.9596 H   0  0  0  0  0  0
  -28.0699  -29.1951   21.1681 H   0  0  0  0  0  0
  -26.1035  -26.0015   19.0187 H   0  0  0  0  0  0
  -23.9840  -27.2768   19.0551 H   0  0  0  0  0  0
  -23.7051  -30.5977   19.4057 H   0  0  0  0  0  0
  -22.7198  -29.2424   19.8754 H   0  0  0  0  0  0
  -25.1265  -36.1971   25.0856 H   0  0  0  0  0  0
  -21.0001  -28.3210   24.1486 H   0  0  0  0  0  0
  -20.5617  -26.2275   23.3715 H   0  0  0  0  0  0
  -21.6635  -26.7346   22.1357 H   0  0  0  0  0  0
  -19.6914  -25.6241   21.1319 H   0  0  0  0  0  0
  -19.6753  -27.3141   20.6793 H   0  0  0  0  0  0
  -17.4232  -26.6765   21.3949 H   0  0  0  0  0  0
  -18.0199  -26.0081   22.8995 H   0  0  0  0  0  0
  -19.7919  -30.7267   24.2283 H   0  0  0  0  0  0
  -17.4963  -31.6255   24.5154 H   0  0  0  0  0  0
  -15.5336  -30.2951   23.7665 H   0  0  0  0  0  0
  -15.8672  -28.0831   22.6974 H   0  0  0  0  0  0
  -24.5990  -30.6929   25.7824 H   0  0  0  0  0  0
  -24.8949  -32.2747   26.4969 H   0  0  0  0  0  0
  -25.8253  -30.8776   27.0177 H   0  0  0  0  0  0
  -26.2782  -29.6770   24.1162 H   0  0  0  0  0  0
  -27.4221  -29.7294   25.4364 H   0  0  0  0  0  0
  -27.8520  -30.4391   23.8988 H   0  0  0  0  0  0
  -27.2781  -33.3542   26.2041 H   0  0  0  0  0  0
  -28.3901  -32.6765   25.0275 H   0  0  0  0  0  0
  -28.0719  -31.8311   26.5318 H   0  0  0  0  0  0
  -28.2614  -38.0077   24.7507 H   0  0  0  0  0  0
  -28.1076  -36.2623   24.6315 H   0  0  0  0  0  0
  -27.2306  -37.1456   25.8881 H   0  0  0  0  0  0
  -20.9170  -29.8673   21.6992 H   0  0  0  0  0  0
  -26.0180  -38.2872   24.1411 H   0  0  0  0  0  0
  -27.7520  -25.7104   24.8284 H   0  0  0  0  0  0
  -28.1280  -24.4505   20.7323 H   0  0  0  0  0  0
  -26.5743  -24.4370   26.4021 H   0  0  0  0  0  0
  -26.7293  -22.6974   26.1367 H   0  0  0  0  0  0
  -25.2056  -23.5242   25.7770 H   0  0  0  0  0  0
  -26.8641  -22.7482   19.8615 H   0  0  0  0  0  0
  -25.5206  -22.1002   20.7862 H   0  0  0  0  0  0
  -27.1096  -21.3183   20.8625 H   0  0  0  0  0  0
  -29.7207  -26.4589   23.1767 H   0  0  0  0  0  0
  -28.2641  -27.3502   22.8958 H   0  0  0  0  0  0
  -30.0437  -18.9320   24.6109 H   0  0  0  0  0  0
  -29.9250  -19.0762   22.8755 H   0  0  0  0  0  0
  -27.6367  -18.2095   24.6965 H   0  0  0  0  0  0
  -27.5585  -18.2779   22.9581 H   0  0  0  0  0  0
  -29.2039  -16.5546   22.9046 H   0  0  0  0  0  0
  -29.8341  -16.5222   24.5305 H   0  0  0  0  0  0
  -28.3014  -20.8056   23.2587 H   0  0  0  0  0  0
  -27.7900  -20.5842   24.9161 H   0  0  0  0  0  0
  -32.0637  -17.3642   23.6128 H   0  0  0  0  0  0
  -31.3828  -17.3250   22.0126 H   0  0  0  0  0  0
  -25.5312  -19.8045   24.0515 H   0  0  0  0  0  0
  -26.0247  -20.1281   22.4186 H   0  0  0  0  0  0
  -31.8822  -14.9211   23.8223 H   0  0  0  0  0  0
  -32.7494  -15.3255   22.3687 H   0  0  0  0  0  0
  -29.8203  -27.8136   21.0526 H   0  0  0  0  0  0
  -30.1424  -26.1298   20.8279 H   0  0  0  0  0  0
  -25.2021  -21.9367   24.5180 H   0  0  0  0  0  0
  -30.0890  -14.0960   22.6217 H   0  0  0  0  0  0
  1 25  1  0  0  0
  1 30  2  0  0  0
  1 89  1  0  0  0
  2  3  1  0  0  0
  2 25  1  0  0  0
  2 90  1  0  0  0
  2 91  1  0  0  0
  3  4  1  0  0  0
  3 92  1  0  0  0
  3 93  1  0  0  0
  4  5  1  0  0  0
  4 94  1  0  0  0
  4 95  1  0  0  0
  5  6  1  0  0  0
  5 26  1  0  0  0
  5 96  1  0  0  0
  6 25  1  0  0  0
  6 97  1  0  0  0
  6 98  1  0  0  0
  7  8  2  0  0  0
  7 26  1  0  0  0
  7 29  1  0  0  0
  8  9  1  0  0  0
  8 22  1  0  0  0
  9 10  1  0  0  0
  9 27  2  0  0  0
 10 11  2  0  0  0
 10 15  1  0  0  0
 11 12  1  0  0  0
 11 99  1  0  0  0
 12 13  2  0  0  0
 12100  1  0  0  0
 13 14  1  0  0  0
 13 31  1  0  0  0
 14 15  2  0  0  0
 14101  1  0  0  0
 15102  1  0  0  0
 16 17  2  0  0  0
 16 21  1  0  0  0
 16 31  1  0  0  0
 17 18  1  0  0  0
 17103  1  0  0  0
 18 19  2  0  0  0
 18104  1  0  0  0
 19 20  1  0  0  0
 19 24  1  0  0  0
 20 21  2  0  0  0
 20105  1  0  0  0
 21 23  1  0  0  0
 22 28  1  0  0  0
 22 32  2  0  0  0
 26 27  1  0  0  0
 28106  1  0  0  0
 28107  1  0  0  0
 29108  1  0  0  0
 29109  1  0  0  0
 33 34  1  0  0  0
 33 66  1  0  0  0
 33 70  2  0  0  0
 34 36  1  0  0  0
 34 59  1  0  0  0
 34110  1  0  0  0
 35 44  2  0  0  0
 35 45  1  0  0  0
 35 68  1  0  0  0
 36 56  1  0  0  0
 36111  1  0  0  0
 37 39  1  0  0  0
 37 47  1  0  0  0
 37 66  1  0  0  0
 37112  1  0  0  0
 38 43  2  0  0  0
 38 46  1  0  0  0
 38 47  1  0  0  0
 39 64  1  0  0  0
 39 67  2  0  0  0
 40 52  1  0  0  0
 40 53  2  0  0  0
 40 58  1  0  0  0
 41113  1  0  0  0
 41114  1  0  0  0
 41115  1  0  0  0
 41 48  1  0  0  0
 42 43  1  0  0  0
 42 66  1  0  0  0
 42116  1  0  0  0
 42117  1  0  0  0
 43 44  1  0  0  0
 44118  1  0  0  0
 45 46  2  0  0  0
 45119  1  0  0  0
 46120  1  0  0  0
 47121  1  0  0  0
 47122  1  0  0  0
 48 56  1  0  0  0
 48 65  1  0  0  0
 48123  1  0  0  0
 49 50  1  0  0  0
 49 53  1  0  0  0
 49 64  1  0  0  0
 49124  1  0  0  0
 50 51  1  0  0  0
 50125  1  0  0  0
 50126  1  0  0  0
 51 52  1  0  0  0
 51127  1  0  0  0
 51128  1  0  0  0
 52129  1  0  0  0
 52130  1  0  0  0
 53 54  1  0  0  0
 54 55  2  0  0  0
 54131  1  0  0  0
 55 57  1  0  0  0
 55132  1  0  0  0
 56 69  2  0  0  0
 57 58  2  0  0  0
 57133  1  0  0  0
 58134  1  0  0  0
 59 60  1  0  0  0
 59 61  1  0  0  0
 59 62  1  0  0  0
 60135  1  0  0  0
 60136  1  0  0  0
 60137  1  0  0  0
 61138  1  0  0  0
 61139  1  0  0  0
 61140  1  0  0  0
 62141  1  0  0  0
 62142  1  0  0  0
 62143  1  0  0  0
 63 65  1  0  0  0
 63144  1  0  0  0
 63145  1  0  0  0
 63146  1  0  0  0
 64147  1  0  0  0
 65148  1  0  0  0
 68 87  1  0  0  0
 71 73  2  0  0  0
 71 74  1  0  0  0
 71149  1  0  0  0
 72 73  1  0  0  0
 72 75  2  0  0  0
 72150  1  0  0  0
 73 79  1  0  0  0
 74 76  2  0  0  0
 74 77  1  0  0  0
 75 76  1  0  0  0
 75 78  1  0  0  0
 76 88  1  0  0  0
 77151  1  0  0  0
 77152  1  0  0  0
 77153  1  0  0  0
 78154  1  0  0  0
 78155  1  0  0  0
 78156  1  0  0  0
 79 87  1  0  0  0
 79157  1  0  0  0
 79158  1  0  0  0
 80 81  1  0  0  0
 80 82  1  0  0  0
 80159  1  0  0  0
 80160  1  0  0  0
 81 83  1  0  0  0
 81161  1  0  0  0
 81162  1  0  0  0
 82 84  1  0  0  0
 82163  1  0  0  0
 82164  1  0  0  0
 83 85  1  0  0  0
 83165  1  0  0  0
 83166  1  0  0  0
 84 86  1  0  0  0
 84167  1  0  0  0
 84168  1  0  0  0
 85 88  1  0  0  0
 85169  1  0  0  0
 85170  1  0  0  0
 86 89  1  0  0  0
 86171  1  0  0  0
 86172  1  0  0  0
 87173  1  0  0  0
 87174  1  0  0  0
 88175  1  0  0  0
 89176  1  0  0  0
M  ISO  4   1 100  68 101  87 101  89 100
M  END
> <chiral flag>
0

> <version>
0

> <s_m_source_file>
/data/baiqing/PycharmProjects/Reinvent-master-3.2/result/LINK_invent/BTK/process_docking_weight1_custom_sum_contain_oxygen_bond_distance_aromatic_linkinvent_7_9_3/rearranged_h_0024.sdf

> <i_m_source_file_index>
28

> <r_mmod_Potential_Energy-OPLS-2005>
-124.125122070312

> <r_mmod_Stretch_Energy-OPLS-2005>
33.3108749389648

> <r_mmod_Bend_Energy-OPLS-2005>
109.979560852051

> <r_mmod_Torsional_Energy-OPLS-2005>
209.529647827148

> <r_mmod_Improper_Torsional_Energy-OPLS-2005>
10.001033782959

> <r_mmod_Van_der_Waal_Energy-OPLS-2005>
149.501129150391

> <r_mmod_Electrostatic_Energy-OPLS-2005>
-435.407135009766

> <r_mmod_Solvation_Energy-OPLS-2005>
-210.911331176758

> <b_mmod_Minimization_Converged-OPLS-2005>
0

> <r_mmod_RMS_Derivative-OPLS-2005>
3.59451079368591

$$$$
28
                    3D
 Structure written by MMmdl.
161169  0  0  1  0            999 V2000
  -30.6894  -14.4562   20.5616 C   0  0  0  0  0  0
  -30.4149  -12.2913   19.4102 C   0  0  0  0  0  0
  -29.4819  -12.4737   18.1955 C   0  0  0  0  0  0
  -28.0086  -12.3141   18.6253 C   0  0  0  0  0  0
  -27.6517  -13.1895   19.8590 C   0  0  2  0  0  0
  -28.6923  -12.9855   20.9807 C   0  0  0  0  0  0
  -25.2539  -13.8168   20.5672 C   0  0  0  0  0  0
  -24.1782  -13.0445   20.9184 C   0  0  0  0  0  0
  -24.6340  -11.6911   20.8761 C   0  0  0  0  0  0
  -23.9027  -10.4286   21.0434 C   0  0  0  0  0  0
  -24.3594   -9.4189   21.9188 C   0  0  0  0  0  0
  -23.6265   -8.2213   22.0754 C   0  0  0  0  0  0
  -22.4232   -8.0267   21.3548 C   0  0  0  0  0  0
  -21.9871   -9.0248   20.4651 C   0  0  0  0  0  0
  -22.7207  -10.2130   20.3075 C   0  0  0  0  0  0
  -21.6827   -6.0727   22.5294 C   0  0  0  0  0  0
  -21.3971   -6.5637   23.8229 C   0  0  0  0  0  0
  -21.3654   -5.6788   24.9189 C   0  0  0  0  0  0
  -21.6039   -4.3047   24.7245 C   0  0  0  0  0  0
  -21.8803   -3.8145   23.4349 C   0  0  0  0  0  0
  -21.9180   -4.6955   22.3420 C   0  0  0  0  0  0
  -22.7822  -13.5266   21.1866 C   0  0  0  0  0  0
  -22.1643   -4.2141   21.0989 F   0  0  0  0  0  0
  -21.5648   -3.4545   25.7760 F   0  0  0  0  0  0
  -30.0194  -13.2835   20.4195 N   0  0  0  0  0  0
  -26.2935  -12.9295   20.3304 N   0  0  0  0  0  0
  -25.9240  -11.6498   20.5754 N   0  0  0  0  0  0
  -22.0485  -12.8255   22.0456 N   0  0  0  0  0  0
  -25.4270  -15.1879   20.4073 N   0  0  0  0  0  0
  -31.8358  -14.6351   20.1418 O   0  0  0  0  0  0
  -21.6589   -6.8855   21.4255 O   0  0  0  0  0  0
  -22.3501  -14.5585   20.6725 O   0  0  0  0  0  0
  -24.6161  -31.8661   23.2021 C   0  0  0  0  0  0
  -25.9072  -32.4811   23.8305 C   0  0  1  0  0  0
  -27.2508  -27.4358   20.0702 C   0  0  0  0  0  0
  -25.5977  -33.8605   24.2286 N   0  0  0  0  0  0
  -23.3973  -30.4851   21.5492 C   0  0  2  0  0  0
  -24.8399  -28.9389   20.1144 C   0  0  0  0  0  0
  -22.7391  -29.4689   22.5067 C   0  0  0  0  0  0
  -18.0251  -28.1353   22.8499 C   0  0  0  0  0  0
  -24.1498  -36.7325   23.2623 C   0  0  0  0  0  0
  -25.9139  -30.8403   21.3292 C   0  0  0  0  0  0
  -25.9995  -29.4624   20.7016 C   0  0  0  0  0  0
  -27.2004  -28.7138   20.6819 C   0  0  0  0  0  0
  -26.0668  -26.9314   19.4794 C   0  0  0  0  0  0
  -24.8685  -27.6733   19.5064 C   0  0  0  0  0  0
  -23.5954  -29.7993   20.1673 C   0  0  0  0  0  0
  -25.4118  -36.3104   24.0315 C   0  0  1  0  0  0
  -20.5839  -28.3639   23.1348 C   0  0  2  0  0  0
  -20.6756  -26.9403   22.5318 C   0  0  0  0  0  0
  -19.5723  -26.6426   21.5131 C   0  0  0  0  0  0
  -18.1883  -26.7920   22.1511 C   0  0  0  0  0  0
  -19.1499  -28.8803   23.2940 C   0  0  0  0  0  0
  -18.9423  -30.1410   23.8979 C   0  0  0  0  0  0
  -17.6439  -30.6567   24.0622 C   0  0  0  0  0  0
  -25.9052  -34.9485   23.5095 C   0  0  0  0  0  0
  -16.5332  -29.9092   23.6304 C   0  0  0  0  0  0
  -16.7248  -28.6511   23.0322 C   0  0  0  0  0  0
  -26.4523  -31.6557   25.0590 C   0  0  0  0  0  0
  -25.3842  -31.3633   26.1359 C   0  0  0  0  0  0
  -27.0272  -30.3022   24.5826 C   0  0  0  0  0  0
  -27.6119  -32.4218   25.7405 C   0  0  0  0  0  0
  -27.5578  -37.1813   24.8457 C   0  0  0  0  0  0
  -21.4119  -29.3061   22.3816 N   0  0  0  0  0  0
  -26.4297  -37.3801   23.9407 N   0  0  0  0  0  0
  -24.6643  -31.0788   22.0895 N   0  0  0  0  0  0
  -23.4198  -28.8247   23.3080 O   0  0  0  0  0  0
  -28.4542  -26.7482   20.0729 O   0  0  0  0  0  0
  -26.5576  -34.8957   22.4616 O   0  0  0  0  0  0
  -23.5383  -32.1372   23.7500 O   0  0  0  0  0  0
  -29.3554  -20.4637   21.2433 C   0  0  0  0  0  0
  -29.2536  -18.1755   19.5926 C   0  0  0  0  0  0
  -29.8571  -18.0752   20.8864 C   0  0  0  0  0  0
  -28.6302  -20.5380   20.0430 C   0  0  0  0  0  0
  -29.9297  -19.2555   21.6775 C   0  0  0  0  0  0
  -28.5873  -19.3801   19.2106 C   0  0  0  0  0  0
  -29.3553  -17.0264   18.5866 C   0  0  0  0  0  0
  -26.4792  -21.6780   19.6734 C   0  0  0  0  0  0
  -30.4893  -16.7852   21.4622 C   0  0  0  0  0  0
  -28.3027  -24.2365   20.0463 C   0  0  0  0  0  0
  -28.6467  -22.9324   19.2616 C   0  0  0  0  0  0
  -28.6422  -25.5485   19.2921 C   0  0  0  0  0  0
  -29.9656  -15.4676   21.0712 N   0  0  0  0  0  0
  -27.9378  -21.7420   19.7620 N   0  0  0  0  0  0
  -30.7350  -19.2783   23.2085 Cl  0  0  0  0  0  0
  -27.7044  -19.4394   17.7168 Cl  0  0  0  0  0  0
  -31.4593  -12.3874   19.1086 H   0  0  0  0  0  0
  -30.3165  -11.2816   19.8159 H   0  0  0  0  0  0
  -29.7228  -11.7481   17.4170 H   0  0  0  0  0  0
  -29.6336  -13.4601   17.7525 H   0  0  0  0  0  0
  -27.8482  -11.2606   18.8667 H   0  0  0  0  0  0
  -27.3414  -12.5315   17.7905 H   0  0  0  0  0  0
  -27.6919  -14.2302   19.5387 H   0  0  0  0  0  0
  -28.6718  -11.9520   21.3304 H   0  0  0  0  0  0
  -28.4518  -13.5941   21.8543 H   0  0  0  0  0  0
  -25.2772   -9.5617   22.4723 H   0  0  0  0  0  0
  -23.9976   -7.4586   22.7466 H   0  0  0  0  0  0
  -21.0797   -8.8746   19.8959 H   0  0  0  0  0  0
  -22.3683  -10.9635   19.6138 H   0  0  0  0  0  0
  -21.1908   -7.6134   23.9734 H   0  0  0  0  0  0
  -21.1512   -6.0505   25.9093 H   0  0  0  0  0  0
  -22.0586   -2.7608   23.2864 H   0  0  0  0  0  0
  -22.4167  -11.9945   22.4835 H   0  0  0  0  0  0
  -21.1121  -13.1260   22.2754 H   0  0  0  0  0  0
  -24.6672  -15.8459   20.5343 H   0  0  0  0  0  0
  -26.2863  -15.6308   20.1078 H   0  0  0  0  0  0
  -26.7139  -32.5546   23.1074 H   0  0  0  0  0  0
  -25.0222  -33.9743   25.0501 H   0  0  0  0  0  0
  -22.6864  -31.3013   21.4094 H   0  0  0  0  0  0
  -23.3735  -35.9675   23.3266 H   0  0  0  0  0  0
  -24.3580  -36.8957   22.2037 H   0  0  0  0  0  0
  -23.7275  -37.6543   23.6631 H   0  0  0  0  0  0
  -25.9681  -31.5816   20.5317 H   0  0  0  0  0  0
  -26.8260  -30.9436   21.9027 H   0  0  0  0  0  0
  -28.0966  -29.1238   21.1242 H   0  0  0  0  0  0
  -26.0460  -25.9707   18.9880 H   0  0  0  0  0  0
  -23.9744  -27.2646   19.0523 H   0  0  0  0  0  0
  -23.6920  -30.5590   19.3927 H   0  0  0  0  0  0
  -22.7219  -29.2072   19.8827 H   0  0  0  0  0  0
  -25.1300  -36.1945   25.0806 H   0  0  0  0  0  0
  -20.9894  -28.3069   24.1484 H   0  0  0  0  0  0
  -20.5803  -26.2171   23.3423 H   0  0  0  0  0  0
  -21.6593  -26.7528   22.0973 H   0  0  0  0  0  0
  -19.6621  -27.3283   20.6684 H   0  0  0  0  0  0
  -19.6953  -25.6377   21.1072 H   0  0  0  0  0  0
  -17.4221  -26.6780   21.3834 H   0  0  0  0  0  0
  -18.0234  -25.9941   22.8774 H   0  0  0  0  0  0
  -19.7885  -30.7240   24.2423 H   0  0  0  0  0  0
  -17.4950  -31.6212   24.5268 H   0  0  0  0  0  0
  -15.5317  -30.2996   23.7583 H   0  0  0  0  0  0
  -15.8667  -28.0835   22.6988 H   0  0  0  0  0  0
  -24.6117  -30.6839   25.7734 H   0  0  0  0  0  0
  -24.8931  -32.2770   26.4724 H   0  0  0  0  0  0
  -25.8304  -30.8938   27.0133 H   0  0  0  0  0  0
  -26.2683  -29.6815   24.1043 H   0  0  0  0  0  0
  -27.4251  -29.7215   25.4149 H   0  0  0  0  0  0
  -27.8428  -30.4339   23.8707 H   0  0  0  0  0  0
  -27.2769  -33.3516   26.1993 H   0  0  0  0  0  0
  -28.4001  -32.6746   25.0307 H   0  0  0  0  0  0
  -28.0668  -31.8289   26.5351 H   0  0  0  0  0  0
  -28.2634  -38.0080   24.7513 H   0  0  0  0  0  0
  -28.1063  -36.2636   24.6295 H   0  0  0  0  0  0
  -27.2289  -37.1449   25.8857 H   0  0  0  0  0  0
  -20.9279  -29.8822   21.7072 H   0  0  0  0  0  0
  -26.0170  -38.2873   24.1418 H   0  0  0  0  0  0
  -29.4308  -21.3391   21.8740 H   0  0  0  0  0  0
  -28.5823  -16.2774   18.7574 H   0  0  0  0  0  0
  -30.3321  -16.5489   18.6452 H   0  0  0  0  0  0
  -29.2762  -17.3600   17.5536 H   0  0  0  0  0  0
  -26.0836  -20.7161   20.0019 H   0  0  0  0  0  0
  -26.1432  -21.8630   18.6492 H   0  0  0  0  0  0
  -26.0175  -22.4288   20.3166 H   0  0  0  0  0  0
  -30.3295  -16.7842   22.5405 H   0  0  0  0  0  0
  -31.5692  -16.8478   21.3212 H   0  0  0  0  0  0
  -28.8348  -24.2136   21.0000 H   0  0  0  0  0  0
  -27.2399  -24.2727   20.2820 H   0  0  0  0  0  0
  -29.7269  -22.7665   19.2585 H   0  0  0  0  0  0
  -28.3781  -23.0590   18.2112 H   0  0  0  0  0  0
  -28.1071  -25.6024   18.3423 H   0  0  0  0  0  0
  -29.6989  -25.5145   19.0245 H   0  0  0  0  0  0
  -29.0082  -15.2590   21.3194 H   0  0  0  0  0  0
  1 25  1  0  0  0
  1 30  2  0  0  0
  1 83  1  0  0  0
  2  3  1  0  0  0
  2 25  1  0  0  0
  2 87  1  0  0  0
  2 88  1  0  0  0
  3  4  1  0  0  0
  3 89  1  0  0  0
  3 90  1  0  0  0
  4  5  1  0  0  0
  4 91  1  0  0  0
  4 92  1  0  0  0
  5  6  1  0  0  0
  5 26  1  0  0  0
  5 93  1  0  0  0
  6 25  1  0  0  0
  6 94  1  0  0  0
  6 95  1  0  0  0
  7  8  2  0  0  0
  7 26  1  0  0  0
  7 29  1  0  0  0
  8  9  1  0  0  0
  8 22  1  0  0  0
  9 10  1  0  0  0
  9 27  2  0  0  0
 10 11  2  0  0  0
 10 15  1  0  0  0
 11 12  1  0  0  0
 11 96  1  0  0  0
 12 13  2  0  0  0
 12 97  1  0  0  0
 13 14  1  0  0  0
 13 31  1  0  0  0
 14 15  2  0  0  0
 14 98  1  0  0  0
 15 99  1  0  0  0
 16 17  2  0  0  0
 16 21  1  0  0  0
 16 31  1  0  0  0
 17 18  1  0  0  0
 17100  1  0  0  0
 18 19  2  0  0  0
 18101  1  0  0  0
 19 20  1  0  0  0
 19 24  1  0  0  0
 20 21  2  0  0  0
 20102  1  0  0  0
 21 23  1  0  0  0
 22 28  1  0  0  0
 22 32  2  0  0  0
 26 27  1  0  0  0
 28103  1  0  0  0
 28104  1  0  0  0
 29105  1  0  0  0
 29106  1  0  0  0
 33 34  1  0  0  0
 33 66  1  0  0  0
 33 70  2  0  0  0
 34 36  1  0  0  0
 34 59  1  0  0  0
 34107  1  0  0  0
 35 44  2  0  0  0
 35 45  1  0  0  0
 35 68  1  0  0  0
 36 56  1  0  0  0
 36108  1  0  0  0
 37 39  1  0  0  0
 37 47  1  0  0  0
 37 66  1  0  0  0
 37109  1  0  0  0
 38 43  2  0  0  0
 38 46  1  0  0  0
 38 47  1  0  0  0
 39 64  1  0  0  0
 39 67  2  0  0  0
 40 52  1  0  0  0
 40 53  2  0  0  0
 40 58  1  0  0  0
 41110  1  0  0  0
 41111  1  0  0  0
 41112  1  0  0  0
 41 48  1  0  0  0
 42 43  1  0  0  0
 42 66  1  0  0  0
 42113  1  0  0  0
 42114  1  0  0  0
 43 44  1  0  0  0
 44115  1  0  0  0
 45 46  2  0  0  0
 45116  1  0  0  0
 46117  1  0  0  0
 47118  1  0  0  0
 47119  1  0  0  0
 48 56  1  0  0  0
 48 65  1  0  0  0
 48120  1  0  0  0
 49 50  1  0  0  0
 49 53  1  0  0  0
 49 64  1  0  0  0
 49121  1  0  0  0
 50 51  1  0  0  0
 50122  1  0  0  0
 50123  1  0  0  0
 51 52  1  0  0  0
 51124  1  0  0  0
 51125  1  0  0  0
 52126  1  0  0  0
 52127  1  0  0  0
 53 54  1  0  0  0
 54 55  2  0  0  0
 54128  1  0  0  0
 55 57  1  0  0  0
 55129  1  0  0  0
 56 69  2  0  0  0
 57 58  2  0  0  0
 57130  1  0  0  0
 58131  1  0  0  0
 59 60  1  0  0  0
 59 61  1  0  0  0
 59 62  1  0  0  0
 60132  1  0  0  0
 60133  1  0  0  0
 60134  1  0  0  0
 61135  1  0  0  0
 61136  1  0  0  0
 61137  1  0  0  0
 62138  1  0  0  0
 62139  1  0  0  0
 62140  1  0  0  0
 63 65  1  0  0  0
 63141  1  0  0  0
 63142  1  0  0  0
 63143  1  0  0  0
 64144  1  0  0  0
 65145  1  0  0  0
 68 82  1  0  0  0
 71 74  2  0  0  0
 71 75  1  0  0  0
 71146  1  0  0  0
 72 73  1  0  0  0
 72 76  2  0  0  0
 72 77  1  0  0  0
 73 75  2  0  0  0
 73 79  1  0  0  0
 74 76  1  0  0  0
 74 84  1  0  0  0
 75 85  1  0  0  0
 76 86  1  0  0  0
 77147  1  0  0  0
 77148  1  0  0  0
 77149  1  0  0  0
 78 84  1  0  0  0
 78150  1  0  0  0
 78151  1  0  0  0
 78152  1  0  0  0
 79 83  1  0  0  0
 79153  1  0  0  0
 79154  1  0  0  0
 80 81  1  0  0  0
 80 82  1  0  0  0
 80155  1  0  0  0
 80156  1  0  0  0
 81 84  1  0  0  0
 81157  1  0  0  0
 81158  1  0  0  0
 82159  1  0  0  0
 82160  1  0  0  0
 83161  1  0  0  0
M  ISO  4   1 100  68 101  82 101  83 100
M  END
> <chiral flag>
0

> <version>
0

> <s_m_source_file>
/data/baiqing/PycharmProjects/Reinvent-master-3.2/result/LINK_invent/BTK/process_docking_weight1_custom_sum_contain_oxygen_bond_distance_aromatic_linkinvent_7_9_3/rearranged_h_0024.sdf

> <i_m_source_file_index>
29

> <r_mmod_Potential_Energy-OPLS-2005>
4.72545957565308

> <r_mmod_Stretch_Energy-OPLS-2005>
46.0127105712891

> <r_mmod_Bend_Energy-OPLS-2005>
127.38720703125

> <r_mmod_Torsional_Energy-OPLS-2005>
218.124740600586

> <r_mmod_Improper_Torsional_Energy-OPLS-2005>
3.86203265190125

> <r_mmod_Van_der_Waal_Energy-OPLS-2005>
154.758636474609

> <r_mmod_Electrostatic_Energy-OPLS-2005>
-348.984649658203

> <r_mmod_Solvation_Energy-OPLS-2005>
-210.498916625977

> <b_mmod_Minimization_Converged-OPLS-2005>
0

> <r_mmod_RMS_Derivative-OPLS-2005>
5.44354009628296

$$$$
29
                    3D
 Structure written by MMmdl.
159167  0  0  1  0            999 V2000
  -30.6675  -14.5272   20.5412 C   0  0  0  0  0  0
  -30.4285  -12.3331   19.4287 C   0  0  0  0  0  0
  -29.4977  -12.5032   18.2093 C   0  0  0  0  0  0
  -28.0190  -12.3558   18.6219 C   0  0  0  0  0  0
  -27.6568  -13.2081   19.8673 C   0  0  2  0  0  0
  -28.6998  -13.0154   20.9913 C   0  0  0  0  0  0
  -25.2574  -13.8162   20.5664 C   0  0  0  0  0  0
  -24.1833  -13.0436   20.9176 C   0  0  0  0  0  0
  -24.6390  -11.6904   20.8730 C   0  0  0  0  0  0
  -23.9059  -10.4290   21.0400 C   0  0  0  0  0  0
  -24.3608   -9.4210   21.9183 C   0  0  0  0  0  0
  -23.6286   -8.2244   22.0753 C   0  0  0  0  0  0
  -22.4268   -8.0281   21.3544 C   0  0  0  0  0  0
  -21.9900   -9.0256   20.4648 C   0  0  0  0  0  0
  -22.7226  -10.2135   20.3058 C   0  0  0  0  0  0
  -21.6850   -6.0737   22.5278 C   0  0  0  0  0  0
  -21.4014   -6.5639   23.8214 C   0  0  0  0  0  0
  -21.3663   -5.6788   24.9174 C   0  0  0  0  0  0
  -21.6041   -4.3051   24.7220 C   0  0  0  0  0  0
  -21.8821   -3.8147   23.4341 C   0  0  0  0  0  0
  -21.9194   -4.6965   22.3400 C   0  0  0  0  0  0
  -22.7857  -13.5239   21.1850 C   0  0  0  0  0  0
  -22.1662   -4.2150   21.0978 F   0  0  0  0  0  0
  -21.5632   -3.4541   25.7738 F   0  0  0  0  0  0
  -30.0239  -13.3314   20.4319 N   0  0  0  0  0  0
  -26.2996  -12.9327   20.3316 N   0  0  0  0  0  0
  -25.9313  -11.6487   20.5742 N   0  0  0  0  0  0
  -22.0493  -12.8238   22.0403 N   0  0  0  0  0  0
  -25.4283  -15.1876   20.4059 N   0  0  0  0  0  0
  -31.8185  -14.6967   20.1296 O   0  0  0  0  0  0
  -21.6637   -6.8875   21.4238 O   0  0  0  0  0  0
  -22.3545  -14.5548   20.6698 O   0  0  0  0  0  0
  -24.6174  -31.8646   23.2042 C   0  0  0  0  0  0
  -25.9056  -32.4805   23.8359 C   0  0  1  0  0  0
  -27.2369  -27.4012   20.1132 C   0  0  0  0  0  0
  -25.5911  -33.8602   24.2304 N   0  0  0  0  0  0
  -23.4075  -30.4842   21.5451 C   0  0  2  0  0  0
  -24.8557  -28.9369   20.1211 C   0  0  0  0  0  0
  -22.7428  -29.4644   22.4974 C   0  0  0  0  0  0
  -18.0275  -28.1377   22.8492 C   0  0  0  0  0  0
  -24.1484  -36.7313   23.2633 C   0  0  0  0  0  0
  -25.9370  -30.8225   21.3574 C   0  0  0  0  0  0
  -26.0155  -29.4494   20.7141 C   0  0  0  0  0  0
  -27.2125  -28.6916   20.7003 C   0  0  0  0  0  0
  -26.0599  -26.9038   19.5202 C   0  0  0  0  0  0
  -24.8738  -27.6654   19.5181 C   0  0  0  0  0  0
  -23.6188  -29.8079   20.1630 C   0  0  0  0  0  0
  -25.4101  -36.3105   24.0334 C   0  0  1  0  0  0
  -20.5868  -28.3675   23.1312 C   0  0  2  0  0  0
  -20.6767  -26.9408   22.5419 C   0  0  0  0  0  0
  -19.5745  -26.6387   21.5215 C   0  0  0  0  0  0
  -18.1925  -26.7926   22.1626 C   0  0  0  0  0  0
  -19.1526  -28.8838   23.2906 C   0  0  0  0  0  0
  -18.9459  -30.1445   23.8915 C   0  0  0  0  0  0
  -17.6460  -30.6589   24.0564 C   0  0  0  0  0  0
  -25.9032  -34.9468   23.5114 C   0  0  0  0  0  0
  -16.5347  -29.9092   23.6317 C   0  0  0  0  0  0
  -16.7265  -28.6505   23.0342 C   0  0  0  0  0  0
  -26.4474  -31.6588   25.0693 C   0  0  0  0  0  0
  -25.3741  -31.3701   26.1443 C   0  0  0  0  0  0
  -27.0280  -30.3023   24.6054 C   0  0  0  0  0  0
  -27.6057  -32.4289   25.7469 C   0  0  0  0  0  0
  -27.5579  -37.1809   24.8463 C   0  0  0  0  0  0
  -21.4152  -29.3041   22.3721 N   0  0  0  0  0  0
  -26.4283  -37.3797   23.9415 N   0  0  0  0  0  0
  -24.6726  -31.0726   22.0942 N   0  0  0  0  0  0
  -23.4189  -28.8194   23.3032 O   0  0  0  0  0  0
  -28.4106  -26.6745   20.0480 O   0  0  0  0  0  0
  -26.5604  -34.8926   22.4680 O   0  0  0  0  0  0
  -23.5358  -32.1402   23.7424 O   0  0  0  0  0  0
  -31.7015  -18.7517   21.7678 C   0  0  0  0  0  0
  -29.8555  -19.3124   20.2472 C   0  0  0  0  0  0
  -30.2503  -16.9562   20.9470 C   0  0  0  0  0  0
  -30.9653  -19.7009   21.0267 C   0  0  0  0  0  0
  -31.3421  -17.3894   21.7317 C   0  0  0  0  0  0
  -29.4907  -17.9270   20.2271 C   0  0  0  0  0  0
  -32.8940  -19.1882   22.6004 C   0  0  0  0  0  0
  -29.1902  -20.3799   19.3439 C   0  0  0  0  0  0
  -28.2571  -21.4611   19.9841 C   0  0  0  0  0  0
  -28.8848  -22.8239   20.4326 C   0  0  0  0  0  0
  -28.1364  -24.1195   19.9576 C   0  0  0  0  0  0
  -28.4870  -25.4156   20.7547 C   0  0  0  0  0  0
  -29.8899  -15.5648   20.9277 N   0  0  0  0  0  0
  -31.3488  -21.0005   21.0433 F   0  0  0  0  0  0
  -32.0397  -16.4986   22.4809 F   0  0  0  0  0  0
  -28.1342  -17.3828   19.2956 Cl  0  0  0  0  0  0
  -31.4721  -12.4429   19.1268 H   0  0  0  0  0  0
  -30.3424  -11.3269   19.8419 H   0  0  0  0  0  0
  -29.7456  -11.7704   17.4401 H   0  0  0  0  0  0
  -29.6558  -13.4847   17.7592 H   0  0  0  0  0  0
  -27.8370  -11.3009   18.8305 H   0  0  0  0  0  0
  -27.3684  -12.6164   17.7867 H   0  0  0  0  0  0
  -27.6910  -14.2504   19.5503 H   0  0  0  0  0  0
  -28.6865  -11.9852   21.3505 H   0  0  0  0  0  0
  -28.4601  -13.6317   21.8590 H   0  0  0  0  0  0
  -25.2757   -9.5697   22.4754 H   0  0  0  0  0  0
  -24.0007   -7.4636   22.7468 H   0  0  0  0  0  0
  -21.0837   -8.8771   19.8950 H   0  0  0  0  0  0
  -22.3684  -10.9674   19.6171 H   0  0  0  0  0  0
  -21.2007   -7.6148   23.9717 H   0  0  0  0  0  0
  -21.1481   -6.0519   25.9076 H   0  0  0  0  0  0
  -22.0598   -2.7611   23.2842 H   0  0  0  0  0  0
  -22.4098  -11.9901   22.4806 H   0  0  0  0  0  0
  -21.1115  -13.1280   22.2603 H   0  0  0  0  0  0
  -24.6559  -15.8360   20.5104 H   0  0  0  0  0  0
  -26.2673  -15.6300   20.0519 H   0  0  0  0  0  0
  -26.7141  -32.5519   23.1141 H   0  0  0  0  0  0
  -25.0068  -33.9755   25.0455 H   0  0  0  0  0  0
  -22.6970  -31.3007   21.4000 H   0  0  0  0  0  0
  -23.3740  -35.9656   23.3294 H   0  0  0  0  0  0
  -24.3570  -36.8921   22.2048 H   0  0  0  0  0  0
  -23.7245  -37.6521   23.6638 H   0  0  0  0  0  0
  -26.0420  -31.5792   20.5785 H   0  0  0  0  0  0
  -26.8292  -30.8886   21.9689 H   0  0  0  0  0  0
  -28.1150  -29.0900   21.1435 H   0  0  0  0  0  0
  -26.0629  -25.9345   19.0427 H   0  0  0  0  0  0
  -23.9834  -27.2674   19.0519 H   0  0  0  0  0  0
  -23.7319  -30.5776   19.3985 H   0  0  0  0  0  0
  -22.7436  -29.2260   19.8689 H   0  0  0  0  0  0
  -25.1283  -36.1962   25.0831 H   0  0  0  0  0  0
  -20.9965  -28.3246   24.1428 H   0  0  0  0  0  0
  -20.5662  -26.2288   23.3607 H   0  0  0  0  0  0
  -21.6642  -26.7441   22.1223 H   0  0  0  0  0  0
  -19.6907  -25.6303   21.1233 H   0  0  0  0  0  0
  -19.6684  -27.3204   20.6750 H   0  0  0  0  0  0
  -17.4197  -26.6676   21.4027 H   0  0  0  0  0  0
  -18.0330  -26.0070   22.9024 H   0  0  0  0  0  0
  -19.7933  -30.7260   24.2296 H   0  0  0  0  0  0
  -17.5008  -31.6265   24.5177 H   0  0  0  0  0  0
  -15.5347  -30.3000   23.7616 H   0  0  0  0  0  0
  -15.8670  -28.0825   22.7040 H   0  0  0  0  0  0
  -24.5939  -30.7011   25.7798 H   0  0  0  0  0  0
  -24.8901  -32.2851   26.4867 H   0  0  0  0  0  0
  -25.8103  -30.8911   27.0219 H   0  0  0  0  0  0
  -26.2818  -29.6825   24.1065 H   0  0  0  0  0  0
  -27.4010  -29.7214   25.4502 H   0  0  0  0  0  0
  -27.8674  -30.4338   23.9218 H   0  0  0  0  0  0
  -27.2697  -33.3593   26.2058 H   0  0  0  0  0  0
  -28.3875  -32.6827   25.0301 H   0  0  0  0  0  0
  -28.0711  -31.8391   26.5378 H   0  0  0  0  0  0
  -28.2603  -38.0102   24.7512 H   0  0  0  0  0  0
  -28.1069  -36.2633   24.6286 H   0  0  0  0  0  0
  -27.2294  -37.1466   25.8865 H   0  0  0  0  0  0
  -20.9310  -29.8771   21.6952 H   0  0  0  0  0  0
  -26.0167  -38.2875   24.1413 H   0  0  0  0  0  0
  -33.2293  -20.1927   22.3410 H   0  0  0  0  0  0
  -33.7344  -18.5110   22.4443 H   0  0  0  0  0  0
  -32.6394  -19.1788   23.6605 H   0  0  0  0  0  0
  -28.6162  -19.8657   18.5747 H   0  0  0  0  0  0
  -29.9790  -20.8803   18.7816 H   0  0  0  0  0  0
  -27.6618  -21.0231   20.7859 H   0  0  0  0  0  0
  -27.5296  -21.7062   19.2092 H   0  0  0  0  0  0
  -29.9180  -22.8887   20.0891 H   0  0  0  0  0  0
  -28.9484  -22.8218   21.5221 H   0  0  0  0  0  0
  -27.0589  -23.9644   20.0120 H   0  0  0  0  0  0
  -28.3644  -24.2770   18.9030 H   0  0  0  0  0  0
  -29.5246  -25.3381   21.0813 H   0  0  0  0  0  0
  -27.9011  -25.4596   21.6739 H   0  0  0  0  0  0
  -28.9157  -15.3539   21.0729 H   0  0  0  0  0  0
  1 25  1  0  0  0
  1 30  2  0  0  0
  1 83  1  0  0  0
  2  3  1  0  0  0
  2 25  1  0  0  0
  2 87  1  0  0  0
  2 88  1  0  0  0
  3  4  1  0  0  0
  3 89  1  0  0  0
  3 90  1  0  0  0
  4  5  1  0  0  0
  4 91  1  0  0  0
  4 92  1  0  0  0
  5  6  1  0  0  0
  5 26  1  0  0  0
  5 93  1  0  0  0
  6 25  1  0  0  0
  6 94  1  0  0  0
  6 95  1  0  0  0
  7  8  2  0  0  0
  7 26  1  0  0  0
  7 29  1  0  0  0
  8  9  1  0  0  0
  8 22  1  0  0  0
  9 10  1  0  0  0
  9 27  2  0  0  0
 10 11  2  0  0  0
 10 15  1  0  0  0
 11 12  1  0  0  0
 11 96  1  0  0  0
 12 13  2  0  0  0
 12 97  1  0  0  0
 13 14  1  0  0  0
 13 31  1  0  0  0
 14 15  2  0  0  0
 14 98  1  0  0  0
 15 99  1  0  0  0
 16 17  2  0  0  0
 16 21  1  0  0  0
 16 31  1  0  0  0
 17 18  1  0  0  0
 17100  1  0  0  0
 18 19  2  0  0  0
 18101  1  0  0  0
 19 20  1  0  0  0
 19 24  1  0  0  0
 20 21  2  0  0  0
 20102  1  0  0  0
 21 23  1  0  0  0
 22 28  1  0  0  0
 22 32  2  0  0  0
 26 27  1  0  0  0
 28103  1  0  0  0
 28104  1  0  0  0
 29105  1  0  0  0
 29106  1  0  0  0
 33 34  1  0  0  0
 33 66  1  0  0  0
 33 70  2  0  0  0
 34 36  1  0  0  0
 34 59  1  0  0  0
 34107  1  0  0  0
 35 44  2  0  0  0
 35 45  1  0  0  0
 35 68  1  0  0  0
 36 56  1  0  0  0
 36108  1  0  0  0
 37 39  1  0  0  0
 37 47  1  0  0  0
 37 66  1  0  0  0
 37109  1  0  0  0
 38 43  2  0  0  0
 38 46  1  0  0  0
 38 47  1  0  0  0
 39 64  1  0  0  0
 39 67  2  0  0  0
 40 52  1  0  0  0
 40 53  2  0  0  0
 40 58  1  0  0  0
 41110  1  0  0  0
 41111  1  0  0  0
 41112  1  0  0  0
 41 48  1  0  0  0
 42 43  1  0  0  0
 42 66  1  0  0  0
 42113  1  0  0  0
 42114  1  0  0  0
 43 44  1  0  0  0
 44115  1  0  0  0
 45 46  2  0  0  0
 45116  1  0  0  0
 46117  1  0  0  0
 47118  1  0  0  0
 47119  1  0  0  0
 48 56  1  0  0  0
 48 65  1  0  0  0
 48120  1  0  0  0
 49 50  1  0  0  0
 49 53  1  0  0  0
 49 64  1  0  0  0
 49121  1  0  0  0
 50 51  1  0  0  0
 50122  1  0  0  0
 50123  1  0  0  0
 51 52  1  0  0  0
 51124  1  0  0  0
 51125  1  0  0  0
 52126  1  0  0  0
 52127  1  0  0  0
 53 54  1  0  0  0
 54 55  2  0  0  0
 54128  1  0  0  0
 55 57  1  0  0  0
 55129  1  0  0  0
 56 69  2  0  0  0
 57 58  2  0  0  0
 57130  1  0  0  0
 58131  1  0  0  0
 59 60  1  0  0  0
 59 61  1  0  0  0
 59 62  1  0  0  0
 60132  1  0  0  0
 60133  1  0  0  0
 60134  1  0  0  0
 61135  1  0  0  0
 61136  1  0  0  0
 61137  1  0  0  0
 62138  1  0  0  0
 62139  1  0  0  0
 62140  1  0  0  0
 63 65  1  0  0  0
 63141  1  0  0  0
 63142  1  0  0  0
 63143  1  0  0  0
 64144  1  0  0  0
 65145  1  0  0  0
 68 82  1  0  0  0
 71 74  2  0  0  0
 71 75  1  0  0  0
 71 77  1  0  0  0
 72 74  1  0  0  0
 72 76  2  0  0  0
 72 78  1  0  0  0
 73 75  2  0  0  0
 73 76  1  0  0  0
 73 83  1  0  0  0
 74 84  1  0  0  0
 75 85  1  0  0  0
 76 86  1  0  0  0
 77146  1  0  0  0
 77147  1  0  0  0
 77148  1  0  0  0
 78 79  1  0  0  0
 78149  1  0  0  0
 78150  1  0  0  0
 79 80  1  0  0  0
 79151  1  0  0  0
 79152  1  0  0  0
 80 81  1  0  0  0
 80153  1  0  0  0
 80154  1  0  0  0
 81 82  1  0  0  0
 81155  1  0  0  0
 81156  1  0  0  0
 82157  1  0  0  0
 82158  1  0  0  0
 83159  1  0  0  0
M  ISO  4   1 100  68 101  82 101  83 100
M  END
> <chiral flag>
0

> <version>
0

> <s_m_source_file>
/data/baiqing/PycharmProjects/Reinvent-master-3.2/result/LINK_invent/BTK/process_docking_weight1_custom_sum_contain_oxygen_bond_distance_aromatic_linkinvent_7_9_3/rearranged_h_0024.sdf

> <i_m_source_file_index>
30

> <r_mmod_Potential_Energy-OPLS-2005>
-46.216968536377

> <r_mmod_Stretch_Energy-OPLS-2005>
47.7711791992188

> <r_mmod_Bend_Energy-OPLS-2005>
108.800216674805

> <r_mmod_Torsional_Energy-OPLS-2005>
268.555694580078

> <r_mmod_Improper_Torsional_Energy-OPLS-2005>
5.82602739334106

> <r_mmod_Van_der_Waal_Energy-OPLS-2005>
141.664611816406

> <r_mmod_Electrostatic_Energy-OPLS-2005>
-446.457489013672

> <r_mmod_Solvation_Energy-OPLS-2005>
-190.776962280273

> <b_mmod_Minimization_Converged-OPLS-2005>
0

> <r_mmod_RMS_Derivative-OPLS-2005>
1.47014498710632

$$$$
30
                    3D
 Structure written by MMmdl.
158166  0  0  1  0            999 V2000
  -30.6150  -14.6239   20.5235 C   0  0  0  0  0  0
  -30.4403  -12.3854   19.4565 C   0  0  0  0  0  0
  -29.5106  -12.5149   18.2286 C   0  0  0  0  0  0
  -28.0314  -12.3533   18.6339 C   0  0  0  0  0  0
  -27.6558  -13.2135   19.8696 C   0  0  2  0  0  0
  -28.6966  -13.0434   20.9997 C   0  0  0  0  0  0
  -25.2542  -13.8156   20.5632 C   0  0  0  0  0  0
  -24.1819  -13.0432   20.9175 C   0  0  0  0  0  0
  -24.6393  -11.6903   20.8754 C   0  0  0  0  0  0
  -23.9068  -10.4288   21.0424 C   0  0  0  0  0  0
  -24.3621   -9.4202   21.9198 C   0  0  0  0  0  0
  -23.6297   -8.2237   22.0761 C   0  0  0  0  0  0
  -22.4279   -8.0280   21.3548 C   0  0  0  0  0  0
  -21.9914   -9.0256   20.4654 C   0  0  0  0  0  0
  -22.7245  -10.2134   20.3069 C   0  0  0  0  0  0
  -21.6844   -6.0745   22.5287 C   0  0  0  0  0  0
  -21.4009   -6.5649   23.8222 C   0  0  0  0  0  0
  -21.3660   -5.6800   24.9182 C   0  0  0  0  0  0
  -21.6042   -4.3062   24.7228 C   0  0  0  0  0  0
  -21.8820   -3.8156   23.4347 C   0  0  0  0  0  0
  -21.9189   -4.6975   22.3406 C   0  0  0  0  0  0
  -22.7844  -13.5230   21.1846 C   0  0  0  0  0  0
  -22.1658   -4.2164   21.0982 F   0  0  0  0  0  0
  -21.5628   -3.4544   25.7737 F   0  0  0  0  0  0
  -30.0178  -13.3915   20.4503 N   0  0  0  0  0  0
  -26.2989  -12.9338   20.3326 N   0  0  0  0  0  0
  -25.9322  -11.6497   20.5770 N   0  0  0  0  0  0
  -22.0488  -12.8233   22.0411 N   0  0  0  0  0  0
  -25.4208  -15.1866   20.3966 N   0  0  0  0  0  0
  -31.7572  -14.8060   20.0859 O   0  0  0  0  0  0
  -21.6632   -6.8883   21.4245 O   0  0  0  0  0  0
  -22.3521  -14.5536   20.6695 O   0  0  0  0  0  0
  -24.6230  -31.8600   23.2013 C   0  0  0  0  0  0
  -25.9088  -32.4777   23.8344 C   0  0  1  0  0  0
  -27.2299  -27.3439   20.1305 C   0  0  0  0  0  0
  -25.5918  -33.8580   24.2283 N   0  0  0  0  0  0
  -23.4162  -30.4802   21.5412 C   0  0  2  0  0  0
  -24.8652  -28.9298   20.1141 C   0  0  0  0  0  0
  -22.7447  -29.4624   22.4929 C   0  0  0  0  0  0
  -18.0279  -28.1386   22.8495 C   0  0  0  0  0  0
  -24.1487  -36.7293   23.2638 C   0  0  0  0  0  0
  -25.9520  -30.8018   21.3647 C   0  0  0  0  0  0
  -26.0291  -29.4281   20.7129 C   0  0  0  0  0  0
  -27.2173  -28.6473   20.7055 C   0  0  0  0  0  0
  -26.0509  -26.8813   19.5138 C   0  0  0  0  0  0
  -24.8755  -27.6609   19.5060 C   0  0  0  0  0  0
  -23.6308  -29.8062   20.1592 C   0  0  0  0  0  0
  -25.4109  -36.3084   24.0330 C   0  0  1  0  0  0
  -20.5877  -28.3683   23.1293 C   0  0  2  0  0  0
  -20.6759  -26.9407   22.5410 C   0  0  0  0  0  0
  -19.5738  -26.6393   21.5205 C   0  0  0  0  0  0
  -18.1919  -26.7933   22.1624 C   0  0  0  0  0  0
  -19.1533  -28.8847   23.2895 C   0  0  0  0  0  0
  -18.9458  -30.1450   23.8913 C   0  0  0  0  0  0
  -17.6459  -30.6587   24.0566 C   0  0  0  0  0  0
  -25.9047  -34.9455   23.5108 C   0  0  0  0  0  0
  -16.5350  -29.9089   23.6330 C   0  0  0  0  0  0
  -16.7266  -28.6505   23.0355 C   0  0  0  0  0  0
  -26.4495  -31.6579   25.0704 C   0  0  0  0  0  0
  -25.3746  -31.3708   26.1444 C   0  0  0  0  0  0
  -27.0324  -30.3002   24.6136 C   0  0  0  0  0  0
  -27.6060  -32.4304   25.7484 C   0  0  0  0  0  0
  -27.5575  -37.1796   24.8466 C   0  0  0  0  0  0
  -21.4163  -29.3039   22.3679 N   0  0  0  0  0  0
  -26.4287  -37.3775   23.9411 N   0  0  0  0  0  0
  -24.6822  -31.0640   22.0940 N   0  0  0  0  0  0
  -23.4175  -28.8176   23.3013 O   0  0  0  0  0  0
  -28.3723  -26.5453   20.1383 O   0  0  0  0  0  0
  -26.5609  -34.8917   22.4671 O   0  0  0  0  0  0
  -23.5397  -32.1389   23.7356 O   0  0  0  0  0  0
  -29.1465  -19.8167   20.2051 C   0  0  0  0  0  0
  -28.3507  -19.0805   21.1209 C   0  0  0  0  0  0
  -28.6377  -17.7124   21.4041 C   0  0  0  0  0  0
  -30.2449  -19.0901   19.6622 C   0  0  0  0  0  0
  -29.7181  -17.0510   20.7621 C   0  0  0  0  0  0
  -31.2031  -19.7345   18.6804 C   0  0  0  0  0  0
  -28.7141  -21.2450   19.6886 C   0  0  0  0  0  0
  -28.8748  -22.5422   20.5823 C   0  0  0  0  0  0
  -28.3037  -23.9073   19.9725 C   0  0  0  0  0  0
  -28.3898  -25.2402   20.8421 C   0  0  1  0  0  0
  -27.4949  -25.2104   22.1167 C   0  0  0  0  0  0
  -30.5108  -17.7743   19.9251 N   0  0  0  0  0  0
  -29.8324  -15.6228   21.0273 N   0  0  0  0  0  0
  -27.5965  -26.3502   22.8011 F   0  0  0  0  0  0
  -27.9003  -24.2419   22.9371 F   0  0  0  0  0  0
  -26.2155  -24.9879   21.8133 F   0  0  0  0  0  0
  -26.9746  -19.8349   21.8553 Cl  0  0  0  0  0  0
  -27.6346  -16.8294   22.5105 Cl  0  0  0  0  0  0
  -31.4820  -12.5137   19.1574 H   0  0  0  0  0  0
  -30.3770  -11.3840   19.8862 H   0  0  0  0  0  0
  -29.7763  -11.7699   17.4773 H   0  0  0  0  0  0
  -29.6552  -13.4885   17.7581 H   0  0  0  0  0  0
  -27.8639  -11.2984   18.8541 H   0  0  0  0  0  0
  -27.3810  -12.5955   17.7925 H   0  0  0  0  0  0
  -27.6820  -14.2532   19.5421 H   0  0  0  0  0  0
  -28.7029  -12.0130   21.3589 H   0  0  0  0  0  0
  -28.4321  -13.6511   21.8663 H   0  0  0  0  0  0
  -25.2771   -9.5678   22.4766 H   0  0  0  0  0  0
  -24.0013   -7.4626   22.7481 H   0  0  0  0  0  0
  -21.0843   -8.8785   19.8954 H   0  0  0  0  0  0
  -22.3721  -10.9678   19.6176 H   0  0  0  0  0  0
  -21.1998   -7.6158   23.9733 H   0  0  0  0  0  0
  -21.1479   -6.0526   25.9088 H   0  0  0  0  0  0
  -22.0594   -2.7620   23.2844 H   0  0  0  0  0  0
  -22.4092  -11.9892   22.4804 H   0  0  0  0  0  0
  -21.1110  -13.1276   22.2616 H   0  0  0  0  0  0
  -24.6582  -15.8407   20.5295 H   0  0  0  0  0  0
  -26.2802  -15.6357   20.1126 H   0  0  0  0  0  0
  -26.7154  -32.5465   23.1096 H   0  0  0  0  0  0
  -25.0071  -33.9723   25.0432 H   0  0  0  0  0  0
  -22.7091  -31.2988   21.3924 H   0  0  0  0  0  0
  -23.3746  -35.9631   23.3311 H   0  0  0  0  0  0
  -24.3573  -36.8905   22.2050 H   0  0  0  0  0  0
  -23.7242  -37.6499   23.6654 H   0  0  0  0  0  0
  -26.0754  -31.5642   20.5942 H   0  0  0  0  0  0
  -26.8345  -30.8565   21.9905 H   0  0  0  0  0  0
  -28.1173  -29.0256   21.1699 H   0  0  0  0  0  0
  -26.0378  -25.9056   19.0490 H   0  0  0  0  0  0
  -23.9821  -27.2715   19.0377 H   0  0  0  0  0  0
  -23.7463  -30.5774   19.3968 H   0  0  0  0  0  0
  -22.7535  -29.2291   19.8616 H   0  0  0  0  0  0
  -25.1287  -36.1936   25.0820 H   0  0  0  0  0  0
  -20.9989  -28.3262   24.1411 H   0  0  0  0  0  0
  -20.5644  -26.2294   23.3608 H   0  0  0  0  0  0
  -21.6631  -26.7422   22.1218 H   0  0  0  0  0  0
  -19.6898  -25.6312   21.1218 H   0  0  0  0  0  0
  -19.6683  -27.3218   20.6748 H   0  0  0  0  0  0
  -17.4188  -26.6689   21.4028 H   0  0  0  0  0  0
  -18.0325  -26.0069   22.9016 H   0  0  0  0  0  0
  -19.7935  -30.7253   24.2300 H   0  0  0  0  0  0
  -17.5016  -31.6272   24.5162 H   0  0  0  0  0  0
  -15.5353  -30.2992   23.7646 H   0  0  0  0  0  0
  -15.8668  -28.0818   22.7075 H   0  0  0  0  0  0
  -24.5936  -30.7031   25.7791 H   0  0  0  0  0  0
  -24.8923  -32.2869   26.4867 H   0  0  0  0  0  0
  -25.8102  -30.8907   27.0218 H   0  0  0  0  0  0
  -26.2886  -29.6760   24.1169 H   0  0  0  0  0  0
  -27.4027  -29.7249   25.4633 H   0  0  0  0  0  0
  -27.8755  -30.4277   23.9340 H   0  0  0  0  0  0
  -27.2676  -33.3597   26.2076 H   0  0  0  0  0  0
  -28.3881  -32.6867   25.0325 H   0  0  0  0  0  0
  -28.0717  -31.8413   26.5397 H   0  0  0  0  0  0
  -28.2595  -38.0091   24.7506 H   0  0  0  0  0  0
  -28.1065  -36.2618   24.6300 H   0  0  0  0  0  0
  -27.2291  -37.1460   25.8869 H   0  0  0  0  0  0
  -20.9324  -29.8764   21.6904 H   0  0  0  0  0  0
  -26.0171  -38.2852   24.1415 H   0  0  0  0  0  0
  -31.5024  -20.7222   19.0300 H   0  0  0  0  0  0
  -30.7336  -19.8406   17.7022 H   0  0  0  0  0  0
  -32.1100  -19.1414   18.5593 H   0  0  0  0  0  0
  -27.6590  -21.1625   19.4241 H   0  0  0  0  0  0
  -29.2005  -21.4370   18.7334 H   0  0  0  0  0  0
  -28.3883  -22.3471   21.5359 H   0  0  0  0  0  0
  -29.9314  -22.6780   20.8142 H   0  0  0  0  0  0
  -27.2625  -23.7557   19.6853 H   0  0  0  0  0  0
  -28.8367  -24.0932   19.0400 H   0  0  0  0  0  0
  -29.4095  -25.2337   21.2276 H   0  0  0  0  0  0
  -29.0296  -15.2718   21.5255 H   0  0  0  0  0  0
  1 25  1  0  0  0
  1 30  2  0  0  0
  1 83  1  0  0  0
  2  3  1  0  0  0
  2 25  1  0  0  0
  2 89  1  0  0  0
  2 90  1  0  0  0
  3  4  1  0  0  0
  3 91  1  0  0  0
  3 92  1  0  0  0
  4  5  1  0  0  0
  4 93  1  0  0  0
  4 94  1  0  0  0
  5  6  1  0  0  0
  5 26  1  0  0  0
  5 95  1  0  0  0
  6 25  1  0  0  0
  6 96  1  0  0  0
  6 97  1  0  0  0
  7  8  2  0  0  0
  7 26  1  0  0  0
  7 29  1  0  0  0
  8  9  1  0  0  0
  8 22  1  0  0  0
  9 10  1  0  0  0
  9 27  2  0  0  0
 10 11  2  0  0  0
 10 15  1  0  0  0
 11 12  1  0  0  0
 11 98  1  0  0  0
 12 13  2  0  0  0
 12 99  1  0  0  0
 13 14  1  0  0  0
 13 31  1  0  0  0
 14 15  2  0  0  0
 14100  1  0  0  0
 15101  1  0  0  0
 16 17  2  0  0  0
 16 21  1  0  0  0
 16 31  1  0  0  0
 17 18  1  0  0  0
 17102  1  0  0  0
 18 19  2  0  0  0
 18103  1  0  0  0
 19 20  1  0  0  0
 19 24  1  0  0  0
 20 21  2  0  0  0
 20104  1  0  0  0
 21 23  1  0  0  0
 22 28  1  0  0  0
 22 32  2  0  0  0
 26 27  1  0  0  0
 28105  1  0  0  0
 28106  1  0  0  0
 29107  1  0  0  0
 29108  1  0  0  0
 33 34  1  0  0  0
 33 66  1  0  0  0
 33 70  2  0  0  0
 34 36  1  0  0  0
 34 59  1  0  0  0
 34109  1  0  0  0
 35 44  2  0  0  0
 35 45  1  0  0  0
 35 68  1  0  0  0
 36 56  1  0  0  0
 36110  1  0  0  0
 37 39  1  0  0  0
 37 47  1  0  0  0
 37 66  1  0  0  0
 37111  1  0  0  0
 38 43  2  0  0  0
 38 46  1  0  0  0
 38 47  1  0  0  0
 39 64  1  0  0  0
 39 67  2  0  0  0
 40 52  1  0  0  0
 40 53  2  0  0  0
 40 58  1  0  0  0
 41112  1  0  0  0
 41113  1  0  0  0
 41114  1  0  0  0
 41 48  1  0  0  0
 42 43  1  0  0  0
 42 66  1  0  0  0
 42115  1  0  0  0
 42116  1  0  0  0
 43 44  1  0  0  0
 44117  1  0  0  0
 45 46  2  0  0  0
 45118  1  0  0  0
 46119  1  0  0  0
 47120  1  0  0  0
 47121  1  0  0  0
 48 56  1  0  0  0
 48 65  1  0  0  0
 48122  1  0  0  0
 49 50  1  0  0  0
 49 53  1  0  0  0
 49 64  1  0  0  0
 49123  1  0  0  0
 50 51  1  0  0  0
 50124  1  0  0  0
 50125  1  0  0  0
 51 52  1  0  0  0
 51126  1  0  0  0
 51127  1  0  0  0
 52128  1  0  0  0
 52129  1  0  0  0
 53 54  1  0  0  0
 54 55  2  0  0  0
 54130  1  0  0  0
 55 57  1  0  0  0
 55131  1  0  0  0
 56 69  2  0  0  0
 57 58  2  0  0  0
 57132  1  0  0  0
 58133  1  0  0  0
 59 60  1  0  0  0
 59 61  1  0  0  0
 59 62  1  0  0  0
 60134  1  0  0  0
 60135  1  0  0  0
 60136  1  0  0  0
 61137  1  0  0  0
 61138  1  0  0  0
 61139  1  0  0  0
 62140  1  0  0  0
 62141  1  0  0  0
 62142  1  0  0  0
 63 65  1  0  0  0
 63143  1  0  0  0
 63144  1  0  0  0
 63145  1  0  0  0
 64146  1  0  0  0
 65147  1  0  0  0
 68 80  1  0  0  0
 71 72  2  0  0  0
 71 74  1  0  0  0
 71 77  1  0  0  0
 72 73  1  0  0  0
 72 87  1  0  0  0
 73 75  2  0  0  0
 73 88  1  0  0  0
 74 76  1  0  0  0
 74 82  2  0  0  0
 75 82  1  0  0  0
 75 83  1  0  0  0
 76148  1  0  0  0
 76149  1  0  0  0
 76150  1  0  0  0
 77 78  1  0  0  0
 77151  1  0  0  0
 77152  1  0  0  0
 78 79  1  0  0  0
 78153  1  0  0  0
 78154  1  0  0  0
 79155  1  0  0  0
 79156  1  0  0  0
 79 80  1  0  0  0
 80 81  1  0  0  0
 80157  1  0  0  0
 81 84  1  0  0  0
 81 85  1  0  0  0
 81 86  1  0  0  0
 83158  1  0  0  0
M  ISO  4   1 100  68 101  80 101  83 100
M  END
> <chiral flag>
0

> <version>
0

> <s_m_source_file>
/data/baiqing/PycharmProjects/Reinvent-master-3.2/result/LINK_invent/BTK/process_docking_weight1_custom_sum_contain_oxygen_bond_distance_aromatic_linkinvent_7_9_3/rearranged_h_0024.sdf

> <i_m_source_file_index>
31

> <r_mmod_Potential_Energy-OPLS-2005>
-25.3085956573486

> <r_mmod_Stretch_Energy-OPLS-2005>
76.5086517333984

> <r_mmod_Bend_Energy-OPLS-2005>
147.966552734375

> <r_mmod_Torsional_Energy-OPLS-2005>
228.540313720703

> <r_mmod_Improper_Torsional_Energy-OPLS-2005>
4.22766208648682

> <r_mmod_Van_der_Waal_Energy-OPLS-2005>
136.759201049805

> <r_mmod_Electrostatic_Energy-OPLS-2005>
-445.408905029297

> <r_mmod_Solvation_Energy-OPLS-2005>
-212.413192749023

> <b_mmod_Minimization_Converged-OPLS-2005>
0

> <r_mmod_RMS_Derivative-OPLS-2005>
1.28351187705994

$$$$
31
                    3D
 Structure written by MMmdl.
168177  0  0  1  0            999 V2000
  -30.6169  -14.4521   20.1809 C   0  0  0  0  0  0
  -30.5136  -12.1853   19.3554 C   0  0  0  0  0  0
  -29.5322  -12.1793   18.1695 C   0  0  0  0  0  0
  -28.0260  -12.2333   18.5860 C   0  0  0  0  0  0
  -27.7437  -12.4840   20.1078 C   0  0  2  0  0  0
  -28.9304  -12.8053   21.0619 C   0  0  0  0  0  0
  -25.4535  -14.1570   20.5882 C   0  0  0  0  0  0
  -24.2806  -13.2903   20.9385 C   0  0  0  0  0  0
  -24.5667  -11.8627   20.9068 C   0  0  0  0  0  0
  -23.8421  -10.5513   21.0689 C   0  0  0  0  0  0
  -24.3206   -9.5168   21.9282 C   0  0  0  0  0  0
  -23.6198   -8.2931   22.0849 C   0  0  0  0  0  0
  -22.4253   -8.0628   21.3639 C   0  0  0  0  0  0
  -21.9824   -9.0604   20.4731 C   0  0  0  0  0  0
  -22.6848  -10.2708   20.3152 C   0  0  0  0  0  0
  -21.6984   -6.0831   22.5230 C   0  0  0  0  0  0
  -21.4120   -6.5727   23.8155 C   0  0  0  0  0  0
  -21.3661   -5.6856   24.9111 C   0  0  0  0  0  0
  -21.6028   -4.3118   24.7167 C   0  0  0  0  0  0
  -21.8800   -3.8217   23.4301 C   0  0  0  0  0  0
  -21.9237   -4.7034   22.3356 C   0  0  0  0  0  0
  -22.8107  -13.5832   21.2531 C   0  0  0  0  0  0
  -22.1727   -4.2172   21.0953 F   0  0  0  0  0  0
  -21.5590   -3.4605   25.7697 F   0  0  0  0  0  0
  -30.0775  -13.2259   20.2670 N   0  0  0  0  0  0
  -26.3237  -12.8903   20.4840 N   0  0  0  0  0  0
  -25.7807  -11.6978   20.6684 N   0  0  0  0  0  0
  -22.1817  -12.8540   22.1729 N   0  0  0  0  0  0
  -26.1024  -16.6511   20.1104 N   0  0  0  0  0  0
  -31.8211  -14.6727   20.3225 O   0  0  0  0  0  0
  -21.6856   -6.9037   21.4227 O   0  0  0  0  0  0
  -22.1548  -14.4426   20.6865 O   0  0  0  0  0  0
  -24.6320  -31.8609   23.2116 C   0  0  0  0  0  0
  -25.9164  -32.4780   23.8415 C   0  0  1  0  0  0
  -27.0040  -27.1297   20.2018 C   0  0  0  0  0  0
  -25.5992  -33.8592   24.2313 N   0  0  0  0  0  0
  -23.4251  -30.5012   21.5556 C   0  0  2  0  0  0
  -24.8578  -28.9984   20.0698 C   0  0  0  0  0  0
  -22.7520  -29.4622   22.4865 C   0  0  0  0  0  0
  -18.0305  -28.1403   22.8490 C   0  0  0  0  0  0
  -24.1509  -36.7268   23.2622 C   0  0  0  0  0  0
  -25.9853  -30.7340   21.4258 C   0  0  0  0  0  0
  -26.0255  -29.3630   20.7512 C   0  0  0  0  0  0
  -27.1195  -28.4266   20.8333 C   0  0  0  0  0  0
  -25.9469  -26.9955   19.2807 C   0  0  0  0  0  0
  -24.8422  -27.8442   19.2936 C   0  0  0  0  0  0
  -23.6387  -29.8917   20.1500 C   0  0  0  0  0  0
  -25.4143  -36.3081   24.0320 C   0  0  1  0  0  0
  -20.5918  -28.3723   23.1266 C   0  0  2  0  0  0
  -20.6819  -26.9438   22.5408 C   0  0  0  0  0  0
  -19.5779  -26.6391   21.5234 C   0  0  0  0  0  0
  -18.1958  -26.7945   22.1633 C   0  0  0  0  0  0
  -19.1556  -28.8881   23.2879 C   0  0  0  0  0  0
  -18.9465  -30.1492   23.8884 C   0  0  0  0  0  0
  -17.6454  -30.6598   24.0571 C   0  0  0  0  0  0
  -25.9088  -34.9450   23.5104 C   0  0  0  0  0  0
  -16.5353  -29.9088   23.6344 C   0  0  0  0  0  0
  -16.7291  -28.6517   23.0354 C   0  0  0  0  0  0
  -26.4511  -31.6606   25.0802 C   0  0  0  0  0  0
  -25.3688  -31.3758   26.1477 C   0  0  0  0  0  0
  -27.0350  -30.3001   24.6368 C   0  0  0  0  0  0
  -27.6086  -32.4342   25.7540 C   0  0  0  0  0  0
  -27.5617  -37.1785   24.8447 C   0  0  0  0  0  0
  -21.4215  -29.3043   22.3625 N   0  0  0  0  0  0
  -26.4314  -37.3795   23.9415 N   0  0  0  0  0  0
  -24.6997  -31.0535   22.1161 N   0  0  0  0  0  0
  -23.4245  -28.8114   23.2913 O   0  0  0  0  0  0
  -27.6643  -25.9105   20.5407 O   0  0  0  0  0  0
  -26.5637  -34.8897   22.4652 O   0  0  0  0  0  0
  -23.5467  -32.1504   23.7378 O   0  0  0  0  0  0
  -27.4002  -15.2267   21.2985 C   0  0  0  0  0  0
  -25.8821  -15.7552   22.2145 C   0  0  0  0  0  0
  -25.5617  -22.8567   22.0711 C   0  0  0  0  0  0
  -27.3551  -14.9435   19.4235 C   0  0  0  0  0  0
  -24.3028  -16.1262   21.3183 C   0  0  0  0  0  0
  -25.7001  -15.0986   18.5028 C   0  0  0  0  0  0
  -25.6253  -20.3606   21.6515 C   0  0  0  0  0  0
  -25.0972  -21.5087   22.3163 C   0  0  0  0  0  0
  -24.1681  -15.7076   19.4501 C   0  0  0  0  0  0
  -26.5938  -23.1825   21.1356 C   0  0  0  0  0  0
  -26.6757  -20.7764   20.7573 C   0  0  0  0  0  0
  -25.1957  -16.0021   16.1532 C   0  0  0  0  0  0
  -24.0400  -17.7436   21.5798 C   0  0  0  0  0  0
  -25.6258  -14.8159   17.0152 C   0  0  0  0  0  0
  -25.2896  -18.7944   22.0605 C   0  0  0  0  0  0
  -28.6729  -15.2471   18.7238 C   0  0  0  0  0  0
  -26.7111  -24.6622   20.4275 C   0  0  0  0  0  0
  -27.1027  -22.0777   20.5048 N   0  0  0  0  0  0
  -29.8409  -15.3997   19.6218 N   0  0  0  0  0  0
  -23.8233  -21.2881   23.4583 Cl  0  0  0  0  0  0
  -22.8056  -16.2952   18.5406 Cl  0  0  0  0  0  0
  -27.5570  -19.5798   19.8837 Cl  0  0  0  0  0  0
  -31.5356  -12.3346   19.0015 H   0  0  0  0  0  0
  -30.5128  -11.2245   19.8644 H   0  0  0  0  0  0
  -29.7268  -11.2623   17.6128 H   0  0  0  0  0  0
  -29.7990  -12.9273   17.4255 H   0  0  0  0  0  0
  -27.5671  -11.2787   18.3267 H   0  0  0  0  0  0
  -27.4687  -12.9249   17.9619 H   0  0  0  0  0  0
  -27.8488  -11.4165   20.3361 H   0  0  0  0  0  0
  -29.2630  -11.9012   21.5846 H   0  0  0  0  0  0
  -28.7468  -13.3995   21.9429 H   0  0  0  0  0  0
  -25.2340   -9.6685   22.4858 H   0  0  0  0  0  0
  -24.0065   -7.5365   22.7526 H   0  0  0  0  0  0
  -21.0832   -8.8885   19.8964 H   0  0  0  0  0  0
  -22.3176  -11.0036   19.6077 H   0  0  0  0  0  0
  -21.2214   -7.6253   23.9654 H   0  0  0  0  0  0
  -21.1488   -6.0638   25.8992 H   0  0  0  0  0  0
  -22.0554   -2.7681   23.2794 H   0  0  0  0  0  0
  -22.6399  -12.0905   22.6519 H   0  0  0  0  0  0
  -21.2154  -13.0507   22.3995 H   0  0  0  0  0  0
  -25.4232  -17.3702   19.9409 H   0  0  0  0  0  0
  -27.0348  -16.8874   19.8053 H   0  0  0  0  0  0
  -26.7196  -32.5369   23.1106 H   0  0  0  0  0  0
  -25.0177  -33.9781   25.0490 H   0  0  0  0  0  0
  -22.7202  -31.3274   21.4405 H   0  0  0  0  0  0
  -23.3822  -35.9547   23.3239 H   0  0  0  0  0  0
  -24.3625  -36.8938   22.2048 H   0  0  0  0  0  0
  -23.7202  -37.6426   23.6681 H   0  0  0  0  0  0
  -26.1627  -31.5040   20.6734 H   0  0  0  0  0  0
  -26.8498  -30.7542   22.0747 H   0  0  0  0  0  0
  -27.9521  -28.6432   21.4900 H   0  0  0  0  0  0
  -25.8508  -26.1409   18.6302 H   0  0  0  0  0  0
  -23.9904  -27.6155   18.6686 H   0  0  0  0  0  0
  -23.7573  -30.6959   19.4224 H   0  0  0  0  0  0
  -22.7537  -29.3376   19.8330 H   0  0  0  0  0  0
  -25.1321  -36.1936   25.0822 H   0  0  0  0  0  0
  -21.0026  -28.3314   24.1388 H   0  0  0  0  0  0
  -20.5802  -26.2311   23.3616 H   0  0  0  0  0  0
  -21.6679  -26.7517   22.1148 H   0  0  0  0  0  0
  -19.6947  -25.6300   21.1285 H   0  0  0  0  0  0
  -19.6721  -27.3191   20.6762 H   0  0  0  0  0  0
  -17.4238  -26.6713   21.4029 H   0  0  0  0  0  0
  -18.0338  -26.0105   22.9038 H   0  0  0  0  0  0
  -19.7935  -30.7336   24.2237 H   0  0  0  0  0  0
  -17.4996  -31.6272   24.5170 H   0  0  0  0  0  0
  -15.5352  -30.2965   23.7686 H   0  0  0  0  0  0
  -15.8703  -28.0830   22.7060 H   0  0  0  0  0  0
  -24.5912  -30.7072   25.7762 H   0  0  0  0  0  0
  -24.8807  -32.2909   26.4842 H   0  0  0  0  0  0
  -25.7950  -30.8958   27.0294 H   0  0  0  0  0  0
  -26.2945  -29.6748   24.1364 H   0  0  0  0  0  0
  -27.3931  -29.7289   25.4941 H   0  0  0  0  0  0
  -27.8897  -30.4233   23.9714 H   0  0  0  0  0  0
  -27.2755  -33.3685   26.2079 H   0  0  0  0  0  0
  -28.3900  -32.6836   25.0342 H   0  0  0  0  0  0
  -28.0753  -31.8482   26.5472 H   0  0  0  0  0  0
  -28.2552  -38.0163   24.7637 H   0  0  0  0  0  0
  -28.1200  -36.2706   24.6114 H   0  0  0  0  0  0
  -27.2340  -37.1225   25.8840 H   0  0  0  0  0  0
  -20.9399  -29.8762   21.6832 H   0  0  0  0  0  0
  -26.0183  -38.2851   24.1489 H   0  0  0  0  0  0
  -28.3238  -15.3908   21.8288 H   0  0  0  0  0  0
  -26.0045  -16.0847   23.2353 H   0  0  0  0  0  0
  -25.0382  -23.6602   22.5649 H   0  0  0  0  0  0
  -25.3049  -15.7511   15.1018 H   0  0  0  0  0  0
  -25.7857  -16.8950   16.3547 H   0  0  0  0  0  0
  -24.1500  -16.2505   16.2901 H   0  0  0  0  0  0
  -23.1839  -17.8333   22.2505 H   0  0  0  0  0  0
  -23.6783  -18.1425   20.6293 H   0  0  0  0  0  0
  -24.9055  -14.0121   16.8822 H   0  0  0  0  0  0
  -26.5863  -14.4460   16.6545 H   0  0  0  0  0  0
  -25.2455  -18.7958   23.1514 H   0  0  0  0  0  0
  -26.2489  -18.3011   21.9089 H   0  0  0  0  0  0
  -28.4944  -16.2323   18.2961 H   0  0  0  0  0  0
  -28.8825  -14.6653   17.8398 H   0  0  0  0  0  0
  -25.7137  -25.0284   20.6741 H   0  0  0  0  0  0
  -26.7087  -24.4118   19.3697 H   0  0  0  0  0  0
  -30.3236  -16.2861   19.5450 H   0  0  0  0  0  0
  1 25  1  0  0  0
  1 30  2  0  0  0
  1 89  1  0  0  0
  2  3  1  0  0  0
  2 25  1  0  0  0
  2 93  1  0  0  0
  2 94  1  0  0  0
  3  4  1  0  0  0
  3 95  1  0  0  0
  3 96  1  0  0  0
  4  5  1  0  0  0
  4 97  1  0  0  0
  4 98  1  0  0  0
  5  6  1  0  0  0
  5 26  1  0  0  0
  5 99  1  0  0  0
  6 25  1  0  0  0
  6100  1  0  0  0
  6101  1  0  0  0
  7  8  2  0  0  0
  7 26  1  0  0  0
  7 29  1  0  0  0
  8  9  1  0  0  0
  8 22  1  0  0  0
  9 10  1  0  0  0
  9 27  2  0  0  0
 10 11  2  0  0  0
 10 15  1  0  0  0
 11 12  1  0  0  0
 11102  1  0  0  0
 12 13  2  0  0  0
 12103  1  0  0  0
 13 14  1  0  0  0
 13 31  1  0  0  0
 14 15  2  0  0  0
 14104  1  0  0  0
 15105  1  0  0  0
 16 17  2  0  0  0
 16 21  1  0  0  0
 16 31  1  0  0  0
 17 18  1  0  0  0
 17106  1  0  0  0
 18 19  2  0  0  0
 18107  1  0  0  0
 19 20  1  0  0  0
 19 24  1  0  0  0
 20 21  2  0  0  0
 20108  1  0  0  0
 21 23  1  0  0  0
 22 28  1  0  0  0
 22 32  2  0  0  0
 26 27  1  0  0  0
 28109  1  0  0  0
 28110  1  0  0  0
 29111  1  0  0  0
 29112  1  0  0  0
 33 34  1  0  0  0
 33 66  1  0  0  0
 33 70  2  0  0  0
 34 36  1  0  0  0
 34 59  1  0  0  0
 34113  1  0  0  0
 35 44  2  0  0  0
 35 45  1  0  0  0
 35 68  1  0  0  0
 36 56  1  0  0  0
 36114  1  0  0  0
 37 39  1  0  0  0
 37 47  1  0  0  0
 37 66  1  0  0  0
 37115  1  0  0  0
 38 43  2  0  0  0
 38 46  1  0  0  0
 38 47  1  0  0  0
 39 64  1  0  0  0
 39 67  2  0  0  0
 40 52  1  0  0  0
 40 53  2  0  0  0
 40 58  1  0  0  0
 41116  1  0  0  0
 41117  1  0  0  0
 41118  1  0  0  0
 41 48  1  0  0  0
 42 43  1  0  0  0
 42 66  1  0  0  0
 42119  1  0  0  0
 42120  1  0  0  0
 43 44  1  0  0  0
 44121  1  0  0  0
 45 46  2  0  0  0
 45122  1  0  0  0
 46123  1  0  0  0
 47124  1  0  0  0
 47125  1  0  0  0
 48 56  1  0  0  0
 48 65  1  0  0  0
 48126  1  0  0  0
 49 50  1  0  0  0
 49 53  1  0  0  0
 49 64  1  0  0  0
 49127  1  0  0  0
 50 51  1  0  0  0
 50128  1  0  0  0
 50129  1  0  0  0
 51 52  1  0  0  0
 51130  1  0  0  0
 51131  1  0  0  0
 52132  1  0  0  0
 52133  1  0  0  0
 53 54  1  0  0  0
 54 55  2  0  0  0
 54134  1  0  0  0
 55 57  1  0  0  0
 55135  1  0  0  0
 56 69  2  0  0  0
 57 58  2  0  0  0
 57136  1  0  0  0
 58137  1  0  0  0
 59 60  1  0  0  0
 59 61  1  0  0  0
 59 62  1  0  0  0
 60138  1  0  0  0
 60139  1  0  0  0
 60140  1  0  0  0
 61141  1  0  0  0
 61142  1  0  0  0
 61143  1  0  0  0
 62144  1  0  0  0
 62145  1  0  0  0
 62146  1  0  0  0
 63 65  1  0  0  0
 63147  1  0  0  0
 63148  1  0  0  0
 63149  1  0  0  0
 64150  1  0  0  0
 65151  1  0  0  0
 68 87  1  0  0  0
 71 72  2  0  0  0
 71 74  1  0  0  0
 71152  1  0  0  0
 72 75  1  0  0  0
 72153  1  0  0  0
 73 78  2  0  0  0
 73 80  1  0  0  0
 73154  1  0  0  0
 74 76  2  0  0  0
 74 86  1  0  0  0
 75 79  2  0  0  0
 75 83  1  0  0  0
 76 79  1  0  0  0
 76 84  1  0  0  0
 77 78  1  0  0  0
 77 81  2  0  0  0
 77 85  1  0  0  0
 78 90  1  0  0  0
 79 91  1  0  0  0
 80 87  1  0  0  0
 80 88  2  0  0  0
 81 88  1  0  0  0
 81 92  1  0  0  0
 82 84  1  0  0  0
 82155  1  0  0  0
 82156  1  0  0  0
 82157  1  0  0  0
 83 85  1  0  0  0
 83158  1  0  0  0
 83159  1  0  0  0
 84160  1  0  0  0
 84161  1  0  0  0
 85162  1  0  0  0
 85163  1  0  0  0
 86 89  1  0  0  0
 86164  1  0  0  0
 86165  1  0  0  0
 87166  1  0  0  0
 87167  1  0  0  0
 89168  1  0  0  0
M  ISO  4   1 100  68 101  87 101  89 100
M  END
> <chiral flag>
0

> <version>
0

> <s_m_source_file>
/data/baiqing/PycharmProjects/Reinvent-master-3.2/result/LINK_invent/BTK/process_docking_weight1_custom_sum_contain_oxygen_bond_distance_aromatic_linkinvent_7_9_3/rearranged_h_0024.sdf

> <i_m_source_file_index>
32

> <r_mmod_Potential_Energy-OPLS-2005>
9613.2021484375

> <r_mmod_Stretch_Energy-OPLS-2005>
5778.98583984375

> <r_mmod_Bend_Energy-OPLS-2005>
524.327575683594

> <r_mmod_Torsional_Energy-OPLS-2005>
513.567321777344

> <r_mmod_Improper_Torsional_Energy-OPLS-2005>
49.8086357116699

> <r_mmod_Van_der_Waal_Energy-OPLS-2005>
2900.12524414062

> <r_mmod_Electrostatic_Energy-OPLS-2005>
-615.20166015625

> <r_mmod_Solvation_Energy-OPLS-2005>
-194.342422485352

> <b_mmod_Minimization_Converged-OPLS-2005>
0

> <r_mmod_RMS_Derivative-OPLS-2005>
14.8691921234131

$$$$
32
                    3D
 Structure written by MMmdl.
156164  0  0  1  0            999 V2000
  -30.4329  -15.1809   20.3791 C   0  0  0  0  0  0
  -30.4504  -12.7484   19.5106 C   0  0  0  0  0  0
  -29.5357  -12.5669   18.2733 C   0  0  0  0  0  0
  -28.0777  -12.3066   18.6970 C   0  0  0  0  0  0
  -27.6190  -13.2639   19.8263 C   0  0  2  0  0  0
  -28.6583  -13.3796   20.9608 C   0  0  0  0  0  0
  -25.2420  -13.8226   20.5716 C   0  0  0  0  0  0
  -24.1759  -13.0431   20.9239 C   0  0  0  0  0  0
  -24.6398  -11.6923   20.8749 C   0  0  0  0  0  0
  -23.9085  -10.4290   21.0403 C   0  0  0  0  0  0
  -24.3631   -9.4206   21.9183 C   0  0  0  0  0  0
  -23.6301   -8.2243   22.0752 C   0  0  0  0  0  0
  -22.4284   -8.0281   21.3543 C   0  0  0  0  0  0
  -21.9921   -9.0255   20.4647 C   0  0  0  0  0  0
  -22.7253  -10.2132   20.3056 C   0  0  0  0  0  0
  -21.6854   -6.0735   22.5278 C   0  0  0  0  0  0
  -21.4014   -6.5637   23.8212 C   0  0  0  0  0  0
  -21.3660   -5.6788   24.9173 C   0  0  0  0  0  0
  -21.6048   -4.3051   24.7223 C   0  0  0  0  0  0
  -21.8818   -3.8144   23.4340 C   0  0  0  0  0  0
  -21.9192   -4.6962   22.3398 C   0  0  0  0  0  0
  -22.7776  -13.5195   21.1888 C   0  0  0  0  0  0
  -22.1662   -4.2147   21.0976 F   0  0  0  0  0  0
  -21.5630   -3.4535   25.7735 F   0  0  0  0  0  0
  -29.9008  -13.8701   20.3445 N   0  0  0  0  0  0
  -26.2845  -12.9482   20.3201 N   0  0  0  0  0  0
  -25.9336  -11.6598   20.5706 N   0  0  0  0  0  0
  -22.0423  -12.8192   22.0446 N   0  0  0  0  0  0
  -25.4043  -15.1962   20.4148 N   0  0  0  0  0  0
  -31.6523  -15.2410   20.1675 O   0  0  0  0  0  0
  -21.6644   -6.8881   21.4242 O   0  0  0  0  0  0
  -22.3461  -14.5495   20.6721 O   0  0  0  0  0  0
  -24.6583  -31.8283   23.1745 C   0  0  0  0  0  0
  -25.9286  -32.4610   23.8193 C   0  0  1  0  0  0
  -27.2215  -26.9792   20.1791 C   0  0  0  0  0  0
  -25.5973  -33.8421   24.2103 N   0  0  0  0  0  0
  -23.4705  -30.4411   21.5230 C   0  0  2  0  0  0
  -24.9233  -28.8352   20.1144 C   0  0  0  0  0  0
  -22.7641  -29.4464   22.4803 C   0  0  0  0  0  0
  -18.0319  -28.1406   22.8470 C   0  0  0  0  0  0
  -24.1496  -36.7216   23.2646 C   0  0  0  0  0  0
  -26.0365  -30.6518   21.3965 C   0  0  0  0  0  0
  -26.1060  -29.2464   20.7412 C   0  0  0  0  0  0
  -27.2521  -28.3395   20.7469 C   0  0  0  0  0  0
  -26.0080  -26.7042   19.5107 C   0  0  0  0  0  0
  -24.8964  -27.5832   19.4797 C   0  0  0  0  0  0
  -23.7075  -29.7576   20.1487 C   0  0  0  0  0  0
  -25.4133  -36.2978   24.0304 C   0  0  1  0  0  0
  -20.5939  -28.3745   23.1203 C   0  0  2  0  0  0
  -20.6798  -26.9433   22.5406 C   0  0  0  0  0  0
  -19.5772  -26.6379   21.5214 C   0  0  0  0  0  0
  -18.1954  -26.7942   22.1620 C   0  0  0  0  0  0
  -19.1580  -28.8896   23.2825 C   0  0  0  0  0  0
  -18.9487  -30.1485   23.8859 C   0  0  0  0  0  0
  -17.6482  -30.6596   24.0553 C   0  0  0  0  0  0
  -25.9093  -34.9359   23.5021 C   0  0  0  0  0  0
  -16.5372  -29.9081   23.6344 C   0  0  0  0  0  0
  -16.7301  -28.6502   23.0363 C   0  0  0  0  0  0
  -26.4557  -31.6538   25.0700 C   0  0  0  0  0  0
  -25.3701  -31.3767   26.1367 C   0  0  0  0  0  0
  -27.0447  -30.2913   24.6394 C   0  0  0  0  0  0
  -27.6062  -32.4336   25.7496 C   0  0  0  0  0  0
  -27.5575  -37.1763   24.8464 C   0  0  0  0  0  0
  -21.4317  -29.3040   22.3553 N   0  0  0  0  0  0
  -26.4282  -37.3711   23.9407 N   0  0  0  0  0  0
  -24.7426  -30.9993   22.0855 N   0  0  0  0  0  0
  -23.4211  -28.8035   23.3030 O   0  0  0  0  0  0
  -28.2497  -25.9162   20.2387 O   0  0  0  0  0  0
  -26.5693  -34.8887   22.4610 O   0  0  0  0  0  0
  -23.5664  -32.1230   23.6872 O   0  0  0  0  0  0
  -30.1429  -18.9269   21.2441 C   0  0  0  0  0  0
  -29.9593  -20.3995   21.2512 C   0  0  0  0  0  0
  -28.5305  -20.2429   19.4235 C   0  0  0  0  0  0
  -29.1340  -21.2019   20.3429 C   0  0  0  0  0  0
  -28.7128  -18.7547   19.4317 C   0  0  0  0  0  0
  -29.5534  -17.9659   20.3374 C   0  0  0  0  0  0
  -30.7386  -21.1447   22.3216 C   0  0  0  0  0  0
  -27.6504  -20.8467   18.3363 C   0  0  0  0  0  0
  -27.9525  -17.9565   18.3768 C   0  0  0  0  0  0
  -29.1561  -22.9490   20.2712 C   0  0  0  0  0  0
  -28.0123  -24.3017   20.2021 C   0  0  0  0  0  0
  -29.5680  -16.3641   20.4351 N   0  0  0  0  0  0
  -31.4696  -12.9589   19.1836 H   0  0  0  0  0  0
  -30.5107  -11.8260   20.0901 H   0  0  0  0  0  0
  -29.8994  -11.7502   17.6481 H   0  0  0  0  0  0
  -29.5794  -13.4669   17.6575 H   0  0  0  0  0  0
  -28.0145  -11.2748   19.0446 H   0  0  0  0  0  0
  -27.4110  -12.3807   17.8367 H   0  0  0  0  0  0
  -27.5506  -14.2447   19.3547 H   0  0  0  0  0  0
  -28.8058  -12.4238   21.4656 H   0  0  0  0  0  0
  -28.3168  -14.0821   21.7226 H   0  0  0  0  0  0
  -25.2774   -9.5685   22.4758 H   0  0  0  0  0  0
  -24.0009   -7.4635   22.7474 H   0  0  0  0  0  0
  -21.0849   -8.8779   19.8955 H   0  0  0  0  0  0
  -22.3712  -10.9672   19.6166 H   0  0  0  0  0  0
  -21.2011   -7.6146   23.9715 H   0  0  0  0  0  0
  -21.1484   -6.0518   25.9077 H   0  0  0  0  0  0
  -22.0598   -2.7606   23.2837 H   0  0  0  0  0  0
  -22.4049  -11.9874   22.4864 H   0  0  0  0  0  0
  -21.1033  -13.1215   22.2631 H   0  0  0  0  0  0
  -24.6282  -15.8393   20.5283 H   0  0  0  0  0  0
  -26.2367  -15.6430   20.0569 H   0  0  0  0  0  0
  -26.7349  -32.5168   23.0906 H   0  0  0  0  0  0
  -25.0087  -33.9507   25.0230 H   0  0  0  0  0  0
  -22.7813  -31.2713   21.3550 H   0  0  0  0  0  0
  -23.3771  -35.9534   23.3277 H   0  0  0  0  0  0
  -24.3580  -36.8889   22.2068 H   0  0  0  0  0  0
  -23.7242  -37.6392   23.6718 H   0  0  0  0  0  0
  -26.2090  -31.3962   20.6181 H   0  0  0  0  0  0
  -26.8998  -30.7084   22.0478 H   0  0  0  0  0  0
  -28.1512  -28.6534   21.2583 H   0  0  0  0  0  0
  -25.8877  -25.7483   19.0228 H   0  0  0  0  0  0
  -23.9962  -27.2622   18.9733 H   0  0  0  0  0  0
  -23.8589  -30.5263   19.3899 H   0  0  0  0  0  0
  -22.8187  -29.2085   19.8330 H   0  0  0  0  0  0
  -25.1331  -36.1782   25.0797 H   0  0  0  0  0  0
  -21.0026  -28.3349   24.1326 H   0  0  0  0  0  0
  -20.5686  -26.2360   23.3639 H   0  0  0  0  0  0
  -21.6663  -26.7417   22.1208 H   0  0  0  0  0  0
  -19.6930  -25.6279   21.1275 H   0  0  0  0  0  0
  -19.6716  -27.3165   20.6726 H   0  0  0  0  0  0
  -17.4225  -26.6687   21.4020 H   0  0  0  0  0  0
  -18.0343  -26.0095   22.9026 H   0  0  0  0  0  0
  -19.7962  -30.7312   24.2213 H   0  0  0  0  0  0
  -17.5032  -31.6275   24.5156 H   0  0  0  0  0  0
  -15.5370  -30.2967   23.7692 H   0  0  0  0  0  0
  -15.8703  -28.0804   22.7102 H   0  0  0  0  0  0
  -24.5899  -30.7096   25.7679 H   0  0  0  0  0  0
  -24.8866  -32.2956   26.4691 H   0  0  0  0  0  0
  -25.7948  -30.9005   27.0212 H   0  0  0  0  0  0
  -26.3099  -29.6599   24.1385 H   0  0  0  0  0  0
  -27.3984  -29.7265   25.5030 H   0  0  0  0  0  0
  -27.9041  -30.4111   23.9793 H   0  0  0  0  0  0
  -27.2641  -33.3676   26.1967 H   0  0  0  0  0  0
  -28.3926  -32.6832   25.0360 H   0  0  0  0  0  0
  -28.0672  -31.8532   26.5497 H   0  0  0  0  0  0
  -28.2567  -38.0083   24.7517 H   0  0  0  0  0  0
  -28.1095  -36.2607   24.6281 H   0  0  0  0  0  0
  -27.2291  -37.1395   25.8866 H   0  0  0  0  0  0
  -20.9565  -29.8719   21.6678 H   0  0  0  0  0  0
  -26.0134  -38.2771   24.1417 H   0  0  0  0  0  0
  -30.7705  -18.5058   22.0169 H   0  0  0  0  0  0
  -31.2484  -20.4665   23.0066 H   0  0  0  0  0  0
  -30.0710  -21.7658   22.9196 H   0  0  0  0  0  0
  -31.4976  -21.7826   21.8677 H   0  0  0  0  0  0
  -27.4573  -21.9049   18.4993 H   0  0  0  0  0  0
  -26.6783  -20.3548   18.2941 H   0  0  0  0  0  0
  -28.1314  -20.7515   17.3624 H   0  0  0  0  0  0
  -28.1005  -18.3797   17.3835 H   0  0  0  0  0  0
  -26.8849  -17.9561   18.5968 H   0  0  0  0  0  0
  -28.2757  -16.9188   18.3113 H   0  0  0  0  0  0
  -29.8006  -23.1238   19.4099 H   0  0  0  0  0  0
  -29.7866  -23.2357   21.1093 H   0  0  0  0  0  0
  -27.3142  -24.1264   21.0209 H   0  0  0  0  0  0
  -27.4243  -24.1295   19.3019 H   0  0  0  0  0  0
  -28.6215  -16.0195   20.4712 H   0  0  0  0  0  0
  1 25  1  0  0  0
  1 30  2  0  0  0
  1 82  1  0  0  0
  2  3  1  0  0  0
  2 25  1  0  0  0
  2 83  1  0  0  0
  2 84  1  0  0  0
  3  4  1  0  0  0
  3 85  1  0  0  0
  3 86  1  0  0  0
  4  5  1  0  0  0
  4 87  1  0  0  0
  4 88  1  0  0  0
  5  6  1  0  0  0
  5 26  1  0  0  0
  5 89  1  0  0  0
  6 25  1  0  0  0
  6 90  1  0  0  0
  6 91  1  0  0  0
  7  8  2  0  0  0
  7 26  1  0  0  0
  7 29  1  0  0  0
  8  9  1  0  0  0
  8 22  1  0  0  0
  9 10  1  0  0  0
  9 27  2  0  0  0
 10 11  2  0  0  0
 10 15  1  0  0  0
 11 12  1  0  0  0
 11 92  1  0  0  0
 12 13  2  0  0  0
 12 93  1  0  0  0
 13 14  1  0  0  0
 13 31  1  0  0  0
 14 15  2  0  0  0
 14 94  1  0  0  0
 15 95  1  0  0  0
 16 17  2  0  0  0
 16 21  1  0  0  0
 16 31  1  0  0  0
 17 18  1  0  0  0
 17 96  1  0  0  0
 18 19  2  0  0  0
 18 97  1  0  0  0
 19 20  1  0  0  0
 19 24  1  0  0  0
 20 21  2  0  0  0
 20 98  1  0  0  0
 21 23  1  0  0  0
 22 28  1  0  0  0
 22 32  2  0  0  0
 26 27  1  0  0  0
 28 99  1  0  0  0
 28100  1  0  0  0
 29101  1  0  0  0
 29102  1  0  0  0
 33 34  1  0  0  0
 33 66  1  0  0  0
 33 70  2  0  0  0
 34 36  1  0  0  0
 34 59  1  0  0  0
 34103  1  0  0  0
 35 44  2  0  0  0
 35 45  1  0  0  0
 35 68  1  0  0  0
 36 56  1  0  0  0
 36104  1  0  0  0
 37 39  1  0  0  0
 37 47  1  0  0  0
 37 66  1  0  0  0
 37105  1  0  0  0
 38 43  2  0  0  0
 38 46  1  0  0  0
 38 47  1  0  0  0
 39 64  1  0  0  0
 39 67  2  0  0  0
 40 52  1  0  0  0
 40 53  2  0  0  0
 40 58  1  0  0  0
 41106  1  0  0  0
 41107  1  0  0  0
 41108  1  0  0  0
 41 48  1  0  0  0
 42 43  1  0  0  0
 42 66  1  0  0  0
 42109  1  0  0  0
 42110  1  0  0  0
 43 44  1  0  0  0
 44111  1  0  0  0
 45 46  2  0  0  0
 45112  1  0  0  0
 46113  1  0  0  0
 47114  1  0  0  0
 47115  1  0  0  0
 48 56  1  0  0  0
 48 65  1  0  0  0
 48116  1  0  0  0
 49 50  1  0  0  0
 49 53  1  0  0  0
 49 64  1  0  0  0
 49117  1  0  0  0
 50 51  1  0  0  0
 50118  1  0  0  0
 50119  1  0  0  0
 51 52  1  0  0  0
 51120  1  0  0  0
 51121  1  0  0  0
 52122  1  0  0  0
 52123  1  0  0  0
 53 54  1  0  0  0
 54 55  2  0  0  0
 54124  1  0  0  0
 55 57  1  0  0  0
 55125  1  0  0  0
 56 69  2  0  0  0
 57 58  2  0  0  0
 57126  1  0  0  0
 58127  1  0  0  0
 59 60  1  0  0  0
 59 61  1  0  0  0
 59 62  1  0  0  0
 60128  1  0  0  0
 60129  1  0  0  0
 60130  1  0  0  0
 61131  1  0  0  0
 61132  1  0  0  0
 61133  1  0  0  0
 62134  1  0  0  0
 62135  1  0  0  0
 62136  1  0  0  0
 63 65  1  0  0  0
 63137  1  0  0  0
 63138  1  0  0  0
 63139  1  0  0  0
 64140  1  0  0  0
 65141  1  0  0  0
 68 81  1  0  0  0
 71 72  2  0  0  0
 71 76  1  0  0  0
 71142  1  0  0  0
 72 74  1  0  0  0
 72 77  1  0  0  0
 73 74  2  0  0  0
 73 75  1  0  0  0
 73 78  1  0  0  0
 74 80  1  0  0  0
 75 76  2  0  0  0
 75 79  1  0  0  0
 76 82  1  0  0  0
 77143  1  0  0  0
 77144  1  0  0  0
 77145  1  0  0  0
 78146  1  0  0  0
 78147  1  0  0  0
 78148  1  0  0  0
 79149  1  0  0  0
 79150  1  0  0  0
 79151  1  0  0  0
 80 81  1  0  0  0
 80152  1  0  0  0
 80153  1  0  0  0
 81154  1  0  0  0
 81155  1  0  0  0
 82156  1  0  0  0
M  ISO  4   1 100  68 101  81 101  82 100
M  END
> <chiral flag>
0

> <version>
0

> <s_m_source_file>
/data/baiqing/PycharmProjects/Reinvent-master-3.2/result/LINK_invent/BTK/process_docking_weight1_custom_sum_contain_oxygen_bond_distance_aromatic_linkinvent_7_9_3/rearranged_h_0024.sdf

> <i_m_source_file_index>
33

> <r_mmod_Potential_Energy-OPLS-2005>
1018.62701416016

> <r_mmod_Stretch_Energy-OPLS-2005>
462.533325195312

> <r_mmod_Bend_Energy-OPLS-2005>
398.168395996094

> <r_mmod_Torsional_Energy-OPLS-2005>
239.641448974609

> <r_mmod_Improper_Torsional_Energy-OPLS-2005>
7.6815824508667

> <r_mmod_Van_der_Waal_Energy-OPLS-2005>
133.614715576172

> <r_mmod_Electrostatic_Energy-OPLS-2005>
-390.56103515625

> <r_mmod_Solvation_Energy-OPLS-2005>
-210.807479858398

> <b_mmod_Minimization_Converged-OPLS-2005>
0

> <r_mmod_RMS_Derivative-OPLS-2005>
0.66501247882843

$$$$
33
                    3D
 Structure written by MMmdl.
171179  0  0  1  0            999 V2000
  -30.7414  -14.3701   20.6629 C   0  0  0  0  0  0
  -30.4093  -12.2785   19.3933 C   0  0  0  0  0  0
  -29.4770  -12.4900   18.1852 C   0  0  0  0  0  0
  -27.9986  -12.3641   18.6078 C   0  0  0  0  0  0
  -27.6541  -13.2011   19.8715 C   0  0  2  0  0  0
  -28.6931  -12.9364   20.9805 C   0  0  0  0  0  0
  -25.2540  -13.8146   20.5746 C   0  0  0  0  0  0
  -24.1757  -13.0459   20.9177 C   0  0  0  0  0  0
  -24.6282  -11.6916   20.8693 C   0  0  0  0  0  0
  -23.8958  -10.4324   21.0401 C   0  0  0  0  0  0
  -24.3560   -9.4220   21.9159 C   0  0  0  0  0  0
  -23.6255   -8.2255   22.0742 C   0  0  0  0  0  0
  -22.4258   -8.0260   21.3526 C   0  0  0  0  0  0
  -21.9870   -9.0236   20.4659 C   0  0  0  0  0  0
  -22.7127  -10.2151   20.3074 C   0  0  0  0  0  0
  -21.6801   -6.0714   22.5257 C   0  0  0  0  0  0
  -21.3984   -6.5613   23.8192 C   0  0  0  0  0  0
  -21.3676   -5.6779   24.9169 C   0  0  0  0  0  0
  -21.6063   -4.3045   24.7212 C   0  0  0  0  0  0
  -21.8800   -3.8128   23.4336 C   0  0  0  0  0  0
  -21.9136   -4.6937   22.3375 C   0  0  0  0  0  0
  -22.7802  -13.5282   21.1946 C   0  0  0  0  0  0
  -22.1656   -4.2149   21.0962 F   0  0  0  0  0  0
  -21.5653   -3.4526   25.7732 F   0  0  0  0  0  0
  -30.0314  -13.2365   20.4388 N   0  0  0  0  0  0
  -26.2939  -12.9324   20.3305 N   0  0  0  0  0  0
  -25.9164  -11.6485   20.5582 N   0  0  0  0  0  0
  -22.0438  -12.8262   22.0465 N   0  0  0  0  0  0
  -25.4274  -15.1892   20.4271 N   0  0  0  0  0  0
  -31.8095  -14.6334   20.1023 O   0  0  0  0  0  0
  -21.6614   -6.8867   21.4224 O   0  0  0  0  0  0
  -22.3472  -14.5659   20.6949 O   0  0  0  0  0  0
  -24.6088  -31.8719   23.2141 C   0  0  0  0  0  0
  -25.8995  -32.4849   23.8428 C   0  0  1  0  0  0
  -27.2411  -27.4821   20.1011 C   0  0  0  0  0  0
  -25.5882  -33.8650   24.2366 N   0  0  0  0  0  0
  -23.3971  -30.4937   21.5526 C   0  0  2  0  0  0
  -24.8470  -28.9667   20.1130 C   0  0  0  0  0  0
  -22.7387  -29.4678   22.5009 C   0  0  0  0  0  0
  -18.0264  -28.1374   22.8486 C   0  0  0  0  0  0
  -24.1476  -36.7324   23.2639 C   0  0  0  0  0  0
  -25.9185  -30.8563   21.3569 C   0  0  0  0  0  0
  -25.9998  -29.4909   20.7115 C   0  0  0  0  0  0
  -27.2007  -28.7539   20.7089 C   0  0  0  0  0  0
  -26.0828  -26.9713   19.4831 C   0  0  0  0  0  0
  -24.8806  -27.7038   19.4940 C   0  0  0  0  0  0
  -23.6022  -29.8225   20.1662 C   0  0  0  0  0  0
  -25.4095  -36.3130   24.0349 C   0  0  1  0  0  0
  -20.5851  -28.3665   23.1322 C   0  0  2  0  0  0
  -20.6756  -26.9403   22.5425 C   0  0  0  0  0  0
  -19.5744  -26.6391   21.5212 C   0  0  0  0  0  0
  -18.1919  -26.7928   22.1605 C   0  0  0  0  0  0
  -19.1510  -28.8837   23.2903 C   0  0  0  0  0  0
  -18.9446  -30.1441   23.8918 C   0  0  0  0  0  0
  -17.6449  -30.6585   24.0566 C   0  0  0  0  0  0
  -25.9027  -34.9489   23.5147 C   0  0  0  0  0  0
  -16.5339  -29.9089   23.6321 C   0  0  0  0  0  0
  -16.7256  -28.6499   23.0357 C   0  0  0  0  0  0
  -26.4452  -31.6605   25.0726 C   0  0  0  0  0  0
  -25.3759  -31.3709   26.1509 C   0  0  0  0  0  0
  -27.0248  -30.3048   24.6049 C   0  0  0  0  0  0
  -27.6044  -32.4316   25.7468 C   0  0  0  0  0  0
  -27.5586  -37.1811   24.8465 C   0  0  0  0  0  0
  -21.4125  -29.3024   22.3730 N   0  0  0  0  0  0
  -26.4288  -37.3807   23.9422 N   0  0  0  0  0  0
  -24.6600  -31.0878   22.1002 N   0  0  0  0  0  0
  -23.4154  -28.8245   23.3073 O   0  0  0  0  0  0
  -28.3803  -26.7187   20.0992 O   0  0  0  0  0  0
  -26.5576  -34.8925   22.4702 O   0  0  0  0  0  0
  -23.5297  -32.1438   23.7572 O   0  0  0  0  0  0
  -30.7571  -24.6938   21.5094 C   0  0  0  0  0  0
  -31.2179  -23.3595   21.5022 C   0  0  0  0  0  0
  -29.3761  -24.9777   21.4664 C   0  0  0  0  0  0
  -28.8943  -22.5759   21.4045 C   0  0  0  0  0  0
  -30.2843  -22.2999   21.4304 C   0  0  0  0  0  0
  -28.4442  -23.9168   21.4574 C   0  0  0  0  0  0
  -32.7118  -23.0714   21.5581 C   0  0  0  0  0  0
  -27.8880  -21.4357   21.2876 C   0  0  0  0  0  0
  -28.8948  -26.4195   21.3998 C   0  0  0  0  0  0
  -28.9589  -17.8900   23.0762 C   0  0  0  0  0  0
  -27.5596  -17.5994   23.6602 C   0  0  0  0  0  0
  -30.0212  -16.8152   23.3974 C   0  0  0  0  0  0
  -26.6270  -18.8264   23.7807 C   0  0  0  0  0  0
  -30.8374  -16.3459   22.1736 C   0  0  0  0  0  0
  -26.5839  -19.7469   22.5441 C   0  0  0  0  0  0
  -30.1947  -15.1900   21.5639 N   0  0  0  0  0  0
  -27.6538  -20.7687   22.5801 N   0  3  0  0  0  0
  -30.8508  -20.6634   21.4002 Cl  0  0  0  0  0  0
  -26.7459  -24.2630   21.5242 Cl  0  0  0  0  0  0
  -31.4507  -12.3827   19.0872 H   0  0  0  0  0  0
  -30.3085  -11.2620   19.7780 H   0  0  0  0  0  0
  -29.7160  -11.7699   17.3990 H   0  0  0  0  0  0
  -29.6495  -13.4764   17.7515 H   0  0  0  0  0  0
  -27.7963  -11.3117   18.8064 H   0  0  0  0  0  0
  -27.3453  -12.6474   17.7810 H   0  0  0  0  0  0
  -27.7070  -14.2522   19.5891 H   0  0  0  0  0  0
  -28.6452  -11.8866   21.2763 H   0  0  0  0  0  0
  -28.4465  -13.4872   21.8898 H   0  0  0  0  0  0
  -25.2750   -9.5666   22.4656 H   0  0  0  0  0  0
  -24.0001   -7.4614   22.7431 H   0  0  0  0  0  0
  -21.0803   -8.8699   19.9000 H   0  0  0  0  0  0
  -22.3579  -10.9684   19.6149 H   0  0  0  0  0  0
  -21.2023   -7.6105   23.9668 H   0  0  0  0  0  0
  -21.1504   -6.0564   25.9049 H   0  0  0  0  0  0
  -22.0604   -2.7614   23.2833 H   0  0  0  0  0  0
  -21.1146  -13.1382   22.2935 H   0  0  0  0  0  0
  -22.3953  -11.9688   22.4467 H   0  0  0  0  0  0
  -24.6563  -15.8331   20.5443 H   0  0  0  0  0  0
  -26.2931  -15.6477   20.1737 H   0  0  0  0  0  0
  -26.7081  -32.5587   23.1222 H   0  0  0  0  0  0
  -25.0065  -33.9818   25.0534 H   0  0  0  0  0  0
  -22.6835  -31.3108   21.4154 H   0  0  0  0  0  0
  -23.3738  -35.9659   23.3325 H   0  0  0  0  0  0
  -24.3582  -36.8908   22.2051 H   0  0  0  0  0  0
  -23.7224  -37.6540   23.6627 H   0  0  0  0  0  0
  -26.0185  -31.6222   20.5864 H   0  0  0  0  0  0
  -26.8118  -30.9187   21.9672 H   0  0  0  0  0  0
  -28.0937  -29.1592   21.1614 H   0  0  0  0  0  0
  -26.1111  -25.9986   19.0136 H   0  0  0  0  0  0
  -23.9959  -27.2974   19.0232 H   0  0  0  0  0  0
  -23.6950  -30.5964   19.4025 H   0  0  0  0  0  0
  -22.7305  -29.2320   19.8777 H   0  0  0  0  0  0
  -25.1269  -36.2012   25.0846 H   0  0  0  0  0  0
  -20.9946  -28.3239   24.1445 H   0  0  0  0  0  0
  -20.5653  -26.2284   23.3619 H   0  0  0  0  0  0
  -21.6637  -26.7445   22.1240 H   0  0  0  0  0  0
  -19.6913  -25.6310   21.1247 H   0  0  0  0  0  0
  -19.6695  -27.3201   20.6747 H   0  0  0  0  0  0
  -17.4204  -26.6685   21.3994 H   0  0  0  0  0  0
  -18.0301  -26.0060   22.8985 H   0  0  0  0  0  0
  -19.7927  -30.7248   24.2297 H   0  0  0  0  0  0
  -17.5014  -31.6269   24.5165 H   0  0  0  0  0  0
  -15.5344  -30.3001   23.7650 H   0  0  0  0  0  0
  -15.8649  -28.0829   22.7074 H   0  0  0  0  0  0
  -24.5932  -30.7029   25.7913 H   0  0  0  0  0  0
  -24.8930  -32.2841   26.4980 H   0  0  0  0  0  0
  -25.8147  -30.8911   27.0260 H   0  0  0  0  0  0
  -26.2741  -29.6856   24.1111 H   0  0  0  0  0  0
  -27.4044  -29.7250   25.4479 H   0  0  0  0  0  0
  -27.8580  -30.4400   23.9147 H   0  0  0  0  0  0
  -27.2671  -33.3603   26.2091 H   0  0  0  0  0  0
  -28.3798  -32.6904   25.0247 H   0  0  0  0  0  0
  -28.0763  -31.8415   26.5336 H   0  0  0  0  0  0
  -28.2620  -38.0099   24.7505 H   0  0  0  0  0  0
  -28.1059  -36.2625   24.6273 H   0  0  0  0  0  0
  -27.2318  -37.1462   25.8877 H   0  0  0  0  0  0
  -20.9304  -29.8700   21.6907 H   0  0  0  0  0  0
  -26.0189  -38.2890   24.1434 H   0  0  0  0  0  0
  -31.4659  -25.5083   21.5480 H   0  0  0  0  0  0
  -33.2977  -23.9912   21.5707 H   0  0  0  0  0  0
  -33.0262  -22.4864   20.6921 H   0  0  0  0  0  0
  -32.9637  -22.4986   22.4521 H   0  0  0  0  0  0
  -28.2458  -20.7140   20.5544 H   0  0  0  0  0  0
  -26.9353  -21.7814   20.8921 H   0  0  0  0  0  0
  -29.7102  -27.1032   21.6343 H   0  0  0  0  0  0
  -28.1450  -26.5623   22.1834 H   0  0  0  0  0  0
  -29.3247  -18.8387   23.4676 H   0  0  0  0  0  0
  -28.8610  -18.0095   21.9942 H   0  0  0  0  0  0
  -27.6615  -17.1589   24.6508 H   0  0  0  0  0  0
  -27.0659  -16.8419   23.0523 H   0  0  0  0  0  0
  -29.5677  -15.9593   23.8982 H   0  0  0  0  0  0
  -30.7052  -17.2282   24.1401 H   0  0  0  0  0  0
  -26.8924  -19.4008   24.6697 H   0  0  0  0  0  0
  -25.6126  -18.4661   23.9765 H   0  0  0  0  0  0
  -31.8422  -16.0547   22.4852 H   0  0  0  0  0  0
  -30.9642  -17.1474   21.4423 H   0  0  0  0  0  0
  -25.6261  -20.2734   22.5176 H   0  0  0  0  0  0
  -26.6349  -19.1548   21.6288 H   0  0  0  0  0  0
  -29.2965  -14.9139   21.9305 H   0  0  0  0  0  0
  -27.4118  -21.4620   23.2715 H   0  0  0  0  0  0
  -28.5184  -20.3352   22.8598 H   0  0  0  0  0  0
  1 25  1  0  0  0
  1 30  2  0  0  0
  1 86  1  0  0  0
  2  3  1  0  0  0
  2 25  1  0  0  0
  2 90  1  0  0  0
  2 91  1  0  0  0
  3  4  1  0  0  0
  3 92  1  0  0  0
  3 93  1  0  0  0
  4  5  1  0  0  0
  4 94  1  0  0  0
  4 95  1  0  0  0
  5  6  1  0  0  0
  5 26  1  0  0  0
  5 96  1  0  0  0
  6 25  1  0  0  0
  6 97  1  0  0  0
  6 98  1  0  0  0
  7  8  2  0  0  0
  7 26  1  0  0  0
  7 29  1  0  0  0
  8  9  1  0  0  0
  8 22  1  0  0  0
  9 10  1  0  0  0
  9 27  2  0  0  0
 10 11  2  0  0  0
 10 15  1  0  0  0
 11 12  1  0  0  0
 11 99  1  0  0  0
 12 13  2  0  0  0
 12100  1  0  0  0
 13 14  1  0  0  0
 13 31  1  0  0  0
 14 15  2  0  0  0
 14101  1  0  0  0
 15102  1  0  0  0
 16 17  2  0  0  0
 16 21  1  0  0  0
 16 31  1  0  0  0
 17 18  1  0  0  0
 17103  1  0  0  0
 18 19  2  0  0  0
 18104  1  0  0  0
 19 20  1  0  0  0
 19 24  1  0  0  0
 20 21  2  0  0  0
 20105  1  0  0  0
 21 23  1  0  0  0
 22 28  1  0  0  0
 22 32  2  0  0  0
 26 27  1  0  0  0
 28106  1  0  0  0
 28107  1  0  0  0
 29108  1  0  0  0
 29109  1  0  0  0
 33 34  1  0  0  0
 33 66  1  0  0  0
 33 70  2  0  0  0
 34 36  1  0  0  0
 34 59  1  0  0  0
 34110  1  0  0  0
 35 44  2  0  0  0
 35 45  1  0  0  0
 35 68  1  0  0  0
 36 56  1  0  0  0
 36111  1  0  0  0
 37 39  1  0  0  0
 37 47  1  0  0  0
 37 66  1  0  0  0
 37112  1  0  0  0
 38 43  2  0  0  0
 38 46  1  0  0  0
 38 47  1  0  0  0
 39 64  1  0  0  0
 39 67  2  0  0  0
 40 52  1  0  0  0
 40 53  2  0  0  0
 40 58  1  0  0  0
 41113  1  0  0  0
 41114  1  0  0  0
 41115  1  0  0  0
 41 48  1  0  0  0
 42 43  1  0  0  0
 42 66  1  0  0  0
 42116  1  0  0  0
 42117  1  0  0  0
 43 44  1  0  0  0
 44118  1  0  0  0
 45 46  2  0  0  0
 45119  1  0  0  0
 46120  1  0  0  0
 47121  1  0  0  0
 47122  1  0  0  0
 48 56  1  0  0  0
 48 65  1  0  0  0
 48123  1  0  0  0
 49 50  1  0  0  0
 49 53  1  0  0  0
 49 64  1  0  0  0
 49124  1  0  0  0
 50 51  1  0  0  0
 50125  1  0  0  0
 50126  1  0  0  0
 51 52  1  0  0  0
 51127  1  0  0  0
 51128  1  0  0  0
 52129  1  0  0  0
 52130  1  0  0  0
 53 54  1  0  0  0
 54 55  2  0  0  0
 54131  1  0  0  0
 55 57  1  0  0  0
 55132  1  0  0  0
 56 69  2  0  0  0
 57 58  2  0  0  0
 57133  1  0  0  0
 58134  1  0  0  0
 59 60  1  0  0  0
 59 61  1  0  0  0
 59 62  1  0  0  0
 60135  1  0  0  0
 60136  1  0  0  0
 60137  1  0  0  0
 61138  1  0  0  0
 61139  1  0  0  0
 61140  1  0  0  0
 62141  1  0  0  0
 62142  1  0  0  0
 62143  1  0  0  0
 63 65  1  0  0  0
 63144  1  0  0  0
 63145  1  0  0  0
 63146  1  0  0  0
 64147  1  0  0  0
 65148  1  0  0  0
 68 79  1  0  0  0
 71 72  2  0  0  0
 71 73  1  0  0  0
 71149  1  0  0  0
 72 75  1  0  0  0
 72 77  1  0  0  0
 73 76  2  0  0  0
 73 79  1  0  0  0
 74 75  2  0  0  0
 74 76  1  0  0  0
 74 78  1  0  0  0
 75 88  1  0  0  0
 76 89  1  0  0  0
 77150  1  0  0  0
 77151  1  0  0  0
 77152  1  0  0  0
 78 87  1  0  0  0
 78153  1  0  0  0
 78154  1  0  0  0
 79155  1  0  0  0
 79156  1  0  0  0
 80 81  1  0  0  0
 80 82  1  0  0  0
 80157  1  0  0  0
 80158  1  0  0  0
 81 83  1  0  0  0
 81159  1  0  0  0
 81160  1  0  0  0
 82 84  1  0  0  0
 82161  1  0  0  0
 82162  1  0  0  0
 83 85  1  0  0  0
 83163  1  0  0  0
 83164  1  0  0  0
 84 86  1  0  0  0
 84165  1  0  0  0
 84166  1  0  0  0
 85 87  1  0  0  0
 85167  1  0  0  0
 85168  1  0  0  0
 86169  1  0  0  0
 87170  1  0  0  0
 87171  1  0  0  0
M  CHG  1  87   1
M  ISO  4   1 100  68 101  79 101  86 100
M  END
> <chiral flag>
0

> <version>
0

> <s_m_source_file>
/data/baiqing/PycharmProjects/Reinvent-master-3.2/result/LINK_invent/BTK/process_docking_weight1_custom_sum_contain_oxygen_bond_distance_aromatic_linkinvent_7_9_3/rearranged_h_0024.sdf

> <i_m_source_file_index>
34

> <r_mmod_Potential_Energy-OPLS-2005>
-233.978500366211

> <r_mmod_Stretch_Energy-OPLS-2005>
33.0018692016602

> <r_mmod_Bend_Energy-OPLS-2005>
88.1352233886719

> <r_mmod_Torsional_Energy-OPLS-2005>
257.108795166016

> <r_mmod_Improper_Torsional_Energy-OPLS-2005>
1.65105557441711

> <r_mmod_Van_der_Waal_Energy-OPLS-2005>
149.965560913086

> <r_mmod_Electrostatic_Energy-OPLS-2005>
-320.949951171875

> <r_mmod_Solvation_Energy-OPLS-2005>
-450.79443359375

> <b_mmod_Minimization_Converged-OPLS-2005>
0

> <r_mmod_RMS_Derivative-OPLS-2005>
5.69540071487427

$$$$
34
                    3D
 Structure written by MMmdl.
153161  0  0  1  0            999 V2000
  -30.6539  -14.7056   20.4724 C   0  0  0  0  0  0
  -30.4249  -12.4324   19.4848 C   0  0  0  0  0  0
  -29.5098  -12.4970   18.2450 C   0  0  0  0  0  0
  -28.0358  -12.3266   18.6577 C   0  0  0  0  0  0
  -27.6435  -13.2344   19.8554 C   0  0  2  0  0  0
  -28.6844  -13.1766   20.9954 C   0  0  0  0  0  0
  -25.2501  -13.8210   20.5674 C   0  0  0  0  0  0
  -24.1810  -13.0460   20.9173 C   0  0  0  0  0  0
  -24.6420  -11.6935   20.8762 C   0  0  0  0  0  0
  -23.9089  -10.4325   21.0419 C   0  0  0  0  0  0
  -24.3639   -9.4258   21.9194 C   0  0  0  0  0  0
  -23.6321   -8.2286   22.0750 C   0  0  0  0  0  0
  -22.4288   -8.0326   21.3558 C   0  0  0  0  0  0
  -21.9932   -9.0305   20.4638 C   0  0  0  0  0  0
  -22.7249  -10.2180   20.3060 C   0  0  0  0  0  0
  -21.6866   -6.0773   22.5278 C   0  0  0  0  0  0
  -21.4027   -6.5667   23.8214 C   0  0  0  0  0  0
  -21.3658   -5.6799   24.9160 C   0  0  0  0  0  0
  -21.6035   -4.3063   24.7197 C   0  0  0  0  0  0
  -21.8831   -3.8173   23.4314 C   0  0  0  0  0  0
  -21.9199   -4.7006   22.3379 C   0  0  0  0  0  0
  -22.7839  -13.5263   21.1836 C   0  0  0  0  0  0
  -22.1654   -4.2204   21.0951 F   0  0  0  0  0  0
  -21.5611   -3.4538   25.7703 F   0  0  0  0  0  0
  -29.9925  -13.5012   20.4161 N   0  0  0  0  0  0
  -26.2945  -12.9444   20.3300 N   0  0  0  0  0  0
  -25.9350  -11.6584   20.5791 N   0  0  0  0  0  0
  -22.0497  -12.8282   22.0399 N   0  0  0  0  0  0
  -25.4125  -15.1938   20.4019 N   0  0  0  0  0  0
  -31.8340  -14.7705   20.1227 O   0  0  0  0  0  0
  -21.6631   -6.8931   21.4243 O   0  0  0  0  0  0
  -22.3541  -14.5573   20.6667 O   0  0  0  0  0  0
  -24.6274  -31.8561   23.1985 C   0  0  0  0  0  0
  -25.9118  -32.4751   23.8312 C   0  0  1  0  0  0
  -27.2281  -27.2827   20.1195 C   0  0  0  0  0  0
  -25.5934  -33.8553   24.2249 N   0  0  0  0  0  0
  -23.4225  -30.4818   21.5385 C   0  0  2  0  0  0
  -24.8748  -28.9361   20.1039 C   0  0  0  0  0  0
  -22.7480  -29.4614   22.4884 C   0  0  0  0  0  0
  -18.0296  -28.1395   22.8500 C   0  0  0  0  0  0
  -24.1490  -36.7284   23.2636 C   0  0  0  0  0  0
  -25.9673  -30.7738   21.3801 C   0  0  0  0  0  0
  -26.0419  -29.3977   20.7262 C   0  0  0  0  0  0
  -27.2148  -28.5785   20.7373 C   0  0  0  0  0  0
  -26.0460  -26.9049   19.4389 C   0  0  0  0  0  0
  -24.8816  -27.6963   19.4490 C   0  0  0  0  0  0
  -23.6424  -29.8188   20.1533 C   0  0  0  0  0  0
  -25.4115  -36.3054   24.0321 C   0  0  1  0  0  0
  -20.5897  -28.3700   23.1272 C   0  0  2  0  0  0
  -20.6797  -26.9419   22.5410 C   0  0  0  0  0  0
  -19.5759  -26.6398   21.5221 C   0  0  0  0  0  0
  -18.1942  -26.7938   22.1640 C   0  0  0  0  0  0
  -19.1551  -28.8865   23.2888 C   0  0  0  0  0  0
  -18.9472  -30.1474   23.8891 C   0  0  0  0  0  0
  -17.6466  -30.6588   24.0579 C   0  0  0  0  0  0
  -25.9061  -34.9428   23.5079 C   0  0  0  0  0  0
  -16.5361  -29.9091   23.6331 C   0  0  0  0  0  0
  -16.7285  -28.6516   23.0346 C   0  0  0  0  0  0
  -26.4507  -31.6566   25.0694 C   0  0  0  0  0  0
  -25.3755  -31.3711   26.1436 C   0  0  0  0  0  0
  -27.0358  -30.2972   24.6183 C   0  0  0  0  0  0
  -27.6055  -32.4306   25.7476 C   0  0  0  0  0  0
  -27.5574  -37.1793   24.8464 C   0  0  0  0  0  0
  -21.4187  -29.3056   22.3644 N   0  0  0  0  0  0
  -26.4286  -37.3754   23.9412 N   0  0  0  0  0  0
  -24.6903  -31.0555   22.0949 N   0  0  0  0  0  0
  -23.4200  -28.8167   23.2983 O   0  0  0  0  0  0
  -28.3266  -26.3929   20.2045 O   0  0  0  0  0  0
  -26.5631  -34.8906   22.4645 O   0  0  0  0  0  0
  -23.5442  -32.1388   23.7309 O   0  0  0  0  0  0
  -29.0936  -20.5016   21.8316 C   0  0  0  0  0  0
  -29.4826  -19.1271   21.9217 C   0  0  0  0  0  0
  -29.1634  -20.9365   20.5341 C   0  0  0  0  0  0
  -29.8109  -18.6315   20.6864 C   0  0  0  0  0  0
  -28.7406  -22.2650   19.8852 C   0  0  0  0  0  0
  -29.8965  -19.7147   18.3956 C   0  0  0  0  0  0
  -30.4327  -17.2500   20.2341 C   0  0  0  0  0  0
  -28.9969  -23.7273   20.4745 C   0  0  0  0  0  0
  -28.1551  -24.9477   19.8282 C   0  0  0  0  0  0
  -29.6191  -19.7685   19.8265 N   0  0  0  0  0  0
  -29.9399  -15.8759   20.6708 N   0  0  0  0  0  0
  -28.1725  -22.2212   18.7894 O   0  0  0  0  0  0
  -28.5802  -21.4582   23.1761 Cl  0  0  0  0  0  0
  -29.5736  -18.2279   23.3934 Cl  0  0  0  0  0  0
  -31.4671  -12.5333   19.1801 H   0  0  0  0  0  0
  -30.3507  -11.4564   19.9662 H   0  0  0  0  0  0
  -29.7882  -11.7216   17.5300 H   0  0  0  0  0  0
  -29.6418  -13.4517   17.7333 H   0  0  0  0  0  0
  -27.8933  -11.2800   18.9311 H   0  0  0  0  0  0
  -27.3752  -12.5112   17.8088 H   0  0  0  0  0  0
  -27.6424  -14.2548   19.4713 H   0  0  0  0  0  0
  -28.7046  -12.1893   21.4592 H   0  0  0  0  0  0
  -28.4226  -13.8841   21.7831 H   0  0  0  0  0  0
  -25.2799   -9.5741   22.4757 H   0  0  0  0  0  0
  -24.0060   -7.4673   22.7465 H   0  0  0  0  0  0
  -21.0877   -8.8818   19.8940 H   0  0  0  0  0  0
  -22.3728  -10.9725   19.6161 H   0  0  0  0  0  0
  -21.2034   -7.6171   23.9747 H   0  0  0  0  0  0
  -21.1443   -6.0503   25.9068 H   0  0  0  0  0  0
  -22.0615   -2.7640   23.2774 H   0  0  0  0  0  0
  -22.4126  -11.9963   22.4795 H   0  0  0  0  0  0
  -21.1109  -13.1298   22.2560 H   0  0  0  0  0  0
  -24.6339  -15.8373   20.4989 H   0  0  0  0  0  0
  -26.2540  -15.6395   20.0630 H   0  0  0  0  0  0
  -26.7188  -32.5416   23.1059 H   0  0  0  0  0  0
  -25.0079  -33.9673   25.0396 H   0  0  0  0  0  0
  -22.7165  -31.3024   21.3931 H   0  0  0  0  0  0
  -23.3734  -35.9629   23.3286 H   0  0  0  0  0  0
  -24.3587  -36.8923   22.2049 H   0  0  0  0  0  0
  -23.7264  -37.6491   23.6675 H   0  0  0  0  0  0
  -26.1061  -31.5330   20.6086 H   0  0  0  0  0  0
  -26.8417  -30.8220   22.0166 H   0  0  0  0  0  0
  -28.0963  -28.9231   21.2609 H   0  0  0  0  0  0
  -25.9846  -25.9816   18.8835 H   0  0  0  0  0  0
  -23.9997  -27.3458   18.9311 H   0  0  0  0  0  0
  -23.7597  -30.5932   19.3940 H   0  0  0  0  0  0
  -22.7634  -29.2467   19.8490 H   0  0  0  0  0  0
  -25.1293  -36.1874   25.0812 H   0  0  0  0  0  0
  -21.0020  -28.3295   24.1379 H   0  0  0  0  0  0
  -20.5690  -26.2324   23.3625 H   0  0  0  0  0  0
  -21.6661  -26.7438   22.1200 H   0  0  0  0  0  0
  -19.6902  -25.6309   21.1249 H   0  0  0  0  0  0
  -19.6676  -27.3221   20.6751 H   0  0  0  0  0  0
  -17.4204  -26.6696   21.4047 H   0  0  0  0  0  0
  -18.0332  -26.0080   22.9031 H   0  0  0  0  0  0
  -19.7947  -30.7316   24.2240 H   0  0  0  0  0  0
  -17.5016  -31.6259   24.5206 H   0  0  0  0  0  0
  -15.5359  -30.2996   23.7656 H   0  0  0  0  0  0
  -15.8703  -28.0846   22.7030 H   0  0  0  0  0  0
  -24.5921  -30.7066   25.7782 H   0  0  0  0  0  0
  -24.8980  -32.2889   26.4857 H   0  0  0  0  0  0
  -25.8100  -30.8893   27.0205 H   0  0  0  0  0  0
  -26.2937  -29.6706   24.1223 H   0  0  0  0  0  0
  -27.4055  -29.7233   25.4695 H   0  0  0  0  0  0
  -27.8808  -30.4225   23.9412 H   0  0  0  0  0  0
  -27.2631  -33.3587   26.2051 H   0  0  0  0  0  0
  -28.3864  -32.6891   25.0318 H   0  0  0  0  0  0
  -28.0724  -31.8445   26.5400 H   0  0  0  0  0  0
  -28.2581  -38.0100   24.7503 H   0  0  0  0  0  0
  -28.1080  -36.2625   24.6283 H   0  0  0  0  0  0
  -27.2305  -37.1438   25.8875 H   0  0  0  0  0  0
  -20.9356  -29.8795   21.6875 H   0  0  0  0  0  0
  -26.0147  -38.2821   24.1412 H   0  0  0  0  0  0
  -29.9583  -20.7053   17.9466 H   0  0  0  0  0  0
  -29.1143  -19.1430   17.8944 H   0  0  0  0  0  0
  -30.8602  -19.2353   18.2237 H   0  0  0  0  0  0
  -31.4854  -17.2912   20.5178 H   0  0  0  0  0  0
  -30.4475  -17.2038   19.1457 H   0  0  0  0  0  0
  -30.0611  -23.9336   20.3540 H   0  0  0  0  0  0
  -28.8083  -23.6954   21.5463 H   0  0  0  0  0  0
  -27.1234  -24.6558   20.0098 H   0  0  0  0  0  0
  -28.2919  -24.9150   18.7462 H   0  0  0  0  0  0
  -28.9650  -15.7897   20.9115 H   0  0  0  0  0  0
  1 25  1  0  0  0
  1 30  2  0  0  0
  1 81  1  0  0  0
  2  3  1  0  0  0
  2 25  1  0  0  0
  2 85  1  0  0  0
  2 86  1  0  0  0
  3  4  1  0  0  0
  3 87  1  0  0  0
  3 88  1  0  0  0
  4  5  1  0  0  0
  4 89  1  0  0  0
  4 90  1  0  0  0
  5  6  1  0  0  0
  5 26  1  0  0  0
  5 91  1  0  0  0
  6 25  1  0  0  0
  6 92  1  0  0  0
  6 93  1  0  0  0
  7  8  2  0  0  0
  7 26  1  0  0  0
  7 29  1  0  0  0
  8  9  1  0  0  0
  8 22  1  0  0  0
  9 10  1  0  0  0
  9 27  2  0  0  0
 10 11  2  0  0  0
 10 15  1  0  0  0
 11 12  1  0  0  0
 11 94  1  0  0  0
 12 13  2  0  0  0
 12 95  1  0  0  0
 13 14  1  0  0  0
 13 31  1  0  0  0
 14 15  2  0  0  0
 14 96  1  0  0  0
 15 97  1  0  0  0
 16 17  2  0  0  0
 16 21  1  0  0  0
 16 31  1  0  0  0
 17 18  1  0  0  0
 17 98  1  0  0  0
 18 19  2  0  0  0
 18 99  1  0  0  0
 19 20  1  0  0  0
 19 24  1  0  0  0
 20 21  2  0  0  0
 20100  1  0  0  0
 21 23  1  0  0  0
 22 28  1  0  0  0
 22 32  2  0  0  0
 26 27  1  0  0  0
 28101  1  0  0  0
 28102  1  0  0  0
 29103  1  0  0  0
 29104  1  0  0  0
 33 34  1  0  0  0
 33 66  1  0  0  0
 33 70  2  0  0  0
 34 36  1  0  0  0
 34 59  1  0  0  0
 34105  1  0  0  0
 35 44  2  0  0  0
 35 45  1  0  0  0
 35 68  1  0  0  0
 36 56  1  0  0  0
 36106  1  0  0  0
 37 39  1  0  0  0
 37 47  1  0  0  0
 37 66  1  0  0  0
 37107  1  0  0  0
 38 43  2  0  0  0
 38 46  1  0  0  0
 38 47  1  0  0  0
 39 64  1  0  0  0
 39 67  2  0  0  0
 40 52  1  0  0  0
 40 53  2  0  0  0
 40 58  1  0  0  0
 41108  1  0  0  0
 41109  1  0  0  0
 41110  1  0  0  0
 41 48  1  0  0  0
 42 43  1  0  0  0
 42 66  1  0  0  0
 42111  1  0  0  0
 42112  1  0  0  0
 43 44  1  0  0  0
 44113  1  0  0  0
 45 46  2  0  0  0
 45114  1  0  0  0
 46115  1  0  0  0
 47116  1  0  0  0
 47117  1  0  0  0
 48 56  1  0  0  0
 48 65  1  0  0  0
 48118  1  0  0  0
 49 50  1  0  0  0
 49 53  1  0  0  0
 49 64  1  0  0  0
 49119  1  0  0  0
 50 51  1  0  0  0
 50120  1  0  0  0
 50121  1  0  0  0
 51 52  1  0  0  0
 51122  1  0  0  0
 51123  1  0  0  0
 52124  1  0  0  0
 52125  1  0  0  0
 53 54  1  0  0  0
 54 55  2  0  0  0
 54126  1  0  0  0
 55 57  1  0  0  0
 55127  1  0  0  0
 56 69  2  0  0  0
 57 58  2  0  0  0
 57128  1  0  0  0
 58129  1  0  0  0
 59 60  1  0  0  0
 59 61  1  0  0  0
 59 62  1  0  0  0
 60130  1  0  0  0
 60131  1  0  0  0
 60132  1  0  0  0
 61133  1  0  0  0
 61134  1  0  0  0
 61135  1  0  0  0
 62136  1  0  0  0
 62137  1  0  0  0
 62138  1  0  0  0
 63 65  1  0  0  0
 63139  1  0  0  0
 63140  1  0  0  0
 63141  1  0  0  0
 64142  1  0  0  0
 65143  1  0  0  0
 68 79  1  0  0  0
 71 72  1  0  0  0
 71 73  2  0  0  0
 71 83  1  0  0  0
 72 74  2  0  0  0
 72 84  1  0  0  0
 73 75  1  0  0  0
 73 80  1  0  0  0
 74 77  1  0  0  0
 74 80  1  0  0  0
 75 78  1  0  0  0
 75 82  2  0  0  0
 76 80  1  0  0  0
 76144  1  0  0  0
 76145  1  0  0  0
 76146  1  0  0  0
 77 81  1  0  0  0
 77147  1  0  0  0
 77148  1  0  0  0
 78 79  1  0  0  0
 78149  1  0  0  0
 78150  1  0  0  0
 79151  1  0  0  0
 79152  1  0  0  0
 81153  1  0  0  0
M  ISO  4   1 100  68 101  79 101  81 100
M  END
> <chiral flag>
0

> <version>
0

> <s_m_source_file>
/data/baiqing/PycharmProjects/Reinvent-master-3.2/result/LINK_invent/BTK/process_docking_weight1_custom_sum_contain_oxygen_bond_distance_aromatic_linkinvent_7_9_3/rearranged_h_0024.sdf

> <i_m_source_file_index>
35

> <r_mmod_Potential_Energy-OPLS-2005>
129.978408813477

> <r_mmod_Stretch_Energy-OPLS-2005>
116.977867126465

> <r_mmod_Bend_Energy-OPLS-2005>
176.313171386719

> <r_mmod_Torsional_Energy-OPLS-2005>
232.394088745117

> <r_mmod_Improper_Torsional_Energy-OPLS-2005>
7.26148080825806

> <r_mmod_Van_der_Waal_Energy-OPLS-2005>
127.366432189941

> <r_mmod_Electrostatic_Energy-OPLS-2005>
-387.801971435547

> <r_mmod_Solvation_Energy-OPLS-2005>
-216.72834777832

> <b_mmod_Minimization_Converged-OPLS-2005>
0

> <r_mmod_RMS_Derivative-OPLS-2005>
3.31773042678833

$$$$
35
                    3D
 Structure written by MMmdl.
185194  0  0  1  0            999 V2000
  -30.1129  -16.1527   20.3308 C   0  0  0  0  0  0
  -30.3816  -13.4759   19.5741 C   0  0  0  0  0  0
  -29.5815  -12.8323   18.3878 C   0  0  0  0  0  0
  -28.2058  -12.3431   18.8450 C   0  0  0  0  0  0
  -27.5878  -13.3715   19.8127 C   0  0  2  0  0  0
  -28.5535  -13.9063   20.9162 C   0  0  0  0  0  0
  -25.2268  -13.8394   20.5843 C   0  0  0  0  0  0
  -24.1711  -13.0451   20.9292 C   0  0  0  0  0  0
  -24.6499  -11.6983   20.8706 C   0  0  0  0  0  0
  -23.9193  -10.4309   21.0332 C   0  0  0  0  0  0
  -24.3680   -9.4209   21.9113 C   0  0  0  0  0  0
  -23.6327   -8.2258   22.0719 C   0  0  0  0  0  0
  -22.4288   -8.0317   21.3538 C   0  0  0  0  0  0
  -21.9965   -9.0285   20.4622 C   0  0  0  0  0  0
  -22.7339  -10.2138   20.3008 C   0  0  0  0  0  0
  -21.6863   -6.0743   22.5260 C   0  0  0  0  0  0
  -21.4034   -6.5626   23.8204 C   0  0  0  0  0  0
  -21.3686   -5.6773   24.9153 C   0  0  0  0  0  0
  -21.6079   -4.3036   24.7219 C   0  0  0  0  0  0
  -21.8823   -3.8140   23.4329 C   0  0  0  0  0  0
  -21.9184   -4.6966   22.3388 C   0  0  0  0  0  0
  -22.7698  -13.5111   21.1861 C   0  0  0  0  0  0
  -22.1633   -4.2157   21.0970 F   0  0  0  0  0  0
  -21.5639   -3.4508   25.7726 F   0  0  0  0  0  0
  -29.6542  -14.6928   20.2633 N   0  0  0  0  0  0
  -26.2810  -12.9842   20.3257 N   0  0  0  0  0  0
  -25.9473  -11.6846   20.5576 N   0  0  0  0  0  0
  -22.0331  -12.8134   22.0446 N   0  0  0  0  0  0
  -25.3788  -15.2146   20.4298 N   0  0  0  0  0  0
  -31.3363  -15.9975   20.0862 O   0  0  0  0  0  0
  -21.6671   -6.8889   21.4224 O   0  0  0  0  0  0
  -22.3362  -14.5360   20.6609 O   0  0  0  0  0  0
  -24.7175  -31.7602   23.1216 C   0  0  0  0  0  0
  -25.9598  -32.4274   23.7898 C   0  0  1  0  0  0
  -27.2474  -26.3469   20.2381 C   0  0  0  0  0  0
  -25.6009  -33.8117   24.1737 N   0  0  0  0  0  0
  -23.5592  -30.3427   21.4868 C   0  0  2  0  0  0
  -25.0169  -28.6063   20.1322 C   0  0  0  0  0  0
  -22.7925  -29.4094   22.4666 C   0  0  0  0  0  0
  -18.0374  -28.1418   22.8437 C   0  0  0  0  0  0
  -24.1508  -36.7066   23.2656 C   0  0  0  0  0  0
  -26.1537  -30.3729   21.4385 C   0  0  0  0  0  0
  -26.2165  -28.8971   20.7943 C   0  0  0  0  0  0
  -27.2982  -27.8116   20.7974 C   0  0  0  0  0  0
  -26.0062  -26.3531   19.5182 C   0  0  0  0  0  0
  -24.9749  -27.3635   19.4690 C   0  0  0  0  0  0
  -23.8320  -29.6062   20.1380 C   0  0  0  0  0  0
  -25.4172  -36.2781   24.0253 C   0  0  1  0  0  0
  -20.6012  -28.3805   23.1092 C   0  0  2  0  0  0
  -20.6811  -26.9440   22.5405 C   0  0  0  0  0  0
  -19.5792  -26.6344   21.5214 C   0  0  0  0  0  0
  -18.1978  -26.7938   22.1608 C   0  0  0  0  0  0
  -19.1642  -28.8953   23.2725 C   0  0  0  0  0  0
  -18.9529  -30.1516   23.8788 C   0  0  0  0  0  0
  -17.6509  -30.6588   24.0538 C   0  0  0  0  0  0
  -25.9166  -34.9176   23.4874 C   0  0  0  0  0  0
  -16.5405  -29.9063   23.6346 C   0  0  0  0  0  0
  -16.7346  -28.6489   23.0380 C   0  0  0  0  0  0
  -26.4648  -31.6457   25.0677 C   0  0  0  0  0  0
  -25.3627  -31.3869   26.1236 C   0  0  0  0  0  0
  -27.0626  -30.2757   24.6822 C   0  0  0  0  0  0
  -27.6042  -32.4398   25.7504 C   0  0  0  0  0  0
  -27.5562  -37.1688   24.8462 C   0  0  0  0  0  0
  -21.4531  -29.2990   22.3388 N   0  0  0  0  0  0
  -26.4271  -37.3578   23.9395 N   0  0  0  0  0  0
  -24.8379  -30.8675   22.0681 N   0  0  0  0  0  0
  -23.4184  -28.7769   23.3186 O   0  0  0  0  0  0
  -28.1921  -24.9846   20.2654 O   0  0  0  0  0  0
  -26.5872  -34.8821   22.4522 O   0  0  0  0  0  0
  -23.6121  -32.0867   23.5941 O   0  0  0  0  0  0
  -34.8951  -22.4356   26.3523 C   0  0  0  0  0  0
  -34.3811  -21.3305   25.7804 C   0  0  0  0  0  0
  -33.0110  -22.7100   24.0587 C   0  0  0  0  0  0
  -31.7687  -21.9667   23.5683 C   0  0  0  0  0  0
  -29.2497  -21.4052   20.6911 C   0  0  0  0  0  0
  -33.5720  -21.3446   24.4835 C   0  0  2  0  0  0
  -32.1117  -20.8310   24.5552 C   0  0  2  0  0  0
  -27.6577  -21.9523   19.1934 C   0  0  2  0  0  0
  -28.2096  -23.0296   20.2938 C   0  0  2  0  0  0
  -27.7821  -20.2435   19.5054 C   0  0  0  0  0  0
  -29.2169  -19.5460   20.0298 C   0  0  1  0  0  0
  -34.6024  -19.9632   26.3934 C   0  0  0  0  0  0
  -28.1562  -22.3963   17.8037 C   0  0  0  0  0  0
  -26.7206  -19.9954   20.6126 C   0  0  0  0  0  0
  -27.2335  -19.4606   18.2955 C   0  0  0  0  0  0
  -31.7647  -19.3588   24.2441 C   0  0  0  0  0  0
  -30.7749  -19.1546   23.0682 C   0  0  0  0  0  0
  -30.0650  -17.7832   23.0074 C   0  0  0  0  0  0
  -28.9297  -17.6984   21.9476 C   0  0  0  0  0  0
  -30.2925  -19.4509   18.9122 C   0  0  0  0  0  0
  -29.3917  -17.6643   20.5482 N   0  0  0  0  0  0
  -31.4554  -19.1638   19.4950 F   0  0  0  0  0  0
  -30.0066  -18.4620   18.0614 F   0  0  0  0  0  0
  -30.4630  -20.5663   18.2161 F   0  0  0  0  0  0
  -31.3401  -13.7980   19.1705 H   0  0  0  0  0  0
  -30.6666  -12.7187   20.3062 H   0  0  0  0  0  0
  -30.1534  -12.0205   17.9362 H   0  0  0  0  0  0
  -29.4587  -13.5873   17.6070 H   0  0  0  0  0  0
  -28.3270  -11.3884   19.3593 H   0  0  0  0  0  0
  -27.5613  -12.1590   17.9860 H   0  0  0  0  0  0
  -27.3847  -14.2253   19.1628 H   0  0  0  0  0  0
  -28.9142  -13.1081   21.5688 H   0  0  0  0  0  0
  -28.0130  -14.5946   21.5651 H   0  0  0  0  0  0
  -25.2819   -9.5674   22.4682 H   0  0  0  0  0  0
  -24.0036   -7.4657   22.7455 H   0  0  0  0  0  0
  -21.0887   -8.8814   19.8931 H   0  0  0  0  0  0
  -22.3795  -10.9650   19.6107 H   0  0  0  0  0  0
  -21.2025   -7.6130   23.9710 H   0  0  0  0  0  0
  -21.1500   -6.0484   25.9055 H   0  0  0  0  0  0
  -22.0582   -2.7601   23.2815 H   0  0  0  0  0  0
  -22.3939  -11.9910   22.5058 H   0  0  0  0  0  0
  -21.0878  -13.1084   22.2438 H   0  0  0  0  0  0
  -24.5997  -15.8531   20.5406 H   0  0  0  0  0  0
  -26.2250  -15.6644   20.1069 H   0  0  0  0  0  0
  -26.7741  -32.4669   23.0643 H   0  0  0  0  0  0
  -25.0017  -33.9113   24.9806 H   0  0  0  0  0  0
  -22.9046  -31.1881   21.2665 H   0  0  0  0  0  0
  -23.3796  -35.9369   23.3256 H   0  0  0  0  0  0
  -24.3559  -36.8822   22.2082 H   0  0  0  0  0  0
  -23.7249  -37.6198   23.6820 H   0  0  0  0  0  0
  -26.3951  -31.0746   20.6392 H   0  0  0  0  0  0
  -26.9898  -30.4515   22.1191 H   0  0  0  0  0  0
  -28.2020  -28.0591   21.3378 H   0  0  0  0  0  0
  -25.7796  -25.4371   18.9925 H   0  0  0  0  0  0
  -24.0831  -27.1188   18.9073 H   0  0  0  0  0  0
  -24.0348  -30.3508   19.3668 H   0  0  0  0  0  0
  -22.9283  -29.0908   19.8090 H   0  0  0  0  0  0
  -25.1400  -36.1497   25.0748 H   0  0  0  0  0  0
  -21.0085  -28.3438   24.1225 H   0  0  0  0  0  0
  -20.5645  -26.2440   23.3697 H   0  0  0  0  0  0
  -21.6670  -26.7330   22.1247 H   0  0  0  0  0  0
  -19.6942  -25.6231   21.1312 H   0  0  0  0  0  0
  -19.6728  -27.3101   20.6706 H   0  0  0  0  0  0
  -17.4252  -26.6709   21.4002 H   0  0  0  0  0  0
  -18.0339  -26.0096   22.9015 H   0  0  0  0  0  0
  -19.8011  -30.7354   24.2119 H   0  0  0  0  0  0
  -17.5068  -31.6264   24.5145 H   0  0  0  0  0  0
  -15.5397  -30.2929   23.7733 H   0  0  0  0  0  0
  -15.8755  -28.0756   22.7173 H   0  0  0  0  0  0
  -24.5851  -30.7192   25.7501 H   0  0  0  0  0  0
  -24.8782  -32.3132   26.4347 H   0  0  0  0  0  0
  -25.7731  -30.9211   27.0211 H   0  0  0  0  0  0
  -26.3408  -29.6272   24.1853 H   0  0  0  0  0  0
  -27.3955  -29.7330   25.5672 H   0  0  0  0  0  0
  -27.9423  -30.3786   24.0475 H   0  0  0  0  0  0
  -27.2541  -33.3803   26.1761 H   0  0  0  0  0  0
  -28.3996  -32.6795   25.0443 H   0  0  0  0  0  0
  -28.0565  -31.8757   26.5666 H   0  0  0  0  0  0
  -28.2524  -38.0025   24.7504 H   0  0  0  0  0  0
  -28.1108  -36.2541   24.6303 H   0  0  0  0  0  0
  -27.2278  -37.1340   25.8863 H   0  0  0  0  0  0
  -20.9951  -29.8588   21.6344 H   0  0  0  0  0  0
  -26.0066  -38.2618   24.1386 H   0  0  0  0  0  0
  -34.7631  -23.4217   25.9322 H   0  0  0  0  0  0
  -35.4704  -22.3770   27.2652 H   0  0  0  0  0  0
  -32.7767  -23.3729   24.8945 H   0  0  0  0  0  0
  -33.5822  -23.2228   23.2817 H   0  0  0  0  0  0
  -31.8449  -21.6812   22.5179 H   0  0  0  0  0  0
  -30.8267  -22.4765   23.7776 H   0  0  0  0  0  0
  -29.1551  -21.3218   21.7709 H   0  0  0  0  0  0
  -30.2915  -21.7030   20.5729 H   0  0  0  0  0  0
  -34.1249  -20.8687   23.6716 H   0  0  0  0  0  0
  -31.6933  -21.1055   25.5273 H   0  0  0  0  0  0
  -26.5863  -22.1532   19.1248 H   0  0  0  0  0  0
  -27.4581  -22.9540   21.0795 H   0  0  0  0  0  0
  -35.1968  -20.0296   27.3059 H   0  0  0  0  0  0
  -35.1321  -19.3202   25.6903 H   0  0  0  0  0  0
  -33.6486  -19.4958   26.6431 H   0  0  0  0  0  0
  -29.2395  -22.4489   17.7303 H   0  0  0  0  0  0
  -27.7998  -23.4050   17.5983 H   0  0  0  0  0  0
  -27.7744  -21.7678   17.0014 H   0  0  0  0  0  0
  -26.9968  -20.4242   21.5773 H   0  0  0  0  0  0
  -26.5463  -18.9328   20.7712 H   0  0  0  0  0  0
  -25.7548  -20.4264   20.3472 H   0  0  0  0  0  0
  -26.2757  -19.8697   17.9772 H   0  0  0  0  0  0
  -27.0660  -18.4150   18.5493 H   0  0  0  0  0  0
  -27.9019  -19.4781   17.4341 H   0  0  0  0  0  0
  -31.3397  -18.9090   25.1414 H   0  0  0  0  0  0
  -32.6788  -18.7929   24.0534 H   0  0  0  0  0  0
  -31.3078  -19.3269   22.1330 H   0  0  0  0  0  0
  -29.9974  -19.9108   23.1413 H   0  0  0  0  0  0
  -29.5989  -17.6064   23.9774 H   0  0  0  0  0  0
  -30.7973  -16.9853   22.8784 H   0  0  0  0  0  0
  -28.2650  -18.5423   22.1205 H   0  0  0  0  0  0
  -28.3070  -16.8263   22.1456 H   0  0  0  0  0  0
  1 25  1  0  0  0
  1 30  2  0  0  0
  1 91  1  0  0  0
  2  3  1  0  0  0
  2 25  1  0  0  0
  2 95  1  0  0  0
  2 96  1  0  0  0
  3  4  1  0  0  0
  3 97  1  0  0  0
  3 98  1  0  0  0
  4  5  1  0  0  0
  4 99  1  0  0  0
  4100  1  0  0  0
  5  6  1  0  0  0
  5 26  1  0  0  0
  5101  1  0  0  0
  6 25  1  0  0  0
  6102  1  0  0  0
  6103  1  0  0  0
  7  8  2  0  0  0
  7 26  1  0  0  0
  7 29  1  0  0  0
  8  9  1  0  0  0
  8 22  1  0  0  0
  9 10  1  0  0  0
  9 27  2  0  0  0
 10 11  2  0  0  0
 10 15  1  0  0  0
 11 12  1  0  0  0
 11104  1  0  0  0
 12 13  2  0  0  0
 12105  1  0  0  0
 13 14  1  0  0  0
 13 31  1  0  0  0
 14 15  2  0  0  0
 14106  1  0  0  0
 15107  1  0  0  0
 16 17  2  0  0  0
 16 21  1  0  0  0
 16 31  1  0  0  0
 17 18  1  0  0  0
 17108  1  0  0  0
 18 19  2  0  0  0
 18109  1  0  0  0
 19 20  1  0  0  0
 19 24  1  0  0  0
 20 21  2  0  0  0
 20110  1  0  0  0
 21 23  1  0  0  0
 22 28  1  0  0  0
 22 32  2  0  0  0
 26 27  1  0  0  0
 28111  1  0  0  0
 28112  1  0  0  0
 29113  1  0  0  0
 29114  1  0  0  0
 33 34  1  0  0  0
 33 66  1  0  0  0
 33 70  2  0  0  0
 34 36  1  0  0  0
 34 59  1  0  0  0
 34115  1  0  0  0
 35 44  2  0  0  0
 35 45  1  0  0  0
 35 68  1  0  0  0
 36 56  1  0  0  0
 36116  1  0  0  0
 37 39  1  0  0  0
 37 47  1  0  0  0
 37 66  1  0  0  0
 37117  1  0  0  0
 38 43  2  0  0  0
 38 46  1  0  0  0
 38 47  1  0  0  0
 39 64  1  0  0  0
 39 67  2  0  0  0
 40 52  1  0  0  0
 40 53  2  0  0  0
 40 58  1  0  0  0
 41118  1  0  0  0
 41119  1  0  0  0
 41120  1  0  0  0
 41 48  1  0  0  0
 42 43  1  0  0  0
 42 66  1  0  0  0
 42121  1  0  0  0
 42122  1  0  0  0
 43 44  1  0  0  0
 44123  1  0  0  0
 45 46  2  0  0  0
 45124  1  0  0  0
 46125  1  0  0  0
 47126  1  0  0  0
 47127  1  0  0  0
 48 56  1  0  0  0
 48 65  1  0  0  0
 48128  1  0  0  0
 49 50  1  0  0  0
 49 53  1  0  0  0
 49 64  1  0  0  0
 49129  1  0  0  0
 50 51  1  0  0  0
 50130  1  0  0  0
 50131  1  0  0  0
 51 52  1  0  0  0
 51132  1  0  0  0
 51133  1  0  0  0
 52134  1  0  0  0
 52135  1  0  0  0
 53 54  1  0  0  0
 54 55  2  0  0  0
 54136  1  0  0  0
 55 57  1  0  0  0
 55137  1  0  0  0
 56 69  2  0  0  0
 57 58  2  0  0  0
 57138  1  0  0  0
 58139  1  0  0  0
 59 60  1  0  0  0
 59 61  1  0  0  0
 59 62  1  0  0  0
 60140  1  0  0  0
 60141  1  0  0  0
 60142  1  0  0  0
 61143  1  0  0  0
 61144  1  0  0  0
 61145  1  0  0  0
 62146  1  0  0  0
 62147  1  0  0  0
 62148  1  0  0  0
 63 65  1  0  0  0
 63149  1  0  0  0
 63150  1  0  0  0
 63151  1  0  0  0
 64152  1  0  0  0
 65153  1  0  0  0
 68 79  1  0  0  0
 71 72  2  0  0  0
 71154  1  0  0  0
 71155  1  0  0  0
 72 82  1  0  0  0
 72 76  1  0  0  0
 73 74  1  0  0  0
 73 76  1  0  0  0
 73156  1  0  0  0
 73157  1  0  0  0
 74 77  1  0  0  0
 74158  1  0  0  0
 74159  1  0  0  0
 75 79  1  0  0  0
 75 81  1  0  0  0
 75160  1  0  0  0
 75161  1  0  0  0
 76 77  1  0  0  0
 76162  1  0  0  0
 77 86  1  0  0  0
 77163  1  0  0  0
 78 79  1  0  0  0
 78 80  1  0  0  0
 78 83  1  0  0  0
 78164  1  0  0  0
 79165  1  0  0  0
 80 81  1  0  0  0
 80 84  1  0  0  0
 80 85  1  0  0  0
 81 90  1  0  0  0
 81 91  1  0  0  0
 82166  1  0  0  0
 82167  1  0  0  0
 82168  1  0  0  0
 83169  1  0  0  0
 83170  1  0  0  0
 83171  1  0  0  0
 84172  1  0  0  0
 84173  1  0  0  0
 84174  1  0  0  0
 85175  1  0  0  0
 85176  1  0  0  0
 85177  1  0  0  0
 86 87  1  0  0  0
 86178  1  0  0  0
 86179  1  0  0  0
 87 88  1  0  0  0
 87180  1  0  0  0
 87181  1  0  0  0
 88 89  1  0  0  0
 88182  1  0  0  0
 88183  1  0  0  0
 89 91  1  0  0  0
 89184  1  0  0  0
 89185  1  0  0  0
 90 92  1  0  0  0
 90 93  1  0  0  0
 90 94  1  0  0  0
M  ISO  4   1 100  68 101  79 101  91 100
M  END
> <chiral flag>
0

> <version>
0

> <s_m_source_file>
/data/baiqing/PycharmProjects/Reinvent-master-3.2/result/LINK_invent/BTK/process_docking_weight1_custom_sum_contain_oxygen_bond_distance_aromatic_linkinvent_7_9_3/rearranged_h_0024.sdf

> <i_m_source_file_index>
36

> <r_mmod_Potential_Energy-OPLS-2005>
5007.69970703125

> <r_mmod_Stretch_Energy-OPLS-2005>
1985.45043945312

> <r_mmod_Bend_Energy-OPLS-2005>
1153.33349609375

> <r_mmod_Torsional_Energy-OPLS-2005>
440.055236816406

> <r_mmod_Improper_Torsional_Energy-OPLS-2005>
3.75738906860352

> <r_mmod_Van_der_Waal_Energy-OPLS-2005>
117.274101257324

> <r_mmod_Electrostatic_Energy-OPLS-2005>
-328.695556640625

> <r_mmod_Solvation_Energy-OPLS-2005>
-178.935089111328

> <b_mmod_Minimization_Converged-OPLS-2005>
0

> <r_mmod_RMS_Derivative-OPLS-2005>
5.46529245376587

$$$$
36
                    3D
 Structure written by MMmdl.
154162  0  0  1  0            999 V2000
  -30.5224  -14.9964   20.3826 C   0  0  0  0  0  0
  -30.4453  -12.6224   19.4801 C   0  0  0  0  0  0
  -29.5217  -12.4967   18.2480 C   0  0  0  0  0  0
  -28.0527  -12.2949   18.6737 C   0  0  0  0  0  0
  -27.6219  -13.2506   19.8172 C   0  0  2  0  0  0
  -28.6680  -13.3122   20.9464 C   0  0  0  0  0  0
  -25.2432  -13.8223   20.5689 C   0  0  0  0  0  0
  -24.1763  -13.0447   20.9260 C   0  0  0  0  0  0
  -24.6403  -11.6943   20.8789 C   0  0  0  0  0  0
  -23.9091  -10.4319   21.0414 C   0  0  0  0  0  0
  -24.3639   -9.4220   21.9193 C   0  0  0  0  0  0
  -23.6311   -8.2256   22.0747 C   0  0  0  0  0  0
  -22.4286   -8.0290   21.3547 C   0  0  0  0  0  0
  -21.9931   -9.0264   20.4659 C   0  0  0  0  0  0
  -22.7261  -10.2153   20.3072 C   0  0  0  0  0  0
  -21.6850   -6.0754   22.5292 C   0  0  0  0  0  0
  -21.4030   -6.5650   23.8237 C   0  0  0  0  0  0
  -21.3675   -5.6795   24.9182 C   0  0  0  0  0  0
  -21.6035   -4.3051   24.7233 C   0  0  0  0  0  0
  -21.8816   -3.8166   23.4349 C   0  0  0  0  0  0
  -21.9191   -4.6988   22.3410 C   0  0  0  0  0  0
  -22.7778  -13.5223   21.1903 C   0  0  0  0  0  0
  -22.1640   -4.2177   21.0986 F   0  0  0  0  0  0
  -21.5632   -3.4522   25.7749 F   0  0  0  0  0  0
  -29.9290  -13.7357   20.3273 N   0  0  0  0  0  0
  -26.2849  -12.9473   20.3140 N   0  0  0  0  0  0
  -25.9326  -11.6609   20.5716 N   0  0  0  0  0  0
  -22.0366  -12.8265   22.0446 N   0  0  0  0  0  0
  -25.3999  -15.1954   20.4126 N   0  0  0  0  0  0
  -31.7443  -15.0410   20.1946 O   0  0  0  0  0  0
  -21.6640   -6.8884   21.4249 O   0  0  0  0  0  0
  -22.3461  -14.5499   20.6684 O   0  0  0  0  0  0
  -24.6485  -31.8404   23.1858 C   0  0  0  0  0  0
  -25.9223  -32.4664   23.8275 C   0  0  1  0  0  0
  -27.2069  -27.0891   20.1390 C   0  0  0  0  0  0
  -25.5950  -33.8476   24.2177 N   0  0  0  0  0  0
  -23.4546  -30.4596   21.5301 C   0  0  2  0  0  0
  -24.9010  -28.8779   20.1052 C   0  0  0  0  0  0
  -22.7580  -29.4537   22.4816 C   0  0  0  0  0  0
  -18.0310  -28.1421   22.8480 C   0  0  0  0  0  0
  -24.1483  -36.7250   23.2646 C   0  0  0  0  0  0
  -26.0139  -30.6921   21.3944 C   0  0  0  0  0  0
  -26.0799  -29.3006   20.7323 C   0  0  0  0  0  0
  -27.2333  -28.4218   20.7322 C   0  0  0  0  0  0
  -26.0000  -26.7785   19.4781 C   0  0  0  0  0  0
  -24.8757  -27.6323   19.4618 C   0  0  0  0  0  0
  -23.6855  -29.7926   20.1478 C   0  0  0  0  0  0
  -25.4109  -36.3032   24.0326 C   0  0  1  0  0  0
  -20.5924  -28.3761   23.1216 C   0  0  2  0  0  0
  -20.6798  -26.9458   22.5406 C   0  0  0  0  0  0
  -19.5776  -26.6392   21.5219 C   0  0  0  0  0  0
  -18.1955  -26.7951   22.1621 C   0  0  0  0  0  0
  -19.1567  -28.8898   23.2839 C   0  0  0  0  0  0
  -18.9483  -30.1478   23.8887 C   0  0  0  0  0  0
  -17.6485  -30.6607   24.0566 C   0  0  0  0  0  0
  -25.9077  -34.9401   23.5070 C   0  0  0  0  0  0
  -16.5375  -29.9113   23.6335 C   0  0  0  0  0  0
  -16.7287  -28.6531   23.0358 C   0  0  0  0  0  0
  -26.4527  -31.6552   25.0730 C   0  0  0  0  0  0
  -25.3703  -31.3744   26.1418 C   0  0  0  0  0  0
  -27.0396  -30.2938   24.6348 C   0  0  0  0  0  0
  -27.6049  -32.4341   25.7506 C   0  0  0  0  0  0
  -27.5576  -37.1777   24.8461 C   0  0  0  0  0  0
  -21.4268  -29.3061   22.3567 N   0  0  0  0  0  0
  -26.4272  -37.3754   23.9432 N   0  0  0  0  0  0
  -24.7254  -31.0209   22.0916 N   0  0  0  0  0  0
  -23.4195  -28.8076   23.2976 O   0  0  0  0  0  0
  -28.2406  -26.0723   20.2005 O   0  0  0  0  0  0
  -26.5671  -34.8907   22.4655 O   0  0  0  0  0  0
  -23.5587  -32.1301   23.7037 O   0  0  0  0  0  0
  -27.7356  -20.7959   19.6316 C   0  0  0  0  0  0
  -28.0695  -19.3833   19.7157 C   0  0  0  0  0  0
  -28.7760  -21.5599   20.1325 C   0  0  0  0  0  0
  -29.3089  -19.1197   20.2429 C   0  0  0  0  0  0
  -26.4382  -21.3289   19.0729 C   0  0  0  0  0  0
  -31.0492  -20.7871   21.0206 C   0  0  0  0  0  0
  -28.9922  -23.2082   20.3257 C   0  0  0  0  0  0
  -30.1761  -17.7320   20.5419 C   0  0  0  0  0  0
  -27.9703  -24.5327   19.9714 C   0  0  0  0  0  0
  -29.7333  -20.4992   20.4773 N   0  0  0  0  0  0
  -29.7529  -16.2017   20.4465 N   0  0  0  0  0  0
  -27.0116  -18.1272   19.1845 Cl  0  0  0  0  0  0
  -31.4682  -12.8045   19.1448 H   0  0  0  0  0  0
  -30.4770  -11.6892   20.0423 H   0  0  0  0  0  0
  -29.8396  -11.6535   17.6317 H   0  0  0  0  0  0
  -29.6114  -13.3847   17.6188 H   0  0  0  0  0  0
  -27.9564  -11.2596   19.0024 H   0  0  0  0  0  0
  -27.3901  -12.3959   17.8136 H   0  0  0  0  0  0
  -27.5735  -14.2428   19.3653 H   0  0  0  0  0  0
  -28.7746  -12.3482   21.4461 H   0  0  0  0  0  0
  -28.3625  -14.0308   21.7080 H   0  0  0  0  0  0
  -25.2778   -9.5705   22.4772 H   0  0  0  0  0  0
  -24.0031   -7.4657   22.7476 H   0  0  0  0  0  0
  -21.0852   -8.8815   19.8975 H   0  0  0  0  0  0
  -22.3716  -10.9698   19.6205 H   0  0  0  0  0  0
  -21.2010   -7.6152   23.9759 H   0  0  0  0  0  0
  -21.1484   -6.0502   25.9097 H   0  0  0  0  0  0
  -22.0566   -2.7623   23.2840 H   0  0  0  0  0  0
  -22.3957  -11.9995   22.4998 H   0  0  0  0  0  0
  -21.0963  -13.1308   22.2541 H   0  0  0  0  0  0
  -24.6144  -15.8238   20.5338 H   0  0  0  0  0  0
  -26.2140  -15.6604   20.0338 H   0  0  0  0  0  0
  -26.7266  -32.5257   23.0985 H   0  0  0  0  0  0
  -25.0069  -33.9582   25.0304 H   0  0  0  0  0  0
  -22.7611  -31.2893   21.3755 H   0  0  0  0  0  0
  -23.3777  -35.9554   23.3270 H   0  0  0  0  0  0
  -24.3577  -36.8914   22.2073 H   0  0  0  0  0  0
  -23.7199  -37.6420   23.6694 H   0  0  0  0  0  0
  -26.1780  -31.4459   20.6238 H   0  0  0  0  0  0
  -26.8830  -30.7435   22.0386 H   0  0  0  0  0  0
  -28.1286  -28.7377   21.2466 H   0  0  0  0  0  0
  -25.8902  -25.8275   18.9804 H   0  0  0  0  0  0
  -23.9778  -27.3073   18.9520 H   0  0  0  0  0  0
  -23.8366  -30.5748   19.4027 H   0  0  0  0  0  0
  -22.7959  -29.2496   19.8237 H   0  0  0  0  0  0
  -25.1291  -36.1872   25.0820 H   0  0  0  0  0  0
  -21.0013  -28.3376   24.1334 H   0  0  0  0  0  0
  -20.5724  -26.2380   23.3639 H   0  0  0  0  0  0
  -21.6666  -26.7476   22.1189 H   0  0  0  0  0  0
  -19.6951  -25.6292   21.1283 H   0  0  0  0  0  0
  -19.6714  -27.3177   20.6729 H   0  0  0  0  0  0
  -17.4228  -26.6693   21.4020 H   0  0  0  0  0  0
  -18.0346  -26.0101   22.9025 H   0  0  0  0  0  0
  -19.7956  -30.7295   24.2262 H   0  0  0  0  0  0
  -17.5040  -31.6288   24.5186 H   0  0  0  0  0  0
  -15.5377  -30.3024   23.7651 H   0  0  0  0  0  0
  -15.8681  -28.0842   22.7077 H   0  0  0  0  0  0
  -24.5881  -30.7084   25.7741 H   0  0  0  0  0  0
  -24.8888  -32.2919   26.4819 H   0  0  0  0  0  0
  -25.7990  -30.8937   27.0220 H   0  0  0  0  0  0
  -26.3002  -29.6644   24.1365 H   0  0  0  0  0  0
  -27.3989  -29.7261   25.4947 H   0  0  0  0  0  0
  -27.8941  -30.4159   23.9682 H   0  0  0  0  0  0
  -27.2625  -33.3665   26.2011 H   0  0  0  0  0  0
  -28.3885  -32.6861   25.0344 H   0  0  0  0  0  0
  -28.0684  -31.8519   26.5480 H   0  0  0  0  0  0
  -28.2568  -38.0102   24.7556 H   0  0  0  0  0  0
  -28.1100  -36.2638   24.6225 H   0  0  0  0  0  0
  -27.2312  -37.1355   25.8868 H   0  0  0  0  0  0
  -20.9495  -29.8783   21.6744 H   0  0  0  0  0  0
  -26.0147  -38.2819   24.1478 H   0  0  0  0  0  0
  -25.9832  -20.6074   18.3945 H   0  0  0  0  0  0
  -26.5953  -22.2519   18.5139 H   0  0  0  0  0  0
  -25.7299  -21.5217   19.8799 H   0  0  0  0  0  0
  -31.2033  -21.8605   21.1426 H   0  0  0  0  0  0
  -31.8130  -20.4078   20.3446 H   0  0  0  0  0  0
  -31.1615  -20.3056   21.9915 H   0  0  0  0  0  0
  -29.9262  -23.4441   19.8166 H   0  0  0  0  0  0
  -29.2384  -23.3388   21.3799 H   0  0  0  0  0  0
  -30.5108  -17.8230   21.5751 H   0  0  0  0  0  0
  -31.0996  -17.8056   19.9687 H   0  0  0  0  0  0
  -27.0310  -24.3189   20.4818 H   0  0  0  0  0  0
  -27.7356  -24.4495   18.9092 H   0  0  0  0  0  0
  -28.7561  -16.0499   20.4837 H   0  0  0  0  0  0
  1 25  1  0  0  0
  1 30  2  0  0  0
  1 81  1  0  0  0
  2  3  1  0  0  0
  2 25  1  0  0  0
  2 83  1  0  0  0
  2 84  1  0  0  0
  3  4  1  0  0  0
  3 85  1  0  0  0
  3 86  1  0  0  0
  4  5  1  0  0  0
  4 87  1  0  0  0
  4 88  1  0  0  0
  5  6  1  0  0  0
  5 26  1  0  0  0
  5 89  1  0  0  0
  6 25  1  0  0  0
  6 90  1  0  0  0
  6 91  1  0  0  0
  7  8  2  0  0  0
  7 26  1  0  0  0
  7 29  1  0  0  0
  8  9  1  0  0  0
  8 22  1  0  0  0
  9 10  1  0  0  0
  9 27  2  0  0  0
 10 11  2  0  0  0
 10 15  1  0  0  0
 11 12  1  0  0  0
 11 92  1  0  0  0
 12 13  2  0  0  0
 12 93  1  0  0  0
 13 14  1  0  0  0
 13 31  1  0  0  0
 14 15  2  0  0  0
 14 94  1  0  0  0
 15 95  1  0  0  0
 16 17  2  0  0  0
 16 21  1  0  0  0
 16 31  1  0  0  0
 17 18  1  0  0  0
 17 96  1  0  0  0
 18 19  2  0  0  0
 18 97  1  0  0  0
 19 20  1  0  0  0
 19 24  1  0  0  0
 20 21  2  0  0  0
 20 98  1  0  0  0
 21 23  1  0  0  0
 22 28  1  0  0  0
 22 32  2  0  0  0
 26 27  1  0  0  0
 28 99  1  0  0  0
 28100  1  0  0  0
 29101  1  0  0  0
 29102  1  0  0  0
 33 34  1  0  0  0
 33 66  1  0  0  0
 33 70  2  0  0  0
 34 36  1  0  0  0
 34 59  1  0  0  0
 34103  1  0  0  0
 35 44  2  0  0  0
 35 45  1  0  0  0
 35 68  1  0  0  0
 36 56  1  0  0  0
 36104  1  0  0  0
 37 39  1  0  0  0
 37 47  1  0  0  0
 37 66  1  0  0  0
 37105  1  0  0  0
 38 43  2  0  0  0
 38 46  1  0  0  0
 38 47  1  0  0  0
 39 64  1  0  0  0
 39 67  2  0  0  0
 40 52  1  0  0  0
 40 53  2  0  0  0
 40 58  1  0  0  0
 41106  1  0  0  0
 41107  1  0  0  0
 41108  1  0  0  0
 41 48  1  0  0  0
 42 43  1  0  0  0
 42 66  1  0  0  0
 42109  1  0  0  0
 42110  1  0  0  0
 43 44  1  0  0  0
 44111  1  0  0  0
 45 46  2  0  0  0
 45112  1  0  0  0
 46113  1  0  0  0
 47114  1  0  0  0
 47115  1  0  0  0
 48 56  1  0  0  0
 48 65  1  0  0  0
 48116  1  0  0  0
 49 50  1  0  0  0
 49 53  1  0  0  0
 49 64  1  0  0  0
 49117  1  0  0  0
 50 51  1  0  0  0
 50118  1  0  0  0
 50119  1  0  0  0
 51 52  1  0  0  0
 51120  1  0  0  0
 51121  1  0  0  0
 52122  1  0  0  0
 52123  1  0  0  0
 53 54  1  0  0  0
 54 55  2  0  0  0
 54124  1  0  0  0
 55 57  1  0  0  0
 55125  1  0  0  0
 56 69  2  0  0  0
 57 58  2  0  0  0
 57126  1  0  0  0
 58127  1  0  0  0
 59 60  1  0  0  0
 59 61  1  0  0  0
 59 62  1  0  0  0
 60128  1  0  0  0
 60129  1  0  0  0
 60130  1  0  0  0
 61131  1  0  0  0
 61132  1  0  0  0
 61133  1  0  0  0
 62134  1  0  0  0
 62135  1  0  0  0
 62136  1  0  0  0
 63 65  1  0  0  0
 63137  1  0  0  0
 63138  1  0  0  0
 63139  1  0  0  0
 64140  1  0  0  0
 65141  1  0  0  0
 68 79  1  0  0  0
 71 72  1  0  0  0
 71 73  2  0  0  0
 71 75  1  0  0  0
 72 74  2  0  0  0
 72 82  1  0  0  0
 73 77  1  0  0  0
 73 80  1  0  0  0
 74 78  1  0  0  0
 74 80  1  0  0  0
 75142  1  0  0  0
 75143  1  0  0  0
 75144  1  0  0  0
 76 80  1  0  0  0
 76145  1  0  0  0
 76146  1  0  0  0
 76147  1  0  0  0
 77 79  1  0  0  0
 77148  1  0  0  0
 77149  1  0  0  0
 78 81  1  0  0  0
 78150  1  0  0  0
 78151  1  0  0  0
 79152  1  0  0  0
 79153  1  0  0  0
 81154  1  0  0  0
M  ISO  4   1 100  68 101  79 101  81 100
M  END
> <chiral flag>
0

> <version>
0

> <s_m_source_file>
/data/baiqing/PycharmProjects/Reinvent-master-3.2/result/LINK_invent/BTK/process_docking_weight1_custom_sum_contain_oxygen_bond_distance_aromatic_linkinvent_7_9_3/rearranged_h_0024.sdf

> <i_m_source_file_index>
37

> <r_mmod_Potential_Energy-OPLS-2005>
514.2177734375

> <r_mmod_Stretch_Energy-OPLS-2005>
297.872894287109

> <r_mmod_Bend_Energy-OPLS-2005>
280.720947265625

> <r_mmod_Torsional_Energy-OPLS-2005>
200.808029174805

> <r_mmod_Improper_Torsional_Energy-OPLS-2005>
4.15159940719604

> <r_mmod_Van_der_Waal_Energy-OPLS-2005>
102.35912322998

> <r_mmod_Electrostatic_Energy-OPLS-2005>
-402.09765625

> <r_mmod_Solvation_Energy-OPLS-2005>
-207.526931762695

> <b_mmod_Minimization_Converged-OPLS-2005>
0

> <r_mmod_RMS_Derivative-OPLS-2005>
4.39672565460205

$$$$
37
                    3D
 Structure written by MMmdl.
167175  0  0  1  0            999 V2000
  -30.7783  -14.3462   20.6596 C   0  0  0  0  0  0
  -30.4057  -12.2568   19.4253 C   0  0  0  0  0  0
  -29.4963  -12.5117   18.2077 C   0  0  0  0  0  0
  -28.0140  -12.3832   18.6081 C   0  0  0  0  0  0
  -27.6664  -13.2084   19.8790 C   0  0  2  0  0  0
  -28.6984  -12.9574   21.0046 C   0  0  0  0  0  0
  -25.2575  -13.8147   20.5652 C   0  0  0  0  0  0
  -24.1831  -13.0416   20.9165 C   0  0  0  0  0  0
  -24.6407  -11.6891   20.8731 C   0  0  0  0  0  0
  -23.9075  -10.4281   21.0428 C   0  0  0  0  0  0
  -24.3630   -9.4179   21.9180 C   0  0  0  0  0  0
  -23.6295   -8.2228   22.0733 C   0  0  0  0  0  0
  -22.4270   -8.0280   21.3541 C   0  0  0  0  0  0
  -21.9915   -9.0261   20.4644 C   0  0  0  0  0  0
  -22.7256  -10.2135   20.3055 C   0  0  0  0  0  0
  -21.6840   -6.0748   22.5291 C   0  0  0  0  0  0
  -21.4028   -6.5655   23.8227 C   0  0  0  0  0  0
  -21.3650   -5.6804   24.9191 C   0  0  0  0  0  0
  -21.6038   -4.3062   24.7244 C   0  0  0  0  0  0
  -21.8803   -3.8156   23.4355 C   0  0  0  0  0  0
  -21.9186   -4.6979   22.3422 C   0  0  0  0  0  0
  -22.7863  -13.5214   21.1871 C   0  0  0  0  0  0
  -22.1640   -4.2166   21.0991 F   0  0  0  0  0  0
  -21.5629   -3.4535   25.7748 F   0  0  0  0  0  0
  -30.0493  -13.2184   20.4745 N   0  0  0  0  0  0
  -26.3036  -12.9345   20.3349 N   0  0  0  0  0  0
  -25.9333  -11.6490   20.5739 N   0  0  0  0  0  0
  -22.0549  -12.8196   22.0450 N   0  0  0  0  0  0
  -25.4274  -15.1849   20.4096 N   0  0  0  0  0  0
  -31.8005  -14.6063   20.0171 O   0  0  0  0  0  0
  -21.6613   -6.8883   21.4242 O   0  0  0  0  0  0
  -22.3538  -14.5526   20.6733 O   0  0  0  0  0  0
  -24.6116  -31.8731   23.2190 C   0  0  0  0  0  0
  -25.9032  -32.4836   23.8475 C   0  0  1  0  0  0
  -27.2042  -27.4512   20.0845 C   0  0  0  0  0  0
  -25.5902  -33.8636   24.2375 N   0  0  0  0  0  0
  -23.3970  -30.5085   21.5538 C   0  0  2  0  0  0
  -24.8451  -28.9933   20.1038 C   0  0  0  0  0  0
  -22.7401  -29.4709   22.4931 C   0  0  0  0  0  0
  -18.0261  -28.1408   22.8460 C   0  0  0  0  0  0
  -24.1493  -36.7330   23.2631 C   0  0  0  0  0  0
  -25.9332  -30.8351   21.3864 C   0  0  0  0  0  0
  -26.0021  -29.4745   20.7320 C   0  0  0  0  0  0
  -27.1868  -28.7007   20.7416 C   0  0  0  0  0  0
  -26.0693  -27.0456   19.3616 C   0  0  0  0  0  0
  -24.8732  -27.7772   19.4093 C   0  0  0  0  0  0
  -23.6077  -29.8577   20.1628 C   0  0  0  0  0  0
  -25.4103  -36.3115   24.0343 C   0  0  1  0  0  0
  -20.5857  -28.3693   23.1276 C   0  0  2  0  0  0
  -20.6771  -26.9417   22.5407 C   0  0  0  0  0  0
  -19.5752  -26.6392   21.5201 C   0  0  0  0  0  0
  -18.1925  -26.7947   22.1608 C   0  0  0  0  0  0
  -19.1517  -28.8860   23.2874 C   0  0  0  0  0  0
  -18.9445  -30.1464   23.8903 C   0  0  0  0  0  0
  -17.6458  -30.6597   24.0582 C   0  0  0  0  0  0
  -25.9018  -34.9474   23.5145 C   0  0  0  0  0  0
  -16.5339  -29.9109   23.6339 C   0  0  0  0  0  0
  -16.7261  -28.6533   23.0328 C   0  0  0  0  0  0
  -26.4467  -31.6609   25.0792 C   0  0  0  0  0  0
  -25.3753  -31.3723   26.1557 C   0  0  0  0  0  0
  -27.0300  -30.3040   24.6191 C   0  0  0  0  0  0
  -27.6056  -32.4331   25.7523 C   0  0  0  0  0  0
  -27.5586  -37.1815   24.8457 C   0  0  0  0  0  0
  -21.4120  -29.3065   22.3682 N   0  0  0  0  0  0
  -26.4296  -37.3794   23.9399 N   0  0  0  0  0  0
  -24.6641  -31.0878   22.1090 N   0  0  0  0  0  0
  -23.4193  -28.8219   23.2918 O   0  0  0  0  0  0
  -28.3129  -26.6434   20.0646 O   0  0  0  0  0  0
  -26.5571  -34.8915   22.4694 O   0  0  0  0  0  0
  -23.5315  -32.1465   23.7600 O   0  0  0  0  0  0
  -25.7963  -21.7133   21.3902 C   0  0  0  0  0  0
  -26.4748  -22.6692   20.6077 C   0  0  0  0  0  0
  -27.4250  -20.8525   19.2463 C   0  0  0  0  0  0
  -25.8961  -20.3417   21.0952 C   0  0  0  0  0  0
  -27.2915  -22.2345   19.5369 C   0  0  0  0  0  0
  -26.6910  -19.9060   20.0133 C   0  0  0  0  0  0
  -26.1763  -24.1459   20.8340 C   0  0  0  0  0  0
  -27.1446  -24.9746   21.7199 C   0  0  0  0  0  0
  -31.0065  -18.7789   20.4262 C   0  0  0  0  0  0
  -30.0928  -19.8968   19.9068 C   0  0  0  0  0  0
  -30.2236  -17.4758   20.6645 C   0  0  0  0  0  0
  -29.4136  -19.5778   18.5529 C   0  0  0  0  0  0
  -30.8156  -16.5544   21.7451 C   0  0  0  0  0  0
  -28.4112  -25.6283   21.0883 C   0  0  0  0  0  0
  -28.3167  -20.4857   18.2159 N   0  0  0  0  0  0
  -30.3104  -15.1942   21.5799 N   0  0  0  0  0  0
  -25.0246  -19.2112   22.0728 Cl  0  0  0  0  0  0
  -28.1153  -23.3819   18.5315 Cl  0  0  0  0  0  0
  -26.7184  -18.2150   19.6342 Cl  0  0  0  0  0  0
  -31.4587  -12.3170   19.1410 H   0  0  0  0  0  0
  -30.2576  -11.2448   19.8056 H   0  0  0  0  0  0
  -29.7360  -11.8102   17.4076 H   0  0  0  0  0  0
  -29.6804  -13.5089   17.8060 H   0  0  0  0  0  0
  -27.8010  -11.3268   18.7723 H   0  0  0  0  0  0
  -27.3747  -12.6907   17.7800 H   0  0  0  0  0  0
  -27.7177  -14.2635   19.6021 H   0  0  0  0  0  0
  -28.6447  -11.9210   21.3461 H   0  0  0  0  0  0
  -28.4503  -13.5604   21.8770 H   0  0  0  0  0  0
  -25.2806   -9.5631   22.4721 H   0  0  0  0  0  0
  -24.0007   -7.4615   22.7442 H   0  0  0  0  0  0
  -21.0842   -8.8818   19.8960 H   0  0  0  0  0  0
  -22.3759  -10.9679   19.6150 H   0  0  0  0  0  0
  -21.2008   -7.6163   23.9741 H   0  0  0  0  0  0
  -21.1499   -6.0535   25.9097 H   0  0  0  0  0  0
  -22.0584   -2.7612   23.2865 H   0  0  0  0  0  0
  -22.4205  -11.9848   22.4801 H   0  0  0  0  0  0
  -21.1176  -13.1233   22.2710 H   0  0  0  0  0  0
  -24.6640  -15.8400   20.5319 H   0  0  0  0  0  0
  -26.2867  -15.6374   20.1262 H   0  0  0  0  0  0
  -26.7104  -32.5559   23.1245 H   0  0  0  0  0  0
  -25.0119  -33.9841   25.0564 H   0  0  0  0  0  0
  -22.6806  -31.3237   21.4215 H   0  0  0  0  0  0
  -23.3747  -35.9676   23.3317 H   0  0  0  0  0  0
  -24.3582  -36.8923   22.2039 H   0  0  0  0  0  0
  -23.7271  -37.6552   23.6630 H   0  0  0  0  0  0
  -26.0593  -31.6009   20.6202 H   0  0  0  0  0  0
  -26.8192  -30.8758   22.0100 H   0  0  0  0  0  0
  -28.0727  -29.0575   21.2463 H   0  0  0  0  0  0
  -26.1131  -26.1880   18.7114 H   0  0  0  0  0  0
  -24.0090  -27.4423   18.8512 H   0  0  0  0  0  0
  -23.7127  -30.6410   19.4105 H   0  0  0  0  0  0
  -22.7341  -29.2777   19.8602 H   0  0  0  0  0  0
  -25.1283  -36.1986   25.0846 H   0  0  0  0  0  0
  -20.9945  -28.3283   24.1394 H   0  0  0  0  0  0
  -20.5659  -26.2297   23.3604 H   0  0  0  0  0  0
  -21.6649  -26.7476   22.1207 H   0  0  0  0  0  0
  -19.6927  -25.6293   21.1245 H   0  0  0  0  0  0
  -19.6717  -27.3202   20.6729 H   0  0  0  0  0  0
  -17.4195  -26.6654   21.4024 H   0  0  0  0  0  0
  -18.0353  -26.0113   22.9028 H   0  0  0  0  0  0
  -19.7928  -30.7267   24.2279 H   0  0  0  0  0  0
  -17.5019  -31.6278   24.5186 H   0  0  0  0  0  0
  -15.5346  -30.3031   23.7661 H   0  0  0  0  0  0
  -15.8649  -28.0895   22.7013 H   0  0  0  0  0  0
  -24.5915  -30.7061   25.7925 H   0  0  0  0  0  0
  -24.8971  -32.2887   26.5024 H   0  0  0  0  0  0
  -25.8141  -30.8898   27.0301 H   0  0  0  0  0  0
  -26.2874  -29.6787   24.1218 H   0  0  0  0  0  0
  -27.4011  -29.7274   25.4674 H   0  0  0  0  0  0
  -27.8740  -30.4337   23.9412 H   0  0  0  0  0  0
  -27.2682  -33.3601   26.2166 H   0  0  0  0  0  0
  -28.3823  -32.6933   25.0322 H   0  0  0  0  0  0
  -28.0778  -31.8425   26.5380 H   0  0  0  0  0  0
  -28.2605  -38.0112   24.7499 H   0  0  0  0  0  0
  -28.1085  -36.2638   24.6293 H   0  0  0  0  0  0
  -27.2306  -37.1497   25.8864 H   0  0  0  0  0  0
  -20.9242  -29.8786   21.6939 H   0  0  0  0  0  0
  -26.0188  -38.2870   24.1419 H   0  0  0  0  0  0
  -25.1502  -22.0248   22.1976 H   0  0  0  0  0  0
  -25.1851  -24.2108   21.2857 H   0  0  0  0  0  0
  -26.0449  -24.5675   19.8532 H   0  0  0  0  0  0
  -27.4534  -24.3560   22.5644 H   0  0  0  0  0  0
  -26.5658  -25.7787   22.1749 H   0  0  0  0  0  0
  -31.4781  -19.1111   21.3516 H   0  0  0  0  0  0
  -31.8198  -18.5962   19.7220 H   0  0  0  0  0  0
  -30.6624  -20.8229   19.8167 H   0  0  0  0  0  0
  -29.3604  -20.0760   20.6923 H   0  0  0  0  0  0
  -30.1746  -16.9472   19.7124 H   0  0  0  0  0  0
  -29.1925  -17.6958   20.9433 H   0  0  0  0  0  0
  -29.0609  -18.5491   18.4993 H   0  0  0  0  0  0
  -30.1631  -19.6501   17.7629 H   0  0  0  0  0  0
  -30.5288  -16.9153   22.7328 H   0  0  0  0  0  0
  -31.9068  -16.5553   21.7054 H   0  0  0  0  0  0
  -29.0511  -24.8343   20.7121 H   0  0  0  0  0  0
  -28.9824  -26.0781   21.8990 H   0  0  0  0  0  0
  -28.6198  -21.2962   17.6810 H   0  0  0  0  0  0
  -29.5059  -14.9103   22.1223 H   0  0  0  0  0  0
  1 25  1  0  0  0
  1 30  2  0  0  0
  1 86  1  0  0  0
  2  3  1  0  0  0
  2 25  1  0  0  0
  2 90  1  0  0  0
  2 91  1  0  0  0
  3  4  1  0  0  0
  3 92  1  0  0  0
  3 93  1  0  0  0
  4  5  1  0  0  0
  4 94  1  0  0  0
  4 95  1  0  0  0
  5  6  1  0  0  0
  5 26  1  0  0  0
  5 96  1  0  0  0
  6 25  1  0  0  0
  6 97  1  0  0  0
  6 98  1  0  0  0
  7  8  2  0  0  0
  7 26  1  0  0  0
  7 29  1  0  0  0
  8  9  1  0  0  0
  8 22  1  0  0  0
  9 10  1  0  0  0
  9 27  2  0  0  0
 10 11  2  0  0  0
 10 15  1  0  0  0
 11 12  1  0  0  0
 11 99  1  0  0  0
 12 13  2  0  0  0
 12100  1  0  0  0
 13 14  1  0  0  0
 13 31  1  0  0  0
 14 15  2  0  0  0
 14101  1  0  0  0
 15102  1  0  0  0
 16 17  2  0  0  0
 16 21  1  0  0  0
 16 31  1  0  0  0
 17 18  1  0  0  0
 17103  1  0  0  0
 18 19  2  0  0  0
 18104  1  0  0  0
 19 20  1  0  0  0
 19 24  1  0  0  0
 20 21  2  0  0  0
 20105  1  0  0  0
 21 23  1  0  0  0
 22 28  1  0  0  0
 22 32  2  0  0  0
 26 27  1  0  0  0
 28106  1  0  0  0
 28107  1  0  0  0
 29108  1  0  0  0
 29109  1  0  0  0
 33 34  1  0  0  0
 33 66  1  0  0  0
 33 70  2  0  0  0
 34 36  1  0  0  0
 34 59  1  0  0  0
 34110  1  0  0  0
 35 44  2  0  0  0
 35 45  1  0  0  0
 35 68  1  0  0  0
 36 56  1  0  0  0
 36111  1  0  0  0
 37 39  1  0  0  0
 37 47  1  0  0  0
 37 66  1  0  0  0
 37112  1  0  0  0
 38 43  2  0  0  0
 38 46  1  0  0  0
 38 47  1  0  0  0
 39 64  1  0  0  0
 39 67  2  0  0  0
 40 52  1  0  0  0
 40 53  2  0  0  0
 40 58  1  0  0  0
 41113  1  0  0  0
 41114  1  0  0  0
 41115  1  0  0  0
 41 48  1  0  0  0
 42 43  1  0  0  0
 42 66  1  0  0  0
 42116  1  0  0  0
 42117  1  0  0  0
 43 44  1  0  0  0
 44118  1  0  0  0
 45 46  2  0  0  0
 45119  1  0  0  0
 46120  1  0  0  0
 47121  1  0  0  0
 47122  1  0  0  0
 48 56  1  0  0  0
 48 65  1  0  0  0
 48123  1  0  0  0
 49 50  1  0  0  0
 49 53  1  0  0  0
 49 64  1  0  0  0
 49124  1  0  0  0
 50 51  1  0  0  0
 50125  1  0  0  0
 50126  1  0  0  0
 51 52  1  0  0  0
 51127  1  0  0  0
 51128  1  0  0  0
 52129  1  0  0  0
 52130  1  0  0  0
 53 54  1  0  0  0
 54 55  2  0  0  0
 54131  1  0  0  0
 55 57  1  0  0  0
 55132  1  0  0  0
 56 69  2  0  0  0
 57 58  2  0  0  0
 57133  1  0  0  0
 58134  1  0  0  0
 59 60  1  0  0  0
 59 61  1  0  0  0
 59 62  1  0  0  0
 60135  1  0  0  0
 60136  1  0  0  0
 60137  1  0  0  0
 61138  1  0  0  0
 61139  1  0  0  0
 61140  1  0  0  0
 62141  1  0  0  0
 62142  1  0  0  0
 62143  1  0  0  0
 63 65  1  0  0  0
 63144  1  0  0  0
 63145  1  0  0  0
 63146  1  0  0  0
 64147  1  0  0  0
 65148  1  0  0  0
 68 84  1  0  0  0
 71 72  2  0  0  0
 71 74  1  0  0  0
 71149  1  0  0  0
 72 75  1  0  0  0
 72 77  1  0  0  0
 73 75  2  0  0  0
 73 76  1  0  0  0
 73 85  1  0  0  0
 74 76  2  0  0  0
 74 87  1  0  0  0
 75 88  1  0  0  0
 76 89  1  0  0  0
 77 78  1  0  0  0
 77150  1  0  0  0
 77151  1  0  0  0
 78 84  1  0  0  0
 78152  1  0  0  0
 78153  1  0  0  0
 79 80  1  0  0  0
 79 81  1  0  0  0
 79154  1  0  0  0
 79155  1  0  0  0
 80 82  1  0  0  0
 80156  1  0  0  0
 80157  1  0  0  0
 81 83  1  0  0  0
 81158  1  0  0  0
 81159  1  0  0  0
 82 85  1  0  0  0
 82160  1  0  0  0
 82161  1  0  0  0
 83 86  1  0  0  0
 83162  1  0  0  0
 83163  1  0  0  0
 84164  1  0  0  0
 84165  1  0  0  0
 85166  1  0  0  0
 86167  1  0  0  0
M  ISO  4   1 100  68 101  84 101  86 100
M  END
> <chiral flag>
0

> <version>
0

> <s_m_source_file>
/data/baiqing/PycharmProjects/Reinvent-master-3.2/result/LINK_invent/BTK/process_docking_weight1_custom_sum_contain_oxygen_bond_distance_aromatic_linkinvent_7_9_3/rearranged_h_0024.sdf

> <i_m_source_file_index>
38

> <r_mmod_Potential_Energy-OPLS-2005>
68.7898406982422

> <r_mmod_Stretch_Energy-OPLS-2005>
36.6157035827637

> <r_mmod_Bend_Energy-OPLS-2005>
116.329406738281

> <r_mmod_Torsional_Energy-OPLS-2005>
248.637832641602

> <r_mmod_Improper_Torsional_Energy-OPLS-2005>
7.16331672668457

> <r_mmod_Van_der_Waal_Energy-OPLS-2005>
159.549926757812

> <r_mmod_Electrostatic_Energy-OPLS-2005>
-308.836456298828

> <r_mmod_Solvation_Energy-OPLS-2005>
-205.615982055664

> <b_mmod_Minimization_Converged-OPLS-2005>
0

> <r_mmod_RMS_Derivative-OPLS-2005>
4.30813503265381

$$$$
38
                    3D
 Structure written by MMmdl.
147155  0  0  1  0            999 V2000
  -30.4072  -15.3356   20.3692 C   0  0  0  0  0  0
  -30.4394  -12.8661   19.5114 C   0  0  0  0  0  0
  -29.5355  -12.5862   18.2838 C   0  0  0  0  0  0
  -28.0894  -12.2937   18.7207 C   0  0  0  0  0  0
  -27.6065  -13.2781   19.8140 C   0  0  2  0  0  0
  -28.6414  -13.4848   20.9392 C   0  0  0  0  0  0
  -25.2378  -13.8245   20.5753 C   0  0  0  0  0  0
  -24.1738  -13.0432   20.9270 C   0  0  0  0  0  0
  -24.6400  -11.6931   20.8767 C   0  0  0  0  0  0
  -23.9096  -10.4291   21.0410 C   0  0  0  0  0  0
  -24.3640   -9.4203   21.9186 C   0  0  0  0  0  0
  -23.6306   -8.2242   22.0754 C   0  0  0  0  0  0
  -22.4286   -8.0284   21.3545 C   0  0  0  0  0  0
  -21.9930   -9.0259   20.4645 C   0  0  0  0  0  0
  -22.7268  -10.2133   20.3056 C   0  0  0  0  0  0
  -21.6855   -6.0740   22.5281 C   0  0  0  0  0  0
  -21.4016   -6.5643   23.8215 C   0  0  0  0  0  0
  -21.3659   -5.6794   24.9176 C   0  0  0  0  0  0
  -21.6043   -4.3057   24.7225 C   0  0  0  0  0  0
  -21.8818   -3.8150   23.4346 C   0  0  0  0  0  0
  -21.9193   -4.6968   22.3403 C   0  0  0  0  0  0
  -22.7755  -13.5183   21.1912 C   0  0  0  0  0  0
  -22.1662   -4.2155   21.0980 F   0  0  0  0  0  0
  -21.5626   -3.4539   25.7736 F   0  0  0  0  0  0
  -29.8544  -14.0188   20.2950 N   0  0  0  0  0  0
  -26.2802  -12.9523   20.3199 N   0  0  0  0  0  0
  -25.9335  -11.6627   20.5710 N   0  0  0  0  0  0
  -22.0413  -12.8162   22.0463 N   0  0  0  0  0  0
  -25.3995  -15.1981   20.4187 N   0  0  0  0  0  0
  -31.6410  -15.3243   20.2399 O   0  0  0  0  0  0
  -21.6644   -6.8885   21.4243 O   0  0  0  0  0  0
  -22.3434  -14.5484   20.6751 O   0  0  0  0  0  0
  -24.6675  -31.8193   23.1663 C   0  0  0  0  0  0
  -25.9335  -32.4566   23.8145 C   0  0  1  0  0  0
  -27.2190  -26.8819   20.2010 C   0  0  0  0  0  0
  -25.5986  -33.8382   24.2050 N   0  0  0  0  0  0
  -23.4842  -30.4286   21.5175 C   0  0  2  0  0  0
  -24.9373  -28.8017   20.1220 C   0  0  0  0  0  0
  -22.7686  -29.4421   22.4778 C   0  0  0  0  0  0
  -18.0325  -28.1412   22.8463 C   0  0  0  0  0  0
  -24.1493  -36.7195   23.2648 C   0  0  0  0  0  0
  -26.0561  -30.6123   21.4019 C   0  0  0  0  0  0
  -26.1245  -29.1947   20.7533 C   0  0  0  0  0  0
  -27.2625  -28.2601   20.7594 C   0  0  0  0  0  0
  -25.9991  -26.6488   19.5276 C   0  0  0  0  0  0
  -24.9020  -27.5497   19.4876 C   0  0  0  0  0  0
  -23.7272  -29.7374   20.1476 C   0  0  0  0  0  0
  -25.4135  -36.2953   24.0296 C   0  0  1  0  0  0
  -20.5952  -28.3761   23.1180 C   0  0  2  0  0  0
  -20.6800  -26.9439   22.5401 C   0  0  0  0  0  0
  -19.5774  -26.6377   21.5214 C   0  0  0  0  0  0
  -18.1957  -26.7943   22.1621 C   0  0  0  0  0  0
  -19.1587  -28.8908   23.2806 C   0  0  0  0  0  0
  -18.9497  -30.1495   23.8844 C   0  0  0  0  0  0
  -17.6490  -30.6599   24.0555 C   0  0  0  0  0  0
  -25.9105  -34.9339   23.4996 C   0  0  0  0  0  0
  -16.5380  -29.9086   23.6346 C   0  0  0  0  0  0
  -16.7306  -28.6507   23.0363 C   0  0  0  0  0  0
  -26.4570  -31.6527   25.0692 C   0  0  0  0  0  0
  -25.3684  -31.3791   26.1339 C   0  0  0  0  0  0
  -27.0476  -30.2890   24.6455 C   0  0  0  0  0  0
  -27.6049  -32.4348   25.7502 C   0  0  0  0  0  0
  -27.5566  -37.1755   24.8466 C   0  0  0  0  0  0
  -21.4352  -29.3044   22.3525 N   0  0  0  0  0  0
  -26.4275  -37.3695   23.9410 N   0  0  0  0  0  0
  -24.7578  -30.9815   22.0821 N   0  0  0  0  0  0
  -23.4211  -28.7997   23.3041 O   0  0  0  0  0  0
  -28.2265  -25.7658   20.1857 O   0  0  0  0  0  0
  -26.5720  -34.8885   22.4595 O   0  0  0  0  0  0
  -23.5734  -32.1181   23.6731 O   0  0  0  0  0  0
  -28.7941  -21.1436   17.9830 C   0  0  0  0  0  0
  -29.2320  -19.8256   20.0546 C   0  0  0  0  0  0
  -28.5812  -22.5870   20.0051 C   0  0  0  0  0  0
  -29.1135  -19.9269   18.6476 C   0  0  0  0  0  0
  -28.5430  -22.3991   18.6032 C   0  0  0  0  0  0
  -28.9399  -21.2262   20.6821 C   0  0  0  0  0  0
  -29.8080  -18.2753   20.7058 C   0  0  0  0  0  0
  -28.0241  -24.1607   20.6078 C   0  0  0  0  0  0
  -29.6267  -16.6155   20.3969 N   0  0  0  0  0  0
  -29.3975  -18.5352   17.6625 Cl  0  0  0  0  0  0
  -28.1285  -23.7254   17.5742 Cl  0  0  0  0  0  0
  -29.0212  -21.2745   22.4057 Cl  0  0  0  0  0  0
  -31.4485  -13.0961   19.1669 H   0  0  0  0  0  0
  -30.5378  -11.9763   20.1354 H   0  0  0  0  0  0
  -29.9296  -11.7523   17.7015 H   0  0  0  0  0  0
  -29.5465  -13.4545   17.6231 H   0  0  0  0  0  0
  -28.0624  -11.2754   19.1103 H   0  0  0  0  0  0
  -27.4179  -12.3110   17.8615 H   0  0  0  0  0  0
  -27.5085  -14.2348   19.2995 H   0  0  0  0  0  0
  -28.8345  -12.5600   21.4849 H   0  0  0  0  0  0
  -28.2689  -14.2057   21.6688 H   0  0  0  0  0  0
  -25.2781   -9.5677   22.4768 H   0  0  0  0  0  0
  -24.0011   -7.4632   22.7474 H   0  0  0  0  0  0
  -21.0862   -8.8784   19.8949 H   0  0  0  0  0  0
  -22.3728  -10.9675   19.6168 H   0  0  0  0  0  0
  -21.2009   -7.6151   23.9721 H   0  0  0  0  0  0
  -21.1480   -6.0523   25.9079 H   0  0  0  0  0  0
  -22.0598   -2.7613   23.2844 H   0  0  0  0  0  0
  -22.4048  -11.9834   22.4855 H   0  0  0  0  0  0
  -21.1023  -13.1165   22.2665 H   0  0  0  0  0  0
  -24.6256  -15.8441   20.5297 H   0  0  0  0  0  0
  -26.2334  -15.6402   20.0566 H   0  0  0  0  0  0
  -26.7408  -32.5094   23.0860 H   0  0  0  0  0  0
  -25.0083  -33.9451   25.0168 H   0  0  0  0  0  0
  -22.8001  -31.2613   21.3413 H   0  0  0  0  0  0
  -23.3769  -35.9512   23.3276 H   0  0  0  0  0  0
  -24.3568  -36.8878   22.2069 H   0  0  0  0  0  0
  -23.7239  -37.6368   23.6730 H   0  0  0  0  0  0
  -26.2378  -31.3475   20.6168 H   0  0  0  0  0  0
  -26.9155  -30.6751   22.0575 H   0  0  0  0  0  0
  -28.1684  -28.5689   21.2616 H   0  0  0  0  0  0
  -25.8728  -25.6953   19.0342 H   0  0  0  0  0  0
  -24.0021  -27.2425   18.9727 H   0  0  0  0  0  0
  -23.8905  -30.5021   19.3873 H   0  0  0  0  0  0
  -22.8354  -29.1955   19.8277 H   0  0  0  0  0  0
  -25.1336  -36.1739   25.0787 H   0  0  0  0  0  0
  -21.0036  -28.3369   24.1305 H   0  0  0  0  0  0
  -20.5679  -26.2381   23.3645 H   0  0  0  0  0  0
  -21.6663  -26.7410   22.1210 H   0  0  0  0  0  0
  -19.6936  -25.6274   21.1277 H   0  0  0  0  0  0
  -19.6712  -27.3159   20.6721 H   0  0  0  0  0  0
  -17.4224  -26.6683   21.4026 H   0  0  0  0  0  0
  -18.0353  -26.0098   22.9030 H   0  0  0  0  0  0
  -19.7973  -30.7325   24.2189 H   0  0  0  0  0  0
  -17.5043  -31.6275   24.5166 H   0  0  0  0  0  0
  -15.5378  -30.2972   23.7701 H   0  0  0  0  0  0
  -15.8706  -28.0809   22.7109 H   0  0  0  0  0  0
  -24.5884  -30.7121   25.7647 H   0  0  0  0  0  0
  -24.8855  -32.2998   26.4624 H   0  0  0  0  0  0
  -25.7906  -30.9050   27.0209 H   0  0  0  0  0  0
  -26.3156  -29.6551   24.1438 H   0  0  0  0  0  0
  -27.3970  -29.7271   25.5128 H   0  0  0  0  0  0
  -27.9109  -30.4062   23.9902 H   0  0  0  0  0  0
  -27.2607  -33.3696   26.1938 H   0  0  0  0  0  0
  -28.3935  -32.6833   25.0386 H   0  0  0  0  0  0
  -28.0635  -31.8570   26.5536 H   0  0  0  0  0  0
  -28.2562  -38.0071   24.7512 H   0  0  0  0  0  0
  -28.1082  -36.2595   24.6292 H   0  0  0  0  0  0
  -27.2282  -37.1394   25.8869 H   0  0  0  0  0  0
  -20.9619  -29.8723   21.6636 H   0  0  0  0  0  0
  -26.0117  -38.2749   24.1422 H   0  0  0  0  0  0
  -28.7317  -21.1098   16.9053 H   0  0  0  0  0  0
  -29.5536  -18.3504   21.7630 H   0  0  0  0  0  0
  -30.8906  -18.4036   20.6964 H   0  0  0  0  0  0
  -28.3109  -24.1427   21.6590 H   0  0  0  0  0  0
  -26.9416  -24.0375   20.6364 H   0  0  0  0  0  0
  -28.6452  -16.3910   20.3353 H   0  0  0  0  0  0
  1 25  1  0  0  0
  1 30  2  0  0  0
  1 79  1  0  0  0
  2  3  1  0  0  0
  2 25  1  0  0  0
  2 83  1  0  0  0
  2 84  1  0  0  0
  3  4  1  0  0  0
  3 85  1  0  0  0
  3 86  1  0  0  0
  4  5  1  0  0  0
  4 87  1  0  0  0
  4 88  1  0  0  0
  5  6  1  0  0  0
  5 26  1  0  0  0
  5 89  1  0  0  0
  6 25  1  0  0  0
  6 90  1  0  0  0
  6 91  1  0  0  0
  7  8  2  0  0  0
  7 26  1  0  0  0
  7 29  1  0  0  0
  8  9  1  0  0  0
  8 22  1  0  0  0
  9 10  1  0  0  0
  9 27  2  0  0  0
 10 11  2  0  0  0
 10 15  1  0  0  0
 11 12  1  0  0  0
 11 92  1  0  0  0
 12 13  2  0  0  0
 12 93  1  0  0  0
 13 14  1  0  0  0
 13 31  1  0  0  0
 14 15  2  0  0  0
 14 94  1  0  0  0
 15 95  1  0  0  0
 16 17  2  0  0  0
 16 21  1  0  0  0
 16 31  1  0  0  0
 17 18  1  0  0  0
 17 96  1  0  0  0
 18 19  2  0  0  0
 18 97  1  0  0  0
 19 20  1  0  0  0
 19 24  1  0  0  0
 20 21  2  0  0  0
 20 98  1  0  0  0
 21 23  1  0  0  0
 22 28  1  0  0  0
 22 32  2  0  0  0
 26 27  1  0  0  0
 28 99  1  0  0  0
 28100  1  0  0  0
 29101  1  0  0  0
 29102  1  0  0  0
 33 34  1  0  0  0
 33 66  1  0  0  0
 33 70  2  0  0  0
 34 36  1  0  0  0
 34 59  1  0  0  0
 34103  1  0  0  0
 35 44  2  0  0  0
 35 45  1  0  0  0
 35 68  1  0  0  0
 36 56  1  0  0  0
 36104  1  0  0  0
 37 39  1  0  0  0
 37 47  1  0  0  0
 37 66  1  0  0  0
 37105  1  0  0  0
 38 43  2  0  0  0
 38 46  1  0  0  0
 38 47  1  0  0  0
 39 64  1  0  0  0
 39 67  2  0  0  0
 40 52  1  0  0  0
 40 53  2  0  0  0
 40 58  1  0  0  0
 41106  1  0  0  0
 41107  1  0  0  0
 41108  1  0  0  0
 41 48  1  0  0  0
 42 43  1  0  0  0
 42 66  1  0  0  0
 42109  1  0  0  0
 42110  1  0  0  0
 43 44  1  0  0  0
 44111  1  0  0  0
 45 46  2  0  0  0
 45112  1  0  0  0
 46113  1  0  0  0
 47114  1  0  0  0
 47115  1  0  0  0
 48 56  1  0  0  0
 48 65  1  0  0  0
 48116  1  0  0  0
 49 50  1  0  0  0
 49 53  1  0  0  0
 49 64  1  0  0  0
 49117  1  0  0  0
 50 51  1  0  0  0
 50118  1  0  0  0
 50119  1  0  0  0
 51 52  1  0  0  0
 51120  1  0  0  0
 51121  1  0  0  0
 52122  1  0  0  0
 52123  1  0  0  0
 53 54  1  0  0  0
 54 55  2  0  0  0
 54124  1  0  0  0
 55 57  1  0  0  0
 55125  1  0  0  0
 56 69  2  0  0  0
 57 58  2  0  0  0
 57126  1  0  0  0
 58127  1  0  0  0
 59 60  1  0  0  0
 59 61  1  0  0  0
 59 62  1  0  0  0
 60128  1  0  0  0
 60129  1  0  0  0
 60130  1  0  0  0
 61131  1  0  0  0
 61132  1  0  0  0
 61133  1  0  0  0
 62134  1  0  0  0
 62135  1  0  0  0
 62136  1  0  0  0
 63 65  1  0  0  0
 63137  1  0  0  0
 63138  1  0  0  0
 63139  1  0  0  0
 64140  1  0  0  0
 65141  1  0  0  0
 68 78  1  0  0  0
 71 74  2  0  0  0
 71 75  1  0  0  0
 71142  1  0  0  0
 72 74  1  0  0  0
 72 76  2  0  0  0
 72 77  1  0  0  0
 73 75  2  0  0  0
 73 76  1  0  0  0
 73 78  1  0  0  0
 74 80  1  0  0  0
 75 81  1  0  0  0
 76 82  1  0  0  0
 77 79  1  0  0  0
 77143  1  0  0  0
 77144  1  0  0  0
 78145  1  0  0  0
 78146  1  0  0  0
 79147  1  0  0  0
M  ISO  4   1 100  68 101  78 101  79 100
M  END
> <chiral flag>
0

> <version>
0

> <s_m_source_file>
/data/baiqing/PycharmProjects/Reinvent-master-3.2/result/LINK_invent/BTK/process_docking_weight1_custom_sum_contain_oxygen_bond_distance_aromatic_linkinvent_7_9_3/rearranged_h_0024.sdf

> <i_m_source_file_index>
39

> <r_mmod_Potential_Energy-OPLS-2005>
1407.28491210938

> <r_mmod_Stretch_Energy-OPLS-2005>
652.501037597656

> <r_mmod_Bend_Energy-OPLS-2005>
451.375732421875

> <r_mmod_Torsional_Energy-OPLS-2005>
237.151016235352

> <r_mmod_Improper_Torsional_Energy-OPLS-2005>
5.84919881820679

> <r_mmod_Van_der_Waal_Energy-OPLS-2005>
117.002487182617

> <r_mmod_Electrostatic_Energy-OPLS-2005>
-368.001983642578

> <r_mmod_Solvation_Energy-OPLS-2005>
-218.860794067383

> <b_mmod_Minimization_Converged-OPLS-2005>
0

> <r_mmod_RMS_Derivative-OPLS-2005>
0.209113895893097

$$$$
39
                    3D
 Structure written by MMmdl.
165173  0  0  1  0            999 V2000
  -30.8408  -14.2480   20.7856 C   0  0  0  0  0  0
  -30.4082  -12.2879   19.3602 C   0  0  0  0  0  0
  -29.4687  -12.5532   18.1749 C   0  0  0  0  0  0
  -28.0006  -12.3911   18.6020 C   0  0  0  0  0  0
  -27.6668  -13.2039   19.8787 C   0  0  2  0  0  0
  -28.7043  -12.9427   20.9919 C   0  0  0  0  0  0
  -25.2609  -13.8158   20.5670 C   0  0  0  0  0  0
  -24.1854  -13.0439   20.9156 C   0  0  0  0  0  0
  -24.6408  -11.6904   20.8724 C   0  0  0  0  0  0
  -23.9069  -10.4295   21.0403 C   0  0  0  0  0  0
  -24.3620   -9.4213   21.9185 C   0  0  0  0  0  0
  -23.6299   -8.2247   22.0757 C   0  0  0  0  0  0
  -22.4280   -8.0283   21.3546 C   0  0  0  0  0  0
  -21.9919   -9.0255   20.4645 C   0  0  0  0  0  0
  -22.7242  -10.2136   20.3055 C   0  0  0  0  0  0
  -21.6852   -6.0740   22.5279 C   0  0  0  0  0  0
  -21.4013   -6.5643   23.8213 C   0  0  0  0  0  0
  -21.3662   -5.6796   24.9173 C   0  0  0  0  0  0
  -21.6047   -4.3057   24.7220 C   0  0  0  0  0  0
  -21.8820   -3.8151   23.4344 C   0  0  0  0  0  0
  -21.9191   -4.6973   22.3397 C   0  0  0  0  0  0
  -22.7876  -13.5235   21.1828 C   0  0  0  0  0  0
  -22.1661   -4.2161   21.0976 F   0  0  0  0  0  0
  -21.5633   -3.4539   25.7735 F   0  0  0  0  0  0
  -30.0583  -13.1939   20.4595 N   0  0  0  0  0  0
  -26.3055  -12.9327   20.3390 N   0  0  0  0  0  0
  -25.9335  -11.6483   20.5760 N   0  0  0  0  0  0
  -22.0525  -12.8220   22.0382 N   0  0  0  0  0  0
  -25.4341  -15.1870   20.4068 N   0  0  0  0  0  0
  -31.7265  -14.7024   20.0536 O   0  0  0  0  0  0
  -21.6641   -6.8885   21.4239 O   0  0  0  0  0  0
  -22.3558  -14.5547   20.6692 O   0  0  0  0  0  0
  -24.6053  -31.8722   23.2138 C   0  0  0  0  0  0
  -25.8971  -32.4851   23.8420 C   0  0  1  0  0  0
  -27.2605  -27.4918   20.0918 C   0  0  0  0  0  0
  -25.5845  -33.8649   24.2345 N   0  0  0  0  0  0
  -23.3927  -30.4930   21.5520 C   0  0  2  0  0  0
  -24.8444  -28.9619   20.1200 C   0  0  0  0  0  0
  -22.7368  -29.4675   22.5027 C   0  0  0  0  0  0
  -18.0262  -28.1383   22.8495 C   0  0  0  0  0  0
  -24.1473  -36.7342   23.2641 C   0  0  0  0  0  0
  -25.9114  -30.8545   21.3597 C   0  0  0  0  0  0
  -25.9934  -29.4870   20.7210 C   0  0  0  0  0  0
  -27.1977  -28.7584   20.7191 C   0  0  0  0  0  0
  -26.0930  -26.9722   19.4945 C   0  0  0  0  0  0
  -24.8840  -27.6959   19.5093 C   0  0  0  0  0  0
  -23.6009  -29.8209   20.1672 C   0  0  0  0  0  0
  -25.4092  -36.3136   24.0343 C   0  0  1  0  0  0
  -20.5848  -28.3661   23.1341 C   0  0  2  0  0  0
  -20.6758  -26.9407   22.5431 C   0  0  0  0  0  0
  -19.5739  -26.6396   21.5226 C   0  0  0  0  0  0
  -18.1911  -26.7933   22.1624 C   0  0  0  0  0  0
  -19.1510  -28.8839   23.2916 C   0  0  0  0  0  0
  -18.9435  -30.1446   23.8926 C   0  0  0  0  0  0
  -17.6434  -30.6587   24.0573 C   0  0  0  0  0  0
  -25.9014  -34.9497   23.5147 C   0  0  0  0  0  0
  -16.5329  -29.9090   23.6320 C   0  0  0  0  0  0
  -16.7254  -28.6512   23.0332 C   0  0  0  0  0  0
  -26.4435  -31.6612   25.0720 C   0  0  0  0  0  0
  -25.3730  -31.3685   26.1488 C   0  0  0  0  0  0
  -27.0277  -30.3070   24.6062 C   0  0  0  0  0  0
  -27.6013  -32.4333   25.7471 C   0  0  0  0  0  0
  -27.5582  -37.1820   24.8461 C   0  0  0  0  0  0
  -21.4106  -29.3027   22.3754 N   0  0  0  0  0  0
  -26.4289  -37.3813   23.9412 N   0  0  0  0  0  0
  -24.6542  -31.0869   22.1017 N   0  0  0  0  0  0
  -23.4164  -28.8228   23.3062 O   0  0  0  0  0  0
  -28.4048  -26.7347   19.9706 O   0  0  0  0  0  0
  -26.5599  -34.8940   22.4721 O   0  0  0  0  0  0
  -23.5262  -32.1448   23.7569 O   0  0  0  0  0  0
  -32.7609  -17.6626   24.1573 C   0  0  0  0  0  0
  -31.3679  -17.7478   23.9563 C   0  0  0  0  0  0
  -31.4279  -15.6228   22.7403 C   0  0  0  0  0  0
  -33.4839  -16.5574   23.6763 C   0  0  0  0  0  0
  -30.6976  -16.7196   23.2515 C   0  0  0  0  0  0
  -32.8239  -15.5261   22.9784 C   0  0  0  0  0  0
  -30.6271  -18.9718   24.4661 C   0  0  0  0  0  0
  -30.4496  -20.0012   23.3442 C   0  0  0  0  0  0
  -29.8676  -21.3376   23.8155 C   0  0  0  0  0  0
  -29.7268  -22.3027   22.6332 C   0  0  0  0  0  0
  -29.4536  -23.7543   23.0437 C   0  0  0  0  0  0
  -29.3886  -24.6528   21.8032 C   0  0  0  0  0  0
  -29.3641  -26.1569   22.1129 C   0  0  0  0  0  0
  -29.5204  -26.9769   20.8256 C   0  0  0  0  0  0
  -30.7109  -14.6031   22.0680 N   0  0  0  0  0  0
  -34.8187  -16.4851   23.9014 F   0  0  0  0  0  0
  -28.9844  -16.7993   22.9944 Cl  0  0  0  0  0  0
  -33.7407  -14.1393   22.4864 Cl  0  0  0  0  0  0
  -31.4493  -12.3980   19.0514 H   0  0  0  0  0  0
  -30.3076  -11.2557   19.6989 H   0  0  0  0  0  0
  -29.6959  -11.8745   17.3516 H   0  0  0  0  0  0
  -29.6311  -13.5635   17.7963 H   0  0  0  0  0  0
  -27.8146  -11.3306   18.7745 H   0  0  0  0  0  0
  -27.3395  -12.6882   17.7870 H   0  0  0  0  0  0
  -27.7268  -14.2606   19.6151 H   0  0  0  0  0  0
  -28.6451  -11.9091   21.3354 H   0  0  0  0  0  0
  -28.4542  -13.5590   21.8566 H   0  0  0  0  0  0
  -25.2771   -9.5692   22.4758 H   0  0  0  0  0  0
  -24.0010   -7.4641   22.7479 H   0  0  0  0  0  0
  -21.0854   -8.8769   19.8946 H   0  0  0  0  0  0
  -22.3704  -10.9674   19.6164 H   0  0  0  0  0  0
  -21.2005   -7.6147   23.9723 H   0  0  0  0  0  0
  -21.1484   -6.0520   25.9075 H   0  0  0  0  0  0
  -22.0599   -2.7616   23.2834 H   0  0  0  0  0  0
  -22.4137  -11.9866   22.4745 H   0  0  0  0  0  0
  -21.1145  -13.1243   22.2599 H   0  0  0  0  0  0
  -24.6745  -15.8493   20.5195 H   0  0  0  0  0  0
  -26.3017  -15.6244   20.1219 H   0  0  0  0  0  0
  -26.7049  -32.5616   23.1205 H   0  0  0  0  0  0
  -24.9937  -33.9818   25.0449 H   0  0  0  0  0  0
  -22.6782  -31.3067   21.4113 H   0  0  0  0  0  0
  -23.3732  -35.9679   23.3301 H   0  0  0  0  0  0
  -24.3570  -36.8964   22.2060 H   0  0  0  0  0  0
  -23.7216  -37.6542   23.6651 H   0  0  0  0  0  0
  -26.0053  -31.6162   20.5841 H   0  0  0  0  0  0
  -26.8045  -30.9241   21.9682 H   0  0  0  0  0  0
  -28.0595  -29.2117   21.1815 H   0  0  0  0  0  0
  -26.1258  -26.0077   19.0080 H   0  0  0  0  0  0
  -24.0020  -27.2822   19.0393 H   0  0  0  0  0  0
  -23.7009  -30.5938   19.4041 H   0  0  0  0  0  0
  -22.7287  -29.2336   19.8756 H   0  0  0  0  0  0
  -25.1267  -36.2013   25.0837 H   0  0  0  0  0  0
  -20.9923  -28.3226   24.1465 H   0  0  0  0  0  0
  -20.5671  -26.2277   23.3617 H   0  0  0  0  0  0
  -21.6629  -26.7460   22.1220 H   0  0  0  0  0  0
  -19.6897  -25.6310   21.1244 H   0  0  0  0  0  0
  -19.6679  -27.3231   20.6776 H   0  0  0  0  0  0
  -17.4186  -26.6700   21.4012 H   0  0  0  0  0  0
  -18.0285  -26.0066   22.9008 H   0  0  0  0  0  0
  -19.7910  -30.7262   24.2304 H   0  0  0  0  0  0
  -17.4986  -31.6271   24.5167 H   0  0  0  0  0  0
  -15.5333  -30.2995   23.7621 H   0  0  0  0  0  0
  -15.8663  -28.0850   22.7004 H   0  0  0  0  0  0
  -24.5860  -30.7094   25.7802 H   0  0  0  0  0  0
  -24.8986  -32.2844   26.5027 H   0  0  0  0  0  0
  -25.8106  -30.8760   27.0182 H   0  0  0  0  0  0
  -26.2826  -29.6829   24.1118 H   0  0  0  0  0  0
  -27.4070  -29.7295   25.4504 H   0  0  0  0  0  0
  -27.8634  -30.4421   23.9193 H   0  0  0  0  0  0
  -27.2616  -33.3592   26.2119 H   0  0  0  0  0  0
  -28.3765  -32.6963   25.0265 H   0  0  0  0  0  0
  -28.0739  -31.8428   26.5327 H   0  0  0  0  0  0
  -28.2587  -38.0130   24.7516 H   0  0  0  0  0  0
  -28.1084  -36.2658   24.6255 H   0  0  0  0  0  0
  -27.2317  -37.1449   25.8871 H   0  0  0  0  0  0
  -20.9258  -29.8735   21.6971 H   0  0  0  0  0  0
  -26.0185  -38.2891   24.1422 H   0  0  0  0  0  0
  -33.2856  -18.4442   24.6874 H   0  0  0  0  0  0
  -31.1921  -19.4120   25.2882 H   0  0  0  0  0  0
  -29.6630  -18.6863   24.8877 H   0  0  0  0  0  0
  -29.8175  -19.5831   22.5594 H   0  0  0  0  0  0
  -31.4217  -20.1895   22.8853 H   0  0  0  0  0  0
  -30.5227  -21.7686   24.5742 H   0  0  0  0  0  0
  -28.8969  -21.1833   24.2884 H   0  0  0  0  0  0
  -28.9369  -21.9501   21.9675 H   0  0  0  0  0  0
  -30.6492  -22.2801   22.0489 H   0  0  0  0  0  0
  -30.2521  -24.0977   23.7035 H   0  0  0  0  0  0
  -28.5234  -23.8251   23.6097 H   0  0  0  0  0  0
  -28.5147  -24.3855   21.2077 H   0  0  0  0  0  0
  -30.2546  -24.4446   21.1731 H   0  0  0  0  0  0
  -30.1833  -26.4042   22.7891 H   0  0  0  0  0  0
  -28.4420  -26.4283   22.6287 H   0  0  0  0  0  0
  -30.4138  -26.6437   20.2962 H   0  0  0  0  0  0
  -29.7112  -28.0254   21.0383 H   0  0  0  0  0  0
  -29.9224  -14.2089   22.5576 H   0  0  0  0  0  0
  1 25  1  0  0  0
  1 30  2  0  0  0
  1 85  1  0  0  0
  2  3  1  0  0  0
  2 25  1  0  0  0
  2 89  1  0  0  0
  2 90  1  0  0  0
  3  4  1  0  0  0
  3 91  1  0  0  0
  3 92  1  0  0  0
  4  5  1  0  0  0
  4 93  1  0  0  0
  4 94  1  0  0  0
  5  6  1  0  0  0
  5 26  1  0  0  0
  5 95  1  0  0  0
  6 25  1  0  0  0
  6 96  1  0  0  0
  6 97  1  0  0  0
  7  8  2  0  0  0
  7 26  1  0  0  0
  7 29  1  0  0  0
  8  9  1  0  0  0
  8 22  1  0  0  0
  9 10  1  0  0  0
  9 27  2  0  0  0
 10 11  2  0  0  0
 10 15  1  0  0  0
 11 12  1  0  0  0
 11 98  1  0  0  0
 12 13  2  0  0  0
 12 99  1  0  0  0
 13 14  1  0  0  0
 13 31  1  0  0  0
 14 15  2  0  0  0
 14100  1  0  0  0
 15101  1  0  0  0
 16 17  2  0  0  0
 16 21  1  0  0  0
 16 31  1  0  0  0
 17 18  1  0  0  0
 17102  1  0  0  0
 18 19  2  0  0  0
 18103  1  0  0  0
 19 20  1  0  0  0
 19 24  1  0  0  0
 20 21  2  0  0  0
 20104  1  0  0  0
 21 23  1  0  0  0
 22 28  1  0  0  0
 22 32  2  0  0  0
 26 27  1  0  0  0
 28105  1  0  0  0
 28106  1  0  0  0
 29107  1  0  0  0
 29108  1  0  0  0
 33 34  1  0  0  0
 33 66  1  0  0  0
 33 70  2  0  0  0
 34 36  1  0  0  0
 34 59  1  0  0  0
 34109  1  0  0  0
 35 44  2  0  0  0
 35 45  1  0  0  0
 35 68  1  0  0  0
 36 56  1  0  0  0
 36110  1  0  0  0
 37 39  1  0  0  0
 37 47  1  0  0  0
 37 66  1  0  0  0
 37111  1  0  0  0
 38 43  2  0  0  0
 38 46  1  0  0  0
 38 47  1  0  0  0
 39 64  1  0  0  0
 39 67  2  0  0  0
 40 52  1  0  0  0
 40 53  2  0  0  0
 40 58  1  0  0  0
 41112  1  0  0  0
 41113  1  0  0  0
 41114  1  0  0  0
 41 48  1  0  0  0
 42 43  1  0  0  0
 42 66  1  0  0  0
 42115  1  0  0  0
 42116  1  0  0  0
 43 44  1  0  0  0
 44117  1  0  0  0
 45 46  2  0  0  0
 45118  1  0  0  0
 46119  1  0  0  0
 47120  1  0  0  0
 47121  1  0  0  0
 48 56  1  0  0  0
 48 65  1  0  0  0
 48122  1  0  0  0
 49 50  1  0  0  0
 49 53  1  0  0  0
 49 64  1  0  0  0
 49123  1  0  0  0
 50 51  1  0  0  0
 50124  1  0  0  0
 50125  1  0  0  0
 51 52  1  0  0  0
 51126  1  0  0  0
 51127  1  0  0  0
 52128  1  0  0  0
 52129  1  0  0  0
 53 54  1  0  0  0
 54 55  2  0  0  0
 54130  1  0  0  0
 55 57  1  0  0  0
 55131  1  0  0  0
 56 69  2  0  0  0
 57 58  2  0  0  0
 57132  1  0  0  0
 58133  1  0  0  0
 59 60  1  0  0  0
 59 61  1  0  0  0
 59 62  1  0  0  0
 60134  1  0  0  0
 60135  1  0  0  0
 60136  1  0  0  0
 61137  1  0  0  0
 61138  1  0  0  0
 61139  1  0  0  0
 62140  1  0  0  0
 62141  1  0  0  0
 62142  1  0  0  0
 63 65  1  0  0  0
 63143  1  0  0  0
 63144  1  0  0  0
 63145  1  0  0  0
 64146  1  0  0  0
 65147  1  0  0  0
 68 84  1  0  0  0
 71 72  2  0  0  0
 71 74  1  0  0  0
 71148  1  0  0  0
 72 75  1  0  0  0
 72 77  1  0  0  0
 73 75  2  0  0  0
 73 76  1  0  0  0
 73 85  1  0  0  0
 74 76  2  0  0  0
 74 86  1  0  0  0
 75 87  1  0  0  0
 76 88  1  0  0  0
 77 78  1  0  0  0
 77149  1  0  0  0
 77150  1  0  0  0
 78 79  1  0  0  0
 78151  1  0  0  0
 78152  1  0  0  0
 79 80  1  0  0  0
 79153  1  0  0  0
 79154  1  0  0  0
 80 81  1  0  0  0
 80155  1  0  0  0
 80156  1  0  0  0
 81 82  1  0  0  0
 81157  1  0  0  0
 81158  1  0  0  0
 82 83  1  0  0  0
 82159  1  0  0  0
 82160  1  0  0  0
 83 84  1  0  0  0
 83161  1  0  0  0
 83162  1  0  0  0
 84163  1  0  0  0
 84164  1  0  0  0
 85165  1  0  0  0
M  ISO  4   1 100  68 101  84 101  85 100
M  END
> <chiral flag>
0

> <version>
0

> <s_m_source_file>
/data/baiqing/PycharmProjects/Reinvent-master-3.2/result/LINK_invent/BTK/process_docking_weight1_custom_sum_contain_oxygen_bond_distance_aromatic_linkinvent_7_9_3/rearranged_h_0024.sdf

> <i_m_source_file_index>
40

> <r_mmod_Potential_Energy-OPLS-2005>
-58.1861839294434

> <r_mmod_Stretch_Energy-OPLS-2005>
30.6463851928711

> <r_mmod_Bend_Energy-OPLS-2005>
95.2251892089844

> <r_mmod_Torsional_Energy-OPLS-2005>
226.938690185547

> <r_mmod_Improper_Torsional_Energy-OPLS-2005>
4.90143585205078

> <r_mmod_Van_der_Waal_Energy-OPLS-2005>
154.200759887695

> <r_mmod_Electrostatic_Energy-OPLS-2005>
-387.813446044922

> <r_mmod_Solvation_Energy-OPLS-2005>
-191.501373291016

> <b_mmod_Minimization_Converged-OPLS-2005>
0

> <r_mmod_RMS_Derivative-OPLS-2005>
1.15949594974518

$$$$
40
                    3D
 Structure written by MMmdl.
163171  0  0  1  0            999 V2000
  -30.3979  -15.3790   20.3343 C   0  0  0  0  0  0
  -30.4337  -12.8841   19.5434 C   0  0  0  0  0  0
  -29.5455  -12.6127   18.3017 C   0  0  0  0  0  0
  -28.0973  -12.3136   18.7245 C   0  0  0  0  0  0
  -27.6098  -13.2868   19.8260 C   0  0  2  0  0  0
  -28.6360  -13.5121   20.9597 C   0  0  0  0  0  0
  -25.2377  -13.8256   20.5750 C   0  0  0  0  0  0
  -24.1735  -13.0428   20.9246 C   0  0  0  0  0  0
  -24.6406  -11.6932   20.8748 C   0  0  0  0  0  0
  -23.9101  -10.4290   21.0395 C   0  0  0  0  0  0
  -24.3643   -9.4208   21.9179 C   0  0  0  0  0  0
  -23.6308   -8.2250   22.0760 C   0  0  0  0  0  0
  -22.4292   -8.0278   21.3546 C   0  0  0  0  0  0
  -21.9927   -9.0258   20.4657 C   0  0  0  0  0  0
  -22.7265  -10.2129   20.3052 C   0  0  0  0  0  0
  -21.6862   -6.0728   22.5264 C   0  0  0  0  0  0
  -21.4021   -6.5637   23.8191 C   0  0  0  0  0  0
  -21.3658   -5.6789   24.9161 C   0  0  0  0  0  0
  -21.6042   -4.3049   24.7214 C   0  0  0  0  0  0
  -21.8821   -3.8139   23.4339 C   0  0  0  0  0  0
  -21.9188   -4.6958   22.3390 C   0  0  0  0  0  0
  -22.7744  -13.5181   21.1869 C   0  0  0  0  0  0
  -22.1659   -4.2138   21.0970 F   0  0  0  0  0  0
  -21.5634   -3.4534   25.7734 F   0  0  0  0  0  0
  -29.8565  -14.0477   20.3307 N   0  0  0  0  0  0
  -26.2816  -12.9550   20.3229 N   0  0  0  0  0  0
  -25.9354  -11.6643   20.5717 N   0  0  0  0  0  0
  -22.0402  -12.8186   22.0437 N   0  0  0  0  0  0
  -25.4000  -15.1996   20.4184 N   0  0  0  0  0  0
  -31.6127  -15.3590   20.0830 O   0  0  0  0  0  0
  -21.6648   -6.8884   21.4229 O   0  0  0  0  0  0
  -22.3413  -14.5466   20.6685 O   0  0  0  0  0  0
  -24.6695  -31.8156   23.1639 C   0  0  0  0  0  0
  -25.9350  -32.4541   23.8123 C   0  0  1  0  0  0
  -27.2218  -26.8540   20.1848 C   0  0  0  0  0  0
  -25.5996  -33.8359   24.2040 N   0  0  0  0  0  0
  -23.4872  -30.4219   21.5159 C   0  0  2  0  0  0
  -24.9443  -28.7993   20.1043 C   0  0  0  0  0  0
  -22.7717  -29.4379   22.4775 C   0  0  0  0  0  0
  -18.0329  -28.1419   22.8457 C   0  0  0  0  0  0
  -24.1499  -36.7179   23.2647 C   0  0  0  0  0  0
  -26.0598  -30.5959   21.4065 C   0  0  0  0  0  0
  -26.1258  -29.1786   20.7520 C   0  0  0  0  0  0
  -27.2499  -28.2239   20.7765 C   0  0  0  0  0  0
  -26.0177  -26.6558   19.4680 C   0  0  0  0  0  0
  -24.9215  -27.5614   19.4396 C   0  0  0  0  0  0
  -23.7305  -29.7328   20.1427 C   0  0  0  0  0  0
  -25.4138  -36.2931   24.0299 C   0  0  1  0  0  0
  -20.5957  -28.3751   23.1196 C   0  0  2  0  0  0
  -20.6801  -26.9424   22.5406 C   0  0  0  0  0  0
  -19.5776  -26.6373   21.5220 C   0  0  0  0  0  0
  -18.1958  -26.7951   22.1618 C   0  0  0  0  0  0
  -19.1589  -28.8914   23.2810 C   0  0  0  0  0  0
  -18.9490  -30.1507   23.8829 C   0  0  0  0  0  0
  -17.6476  -30.6599   24.0549 C   0  0  0  0  0  0
  -25.9109  -34.9324   23.4994 C   0  0  0  0  0  0
  -16.5375  -29.9067   23.6353 C   0  0  0  0  0  0
  -16.7310  -28.6503   23.0351 C   0  0  0  0  0  0
  -26.4581  -31.6512   25.0676 C   0  0  0  0  0  0
  -25.3693  -31.3755   26.1317 C   0  0  0  0  0  0
  -27.0487  -30.2878   24.6440 C   0  0  0  0  0  0
  -27.6078  -32.4324   25.7473 C   0  0  0  0  0  0
  -27.5570  -37.1750   24.8470 C   0  0  0  0  0  0
  -21.4379  -29.3025   22.3541 N   0  0  0  0  0  0
  -26.4276  -37.3673   23.9407 N   0  0  0  0  0  0
  -24.7608  -30.9744   22.0814 N   0  0  0  0  0  0
  -23.4233  -28.7981   23.3059 O   0  0  0  0  0  0
  -28.1806  -25.6942   20.3488 O   0  0  0  0  0  0
  -26.5724  -34.8878   22.4590 O   0  0  0  0  0  0
  -23.5756  -32.1163   23.6697 O   0  0  0  0  0  0
  -27.5616  -21.6838   20.9815 C   0  0  0  0  0  0
  -27.8903  -20.2520   20.9711 C   0  0  0  0  0  0
  -28.4369  -22.4829   20.2628 C   0  0  0  0  0  0
  -29.0250  -19.8794   20.2762 C   0  0  0  0  0  0
  -31.5904  -22.4072   20.0906 C   0  0  0  0  0  0
  -30.5825  -17.5390   17.4937 C   0  0  0  0  0  0
  -28.8570  -19.3031   17.4849 C   0  0  0  0  0  0
  -28.1954  -17.0247   18.0667 C   0  0  0  0  0  0
  -28.2347  -24.1617   19.6686 C   0  0  0  0  0  0
  -30.6144  -21.6244   19.2033 C   0  0  0  0  0  0
  -29.6918  -18.2734   19.8020 C   0  0  2  0  0  0
  -29.3429  -18.0504   18.2565 C   0  0  0  0  0  0
  -29.3780  -21.3290   19.9098 N   0  0  0  0  0  0
  -29.6303  -16.6786   20.4179 N   0  0  0  0  0  0
  -26.8519  -19.0815   21.6975 Cl  0  0  0  0  0  0
  -31.4529  -13.0893   19.2136 H   0  0  0  0  0  0
  -30.5092  -11.9911   20.1650 H   0  0  0  0  0  0
  -29.9497  -11.7850   17.7162 H   0  0  0  0  0  0
  -29.5638  -13.4866   17.6487 H   0  0  0  0  0  0
  -28.0656  -11.2905   19.1006 H   0  0  0  0  0  0
  -27.4317  -12.3446   17.8609 H   0  0  0  0  0  0
  -27.5052  -14.2425   19.3133 H   0  0  0  0  0  0
  -28.8273  -12.5967   21.5207 H   0  0  0  0  0  0
  -28.2541  -14.2406   21.6756 H   0  0  0  0  0  0
  -25.2789   -9.5685   22.4750 H   0  0  0  0  0  0
  -24.0002   -7.4652   22.7502 H   0  0  0  0  0  0
  -21.0846   -8.8786   19.8979 H   0  0  0  0  0  0
  -22.3725  -10.9663   19.6157 H   0  0  0  0  0  0
  -21.2022   -7.6152   23.9694 H   0  0  0  0  0  0
  -21.1480   -6.0526   25.9063 H   0  0  0  0  0  0
  -22.0603   -2.7602   23.2835 H   0  0  0  0  0  0
  -22.4028  -11.9871   22.4853 H   0  0  0  0  0  0
  -21.1011  -13.1200   22.2611 H   0  0  0  0  0  0
  -24.6305  -15.8493   20.5413 H   0  0  0  0  0  0
  -26.2421  -15.6420   20.0754 H   0  0  0  0  0  0
  -26.7421  -32.5064   23.0835 H   0  0  0  0  0  0
  -25.0111  -33.9417   25.0172 H   0  0  0  0  0  0
  -22.8032  -31.2552   21.3408 H   0  0  0  0  0  0
  -23.3772  -35.9494   23.3261 H   0  0  0  0  0  0
  -24.3584  -36.8867   22.2068 H   0  0  0  0  0  0
  -23.7243  -37.6348   23.6733 H   0  0  0  0  0  0
  -26.2468  -31.3323   20.6234 H   0  0  0  0  0  0
  -26.9180  -30.6590   22.0623 H   0  0  0  0  0  0
  -28.1316  -28.5043   21.3351 H   0  0  0  0  0  0
  -25.8639  -25.7131   18.9672 H   0  0  0  0  0  0
  -24.0273  -27.2669   18.9060 H   0  0  0  0  0  0
  -23.8841  -30.4992   19.3820 H   0  0  0  0  0  0
  -22.8397  -29.1863   19.8272 H   0  0  0  0  0  0
  -25.1337  -36.1707   25.0787 H   0  0  0  0  0  0
  -21.0038  -28.3347   24.1327 H   0  0  0  0  0  0
  -20.5681  -26.2360   23.3643 H   0  0  0  0  0  0
  -21.6663  -26.7402   22.1214 H   0  0  0  0  0  0
  -19.6925  -25.6270   21.1287 H   0  0  0  0  0  0
  -19.6724  -27.3157   20.6728 H   0  0  0  0  0  0
  -17.4231  -26.6706   21.4017 H   0  0  0  0  0  0
  -18.0342  -26.0118   22.9035 H   0  0  0  0  0  0
  -19.7957  -30.7358   24.2162 H   0  0  0  0  0  0
  -17.5011  -31.6270   24.5162 H   0  0  0  0  0  0
  -15.5364  -30.2925   23.7727 H   0  0  0  0  0  0
  -15.8723  -28.0802   22.7077 H   0  0  0  0  0  0
  -24.5927  -30.7054   25.7609 H   0  0  0  0  0  0
  -24.8820  -32.2942   26.4596 H   0  0  0  0  0  0
  -25.7921  -30.9018   27.0189 H   0  0  0  0  0  0
  -26.3164  -29.6541   24.1426 H   0  0  0  0  0  0
  -27.3987  -29.7252   25.5108 H   0  0  0  0  0  0
  -27.9118  -30.4048   23.9881 H   0  0  0  0  0  0
  -27.2675  -33.3703   26.1870 H   0  0  0  0  0  0
  -28.3973  -32.6753   25.0348 H   0  0  0  0  0  0
  -28.0648  -31.8557   26.5522 H   0  0  0  0  0  0
  -28.2561  -38.0069   24.7517 H   0  0  0  0  0  0
  -28.1093  -36.2600   24.6293 H   0  0  0  0  0  0
  -27.2299  -37.1383   25.8875 H   0  0  0  0  0  0
  -20.9666  -29.8679   21.6624 H   0  0  0  0  0  0
  -26.0120  -38.2730   24.1392 H   0  0  0  0  0  0
  -26.6621  -22.0839   21.4285 H   0  0  0  0  0  0
  -31.1896  -23.3848   20.3608 H   0  0  0  0  0  0
  -32.5381  -22.5674   19.5758 H   0  0  0  0  0  0
  -31.8041  -21.8644   21.0121 H   0  0  0  0  0  0
  -30.3801  -17.4494   16.4255 H   0  0  0  0  0  0
  -30.9066  -16.5575   17.8317 H   0  0  0  0  0  0
  -31.4266  -18.2215   17.6009 H   0  0  0  0  0  0
  -28.5986  -19.0602   16.4528 H   0  0  0  0  0  0
  -29.6192  -20.0694   17.4043 H   0  0  0  0  0  0
  -27.9585  -19.7415   17.9202 H   0  0  0  0  0  0
  -27.8345  -17.0097   17.0376 H   0  0  0  0  0  0
  -27.3413  -17.2642   18.7011 H   0  0  0  0  0  0
  -28.4983  -16.0004   18.2711 H   0  0  0  0  0  0
  -27.3408  -24.1169   19.0502 H   0  0  0  0  0  0
  -29.0260  -24.2820   18.9291 H   0  0  0  0  0  0
  -31.0919  -20.6926   18.9022 H   0  0  0  0  0  0
  -30.3839  -22.1817   18.2939 H   0  0  0  0  0  0
  -30.7655  -18.4561   19.8540 H   0  0  0  0  0  0
  -28.6983  -16.4897   20.7533 H   0  0  0  0  0  0
  1 25  1  0  0  0
  1 30  2  0  0  0
  1 84  1  0  0  0
  2  3  1  0  0  0
  2 25  1  0  0  0
  2 86  1  0  0  0
  2 87  1  0  0  0
  3  4  1  0  0  0
  3 88  1  0  0  0
  3 89  1  0  0  0
  4  5  1  0  0  0
  4 90  1  0  0  0
  4 91  1  0  0  0
  5  6  1  0  0  0
  5 26  1  0  0  0
  5 92  1  0  0  0
  6 25  1  0  0  0
  6 93  1  0  0  0
  6 94  1  0  0  0
  7  8  2  0  0  0
  7 26  1  0  0  0
  7 29  1  0  0  0
  8  9  1  0  0  0
  8 22  1  0  0  0
  9 10  1  0  0  0
  9 27  2  0  0  0
 10 11  2  0  0  0
 10 15  1  0  0  0
 11 12  1  0  0  0
 11 95  1  0  0  0
 12 13  2  0  0  0
 12 96  1  0  0  0
 13 14  1  0  0  0
 13 31  1  0  0  0
 14 15  2  0  0  0
 14 97  1  0  0  0
 15 98  1  0  0  0
 16 17  2  0  0  0
 16 21  1  0  0  0
 16 31  1  0  0  0
 17 18  1  0  0  0
 17 99  1  0  0  0
 18 19  2  0  0  0
 18100  1  0  0  0
 19 20  1  0  0  0
 19 24  1  0  0  0
 20 21  2  0  0  0
 20101  1  0  0  0
 21 23  1  0  0  0
 22 28  1  0  0  0
 22 32  2  0  0  0
 26 27  1  0  0  0
 28102  1  0  0  0
 28103  1  0  0  0
 29104  1  0  0  0
 29105  1  0  0  0
 33 34  1  0  0  0
 33 66  1  0  0  0
 33 70  2  0  0  0
 34 36  1  0  0  0
 34 59  1  0  0  0
 34106  1  0  0  0
 35 44  2  0  0  0
 35 45  1  0  0  0
 35 68  1  0  0  0
 36 56  1  0  0  0
 36107  1  0  0  0
 37 39  1  0  0  0
 37 47  1  0  0  0
 37 66  1  0  0  0
 37108  1  0  0  0
 38 43  2  0  0  0
 38 46  1  0  0  0
 38 47  1  0  0  0
 39 64  1  0  0  0
 39 67  2  0  0  0
 40 52  1  0  0  0
 40 53  2  0  0  0
 40 58  1  0  0  0
 41109  1  0  0  0
 41110  1  0  0  0
 41111  1  0  0  0
 41 48  1  0  0  0
 42 43  1  0  0  0
 42 66  1  0  0  0
 42112  1  0  0  0
 42113  1  0  0  0
 43 44  1  0  0  0
 44114  1  0  0  0
 45 46  2  0  0  0
 45115  1  0  0  0
 46116  1  0  0  0
 47117  1  0  0  0
 47118  1  0  0  0
 48 56  1  0  0  0
 48 65  1  0  0  0
 48119  1  0  0  0
 49 50  1  0  0  0
 49 53  1  0  0  0
 49 64  1  0  0  0
 49120  1  0  0  0
 50 51  1  0  0  0
 50121  1  0  0  0
 50122  1  0  0  0
 51 52  1  0  0  0
 51123  1  0  0  0
 51124  1  0  0  0
 52125  1  0  0  0
 52126  1  0  0  0
 53 54  1  0  0  0
 54 55  2  0  0  0
 54127  1  0  0  0
 55 57  1  0  0  0
 55128  1  0  0  0
 56 69  2  0  0  0
 57 58  2  0  0  0
 57129  1  0  0  0
 58130  1  0  0  0
 59 60  1  0  0  0
 59 61  1  0  0  0
 59 62  1  0  0  0
 60131  1  0  0  0
 60132  1  0  0  0
 60133  1  0  0  0
 61134  1  0  0  0
 61135  1  0  0  0
 61136  1  0  0  0
 62137  1  0  0  0
 62138  1  0  0  0
 62139  1  0  0  0
 63 65  1  0  0  0
 63140  1  0  0  0
 63141  1  0  0  0
 63142  1  0  0  0
 64143  1  0  0  0
 65144  1  0  0  0
 68 79  1  0  0  0
 71 72  1  0  0  0
 71 73  2  0  0  0
 71145  1  0  0  0
 72 74  2  0  0  0
 72 85  1  0  0  0
 73 79  1  0  0  0
 73 83  1  0  0  0
 74 81  1  0  0  0
 74 83  1  0  0  0
 75 80  1  0  0  0
 75146  1  0  0  0
 75147  1  0  0  0
 75148  1  0  0  0
 76149  1  0  0  0
 76150  1  0  0  0
 76151  1  0  0  0
 76 82  1  0  0  0
 77 82  1  0  0  0
 77152  1  0  0  0
 77153  1  0  0  0
 77154  1  0  0  0
 78 82  1  0  0  0
 78155  1  0  0  0
 78156  1  0  0  0
 78157  1  0  0  0
 79158  1  0  0  0
 79159  1  0  0  0
 80 83  1  0  0  0
 80160  1  0  0  0
 80161  1  0  0  0
 81 82  1  0  0  0
 81 84  1  0  0  0
 81162  1  0  0  0
 84163  1  0  0  0
M  ISO  4   1 100  68 101  79 101  84 100
M  END
> <chiral flag>
0

> <version>
0

> <s_m_source_file>
/data/baiqing/PycharmProjects/Reinvent-master-3.2/result/LINK_invent/BTK/process_docking_weight1_custom_sum_contain_oxygen_bond_distance_aromatic_linkinvent_7_9_3/rearranged_h_0024.sdf

> <i_m_source_file_index>
41

> <r_mmod_Potential_Energy-OPLS-2005>
1600.900390625

> <r_mmod_Stretch_Energy-OPLS-2005>
723.990844726562

> <r_mmod_Bend_Energy-OPLS-2005>
537.107604980469

> <r_mmod_Torsional_Energy-OPLS-2005>
258.860748291016

> <r_mmod_Improper_Torsional_Energy-OPLS-2005>
7.99658012390137

> <r_mmod_Van_der_Waal_Energy-OPLS-2005>
110.624313354492

> <r_mmod_Electrostatic_Energy-OPLS-2005>
-428.429626464844

> <r_mmod_Solvation_Energy-OPLS-2005>
-198.041366577148

> <b_mmod_Minimization_Converged-OPLS-2005>
0

> <r_mmod_RMS_Derivative-OPLS-2005>
2.1501624584198

$$$$
41
                    3D
 Structure written by MMmdl.
153161  0  0  1  0            999 V2000
  -30.3109  -15.5944   20.3407 C   0  0  0  0  0  0
  -30.4351  -13.0443   19.5632 C   0  0  0  0  0  0
  -29.5666  -12.6618   18.3306 C   0  0  0  0  0  0
  -28.1287  -12.3192   18.7531 C   0  0  0  0  0  0
  -27.6041  -13.3103   19.8176 C   0  0  2  0  0  0
  -28.6164  -13.6157   20.9470 C   0  0  0  0  0  0
  -25.2352  -13.8292   20.5783 C   0  0  0  0  0  0
  -24.1744  -13.0430   20.9272 C   0  0  0  0  0  0
  -24.6448  -11.6950   20.8745 C   0  0  0  0  0  0
  -23.9147  -10.4295   21.0381 C   0  0  0  0  0  0
  -24.3670   -9.4208   21.9173 C   0  0  0  0  0  0
  -23.6321   -8.2251   22.0756 C   0  0  0  0  0  0
  -22.4300   -8.0302   21.3552 C   0  0  0  0  0  0
  -21.9952   -9.0278   20.4650 C   0  0  0  0  0  0
  -22.7305  -10.2140   20.3047 C   0  0  0  0  0  0
  -21.6863   -6.0754   22.5285 C   0  0  0  0  0  0
  -21.4023   -6.5647   23.8223 C   0  0  0  0  0  0
  -21.3659   -5.6788   24.9180 C   0  0  0  0  0  0
  -21.6040   -4.3052   24.7217 C   0  0  0  0  0  0
  -21.8812   -3.8158   23.4336 C   0  0  0  0  0  0
  -21.9194   -4.6979   22.3399 C   0  0  0  0  0  0
  -22.7756  -13.5173   21.1894 C   0  0  0  0  0  0
  -22.1660   -4.2169   21.0977 F   0  0  0  0  0  0
  -21.5630   -3.4533   25.7728 F   0  0  0  0  0  0
  -29.8078  -14.2226   20.3101 N   0  0  0  0  0  0
  -26.2814  -12.9632   20.3197 N   0  0  0  0  0  0
  -25.9398  -11.6706   20.5665 N   0  0  0  0  0  0
  -22.0403  -12.8178   22.0456 N   0  0  0  0  0  0
  -25.3886  -15.2041   20.4249 N   0  0  0  0  0  0
  -31.5384  -15.5634   20.1279 O   0  0  0  0  0  0
  -21.6650   -6.8905   21.4252 O   0  0  0  0  0  0
  -22.3432  -14.5461   20.6712 O   0  0  0  0  0  0
  -24.6805  -31.8049   23.1578 C   0  0  0  0  0  0
  -25.9402  -32.4499   23.8106 C   0  0  1  0  0  0
  -27.2253  -26.7169   20.1996 C   0  0  0  0  0  0
  -25.5996  -33.8330   24.1997 N   0  0  0  0  0  0
  -23.5045  -30.4088   21.5123 C   0  0  2  0  0  0
  -24.9653  -28.7662   20.1126 C   0  0  0  0  0  0
  -22.7748  -29.4326   22.4738 C   0  0  0  0  0  0
  -18.0349  -28.1389   22.8470 C   0  0  0  0  0  0
  -24.1480  -36.7168   23.2647 C   0  0  0  0  0  0
  -26.0852  -30.5356   21.4292 C   0  0  0  0  0  0
  -26.1499  -29.1051   20.7762 C   0  0  0  0  0  0
  -27.2586  -28.1050   20.8020 C   0  0  0  0  0  0
  -26.0299  -26.6268   19.4307 C   0  0  0  0  0  0
  -24.9454  -27.5505   19.4157 C   0  0  0  0  0  0
  -23.7580  -29.7164   20.1435 C   0  0  0  0  0  0
  -25.4132  -36.2923   24.0289 C   0  0  1  0  0  0
  -20.5980  -28.3751   23.1165 C   0  0  2  0  0  0
  -20.6824  -26.9405   22.5425 C   0  0  0  0  0  0
  -19.5812  -26.6335   21.5225 C   0  0  0  0  0  0
  -18.1988  -26.7909   22.1632 C   0  0  0  0  0  0
  -19.1609  -28.8895   23.2794 C   0  0  0  0  0  0
  -18.9509  -30.1486   23.8825 C   0  0  0  0  0  0
  -17.6503  -30.6579   24.0543 C   0  0  0  0  0  0
  -25.9109  -34.9309   23.4973 C   0  0  0  0  0  0
  -16.5393  -29.9062   23.6339 C   0  0  0  0  0  0
  -16.7329  -28.6476   23.0366 C   0  0  0  0  0  0
  -26.4573  -31.6524   25.0721 C   0  0  0  0  0  0
  -25.3641  -31.3861   26.1345 C   0  0  0  0  0  0
  -27.0495  -30.2857   24.6631 C   0  0  0  0  0  0
  -27.6031  -32.4387   25.7521 C   0  0  0  0  0  0
  -27.5558  -37.1748   24.8462 C   0  0  0  0  0  0
  -21.4400  -29.3015   22.3493 N   0  0  0  0  0  0
  -26.4258  -37.3685   23.9408 N   0  0  0  0  0  0
  -24.7795  -30.9480   22.0853 N   0  0  0  0  0  0
  -23.4208  -28.7918   23.3057 O   0  0  0  0  0  0
  -28.1596  -25.4682   20.3284 O   0  0  0  0  0  0
  -26.5739  -34.8880   22.4584 O   0  0  0  0  0  0
  -23.5834  -32.1145   23.6525 O   0  0  0  0  0  0
  -28.8553  -21.0040   19.1635 C   0  0  0  0  0  0
  -28.6898  -22.0562   20.2091 C   0  0  0  0  0  0
  -28.9472  -21.1644   21.3844 C   0  0  0  0  0  0
  -29.4363  -18.6251   20.3660 C   0  0  0  0  0  0
  -29.1657  -19.5129   19.2114 C   0  0  0  0  0  0
  -29.2804  -19.6529   21.4460 C   0  0  0  0  0  0
  -28.7815  -21.8653   22.7252 C   0  0  0  0  0  0
  -27.9688  -23.9017   18.4348 C   0  0  0  0  0  0
  -26.5125  -23.5034   20.5086 C   0  0  0  0  0  0
  -27.9346  -23.7580   19.9684 C   0  0  0  0  0  0
  -29.4982  -16.9064   20.4564 N   0  0  0  0  0  0
  -29.1148  -18.7125   17.6811 Cl  0  0  0  0  0  0
  -29.4633  -18.9746   23.0288 Cl  0  0  0  0  0  0
  -31.4399  -13.2937   19.2224 H   0  0  0  0  0  0
  -30.5695  -12.1859   20.2249 H   0  0  0  0  0  0
  -30.0156  -11.8234   17.7969 H   0  0  0  0  0  0
  -29.5536  -13.4999   17.6323 H   0  0  0  0  0  0
  -28.1359  -11.3102   19.1670 H   0  0  0  0  0  0
  -27.4696  -12.2947   17.8832 H   0  0  0  0  0  0
  -27.4759  -14.2452   19.2689 H   0  0  0  0  0  0
  -28.8567  -12.7255   21.5313 H   0  0  0  0  0  0
  -28.1872  -14.3339   21.6485 H   0  0  0  0  0  0
  -25.2809   -9.5673   22.4761 H   0  0  0  0  0  0
  -24.0017   -7.4645   22.7488 H   0  0  0  0  0  0
  -21.0879   -8.8810   19.8968 H   0  0  0  0  0  0
  -22.3769  -10.9681   19.6158 H   0  0  0  0  0  0
  -21.2021   -7.6155   23.9736 H   0  0  0  0  0  0
  -21.1490   -6.0516   25.9080 H   0  0  0  0  0  0
  -22.0592   -2.7624   23.2825 H   0  0  0  0  0  0
  -22.4031  -11.9865   22.4884 H   0  0  0  0  0  0
  -21.1013  -13.1215   22.2626 H   0  0  0  0  0  0
  -24.6057  -15.8401   20.5341 H   0  0  0  0  0  0
  -26.2135  -15.6539   20.0523 H   0  0  0  0  0  0
  -26.7500  -32.4984   23.0833 H   0  0  0  0  0  0
  -25.0071  -33.9376   25.0103 H   0  0  0  0  0  0
  -22.8279  -31.2464   21.3306 H   0  0  0  0  0  0
  -23.3763  -35.9472   23.3264 H   0  0  0  0  0  0
  -24.3540  -36.8867   22.2065 H   0  0  0  0  0  0
  -23.7211  -37.6329   23.6748 H   0  0  0  0  0  0
  -26.2901  -31.2639   20.6435 H   0  0  0  0  0  0
  -26.9338  -30.5984   22.0962 H   0  0  0  0  0  0
  -28.1347  -28.3633   21.3808 H   0  0  0  0  0  0
  -25.8597  -25.7454   18.8361 H   0  0  0  0  0  0
  -24.0658  -27.2920   18.8417 H   0  0  0  0  0  0
  -23.9308  -30.4850   19.3897 H   0  0  0  0  0  0
  -22.8616  -29.1856   19.8178 H   0  0  0  0  0  0
  -25.1335  -36.1697   25.0781 H   0  0  0  0  0  0
  -21.0081  -28.3372   24.1285 H   0  0  0  0  0  0
  -20.5637  -26.2384   23.3694 H   0  0  0  0  0  0
  -21.6702  -26.7322   22.1285 H   0  0  0  0  0  0
  -19.6972  -25.6223   21.1317 H   0  0  0  0  0  0
  -19.6744  -27.3097   20.6718 H   0  0  0  0  0  0
  -17.4253  -26.6649   21.4038 H   0  0  0  0  0  0
  -18.0382  -26.0056   22.9034 H   0  0  0  0  0  0
  -19.7981  -30.7329   24.2158 H   0  0  0  0  0  0
  -17.5039  -31.6260   24.5146 H   0  0  0  0  0  0
  -15.5385  -30.2939   23.7679 H   0  0  0  0  0  0
  -15.8735  -28.0767   22.7122 H   0  0  0  0  0  0
  -24.5855  -30.7166   25.7675 H   0  0  0  0  0  0
  -24.8786  -32.3084   26.4552 H   0  0  0  0  0  0
  -25.7825  -30.9189   27.0271 H   0  0  0  0  0  0
  -26.3211  -29.6488   24.1606 H   0  0  0  0  0  0
  -27.3885  -29.7302   25.5383 H   0  0  0  0  0  0
  -27.9218  -30.3974   24.0192 H   0  0  0  0  0  0
  -27.2581  -33.3773   26.1886 H   0  0  0  0  0  0
  -28.3941  -32.6822   25.0411 H   0  0  0  0  0  0
  -28.0594  -31.8658   26.5605 H   0  0  0  0  0  0
  -28.2558  -38.0062   24.7513 H   0  0  0  0  0  0
  -28.1076  -36.2587   24.6291 H   0  0  0  0  0  0
  -27.2274  -37.1396   25.8866 H   0  0  0  0  0  0
  -20.9675  -29.8720   21.6627 H   0  0  0  0  0  0
  -26.0088  -38.2732   24.1445 H   0  0  0  0  0  0
  -28.6559  -21.3477   18.1608 H   0  0  0  0  0  0
  -27.9113  -21.4690   23.2479 H   0  0  0  0  0  0
  -28.6362  -22.9393   22.6064 H   0  0  0  0  0  0
  -29.6563  -21.7316   23.3609 H   0  0  0  0  0  0
  -27.4084  -23.1150   17.9324 H   0  0  0  0  0  0
  -29.0024  -23.8443   18.0879 H   0  0  0  0  0  0
  -27.5909  -24.8500   18.0648 H   0  0  0  0  0  0
  -25.7959  -24.2938   20.3332 H   0  0  0  0  0  0
  -26.5338  -23.3516   21.5870 H   0  0  0  0  0  0
  -26.0892  -22.6027   20.0657 H   0  0  0  0  0  0
  -28.5620  -16.5938   20.6643 H   0  0  0  0  0  0
  1 25  1  0  0  0
  1 30  2  0  0  0
  1 81  1  0  0  0
  2  3  1  0  0  0
  2 25  1  0  0  0
  2 84  1  0  0  0
  2 85  1  0  0  0
  3  4  1  0  0  0
  3 86  1  0  0  0
  3 87  1  0  0  0
  4  5  1  0  0  0
  4 88  1  0  0  0
  4 89  1  0  0  0
  5  6  1  0  0  0
  5 26  1  0  0  0
  5 90  1  0  0  0
  6 25  1  0  0  0
  6 91  1  0  0  0
  6 92  1  0  0  0
  7  8  2  0  0  0
  7 26  1  0  0  0
  7 29  1  0  0  0
  8  9  1  0  0  0
  8 22  1  0  0  0
  9 10  1  0  0  0
  9 27  2  0  0  0
 10 11  2  0  0  0
 10 15  1  0  0  0
 11 12  1  0  0  0
 11 93  1  0  0  0
 12 13  2  0  0  0
 12 94  1  0  0  0
 13 14  1  0  0  0
 13 31  1  0  0  0
 14 15  2  0  0  0
 14 95  1  0  0  0
 15 96  1  0  0  0
 16 17  2  0  0  0
 16 21  1  0  0  0
 16 31  1  0  0  0
 17 18  1  0  0  0
 17 97  1  0  0  0
 18 19  2  0  0  0
 18 98  1  0  0  0
 19 20  1  0  0  0
 19 24  1  0  0  0
 20 21  2  0  0  0
 20 99  1  0  0  0
 21 23  1  0  0  0
 22 28  1  0  0  0
 22 32  2  0  0  0
 26 27  1  0  0  0
 28100  1  0  0  0
 28101  1  0  0  0
 29102  1  0  0  0
 29103  1  0  0  0
 33 34  1  0  0  0
 33 66  1  0  0  0
 33 70  2  0  0  0
 34 36  1  0  0  0
 34 59  1  0  0  0
 34104  1  0  0  0
 35 44  2  0  0  0
 35 45  1  0  0  0
 35 68  1  0  0  0
 36 56  1  0  0  0
 36105  1  0  0  0
 37 39  1  0  0  0
 37 47  1  0  0  0
 37 66  1  0  0  0
 37106  1  0  0  0
 38 43  2  0  0  0
 38 46  1  0  0  0
 38 47  1  0  0  0
 39 64  1  0  0  0
 39 67  2  0  0  0
 40 52  1  0  0  0
 40 53  2  0  0  0
 40 58  1  0  0  0
 41107  1  0  0  0
 41108  1  0  0  0
 41109  1  0  0  0
 41 48  1  0  0  0
 42 43  1  0  0  0
 42 66  1  0  0  0
 42110  1  0  0  0
 42111  1  0  0  0
 43 44  1  0  0  0
 44112  1  0  0  0
 45 46  2  0  0  0
 45113  1  0  0  0
 46114  1  0  0  0
 47115  1  0  0  0
 47116  1  0  0  0
 48 56  1  0  0  0
 48 65  1  0  0  0
 48117  1  0  0  0
 49 50  1  0  0  0
 49 53  1  0  0  0
 49 64  1  0  0  0
 49118  1  0  0  0
 50 51  1  0  0  0
 50119  1  0  0  0
 50120  1  0  0  0
 51 52  1  0  0  0
 51121  1  0  0  0
 51122  1  0  0  0
 52123  1  0  0  0
 52124  1  0  0  0
 53 54  1  0  0  0
 54 55  2  0  0  0
 54125  1  0  0  0
 55 57  1  0  0  0
 55126  1  0  0  0
 56 69  2  0  0  0
 57 58  2  0  0  0
 57127  1  0  0  0
 58128  1  0  0  0
 59 60  1  0  0  0
 59 61  1  0  0  0
 59 62  1  0  0  0
 60129  1  0  0  0
 60130  1  0  0  0
 60131  1  0  0  0
 61132  1  0  0  0
 61133  1  0  0  0
 61134  1  0  0  0
 62135  1  0  0  0
 62136  1  0  0  0
 62137  1  0  0  0
 63 65  1  0  0  0
 63138  1  0  0  0
 63139  1  0  0  0
 63140  1  0  0  0
 64141  1  0  0  0
 65142  1  0  0  0
 68 80  1  0  0  0
 71 72  2  0  0  0
 71 75  1  0  0  0
 71143  1  0  0  0
 72 73  1  0  0  0
 72 80  1  0  0  0
 73 76  2  0  0  0
 73 77  1  0  0  0
 74 75  2  0  0  0
 74 76  1  0  0  0
 74 81  1  0  0  0
 75 82  1  0  0  0
 76 83  1  0  0  0
 77144  1  0  0  0
 77145  1  0  0  0
 77146  1  0  0  0
 78147  1  0  0  0
 78148  1  0  0  0
 78149  1  0  0  0
 78 80  1  0  0  0
 79 80  1  0  0  0
 79150  1  0  0  0
 79151  1  0  0  0
 79152  1  0  0  0
 81153  1  0  0  0
M  ISO  4   1 100  68 101  80 101  81 100
M  END
> <chiral flag>
0

> <version>
0

> <s_m_source_file>
/data/baiqing/PycharmProjects/Reinvent-master-3.2/result/LINK_invent/BTK/process_docking_weight1_custom_sum_contain_oxygen_bond_distance_aromatic_linkinvent_7_9_3/rearranged_h_0024.sdf

> <i_m_source_file_index>
42

> <r_mmod_Potential_Energy-OPLS-2005>
2230.2724609375

> <r_mmod_Stretch_Energy-OPLS-2005>
937.867797851562

> <r_mmod_Bend_Energy-OPLS-2005>
673.541381835938

> <r_mmod_Torsional_Energy-OPLS-2005>
260.578643798828

> <r_mmod_Improper_Torsional_Energy-OPLS-2005>
10.5181493759155

> <r_mmod_Van_der_Waal_Energy-OPLS-2005>
141.213653564453

> <r_mmod_Electrostatic_Energy-OPLS-2005>
-447.854614257812

> <r_mmod_Solvation_Energy-OPLS-2005>
-208.053588867188

> <b_mmod_Minimization_Converged-OPLS-2005>
0

> <r_mmod_RMS_Derivative-OPLS-2005>
2.62245512008667

$$$$
42
                    3D
 Structure written by MMmdl.
177185  0  0  1  0            999 V2000
  -30.7356  -14.4209   20.6570 C   0  0  0  0  0  0
  -30.4320  -12.3004   19.4084 C   0  0  0  0  0  0
  -29.4882  -12.4215   18.1938 C   0  0  0  0  0  0
  -28.0043  -12.3280   18.6066 C   0  0  0  0  0  0
  -27.6529  -13.1791   19.8536 C   0  0  2  0  0  0
  -28.6883  -12.9513   20.9663 C   0  0  0  0  0  0
  -25.2602  -13.8109   20.5564 C   0  0  0  0  0  0
  -24.1836  -13.0447   20.9139 C   0  0  0  0  0  0
  -24.6349  -11.6890   20.8759 C   0  0  0  0  0  0
  -23.9019  -10.4294   21.0437 C   0  0  0  0  0  0
  -24.3588   -9.4201   21.9204 C   0  0  0  0  0  0
  -23.6265   -8.2245   22.0758 C   0  0  0  0  0  0
  -22.4258   -8.0286   21.3547 C   0  0  0  0  0  0
  -21.9880   -9.0262   20.4655 C   0  0  0  0  0  0
  -22.7198  -10.2139   20.3081 C   0  0  0  0  0  0
  -21.6864   -6.0740   22.5287 C   0  0  0  0  0  0
  -21.4016   -6.5638   23.8215 C   0  0  0  0  0  0
  -21.3644   -5.6788   24.9182 C   0  0  0  0  0  0
  -21.6042   -4.3051   24.7232 C   0  0  0  0  0  0
  -21.8823   -3.8147   23.4356 C   0  0  0  0  0  0
  -21.9185   -4.6967   22.3409 C   0  0  0  0  0  0
  -22.7889  -13.5290   21.1825 C   0  0  0  0  0  0
  -22.1659   -4.2150   21.0992 F   0  0  0  0  0  0
  -21.5617   -3.4535   25.7745 F   0  0  0  0  0  0
  -30.0266  -13.2772   20.4309 N   0  0  0  0  0  0
  -26.2979  -12.9195   20.3240 N   0  0  0  0  0  0
  -25.9250  -11.6395   20.5768 N   0  0  0  0  0  0
  -22.0505  -12.8345   22.0394 N   0  0  0  0  0  0
  -25.4370  -15.1825   20.3878 N   0  0  0  0  0  0
  -31.8191  -14.6645   20.1121 O   0  0  0  0  0  0
  -21.6636   -6.8879   21.4243 O   0  0  0  0  0  0
  -22.3595  -14.5606   20.6655 O   0  0  0  0  0  0
  -24.6134  -31.8681   23.2161 C   0  0  0  0  0  0
  -25.9057  -32.4808   23.8425 C   0  0  1  0  0  0
  -27.2157  -27.4632   20.0880 C   0  0  0  0  0  0
  -25.5931  -33.8617   24.2347 N   0  0  0  0  0  0
  -23.3935  -30.4971   21.5591 C   0  0  2  0  0  0
  -24.8366  -28.9774   20.1070 C   0  0  0  0  0  0
  -22.7428  -29.4622   22.5030 C   0  0  0  0  0  0
  -18.0324  -28.1347   22.8573 C   0  0  0  0  0  0
  -24.1505  -36.7292   23.2648 C   0  0  0  0  0  0
  -25.9228  -30.8456   21.3633 C   0  0  0  0  0  0
  -25.9973  -29.4886   20.6993 C   0  0  0  0  0  0
  -27.1940  -28.7402   20.6851 C   0  0  0  0  0  0
  -26.0494  -26.9783   19.4517 C   0  0  0  0  0  0
  -24.8572  -27.7219   19.4783 C   0  0  0  0  0  0
  -23.5954  -29.8359   20.1706 C   0  0  0  0  0  0
  -25.4111  -36.3098   24.0364 C   0  0  1  0  0  0
  -20.5888  -28.3637   23.1320 C   0  0  2  0  0  0
  -20.6825  -26.9410   22.5371 C   0  0  0  0  0  0
  -19.5734  -26.6309   21.5272 C   0  0  0  0  0  0
  -18.1983  -26.7840   22.1823 C   0  0  0  0  0  0
  -19.1569  -28.8844   23.2895 C   0  0  0  0  0  0
  -18.9518  -30.1497   23.8799 C   0  0  0  0  0  0
  -17.6538  -30.6636   24.0486 C   0  0  0  0  0  0
  -25.9034  -34.9468   23.5134 C   0  0  0  0  0  0
  -16.5404  -29.9077   23.6399 C   0  0  0  0  0  0
  -16.7329  -28.6457   23.0476 C   0  0  0  0  0  0
  -26.4482  -31.6587   25.0735 C   0  0  0  0  0  0
  -25.3754  -31.3664   26.1467 C   0  0  0  0  0  0
  -27.0292  -30.3053   24.6080 C   0  0  0  0  0  0
  -27.6111  -32.4257   25.7448 C   0  0  0  0  0  0
  -27.5579  -37.1780   24.8469 C   0  0  0  0  0  0
  -21.4148  -29.3017   22.3786 N   0  0  0  0  0  0
  -26.4299  -37.3788   23.9413 N   0  0  0  0  0  0
  -24.6623  -31.0824   22.1047 N   0  0  0  0  0  0
  -23.4246  -28.8089   23.2960 O   0  0  0  0  0  0
  -28.3629  -26.7136   20.1620 O   0  0  0  0  0  0
  -26.5582  -34.8893   22.4674 O   0  0  0  0  0  0
  -23.5345  -32.1434   23.7554 O   0  0  0  0  0  0
  -28.3283  -17.9865   19.3393 C   0  0  0  0  0  0
  -28.1455  -19.0187   20.2829 C   0  0  0  0  0  0
  -29.5895  -16.6184   21.0149 C   0  0  0  0  0  0
  -29.1022  -16.8439   19.6749 C   0  0  0  0  0  0
  -28.7341  -18.8894   21.5573 C   0  0  0  0  0  0
  -29.4570  -17.7289   21.9161 C   0  0  0  0  0  0
  -27.7010  -18.0831   17.9435 C   0  0  0  0  0  0
  -26.5329  -26.6120   23.6093 C   0  0  0  0  0  0
  -30.2224  -14.9565   22.8937 C   0  0  0  0  0  0
  -27.3330  -20.2710   19.9605 C   0  0  0  0  0  0
  -25.8771  -20.1257   20.4456 C   0  0  0  0  0  0
  -25.1168  -21.4509   20.6210 C   0  0  0  0  0  0
  -25.8508  -22.4220   21.5585 C   0  0  0  0  0  0
  -27.8874  -25.1115   22.0415 C   0  0  0  0  0  0
  -24.9620  -23.4995   22.1919 C   0  0  0  0  0  0
  -28.1926  -25.3384   20.5350 C   0  0  0  0  0  0
  -26.4614  -25.4901   22.5624 C   0  0  1  0  0  0
  -30.1470  -15.3307   21.4661 N   0  0  0  0  0  0
  -25.7145  -24.3466   23.1474 N   0  3  0  0  0  0
  -29.4418  -15.8065   18.3302 Cl  0  0  0  0  0  0
  -28.5548  -20.1655   22.7246 Cl  0  0  0  0  0  0
  -30.2243  -17.8088   23.4741 Cl  0  0  0  0  0  0
  -31.4674  -12.4319   19.0876 H   0  0  0  0  0  0
  -30.3826  -11.2957   19.8291 H   0  0  0  0  0  0
  -29.7125  -11.6304   17.4782 H   0  0  0  0  0  0
  -29.6817  -13.3425   17.6518 H   0  0  0  0  0  0
  -27.7915  -11.2779   18.8124 H   0  0  0  0  0  0
  -27.3644  -12.6057   17.7687 H   0  0  0  0  0  0
  -27.6888  -14.2236   19.5611 H   0  0  0  0  0  0
  -28.6741  -11.9094   21.2882 H   0  0  0  0  0  0
  -28.3910  -13.5245   21.8414 H   0  0  0  0  0  0
  -25.2734   -9.5714   22.4766 H   0  0  0  0  0  0
  -23.9972   -7.4645   22.7487 H   0  0  0  0  0  0
  -21.0807   -8.8801   19.8957 H   0  0  0  0  0  0
  -22.3663  -10.9700   19.6203 H   0  0  0  0  0  0
  -21.2027   -7.6149   23.9728 H   0  0  0  0  0  0
  -21.1446   -6.0518   25.9084 H   0  0  0  0  0  0
  -22.0606   -2.7612   23.2871 H   0  0  0  0  0  0
  -22.4046  -11.9958   22.4755 H   0  0  0  0  0  0
  -21.1169  -13.1458   22.2644 H   0  0  0  0  0  0
  -24.6577  -15.8299   20.4249 H   0  0  0  0  0  0
  -26.2831  -15.6042   20.0320 H   0  0  0  0  0  0
  -26.7095  -32.5520   23.1165 H   0  0  0  0  0  0
  -25.0120  -33.9820   25.0514 H   0  0  0  0  0  0
  -22.6781  -31.3142   21.4304 H   0  0  0  0  0  0
  -23.3776  -35.9615   23.3327 H   0  0  0  0  0  0
  -24.3625  -36.8898   22.2063 H   0  0  0  0  0  0
  -23.7235  -37.6496   23.6631 H   0  0  0  0  0  0
  -26.0296  -31.6226   20.6054 H   0  0  0  0  0  0
  -26.8109  -30.8919   21.9820 H   0  0  0  0  0  0
  -28.0872  -29.1201   21.1619 H   0  0  0  0  0  0
  -26.0370  -26.0276   18.9427 H   0  0  0  0  0  0
  -23.9616  -27.3321   19.0114 H   0  0  0  0  0  0
  -23.6903  -30.6133   19.4121 H   0  0  0  0  0  0
  -22.7189  -29.2514   19.8851 H   0  0  0  0  0  0
  -25.1273  -36.1971   25.0865 H   0  0  0  0  0  0
  -20.9955  -28.3191   24.1467 H   0  0  0  0  0  0
  -20.5917  -26.2253   23.3560 H   0  0  0  0  0  0
  -21.6661  -26.7601   22.0999 H   0  0  0  0  0  0
  -19.6899  -25.6193   21.1374 H   0  0  0  0  0  0
  -19.6576  -27.3059   20.6743 H   0  0  0  0  0  0
  -17.4157  -26.6414   21.4370 H   0  0  0  0  0  0
  -18.0598  -26.0113   22.9385 H   0  0  0  0  0  0
  -19.7993  -30.7403   24.2008 H   0  0  0  0  0  0
  -17.5193  -31.6341   24.5024 H   0  0  0  0  0  0
  -15.5386  -30.2939   23.7740 H   0  0  0  0  0  0
  -15.8762  -28.0724   22.7265 H   0  0  0  0  0  0
  -24.5933  -30.7024   25.7751 H   0  0  0  0  0  0
  -24.8942  -32.2826   26.4911 H   0  0  0  0  0  0
  -25.8113  -30.8792   27.0205 H   0  0  0  0  0  0
  -26.2811  -29.6800   24.1211 H   0  0  0  0  0  0
  -27.4169  -29.7293   25.4483 H   0  0  0  0  0  0
  -27.8598  -30.4381   23.9152 H   0  0  0  0  0  0
  -27.2818  -33.3548   26.2087 H   0  0  0  0  0  0
  -28.3873  -32.6824   25.0231 H   0  0  0  0  0  0
  -28.0826  -31.8337   26.5296 H   0  0  0  0  0  0
  -28.2578  -38.0086   24.7506 H   0  0  0  0  0  0
  -28.1101  -36.2619   24.6297 H   0  0  0  0  0  0
  -27.2324  -37.1432   25.8885 H   0  0  0  0  0  0
  -20.9271  -29.8794   21.7100 H   0  0  0  0  0  0
  -26.0196  -38.2875   24.1412 H   0  0  0  0  0  0
  -26.8484  -18.7555   17.8803 H   0  0  0  0  0  0
  -27.2991  -17.1231   17.6190 H   0  0  0  0  0  0
  -28.4447  -18.3990   17.2119 H   0  0  0  0  0  0
  -27.0343  -27.4916   23.2063 H   0  0  0  0  0  0
  -27.0799  -26.2975   24.4986 H   0  0  0  0  0  0
  -25.5383  -26.9262   23.9317 H   0  0  0  0  0  0
  -29.3380  -15.2899   23.4379 H   0  0  0  0  0  0
  -31.1217  -15.3602   23.3607 H   0  0  0  0  0  0
  -30.2696  -13.8786   23.0632 H   0  0  0  0  0  0
  -27.3682  -20.5298   18.9044 H   0  0  0  0  0  0
  -27.8311  -21.1196   20.4227 H   0  0  0  0  0  0
  -25.8752  -19.6245   21.4166 H   0  0  0  0  0  0
  -25.3289  -19.4681   19.7693 H   0  0  0  0  0  0
  -24.1347  -21.2125   21.0328 H   0  0  0  0  0  0
  -24.9421  -21.9256   19.6532 H   0  0  0  0  0  0
  -26.6473  -22.8962   20.9893 H   0  0  0  0  0  0
  -26.3255  -21.8585   22.3620 H   0  0  0  0  0  0
  -28.6474  -25.6402   22.6167 H   0  0  0  0  0  0
  -28.0878  -24.0615   22.2538 H   0  0  0  0  0  0
  -24.1618  -23.0064   22.7454 H   0  0  0  0  0  0
  -24.4709  -24.1076   21.4295 H   0  0  0  0  0  0
  -29.1452  -24.8550   20.3176 H   0  0  0  0  0  0
  -27.4855  -24.8078   19.8991 H   0  0  0  0  0  0
  -25.8501  -25.8686   21.7480 H   0  0  0  0  0  0
  -26.3131  -23.7790   23.7282 H   0  0  0  0  0  0
  -25.0221  -24.7454   23.7639 H   0  0  0  0  0  0
  1 25  1  0  0  0
  1 30  2  0  0  0
  1 88  1  0  0  0
  2  3  1  0  0  0
  2 25  1  0  0  0
  2 93  1  0  0  0
  2 94  1  0  0  0
  3  4  1  0  0  0
  3 95  1  0  0  0
  3 96  1  0  0  0
  4  5  1  0  0  0
  4 97  1  0  0  0
  4 98  1  0  0  0
  5  6  1  0  0  0
  5 26  1  0  0  0
  5 99  1  0  0  0
  6 25  1  0  0  0
  6100  1  0  0  0
  6101  1  0  0  0
  7  8  2  0  0  0
  7 26  1  0  0  0
  7 29  1  0  0  0
  8  9  1  0  0  0
  8 22  1  0  0  0
  9 10  1  0  0  0
  9 27  2  0  0  0
 10 11  2  0  0  0
 10 15  1  0  0  0
 11 12  1  0  0  0
 11102  1  0  0  0
 12 13  2  0  0  0
 12103  1  0  0  0
 13 14  1  0  0  0
 13 31  1  0  0  0
 14 15  2  0  0  0
 14104  1  0  0  0
 15105  1  0  0  0
 16 17  2  0  0  0
 16 21  1  0  0  0
 16 31  1  0  0  0
 17 18  1  0  0  0
 17106  1  0  0  0
 18 19  2  0  0  0
 18107  1  0  0  0
 19 20  1  0  0  0
 19 24  1  0  0  0
 20 21  2  0  0  0
 20108  1  0  0  0
 21 23  1  0  0  0
 22 28  1  0  0  0
 22 32  2  0  0  0
 26 27  1  0  0  0
 28109  1  0  0  0
 28110  1  0  0  0
 29111  1  0  0  0
 29112  1  0  0  0
 33 34  1  0  0  0
 33 66  1  0  0  0
 33 70  2  0  0  0
 34 36  1  0  0  0
 34 59  1  0  0  0
 34113  1  0  0  0
 35 44  2  0  0  0
 35 45  1  0  0  0
 35 68  1  0  0  0
 36 56  1  0  0  0
 36114  1  0  0  0
 37 39  1  0  0  0
 37 47  1  0  0  0
 37 66  1  0  0  0
 37115  1  0  0  0
 38 43  2  0  0  0
 38 46  1  0  0  0
 38 47  1  0  0  0
 39 64  1  0  0  0
 39 67  2  0  0  0
 40 52  1  0  0  0
 40 53  2  0  0  0
 40 58  1  0  0  0
 41116  1  0  0  0
 41117  1  0  0  0
 41118  1  0  0  0
 41 48  1  0  0  0
 42 43  1  0  0  0
 42 66  1  0  0  0
 42119  1  0  0  0
 42120  1  0  0  0
 43 44  1  0  0  0
 44121  1  0  0  0
 45 46  2  0  0  0
 45122  1  0  0  0
 46123  1  0  0  0
 47124  1  0  0  0
 47125  1  0  0  0
 48 56  1  0  0  0
 48 65  1  0  0  0
 48126  1  0  0  0
 49 50  1  0  0  0
 49 53  1  0  0  0
 49 64  1  0  0  0
 49127  1  0  0  0
 50 51  1  0  0  0
 50128  1  0  0  0
 50129  1  0  0  0
 51 52  1  0  0  0
 51130  1  0  0  0
 51131  1  0  0  0
 52132  1  0  0  0
 52133  1  0  0  0
 53 54  1  0  0  0
 54 55  2  0  0  0
 54134  1  0  0  0
 55 57  1  0  0  0
 55135  1  0  0  0
 56 69  2  0  0  0
 57 58  2  0  0  0
 57136  1  0  0  0
 58137  1  0  0  0
 59 60  1  0  0  0
 59 61  1  0  0  0
 59 62  1  0  0  0
 60138  1  0  0  0
 60139  1  0  0  0
 60140  1  0  0  0
 61141  1  0  0  0
 61142  1  0  0  0
 61143  1  0  0  0
 62144  1  0  0  0
 62145  1  0  0  0
 62146  1  0  0  0
 63 65  1  0  0  0
 63147  1  0  0  0
 63148  1  0  0  0
 63149  1  0  0  0
 64150  1  0  0  0
 65151  1  0  0  0
 68 86  1  0  0  0
 71 72  2  0  0  0
 71 74  1  0  0  0
 71 77  1  0  0  0
 72 75  1  0  0  0
 72 80  1  0  0  0
 73 74  2  0  0  0
 73 76  1  0  0  0
 73 88  1  0  0  0
 74 90  1  0  0  0
 75 76  2  0  0  0
 75 91  1  0  0  0
 76 92  1  0  0  0
 77152  1  0  0  0
 77153  1  0  0  0
 77154  1  0  0  0
 78155  1  0  0  0
 78156  1  0  0  0
 78157  1  0  0  0
 78 87  1  0  0  0
 79 88  1  0  0  0
 79158  1  0  0  0
 79159  1  0  0  0
 79160  1  0  0  0
 80 81  1  0  0  0
 80161  1  0  0  0
 80162  1  0  0  0
 81 82  1  0  0  0
 81163  1  0  0  0
 81164  1  0  0  0
 82 83  1  0  0  0
 82165  1  0  0  0
 82166  1  0  0  0
 83 85  1  0  0  0
 83167  1  0  0  0
 83168  1  0  0  0
 84 86  1  0  0  0
 84 87  1  0  0  0
 84169  1  0  0  0
 84170  1  0  0  0
 85 89  1  0  0  0
 85171  1  0  0  0
 85172  1  0  0  0
 86173  1  0  0  0
 86174  1  0  0  0
 87 89  1  0  0  0
 87175  1  0  0  0
 89176  1  0  0  0
 89177  1  0  0  0
M  CHG  1  89   1
M  ISO  4   1 100  68 101  86 101  88 100
M  END
> <chiral flag>
0

> <version>
0

> <s_m_source_file>
/data/baiqing/PycharmProjects/Reinvent-master-3.2/result/LINK_invent/BTK/process_docking_weight1_custom_sum_contain_oxygen_bond_distance_aromatic_linkinvent_7_9_3/rearranged_h_0024.sdf

> <i_m_source_file_index>
43

> <r_mmod_Potential_Energy-OPLS-2005>
81.5031356811523

> <r_mmod_Stretch_Energy-OPLS-2005>
51.0484046936035

> <r_mmod_Bend_Energy-OPLS-2005>
124.173461914062

> <r_mmod_Torsional_Energy-OPLS-2005>
335.302978515625

> <r_mmod_Improper_Torsional_Energy-OPLS-2005>
2.53571271896362

> <r_mmod_Van_der_Waal_Energy-OPLS-2005>
192.543426513672

> <r_mmod_Electrostatic_Energy-OPLS-2005>
-223.243682861328

> <r_mmod_Solvation_Energy-OPLS-2005>
-414.705291748047

> <b_mmod_Minimization_Converged-OPLS-2005>
0

> <r_mmod_RMS_Derivative-OPLS-2005>
4.35515356063843

$$$$
43
                    3D
 Structure written by MMmdl.
174182  0  0  1  0            999 V2000
  -30.7127  -14.4050   20.6456 C   0  0  0  0  0  0
  -30.4354  -12.2888   19.4082 C   0  0  0  0  0  0
  -29.4998  -12.5214   18.2045 C   0  0  0  0  0  0
  -28.0186  -12.3798   18.6129 C   0  0  0  0  0  0
  -27.6721  -13.1903   19.8892 C   0  0  2  0  0  0
  -28.7102  -12.9145   20.9996 C   0  0  0  0  0  0
  -25.2637  -13.8133   20.5654 C   0  0  0  0  0  0
  -24.1860  -13.0432   20.9158 C   0  0  0  0  0  0
  -24.6409  -11.6891   20.8747 C   0  0  0  0  0  0
  -23.9071  -10.4285   21.0420 C   0  0  0  0  0  0
  -24.3617   -9.4199   21.9196 C   0  0  0  0  0  0
  -23.6288   -8.2238   22.0772 C   0  0  0  0  0  0
  -22.4269   -8.0281   21.3556 C   0  0  0  0  0  0
  -21.9907   -9.0261   20.4656 C   0  0  0  0  0  0
  -22.7245  -10.2143   20.3063 C   0  0  0  0  0  0
  -21.6850   -6.0737   22.5292 C   0  0  0  0  0  0
  -21.4003   -6.5640   23.8221 C   0  0  0  0  0  0
  -21.3657   -5.6788   24.9178 C   0  0  0  0  0  0
  -21.6048   -4.3051   24.7227 C   0  0  0  0  0  0
  -21.8815   -3.8150   23.4344 C   0  0  0  0  0  0
  -21.9184   -4.6965   22.3405 C   0  0  0  0  0  0
  -22.7879  -13.5249   21.1827 C   0  0  0  0  0  0
  -22.1657   -4.2154   21.0983 F   0  0  0  0  0  0
  -21.5636   -3.4539   25.7747 F   0  0  0  0  0  0
  -30.0506  -13.2300   20.4676 N   0  0  0  0  0  0
  -26.3079  -12.9278   20.3418 N   0  0  0  0  0  0
  -25.9323  -11.6452   20.5753 N   0  0  0  0  0  0
  -22.0511  -12.8239   22.0393 N   0  0  0  0  0  0
  -25.4379  -15.1842   20.4070 N   0  0  0  0  0  0
  -31.7845  -14.6773   20.0993 O   0  0  0  0  0  0
  -21.6634   -6.8878   21.4253 O   0  0  0  0  0  0
  -22.3561  -14.5558   20.6691 O   0  0  0  0  0  0
  -24.6144  -31.8673   23.2141 C   0  0  0  0  0  0
  -25.9039  -32.4821   23.8402 C   0  0  1  0  0  0
  -27.2270  -27.4242   20.0891 C   0  0  0  0  0  0
  -25.5932  -33.8618   24.2350 N   0  0  0  0  0  0
  -23.4017  -30.4960   21.5519 C   0  0  2  0  0  0
  -24.8465  -28.9742   20.1076 C   0  0  0  0  0  0
  -22.7384  -29.4640   22.4940 C   0  0  0  0  0  0
  -18.0267  -28.1340   22.8453 C   0  0  0  0  0  0
  -24.1502  -36.7285   23.2632 C   0  0  0  0  0  0
  -25.9320  -30.8334   21.3681 C   0  0  0  0  0  0
  -26.0064  -29.4694   20.7113 C   0  0  0  0  0  0
  -27.1973  -28.7029   20.6982 C   0  0  0  0  0  0
  -26.0505  -26.9754   19.4364 C   0  0  0  0  0  0
  -24.8636  -27.7274   19.4665 C   0  0  0  0  0  0
  -23.6091  -29.8408   20.1626 C   0  0  0  0  0  0
  -25.4120  -36.3084   24.0345 C   0  0  1  0  0  0
  -20.5868  -28.3618   23.1300 C   0  0  2  0  0  0
  -20.6749  -26.9343   22.5402 C   0  0  0  0  0  0
  -19.5755  -26.6350   21.5168 C   0  0  0  0  0  0
  -18.1929  -26.7894   22.1585 C   0  0  0  0  0  0
  -19.1512  -28.8798   23.2877 C   0  0  0  0  0  0
  -18.9446  -30.1394   23.8896 C   0  0  0  0  0  0
  -17.6455  -30.6549   24.0524 C   0  0  0  0  0  0
  -25.9060  -34.9461   23.5141 C   0  0  0  0  0  0
  -16.5345  -29.9041   23.6321 C   0  0  0  0  0  0
  -16.7251  -28.6461   23.0336 C   0  0  0  0  0  0
  -26.4488  -31.6593   25.0725 C   0  0  0  0  0  0
  -25.3751  -31.3685   26.1472 C   0  0  0  0  0  0
  -27.0321  -30.3046   24.6082 C   0  0  0  0  0  0
  -27.6070  -32.4298   25.7487 C   0  0  0  0  0  0
  -27.5575  -37.1776   24.8461 C   0  0  0  0  0  0
  -21.4100  -29.3016   22.3694 N   0  0  0  0  0  0
  -26.4299  -37.3775   23.9416 N   0  0  0  0  0  0
  -24.6668  -31.0794   22.1023 N   0  0  0  0  0  0
  -23.4161  -28.8132   23.2937 O   0  0  0  0  0  0
  -28.3946  -26.6778   20.1435 O   0  0  0  0  0  0
  -26.5597  -34.8914   22.4677 O   0  0  0  0  0  0
  -23.5350  -32.1393   23.7577 O   0  0  0  0  0  0
  -30.9044  -18.7502   22.5129 C   0  0  0  0  0  0
  -30.3983  -19.5664   21.4638 C   0  0  0  0  0  0
  -29.7725  -18.8764   20.3656 C   0  0  0  0  0  0
  -30.2306  -16.6862   21.4091 C   0  0  0  0  0  0
  -30.8218  -17.3474   22.4979 C   0  0  0  0  0  0
  -29.7014  -17.4545   20.3469 C   0  0  0  0  0  0
  -30.3064  -21.1287   15.8094 C   0  0  0  0  0  0
  -31.2515  -21.7166   20.3408 C   0  0  0  0  0  0
  -31.4842  -21.5508   22.7259 C   0  0  0  0  0  0
  -29.0957  -19.6127   19.2121 C   0  0  0  0  0  0
  -29.3440  -20.7232   16.9338 C   0  0  0  0  0  0
  -29.9484  -19.7167   17.9297 C   0  0  0  0  0  0
  -29.0220  -24.3991   21.0357 C   0  0  0  0  0  0
  -28.5640  -22.9256   20.9027 C   0  0  0  0  0  0
  -28.3151  -25.2507   19.9504 C   0  0  0  0  0  0
  -30.5219  -21.1381   21.5796 C   0  0  0  0  0  0
  -29.1207  -21.8357   21.8700 C   0  0  0  0  0  0
  -30.0802  -15.2736   21.4426 N   0  0  0  0  0  0
  -28.1791  -20.8910   21.8792 F   0  0  0  0  0  0
  -29.0752  -22.3643   23.0950 F   0  0  0  0  0  0
  -31.4309  -16.4606   23.8525 Cl  0  0  0  0  0  0
  -28.9179  -16.6396   19.0280 Cl  0  0  0  0  0  0
  -31.4776  -12.4064   19.1041 H   0  0  0  0  0  0
  -30.3486  -11.2637   19.7719 H   0  0  0  0  0  0
  -29.7395  -11.8215   17.4027 H   0  0  0  0  0  0
  -29.6698  -13.5186   17.7967 H   0  0  0  0  0  0
  -27.8158  -11.3203   18.7789 H   0  0  0  0  0  0
  -27.3723  -12.6880   17.7917 H   0  0  0  0  0  0
  -27.7320  -14.2438   19.6287 H   0  0  0  0  0  0
  -28.6738  -11.8629   21.2896 H   0  0  0  0  0  0
  -28.4580  -13.4617   21.9079 H   0  0  0  0  0  0
  -25.2767   -9.5668   22.4751 H   0  0  0  0  0  0
  -23.9998   -7.4629   22.7488 H   0  0  0  0  0  0
  -21.0837   -8.8783   19.8954 H   0  0  0  0  0  0
  -22.3717  -10.9679   19.6155 H   0  0  0  0  0  0
  -21.1993   -7.6148   23.9722 H   0  0  0  0  0  0
  -21.1488   -6.0524   25.9084 H   0  0  0  0  0  0
  -22.0598   -2.7613   23.2853 H   0  0  0  0  0  0
  -22.4102  -11.9866   22.4731 H   0  0  0  0  0  0
  -21.1147  -13.1287   22.2629 H   0  0  0  0  0  0
  -24.6737  -15.8415   20.5190 H   0  0  0  0  0  0
  -26.2883  -15.6216   20.0768 H   0  0  0  0  0  0
  -26.7065  -32.5541   23.1124 H   0  0  0  0  0  0
  -25.0081  -33.9801   25.0490 H   0  0  0  0  0  0
  -22.6899  -31.3117   21.4215 H   0  0  0  0  0  0
  -23.3765  -35.9608   23.3306 H   0  0  0  0  0  0
  -24.3571  -36.8908   22.2038 H   0  0  0  0  0  0
  -23.7290  -37.6507   23.6645 H   0  0  0  0  0  0
  -26.0600  -31.6055   20.6073 H   0  0  0  0  0  0
  -26.8126  -30.8785   21.9952 H   0  0  0  0  0  0
  -28.0913  -29.0865   21.1635 H   0  0  0  0  0  0
  -26.0172  -26.0553   18.8740 H   0  0  0  0  0  0
  -23.9745  -27.3527   18.9781 H   0  0  0  0  0  0
  -23.7087  -30.6214   19.4077 H   0  0  0  0  0  0
  -22.7361  -29.2585   19.8678 H   0  0  0  0  0  0
  -25.1297  -36.1942   25.0843 H   0  0  0  0  0  0
  -20.9968  -28.3154   24.1414 H   0  0  0  0  0  0
  -20.5633  -26.2174   23.3559 H   0  0  0  0  0  0
  -21.6613  -26.7341   22.1208 H   0  0  0  0  0  0
  -19.6917  -25.6263   21.1184 H   0  0  0  0  0  0
  -19.6752  -27.3141   20.6694 H   0  0  0  0  0  0
  -17.4192  -26.6595   21.3996 H   0  0  0  0  0  0
  -18.0357  -26.0040   22.9002 H   0  0  0  0  0  0
  -19.7923  -30.7178   24.2280 H   0  0  0  0  0  0
  -17.5027  -31.6252   24.5076 H   0  0  0  0  0  0
  -15.5346  -30.2948   23.7678 H   0  0  0  0  0  0
  -15.8632  -28.0786   22.7072 H   0  0  0  0  0  0
  -24.5943  -30.7060   25.7740 H   0  0  0  0  0  0
  -24.8926  -32.2836   26.4893 H   0  0  0  0  0  0
  -25.8067  -30.8815   27.0227 H   0  0  0  0  0  0
  -26.2843  -29.6827   24.1159 H   0  0  0  0  0  0
  -27.4148  -29.7309   25.4526 H   0  0  0  0  0  0
  -27.8642  -30.4380   23.9179 H   0  0  0  0  0  0
  -27.2694  -33.3601   26.2055 H   0  0  0  0  0  0
  -28.3843  -32.6857   25.0279 H   0  0  0  0  0  0
  -28.0758  -31.8434   26.5399 H   0  0  0  0  0  0
  -28.2557  -38.0098   24.7510 H   0  0  0  0  0  0
  -28.1117  -36.2632   24.6280 H   0  0  0  0  0  0
  -27.2294  -37.1420   25.8864 H   0  0  0  0  0  0
  -20.9212  -29.8751   21.6958 H   0  0  0  0  0  0
  -26.0196  -38.2853   24.1424 H   0  0  0  0  0  0
  -31.3604  -19.1672   23.3938 H   0  0  0  0  0  0
  -29.8109  -21.7997   15.1062 H   0  0  0  0  0  0
  -30.6687  -20.2669   15.2468 H   0  0  0  0  0  0
  -31.1747  -21.6581   16.2049 H   0  0  0  0  0  0
  -32.1460  -21.1369   20.1136 H   0  0  0  0  0  0
  -31.5839  -22.7406   20.5046 H   0  0  0  0  0  0
  -30.6530  -21.7572   19.4394 H   0  0  0  0  0  0
  -32.4785  -21.1313   22.5848 H   0  0  0  0  0  0
  -31.1269  -21.2450   23.7081 H   0  0  0  0  0  0
  -31.5978  -22.6359   22.7710 H   0  0  0  0  0  0
  -28.8015  -20.5909   19.5494 H   0  0  0  0  0  0
  -28.1357  -19.1511   18.9825 H   0  0  0  0  0  0
  -28.4356  -20.3006   16.5024 H   0  0  0  0  0  0
  -29.0319  -21.6272   17.4615 H   0  0  0  0  0  0
  -30.0530  -18.7391   17.4582 H   0  0  0  0  0  0
  -30.9632  -20.0207   18.1805 H   0  0  0  0  0  0
  -30.1028  -24.4810   20.9380 H   0  0  0  0  0  0
  -28.7530  -24.7678   22.0271 H   0  0  0  0  0  0
  -28.6809  -22.6362   19.8641 H   0  0  0  0  0  0
  -27.4830  -22.9250   21.0591 H   0  0  0  0  0  0
  -27.2929  -24.8831   19.9358 H   0  0  0  0  0  0
  -28.7333  -25.0143   18.9716 H   0  0  0  0  0  0
  -29.2714  -14.9204   21.9280 H   0  0  0  0  0  0
  1 25  1  0  0  0
  1 30  2  0  0  0
  1 88  1  0  0  0
  2  3  1  0  0  0
  2 25  1  0  0  0
  2 93  1  0  0  0
  2 94  1  0  0  0
  3  4  1  0  0  0
  3 95  1  0  0  0
  3 96  1  0  0  0
  4  5  1  0  0  0
  4 97  1  0  0  0
  4 98  1  0  0  0
  5  6  1  0  0  0
  5 26  1  0  0  0
  5 99  1  0  0  0
  6 25  1  0  0  0
  6100  1  0  0  0
  6101  1  0  0  0
  7  8  2  0  0  0
  7 26  1  0  0  0
  7 29  1  0  0  0
  8  9  1  0  0  0
  8 22  1  0  0  0
  9 10  1  0  0  0
  9 27  2  0  0  0
 10 11  2  0  0  0
 10 15  1  0  0  0
 11 12  1  0  0  0
 11102  1  0  0  0
 12 13  2  0  0  0
 12103  1  0  0  0
 13 14  1  0  0  0
 13 31  1  0  0  0
 14 15  2  0  0  0
 14104  1  0  0  0
 15105  1  0  0  0
 16 17  2  0  0  0
 16 21  1  0  0  0
 16 31  1  0  0  0
 17 18  1  0  0  0
 17106  1  0  0  0
 18 19  2  0  0  0
 18107  1  0  0  0
 19 20  1  0  0  0
 19 24  1  0  0  0
 20 21  2  0  0  0
 20108  1  0  0  0
 21 23  1  0  0  0
 22 28  1  0  0  0
 22 32  2  0  0  0
 26 27  1  0  0  0
 28109  1  0  0  0
 28110  1  0  0  0
 29111  1  0  0  0
 29112  1  0  0  0
 33 34  1  0  0  0
 33 66  1  0  0  0
 33 70  2  0  0  0
 34 36  1  0  0  0
 34 59  1  0  0  0
 34113  1  0  0  0
 35 44  2  0  0  0
 35 45  1  0  0  0
 35 68  1  0  0  0
 36 56  1  0  0  0
 36114  1  0  0  0
 37 39  1  0  0  0
 37 47  1  0  0  0
 37 66  1  0  0  0
 37115  1  0  0  0
 38 43  2  0  0  0
 38 46  1  0  0  0
 38 47  1  0  0  0
 39 64  1  0  0  0
 39 67  2  0  0  0
 40 52  1  0  0  0
 40 53  2  0  0  0
 40 58  1  0  0  0
 41116  1  0  0  0
 41117  1  0  0  0
 41118  1  0  0  0
 41 48  1  0  0  0
 42 43  1  0  0  0
 42 66  1  0  0  0
 42119  1  0  0  0
 42120  1  0  0  0
 43 44  1  0  0  0
 44121  1  0  0  0
 45 46  2  0  0  0
 45122  1  0  0  0
 46123  1  0  0  0
 47124  1  0  0  0
 47125  1  0  0  0
 48 56  1  0  0  0
 48 65  1  0  0  0
 48126  1  0  0  0
 49 50  1  0  0  0
 49 53  1  0  0  0
 49 64  1  0  0  0
 49127  1  0  0  0
 50 51  1  0  0  0
 50128  1  0  0  0
 50129  1  0  0  0
 51 52  1  0  0  0
 51130  1  0  0  0
 51131  1  0  0  0
 52132  1  0  0  0
 52133  1  0  0  0
 53 54  1  0  0  0
 54 55  2  0  0  0
 54134  1  0  0  0
 55 57  1  0  0  0
 55135  1  0  0  0
 56 69  2  0  0  0
 57 58  2  0  0  0
 57136  1  0  0  0
 58137  1  0  0  0
 59 60  1  0  0  0
 59 61  1  0  0  0
 59 62  1  0  0  0
 60138  1  0  0  0
 60139  1  0  0  0
 60140  1  0  0  0
 61141  1  0  0  0
 61142  1  0  0  0
 61143  1  0  0  0
 62144  1  0  0  0
 62145  1  0  0  0
 62146  1  0  0  0
 63 65  1  0  0  0
 63147  1  0  0  0
 63148  1  0  0  0
 63149  1  0  0  0
 64150  1  0  0  0
 65151  1  0  0  0
 68 85  1  0  0  0
 71 72  2  0  0  0
 71 75  1  0  0  0
 71152  1  0  0  0
 72 73  1  0  0  0
 72 86  1  0  0  0
 73 76  2  0  0  0
 73 80  1  0  0  0
 74 75  2  0  0  0
 74 76  1  0  0  0
 74 88  1  0  0  0
 75 91  1  0  0  0
 76 92  1  0  0  0
 77 81  1  0  0  0
 77153  1  0  0  0
 77154  1  0  0  0
 77155  1  0  0  0
 78156  1  0  0  0
 78157  1  0  0  0
 78158  1  0  0  0
 78 86  1  0  0  0
 79 86  1  0  0  0
 79159  1  0  0  0
 79160  1  0  0  0
 79161  1  0  0  0
 80 82  1  0  0  0
 80162  1  0  0  0
 80163  1  0  0  0
 81 82  1  0  0  0
 81164  1  0  0  0
 81165  1  0  0  0
 82166  1  0  0  0
 82167  1  0  0  0
 83 84  1  0  0  0
 83 85  1  0  0  0
 83168  1  0  0  0
 83169  1  0  0  0
 84 87  1  0  0  0
 84170  1  0  0  0
 84171  1  0  0  0
 85172  1  0  0  0
 85173  1  0  0  0
 86 87  1  0  0  0
 87 89  1  0  0  0
 87 90  1  0  0  0
 88174  1  0  0  0
M  ISO  4   1 100  68 101  85 101  88 100
M  END
> <chiral flag>
0

> <version>
0

> <s_m_source_file>
/data/baiqing/PycharmProjects/Reinvent-master-3.2/result/LINK_invent/BTK/process_docking_weight1_custom_sum_contain_oxygen_bond_distance_aromatic_linkinvent_7_9_3/rearranged_h_0024.sdf

> <i_m_source_file_index>
44

> <r_mmod_Potential_Energy-OPLS-2005>
21.284538269043

> <r_mmod_Stretch_Energy-OPLS-2005>
53.8070487976074

> <r_mmod_Bend_Energy-OPLS-2005>
131.260589599609

> <r_mmod_Torsional_Energy-OPLS-2005>
279.613037109375

> <r_mmod_Improper_Torsional_Energy-OPLS-2005>
3.20770597457886

> <r_mmod_Van_der_Waal_Energy-OPLS-2005>
190.468505859375

> <r_mmod_Electrostatic_Energy-OPLS-2005>
-458.81640625

> <r_mmod_Solvation_Energy-OPLS-2005>
-190.017623901367

> <b_mmod_Minimization_Converged-OPLS-2005>
0

> <r_mmod_RMS_Derivative-OPLS-2005>
4.23919677734375

$$$$
44
                    3D
 Structure written by MMmdl.
177186  0  0  1  0            999 V2000
  -28.2404  -17.3814   20.8194 C   0  0  0  0  0  0
  -29.6766  -14.7254   19.7013 C   0  0  0  0  0  0
  -29.4056  -13.4767   18.6510 C   0  0  0  0  0  0
  -28.2966  -12.5350   19.1006 C   0  0  0  0  0  0
  -27.4168  -13.4648   19.9183 C   0  0  2  0  0  0
  -28.0606  -14.3533   21.0467 C   0  0  0  0  0  0
  -25.1109  -13.8344   20.5787 C   0  0  0  0  0  0
  -24.0933  -13.0216   20.9385 C   0  0  0  0  0  0
  -24.6023  -11.6864   20.8829 C   0  0  0  0  0  0
  -23.8981  -10.4172   21.0425 C   0  0  0  0  0  0
  -24.3610   -9.4136   21.9192 C   0  0  0  0  0  0
  -23.6291   -8.2171   22.0754 C   0  0  0  0  0  0
  -22.4277   -8.0211   21.3538 C   0  0  0  0  0  0
  -21.9897   -9.0151   20.4625 C   0  0  0  0  0  0
  -22.7209  -10.2016   20.3029 C   0  0  0  0  0  0
  -21.6843   -6.0709   22.5292 C   0  0  0  0  0  0
  -21.4005   -6.5630   23.8216 C   0  0  0  0  0  0
  -21.3655   -5.6789   24.9181 C   0  0  0  0  0  0
  -21.6052   -4.3053   24.7230 C   0  0  0  0  0  0
  -21.8825   -3.8136   23.4356 C   0  0  0  0  0  0
  -21.9191   -4.6943   22.3407 C   0  0  0  0  0  0
  -22.7036  -13.4883   21.2015 C   0  0  0  0  0  0
  -22.1671   -4.2143   21.0981 F   0  0  0  0  0  0
  -21.5623   -3.4538   25.7739 F   0  0  0  0  0  0
  -28.4696  -15.7131   20.4373 N   0  0  0  0  0  0
  -26.1627  -12.9861   20.3476 N   0  0  0  0  0  0
  -25.8958  -11.6802   20.5736 N   0  0  0  0  0  0
  -21.9854  -12.7843   22.0655 N   0  0  0  0  0  0
  -25.2182  -15.2129   20.3960 N   0  0  0  0  0  0
  -29.5629  -17.2885   20.8154 O   0  0  0  0  0  0
  -21.6631   -6.8831   21.4246 O   0  0  0  0  0  0
  -22.2732  -14.5203   20.6896 O   0  0  0  0  0  0
  -24.6611  -31.8069   23.1885 C   0  0  0  0  0  0
  -25.9144  -32.4726   23.8388 C   0  0  1  0  0  0
  -27.3164  -27.3752   19.9545 C   0  0  0  0  0  0
  -25.5630  -33.8484   24.2048 N   0  0  0  0  0  0
  -23.7276  -30.0464   21.6672 C   0  0  2  0  0  0
  -25.0816  -29.0602   19.9451 C   0  0  0  0  0  0
  -23.8071  -28.5812   22.4402 C   0  0  0  0  0  0
  -18.1665  -27.7160   22.7677 C   0  0  0  0  0  0
  -24.1424  -36.7268   23.2663 C   0  0  0  0  0  0
  -26.1250  -30.7724   21.4375 C   0  0  0  0  0  0
  -26.2123  -29.4618   20.6519 C   0  0  0  0  0  0
  -27.3618  -28.6334   20.6270 C   0  0  0  0  0  0
  -26.0919  -26.9305   19.4294 C   0  0  0  0  0  0
  -25.0197  -27.8116   19.3211 C   0  0  0  0  0  0
  -23.9120  -29.9560   20.1092 C   0  0  0  0  0  0
  -25.4077  -36.3076   24.0315 C   0  0  1  0  0  0
  -20.8032  -26.6556   22.4667 C   0  0  2  0  0  0
  -20.2072  -25.5039   23.0243 C   0  0  0  0  0  0
  -18.8919  -25.2884   22.2005 C   0  0  0  0  0  0
  -17.8683  -26.4096   22.1177 C   0  0  0  0  0  0
  -19.5558  -27.9363   23.1117 C   0  0  0  0  0  0
  -19.5654  -29.2890   23.7678 C   0  0  0  0  0  0
  -18.4024  -30.1758   23.9907 C   0  0  0  0  0  0
  -25.9006  -34.9430   23.5064 C   0  0  0  0  0  0
  -17.1034  -29.8147   23.5879 C   0  0  0  0  0  0
  -17.0302  -28.5602   22.9827 C   0  0  0  0  0  0
  -26.4599  -31.6717   25.0845 C   0  0  0  0  0  0
  -25.3700  -31.3719   26.1414 C   0  0  0  0  0  0
  -27.0984  -30.3268   24.6603 C   0  0  0  0  0  0
  -27.5970  -32.4729   25.7566 C   0  0  0  0  0  0
  -27.5549  -37.1731   24.8470 C   0  0  0  0  0  0
  -23.2098  -27.2352   22.0942 N   0  0  0  0  0  0
  -26.4279  -37.3758   23.9397 N   0  0  0  0  0  0
  -24.8225  -30.9509   22.1370 N   0  0  0  0  0  0
  -24.2401  -28.7641   23.5610 O   0  0  0  0  0  0
  -28.4803  -26.6671   19.7025 O   0  0  0  0  0  0
  -26.5763  -34.9001   22.4735 O   0  0  0  0  0  0
  -23.5470  -32.0614   23.6787 O   0  0  0  0  0  0
  -25.8016  -20.3490   18.6961 C   0  0  0  0  0  0
  -25.2758  -19.9999   17.4079 C   0  0  0  0  0  0
  -25.2271  -20.9763   16.3553 C   0  0  0  0  0  0
  -25.8269  -21.7712   18.8646 C   0  0  0  0  0  0
  -25.5099  -22.3191   16.7037 C   0  0  0  0  0  0
  -23.3132  -25.0802   23.4615 C   0  0  0  0  0  0
  -22.2373  -27.1218   24.0119 C   0  0  0  0  0  0
  -22.0119  -26.5711   20.2524 C   0  0  0  0  0  0
  -24.1903  -23.5216   22.0027 C   0  0  2  0  0  0
  -23.0255  -24.7576   20.7374 C   0  0  2  0  0  0
  -21.5063  -28.3690   21.4100 C   0  0  1  0  0  0
  -26.4661  -22.6545   19.8730 C   0  0  0  0  0  0
  -26.2928  -19.1611   19.6504 C   0  0  0  0  0  0
  -26.5303  -23.3088   16.0677 C   0  0  0  0  0  0
  -25.6357  -21.0186   21.8425 C   0  0  0  0  0  0
  -27.9043  -25.1539   17.4810 C   0  0  0  0  0  0
  -28.4787  -25.3930   18.9686 C   0  0  0  0  0  0
  -25.3890  -22.6502   17.9718 N   0  0  0  0  0  0
  -26.9040  -19.0029   21.0229 N   0  0  0  0  0  0
  -27.5012  -23.7240   17.1642 N   0  3  0  0  0  0
  -23.6028  -24.5223   19.5592 F   0  0  0  0  0  0
  -24.7876  -18.3650   17.1062 Cl  0  0  0  0  0  0
  -24.7719  -20.5601   14.7413 Cl  0  0  0  0  0  0
  -20.0876  -29.2985   20.7553 Cl  0  0  0  0  0  0
  -30.2469  -15.4468   19.1102 H   0  0  0  0  0  0
  -30.4204  -14.4235   20.4449 H   0  0  0  0  0  0
  -30.3303  -12.9355   18.4550 H   0  0  0  0  0  0
  -29.1088  -13.9122   17.6923 H   0  0  0  0  0  0
  -28.7043  -11.7496   19.7318 H   0  0  0  0  0  0
  -27.7786  -12.0722   18.2614 H   0  0  0  0  0  0
  -27.1166  -14.1683   19.1338 H   0  0  0  0  0  0
  -27.3314  -14.6166   21.8127 H   0  0  0  0  0  0
  -28.8087  -13.8319   21.6461 H   0  0  0  0  0  0
  -25.2735   -9.5668   22.4793 H   0  0  0  0  0  0
  -24.0009   -7.4576   22.7491 H   0  0  0  0  0  0
  -21.0838   -8.8664   19.8921 H   0  0  0  0  0  0
  -22.3674  -10.9566   19.6149 H   0  0  0  0  0  0
  -21.2008   -7.6143   23.9714 H   0  0  0  0  0  0
  -21.1468   -6.0521   25.9082 H   0  0  0  0  0  0
  -22.0605   -2.7598   23.2850 H   0  0  0  0  0  0
  -22.3588  -11.9542   22.5028 H   0  0  0  0  0  0
  -21.0438  -13.0757   22.2911 H   0  0  0  0  0  0
  -24.3700  -15.7692   20.3817 H   0  0  0  0  0  0
  -25.9667  -15.6126   19.8494 H   0  0  0  0  0  0
  -26.7336  -32.5399   23.1289 H   0  0  0  0  0  0
  -24.9401  -33.9590   24.9913 H   0  0  0  0  0  0
  -22.7829  -30.5315   21.9175 H   0  0  0  0  0  0
  -23.3712  -35.9574   23.3338 H   0  0  0  0  0  0
  -24.3508  -36.8890   22.2088 H   0  0  0  0  0  0
  -23.7173  -37.6442   23.6704 H   0  0  0  0  0  0
  -26.2588  -31.6056   20.7467 H   0  0  0  0  0  0
  -26.9885  -30.7642   22.0971 H   0  0  0  0  0  0
  -28.2874  -28.9739   21.0703 H   0  0  0  0  0  0
  -25.9528  -25.9632   18.9787 H   0  0  0  0  0  0
  -24.2234  -27.5019   18.6783 H   0  0  0  0  0  0
  -24.1455  -30.9589   19.7420 H   0  0  0  0  0  0
  -23.1249  -29.6731   19.4156 H   0  0  0  0  0  0
  -25.1269  -36.1914   25.0806 H   0  0  0  0  0  0
  -20.2470  -26.6655   21.5006 H   0  0  0  0  0  0
  -19.8927  -25.6951   24.0521 H   0  0  0  0  0  0
  -20.7945  -24.5882   23.0929 H   0  0  0  0  0  0
  -18.3891  -24.5123   22.7963 H   0  0  0  0  0  0
  -19.0430  -24.8000   21.2366 H   0  0  0  0  0  0
  -17.5411  -26.5592   21.0958 H   0  0  0  0  0  0
  -16.9540  -26.0256   22.5766 H   0  0  0  0  0  0
  -20.5696  -29.5767   24.0841 H   0  0  0  0  0  0
  -18.4940  -31.1698   24.4200 H   0  0  0  0  0  0
  -16.2224  -30.4003   23.8313 H   0  0  0  0  0  0
  -16.0425  -28.2541   22.6967 H   0  0  0  0  0  0
  -24.6069  -30.6918   25.7617 H   0  0  0  0  0  0
  -24.8673  -32.2811   26.4693 H   0  0  0  0  0  0
  -25.7926  -30.9007   27.0280 H   0  0  0  0  0  0
  -26.4126  -29.6730   24.1352 H   0  0  0  0  0  0
  -27.4457  -29.7664   25.5282 H   0  0  0  0  0  0
  -27.9692  -30.4711   24.0214 H   0  0  0  0  0  0
  -27.2412  -33.4069   26.1885 H   0  0  0  0  0  0
  -28.3773  -32.7246   25.0381 H   0  0  0  0  0  0
  -28.0680  -31.9123   26.5630 H   0  0  0  0  0  0
  -28.2604  -37.9993   24.7511 H   0  0  0  0  0  0
  -28.0996  -36.2528   24.6290 H   0  0  0  0  0  0
  -27.2252  -37.1374   25.8871 H   0  0  0  0  0  0
  -23.4777  -26.8648   21.2201 H   0  0  0  0  0  0
  -26.0164  -38.2822   24.1396 H   0  0  0  0  0  0
  -22.9029  -24.3738   24.1832 H   0  0  0  0  0  0
  -24.2665  -25.4119   23.8945 H   0  0  0  0  0  0
  -22.7515  -27.7219   24.7859 H   0  0  0  0  0  0
  -21.4277  -26.9765   24.7088 H   0  0  0  0  0  0
  -21.1529  -26.3289   19.6421 H   0  0  0  0  0  0
  -22.5572  -27.0913   19.4734 H   0  0  0  0  0  0
  -25.1059  -24.0818   21.9226 H   0  0  0  0  0  0
  -22.1162  -24.1600   20.6949 H   0  0  0  0  0  0
  -22.0301  -28.9635   20.7913 H   0  0  0  0  0  0
  -26.4837  -23.7006   19.6145 H   0  0  0  0  0  0
  -27.3658  -22.3229   20.3787 H   0  0  0  0  0  0
  -25.6383  -22.7806   20.4878 H   0  0  0  0  0  0
  -25.3226  -19.2037   20.1418 H   0  0  0  0  0  0
  -27.0957  -19.8997   19.7131 H   0  0  0  0  0  0
  -26.0053  -24.1656   15.6422 H   0  0  0  0  0  0
  -27.0661  -22.8091   15.2585 H   0  0  0  0  0  0
  -24.7852  -20.4265   22.1698 H   0  0  0  0  0  0
  -26.2219  -21.1496   22.7476 H   0  0  0  0  0  0
  -28.6887  -25.4225   16.7755 H   0  0  0  0  0  0
  -27.0756  -25.8149   17.2480 H   0  0  0  0  0  0
  -29.5245  -25.0991   18.9301 H   0  0  0  0  0  0
  -28.1179  -24.6834   19.6900 H   0  0  0  0  0  0
  -28.2729  -23.0790   17.1998 H   0  0  0  0  0  0
  -26.8464  -23.4352   17.8969 H   0  0  0  0  0  0
  1 25  1  0  0  0
  1 30  2  0  0  0
  1 89  1  0  0  0
  2  3  1  0  0  0
  2 25  1  0  0  0
  2 95  1  0  0  0
  2 96  1  0  0  0
  3  4  1  0  0  0
  3 97  1  0  0  0
  3 98  1  0  0  0
  4  5  1  0  0  0
  4 99  1  0  0  0
  4100  1  0  0  0
  5  6  1  0  0  0
  5 26  1  0  0  0
  5101  1  0  0  0
  6 25  1  0  0  0
  6102  1  0  0  0
  6103  1  0  0  0
  7  8  2  0  0  0
  7 26  1  0  0  0
  7 29  1  0  0  0
  8  9  1  0  0  0
  8 22  1  0  0  0
  9 10  1  0  0  0
  9 27  2  0  0  0
 10 11  2  0  0  0
 10 15  1  0  0  0
 11 12  1  0  0  0
 11104  1  0  0  0
 12 13  2  0  0  0
 12105  1  0  0  0
 13 14  1  0  0  0
 13 31  1  0  0  0
 14 15  2  0  0  0
 14106  1  0  0  0
 15107  1  0  0  0
 16 17  2  0  0  0
 16 21  1  0  0  0
 16 31  1  0  0  0
 17 18  1  0  0  0
 17108  1  0  0  0
 18 19  2  0  0  0
 18109  1  0  0  0
 19 20  1  0  0  0
 19 24  1  0  0  0
 20 21  2  0  0  0
 20110  1  0  0  0
 21 23  1  0  0  0
 22 28  1  0  0  0
 22 32  2  0  0  0
 26 27  1  0  0  0
 28111  1  0  0  0
 28112  1  0  0  0
 29113  1  0  0  0
 29114  1  0  0  0
 33 34  1  0  0  0
 33 66  1  0  0  0
 33 70  2  0  0  0
 34 36  1  0  0  0
 34 59  1  0  0  0
 34115  1  0  0  0
 35 44  2  0  0  0
 35 45  1  0  0  0
 35 68  1  0  0  0
 36 56  1  0  0  0
 36116  1  0  0  0
 37 39  1  0  0  0
 37 47  1  0  0  0
 37 66  1  0  0  0
 37117  1  0  0  0
 38 43  2  0  0  0
 38 46  1  0  0  0
 38 47  1  0  0  0
 39 64  1  0  0  0
 39 67  2  0  0  0
 40 52  1  0  0  0
 40 53  2  0  0  0
 40 58  1  0  0  0
 41118  1  0  0  0
 41119  1  0  0  0
 41120  1  0  0  0
 41 48  1  0  0  0
 42 43  1  0  0  0
 42 66  1  0  0  0
 42121  1  0  0  0
 42122  1  0  0  0
 43 44  1  0  0  0
 44123  1  0  0  0
 45 46  2  0  0  0
 45124  1  0  0  0
 46125  1  0  0  0
 47126  1  0  0  0
 47127  1  0  0  0
 48 56  1  0  0  0
 48 65  1  0  0  0
 48128  1  0  0  0
 49 50  1  0  0  0
 49 53  1  0  0  0
 49 64  1  0  0  0
 49129  1  0  0  0
 50 51  1  0  0  0
 50130  1  0  0  0
 50131  1  0  0  0
 51 52  1  0  0  0
 51132  1  0  0  0
 51133  1  0  0  0
 52134  1  0  0  0
 52135  1  0  0  0
 53 54  1  0  0  0
 54 55  2  0  0  0
 54136  1  0  0  0
 55 57  1  0  0  0
 55137  1  0  0  0
 56 69  2  0  0  0
 57 58  2  0  0  0
 57138  1  0  0  0
 58139  1  0  0  0
 59 60  1  0  0  0
 59 61  1  0  0  0
 59 62  1  0  0  0
 60140  1  0  0  0
 60141  1  0  0  0
 60142  1  0  0  0
 61143  1  0  0  0
 61144  1  0  0  0
 61145  1  0  0  0
 62146  1  0  0  0
 62147  1  0  0  0
 62148  1  0  0  0
 63 65  1  0  0  0
 63149  1  0  0  0
 63150  1  0  0  0
 63151  1  0  0  0
 64152  1  0  0  0
 65153  1  0  0  0
 68 87  1  0  0  0
 71 72  2  0  0  0
 71 74  1  0  0  0
 71 83  1  0  0  0
 72 73  1  0  0  0
 72 92  1  0  0  0
 73 75  2  0  0  0
 73 93  1  0  0  0
 74 82  1  0  0  0
 74 88  2  0  0  0
 75 84  1  0  0  0
 75 88  1  0  0  0
 76 77  1  0  0  0
 76 79  1  0  0  0
 76154  1  0  0  0
 76155  1  0  0  0
 77 81  1  0  0  0
 77156  1  0  0  0
 77157  1  0  0  0
 78 80  1  0  0  0
 78 81  1  0  0  0
 78158  1  0  0  0
 78159  1  0  0  0
 79 80  1  0  0  0
 79 85  1  0  0  0
 79160  1  0  0  0
 80 91  1  0  0  0
 80161  1  0  0  0
 81 94  1  0  0  0
 81162  1  0  0  0
 82163  1  0  0  0
 82164  1  0  0  0
 82165  1  0  0  0
 83 89  1  0  0  0
 83166  1  0  0  0
 83167  1  0  0  0
 84 90  1  0  0  0
 84168  1  0  0  0
 84169  1  0  0  0
 85 89  1  0  0  0
 85170  1  0  0  0
 85171  1  0  0  0
 86 87  1  0  0  0
 86 90  1  0  0  0
 86172  1  0  0  0
 86173  1  0  0  0
 87174  1  0  0  0
 87175  1  0  0  0
 90176  1  0  0  0
 90177  1  0  0  0
M  CHG  1  90   1
M  ISO  4   1 100  68 101  87 101  89 100
M  END
> <chiral flag>
0

> <version>
0

> <s_m_source_file>
/data/baiqing/PycharmProjects/Reinvent-master-3.2/result/LINK_invent/BTK/process_docking_weight1_custom_sum_contain_oxygen_bond_distance_aromatic_linkinvent_7_9_3/rearranged_h_0024.sdf

> <i_m_source_file_index>
45

> <r_mmod_Potential_Energy-OPLS-2005>
24580.69140625

> <r_mmod_Stretch_Energy-OPLS-2005>
12558.4677734375

> <r_mmod_Bend_Energy-OPLS-2005>
2571.30859375

> <r_mmod_Torsional_Energy-OPLS-2005>
653.012878417969

> <r_mmod_Improper_Torsional_Energy-OPLS-2005>
28.8499965667725

> <r_mmod_Van_der_Waal_Energy-OPLS-2005>
2467.380859375

> <r_mmod_Electrostatic_Energy-OPLS-2005>
-371.112243652344

> <r_mmod_Solvation_Energy-OPLS-2005>
-482.555297851562

> <b_mmod_Minimization_Converged-OPLS-2005>
0

> <r_mmod_RMS_Derivative-OPLS-2005>
46.6933631896973

$$$$
45
                    3D
 Structure written by MMmdl.
167175  0  0  1  0            999 V2000
  -30.7078  -14.4531   20.6185 C   0  0  0  0  0  0
  -30.4179  -12.3200   19.4099 C   0  0  0  0  0  0
  -29.4908  -12.5292   18.1960 C   0  0  0  0  0  0
  -28.0112  -12.3827   18.6045 C   0  0  0  0  0  0
  -27.6575  -13.2074   19.8715 C   0  0  2  0  0  0
  -28.6977  -12.9748   20.9899 C   0  0  0  0  0  0
  -25.2567  -13.8157   20.5674 C   0  0  0  0  0  0
  -24.1823  -13.0433   20.9159 C   0  0  0  0  0  0
  -24.6377  -11.6904   20.8718 C   0  0  0  0  0  0
  -23.9037  -10.4290   21.0385 C   0  0  0  0  0  0
  -24.3592   -9.4212   21.9165 C   0  0  0  0  0  0
  -23.6288   -8.2234   22.0741 C   0  0  0  0  0  0
  -22.4268   -8.0263   21.3533 C   0  0  0  0  0  0
  -21.9887   -9.0228   20.4630 C   0  0  0  0  0  0
  -22.7205  -10.2115   20.3042 C   0  0  0  0  0  0
  -21.6855   -6.0722   22.5279 C   0  0  0  0  0  0
  -21.4016   -6.5632   23.8213 C   0  0  0  0  0  0
  -21.3664   -5.6790   24.9177 C   0  0  0  0  0  0
  -21.6043   -4.3055   24.7232 C   0  0  0  0  0  0
  -21.8825   -3.8137   23.4362 C   0  0  0  0  0  0
  -21.9191   -4.6945   22.3409 C   0  0  0  0  0  0
  -22.7853  -13.5233   21.1840 C   0  0  0  0  0  0
  -22.1658   -4.2129   21.0987 F   0  0  0  0  0  0
  -21.5629   -3.4544   25.7754 F   0  0  0  0  0  0
  -30.0264  -13.2893   20.4431 N   0  0  0  0  0  0
  -26.2992  -12.9327   20.3323 N   0  0  0  0  0  0
  -25.9297  -11.6484   20.5709 N   0  0  0  0  0  0
  -22.0476  -12.8242   22.0389 N   0  0  0  0  0  0
  -25.4329  -15.1875   20.4142 N   0  0  0  0  0  0
  -31.8151  -14.6577   20.1129 O   0  0  0  0  0  0
  -21.6644   -6.8859   21.4237 O   0  0  0  0  0  0
  -22.3548  -14.5541   20.6685 O   0  0  0  0  0  0
  -24.6148  -31.8683   23.2097 C   0  0  0  0  0  0
  -25.9053  -32.4811   23.8387 C   0  0  1  0  0  0
  -27.2219  -27.4213   20.0961 C   0  0  0  0  0  0
  -25.5945  -33.8615   24.2327 N   0  0  0  0  0  0
  -23.4004  -30.4926   21.5509 C   0  0  2  0  0  0
  -24.8419  -28.9602   20.1061 C   0  0  0  0  0  0
  -22.7416  -29.4657   22.4989 C   0  0  0  0  0  0
  -18.0281  -28.1362   22.8505 C   0  0  0  0  0  0
  -24.1484  -36.7310   23.2624 C   0  0  0  0  0  0
  -25.9272  -30.8285   21.3625 C   0  0  0  0  0  0
  -25.9987  -29.4612   20.7114 C   0  0  0  0  0  0
  -27.1886  -28.6971   20.7067 C   0  0  0  0  0  0
  -26.0481  -26.9417   19.4701 C   0  0  0  0  0  0
  -24.8629  -27.7020   19.4776 C   0  0  0  0  0  0
  -23.6028  -29.8263   20.1615 C   0  0  0  0  0  0
  -25.4106  -36.3093   24.0318 C   0  0  1  0  0  0
  -20.5872  -28.3658   23.1326 C   0  0  2  0  0  0
  -20.6786  -26.9391   22.5412 C   0  0  0  0  0  0
  -19.5753  -26.6380   21.5221 C   0  0  0  0  0  0
  -18.1928  -26.7917   22.1623 C   0  0  0  0  0  0
  -19.1526  -28.8830   23.2909 C   0  0  0  0  0  0
  -18.9445  -30.1448   23.8899 C   0  0  0  0  0  0
  -17.6441  -30.6563   24.0565 C   0  0  0  0  0  0
  -25.9043  -34.9466   23.5104 C   0  0  0  0  0  0
  -16.5339  -29.9058   23.6322 C   0  0  0  0  0  0
  -16.7270  -28.6477   23.0346 C   0  0  0  0  0  0
  -26.4485  -31.6596   25.0719 C   0  0  0  0  0  0
  -25.3768  -31.3744   26.1491 C   0  0  0  0  0  0
  -27.0317  -30.3042   24.6088 C   0  0  0  0  0  0
  -27.6039  -32.4325   25.7509 C   0  0  0  0  0  0
  -27.5576  -37.1803   24.8450 C   0  0  0  0  0  0
  -21.4139  -29.3036   22.3737 N   0  0  0  0  0  0
  -26.4285  -37.3780   23.9401 N   0  0  0  0  0  0
  -24.6658  -31.0774   22.0999 N   0  0  0  0  0  0
  -23.4195  -28.8199   23.3030 O   0  0  0  0  0  0
  -28.4033  -26.7055   20.1290 O   0  0  0  0  0  0
  -26.5562  -34.8919   22.4635 O   0  0  0  0  0  0
  -23.5338  -32.1452   23.7484 O   0  0  0  0  0  0
  -30.0552  -18.6288   20.2311 C   0  0  0  0  0  0
  -29.4265  -19.8551   19.9194 C   0  0  0  0  0  0
  -29.7962  -17.9312   21.4162 C   0  0  0  0  0  0
  -28.8679  -18.4824   22.3255 C   0  0  0  0  0  0
  -28.4465  -20.4377   20.8026 C   0  0  0  0  0  0
  -28.2606  -19.7445   22.0541 C   0  0  0  0  0  0
  -28.3467  -23.0133   21.0756 C   0  0  0  0  0  0
  -29.9600  -20.5034   18.6483 C   0  0  0  0  0  0
  -28.5617  -17.7433   23.6269 C   0  0  0  0  0  0
  -26.1553  -21.7079   20.9535 C   0  0  0  0  0  0
  -27.4617  -22.0310   18.9359 C   0  0  0  0  0  0
  -30.6435  -16.6911   21.7338 C   0  0  0  0  0  0
  -27.7220  -24.4178   20.9132 C   0  0  0  0  0  0
  -28.4146  -25.2964   19.8364 C   0  0  0  0  0  0
  -27.6359  -21.7684   20.4578 C   0  0  0  0  0  0
  -30.0693  -15.4036   21.3247 N   0  0  0  0  0  0
  -29.4067  -22.9014   21.6988 O   0  0  0  0  0  0
  -27.3886  -20.4507   23.3784 Cl  0  0  0  0  0  0
  -31.4636  -12.4246   19.1136 H   0  0  0  0  0  0
  -30.3185  -11.3053   19.7983 H   0  0  0  0  0  0
  -29.7379  -11.8177   17.4072 H   0  0  0  0  0  0
  -29.6577  -13.5228   17.7737 H   0  0  0  0  0  0
  -27.8217  -11.3243   18.7851 H   0  0  0  0  0  0
  -27.3627  -12.6719   17.7761 H   0  0  0  0  0  0
  -27.7016  -14.2576   19.5826 H   0  0  0  0  0  0
  -28.6805  -11.9334   21.3140 H   0  0  0  0  0  0
  -28.4523  -13.5569   21.8780 H   0  0  0  0  0  0
  -25.2729   -9.5719   22.4740 H   0  0  0  0  0  0
  -24.0005   -7.4644   22.7482 H   0  0  0  0  0  0
  -21.0805   -8.8731   19.8955 H   0  0  0  0  0  0
  -22.3631  -10.9642   19.6155 H   0  0  0  0  0  0
  -21.2012   -7.6145   23.9711 H   0  0  0  0  0  0
  -21.1476   -6.0526   25.9081 H   0  0  0  0  0  0
  -22.0600   -2.7598   23.2874 H   0  0  0  0  0  0
  -22.4082  -11.9914   22.4808 H   0  0  0  0  0  0
  -21.1077  -13.1262   22.2544 H   0  0  0  0  0  0
  -24.6770  -15.8517   20.5422 H   0  0  0  0  0  0
  -26.2997  -15.6244   20.1270 H   0  0  0  0  0  0
  -26.7120  -32.5508   23.1141 H   0  0  0  0  0  0
  -25.0255  -33.9809   25.0580 H   0  0  0  0  0  0
  -22.6875  -31.3090   21.4168 H   0  0  0  0  0  0
  -23.3731  -35.9652   23.3282 H   0  0  0  0  0  0
  -24.3593  -36.8947   22.2044 H   0  0  0  0  0  0
  -23.7257  -37.6518   23.6658 H   0  0  0  0  0  0
  -26.0335  -31.5901   20.5881 H   0  0  0  0  0  0
  -26.8172  -30.8848   21.9776 H   0  0  0  0  0  0
  -28.0797  -29.0795   21.1831 H   0  0  0  0  0  0
  -26.0262  -25.9908   18.9595 H   0  0  0  0  0  0
  -23.9780  -27.3209   18.9870 H   0  0  0  0  0  0
  -23.6999  -30.6014   19.4001 H   0  0  0  0  0  0
  -22.7268  -29.2427   19.8743 H   0  0  0  0  0  0
  -25.1262  -36.1952   25.0807 H   0  0  0  0  0  0
  -20.9952  -28.3213   24.1454 H   0  0  0  0  0  0
  -20.5722  -26.2250   23.3590 H   0  0  0  0  0  0
  -21.6653  -26.7454   22.1181 H   0  0  0  0  0  0
  -19.6896  -25.6292   21.1249 H   0  0  0  0  0  0
  -19.6690  -27.3198   20.6755 H   0  0  0  0  0  0
  -17.4207  -26.6693   21.4012 H   0  0  0  0  0  0
  -18.0291  -26.0049   22.9002 H   0  0  0  0  0  0
  -19.7926  -30.7277   24.2239 H   0  0  0  0  0  0
  -17.4989  -31.6237   24.5172 H   0  0  0  0  0  0
  -15.5332  -30.2936   23.7653 H   0  0  0  0  0  0
  -15.8688  -28.0791   22.7033 H   0  0  0  0  0  0
  -24.5887  -30.7137   25.7866 H   0  0  0  0  0  0
  -24.9028  -32.2934   26.4947 H   0  0  0  0  0  0
  -25.8132  -30.8917   27.0244 H   0  0  0  0  0  0
  -26.2866  -29.6824   24.1113 H   0  0  0  0  0  0
  -27.4078  -29.7255   25.4533 H   0  0  0  0  0  0
  -27.8700  -30.4365   23.9242 H   0  0  0  0  0  0
  -27.2613  -33.3597   26.2111 H   0  0  0  0  0  0
  -28.3857  -32.6941   25.0368 H   0  0  0  0  0  0
  -28.0692  -31.8451   26.5433 H   0  0  0  0  0  0
  -28.2544  -38.0141   24.7504 H   0  0  0  0  0  0
  -28.1118  -36.2668   24.6236 H   0  0  0  0  0  0
  -27.2312  -37.1401   25.8858 H   0  0  0  0  0  0
  -20.9257  -29.8776   21.6998 H   0  0  0  0  0  0
  -26.0163  -38.2848   24.1418 H   0  0  0  0  0  0
  -30.8023  -18.2233   19.5617 H   0  0  0  0  0  0
  -30.8679  -20.0087   18.2984 H   0  0  0  0  0  0
  -30.2483  -21.5401   18.8249 H   0  0  0  0  0  0
  -29.2525  -20.4332   17.8216 H   0  0  0  0  0  0
  -28.6505  -16.6637   23.5106 H   0  0  0  0  0  0
  -27.5378  -17.9097   23.9604 H   0  0  0  0  0  0
  -29.2400  -18.0615   24.4197 H   0  0  0  0  0  0
  -26.0267  -22.0333   21.9830 H   0  0  0  0  0  0
  -25.7423  -20.7038   20.8558 H   0  0  0  0  0  0
  -25.4825  -22.3641   20.4009 H   0  0  0  0  0  0
  -28.3522  -22.4239   18.4544 H   0  0  0  0  0  0
  -26.7146  -22.7961   18.7240 H   0  0  0  0  0  0
  -27.1338  -21.1306   18.4147 H   0  0  0  0  0  0
  -30.8579  -16.6504   22.8022 H   0  0  0  0  0  0
  -31.6238  -16.8399   21.2769 H   0  0  0  0  0  0
  -27.8142  -24.9093   21.8816 H   0  0  0  0  0  0
  -26.6535  -24.3468   20.7201 H   0  0  0  0  0  0
  -28.0127  -25.0943   18.8431 H   0  0  0  0  0  0
  -29.4679  -25.0208   19.7741 H   0  0  0  0  0  0
  -29.1465  -15.1810   21.6641 H   0  0  0  0  0  0
  1 25  1  0  0  0
  1 30  2  0  0  0
  1 86  1  0  0  0
  2  3  1  0  0  0
  2 25  1  0  0  0
  2 89  1  0  0  0
  2 90  1  0  0  0
  3  4  1  0  0  0
  3 91  1  0  0  0
  3 92  1  0  0  0
  4  5  1  0  0  0
  4 93  1  0  0  0
  4 94  1  0  0  0
  5  6  1  0  0  0
  5 26  1  0  0  0
  5 95  1  0  0  0
  6 25  1  0  0  0
  6 96  1  0  0  0
  6 97  1  0  0  0
  7  8  2  0  0  0
  7 26  1  0  0  0
  7 29  1  0  0  0
  8  9  1  0  0  0
  8 22  1  0  0  0
  9 10  1  0  0  0
  9 27  2  0  0  0
 10 11  2  0  0  0
 10 15  1  0  0  0
 11 12  1  0  0  0
 11 98  1  0  0  0
 12 13  2  0  0  0
 12 99  1  0  0  0
 13 14  1  0  0  0
 13 31  1  0  0  0
 14 15  2  0  0  0
 14100  1  0  0  0
 15101  1  0  0  0
 16 17  2  0  0  0
 16 21  1  0  0  0
 16 31  1  0  0  0
 17 18  1  0  0  0
 17102  1  0  0  0
 18 19  2  0  0  0
 18103  1  0  0  0
 19 20  1  0  0  0
 19 24  1  0  0  0
 20 21  2  0  0  0
 20104  1  0  0  0
 21 23  1  0  0  0
 22 28  1  0  0  0
 22 32  2  0  0  0
 26 27  1  0  0  0
 28105  1  0  0  0
 28106  1  0  0  0
 29107  1  0  0  0
 29108  1  0  0  0
 33 34  1  0  0  0
 33 66  1  0  0  0
 33 70  2  0  0  0
 34 36  1  0  0  0
 34 59  1  0  0  0
 34109  1  0  0  0
 35 44  2  0  0  0
 35 45  1  0  0  0
 35 68  1  0  0  0
 36 56  1  0  0  0
 36110  1  0  0  0
 37 39  1  0  0  0
 37 47  1  0  0  0
 37 66  1  0  0  0
 37111  1  0  0  0
 38 43  2  0  0  0
 38 46  1  0  0  0
 38 47  1  0  0  0
 39 64  1  0  0  0
 39 67  2  0  0  0
 40 52  1  0  0  0
 40 53  2  0  0  0
 40 58  1  0  0  0
 41112  1  0  0  0
 41113  1  0  0  0
 41114  1  0  0  0
 41 48  1  0  0  0
 42 43  1  0  0  0
 42 66  1  0  0  0
 42115  1  0  0  0
 42116  1  0  0  0
 43 44  1  0  0  0
 44117  1  0  0  0
 45 46  2  0  0  0
 45118  1  0  0  0
 46119  1  0  0  0
 47120  1  0  0  0
 47121  1  0  0  0
 48 56  1  0  0  0
 48 65  1  0  0  0
 48122  1  0  0  0
 49 50  1  0  0  0
 49 53  1  0  0  0
 49 64  1  0  0  0
 49123  1  0  0  0
 50 51  1  0  0  0
 50124  1  0  0  0
 50125  1  0  0  0
 51 52  1  0  0  0
 51126  1  0  0  0
 51127  1  0  0  0
 52128  1  0  0  0
 52129  1  0  0  0
 53 54  1  0  0  0
 54 55  2  0  0  0
 54130  1  0  0  0
 55 57  1  0  0  0
 55131  1  0  0  0
 56 69  2  0  0  0
 57 58  2  0  0  0
 57132  1  0  0  0
 58133  1  0  0  0
 59 60  1  0  0  0
 59 61  1  0  0  0
 59 62  1  0  0  0
 60134  1  0  0  0
 60135  1  0  0  0
 60136  1  0  0  0
 61137  1  0  0  0
 61138  1  0  0  0
 61139  1  0  0  0
 62140  1  0  0  0
 62141  1  0  0  0
 62142  1  0  0  0
 63 65  1  0  0  0
 63143  1  0  0  0
 63144  1  0  0  0
 63145  1  0  0  0
 64146  1  0  0  0
 65147  1  0  0  0
 68 84  1  0  0  0
 71 72  2  0  0  0
 71 73  1  0  0  0
 71148  1  0  0  0
 72 75  1  0  0  0
 72 78  1  0  0  0
 73 74  2  0  0  0
 73 82  1  0  0  0
 74 76  1  0  0  0
 74 79  1  0  0  0
 75 76  2  0  0  0
 75 85  1  0  0  0
 76 88  1  0  0  0
 77 83  1  0  0  0
 77 85  1  0  0  0
 77 87  2  0  0  0
 78149  1  0  0  0
 78150  1  0  0  0
 78151  1  0  0  0
 79152  1  0  0  0
 79153  1  0  0  0
 79154  1  0  0  0
 80155  1  0  0  0
 80156  1  0  0  0
 80157  1  0  0  0
 80 85  1  0  0  0
 81 85  1  0  0  0
 81158  1  0  0  0
 81159  1  0  0  0
 81160  1  0  0  0
 82 86  1  0  0  0
 82161  1  0  0  0
 82162  1  0  0  0
 83 84  1  0  0  0
 83163  1  0  0  0
 83164  1  0  0  0
 84165  1  0  0  0
 84166  1  0  0  0
 86167  1  0  0  0
M  ISO  4   1 100  68 101  84 101  86 100
M  END
> <chiral flag>
0

> <version>
0

> <s_m_source_file>
/data/baiqing/PycharmProjects/Reinvent-master-3.2/result/LINK_invent/BTK/process_docking_weight1_custom_sum_contain_oxygen_bond_distance_aromatic_linkinvent_7_9_3/rearranged_h_0024.sdf

> <i_m_source_file_index>
46

> <r_mmod_Potential_Energy-OPLS-2005>
-20.755952835083

> <r_mmod_Stretch_Energy-OPLS-2005>
57.358715057373

> <r_mmod_Bend_Energy-OPLS-2005>
126.622352600098

> <r_mmod_Torsional_Energy-OPLS-2005>
226.025466918945

> <r_mmod_Improper_Torsional_Energy-OPLS-2005>
2.93733954429626

> <r_mmod_Van_der_Waal_Energy-OPLS-2005>
187.399520874023

> <r_mmod_Electrostatic_Energy-OPLS-2005>
-419.44482421875

> <r_mmod_Solvation_Energy-OPLS-2005>
-214.374435424805

> <b_mmod_Minimization_Converged-OPLS-2005>
0

> <r_mmod_RMS_Derivative-OPLS-2005>
2.6097719669342

$$$$
46
                    3D
 Structure written by MMmdl.
162170  0  0  1  0            999 V2000
  -30.7419  -14.4418   20.5738 C   0  0  0  0  0  0
  -30.4100  -12.2940   19.4175 C   0  0  0  0  0  0
  -29.4901  -12.5028   18.1993 C   0  0  0  0  0  0
  -28.0128  -12.3664   18.6148 C   0  0  0  0  0  0
  -27.6589  -13.2117   19.8676 C   0  0  2  0  0  0
  -28.7011  -13.0171   20.9921 C   0  0  0  0  0  0
  -25.2582  -13.8161   20.5665 C   0  0  0  0  0  0
  -24.1842  -13.0432   20.9157 C   0  0  0  0  0  0
  -24.6409  -11.6904   20.8720 C   0  0  0  0  0  0
  -23.9072  -10.4292   21.0395 C   0  0  0  0  0  0
  -24.3617   -9.4214   21.9185 C   0  0  0  0  0  0
  -23.6285   -8.2256   22.0760 C   0  0  0  0  0  0
  -22.4275   -8.0291   21.3546 C   0  0  0  0  0  0
  -21.9912   -9.0265   20.4655 C   0  0  0  0  0  0
  -22.7236  -10.2139   20.3058 C   0  0  0  0  0  0
  -21.6864   -6.0737   22.5277 C   0  0  0  0  0  0
  -21.4028   -6.5638   23.8209 C   0  0  0  0  0  0
  -21.3652   -5.6789   24.9166 C   0  0  0  0  0  0
  -21.6040   -4.3051   24.7220 C   0  0  0  0  0  0
  -21.8816   -3.8146   23.4342 C   0  0  0  0  0  0
  -21.9196   -4.6965   22.3398 C   0  0  0  0  0  0
  -22.7868  -13.5233   21.1823 C   0  0  0  0  0  0
  -22.1664   -4.2145   21.0974 F   0  0  0  0  0  0
  -21.5617   -3.4534   25.7731 F   0  0  0  0  0  0
  -30.0319  -13.2936   20.4287 N   0  0  0  0  0  0
  -26.3022  -12.9345   20.3332 N   0  0  0  0  0  0
  -25.9337  -11.6497   20.5750 N   0  0  0  0  0  0
  -22.0505  -12.8241   22.0384 N   0  0  0  0  0  0
  -25.4265  -15.1885   20.4099 N   0  0  0  0  0  0
  -31.8922  -14.5624   20.1557 O   0  0  0  0  0  0
  -21.6639   -6.8888   21.4247 O   0  0  0  0  0  0
  -22.3555  -14.5541   20.6677 O   0  0  0  0  0  0
  -24.6113  -31.8710   23.2137 C   0  0  0  0  0  0
  -25.9028  -32.4833   23.8409 C   0  0  1  0  0  0
  -27.2208  -27.4639   20.0922 C   0  0  0  0  0  0
  -25.5893  -33.8631   24.2351 N   0  0  0  0  0  0
  -23.3959  -30.4968   21.5546 C   0  0  2  0  0  0
  -24.8386  -28.9660   20.1167 C   0  0  0  0  0  0
  -22.7375  -29.4684   22.5011 C   0  0  0  0  0  0
  -18.0265  -28.1374   22.8494 C   0  0  0  0  0  0
  -24.1485  -36.7319   23.2638 C   0  0  0  0  0  0
  -25.9212  -30.8472   21.3606 C   0  0  0  0  0  0
  -25.9977  -29.4839   20.7092 C   0  0  0  0  0  0
  -27.1955  -28.7388   20.6952 C   0  0  0  0  0  0
  -26.0515  -26.9516   19.4963 C   0  0  0  0  0  0
  -24.8579  -27.6976   19.5096 C   0  0  0  0  0  0
  -23.5997  -29.8306   20.1682 C   0  0  0  0  0  0
  -25.4104  -36.3112   24.0338 C   0  0  1  0  0  0
  -20.5848  -28.3660   23.1324 C   0  0  2  0  0  0
  -20.6751  -26.9401   22.5418 C   0  0  0  0  0  0
  -19.5736  -26.6387   21.5209 C   0  0  0  0  0  0
  -18.1917  -26.7922   22.1622 C   0  0  0  0  0  0
  -19.1512  -28.8831   23.2912 C   0  0  0  0  0  0
  -18.9445  -30.1437   23.8927 C   0  0  0  0  0  0
  -17.6451  -30.6586   24.0564 C   0  0  0  0  0  0
  -25.9025  -34.9477   23.5138 C   0  0  0  0  0  0
  -16.5340  -29.9096   23.6325 C   0  0  0  0  0  0
  -16.7257  -28.6506   23.0358 C   0  0  0  0  0  0
  -26.4478  -31.6591   25.0715 C   0  0  0  0  0  0
  -25.3756  -31.3697   26.1474 C   0  0  0  0  0  0
  -27.0306  -30.3034   24.6066 C   0  0  0  0  0  0
  -27.6054  -32.4311   25.7477 C   0  0  0  0  0  0
  -27.5584  -37.1812   24.8470 C   0  0  0  0  0  0
  -21.4109  -29.3036   22.3737 N   0  0  0  0  0  0
  -26.4297  -37.3793   23.9407 N   0  0  0  0  0  0
  -24.6614  -31.0843   22.1018 N   0  0  0  0  0  0
  -23.4167  -28.8228   23.3042 O   0  0  0  0  0  0
  -28.3735  -26.7247   20.0804 O   0  0  0  0  0  0
  -26.5590  -34.8920   22.4702 O   0  0  0  0  0  0
  -23.5314  -32.1454   23.7556 O   0  0  0  0  0  0
  -31.1608  -18.7976   18.1015 C   0  0  0  0  0  0
  -30.4651  -17.8923   20.2698 C   0  0  0  0  0  0
  -29.4901  -20.0050   19.4145 C   0  0  0  0  0  0
  -31.2810  -17.8379   19.1147 C   0  0  0  0  0  0
  -30.2704  -19.8682   18.2393 C   0  0  0  0  0  0
  -29.5668  -18.9919   20.4160 C   0  0  0  0  0  0
  -28.1626  -23.9530   18.1064 C   0  0  0  0  0  0
  -30.6495  -16.8220   21.3653 C   0  0  0  0  0  0
  -28.6226  -21.2642   19.5682 C   0  0  0  0  0  0
  -28.0400  -24.3292   20.6465 C   0  0  0  0  0  0
  -28.4415  -25.7448   21.1174 C   0  0  0  0  0  0
  -28.8919  -23.8175   19.4584 C   0  0  1  0  0  0
  -30.0789  -15.4894   21.0924 N   0  0  0  0  0  0
  -29.4859  -22.4691   19.6778 N   0  3  0  0  0  0
  -32.2237  -16.8829   18.9688 F   0  0  0  0  0  0
  -30.2034  -21.0378   16.9660 Cl  0  0  0  0  0  0
  -28.5832  -19.1200   21.8379 Cl  0  0  0  0  0  0
  -31.4571  -12.3692   19.1173 H   0  0  0  0  0  0
  -30.2874  -11.2879   19.8192 H   0  0  0  0  0  0
  -29.7265  -11.7801   17.4164 H   0  0  0  0  0  0
  -29.6632  -13.4897   17.7656 H   0  0  0  0  0  0
  -27.8233  -11.3115   18.8131 H   0  0  0  0  0  0
  -27.3616  -12.6394   17.7844 H   0  0  0  0  0  0
  -27.6965  -14.2575   19.5606 H   0  0  0  0  0  0
  -28.6698  -11.9939   21.3712 H   0  0  0  0  0  0
  -28.4701  -13.6533   21.8477 H   0  0  0  0  0  0
  -25.2764   -9.5675   22.4763 H   0  0  0  0  0  0
  -23.9980   -7.4649   22.7490 H   0  0  0  0  0  0
  -21.0837   -8.8788   19.8975 H   0  0  0  0  0  0
  -22.3694  -10.9678   19.6171 H   0  0  0  0  0  0
  -21.2044   -7.6150   23.9704 H   0  0  0  0  0  0
  -21.1468   -6.0524   25.9060 H   0  0  0  0  0  0
  -22.0608   -2.7610   23.2838 H   0  0  0  0  0  0
  -22.4106  -11.9896   22.4766 H   0  0  0  0  0  0
  -21.1140  -13.1305   22.2599 H   0  0  0  0  0  0
  -24.6535  -15.8364   20.5168 H   0  0  0  0  0  0
  -26.2773  -15.6353   20.0937 H   0  0  0  0  0  0
  -26.7098  -32.5561   23.1173 H   0  0  0  0  0  0
  -25.0030  -33.9806   25.0484 H   0  0  0  0  0  0
  -22.6829  -31.3130   21.4202 H   0  0  0  0  0  0
  -23.3733  -35.9668   23.3324 H   0  0  0  0  0  0
  -24.3585  -36.8911   22.2049 H   0  0  0  0  0  0
  -23.7255  -37.6536   23.6643 H   0  0  0  0  0  0
  -26.0272  -31.6155   20.5936 H   0  0  0  0  0  0
  -26.8112  -30.8984   21.9765 H   0  0  0  0  0  0
  -28.0929  -29.1352   21.1496 H   0  0  0  0  0  0
  -26.0587  -25.9800   19.0243 H   0  0  0  0  0  0
  -23.9644  -27.2937   19.0535 H   0  0  0  0  0  0
  -23.7070  -30.6079   19.4108 H   0  0  0  0  0  0
  -22.7229  -29.2514   19.8718 H   0  0  0  0  0  0
  -25.1280  -36.1976   25.0830 H   0  0  0  0  0  0
  -20.9943  -28.3224   24.1443 H   0  0  0  0  0  0
  -20.5649  -26.2271   23.3600 H   0  0  0  0  0  0
  -21.6626  -26.7448   22.1216 H   0  0  0  0  0  0
  -19.6900  -25.6306   21.1226 H   0  0  0  0  0  0
  -19.6674  -27.3208   20.6746 H   0  0  0  0  0  0
  -17.4182  -26.6673   21.4027 H   0  0  0  0  0  0
  -18.0323  -26.0058   22.9009 H   0  0  0  0  0  0
  -19.7927  -30.7237   24.2313 H   0  0  0  0  0  0
  -17.5018  -31.6271   24.5158 H   0  0  0  0  0  0
  -15.5348  -30.3015   23.7632 H   0  0  0  0  0  0
  -15.8651  -28.0833   22.7075 H   0  0  0  0  0  0
  -24.5896  -30.7089   25.7809 H   0  0  0  0  0  0
  -24.8998  -32.2862   26.4968 H   0  0  0  0  0  0
  -25.8108  -30.8815   27.0201 H   0  0  0  0  0  0
  -26.2841  -29.6791   24.1143 H   0  0  0  0  0  0
  -27.4110  -29.7269   25.4509 H   0  0  0  0  0  0
  -27.8659  -30.4364   23.9187 H   0  0  0  0  0  0
  -27.2663  -33.3582   26.2114 H   0  0  0  0  0  0
  -28.3830  -32.6923   25.0285 H   0  0  0  0  0  0
  -28.0763  -31.8403   26.5344 H   0  0  0  0  0  0
  -28.2608  -38.0097   24.7485 H   0  0  0  0  0  0
  -28.1061  -36.2627   24.6321 H   0  0  0  0  0  0
  -27.2303  -37.1491   25.8872 H   0  0  0  0  0  0
  -20.9261  -29.8748   21.6957 H   0  0  0  0  0  0
  -26.0182  -38.2872   24.1397 H   0  0  0  0  0  0
  -31.7859  -18.7277   17.2240 H   0  0  0  0  0  0
  -27.2162  -23.4128   18.0940 H   0  0  0  0  0  0
  -28.7718  -23.5930   17.2772 H   0  0  0  0  0  0
  -27.9343  -24.9984   17.8973 H   0  0  0  0  0  0
  -30.2444  -17.1637   22.3162 H   0  0  0  0  0  0
  -31.7205  -16.7274   21.5570 H   0  0  0  0  0  0
  -27.9498  -21.2197   20.4238 H   0  0  0  0  0  0
  -27.9791  -21.3225   18.6907 H   0  0  0  0  0  0
  -26.9789  -24.2995   20.3988 H   0  0  0  0  0  0
  -28.1454  -23.6622   21.5026 H   0  0  0  0  0  0
  -29.4677  -25.7255   21.4832 H   0  0  0  0  0  0
  -27.8333  -26.0347   21.9774 H   0  0  0  0  0  0
  -29.7658  -24.4675   19.3914 H   0  0  0  0  0  0
  -29.1245  -15.3305   21.3772 H   0  0  0  0  0  0
  -30.1968  -22.3585   18.9692 H   0  0  0  0  0  0
  -29.9601  -22.4570   20.5674 H   0  0  0  0  0  0
  1 25  1  0  0  0
  1 30  2  0  0  0
  1 83  1  0  0  0
  2  3  1  0  0  0
  2 25  1  0  0  0
  2 88  1  0  0  0
  2 89  1  0  0  0
  3  4  1  0  0  0
  3 90  1  0  0  0
  3 91  1  0  0  0
  4  5  1  0  0  0
  4 92  1  0  0  0
  4 93  1  0  0  0
  5  6  1  0  0  0
  5 26  1  0  0  0
  5 94  1  0  0  0
  6 25  1  0  0  0
  6 95  1  0  0  0
  6 96  1  0  0  0
  7  8  2  0  0  0
  7 26  1  0  0  0
  7 29  1  0  0  0
  8  9  1  0  0  0
  8 22  1  0  0  0
  9 10  1  0  0  0
  9 27  2  0  0  0
 10 11  2  0  0  0
 10 15  1  0  0  0
 11 12  1  0  0  0
 11 97  1  0  0  0
 12 13  2  0  0  0
 12 98  1  0  0  0
 13 14  1  0  0  0
 13 31  1  0  0  0
 14 15  2  0  0  0
 14 99  1  0  0  0
 15100  1  0  0  0
 16 17  2  0  0  0
 16 21  1  0  0  0
 16 31  1  0  0  0
 17 18  1  0  0  0
 17101  1  0  0  0
 18 19  2  0  0  0
 18102  1  0  0  0
 19 20  1  0  0  0
 19 24  1  0  0  0
 20 21  2  0  0  0
 20103  1  0  0  0
 21 23  1  0  0  0
 22 28  1  0  0  0
 22 32  2  0  0  0
 26 27  1  0  0  0
 28104  1  0  0  0
 28105  1  0  0  0
 29106  1  0  0  0
 29107  1  0  0  0
 33 34  1  0  0  0
 33 66  1  0  0  0
 33 70  2  0  0  0
 34 36  1  0  0  0
 34 59  1  0  0  0
 34108  1  0  0  0
 35 44  2  0  0  0
 35 45  1  0  0  0
 35 68  1  0  0  0
 36 56  1  0  0  0
 36109  1  0  0  0
 37 39  1  0  0  0
 37 47  1  0  0  0
 37 66  1  0  0  0
 37110  1  0  0  0
 38 43  2  0  0  0
 38 46  1  0  0  0
 38 47  1  0  0  0
 39 64  1  0  0  0
 39 67  2  0  0  0
 40 52  1  0  0  0
 40 53  2  0  0  0
 40 58  1  0  0  0
 41111  1  0  0  0
 41112  1  0  0  0
 41113  1  0  0  0
 41 48  1  0  0  0
 42 43  1  0  0  0
 42 66  1  0  0  0
 42114  1  0  0  0
 42115  1  0  0  0
 43 44  1  0  0  0
 44116  1  0  0  0
 45 46  2  0  0  0
 45117  1  0  0  0
 46118  1  0  0  0
 47119  1  0  0  0
 47120  1  0  0  0
 48 56  1  0  0  0
 48 65  1  0  0  0
 48121  1  0  0  0
 49 50  1  0  0  0
 49 53  1  0  0  0
 49 64  1  0  0  0
 49122  1  0  0  0
 50 51  1  0  0  0
 50123  1  0  0  0
 50124  1  0  0  0
 51 52  1  0  0  0
 51125  1  0  0  0
 51126  1  0  0  0
 52127  1  0  0  0
 52128  1  0  0  0
 53 54  1  0  0  0
 54 55  2  0  0  0
 54129  1  0  0  0
 55 57  1  0  0  0
 55130  1  0  0  0
 56 69  2  0  0  0
 57 58  2  0  0  0
 57131  1  0  0  0
 58132  1  0  0  0
 59 60  1  0  0  0
 59 61  1  0  0  0
 59 62  1  0  0  0
 60133  1  0  0  0
 60134  1  0  0  0
 60135  1  0  0  0
 61136  1  0  0  0
 61137  1  0  0  0
 61138  1  0  0  0
 62139  1  0  0  0
 62140  1  0  0  0
 62141  1  0  0  0
 63 65  1  0  0  0
 63142  1  0  0  0
 63143  1  0  0  0
 63144  1  0  0  0
 64145  1  0  0  0
 65146  1  0  0  0
 68 81  1  0  0  0
 71 74  2  0  0  0
 71 75  1  0  0  0
 71147  1  0  0  0
 72 74  1  0  0  0
 72 76  2  0  0  0
 72 78  1  0  0  0
 73 75  2  0  0  0
 73 76  1  0  0  0
 73 79  1  0  0  0
 74 85  1  0  0  0
 75 86  1  0  0  0
 76 87  1  0  0  0
 77148  1  0  0  0
 77149  1  0  0  0
 77150  1  0  0  0
 77 82  1  0  0  0
 78 83  1  0  0  0
 78151  1  0  0  0
 78152  1  0  0  0
 79 84  1  0  0  0
 79153  1  0  0  0
 79154  1  0  0  0
 80 81  1  0  0  0
 80 82  1  0  0  0
 80155  1  0  0  0
 80156  1  0  0  0
 81157  1  0  0  0
 81158  1  0  0  0
 82 84  1  0  0  0
 82159  1  0  0  0
 83160  1  0  0  0
 84161  1  0  0  0
 84162  1  0  0  0
M  CHG  1  84   1
M  ISO  4   1 100  68 101  81 101  83 100
M  END
> <chiral flag>
0

> <version>
0

> <s_m_source_file>
/data/baiqing/PycharmProjects/Reinvent-master-3.2/result/LINK_invent/BTK/process_docking_weight1_custom_sum_contain_oxygen_bond_distance_aromatic_linkinvent_7_9_3/rearranged_h_0024.sdf

> <i_m_source_file_index>
47

> <r_mmod_Potential_Energy-OPLS-2005>
-245.102294921875

> <r_mmod_Stretch_Energy-OPLS-2005>
37.5357666015625

> <r_mmod_Bend_Energy-OPLS-2005>
99.88671875

> <r_mmod_Torsional_Energy-OPLS-2005>
237.957107543945

> <r_mmod_Improper_Torsional_Energy-OPLS-2005>
2.99595355987549

> <r_mmod_Van_der_Waal_Energy-OPLS-2005>
152.431106567383

> <r_mmod_Electrostatic_Energy-OPLS-2005>
-321.396087646484

> <r_mmod_Solvation_Energy-OPLS-2005>
-467.855895996094

> <b_mmod_Minimization_Converged-OPLS-2005>
0

> <r_mmod_RMS_Derivative-OPLS-2005>
1.82233452796936

$$$$
47
                    3D
 Structure written by MMmdl.
165173  0  0  1  0            999 V2000
  -30.6802  -14.5063   20.6407 C   0  0  0  0  0  0
  -30.4435  -12.3540   19.4202 C   0  0  0  0  0  0
  -29.5031  -12.5374   18.2092 C   0  0  0  0  0  0
  -28.0277  -12.3738   18.6204 C   0  0  0  0  0  0
  -27.6678  -13.2072   19.8789 C   0  0  2  0  0  0
  -28.7065  -12.9705   20.9971 C   0  0  0  0  0  0
  -25.2600  -13.8149   20.5662 C   0  0  0  0  0  0
  -24.1848  -13.0435   20.9158 C   0  0  0  0  0  0
  -24.6403  -11.6898   20.8707 C   0  0  0  0  0  0
  -23.9065  -10.4288   21.0366 C   0  0  0  0  0  0
  -24.3624   -9.4202   21.9147 C   0  0  0  0  0  0
  -23.6298   -8.2248   22.0727 C   0  0  0  0  0  0
  -22.4268   -8.0281   21.3534 C   0  0  0  0  0  0
  -21.9911   -9.0247   20.4630 C   0  0  0  0  0  0
  -22.7243  -10.2127   20.3021 C   0  0  0  0  0  0
  -21.6865   -6.0719   22.5266 C   0  0  0  0  0  0
  -21.4022   -6.5616   23.8203 C   0  0  0  0  0  0
  -21.3664   -5.6770   24.9160 C   0  0  0  0  0  0
  -21.6050   -4.3032   24.7205 C   0  0  0  0  0  0
  -21.8826   -3.8129   23.4332 C   0  0  0  0  0  0
  -21.9202   -4.6949   22.3389 C   0  0  0  0  0  0
  -22.7865  -13.5233   21.1840 C   0  0  0  0  0  0
  -22.1666   -4.2131   21.0964 F   0  0  0  0  0  0
  -21.5640   -3.4518   25.7723 F   0  0  0  0  0  0
  -30.0469  -13.3079   20.4692 N   0  0  0  0  0  0
  -26.3056  -12.9326   20.3354 N   0  0  0  0  0  0
  -25.9328  -11.6486   20.5718 N   0  0  0  0  0  0
  -22.0530  -12.8223   22.0403 N   0  0  0  0  0  0
  -25.4357  -15.1862   20.4104 N   0  0  0  0  0  0
  -31.7111  -14.8165   20.0367 O   0  0  0  0  0  0
  -21.6648   -6.8867   21.4230 O   0  0  0  0  0  0
  -22.3548  -14.5539   20.6678 O   0  0  0  0  0  0
  -24.6204  -31.8648   23.2057 C   0  0  0  0  0  0
  -25.9069  -32.4814   23.8373 C   0  0  1  0  0  0
  -27.2453  -27.3793   20.0649 C   0  0  0  0  0  0
  -25.5923  -33.8616   24.2305 N   0  0  0  0  0  0
  -23.4111  -30.4852   21.5516 C   0  0  2  0  0  0
  -24.8559  -28.9494   20.1078 C   0  0  0  0  0  0
  -22.7458  -29.4610   22.5005 C   0  0  0  0  0  0
  -18.0266  -28.1363   22.8483 C   0  0  0  0  0  0
  -24.1486  -36.7280   23.2643 C   0  0  0  0  0  0
  -25.9472  -30.8087   21.3695 C   0  0  0  0  0  0
  -26.0215  -29.4420   20.7043 C   0  0  0  0  0  0
  -27.2118  -28.6661   20.6750 C   0  0  0  0  0  0
  -26.0424  -26.9120   19.4786 C   0  0  0  0  0  0
  -24.8655  -27.6874   19.4930 C   0  0  0  0  0  0
  -23.6206  -29.8214   20.1647 C   0  0  0  0  0  0
  -25.4119  -36.3113   24.0343 C   0  0  1  0  0  0
  -20.5864  -28.3639   23.1327 C   0  0  2  0  0  0
  -20.6761  -26.9383   22.5417 C   0  0  0  0  0  0
  -19.5740  -26.6372   21.5210 C   0  0  0  0  0  0
  -18.1914  -26.7901   22.1620 C   0  0  0  0  0  0
  -19.1526  -28.8822   23.2885 C   0  0  0  0  0  0
  -18.9453  -30.1429   23.8886 C   0  0  0  0  0  0
  -17.6462  -30.6574   24.0550 C   0  0  0  0  0  0
  -25.9054  -34.9483   23.5125 C   0  0  0  0  0  0
  -16.5346  -29.9072   23.6326 C   0  0  0  0  0  0
  -16.7256  -28.6487   23.0349 C   0  0  0  0  0  0
  -26.4480  -31.6610   25.0716 C   0  0  0  0  0  0
  -25.3747  -31.3711   26.1467 C   0  0  0  0  0  0
  -27.0304  -30.3049   24.6106 C   0  0  0  0  0  0
  -27.6051  -32.4335   25.7470 C   0  0  0  0  0  0
  -27.5580  -37.1802   24.8475 C   0  0  0  0  0  0
  -21.4175  -29.3008   22.3759 N   0  0  0  0  0  0
  -26.4296  -37.3812   23.9425 N   0  0  0  0  0  0
  -24.6779  -31.0683   22.1000 N   0  0  0  0  0  0
  -23.4212  -28.8148   23.3057 O   0  0  0  0  0  0
  -28.4303  -26.6348   20.0964 O   0  0  0  0  0  0
  -26.5614  -34.8952   22.4678 O   0  0  0  0  0  0
  -23.5374  -32.1427   23.7422 O   0  0  0  0  0  0
  -30.1875  -17.7442   20.8509 C   0  0  0  0  0  0
  -29.8514  -19.1058   21.1597 C   0  0  0  0  0  0
  -29.1833  -18.3760   23.4124 C   0  0  0  0  0  0
  -29.9909  -16.6990   21.8088 C   0  0  0  0  0  0
  -29.3449  -19.3912   22.4504 C   0  0  0  0  0  0
  -29.4971  -17.0391   23.0893 C   0  0  0  0  0  0
  -28.6377  -18.7218   24.7898 C   0  0  0  0  0  0
  -28.0727  -22.3314   18.7405 C   0  0  0  0  0  0
  -30.5210  -22.8675   18.5092 C   0  0  0  0  0  0
  -29.9639  -20.2308   20.0836 C   0  0  0  0  0  0
  -29.1022  -24.1426   20.2242 C   0  0  0  0  0  0
  -28.6202  -25.3813   19.3625 C   0  0  0  0  0  0
  -29.3507  -22.7335   19.5129 C   0  0  0  0  0  0
  -30.1260  -15.2817   21.5912 N   0  0  0  0  0  0
  -29.6925  -21.6548   20.5258 N   0  3  0  0  0  0
  -28.9828  -20.6548   22.7787 F   0  0  0  0  0  0
  -29.2460  -15.7921   24.2705 Cl  0  0  0  0  0  0
  -31.4817  -12.4934   19.1136 H   0  0  0  0  0  0
  -30.3796  -11.3348   19.8055 H   0  0  0  0  0  0
  -29.7546  -11.8213   17.4260 H   0  0  0  0  0  0
  -29.6506  -13.5274   17.7746 H   0  0  0  0  0  0
  -27.8606  -11.3151   18.8209 H   0  0  0  0  0  0
  -27.3740  -12.6361   17.7889 H   0  0  0  0  0  0
  -27.7167  -14.2584   19.5958 H   0  0  0  0  0  0
  -28.6900  -11.9240   21.3036 H   0  0  0  0  0  0
  -28.4281  -13.5291   21.8913 H   0  0  0  0  0  0
  -25.2773   -9.5672   22.4705 H   0  0  0  0  0  0
  -24.0009   -7.4628   22.7434 H   0  0  0  0  0  0
  -21.0847   -8.8764   19.8932 H   0  0  0  0  0  0
  -22.3705  -10.9649   19.6122 H   0  0  0  0  0  0
  -21.2008   -7.6127   23.9694 H   0  0  0  0  0  0
  -21.1488   -6.0498   25.9063 H   0  0  0  0  0  0
  -22.0608   -2.7593   23.2827 H   0  0  0  0  0  0
  -22.4196  -11.9926   22.4828 H   0  0  0  0  0  0
  -21.1114  -13.1177   22.2554 H   0  0  0  0  0  0
  -24.6768  -15.8492   20.5207 H   0  0  0  0  0  0
  -26.2993  -15.6197   20.1104 H   0  0  0  0  0  0
  -26.7131  -32.5488   23.1124 H   0  0  0  0  0  0
  -25.0113  -33.9782   25.0481 H   0  0  0  0  0  0
  -22.7004  -31.3030   21.4156 H   0  0  0  0  0  0
  -23.3773  -35.9585   23.3324 H   0  0  0  0  0  0
  -24.3554  -36.8873   22.2047 H   0  0  0  0  0  0
  -23.7226  -37.6488   23.6630 H   0  0  0  0  0  0
  -26.0802  -31.5810   20.6106 H   0  0  0  0  0  0
  -26.8269  -30.8500   22.0008 H   0  0  0  0  0  0
  -28.1127  -29.0556   21.1289 H   0  0  0  0  0  0
  -25.9566  -25.9426   19.0128 H   0  0  0  0  0  0
  -23.9653  -27.3049   19.0313 H   0  0  0  0  0  0
  -23.7371  -30.6007   19.4106 H   0  0  0  0  0  0
  -22.7409  -29.2478   19.8625 H   0  0  0  0  0  0
  -25.1307  -36.1971   25.0840 H   0  0  0  0  0  0
  -20.9909  -28.3167   24.1466 H   0  0  0  0  0  0
  -20.5663  -26.2237   23.3593 H   0  0  0  0  0  0
  -21.6634  -26.7436   22.1223 H   0  0  0  0  0  0
  -19.6912  -25.6289   21.1216 H   0  0  0  0  0  0
  -19.6680  -27.3196   20.6753 H   0  0  0  0  0  0
  -17.4200  -26.6641   21.4005 H   0  0  0  0  0  0
  -18.0318  -26.0040   22.9014 H   0  0  0  0  0  0
  -19.7944  -30.7232   24.2253 H   0  0  0  0  0  0
  -17.5034  -31.6254   24.5144 H   0  0  0  0  0  0
  -15.5350  -30.2980   23.7667 H   0  0  0  0  0  0
  -15.8649  -28.0804   22.7084 H   0  0  0  0  0  0
  -24.5931  -30.7052   25.7800 H   0  0  0  0  0  0
  -24.8925  -32.2853   26.4928 H   0  0  0  0  0  0
  -25.8121  -30.8876   27.0214 H   0  0  0  0  0  0
  -26.2834  -29.6825   24.1160 H   0  0  0  0  0  0
  -27.4077  -29.7290   25.4566 H   0  0  0  0  0  0
  -27.8683  -30.4380   23.9261 H   0  0  0  0  0  0
  -27.2674  -33.3638   26.2058 H   0  0  0  0  0  0
  -28.3840  -32.6899   25.0272 H   0  0  0  0  0  0
  -28.0739  -31.8453   26.5378 H   0  0  0  0  0  0
  -28.2636  -38.0066   24.7523 H   0  0  0  0  0  0
  -28.1046  -36.2607   24.6311 H   0  0  0  0  0  0
  -27.2279  -37.1462   25.8874 H   0  0  0  0  0  0
  -20.9357  -29.8735   21.6980 H   0  0  0  0  0  0
  -26.0179  -38.2894   24.1417 H   0  0  0  0  0  0
  -30.5510  -17.5003   19.8629 H   0  0  0  0  0  0
  -29.3560  -18.4473   25.5605 H   0  0  0  0  0  0
  -27.7099  -18.1802   24.9732 H   0  0  0  0  0  0
  -28.4293  -19.7862   24.9028 H   0  0  0  0  0  0
  -28.1890  -21.4005   18.1905 H   0  0  0  0  0  0
  -27.8016  -23.0675   17.9873 H   0  0  0  0  0  0
  -27.2202  -22.2140   19.4081 H   0  0  0  0  0  0
  -30.7329  -21.9272   17.9990 H   0  0  0  0  0  0
  -31.4395  -23.1789   19.0057 H   0  0  0  0  0  0
  -30.3086  -23.5992   17.7299 H   0  0  0  0  0  0
  -29.2809  -19.9406   19.2898 H   0  0  0  0  0  0
  -30.9612  -20.1828   19.6474 H   0  0  0  0  0  0
  -28.3746  -24.0050   21.0239 H   0  0  0  0  0  0
  -30.0230  -24.4448   20.7250 H   0  0  0  0  0  0
  -29.3828  -25.5919   18.6118 H   0  0  0  0  0  0
  -27.7546  -25.1013   18.7771 H   0  0  0  0  0  0
  -29.5521  -14.7402   22.2196 H   0  0  0  0  0  0
  -30.5063  -21.9490   21.0429 H   0  0  0  0  0  0
  -28.9487  -21.5874   21.2077 H   0  0  0  0  0  0
  1 25  1  0  0  0
  1 30  2  0  0  0
  1 84  1  0  0  0
  2  3  1  0  0  0
  2 25  1  0  0  0
  2 88  1  0  0  0
  2 89  1  0  0  0
  3  4  1  0  0  0
  3 90  1  0  0  0
  3 91  1  0  0  0
  4  5  1  0  0  0
  4 92  1  0  0  0
  4 93  1  0  0  0
  5  6  1  0  0  0
  5 26  1  0  0  0
  5 94  1  0  0  0
  6 25  1  0  0  0
  6 95  1  0  0  0
  6 96  1  0  0  0
  7  8  2  0  0  0
  7 26  1  0  0  0
  7 29  1  0  0  0
  8  9  1  0  0  0
  8 22  1  0  0  0
  9 10  1  0  0  0
  9 27  2  0  0  0
 10 11  2  0  0  0
 10 15  1  0  0  0
 11 12  1  0  0  0
 11 97  1  0  0  0
 12 13  2  0  0  0
 12 98  1  0  0  0
 13 14  1  0  0  0
 13 31  1  0  0  0
 14 15  2  0  0  0
 14 99  1  0  0  0
 15100  1  0  0  0
 16 17  2  0  0  0
 16 21  1  0  0  0
 16 31  1  0  0  0
 17 18  1  0  0  0
 17101  1  0  0  0
 18 19  2  0  0  0
 18102  1  0  0  0
 19 20  1  0  0  0
 19 24  1  0  0  0
 20 21  2  0  0  0
 20103  1  0  0  0
 21 23  1  0  0  0
 22 28  1  0  0  0
 22 32  2  0  0  0
 26 27  1  0  0  0
 28104  1  0  0  0
 28105  1  0  0  0
 29106  1  0  0  0
 29107  1  0  0  0
 33 34  1  0  0  0
 33 66  1  0  0  0
 33 70  2  0  0  0
 34 36  1  0  0  0
 34 59  1  0  0  0
 34108  1  0  0  0
 35 44  2  0  0  0
 35 45  1  0  0  0
 35 68  1  0  0  0
 36 56  1  0  0  0
 36109  1  0  0  0
 37 39  1  0  0  0
 37 47  1  0  0  0
 37 66  1  0  0  0
 37110  1  0  0  0
 38 43  2  0  0  0
 38 46  1  0  0  0
 38 47  1  0  0  0
 39 64  1  0  0  0
 39 67  2  0  0  0
 40 52  1  0  0  0
 40 53  2  0  0  0
 40 58  1  0  0  0
 41111  1  0  0  0
 41112  1  0  0  0
 41113  1  0  0  0
 41 48  1  0  0  0
 42 43  1  0  0  0
 42 66  1  0  0  0
 42114  1  0  0  0
 42115  1  0  0  0
 43 44  1  0  0  0
 44116  1  0  0  0
 45 46  2  0  0  0
 45117  1  0  0  0
 46118  1  0  0  0
 47119  1  0  0  0
 47120  1  0  0  0
 48 56  1  0  0  0
 48 65  1  0  0  0
 48121  1  0  0  0
 49 50  1  0  0  0
 49 53  1  0  0  0
 49 64  1  0  0  0
 49122  1  0  0  0
 50 51  1  0  0  0
 50123  1  0  0  0
 50124  1  0  0  0
 51 52  1  0  0  0
 51125  1  0  0  0
 51126  1  0  0  0
 52127  1  0  0  0
 52128  1  0  0  0
 53 54  1  0  0  0
 54 55  2  0  0  0
 54129  1  0  0  0
 55 57  1  0  0  0
 55130  1  0  0  0
 56 69  2  0  0  0
 57 58  2  0  0  0
 57131  1  0  0  0
 58132  1  0  0  0
 59 60  1  0  0  0
 59 61  1  0  0  0
 59 62  1  0  0  0
 60133  1  0  0  0
 60134  1  0  0  0
 60135  1  0  0  0
 61136  1  0  0  0
 61137  1  0  0  0
 61138  1  0  0  0
 62139  1  0  0  0
 62140  1  0  0  0
 62141  1  0  0  0
 63 65  1  0  0  0
 63142  1  0  0  0
 63143  1  0  0  0
 63144  1  0  0  0
 64145  1  0  0  0
 65146  1  0  0  0
 68 82  1  0  0  0
 71 72  2  0  0  0
 71 74  1  0  0  0
 71147  1  0  0  0
 72 75  1  0  0  0
 72 80  1  0  0  0
 73 75  2  0  0  0
 73 76  1  0  0  0
 73 77  1  0  0  0
 74 76  2  0  0  0
 74 84  1  0  0  0
 75 86  1  0  0  0
 76 87  1  0  0  0
 77148  1  0  0  0
 77149  1  0  0  0
 77150  1  0  0  0
 78151  1  0  0  0
 78152  1  0  0  0
 78153  1  0  0  0
 78 83  1  0  0  0
 79 83  1  0  0  0
 79154  1  0  0  0
 79155  1  0  0  0
 79156  1  0  0  0
 80 85  1  0  0  0
 80157  1  0  0  0
 80158  1  0  0  0
 81 82  1  0  0  0
 81 83  1  0  0  0
 81159  1  0  0  0
 81160  1  0  0  0
 82161  1  0  0  0
 82162  1  0  0  0
 83 85  1  0  0  0
 84163  1  0  0  0
 85164  1  0  0  0
 85165  1  0  0  0
M  CHG  1  85   1
M  ISO  4   1 100  68 101  82 101  84 100
M  END
> <chiral flag>
0

> <version>
0

> <s_m_source_file>
/data/baiqing/PycharmProjects/Reinvent-master-3.2/result/LINK_invent/BTK/process_docking_weight1_custom_sum_contain_oxygen_bond_distance_aromatic_linkinvent_7_9_3/rearranged_h_0024.sdf

> <i_m_source_file_index>
48

> <r_mmod_Potential_Energy-OPLS-2005>
-181.552032470703

> <r_mmod_Stretch_Energy-OPLS-2005>
66.9978790283203

> <r_mmod_Bend_Energy-OPLS-2005>
151.841262817383

> <r_mmod_Torsional_Energy-OPLS-2005>
222.032501220703

> <r_mmod_Improper_Torsional_Energy-OPLS-2005>
3.25279974937439

> <r_mmod_Van_der_Waal_Energy-OPLS-2005>
164.243240356445

> <r_mmod_Electrostatic_Energy-OPLS-2005>
-365.145050048828

> <r_mmod_Solvation_Energy-OPLS-2005>
-445.710357666016

> <b_mmod_Minimization_Converged-OPLS-2005>
0

> <r_mmod_RMS_Derivative-OPLS-2005>
2.90635991096497

$$$$
48
                    3D
 Structure written by MMmdl.
176184  0  0  1  0            999 V2000
  -30.8399  -14.2823   20.7647 C   0  0  0  0  0  0
  -30.4144  -12.2719   19.3971 C   0  0  0  0  0  0
  -29.4870  -12.5270   18.1961 C   0  0  0  0  0  0
  -28.0159  -12.3607   18.6123 C   0  0  0  0  0  0
  -27.6705  -13.1973   19.8692 C   0  0  2  0  0  0
  -28.7006  -12.9570   20.9952 C   0  0  0  0  0  0
  -25.2652  -13.8152   20.5628 C   0  0  0  0  0  0
  -24.1876  -13.0454   20.9127 C   0  0  0  0  0  0
  -24.6405  -11.6902   20.8685 C   0  0  0  0  0  0
  -23.9056  -10.4298   21.0384 C   0  0  0  0  0  0
  -24.3613   -9.4217   21.9172 C   0  0  0  0  0  0
  -23.6288   -8.2254   22.0747 C   0  0  0  0  0  0
  -22.4261   -8.0287   21.3555 C   0  0  0  0  0  0
  -21.9900   -9.0250   20.4647 C   0  0  0  0  0  0
  -22.7224  -10.2138   20.3045 C   0  0  0  0  0  0
  -21.6850   -6.0739   22.5283 C   0  0  0  0  0  0
  -21.4008   -6.5640   23.8217 C   0  0  0  0  0  0
  -21.3651   -5.6787   24.9178 C   0  0  0  0  0  0
  -21.6047   -4.3057   24.7231 C   0  0  0  0  0  0
  -21.8822   -3.8151   23.4346 C   0  0  0  0  0  0
  -21.9190   -4.6966   22.3404 C   0  0  0  0  0  0
  -22.7905  -13.5266   21.1810 C   0  0  0  0  0  0
  -22.1665   -4.2153   21.0985 F   0  0  0  0  0  0
  -21.5622   -3.4540   25.7745 F   0  0  0  0  0  0
  -30.0666  -13.1970   20.4868 N   0  0  0  0  0  0
  -26.3074  -12.9298   20.3287 N   0  0  0  0  0  0
  -25.9314  -11.6473   20.5696 N   0  0  0  0  0  0
  -22.0530  -12.8264   22.0367 N   0  0  0  0  0  0
  -25.4413  -15.1862   20.4059 N   0  0  0  0  0  0
  -31.7184  -14.6772   19.9885 O   0  0  0  0  0  0
  -21.6633   -6.8881   21.4249 O   0  0  0  0  0  0
  -22.3582  -14.5569   20.6649 O   0  0  0  0  0  0
  -24.6062  -31.8728   23.2114 C   0  0  0  0  0  0
  -25.8984  -32.4840   23.8404 C   0  0  1  0  0  0
  -27.2479  -27.4817   20.0928 C   0  0  0  0  0  0
  -25.5890  -33.8632   24.2351 N   0  0  0  0  0  0
  -23.3937  -30.4948   21.5492 C   0  0  2  0  0  0
  -24.8438  -28.9651   20.1123 C   0  0  0  0  0  0
  -22.7376  -29.4652   22.4981 C   0  0  0  0  0  0
  -18.0293  -28.1330   22.8447 C   0  0  0  0  0  0
  -24.1502  -36.7290   23.2656 C   0  0  0  0  0  0
  -25.9185  -30.8491   21.3631 C   0  0  0  0  0  0
  -25.9972  -29.4899   20.7067 C   0  0  0  0  0  0
  -27.2013  -28.7587   20.6949 C   0  0  0  0  0  0
  -26.0843  -26.9694   19.4838 C   0  0  0  0  0  0
  -24.8790  -27.7020   19.4966 C   0  0  0  0  0  0
  -23.6001  -29.8243   20.1652 C   0  0  0  0  0  0
  -25.4111  -36.3108   24.0382 C   0  0  1  0  0  0
  -20.5871  -28.3601   23.1320 C   0  0  2  0  0  0
  -20.6776  -26.9339   22.5401 C   0  0  0  0  0  0
  -19.5779  -26.6324   21.5183 C   0  0  0  0  0  0
  -18.1951  -26.7865   22.1578 C   0  0  0  0  0  0
  -19.1535  -28.8783   23.2883 C   0  0  0  0  0  0
  -18.9479  -30.1386   23.8899 C   0  0  0  0  0  0
  -17.6486  -30.6545   24.0543 C   0  0  0  0  0  0
  -25.9025  -34.9480   23.5154 C   0  0  0  0  0  0
  -16.5376  -29.9036   23.6320 C   0  0  0  0  0  0
  -16.7284  -28.6456   23.0311 C   0  0  0  0  0  0
  -26.4423  -31.6621   25.0713 C   0  0  0  0  0  0
  -25.3703  -31.3820   26.1499 C   0  0  0  0  0  0
  -27.0230  -30.3077   24.6041 C   0  0  0  0  0  0
  -27.5976  -32.4366   25.7485 C   0  0  0  0  0  0
  -27.5610  -37.1795   24.8466 C   0  0  0  0  0  0
  -21.4122  -29.2986   22.3736 N   0  0  0  0  0  0
  -26.4310  -37.3782   23.9436 N   0  0  0  0  0  0
  -24.6556  -31.0861   22.0990 N   0  0  0  0  0  0
  -23.4183  -28.8198   23.2998 O   0  0  0  0  0  0
  -28.3872  -26.7117   20.0502 O   0  0  0  0  0  0
  -26.5534  -34.8920   22.4681 O   0  0  0  0  0  0
  -23.5265  -32.1441   23.7535 O   0  0  0  0  0  0
  -33.5193  -22.0856   20.0279 C   0  0  0  0  0  0
  -32.3322  -22.6563   19.5277 C   0  0  0  0  0  0
  -31.1518  -21.8638   19.4310 C   0  0  0  0  0  0
  -31.1893  -20.4998   19.8333 C   0  0  0  0  0  0
  -32.3992  -19.9399   20.3130 C   0  0  0  0  0  0
  -33.5580  -20.7383   20.4228 C   0  0  0  0  0  0
  -29.8459  -22.4540   18.9020 C   0  0  0  0  0  0
  -29.9436  -19.6104   19.7768 C   0  0  0  0  0  0
  -30.5737  -14.2309   23.2341 C   0  0  0  0  0  0
  -32.3621  -24.1296   19.1411 C   0  0  0  0  0  0
  -31.7324  -24.9992   20.2409 C   0  0  0  0  0  0
  -31.3841  -26.4193   19.7664 C   0  0  0  0  0  0
  -30.6433  -27.2673   20.8158 C   0  0  0  0  0  0
  -32.2525  -16.7993   22.3210 C   0  0  0  0  0  0
  -32.5129  -18.2925   22.0669 C   0  0  0  0  0  0
  -30.7882  -16.3782   22.0421 C   0  0  0  0  0  0
  -29.2482  -26.7393   21.1898 C   0  0  0  0  0  0
  -32.4362  -18.5800   20.6421 N   0  0  0  0  0  0
  -30.6077  -14.9232   21.9367 N   0  0  0  0  0  0
  -34.7185  -20.2127   20.8894 F   0  0  0  0  0  0
  -31.4589  -12.3607   19.0925 H   0  0  0  0  0  0
  -30.2990  -11.2448   19.7453 H   0  0  0  0  0  0
  -29.7248  -11.8362   17.3847 H   0  0  0  0  0  0
  -29.6518  -13.5315   17.8022 H   0  0  0  0  0  0
  -27.8446  -11.3029   18.8117 H   0  0  0  0  0  0
  -27.3556  -12.6225   17.7847 H   0  0  0  0  0  0
  -27.7297  -14.2471   19.5789 H   0  0  0  0  0  0
  -28.6341  -11.9312   21.3594 H   0  0  0  0  0  0
  -28.4360  -13.5923   21.8398 H   0  0  0  0  0  0
  -25.2777   -9.5696   22.4733 H   0  0  0  0  0  0
  -23.9998   -7.4657   22.7477 H   0  0  0  0  0  0
  -21.0827   -8.8774   19.8969 H   0  0  0  0  0  0
  -22.3686  -10.9665   19.6143 H   0  0  0  0  0  0
  -21.1994   -7.6154   23.9726 H   0  0  0  0  0  0
  -21.1464   -6.0517   25.9077 H   0  0  0  0  0  0
  -22.0603   -2.7610   23.2849 H   0  0  0  0  0  0
  -22.4127  -11.9935   22.4781 H   0  0  0  0  0  0
  -21.1151  -13.1308   22.2557 H   0  0  0  0  0  0
  -24.6820  -15.8501   20.5155 H   0  0  0  0  0  0
  -26.3103  -15.6218   20.1197 H   0  0  0  0  0  0
  -26.7045  -32.5555   23.1155 H   0  0  0  0  0  0
  -25.0130  -33.9810   25.0563 H   0  0  0  0  0  0
  -22.6792  -31.3102   21.4105 H   0  0  0  0  0  0
  -23.3766  -35.9612   23.3285 H   0  0  0  0  0  0
  -24.3648  -36.8873   22.2076 H   0  0  0  0  0  0
  -23.7211  -37.6485   23.6635 H   0  0  0  0  0  0
  -26.0386  -31.6242   20.6062 H   0  0  0  0  0  0
  -26.8016  -30.8889   21.9885 H   0  0  0  0  0  0
  -28.0889  -29.1876   21.1379 H   0  0  0  0  0  0
  -26.1078  -25.9982   19.0103 H   0  0  0  0  0  0
  -23.9941  -27.2865   19.0341 H   0  0  0  0  0  0
  -23.7003  -30.6007   19.4062 H   0  0  0  0  0  0
  -22.7252  -29.2418   19.8718 H   0  0  0  0  0  0
  -25.1273  -36.2023   25.0869 H   0  0  0  0  0  0
  -20.9997  -28.3158   24.1437 H   0  0  0  0  0  0
  -20.5669  -26.2205   23.3575 H   0  0  0  0  0  0
  -21.6656  -26.7352   22.1228 H   0  0  0  0  0  0
  -19.6963  -25.6239   21.1201 H   0  0  0  0  0  0
  -19.6768  -27.3147   20.6723 H   0  0  0  0  0  0
  -17.4225  -26.6626   21.3972 H   0  0  0  0  0  0
  -18.0342  -26.0007   22.8969 H   0  0  0  0  0  0
  -19.7980  -30.7182   24.2273 H   0  0  0  0  0  0
  -17.5058  -31.6249   24.5094 H   0  0  0  0  0  0
  -15.5372  -30.2942   23.7637 H   0  0  0  0  0  0
  -15.8675  -28.0792   22.6986 H   0  0  0  0  0  0
  -24.5791  -30.7230   25.7894 H   0  0  0  0  0  0
  -24.8991  -32.3042   26.4944 H   0  0  0  0  0  0
  -25.8050  -30.9003   27.0275 H   0  0  0  0  0  0
  -26.2780  -29.6927   24.0973 H   0  0  0  0  0  0
  -27.3895  -29.7223   25.4474 H   0  0  0  0  0  0
  -27.8658  -30.4405   23.9248 H   0  0  0  0  0  0
  -27.2528  -33.3636   26.2109 H   0  0  0  0  0  0
  -28.3772  -32.7017   25.0324 H   0  0  0  0  0  0
  -28.0661  -31.8484   26.5388 H   0  0  0  0  0  0
  -28.2569  -38.0138   24.7534 H   0  0  0  0  0  0
  -28.1148  -36.2658   24.6241 H   0  0  0  0  0  0
  -27.2353  -37.1406   25.8873 H   0  0  0  0  0  0
  -20.9240  -29.8722   21.7001 H   0  0  0  0  0  0
  -26.0208  -38.2858   24.1419 H   0  0  0  0  0  0
  -34.4155  -22.6826   20.1108 H   0  0  0  0  0  0
  -29.8908  -23.5093   18.6452 H   0  0  0  0  0  0
  -29.0542  -22.3546   19.6442 H   0  0  0  0  0  0
  -29.5375  -21.9262   17.9995 H   0  0  0  0  0  0
  -29.0388  -20.1106   19.4388 H   0  0  0  0  0  0
  -29.7272  -19.2068   20.7680 H   0  0  0  0  0  0
  -30.1132  -18.7673   19.1067 H   0  0  0  0  0  0
  -31.5301  -14.3412   23.7475 H   0  0  0  0  0  0
  -30.3849  -13.1591   23.1516 H   0  0  0  0  0  0
  -29.8017  -14.6524   23.8794 H   0  0  0  0  0  0
  -31.8616  -24.2683   18.1817 H   0  0  0  0  0  0
  -33.3901  -24.4527   18.9619 H   0  0  0  0  0  0
  -32.3947  -25.0320   21.1068 H   0  0  0  0  0  0
  -30.8227  -24.5064   20.5780 H   0  0  0  0  0  0
  -30.7759  -26.3627   18.8635 H   0  0  0  0  0  0
  -32.3056  -26.9307   19.4869 H   0  0  0  0  0  0
  -30.5463  -28.2873   20.4433 H   0  0  0  0  0  0
  -31.2517  -27.3384   21.7192 H   0  0  0  0  0  0
  -32.4907  -16.5739   23.3613 H   0  0  0  0  0  0
  -32.9540  -16.2141   21.7233 H   0  0  0  0  0  0
  -33.5014  -18.5685   22.4385 H   0  0  0  0  0  0
  -31.7945  -18.8957   22.6262 H   0  0  0  0  0  0
  -30.4344  -16.8246   21.1115 H   0  0  0  0  0  0
  -30.1313  -16.7771   22.8167 H   0  0  0  0  0  0
  -28.8432  -27.3083   22.0248 H   0  0  0  0  0  0
  -29.3199  -25.7251   21.5777 H   0  0  0  0  0  0
  -31.6826  -18.0725   20.1960 H   0  0  0  0  0  0
  1 25  1  0  0  0
  1 30  2  0  0  0
  1 89  1  0  0  0
  2  3  1  0  0  0
  2 25  1  0  0  0
  2 91  1  0  0  0
  2 92  1  0  0  0
  3  4  1  0  0  0
  3 93  1  0  0  0
  3 94  1  0  0  0
  4  5  1  0  0  0
  4 95  1  0  0  0
  4 96  1  0  0  0
  5  6  1  0  0  0
  5 26  1  0  0  0
  5 97  1  0  0  0
  6 25  1  0  0  0
  6 98  1  0  0  0
  6 99  1  0  0  0
  7  8  2  0  0  0
  7 26  1  0  0  0
  7 29  1  0  0  0
  8  9  1  0  0  0
  8 22  1  0  0  0
  9 10  1  0  0  0
  9 27  2  0  0  0
 10 11  2  0  0  0
 10 15  1  0  0  0
 11 12  1  0  0  0
 11100  1  0  0  0
 12 13  2  0  0  0
 12101  1  0  0  0
 13 14  1  0  0  0
 13 31  1  0  0  0
 14 15  2  0  0  0
 14102  1  0  0  0
 15103  1  0  0  0
 16 17  2  0  0  0
 16 21  1  0  0  0
 16 31  1  0  0  0
 17 18  1  0  0  0
 17104  1  0  0  0
 18 19  2  0  0  0
 18105  1  0  0  0
 19 20  1  0  0  0
 19 24  1  0  0  0
 20 21  2  0  0  0
 20106  1  0  0  0
 21 23  1  0  0  0
 22 28  1  0  0  0
 22 32  2  0  0  0
 26 27  1  0  0  0
 28107  1  0  0  0
 28108  1  0  0  0
 29109  1  0  0  0
 29110  1  0  0  0
 33 34  1  0  0  0
 33 66  1  0  0  0
 33 70  2  0  0  0
 34 36  1  0  0  0
 34 59  1  0  0  0
 34111  1  0  0  0
 35 44  2  0  0  0
 35 45  1  0  0  0
 35 68  1  0  0  0
 36 56  1  0  0  0
 36112  1  0  0  0
 37 39  1  0  0  0
 37 47  1  0  0  0
 37 66  1  0  0  0
 37113  1  0  0  0
 38 43  2  0  0  0
 38 46  1  0  0  0
 38 47  1  0  0  0
 39 64  1  0  0  0
 39 67  2  0  0  0
 40 52  1  0  0  0
 40 53  2  0  0  0
 40 58  1  0  0  0
 41114  1  0  0  0
 41115  1  0  0  0
 41116  1  0  0  0
 41 48  1  0  0  0
 42 43  1  0  0  0
 42 66  1  0  0  0
 42117  1  0  0  0
 42118  1  0  0  0
 43 44  1  0  0  0
 44119  1  0  0  0
 45 46  2  0  0  0
 45120  1  0  0  0
 46121  1  0  0  0
 47122  1  0  0  0
 47123  1  0  0  0
 48 56  1  0  0  0
 48 65  1  0  0  0
 48124  1  0  0  0
 49 50  1  0  0  0
 49 53  1  0  0  0
 49 64  1  0  0  0
 49125  1  0  0  0
 50 51  1  0  0  0
 50126  1  0  0  0
 50127  1  0  0  0
 51 52  1  0  0  0
 51128  1  0  0  0
 51129  1  0  0  0
 52130  1  0  0  0
 52131  1  0  0  0
 53 54  1  0  0  0
 54 55  2  0  0  0
 54132  1  0  0  0
 55 57  1  0  0  0
 55133  1  0  0  0
 56 69  2  0  0  0
 57 58  2  0  0  0
 57134  1  0  0  0
 58135  1  0  0  0
 59 60  1  0  0  0
 59 61  1  0  0  0
 59 62  1  0  0  0
 60136  1  0  0  0
 60137  1  0  0  0
 60138  1  0  0  0
 61139  1  0  0  0
 61140  1  0  0  0
 61141  1  0  0  0
 62142  1  0  0  0
 62143  1  0  0  0
 62144  1  0  0  0
 63 65  1  0  0  0
 63145  1  0  0  0
 63146  1  0  0  0
 63147  1  0  0  0
 64148  1  0  0  0
 65149  1  0  0  0
 68 87  1  0  0  0
 71 72  2  0  0  0
 71 76  1  0  0  0
 71150  1  0  0  0
 72 73  1  0  0  0
 72 80  1  0  0  0
 73 74  2  0  0  0
 73 77  1  0  0  0
 74 75  1  0  0  0
 74 78  1  0  0  0
 75 76  2  0  0  0
 75 88  1  0  0  0
 76 90  1  0  0  0
 77151  1  0  0  0
 77152  1  0  0  0
 77153  1  0  0  0
 78154  1  0  0  0
 78155  1  0  0  0
 78156  1  0  0  0
 79 89  1  0  0  0
 79157  1  0  0  0
 79158  1  0  0  0
 79159  1  0  0  0
 80 81  1  0  0  0
 80160  1  0  0  0
 80161  1  0  0  0
 81 82  1  0  0  0
 81162  1  0  0  0
 81163  1  0  0  0
 82 83  1  0  0  0
 82164  1  0  0  0
 82165  1  0  0  0
 83 87  1  0  0  0
 83166  1  0  0  0
 83167  1  0  0  0
 84 85  1  0  0  0
 84 86  1  0  0  0
 84168  1  0  0  0
 84169  1  0  0  0
 85 88  1  0  0  0
 85170  1  0  0  0
 85171  1  0  0  0
 86 89  1  0  0  0
 86172  1  0  0  0
 86173  1  0  0  0
 87174  1  0  0  0
 87175  1  0  0  0
 88176  1  0  0  0
M  ISO  4   1 100  68 101  87 101  89 100
M  END
> <chiral flag>
0

> <version>
0

> <s_m_source_file>
/data/baiqing/PycharmProjects/Reinvent-master-3.2/result/LINK_invent/BTK/process_docking_weight1_custom_sum_contain_oxygen_bond_distance_aromatic_linkinvent_7_9_3/rearranged_h_0024.sdf

> <i_m_source_file_index>
49

> <r_mmod_Potential_Energy-OPLS-2005>
143.300582885742

> <r_mmod_Stretch_Energy-OPLS-2005>
37.0701217651367

> <r_mmod_Bend_Energy-OPLS-2005>
98.025032043457

> <r_mmod_Torsional_Energy-OPLS-2005>
299.940338134766

> <r_mmod_Improper_Torsional_Energy-OPLS-2005>
7.62404918670654

> <r_mmod_Van_der_Waal_Energy-OPLS-2005>
166.764663696289

> <r_mmod_Electrostatic_Energy-OPLS-2005>
-280.142608642578

> <r_mmod_Solvation_Energy-OPLS-2005>
-195.656661987305

> <b_mmod_Minimization_Converged-OPLS-2005>
0

> <r_mmod_RMS_Derivative-OPLS-2005>
3.397465467453

$$$$
49
                    3D
 Structure written by MMmdl.
160168  0  0  1  0            999 V2000
  -30.3711  -15.3843   20.3570 C   0  0  0  0  0  0
  -30.4407  -12.9009   19.5052 C   0  0  0  0  0  0
  -29.5355  -12.5929   18.2842 C   0  0  0  0  0  0
  -28.0911  -12.2940   18.7233 C   0  0  0  0  0  0
  -27.6050  -13.2792   19.8140 C   0  0  2  0  0  0
  -28.6413  -13.4978   20.9351 C   0  0  0  0  0  0
  -25.2378  -13.8239   20.5767 C   0  0  0  0  0  0
  -24.1739  -13.0427   20.9270 C   0  0  0  0  0  0
  -24.6402  -11.6928   20.8767 C   0  0  0  0  0  0
  -23.9097  -10.4290   21.0410 C   0  0  0  0  0  0
  -24.3642   -9.4202   21.9188 C   0  0  0  0  0  0
  -23.6308   -8.2242   22.0755 C   0  0  0  0  0  0
  -22.4288   -8.0282   21.3547 C   0  0  0  0  0  0
  -21.9929   -9.0260   20.4647 C   0  0  0  0  0  0
  -22.7266  -10.2134   20.3058 C   0  0  0  0  0  0
  -21.6855   -6.0741   22.5279 C   0  0  0  0  0  0
  -21.4018   -6.5644   23.8214 C   0  0  0  0  0  0
  -21.3657   -5.6792   24.9176 C   0  0  0  0  0  0
  -21.6042   -4.3056   24.7224 C   0  0  0  0  0  0
  -21.8819   -3.8150   23.4345 C   0  0  0  0  0  0
  -21.9197   -4.6968   22.3402 C   0  0  0  0  0  0
  -22.7753  -13.5175   21.1906 C   0  0  0  0  0  0
  -22.1663   -4.2153   21.0979 F   0  0  0  0  0  0
  -21.5627   -3.4540   25.7738 F   0  0  0  0  0  0
  -29.8407  -14.0534   20.2803 N   0  0  0  0  0  0
  -26.2804  -12.9523   20.3216 N   0  0  0  0  0  0
  -25.9340  -11.6627   20.5716 N   0  0  0  0  0  0
  -22.0417  -12.8165   22.0461 N   0  0  0  0  0  0
  -25.3975  -15.1974   20.4204 N   0  0  0  0  0  0
  -31.6093  -15.3805   20.2559 O   0  0  0  0  0  0
  -21.6645   -6.8884   21.4242 O   0  0  0  0  0  0
  -22.3435  -14.5476   20.6734 O   0  0  0  0  0  0
  -24.6704  -31.8144   23.1637 C   0  0  0  0  0  0
  -25.9351  -32.4532   23.8121 C   0  0  1  0  0  0
  -27.2188  -26.8438   20.2002 C   0  0  0  0  0  0
  -25.5986  -33.8351   24.2018 N   0  0  0  0  0  0
  -23.4887  -30.4223   21.5150 C   0  0  2  0  0  0
  -24.9423  -28.7895   20.1193 C   0  0  0  0  0  0
  -22.7695  -29.4389   22.4762 C   0  0  0  0  0  0
  -18.0320  -28.1413   22.8446 C   0  0  0  0  0  0
  -24.1492  -36.7179   23.2648 C   0  0  0  0  0  0
  -26.0624  -30.5938   21.4059 C   0  0  0  0  0  0
  -26.1303  -29.1747   20.7532 C   0  0  0  0  0  0
  -27.2623  -28.2275   20.7600 C   0  0  0  0  0  0
  -25.9976  -26.6281   19.5207 C   0  0  0  0  0  0
  -24.9059  -27.5385   19.4815 C   0  0  0  0  0  0
  -23.7340  -29.7295   20.1457 C   0  0  0  0  0  0
  -25.4139  -36.2926   24.0286 C   0  0  1  0  0  0
  -20.5948  -28.3761   23.1164 C   0  0  2  0  0  0
  -20.6792  -26.9434   22.5396 C   0  0  0  0  0  0
  -19.5770  -26.6373   21.5202 C   0  0  0  0  0  0
  -18.1953  -26.7939   22.1609 C   0  0  0  0  0  0
  -19.1586  -28.8908   23.2785 C   0  0  0  0  0  0
  -18.9499  -30.1493   23.8825 C   0  0  0  0  0  0
  -17.6494  -30.6599   24.0549 C   0  0  0  0  0  0
  -25.9111  -34.9314   23.4978 C   0  0  0  0  0  0
  -16.5382  -29.9086   23.6348 C   0  0  0  0  0  0
  -16.7303  -28.6512   23.0357 C   0  0  0  0  0  0
  -26.4576  -31.6520   25.0691 C   0  0  0  0  0  0
  -25.3677  -31.3807   26.1333 C   0  0  0  0  0  0
  -27.0492  -30.2871   24.6507 C   0  0  0  0  0  0
  -27.6040  -32.4361   25.7510 C   0  0  0  0  0  0
  -27.5567  -37.1739   24.8464 C   0  0  0  0  0  0
  -21.4359  -29.3037   22.3505 N   0  0  0  0  0  0
  -26.4273  -37.3676   23.9413 N   0  0  0  0  0  0
  -24.7625  -30.9731   22.0812 N   0  0  0  0  0  0
  -23.4198  -28.7960   23.3038 O   0  0  0  0  0  0
  -28.2266  -25.7142   20.2178 O   0  0  0  0  0  0
  -26.5731  -34.8871   22.4582 O   0  0  0  0  0  0
  -23.5762  -32.1155   23.6686 O   0  0  0  0  0  0
  -29.2536  -20.3160   21.6899 C   0  0  0  0  0  0
  -29.2155  -19.4914   19.6948 C   0  0  0  0  0  0
  -29.4778  -18.9212   21.7815 C   0  0  0  0  0  0
  -29.5099  -18.2830   20.4840 C   0  0  0  0  0  0
  -27.9866  -18.9429   24.8454 C   0  0  0  0  0  0
  -27.1155  -17.6464   22.8794 C   0  0  0  0  0  0
  -28.5058  -16.5066   24.6097 C   0  0  0  0  0  0
  -29.6387  -18.1795   23.0931 C   0  0  0  0  0  0
  -28.9382  -22.4960   19.9228 C   0  0  0  0  0  0
  -28.0361  -24.0397   20.4072 C   0  0  0  0  0  0
  -28.3150  -17.8254   23.8358 C   0  0  0  0  0  0
  -29.0551  -20.8352   20.3951 N   0  0  0  0  0  0
  -29.5514  -16.6462   20.2309 N   0  0  0  0  0  0
  -31.4422  -13.1501   19.1527 H   0  0  0  0  0  0
  -30.5615  -12.0189   20.1364 H   0  0  0  0  0  0
  -29.9360  -11.7552   17.7117 H   0  0  0  0  0  0
  -29.5368  -13.4518   17.6114 H   0  0  0  0  0  0
  -28.0677  -11.2757   19.1135 H   0  0  0  0  0  0
  -27.4190  -12.3080   17.8641 H   0  0  0  0  0  0
  -27.5006  -14.2325   19.2951 H   0  0  0  0  0  0
  -28.8504  -12.5735   21.4767 H   0  0  0  0  0  0
  -28.2622  -14.2116   21.6688 H   0  0  0  0  0  0
  -25.2788   -9.5674   22.4763 H   0  0  0  0  0  0
  -24.0011   -7.4632   22.7479 H   0  0  0  0  0  0
  -21.0858   -8.8790   19.8954 H   0  0  0  0  0  0
  -22.3731  -10.9680   19.6169 H   0  0  0  0  0  0
  -21.2012   -7.6152   23.9718 H   0  0  0  0  0  0
  -21.1476   -6.0525   25.9077 H   0  0  0  0  0  0
  -22.0598   -2.7613   23.2847 H   0  0  0  0  0  0
  -22.4056  -11.9843   22.4863 H   0  0  0  0  0  0
  -21.1023  -13.1166   22.2654 H   0  0  0  0  0  0
  -24.6265  -15.8430   20.5518 H   0  0  0  0  0  0
  -26.2399  -15.6510   20.0967 H   0  0  0  0  0  0
  -26.7419  -32.5035   23.0829 H   0  0  0  0  0  0
  -25.0056  -33.9407   25.0118 H   0  0  0  0  0  0
  -22.8064  -31.2559   21.3358 H   0  0  0  0  0  0
  -23.3763  -35.9499   23.3272 H   0  0  0  0  0  0
  -24.3560  -36.8883   22.2072 H   0  0  0  0  0  0
  -23.7246  -37.6348   23.6746 H   0  0  0  0  0  0
  -26.2504  -31.3292   20.6230 H   0  0  0  0  0  0
  -26.9186  -30.6545   22.0656 H   0  0  0  0  0  0
  -28.1668  -28.5277   21.2706 H   0  0  0  0  0  0
  -25.8604  -25.6783   19.0248 H   0  0  0  0  0  0
  -24.0062  -27.2351   18.9644 H   0  0  0  0  0  0
  -23.8996  -30.4924   19.3847 H   0  0  0  0  0  0
  -22.8424  -29.1892   19.8237 H   0  0  0  0  0  0
  -25.1339  -36.1703   25.0773 H   0  0  0  0  0  0
  -21.0025  -28.3378   24.1292 H   0  0  0  0  0  0
  -20.5662  -26.2379   23.3639 H   0  0  0  0  0  0
  -21.6658  -26.7390   22.1217 H   0  0  0  0  0  0
  -19.6935  -25.6268   21.1274 H   0  0  0  0  0  0
  -19.6731  -27.3142   20.6696 H   0  0  0  0  0  0
  -17.4221  -26.6662   21.4018 H   0  0  0  0  0  0
  -18.0368  -26.0097   22.9025 H   0  0  0  0  0  0
  -19.7979  -30.7319   24.2177 H   0  0  0  0  0  0
  -17.5051  -31.6279   24.5158 H   0  0  0  0  0  0
  -15.5384  -30.2968   23.7724 H   0  0  0  0  0  0
  -15.8696  -28.0816   22.7111 H   0  0  0  0  0  0
  -24.5871  -30.7146   25.7640 H   0  0  0  0  0  0
  -24.8853  -32.3019   26.4601 H   0  0  0  0  0  0
  -25.7876  -30.9072   27.0215 H   0  0  0  0  0  0
  -26.3184  -29.6514   24.1493 H   0  0  0  0  0  0
  -27.3955  -29.7283   25.5213 H   0  0  0  0  0  0
  -27.9150  -30.4024   23.9982 H   0  0  0  0  0  0
  -27.2580  -33.3718   26.1925 H   0  0  0  0  0  0
  -28.3932  -32.6849   25.0398 H   0  0  0  0  0  0
  -28.0615  -31.8605   26.5570 H   0  0  0  0  0  0
  -28.2538  -38.0076   24.7514 H   0  0  0  0  0  0
  -28.1101  -36.2591   24.6276 H   0  0  0  0  0  0
  -27.2273  -37.1365   25.8863 H   0  0  0  0  0  0
  -20.9633  -29.8723   21.6617 H   0  0  0  0  0  0
  -26.0101  -38.2720   24.1449 H   0  0  0  0  0  0
  -29.2172  -21.0239   22.5080 H   0  0  0  0  0  0
  -29.1057  -19.5246   18.6185 H   0  0  0  0  0  0
  -27.0665  -18.7343   25.3927 H   0  0  0  0  0  0
  -27.8576  -19.9055   24.3493 H   0  0  0  0  0  0
  -28.7820  -19.0624   25.5824 H   0  0  0  0  0  0
  -26.2157  -17.3521   23.4213 H   0  0  0  0  0  0
  -27.3115  -16.8731   22.1356 H   0  0  0  0  0  0
  -26.8747  -18.5662   22.3450 H   0  0  0  0  0  0
  -27.6180  -16.2550   25.1919 H   0  0  0  0  0  0
  -29.3432  -16.5689   25.3056 H   0  0  0  0  0  0
  -28.7000  -15.6693   23.9370 H   0  0  0  0  0  0
  -30.3094  -18.7442   23.7423 H   0  0  0  0  0  0
  -30.1819  -17.2617   22.8643 H   0  0  0  0  0  0
  -29.9760  -22.8205   19.9950 H   0  0  0  0  0  0
  -28.7727  -22.4402   18.8468 H   0  0  0  0  0  0
  -27.9646  -23.9507   21.4909 H   0  0  0  0  0  0
  -27.0144  -23.8610   20.0733 H   0  0  0  0  0  0
  -28.6264  -16.3341   19.9772 H   0  0  0  0  0  0
  1 25  1  0  0  0
  1 30  2  0  0  0
  1 83  1  0  0  0
  2  3  1  0  0  0
  2 25  1  0  0  0
  2 84  1  0  0  0
  2 85  1  0  0  0
  3  4  1  0  0  0
  3 86  1  0  0  0
  3 87  1  0  0  0
  4  5  1  0  0  0
  4 88  1  0  0  0
  4 89  1  0  0  0
  5  6  1  0  0  0
  5 26  1  0  0  0
  5 90  1  0  0  0
  6 25  1  0  0  0
  6 91  1  0  0  0
  6 92  1  0  0  0
  7  8  2  0  0  0
  7 26  1  0  0  0
  7 29  1  0  0  0
  8  9  1  0  0  0
  8 22  1  0  0  0
  9 10  1  0  0  0
  9 27  2  0  0  0
 10 11  2  0  0  0
 10 15  1  0  0  0
 11 12  1  0  0  0
 11 93  1  0  0  0
 12 13  2  0  0  0
 12 94  1  0  0  0
 13 14  1  0  0  0
 13 31  1  0  0  0
 14 15  2  0  0  0
 14 95  1  0  0  0
 15 96  1  0  0  0
 16 17  2  0  0  0
 16 21  1  0  0  0
 16 31  1  0  0  0
 17 18  1  0  0  0
 17 97  1  0  0  0
 18 19  2  0  0  0
 18 98  1  0  0  0
 19 20  1  0  0  0
 19 24  1  0  0  0
 20 21  2  0  0  0
 20 99  1  0  0  0
 21 23  1  0  0  0
 22 28  1  0  0  0
 22 32  2  0  0  0
 26 27  1  0  0  0
 28100  1  0  0  0
 28101  1  0  0  0
 29102  1  0  0  0
 29103  1  0  0  0
 33 34  1  0  0  0
 33 66  1  0  0  0
 33 70  2  0  0  0
 34 36  1  0  0  0
 34 59  1  0  0  0
 34104  1  0  0  0
 35 44  2  0  0  0
 35 45  1  0  0  0
 35 68  1  0  0  0
 36 56  1  0  0  0
 36105  1  0  0  0
 37 39  1  0  0  0
 37 47  1  0  0  0
 37 66  1  0  0  0
 37106  1  0  0  0
 38 43  2  0  0  0
 38 46  1  0  0  0
 38 47  1  0  0  0
 39 64  1  0  0  0
 39 67  2  0  0  0
 40 52  1  0  0  0
 40 53  2  0  0  0
 40 58  1  0  0  0
 41107  1  0  0  0
 41108  1  0  0  0
 41109  1  0  0  0
 41 48  1  0  0  0
 42 43  1  0  0  0
 42 66  1  0  0  0
 42110  1  0  0  0
 42111  1  0  0  0
 43 44  1  0  0  0
 44112  1  0  0  0
 45 46  2  0  0  0
 45113  1  0  0  0
 46114  1  0  0  0
 47115  1  0  0  0
 47116  1  0  0  0
 48 56  1  0  0  0
 48 65  1  0  0  0
 48117  1  0  0  0
 49 50  1  0  0  0
 49 53  1  0  0  0
 49 64  1  0  0  0
 49118  1  0  0  0
 50 51  1  0  0  0
 50119  1  0  0  0
 50120  1  0  0  0
 51 52  1  0  0  0
 51121  1  0  0  0
 51122  1  0  0  0
 52123  1  0  0  0
 52124  1  0  0  0
 53 54  1  0  0  0
 54 55  2  0  0  0
 54125  1  0  0  0
 55 57  1  0  0  0
 55126  1  0  0  0
 56 69  2  0  0  0
 57 58  2  0  0  0
 57127  1  0  0  0
 58128  1  0  0  0
 59 60  1  0  0  0
 59 61  1  0  0  0
 59 62  1  0  0  0
 60129  1  0  0  0
 60130  1  0  0  0
 60131  1  0  0  0
 61132  1  0  0  0
 61133  1  0  0  0
 61134  1  0  0  0
 62135  1  0  0  0
 62136  1  0  0  0
 62137  1  0  0  0
 63 65  1  0  0  0
 63138  1  0  0  0
 63139  1  0  0  0
 63140  1  0  0  0
 64141  1  0  0  0
 65142  1  0  0  0
 68 80  1  0  0  0
 71 73  2  0  0  0
 71 82  1  0  0  0
 71143  1  0  0  0
 72 74  2  0  0  0
 72 82  1  0  0  0
 72144  1  0  0  0
 73 74  1  0  0  0
 73 78  1  0  0  0
 74 83  1  0  0  0
 75145  1  0  0  0
 75146  1  0  0  0
 75147  1  0  0  0
 75 81  1  0  0  0
 76 81  1  0  0  0
 76148  1  0  0  0
 76149  1  0  0  0
 76150  1  0  0  0
 77 81  1  0  0  0
 77151  1  0  0  0
 77152  1  0  0  0
 77153  1  0  0  0
 78 81  1  0  0  0
 78154  1  0  0  0
 78155  1  0  0  0
 79 80  1  0  0  0
 79 82  1  0  0  0
 79156  1  0  0  0
 79157  1  0  0  0
 80158  1  0  0  0
 80159  1  0  0  0
 83160  1  0  0  0
M  ISO  4   1 100  68 101  80 101  83 100
M  END
> <chiral flag>
0

> <version>
0

> <s_m_source_file>
/data/baiqing/PycharmProjects/Reinvent-master-3.2/result/LINK_invent/BTK/process_docking_weight1_custom_sum_contain_oxygen_bond_distance_aromatic_linkinvent_7_9_3/rearranged_h_0024.sdf

> <i_m_source_file_index>
50

> <r_mmod_Potential_Energy-OPLS-2005>
1631.76904296875

> <r_mmod_Stretch_Energy-OPLS-2005>
704.328430175781

> <r_mmod_Bend_Energy-OPLS-2005>
521.709411621094

> <r_mmod_Torsional_Energy-OPLS-2005>
272.901580810547

> <r_mmod_Improper_Torsional_Energy-OPLS-2005>
12.0084800720215

> <r_mmod_Van_der_Waal_Energy-OPLS-2005>
98.0933380126953

> <r_mmod_Electrostatic_Energy-OPLS-2005>
-358.359985351562

> <r_mmod_Solvation_Energy-OPLS-2005>
-210.425354003906

> <b_mmod_Minimization_Converged-OPLS-2005>
0

> <r_mmod_RMS_Derivative-OPLS-2005>
1.20425045490265

$$$$
50
                    3D
 Structure written by MMmdl.
174182  0  0  1  0            999 V2000
  -30.7709  -14.3284   20.7074 C   0  0  0  0  0  0
  -30.4131  -12.2739   19.3935 C   0  0  0  0  0  0
  -29.4819  -12.5432   18.1945 C   0  0  0  0  0  0
  -28.0073  -12.3822   18.6091 C   0  0  0  0  0  0
  -27.6668  -13.1951   19.8842 C   0  0  2  0  0  0
  -28.7013  -12.9243   21.0012 C   0  0  0  0  0  0
  -25.2619  -13.8146   20.5716 C   0  0  0  0  0  0
  -24.1827  -13.0426   20.9129 C   0  0  0  0  0  0
  -24.6362  -11.6875   20.8681 C   0  0  0  0  0  0
  -23.9013  -10.4285   21.0373 C   0  0  0  0  0  0
  -24.3574   -9.4219   21.9156 C   0  0  0  0  0  0
  -23.6273   -8.2241   22.0724 C   0  0  0  0  0  0
  -22.4256   -8.0277   21.3527 C   0  0  0  0  0  0
  -21.9876   -9.0234   20.4616 C   0  0  0  0  0  0
  -22.7171  -10.2128   20.3017 C   0  0  0  0  0  0
  -21.6848   -6.0716   22.5274 C   0  0  0  0  0  0
  -21.4014   -6.5626   23.8208 C   0  0  0  0  0  0
  -21.3667   -5.6781   24.9178 C   0  0  0  0  0  0
  -21.6053   -4.3047   24.7233 C   0  0  0  0  0  0
  -21.8814   -3.8125   23.4354 C   0  0  0  0  0  0
  -21.9189   -4.6938   22.3405 C   0  0  0  0  0  0
  -22.7869  -13.5229   21.1866 C   0  0  0  0  0  0
  -22.1648   -4.2122   21.0983 F   0  0  0  0  0  0
  -21.5644   -3.4534   25.7752 F   0  0  0  0  0  0
  -30.0588  -13.1966   20.4784 N   0  0  0  0  0  0
  -26.3033  -12.9278   20.3373 N   0  0  0  0  0  0
  -25.9281  -11.6437   20.5675 N   0  0  0  0  0  0
  -22.0553  -12.8174   22.0440 N   0  0  0  0  0  0
  -25.4536  -15.1865   20.4341 N   0  0  0  0  0  0
  -31.7360  -14.6899   20.0247 O   0  0  0  0  0  0
  -21.6640   -6.8853   21.4227 O   0  0  0  0  0  0
  -22.3529  -14.5559   20.6787 O   0  0  0  0  0  0
  -24.6070  -31.8731   23.2100 C   0  0  0  0  0  0
  -25.8964  -32.4854   23.8419 C   0  0  1  0  0  0
  -27.2480  -27.4960   20.1035 C   0  0  0  0  0  0
  -25.5849  -33.8654   24.2347 N   0  0  0  0  0  0
  -23.3948  -30.4928   21.5484 C   0  0  2  0  0  0
  -24.8488  -28.9648   20.1109 C   0  0  0  0  0  0
  -22.7385  -29.4637   22.4975 C   0  0  0  0  0  0
  -18.0274  -28.1364   22.8494 C   0  0  0  0  0  0
  -24.1492  -36.7322   23.2645 C   0  0  0  0  0  0
  -25.9159  -30.8630   21.3498 C   0  0  0  0  0  0
  -25.9999  -29.4999   20.7008 C   0  0  0  0  0  0
  -27.2045  -28.7712   20.6962 C   0  0  0  0  0  0
  -26.0927  -26.9633   19.4979 C   0  0  0  0  0  0
  -24.8861  -27.6941   19.5046 C   0  0  0  0  0  0
  -23.6019  -29.8190   20.1632 C   0  0  0  0  0  0
  -25.4106  -36.3133   24.0363 C   0  0  1  0  0  0
  -20.5853  -28.3624   23.1352 C   0  0  2  0  0  0
  -20.6755  -26.9356   22.5447 C   0  0  0  0  0  0
  -19.5729  -26.6367   21.5238 C   0  0  0  0  0  0
  -18.1898  -26.7915   22.1619 C   0  0  0  0  0  0
  -19.1517  -28.8803   23.2933 C   0  0  0  0  0  0
  -18.9450  -30.1412   23.8921 C   0  0  0  0  0  0
  -17.6441  -30.6573   24.0546 C   0  0  0  0  0  0
  -25.9021  -34.9486   23.5161 C   0  0  0  0  0  0
  -16.5332  -29.9073   23.6324 C   0  0  0  0  0  0
  -16.7256  -28.6504   23.0344 C   0  0  0  0  0  0
  -26.4420  -31.6615   25.0724 C   0  0  0  0  0  0
  -25.3706  -31.3679   26.1494 C   0  0  0  0  0  0
  -27.0241  -30.3083   24.6006 C   0  0  0  0  0  0
  -27.6017  -32.4331   25.7457 C   0  0  0  0  0  0
  -27.5581  -37.1812   24.8469 C   0  0  0  0  0  0
  -21.4114  -29.2998   22.3747 N   0  0  0  0  0  0
  -26.4293  -37.3819   23.9413 N   0  0  0  0  0  0
  -24.6566  -31.0903   22.0957 N   0  0  0  0  0  0
  -23.4207  -28.8182   23.2985 O   0  0  0  0  0  0
  -28.4027  -26.7608   20.1498 O   0  0  0  0  0  0
  -26.5607  -34.8923   22.4726 O   0  0  0  0  0  0
  -23.5286  -32.1408   23.7582 O   0  0  0  0  0  0
  -26.4891  -20.6935   21.3980 C   0  0  0  0  0  0
  -29.0558  -17.0285   21.5992 C   0  0  0  0  0  0
  -26.9571  -19.3257   20.9676 C   0  0  0  0  0  0
  -26.9705  -19.5405   23.4504 C   0  0  0  0  0  0
  -27.2596  -18.5787   22.2776 C   0  0  2  0  0  0
  -26.2238  -20.7849   22.9027 C   0  0  2  0  0  0
  -24.1487  -20.6246   24.5066 C   0  0  0  0  0  0
  -29.2010  -22.0451   22.9536 C   0  0  0  0  0  0
  -30.4474  -16.4674   21.9066 C   0  0  0  0  0  0
  -24.6857  -20.6176   23.0676 C   0  0  0  0  0  0
  -26.7478  -22.1347   23.5185 C   0  0  0  0  0  0
  -28.2916  -24.8063   21.5172 C   0  0  0  0  0  0
  -28.0519  -24.2192   22.9216 C   0  0  0  0  0  0
  -28.6903  -26.2846   21.4686 C   0  0  0  0  0  0
  -28.6317  -18.0679   22.3222 N   0  0  0  0  0  0
  -30.3675  -15.0183   21.7749 N   0  0  0  0  0  0
  -27.9031  -22.7480   22.7915 N   0  3  1  0  0  0
  -26.4051  -21.6574   20.6328 O   0  0  0  0  0  0
  -28.3516  -16.5061   20.7299 O   0  0  0  0  0  0
  -31.4602  -12.3696   19.0989 H   0  0  0  0  0  0
  -30.2925  -11.2457   19.7391 H   0  0  0  0  0  0
  -29.7174  -11.8646   17.3748 H   0  0  0  0  0  0
  -29.6535  -13.5518   17.8125 H   0  0  0  0  0  0
  -27.8219  -11.3217   18.7843 H   0  0  0  0  0  0
  -27.3501  -12.6800   17.7911 H   0  0  0  0  0  0
  -27.7285  -14.2482   19.6136 H   0  0  0  0  0  0
  -28.6473  -11.8817   21.3213 H   0  0  0  0  0  0
  -28.4352  -13.5019   21.8868 H   0  0  0  0  0  0
  -25.2728   -9.5706   22.4723 H   0  0  0  0  0  0
  -24.0024   -7.4618   22.7404 H   0  0  0  0  0  0
  -21.0815   -8.8676   19.8925 H   0  0  0  0  0  0
  -22.3587  -10.9641   19.6112 H   0  0  0  0  0  0
  -21.2007   -7.6136   23.9693 H   0  0  0  0  0  0
  -21.1502   -6.0532   25.9078 H   0  0  0  0  0  0
  -22.0600   -2.7592   23.2863 H   0  0  0  0  0  0
  -22.4217  -11.9809   22.4715 H   0  0  0  0  0  0
  -21.1165  -13.1129   22.2702 H   0  0  0  0  0  0
  -24.7254  -15.8682   20.6122 H   0  0  0  0  0  0
  -26.3687  -15.6087   20.2962 H   0  0  0  0  0  0
  -26.7030  -32.5580   23.1195 H   0  0  0  0  0  0
  -25.0018  -33.9811   25.0509 H   0  0  0  0  0  0
  -22.6793  -31.3078   21.4095 H   0  0  0  0  0  0
  -23.3763  -35.9651   23.3346 H   0  0  0  0  0  0
  -24.3589  -36.8894   22.2049 H   0  0  0  0  0  0
  -23.7231  -37.6538   23.6627 H   0  0  0  0  0  0
  -26.0154  -31.6313   20.5809 H   0  0  0  0  0  0
  -26.8096  -30.9299   21.9574 H   0  0  0  0  0  0
  -28.0941  -29.1826   21.1536 H   0  0  0  0  0  0
  -26.1274  -25.9848   19.0453 H   0  0  0  0  0  0
  -24.0002  -27.2747   19.0473 H   0  0  0  0  0  0
  -23.6932  -30.5923   19.4004 H   0  0  0  0  0  0
  -22.7353  -29.2236   19.8768 H   0  0  0  0  0  0
  -25.1281  -36.2022   25.0868 H   0  0  0  0  0  0
  -20.9950  -28.3167   24.1477 H   0  0  0  0  0  0
  -20.5652  -26.2185   23.3611 H   0  0  0  0  0  0
  -21.6613  -26.7409   22.1194 H   0  0  0  0  0  0
  -19.6866  -25.6298   21.1222 H   0  0  0  0  0  0
  -19.6684  -27.3207   20.6790 H   0  0  0  0  0  0
  -17.4175  -26.6695   21.4013 H   0  0  0  0  0  0
  -18.0254  -26.0074   22.9017 H   0  0  0  0  0  0
  -19.7922  -30.7241   24.2286 H   0  0  0  0  0  0
  -17.5003  -31.6254   24.5136 H   0  0  0  0  0  0
  -15.5324  -30.2976   23.7648 H   0  0  0  0  0  0
  -15.8665  -28.0836   22.7031 H   0  0  0  0  0  0
  -24.5877  -30.7034   25.7821 H   0  0  0  0  0  0
  -24.8899  -32.2822   26.4995 H   0  0  0  0  0  0
  -25.8090  -30.8812   27.0210 H   0  0  0  0  0  0
  -26.2739  -29.6847   24.1127 H   0  0  0  0  0  0
  -27.4147  -29.7306   25.4388 H   0  0  0  0  0  0
  -27.8500  -30.4469   23.9022 H   0  0  0  0  0  0
  -27.2648  -33.3607   26.2077 H   0  0  0  0  0  0
  -28.3762  -32.6931   25.0242 H   0  0  0  0  0  0
  -28.0735  -31.8443   26.5323 H   0  0  0  0  0  0
  -28.2611  -38.0092   24.7553 H   0  0  0  0  0  0
  -28.1072  -36.2647   24.6274 H   0  0  0  0  0  0
  -27.2325  -37.1446   25.8876 H   0  0  0  0  0  0
  -20.9244  -29.8767   21.7036 H   0  0  0  0  0  0
  -26.0208  -38.2906   24.1428 H   0  0  0  0  0  0
  -27.8342  -19.4293   20.3284 H   0  0  0  0  0  0
  -26.1694  -18.8303   20.4011 H   0  0  0  0  0  0
  -27.8902  -19.8294   23.9569 H   0  0  0  0  0  0
  -26.3964  -19.0106   24.2084 H   0  0  0  0  0  0
  -26.5723  -17.7349   22.3558 H   0  0  0  0  0  0
  -23.0707  -20.4623   24.5017 H   0  0  0  0  0  0
  -24.3254  -21.5783   25.0009 H   0  0  0  0  0  0
  -24.5836  -19.8355   25.1171 H   0  0  0  0  0  0
  -29.1721  -21.0340   22.5489 H   0  0  0  0  0  0
  -29.5034  -21.9977   23.9995 H   0  0  0  0  0  0
  -29.9888  -22.5600   22.4048 H   0  0  0  0  0  0
  -31.1721  -16.9076   21.2194 H   0  0  0  0  0  0
  -30.7580  -16.7257   22.9188 H   0  0  0  0  0  0
  -24.3646  -19.6858   22.5944 H   0  0  0  0  0  0
  -24.1774  -21.4072   22.5109 H   0  0  0  0  0  0
  -26.9890  -22.0193   24.5765 H   0  0  0  0  0  0
  -25.9206  -22.8455   23.4856 H   0  0  0  0  0  0
  -27.3806  -24.6600   20.9329 H   0  0  0  0  0  0
  -29.0711  -24.2476   20.9976 H   0  0  0  0  0  0
  -27.1641  -24.6799   23.3579 H   0  0  0  0  0  0
  -28.8682  -24.4596   23.6057 H   0  0  0  0  0  0
  -28.1677  -26.8396   22.2495 H   0  0  0  0  0  0
  -29.7551  -26.4044   21.6789 H   0  0  0  0  0  0
  -29.2686  -18.4453   23.0132 H   0  0  0  0  0  0
  -29.6294  -14.5866   22.3083 H   0  0  0  0  0  0
  -27.6315  -22.6331   21.8221 H   0  0  0  0  0  0
  1 25  1  0  0  0
  1 30  2  0  0  0
  1 86  1  0  0  0
  2  3  1  0  0  0
  2 25  1  0  0  0
  2 90  1  0  0  0
  2 91  1  0  0  0
  3  4  1  0  0  0
  3 92  1  0  0  0
  3 93  1  0  0  0
  4  5  1  0  0  0
  4 94  1  0  0  0
  4 95  1  0  0  0
  5  6  1  0  0  0
  5 26  1  0  0  0
  5 96  1  0  0  0
  6 25  1  0  0  0
  6 97  1  0  0  0
  6 98  1  0  0  0
  7  8  2  0  0  0
  7 26  1  0  0  0
  7 29  1  0  0  0
  8  9  1  0  0  0
  8 22  1  0  0  0
  9 10  1  0  0  0
  9 27  2  0  0  0
 10 11  2  0  0  0
 10 15  1  0  0  0
 11 12  1  0  0  0
 11 99  1  0  0  0
 12 13  2  0  0  0
 12100  1  0  0  0
 13 14  1  0  0  0
 13 31  1  0  0  0
 14 15  2  0  0  0
 14101  1  0  0  0
 15102  1  0  0  0
 16 17  2  0  0  0
 16 21  1  0  0  0
 16 31  1  0  0  0
 17 18  1  0  0  0
 17103  1  0  0  0
 18 19  2  0  0  0
 18104  1  0  0  0
 19 20  1  0  0  0
 19 24  1  0  0  0
 20 21  2  0  0  0
 20105  1  0  0  0
 21 23  1  0  0  0
 22 28  1  0  0  0
 22 32  2  0  0  0
 26 27  1  0  0  0
 28106  1  0  0  0
 28107  1  0  0  0
 29108  1  0  0  0
 29109  1  0  0  0
 33 34  1  0  0  0
 33 66  1  0  0  0
 33 70  2  0  0  0
 34 36  1  0  0  0
 34 59  1  0  0  0
 34110  1  0  0  0
 35 44  2  0  0  0
 35 45  1  0  0  0
 35 68  1  0  0  0
 36 56  1  0  0  0
 36111  1  0  0  0
 37 39  1  0  0  0
 37 47  1  0  0  0
 37 66  1  0  0  0
 37112  1  0  0  0
 38 43  2  0  0  0
 38 46  1  0  0  0
 38 47  1  0  0  0
 39 64  1  0  0  0
 39 67  2  0  0  0
 40 52  1  0  0  0
 40 53  2  0  0  0
 40 58  1  0  0  0
 41113  1  0  0  0
 41114  1  0  0  0
 41115  1  0  0  0
 41 48  1  0  0  0
 42 43  1  0  0  0
 42 66  1  0  0  0
 42116  1  0  0  0
 42117  1  0  0  0
 43 44  1  0  0  0
 44118  1  0  0  0
 45 46  2  0  0  0
 45119  1  0  0  0
 46120  1  0  0  0
 47121  1  0  0  0
 47122  1  0  0  0
 48 56  1  0  0  0
 48 65  1  0  0  0
 48123  1  0  0  0
 49 50  1  0  0  0
 49 53  1  0  0  0
 49 64  1  0  0  0
 49124  1  0  0  0
 50 51  1  0  0  0
 50125  1  0  0  0
 50126  1  0  0  0
 51 52  1  0  0  0
 51127  1  0  0  0
 51128  1  0  0  0
 52129  1  0  0  0
 52130  1  0  0  0
 53 54  1  0  0  0
 54 55  2  0  0  0
 54131  1  0  0  0
 55 57  1  0  0  0
 55132  1  0  0  0
 56 69  2  0  0  0
 57 58  2  0  0  0
 57133  1  0  0  0
 58134  1  0  0  0
 59 60  1  0  0  0
 59 61  1  0  0  0
 59 62  1  0  0  0
 60135  1  0  0  0
 60136  1  0  0  0
 60137  1  0  0  0
 61138  1  0  0  0
 61139  1  0  0  0
 61140  1  0  0  0
 62141  1  0  0  0
 62142  1  0  0  0
 62143  1  0  0  0
 63 65  1  0  0  0
 63144  1  0  0  0
 63145  1  0  0  0
 63146  1  0  0  0
 64147  1  0  0  0
 65148  1  0  0  0
 68 84  1  0  0  0
 71 73  1  0  0  0
 71 76  1  0  0  0
 71 88  2  0  0  0
 72 79  1  0  0  0
 72 85  1  0  0  0
 72 89  2  0  0  0
 73 75  1  0  0  0
 73149  1  0  0  0
 73150  1  0  0  0
 74 75  1  0  0  0
 74 76  1  0  0  0
 74151  1  0  0  0
 74152  1  0  0  0
 75 85  1  0  0  0
 75153  1  0  0  0
 76 80  1  0  0  0
 76 81  1  0  0  0
 77 80  1  0  0  0
 77154  1  0  0  0
 77155  1  0  0  0
 77156  1  0  0  0
 78157  1  0  0  0
 78158  1  0  0  0
 78159  1  0  0  0
 78 87  1  0  0  0
 79 86  1  0  0  0
 79160  1  0  0  0
 79161  1  0  0  0
 80162  1  0  0  0
 80163  1  0  0  0
 81 87  1  0  0  0
 81164  1  0  0  0
 81165  1  0  0  0
 82 83  1  0  0  0
 82 84  1  0  0  0
 82166  1  0  0  0
 82167  1  0  0  0
 83 87  1  0  0  0
 83168  1  0  0  0
 83169  1  0  0  0
 84170  1  0  0  0
 84171  1  0  0  0
 85172  1  0  0  0
 86173  1  0  0  0
 87174  1  0  0  0
M  CHG  1  87   1
M  ISO  4   1 100  68 101  84 101  86 100
M  END
> <chiral flag>
0

> <version>
0

> <s_m_source_file>
/data/baiqing/PycharmProjects/Reinvent-master-3.2/result/LINK_invent/BTK/process_docking_weight1_custom_sum_contain_oxygen_bond_distance_aromatic_linkinvent_7_9_3/rearranged_h_0024.sdf

> <i_m_source_file_index>
51

> <r_mmod_Potential_Energy-OPLS-2005>
-300.588409423828

> <r_mmod_Stretch_Energy-OPLS-2005>
36.2563018798828

> <r_mmod_Bend_Energy-OPLS-2005>
114.200904846191

> <r_mmod_Torsional_Energy-OPLS-2005>
268.488250732422

> <r_mmod_Improper_Torsional_Energy-OPLS-2005>
4.50635147094727

> <r_mmod_Van_der_Waal_Energy-OPLS-2005>
140.591506958008

> <r_mmod_Electrostatic_Energy-OPLS-2005>
-406.380462646484

> <r_mmod_Solvation_Energy-OPLS-2005>
-466.729339599609

> <b_mmod_Minimization_Converged-OPLS-2005>
0

> <r_mmod_RMS_Derivative-OPLS-2005>
4.25405836105347

$$$$
51
                    3D
 Structure written by MMmdl.
165173  0  0  1  0            999 V2000
  -30.6797  -15.0656   20.3747 C   0  0  0  0  0  0
  -30.4113  -12.7042   19.4671 C   0  0  0  0  0  0
  -29.4898  -12.5308   18.2455 C   0  0  0  0  0  0
  -28.0459  -12.2799   18.7057 C   0  0  0  0  0  0
  -27.6092  -13.2446   19.8373 C   0  0  2  0  0  0
  -28.6830  -13.4272   20.9387 C   0  0  0  0  0  0
  -25.2010  -13.7788   20.5518 C   0  0  0  0  0  0
  -24.1512  -13.0056   20.9271 C   0  0  0  0  0  0
  -24.6346  -11.6669   20.8901 C   0  0  0  0  0  0
  -23.9073  -10.4087   21.0477 C   0  0  0  0  0  0
  -24.3613   -9.4024   21.9252 C   0  0  0  0  0  0
  -23.6255   -8.2094   22.0785 C   0  0  0  0  0  0
  -22.4242   -8.0191   21.3550 C   0  0  0  0  0  0
  -21.9899   -9.0165   20.4647 C   0  0  0  0  0  0
  -22.7266  -10.2007   20.3078 C   0  0  0  0  0  0
  -21.6809   -6.0699   22.5286 C   0  0  0  0  0  0
  -21.3980   -6.5615   23.8217 C   0  0  0  0  0  0
  -21.3645   -5.6775   24.9183 C   0  0  0  0  0  0
  -21.6043   -4.3040   24.7236 C   0  0  0  0  0  0
  -21.8823   -3.8127   23.4359 C   0  0  0  0  0  0
  -21.9178   -4.6936   22.3411 C   0  0  0  0  0  0
  -22.7549  -13.4890   21.1907 C   0  0  0  0  0  0
  -22.1657   -4.2129   21.0989 F   0  0  0  0  0  0
  -21.5633   -3.4527   25.7750 F   0  0  0  0  0  0
  -29.9114  -13.8849   20.2552 N   0  0  0  0  0  0
  -26.2769  -12.9309   20.3455 N   0  0  0  0  0  0
  -25.9342  -11.6430   20.6050 N   0  0  0  0  0  0
  -22.0243  -12.7964   22.0546 N   0  0  0  0  0  0
  -25.2709  -15.1331   20.3379 N   0  0  0  0  0  0
  -31.8927  -14.8280   20.3349 O   0  0  0  0  0  0
  -21.6574   -6.8825   21.4246 O   0  0  0  0  0  0
  -22.3242  -14.5219   20.6766 O   0  0  0  0  0  0
  -24.6435  -31.8426   23.1854 C   0  0  0  0  0  0
  -25.9201  -32.4690   23.8256 C   0  0  1  0  0  0
  -27.2420  -27.1409   20.1661 C   0  0  0  0  0  0
  -25.5945  -33.8495   24.2178 N   0  0  0  0  0  0
  -23.4488  -30.4570   21.5311 C   0  0  2  0  0  0
  -24.9029  -28.8715   20.1217 C   0  0  0  0  0  0
  -22.7568  -29.4537   22.4873 C   0  0  0  0  0  0
  -18.0303  -28.1398   22.8477 C   0  0  0  0  0  0
  -24.1492  -36.7254   23.2644 C   0  0  0  0  0  0
  -26.0026  -30.7190   21.3812 C   0  0  0  0  0  0
  -26.0793  -29.3257   20.7321 C   0  0  0  0  0  0
  -27.2507  -28.4798   20.7285 C   0  0  0  0  0  0
  -26.0351  -26.7729   19.5352 C   0  0  0  0  0  0
  -24.8923  -27.6068   19.5088 C   0  0  0  0  0  0
  -23.6776  -29.7737   20.1556 C   0  0  0  0  0  0
  -25.4124  -36.3030   24.0316 C   0  0  1  0  0  0
  -20.5914  -28.3724   23.1241 C   0  0  2  0  0  0
  -20.6786  -26.9427   22.5407 C   0  0  0  0  0  0
  -19.5760  -26.6385   21.5214 C   0  0  0  0  0  0
  -18.1942  -26.7937   22.1623 C   0  0  0  0  0  0
  -19.1558  -28.8880   23.2850 C   0  0  0  0  0  0
  -18.9474  -30.1477   23.8875 C   0  0  0  0  0  0
  -17.6469  -30.6594   24.0559 C   0  0  0  0  0  0
  -25.9072  -34.9405   23.5058 C   0  0  0  0  0  0
  -16.5361  -29.9086   23.6336 C   0  0  0  0  0  0
  -16.7287  -28.6506   23.0357 C   0  0  0  0  0  0
  -26.4525  -31.6561   25.0700 C   0  0  0  0  0  0
  -25.3709  -31.3743   26.1393 C   0  0  0  0  0  0
  -27.0395  -30.2962   24.6274 C   0  0  0  0  0  0
  -27.6053  -32.4330   25.7487 C   0  0  0  0  0  0
  -27.5576  -37.1783   24.8467 C   0  0  0  0  0  0
  -21.4261  -29.3046   22.3614 N   0  0  0  0  0  0
  -26.4289  -37.3743   23.9407 N   0  0  0  0  0  0
  -24.7181  -31.0278   22.0883 N   0  0  0  0  0  0
  -23.4202  -28.8101   23.3044 O   0  0  0  0  0  0
  -28.3389  -26.2059   20.1379 O   0  0  0  0  0  0
  -26.5662  -34.8906   22.4640 O   0  0  0  0  0  0
  -23.5552  -32.1299   23.7072 O   0  0  0  0  0  0
  -27.2702  -16.7624   21.8030 C   0  0  0  0  0  0
  -27.0956  -18.0371   22.3382 C   0  0  0  0  0  0
  -28.0086  -16.6675   20.6187 C   0  0  0  0  0  0
  -27.7419  -19.1269   21.7025 C   0  0  0  0  0  0
  -28.8945  -18.9067   20.8489 C   0  0  0  0  0  0
  -29.1819  -17.4060   20.6267 C   0  0  0  0  0  0
  -26.1066  -18.2055   23.4820 C   0  0  0  0  0  0
  -27.2517  -16.9525   19.3090 C   0  0  0  0  0  0
  -27.0651  -20.4768   21.9186 C   0  0  0  0  0  0
  -31.3786  -17.2840   19.5569 C   0  0  0  0  0  0
  -29.5303  -20.2909   20.1940 C   0  0  0  0  0  0
  -29.3708  -21.9163   20.7259 C   0  0  0  0  0  0
  -28.7513  -23.2856   19.9371 C   0  0  0  0  0  0
  -28.2680  -24.7403   20.6606 C   0  0  0  0  0  0
  -30.3092  -16.4817   20.1730 N   0  0  0  0  0  0
  -31.4326  -12.8348   19.1066 H   0  0  0  0  0  0
  -30.4327  -11.7990   20.0760 H   0  0  0  0  0  0
  -29.8340  -11.7059   17.6202 H   0  0  0  0  0  0
  -29.5298  -13.4271   17.6244 H   0  0  0  0  0  0
  -27.9916  -11.2513   19.0638 H   0  0  0  0  0  0
  -27.3594  -12.3458   17.8605 H   0  0  0  0  0  0
  -27.5213  -14.1985   19.3406 H   0  0  0  0  0  0
  -28.8472  -12.5004   21.4903 H   0  0  0  0  0  0
  -28.3671  -14.1653   21.6743 H   0  0  0  0  0  0
  -25.2744   -9.5484   22.4854 H   0  0  0  0  0  0
  -23.9927   -7.4467   22.7504 H   0  0  0  0  0  0
  -21.0832   -8.8707   19.8945 H   0  0  0  0  0  0
  -22.3768  -10.9570   19.6190 H   0  0  0  0  0  0
  -21.1964   -7.6122   23.9714 H   0  0  0  0  0  0
  -21.1469   -6.0509   25.9085 H   0  0  0  0  0  0
  -22.0622   -2.7592   23.2864 H   0  0  0  0  0  0
  -22.3871  -11.9643   22.4957 H   0  0  0  0  0  0
  -21.0887  -13.1035   22.2792 H   0  0  0  0  0  0
  -24.4661  -15.7345   20.4677 H   0  0  0  0  0  0
  -26.1320  -15.6419   20.1791 H   0  0  0  0  0  0
  -26.7271  -32.5306   23.0991 H   0  0  0  0  0  0
  -25.0069  -33.9606   25.0310 H   0  0  0  0  0  0
  -22.7520  -31.2821   21.3698 H   0  0  0  0  0  0
  -23.3759  -35.9581   23.3294 H   0  0  0  0  0  0
  -24.3576  -36.8899   22.2061 H   0  0  0  0  0  0
  -23.7243  -37.6444   23.6689 H   0  0  0  0  0  0
  -26.1521  -31.4692   20.6035 H   0  0  0  0  0  0
  -26.8747  -30.7770   22.0210 H   0  0  0  0  0  0
  -28.1560  -28.8343   21.2011 H   0  0  0  0  0  0
  -25.9708  -25.8030   19.0621 H   0  0  0  0  0  0
  -23.9937  -27.2510   19.0237 H   0  0  0  0  0  0
  -23.8138  -30.5412   19.3929 H   0  0  0  0  0  0
  -22.7938  -29.2114   19.8491 H   0  0  0  0  0  0
  -25.1314  -36.1855   25.0808 H   0  0  0  0  0  0
  -21.0002  -28.3313   24.1363 H   0  0  0  0  0  0
  -20.5682  -26.2337   23.3626 H   0  0  0  0  0  0
  -21.6653  -26.7433   22.1205 H   0  0  0  0  0  0
  -19.6921  -25.6291   21.1259 H   0  0  0  0  0  0
  -19.6698  -27.3183   20.6735 H   0  0  0  0  0  0
  -17.4212  -26.6685   21.4027 H   0  0  0  0  0  0
  -18.0337  -26.0086   22.9026 H   0  0  0  0  0  0
  -19.7949  -30.7301   24.2236 H   0  0  0  0  0  0
  -17.5020  -31.6272   24.5166 H   0  0  0  0  0  0
  -15.5360  -30.2979   23.7674 H   0  0  0  0  0  0
  -15.8688  -28.0817   22.7083 H   0  0  0  0  0  0
  -24.5898  -30.7083   25.7707 H   0  0  0  0  0  0
  -24.8886  -32.2921   26.4768 H   0  0  0  0  0  0
  -25.7992  -30.8947   27.0204 H   0  0  0  0  0  0
  -26.3011  -29.6678   24.1282 H   0  0  0  0  0  0
  -27.4019  -29.7268   25.4844 H   0  0  0  0  0  0
  -27.8910  -30.4208   23.9581 H   0  0  0  0  0  0
  -27.2647  -33.3653   26.2006 H   0  0  0  0  0  0
  -28.3894  -32.6856   25.0335 H   0  0  0  0  0  0
  -28.0689  -31.8494   26.5452 H   0  0  0  0  0  0
  -28.2586  -38.0086   24.7512 H   0  0  0  0  0  0
  -28.1079  -36.2614   24.6296 H   0  0  0  0  0  0
  -27.2292  -37.1432   25.8869 H   0  0  0  0  0  0
  -20.9482  -29.8740   21.6769 H   0  0  0  0  0  0
  -26.0155  -38.2811   24.1408 H   0  0  0  0  0  0
  -26.6647  -15.9493   22.1745 H   0  0  0  0  0  0
  -26.0439  -17.2941   24.0778 H   0  0  0  0  0  0
  -25.1084  -18.4230   23.1010 H   0  0  0  0  0  0
  -26.4095  -19.0095   24.1534 H   0  0  0  0  0  0
  -26.2865  -17.4226   19.5019 H   0  0  0  0  0  0
  -27.0941  -16.0824   18.6808 H   0  0  0  0  0  0
  -27.7926  -17.6548   18.6715 H   0  0  0  0  0  0
  -26.0021  -20.3628   22.1260 H   0  0  0  0  0  0
  -27.0678  -21.0877   21.0195 H   0  0  0  0  0  0
  -27.4887  -21.0082   22.7700 H   0  0  0  0  0  0
  -30.9727  -18.1462   19.0296 H   0  0  0  0  0  0
  -31.9427  -16.7339   18.8010 H   0  0  0  0  0  0
  -32.0753  -17.6429   20.3152 H   0  0  0  0  0  0
  -29.2360  -20.2747   19.1445 H   0  0  0  0  0  0
  -30.6028  -20.1004   20.1688 H   0  0  0  0  0  0
  -30.4150  -22.2077   20.8446 H   0  0  0  0  0  0
  -29.0804  -21.9537   21.7696 H   0  0  0  0  0  0
  -27.8992  -22.9491   19.3462 H   0  0  0  0  0  0
  -29.4955  -23.5538   19.1870 H   0  0  0  0  0  0
  -28.8535  -24.7925   21.5785 H   0  0  0  0  0  0
  -27.2501  -24.5851   21.0198 H   0  0  0  0  0  0
  1 25  1  0  0  0
  1 30  2  0  0  0
  1 85  1  0  0  0
  2  3  1  0  0  0
  2 25  1  0  0  0
  2 86  1  0  0  0
  2 87  1  0  0  0
  3  4  1  0  0  0
  3 88  1  0  0  0
  3 89  1  0  0  0
  4  5  1  0  0  0
  4 90  1  0  0  0
  4 91  1  0  0  0
  5  6  1  0  0  0
  5 26  1  0  0  0
  5 92  1  0  0  0
  6 25  1  0  0  0
  6 93  1  0  0  0
  6 94  1  0  0  0
  7  8  2  0  0  0
  7 26  1  0  0  0
  7 29  1  0  0  0
  8  9  1  0  0  0
  8 22  1  0  0  0
  9 10  1  0  0  0
  9 27  2  0  0  0
 10 11  2  0  0  0
 10 15  1  0  0  0
 11 12  1  0  0  0
 11 95  1  0  0  0
 12 13  2  0  0  0
 12 96  1  0  0  0
 13 14  1  0  0  0
 13 31  1  0  0  0
 14 15  2  0  0  0
 14 97  1  0  0  0
 15 98  1  0  0  0
 16 17  2  0  0  0
 16 21  1  0  0  0
 16 31  1  0  0  0
 17 18  1  0  0  0
 17 99  1  0  0  0
 18 19  2  0  0  0
 18100  1  0  0  0
 19 20  1  0  0  0
 19 24  1  0  0  0
 20 21  2  0  0  0
 20101  1  0  0  0
 21 23  1  0  0  0
 22 28  1  0  0  0
 22 32  2  0  0  0
 26 27  1  0  0  0
 28102  1  0  0  0
 28103  1  0  0  0
 29104  1  0  0  0
 29105  1  0  0  0
 33 34  1  0  0  0
 33 66  1  0  0  0
 33 70  2  0  0  0
 34 36  1  0  0  0
 34 59  1  0  0  0
 34106  1  0  0  0
 35 44  2  0  0  0
 35 45  1  0  0  0
 35 68  1  0  0  0
 36 56  1  0  0  0
 36107  1  0  0  0
 37 39  1  0  0  0
 37 47  1  0  0  0
 37 66  1  0  0  0
 37108  1  0  0  0
 38 43  2  0  0  0
 38 46  1  0  0  0
 38 47  1  0  0  0
 39 64  1  0  0  0
 39 67  2  0  0  0
 40 52  1  0  0  0
 40 53  2  0  0  0
 40 58  1  0  0  0
 41109  1  0  0  0
 41110  1  0  0  0
 41111  1  0  0  0
 41 48  1  0  0  0
 42 43  1  0  0  0
 42 66  1  0  0  0
 42112  1  0  0  0
 42113  1  0  0  0
 43 44  1  0  0  0
 44114  1  0  0  0
 45 46  2  0  0  0
 45115  1  0  0  0
 46116  1  0  0  0
 47117  1  0  0  0
 47118  1  0  0  0
 48 56  1  0  0  0
 48 65  1  0  0  0
 48119  1  0  0  0
 49 50  1  0  0  0
 49 53  1  0  0  0
 49 64  1  0  0  0
 49120  1  0  0  0
 50 51  1  0  0  0
 50121  1  0  0  0
 50122  1  0  0  0
 51 52  1  0  0  0
 51123  1  0  0  0
 51124  1  0  0  0
 52125  1  0  0  0
 52126  1  0  0  0
 53 54  1  0  0  0
 54 55  2  0  0  0
 54127  1  0  0  0
 55 57  1  0  0  0
 55128  1  0  0  0
 56 69  2  0  0  0
 57 58  2  0  0  0
 57129  1  0  0  0
 58130  1  0  0  0
 59 60  1  0  0  0
 59 61  1  0  0  0
 59 62  1  0  0  0
 60131  1  0  0  0
 60132  1  0  0  0
 60133  1  0  0  0
 61134  1  0  0  0
 61135  1  0  0  0
 61136  1  0  0  0
 62137  1  0  0  0
 62138  1  0  0  0
 62139  1  0  0  0
 63 65  1  0  0  0
 63140  1  0  0  0
 63141  1  0  0  0
 63142  1  0  0  0
 64143  1  0  0  0
 65144  1  0  0  0
 68 84  1  0  0  0
 71 72  2  0  0  0
 71 73  1  0  0  0
 71145  1  0  0  0
 72 74  1  0  0  0
 72 77  1  0  0  0
 73 76  2  0  0  0
 73 78  1  0  0  0
 74 75  2  0  0  0
 74 79  1  0  0  0
 75 76  1  0  0  0
 75 81  1  0  0  0
 76 85  1  0  0  0
 77146  1  0  0  0
 77147  1  0  0  0
 77148  1  0  0  0
 78149  1  0  0  0
 78150  1  0  0  0
 78151  1  0  0  0
 79152  1  0  0  0
 79153  1  0  0  0
 79154  1  0  0  0
 80 85  1  0  0  0
 80155  1  0  0  0
 80156  1  0  0  0
 80157  1  0  0  0
 81 82  1  0  0  0
 81158  1  0  0  0
 81159  1  0  0  0
 82 83  1  0  0  0
 82160  1  0  0  0
 82161  1  0  0  0
 83 84  1  0  0  0
 83162  1  0  0  0
 83163  1  0  0  0
 84164  1  0  0  0
 84165  1  0  0  0
M  ISO  4   1 100  68 101  84 101  85 100
M  END
> <chiral flag>
0

> <version>
0

> <s_m_source_file>
/data/baiqing/PycharmProjects/Reinvent-master-3.2/result/LINK_invent/BTK/process_docking_weight1_custom_sum_contain_oxygen_bond_distance_aromatic_linkinvent_7_9_3/rearranged_h_0024.sdf

> <i_m_source_file_index>
52

> <r_mmod_Potential_Energy-OPLS-2005>
1270.47900390625

> <r_mmod_Stretch_Energy-OPLS-2005>
343.967620849609

> <r_mmod_Bend_Energy-OPLS-2005>
445.761199951172

> <r_mmod_Torsional_Energy-OPLS-2005>
518.980529785156

> <r_mmod_Improper_Torsional_Energy-OPLS-2005>
34.9555511474609

> <r_mmod_Van_der_Waal_Energy-OPLS-2005>
192.568420410156

> <r_mmod_Electrostatic_Energy-OPLS-2005>
-341.038269042969

> <r_mmod_Solvation_Energy-OPLS-2005>
-174.109970092773

> <b_mmod_Minimization_Converged-OPLS-2005>
0

> <r_mmod_RMS_Derivative-OPLS-2005>
0.445861011743546

$$$$
52
                    3D
 Structure written by MMmdl.
184192  0  0  1  0            999 V2000
  -30.7019  -14.4122   20.5819 C   0  0  0  0  0  0
  -30.4262  -12.2677   19.4098 C   0  0  0  0  0  0
  -29.4973  -12.5027   18.2010 C   0  0  0  0  0  0
  -28.0112  -12.3943   18.6019 C   0  0  0  0  0  0
  -27.6670  -13.2006   19.8836 C   0  0  2  0  0  0
  -28.7079  -12.9264   20.9927 C   0  0  0  0  0  0
  -25.2592  -13.8138   20.5639 C   0  0  0  0  0  0
  -24.1837  -13.0448   20.9155 C   0  0  0  0  0  0
  -24.6418  -11.6930   20.8814 C   0  0  0  0  0  0
  -23.9103  -10.4319   21.0516 C   0  0  0  0  0  0
  -24.3659   -9.4195   21.9252 C   0  0  0  0  0  0
  -23.6341   -8.2215   22.0762 C   0  0  0  0  0  0
  -22.4315   -8.0275   21.3580 C   0  0  0  0  0  0
  -21.9952   -9.0271   20.4701 C   0  0  0  0  0  0
  -22.7292  -10.2146   20.3146 C   0  0  0  0  0  0
  -21.6825   -6.0741   22.5291 C   0  0  0  0  0  0
  -21.3978   -6.5650   23.8225 C   0  0  0  0  0  0
  -21.3654   -5.6806   24.9191 C   0  0  0  0  0  0
  -21.6051   -4.3069   24.7243 C   0  0  0  0  0  0
  -21.8811   -3.8177   23.4354 C   0  0  0  0  0  0
  -21.9183   -4.6973   22.3414 C   0  0  0  0  0  0
  -22.7851  -13.5255   21.1791 C   0  0  0  0  0  0
  -22.1664   -4.2161   21.0986 F   0  0  0  0  0  0
  -21.5657   -3.4538   25.7749 F   0  0  0  0  0  0
  -30.0491  -13.2266   20.4549 N   0  0  0  0  0  0
  -26.3050  -12.9325   20.3405 N   0  0  0  0  0  0
  -25.9349  -11.6494   20.5834 N   0  0  0  0  0  0
  -22.0473  -12.8218   22.0303 N   0  0  0  0  0  0
  -25.4263  -15.1819   20.3882 N   0  0  0  0  0  0
  -31.7977  -14.6550   20.0690 O   0  0  0  0  0  0
  -21.6662   -6.8878   21.4245 O   0  0  0  0  0  0
  -22.3554  -14.5565   20.6676 O   0  0  0  0  0  0
  -24.6080  -31.8732   23.2155 C   0  0  0  0  0  0
  -25.8999  -32.4866   23.8422 C   0  0  1  0  0  0
  -27.2387  -27.4716   20.0890 C   0  0  0  0  0  0
  -25.5877  -33.8656   24.2363 N   0  0  0  0  0  0
  -23.3966  -30.4938   21.5538 C   0  0  2  0  0  0
  -24.8490  -28.9631   20.1198 C   0  0  0  0  0  0
  -22.7408  -29.4652   22.5018 C   0  0  0  0  0  0
  -18.0262  -28.1368   22.8474 C   0  0  0  0  0  0
  -24.1484  -36.7317   23.2632 C   0  0  0  0  0  0
  -25.9211  -30.8453   21.3685 C   0  0  0  0  0  0
  -26.0030  -29.4791   20.7230 C   0  0  0  0  0  0
  -27.2016  -28.7330   20.7165 C   0  0  0  0  0  0
  -26.0798  -26.9741   19.4608 C   0  0  0  0  0  0
  -24.8775  -27.7037   19.4961 C   0  0  0  0  0  0
  -23.6103  -29.8272   20.1675 C   0  0  0  0  0  0
  -25.4105  -36.3124   24.0346 C   0  0  1  0  0  0
  -20.5845  -28.3644   23.1347 C   0  0  2  0  0  0
  -20.6753  -26.9388   22.5426 C   0  0  0  0  0  0
  -19.5736  -26.6362   21.5215 C   0  0  0  0  0  0
  -18.1912  -26.7907   22.1617 C   0  0  0  0  0  0
  -19.1506  -28.8821   23.2900 C   0  0  0  0  0  0
  -18.9435  -30.1422   23.8912 C   0  0  0  0  0  0
  -17.6441  -30.6577   24.0552 C   0  0  0  0  0  0
  -25.9028  -34.9499   23.5159 C   0  0  0  0  0  0
  -16.5336  -29.9080   23.6318 C   0  0  0  0  0  0
  -16.7253  -28.6499   23.0339 C   0  0  0  0  0  0
  -26.4467  -31.6618   25.0723 C   0  0  0  0  0  0
  -25.3750  -31.3698   26.1479 C   0  0  0  0  0  0
  -27.0259  -30.3056   24.6058 C   0  0  0  0  0  0
  -27.6074  -32.4310   25.7458 C   0  0  0  0  0  0
  -27.5585  -37.1810   24.8472 C   0  0  0  0  0  0
  -21.4143  -29.3009   22.3762 N   0  0  0  0  0  0
  -26.4291  -37.3812   23.9424 N   0  0  0  0  0  0
  -24.6592  -31.0839   22.1055 N   0  0  0  0  0  0
  -23.4190  -28.8218   23.3057 O   0  0  0  0  0  0
  -28.4015  -26.7489   20.0422 O   0  0  0  0  0  0
  -26.5578  -34.8938   22.4716 O   0  0  0  0  0  0
  -23.5297  -32.1463   23.7587 O   0  0  0  0  0  0
  -25.2080  -18.4618   21.6880 C   0  0  0  0  0  0
  -26.1939  -18.4882   19.0650 C   0  0  0  0  0  0
  -24.3015  -18.5008   20.6072 C   0  0  0  0  0  0
  -27.1027  -18.5425   20.1456 C   0  0  0  0  0  0
  -26.5961  -18.5214   21.4688 C   0  0  0  0  0  0
  -24.8025  -18.4626   19.2888 C   0  0  0  0  0  0
  -22.8584  -18.5315   20.8818 C   0  0  0  0  0  0
  -22.0221  -19.5899   21.0506 C   0  0  0  0  0  0
  -20.5583  -19.2621   21.3370 C   0  0  0  0  0  0
  -21.7034  -21.8462   22.1938 C   0  0  0  0  0  0
  -21.7893  -21.6916   19.6907 C   0  0  0  0  0  0
  -28.5975  -18.6205   19.8443 C   0  0  0  0  0  0
  -29.2554  -17.2325   19.7388 C   0  0  0  0  0  0
  -25.9158  -22.9226   20.9003 C   0  0  0  0  0  0
  -26.5611  -24.2301   21.3810 C   0  0  0  0  0  0
  -24.4136  -22.8345   21.2266 C   0  0  0  0  0  0
  -27.9740  -24.4449   20.8067 C   0  0  0  0  0  0
  -23.8964  -21.3959   21.0368 C   0  0  0  0  0  0
  -30.0939  -16.8063   20.9654 C   0  0  0  0  0  0
  -28.5842  -25.8274   21.1161 C   0  0  0  0  0  0
  -22.3649  -21.1136   21.0020 C   0  0  0  0  0  0
  -29.9735  -15.3683   21.1689 N   0  0  0  0  0  0
  -27.6316  -18.6030   22.8501 Cl  0  0  0  0  0  0
  -23.7303  -18.4124   17.9328 Cl  0  0  0  0  0  0
  -31.4713  -12.3738   19.1109 H   0  0  0  0  0  0
  -30.3198  -11.2466   19.7784 H   0  0  0  0  0  0
  -29.7164  -11.7802   17.4139 H   0  0  0  0  0  0
  -29.6947  -13.4838   17.7683 H   0  0  0  0  0  0
  -27.7868  -11.3393   18.7579 H   0  0  0  0  0  0
  -27.3779  -12.7194   17.7763 H   0  0  0  0  0  0
  -27.7246  -14.2546   19.6198 H   0  0  0  0  0  0
  -28.6661  -11.8790   21.2944 H   0  0  0  0  0  0
  -28.4768  -13.4875   21.8987 H   0  0  0  0  0  0
  -25.2830   -9.5579   22.4809 H   0  0  0  0  0  0
  -24.0070   -7.4536   22.7389 H   0  0  0  0  0  0
  -21.0882   -8.8792   19.9006 H   0  0  0  0  0  0
  -22.3798  -10.9665   19.6239 H   0  0  0  0  0  0
  -21.1966   -7.6172   23.9707 H   0  0  0  0  0  0
  -21.1475   -6.0576   25.9079 H   0  0  0  0  0  0
  -22.0605   -2.7641   23.2871 H   0  0  0  0  0  0
  -22.4025  -11.9807   22.4611 H   0  0  0  0  0  0
  -21.1093  -13.1238   22.2470 H   0  0  0  0  0  0
  -24.6435  -15.8191   20.4540 H   0  0  0  0  0  0
  -26.2641  -15.6081   20.0183 H   0  0  0  0  0  0
  -26.7075  -32.5626   23.1192 H   0  0  0  0  0  0
  -25.0041  -33.9837   25.0517 H   0  0  0  0  0  0
  -22.6798  -31.3061   21.4162 H   0  0  0  0  0  0
  -23.3760  -35.9637   23.3313 H   0  0  0  0  0  0
  -24.3548  -36.8908   22.2033 H   0  0  0  0  0  0
  -23.7226  -37.6532   23.6628 H   0  0  0  0  0  0
  -26.0205  -31.6105   20.5963 H   0  0  0  0  0  0
  -26.8129  -30.9108   21.9782 H   0  0  0  0  0  0
  -28.0965  -29.1245   21.1809 H   0  0  0  0  0  0
  -26.1093  -26.0162   18.9608 H   0  0  0  0  0  0
  -23.9899  -27.3000   19.0308 H   0  0  0  0  0  0
  -23.7230  -30.6041   19.4098 H   0  0  0  0  0  0
  -22.7368  -29.2458   19.8659 H   0  0  0  0  0  0
  -25.1274  -36.1996   25.0838 H   0  0  0  0  0  0
  -20.9908  -28.3191   24.1481 H   0  0  0  0  0  0
  -20.5661  -26.2250   23.3605 H   0  0  0  0  0  0
  -21.6631  -26.7442   22.1212 H   0  0  0  0  0  0
  -19.6912  -25.6273   21.1235 H   0  0  0  0  0  0
  -19.6666  -27.3187   20.6757 H   0  0  0  0  0  0
  -17.4184  -26.6639   21.4024 H   0  0  0  0  0  0
  -18.0311  -26.0057   22.9020 H   0  0  0  0  0  0
  -19.7915  -30.7212   24.2320 H   0  0  0  0  0  0
  -17.5005  -31.6266   24.5142 H   0  0  0  0  0  0
  -15.5340  -30.2983   23.7640 H   0  0  0  0  0  0
  -15.8648  -28.0820   22.7065 H   0  0  0  0  0  0
  -24.5906  -30.7078   25.7801 H   0  0  0  0  0  0
  -24.8956  -32.2846   26.4982 H   0  0  0  0  0  0
  -25.8102  -30.8804   27.0202 H   0  0  0  0  0  0
  -26.2767  -29.6835   24.1146 H   0  0  0  0  0  0
  -27.4072  -29.7275   25.4488 H   0  0  0  0  0  0
  -27.8601  -30.4362   23.9152 H   0  0  0  0  0  0
  -27.2733  -33.3609   26.2074 H   0  0  0  0  0  0
  -28.3852  -32.6873   25.0249 H   0  0  0  0  0  0
  -28.0777  -31.8398   26.5322 H   0  0  0  0  0  0
  -28.2622  -38.0091   24.7518 H   0  0  0  0  0  0
  -28.1053  -36.2625   24.6294 H   0  0  0  0  0  0
  -27.2292  -37.1475   25.8870 H   0  0  0  0  0  0
  -20.9328  -29.8744   21.6980 H   0  0  0  0  0  0
  -26.0192  -38.2895   24.1444 H   0  0  0  0  0  0
  -24.8322  -18.4564   22.7005 H   0  0  0  0  0  0
  -26.5613  -18.4813   18.0495 H   0  0  0  0  0  0
  -22.4296  -17.5418   20.9495 H   0  0  0  0  0  0
  -20.3428  -18.2031   21.1869 H   0  0  0  0  0  0
  -19.8777  -19.8143   20.6912 H   0  0  0  0  0  0
  -20.3136  -19.4878   22.3751 H   0  0  0  0  0  0
  -20.6175  -21.7455   22.1930 H   0  0  0  0  0  0
  -21.8890  -22.9196   22.1655 H   0  0  0  0  0  0
  -22.0746  -21.4692   23.1479 H   0  0  0  0  0  0
  -20.7092  -21.5697   19.6253 H   0  0  0  0  0  0
  -22.2208  -21.2059   18.8145 H   0  0  0  0  0  0
  -21.9832  -22.7602   19.5964 H   0  0  0  0  0  0
  -29.1140  -19.2490   20.5687 H   0  0  0  0  0  0
  -28.7140  -19.1362   18.8889 H   0  0  0  0  0  0
  -29.9250  -17.2347   18.8785 H   0  0  0  0  0  0
  -28.4967  -16.4884   19.4947 H   0  0  0  0  0  0
  -26.4458  -22.0803   21.3467 H   0  0  0  0  0  0
  -26.0415  -22.8188   19.8196 H   0  0  0  0  0  0
  -26.6095  -24.2377   22.4704 H   0  0  0  0  0  0
  -25.9071  -25.0567   21.1243 H   0  0  0  0  0  0
  -23.8723  -23.5424   20.5997 H   0  0  0  0  0  0
  -24.2491  -23.1424   22.2591 H   0  0  0  0  0  0
  -27.9845  -24.2778   19.7285 H   0  0  0  0  0  0
  -28.6268  -23.6778   21.2269 H   0  0  0  0  0  0
  -24.3293  -20.8355   21.8624 H   0  0  0  0  0  0
  -24.3308  -21.0303   20.1066 H   0  0  0  0  0  0
  -29.7459  -17.2841   21.8770 H   0  0  0  0  0  0
  -31.1350  -17.1153   20.8507 H   0  0  0  0  0  0
  -28.2165  -26.2252   22.0650 H   0  0  0  0  0  0
  -29.6614  -25.7121   21.2374 H   0  0  0  0  0  0
  -29.1128  -15.0592   21.5962 H   0  0  0  0  0  0
  1 25  1  0  0  0
  1 30  2  0  0  0
  1 92  1  0  0  0
  2  3  1  0  0  0
  2 25  1  0  0  0
  2 95  1  0  0  0
  2 96  1  0  0  0
  3  4  1  0  0  0
  3 97  1  0  0  0
  3 98  1  0  0  0
  4  5  1  0  0  0
  4 99  1  0  0  0
  4100  1  0  0  0
  5  6  1  0  0  0
  5 26  1  0  0  0
  5101  1  0  0  0
  6 25  1  0  0  0
  6102  1  0  0  0
  6103  1  0  0  0
  7  8  2  0  0  0
  7 26  1  0  0  0
  7 29  1  0  0  0
  8  9  1  0  0  0
  8 22  1  0  0  0
  9 10  1  0  0  0
  9 27  2  0  0  0
 10 11  2  0  0  0
 10 15  1  0  0  0
 11 12  1  0  0  0
 11104  1  0  0  0
 12 13  2  0  0  0
 12105  1  0  0  0
 13 14  1  0  0  0
 13 31  1  0  0  0
 14 15  2  0  0  0
 14106  1  0  0  0
 15107  1  0  0  0
 16 17  2  0  0  0
 16 21  1  0  0  0
 16 31  1  0  0  0
 17 18  1  0  0  0
 17108  1  0  0  0
 18 19  2  0  0  0
 18109  1  0  0  0
 19 20  1  0  0  0
 19 24  1  0  0  0
 20 21  2  0  0  0
 20110  1  0  0  0
 21 23  1  0  0  0
 22 28  1  0  0  0
 22 32  2  0  0  0
 26 27  1  0  0  0
 28111  1  0  0  0
 28112  1  0  0  0
 29113  1  0  0  0
 29114  1  0  0  0
 33 34  1  0  0  0
 33 66  1  0  0  0
 33 70  2  0  0  0
 34 36  1  0  0  0
 34 59  1  0  0  0
 34115  1  0  0  0
 35 44  2  0  0  0
 35 45  1  0  0  0
 35 68  1  0  0  0
 36 56  1  0  0  0
 36116  1  0  0  0
 37 39  1  0  0  0
 37 47  1  0  0  0
 37 66  1  0  0  0
 37117  1  0  0  0
 38 43  2  0  0  0
 38 46  1  0  0  0
 38 47  1  0  0  0
 39 64  1  0  0  0
 39 67  2  0  0  0
 40 52  1  0  0  0
 40 53  2  0  0  0
 40 58  1  0  0  0
 41118  1  0  0  0
 41119  1  0  0  0
 41120  1  0  0  0
 41 48  1  0  0  0
 42 43  1  0  0  0
 42 66  1  0  0  0
 42121  1  0  0  0
 42122  1  0  0  0
 43 44  1  0  0  0
 44123  1  0  0  0
 45 46  2  0  0  0
 45124  1  0  0  0
 46125  1  0  0  0
 47126  1  0  0  0
 47127  1  0  0  0
 48 56  1  0  0  0
 48 65  1  0  0  0
 48128  1  0  0  0
 49 50  1  0  0  0
 49 53  1  0  0  0
 49 64  1  0  0  0
 49129  1  0  0  0
 50 51  1  0  0  0
 50130  1  0  0  0
 50131  1  0  0  0
 51 52  1  0  0  0
 51132  1  0  0  0
 51133  1  0  0  0
 52134  1  0  0  0
 52135  1  0  0  0
 53 54  1  0  0  0
 54 55  2  0  0  0
 54136  1  0  0  0
 55 57  1  0  0  0
 55137  1  0  0  0
 56 69  2  0  0  0
 57 58  2  0  0  0
 57138  1  0  0  0
 58139  1  0  0  0
 59 60  1  0  0  0
 59 61  1  0  0  0
 59 62  1  0  0  0
 60140  1  0  0  0
 60141  1  0  0  0
 60142  1  0  0  0
 61143  1  0  0  0
 61144  1  0  0  0
 61145  1  0  0  0
 62146  1  0  0  0
 62147  1  0  0  0
 62148  1  0  0  0
 63 65  1  0  0  0
 63149  1  0  0  0
 63150  1  0  0  0
 63151  1  0  0  0
 64152  1  0  0  0
 65153  1  0  0  0
 68 90  1  0  0  0
 71 73  2  0  0  0
 71 75  1  0  0  0
 71154  1  0  0  0
 72 74  1  0  0  0
 72 76  2  0  0  0
 72155  1  0  0  0
 73 76  1  0  0  0
 73 77  1  0  0  0
 74 75  2  0  0  0
 74 82  1  0  0  0
 75 93  1  0  0  0
 76 94  1  0  0  0
 77 78  2  0  0  0
 77156  1  0  0  0
 78 79  1  0  0  0
 78 91  1  0  0  0
 79157  1  0  0  0
 79158  1  0  0  0
 79159  1  0  0  0
 80160  1  0  0  0
 80161  1  0  0  0
 80162  1  0  0  0
 80 91  1  0  0  0
 81 91  1  0  0  0
 81163  1  0  0  0
 81164  1  0  0  0
 81165  1  0  0  0
 82 83  1  0  0  0
 82166  1  0  0  0
 82167  1  0  0  0
 83 89  1  0  0  0
 83168  1  0  0  0
 83169  1  0  0  0
 84 85  1  0  0  0
 84 86  1  0  0  0
 84170  1  0  0  0
 84171  1  0  0  0
 85 87  1  0  0  0
 85172  1  0  0  0
 85173  1  0  0  0
 86 88  1  0  0  0
 86174  1  0  0  0
 86175  1  0  0  0
 87 90  1  0  0  0
 87176  1  0  0  0
 87177  1  0  0  0
 88 91  1  0  0  0
 88178  1  0  0  0
 88179  1  0  0  0
 89 92  1  0  0  0
 89180  1  0  0  0
 89181  1  0  0  0
 90182  1  0  0  0
 90183  1  0  0  0
 92184  1  0  0  0
M  ISO  4   1 100  68 101  90 101  92 100
M  END
> <chiral flag>
0

> <version>
0

> <s_m_source_file>
/data/baiqing/PycharmProjects/Reinvent-master-3.2/result/LINK_invent/BTK/process_docking_weight1_custom_sum_contain_oxygen_bond_distance_aromatic_linkinvent_7_9_3/rearranged_h_0024.sdf

> <i_m_source_file_index>
53

> <r_mmod_Potential_Energy-OPLS-2005>
20.8494453430176

> <r_mmod_Stretch_Energy-OPLS-2005>
38.5503730773926

> <r_mmod_Bend_Energy-OPLS-2005>
116.373916625977

> <r_mmod_Torsional_Energy-OPLS-2005>
292.093963623047

> <r_mmod_Improper_Torsional_Energy-OPLS-2005>
5.13236093521118

> <r_mmod_Van_der_Waal_Energy-OPLS-2005>
141.544219970703

> <r_mmod_Electrostatic_Energy-OPLS-2005>
-402.061889648438

> <r_mmod_Solvation_Energy-OPLS-2005>
-178.689590454102

> <b_mmod_Minimization_Converged-OPLS-2005>
0

> <r_mmod_RMS_Derivative-OPLS-2005>
3.94111132621765

$$$$
53
                    3D
 Structure written by MMmdl.
197207  0  0  1  0            999 V2000
  -31.0029  -14.2694   20.7698 C   0  0  0  0  0  0
  -30.5379  -12.2770   19.3611 C   0  0  0  0  0  0
  -29.5027  -12.2778   18.2021 C   0  0  0  0  0  0
  -28.0399  -11.9455   18.6542 C   0  0  0  0  0  0
  -27.6820  -12.8835   19.7987 C   0  0  2  0  0  0
  -28.8106  -12.7136   20.8805 C   0  0  0  0  0  0
  -25.3720  -14.1760   20.8412 C   0  0  0  0  0  0
  -24.2343  -13.2245   20.9130 C   0  0  0  0  0  0
  -24.6246  -11.8292   20.8674 C   0  0  0  0  0  0
  -23.8979  -10.5281   21.0221 C   0  0  0  0  0  0
  -24.3506   -9.5100   21.9088 C   0  0  0  0  0  0
  -23.6377   -8.2893   22.0757 C   0  0  0  0  0  0
  -22.4412   -8.0630   21.3468 C   0  0  0  0  0  0
  -22.0068   -9.0493   20.4443 C   0  0  0  0  0  0
  -22.7279  -10.2520   20.2748 C   0  0  0  0  0  0
  -21.7036   -6.0872   22.5254 C   0  0  0  0  0  0
  -21.4191   -6.5746   23.8177 C   0  0  0  0  0  0
  -21.3709   -5.6868   24.9117 C   0  0  0  0  0  0
  -21.5983   -4.3113   24.7191 C   0  0  0  0  0  0
  -21.8825   -3.8236   23.4320 C   0  0  0  0  0  0
  -21.9288   -4.7074   22.3386 C   0  0  0  0  0  0
  -22.7319  -13.4566   21.0708 C   0  0  0  0  0  0
  -22.1681   -4.2229   21.0964 F   0  0  0  0  0  0
  -21.5598   -3.4595   25.7686 F   0  0  0  0  0  0
  -30.1670  -13.1880   20.4685 N   0  0  0  0  0  0
  -26.2725  -13.0311   20.3383 N   0  0  0  0  0  0
  -25.8617  -11.7557   20.5415 N   0  0  0  0  0  0
  -22.0816  -12.7890   22.0222 N   0  0  0  0  0  0
  -25.9629  -16.6329   21.5665 N   0  0  0  0  0  0
  -31.9017  -14.5750   19.9870 O   0  0  0  0  0  0
  -21.6949   -6.9060   21.4175 O   0  0  0  0  0  0
  -22.1495  -14.3172   20.4245 O   0  0  0  0  0  0
  -24.6374  -31.8577   23.2070 C   0  0  0  0  0  0
  -25.9181  -32.4813   23.8384 C   0  0  1  0  0  0
  -27.0612  -27.2089   20.0600 C   0  0  0  0  0  0
  -25.5979  -33.8611   24.2308 N   0  0  0  0  0  0
  -23.4207  -30.5054   21.5658 C   0  0  2  0  0  0
  -24.8279  -28.9680   20.1037 C   0  0  0  0  0  0
  -22.7534  -29.4642   22.4975 C   0  0  0  0  0  0
  -18.0281  -28.1381   22.8487 C   0  0  0  0  0  0
  -24.1470  -36.7292   23.2639 C   0  0  0  0  0  0
  -25.9795  -30.7533   21.3908 C   0  0  0  0  0  0
  -26.0220  -29.3806   20.7067 C   0  0  0  0  0  0
  -27.1677  -28.5111   20.6688 C   0  0  0  0  0  0
  -25.8598  -26.8969   19.4191 C   0  0  0  0  0  0
  -24.7497  -27.7328   19.4701 C   0  0  0  0  0  0
  -23.6238  -29.8797   20.1698 C   0  0  0  0  0  0
  -25.4112  -36.3120   24.0342 C   0  0  1  0  0  0
  -20.5886  -28.3649   23.1312 C   0  0  2  0  0  0
  -20.6776  -26.9373   22.5438 C   0  0  0  0  0  0
  -19.5734  -26.6346   21.5260 C   0  0  0  0  0  0
  -18.1904  -26.7904   22.1639 C   0  0  0  0  0  0
  -19.1541  -28.8850   23.2862 C   0  0  0  0  0  0
  -18.9445  -30.1457   23.8870 C   0  0  0  0  0  0
  -17.6436  -30.6579   24.0550 C   0  0  0  0  0  0
  -25.9069  -34.9479   23.5133 C   0  0  0  0  0  0
  -16.5323  -29.9059   23.6344 C   0  0  0  0  0  0
  -16.7265  -28.6484   23.0357 C   0  0  0  0  0  0
  -26.4468  -31.6653   25.0793 C   0  0  0  0  0  0
  -25.3662  -31.3800   26.1512 C   0  0  0  0  0  0
  -27.0347  -30.3098   24.6309 C   0  0  0  0  0  0
  -27.6036  -32.4384   25.7549 C   0  0  0  0  0  0
  -27.5602  -37.1802   24.8451 C   0  0  0  0  0  0
  -21.4236  -29.3014   22.3720 N   0  0  0  0  0  0
  -26.4276  -37.3838   23.9438 N   0  0  0  0  0  0
  -24.7005  -31.0610   22.1052 N   0  0  0  0  0  0
  -23.4319  -28.8179   23.2996 O   0  0  0  0  0  0
  -28.0181  -26.1856   20.0438 O   0  0  0  0  0  0
  -26.5621  -34.8942   22.4680 O   0  0  0  0  0  0
  -23.5551  -32.1339   23.7433 O   0  0  0  0  0  0
  -30.2707  -19.5823   24.2585 C   0  0  0  0  0  0
  -25.4141  -14.9552   23.0179 C   0  0  0  0  0  0
  -28.4206  -20.4075   22.3372 C   0  0  0  0  0  0
  -30.0465  -18.7390   23.1282 C   0  0  0  0  0  0
  -27.1174  -14.8154   22.2406 C   0  0  0  0  0  0
  -25.8586  -15.9230   19.4029 C   0  0  0  0  0  0
  -24.2101  -16.1516   20.2238 C   0  0  0  0  0  0
  -29.5649  -20.8054   24.4220 C   0  0  0  0  0  0
  -23.9906  -15.6518   22.0383 C   0  0  0  0  0  0
  -29.2086  -19.2828   22.1011 C   0  0  0  0  0  0
  -28.5719  -21.1745   23.4912 C   0  0  0  0  0  0
  -27.3475  -15.3660   20.3785 C   0  0  0  0  0  0
  -29.6124  -15.4164   24.8551 C   0  0  0  0  0  0
  -32.0983  -15.6988   24.1419 C   0  0  0  0  0  0
  -32.1306  -14.7987   22.8672 C   0  0  0  0  0  0
  -30.7494  -16.4505   21.8543 C   0  0  0  0  0  0
  -30.3547  -17.2138   23.1526 C   0  0  1  0  0  0
  -30.7434  -16.4141   24.4453 C   0  0  1  0  0  0
  -26.0656  -16.3771   17.9757 C   0  0  0  0  0  0
  -30.0241  -14.2686   25.7497 C   0  0  0  0  0  0
  -28.1489  -14.4430   23.3570 C   0  0  0  0  0  0
  -23.4750  -17.4889   19.8026 C   0  0  0  0  0  0
  -26.7549  -22.1067   19.7533 C   0  0  0  0  0  0
  -25.5203  -21.1442   19.3421 C   0  0  0  0  0  0
  -26.8714  -23.6523   19.2784 C   0  0  0  0  0  0
  -25.3731  -19.6069   19.8872 C   0  0  0  0  0  0
  -27.5461  -24.7498   20.2989 C   0  0  0  0  0  0
  -28.4300  -15.4652   24.3508 N   0  0  0  0  0  0
  -30.9739  -14.9717   21.9543 N   0  0  0  0  0  0
  -24.1049  -18.8619   19.4169 N   0  3  0  0  0  0
  -29.8185  -21.5897   25.4947 F   0  0  0  0  0  0
  -22.5979  -16.1673   22.9317 Cl  0  0  0  0  0  0
  -29.0534  -18.6999   20.4901 Cl  0  0  0  0  0  0
  -27.5282  -22.5400   23.7210 Cl  0  0  0  0  0  0
  -28.7508  -15.7476   19.4322 Cl  0  0  0  0  0  0
  -31.5184  -12.4761   18.9254 H   0  0  0  0  0  0
  -30.6528  -11.2787   19.7893 H   0  0  0  0  0  0
  -29.8432  -11.5504   17.4640 H   0  0  0  0  0  0
  -29.5474  -13.2500   17.7151 H   0  0  0  0  0  0
  -27.9996  -10.9042   18.9954 H   0  0  0  0  0  0
  -27.3360  -12.0258   17.8153 H   0  0  0  0  0  0
  -27.7781  -13.6307   19.0407 H   0  0  0  0  0  0
  -28.9427  -11.6357   20.9651 H   0  0  0  0  0  0
  -28.4570  -12.6899   21.8704 H   0  0  0  0  0  0
  -25.2442   -9.6748   22.4833 H   0  0  0  0  0  0
  -24.0146   -7.5516   22.7606 H   0  0  0  0  0  0
  -21.1115   -8.8799   19.8622 H   0  0  0  0  0  0
  -22.3631  -10.9822   19.5700 H   0  0  0  0  0  0
  -21.2216   -7.6265   23.9725 H   0  0  0  0  0  0
  -21.1464   -6.0576   25.9010 H   0  0  0  0  0  0
  -22.0531   -2.7700   23.2824 H   0  0  0  0  0  0
  -22.5503  -12.1082   22.6140 H   0  0  0  0  0  0
  -21.0984  -12.9613   22.1511 H   0  0  0  0  0  0
  -25.4867  -16.8569   22.4389 H   0  0  0  0  0  0
  -26.9508  -16.7081   21.7224 H   0  0  0  0  0  0
  -26.7198  -32.5426   23.1088 H   0  0  0  0  0  0
  -25.0150  -33.9718   25.0475 H   0  0  0  0  0  0
  -22.7067  -31.3260   21.4566 H   0  0  0  0  0  0
  -23.3794  -35.9565   23.3284 H   0  0  0  0  0  0
  -24.3534  -36.8938   22.2056 H   0  0  0  0  0  0
  -23.7121  -37.6453   23.6645 H   0  0  0  0  0  0
  -26.1263  -31.5225   20.6337 H   0  0  0  0  0  0
  -26.8469  -30.7840   22.0329 H   0  0  0  0  0  0
  -28.0953  -28.8038   21.1316 H   0  0  0  0  0  0
  -25.7462  -25.9888   18.8587 H   0  0  0  0  0  0
  -23.8169  -27.4202   19.0117 H   0  0  0  0  0  0
  -23.7694  -30.6697   19.4336 H   0  0  0  0  0  0
  -22.7198  -29.3581   19.8531 H   0  0  0  0  0  0
  -25.1258  -36.1992   25.0829 H   0  0  0  0  0  0
  -20.9888  -28.3212   24.1467 H   0  0  0  0  0  0
  -20.5728  -26.2235   23.3632 H   0  0  0  0  0  0
  -21.6633  -26.7446   22.1192 H   0  0  0  0  0  0
  -19.6878  -25.6255   21.1283 H   0  0  0  0  0  0
  -19.6691  -27.3176   20.6807 H   0  0  0  0  0  0
  -17.4186  -26.6687   21.4019 H   0  0  0  0  0  0
  -18.0271  -26.0045   22.9027 H   0  0  0  0  0  0
  -19.7916  -30.7284   24.2244 H   0  0  0  0  0  0
  -17.4977  -31.6256   24.5129 H   0  0  0  0  0  0
  -15.5311  -30.2937   23.7682 H   0  0  0  0  0  0
  -15.8667  -28.0787   22.7086 H   0  0  0  0  0  0
  -24.5793  -30.7219   25.7802 H   0  0  0  0  0  0
  -24.8919  -32.3004   26.4961 H   0  0  0  0  0  0
  -25.7936  -30.8905   27.0289 H   0  0  0  0  0  0
  -26.2969  -29.6849   24.1305 H   0  0  0  0  0  0
  -27.3995  -29.7361   25.4836 H   0  0  0  0  0  0
  -27.8842  -30.4437   23.9615 H   0  0  0  0  0  0
  -27.2660  -33.3671   26.2177 H   0  0  0  0  0  0
  -28.3825  -32.7004   25.0358 H   0  0  0  0  0  0
  -28.0757  -31.8499   26.5448 H   0  0  0  0  0  0
  -28.2557  -38.0160   24.7639 H   0  0  0  0  0  0
  -28.1148  -36.2719   24.6098 H   0  0  0  0  0  0
  -27.2332  -37.1241   25.8840 H   0  0  0  0  0  0
  -20.9442  -29.8834   21.7022 H   0  0  0  0  0  0
  -26.0188  -38.2899   24.1518 H   0  0  0  0  0  0
  -30.9369  -19.2960   25.0622 H   0  0  0  0  0  0
  -25.2749  -14.7162   24.0636 H   0  0  0  0  0  0
  -27.6994  -20.6386   21.5894 H   0  0  0  0  0  0
  -32.8577  -16.4746   24.0014 H   0  0  0  0  0  0
  -32.4774  -15.1177   24.9824 H   0  0  0  0  0  0
  -32.2114  -13.7451   23.1608 H   0  0  0  0  0  0
  -33.0704  -15.0347   22.3415 H   0  0  0  0  0  0
  -31.5177  -16.9472   21.2740 H   0  0  0  0  0  0
  -29.8391  -16.5334   21.3268 H   0  0  0  0  0  0
  -29.2833  -17.1401   23.1100 H   0  0  0  0  0  0
  -30.9345  -17.0794   25.2936 H   0  0  0  0  0  0
  -25.1156  -16.4631   17.4441 H   0  0  0  0  0  0
  -26.6808  -15.6469   17.4441 H   0  0  0  0  0  0
  -26.5592  -17.3490   17.9940 H   0  0  0  0  0  0
  -30.7208  -14.6070   26.5181 H   0  0  0  0  0  0
  -30.4929  -13.4847   25.1579 H   0  0  0  0  0  0
  -29.1389  -13.8553   26.2347 H   0  0  0  0  0  0
  -29.0928  -14.0894   22.9925 H   0  0  0  0  0  0
  -27.7411  -13.5707   23.8814 H   0  0  0  0  0  0
  -22.7795  -17.7494   20.6039 H   0  0  0  0  0  0
  -22.8376  -17.1940   18.9652 H   0  0  0  0  0  0
  -27.6950  -21.6244   19.4611 H   0  0  0  0  0  0
  -26.7640  -22.1665   20.8389 H   0  0  0  0  0  0
  -25.4077  -21.1312   18.2501 H   0  0  0  0  0  0
  -24.6470  -21.6815   19.7207 H   0  0  0  0  0  0
  -25.8617  -23.9419   18.9808 H   0  0  0  0  0  0
  -27.4343  -23.6450   18.3493 H   0  0  0  0  0  0
  -25.4111  -19.6842   20.9725 H   0  0  0  0  0  0
  -26.2448  -19.0124   19.6161 H   0  0  0  0  0  0
  -28.4182  -24.2778   20.7621 H   0  0  0  0  0  0
  -26.8036  -24.7939   21.0966 H   0  0  0  0  0  0
  -23.3912  -19.5029   19.7112 H   0  0  0  0  0  0
  -24.1043  -18.9271   18.4073 H   0  0  0  0  0  0
  1 25  1  0  0  0
  1 30  2  0  0  0
  1 99  1  0  0  0
  2  3  1  0  0  0
  2 25  1  0  0  0
  2106  1  0  0  0
  2107  1  0  0  0
  3  4  1  0  0  0
  3108  1  0  0  0
  3109  1  0  0  0
  4  5  1  0  0  0
  4110  1  0  0  0
  4111  1  0  0  0
  5  6  1  0  0  0
  5 26  1  0  0  0
  5112  1  0  0  0
  6 25  1  0  0  0
  6113  1  0  0  0
  6114  1  0  0  0
  7  8  2  0  0  0
  7 26  1  0  0  0
  7 29  1  0  0  0
  8  9  1  0  0  0
  8 22  1  0  0  0
  9 10  1  0  0  0
  9 27  2  0  0  0
 10 11  2  0  0  0
 10 15  1  0  0  0
 11 12  1  0  0  0
 11115  1  0  0  0
 12 13  2  0  0  0
 12116  1  0  0  0
 13 14  1  0  0  0
 13 31  1  0  0  0
 14 15  2  0  0  0
 14117  1  0  0  0
 15118  1  0  0  0
 16 17  2  0  0  0
 16 21  1  0  0  0
 16 31  1  0  0  0
 17 18  1  0  0  0
 17119  1  0  0  0
 18 19  2  0  0  0
 18120  1  0  0  0
 19 20  1  0  0  0
 19 24  1  0  0  0
 20 21  2  0  0  0
 20121  1  0  0  0
 21 23  1  0  0  0
 22 28  1  0  0  0
 22 32  2  0  0  0
 26 27  1  0  0  0
 28122  1  0  0  0
 28123  1  0  0  0
 29124  1  0  0  0
 29125  1  0  0  0
 33 34  1  0  0  0
 33 66  1  0  0  0
 33 70  2  0  0  0
 34 36  1  0  0  0
 34 59  1  0  0  0
 34126  1  0  0  0
 35 44  2  0  0  0
 35 45  1  0  0  0
 35 68  1  0  0  0
 36 56  1  0  0  0
 36127  1  0  0  0
 37 39  1  0  0  0
 37 47  1  0  0  0
 37 66  1  0  0  0
 37128  1  0  0  0
 38 43  2  0  0  0
 38 46  1  0  0  0
 38 47  1  0  0  0
 39 64  1  0  0  0
 39 67  2  0  0  0
 40 52  1  0  0  0
 40 53  2  0  0  0
 40 58  1  0  0  0
 41129  1  0  0  0
 41130  1  0  0  0
 41131  1  0  0  0
 41 48  1  0  0  0
 42 43  1  0  0  0
 42 66  1  0  0  0
 42132  1  0  0  0
 42133  1  0  0  0
 43 44  1  0  0  0
 44134  1  0  0  0
 45 46  2  0  0  0
 45135  1  0  0  0
 46136  1  0  0  0
 47137  1  0  0  0
 47138  1  0  0  0
 48 56  1  0  0  0
 48 65  1  0  0  0
 48139  1  0  0  0
 49 50  1  0  0  0
 49 53  1  0  0  0
 49 64  1  0  0  0
 49140  1  0  0  0
 50 51  1  0  0  0
 50141  1  0  0  0
 50142  1  0  0  0
 51 52  1  0  0  0
 51143  1  0  0  0
 51144  1  0  0  0
 52145  1  0  0  0
 52146  1  0  0  0
 53 54  1  0  0  0
 54 55  2  0  0  0
 54147  1  0  0  0
 55 57  1  0  0  0
 55148  1  0  0  0
 56 69  2  0  0  0
 57 58  2  0  0  0
 57149  1  0  0  0
 58150  1  0  0  0
 59 60  1  0  0  0
 59 61  1  0  0  0
 59 62  1  0  0  0
 60151  1  0  0  0
 60152  1  0  0  0
 60153  1  0  0  0
 61154  1  0  0  0
 61155  1  0  0  0
 61156  1  0  0  0
 62157  1  0  0  0
 62158  1  0  0  0
 62159  1  0  0  0
 63 65  1  0  0  0
 63160  1  0  0  0
 63161  1  0  0  0
 63162  1  0  0  0
 64163  1  0  0  0
 65164  1  0  0  0
 68 97  1  0  0  0
 71 74  2  0  0  0
 71 78  1  0  0  0
 71165  1  0  0  0
 72 75  2  0  0  0
 72 79  1  0  0  0
 72166  1  0  0  0
 73 80  2  0  0  0
 73 81  1  0  0  0
 73167  1  0  0  0
 74 80  1  0  0  0
 74 87  1  0  0  0
 75 82  1  0  0  0
 75 91  1  0  0  0
 76 77  1  0  0  0
 76 82  2  0  0  0
 76 89  1  0  0  0
 77 79  2  0  0  0
 77 92  1  0  0  0
 78 81  2  0  0  0
 78101  1  0  0  0
 79102  1  0  0  0
 80103  1  0  0  0
 81104  1  0  0  0
 82105  1  0  0  0
 83 90  1  0  0  0
 83 98  2  0  0  0
 83 88  1  0  0  0
 84 85  1  0  0  0
 84 88  1  0  0  0
 84168  1  0  0  0
 84169  1  0  0  0
 85 99  1  0  0  0
 85170  1  0  0  0
 85171  1  0  0  0
 86 87  1  0  0  0
 86 99  1  0  0  0
 86172  1  0  0  0
 86173  1  0  0  0
 87 88  1  0  0  0
 87174  1  0  0  0
 88175  1  0  0  0
 89176  1  0  0  0
 89177  1  0  0  0
 89178  1  0  0  0
 90179  1  0  0  0
 90180  1  0  0  0
 90181  1  0  0  0
 91 98  1  0  0  0
 91182  1  0  0  0
 91183  1  0  0  0
 92100  1  0  0  0
 92184  1  0  0  0
 92185  1  0  0  0
 93 94  1  0  0  0
 93 95  1  0  0  0
 93186  1  0  0  0
 93187  1  0  0  0
 94 96  1  0  0  0
 94188  1  0  0  0
 94189  1  0  0  0
 95 97  1  0  0  0
 95190  1  0  0  0
 95191  1  0  0  0
 96100  1  0  0  0
 96192  1  0  0  0
 96193  1  0  0  0
 97194  1  0  0  0
 97195  1  0  0  0
100196  1  0  0  0
100197  1  0  0  0
M  CHG  1 100   1
M  ISO  4   1 100  68 101  97 101  99 100
M  END
> <chiral flag>
0

> <version>
0

> <s_m_source_file>
/data/baiqing/PycharmProjects/Reinvent-master-3.2/result/LINK_invent/BTK/process_docking_weight1_custom_sum_contain_oxygen_bond_distance_aromatic_linkinvent_7_9_3/rearranged_h_0024.sdf

> <i_m_source_file_index>
54

> <r_mmod_Potential_Energy-OPLS-2005>
9805.16015625

> <r_mmod_Stretch_Energy-OPLS-2005>
5749.03955078125

> <r_mmod_Bend_Energy-OPLS-2005>
663.666748046875

> <r_mmod_Torsional_Energy-OPLS-2005>
591.285766601562

> <r_mmod_Improper_Torsional_Energy-OPLS-2005>
38.5303115844727

> <r_mmod_Van_der_Waal_Energy-OPLS-2005>
2927.92065429688

> <r_mmod_Electrostatic_Energy-OPLS-2005>
-322.408508300781

> <r_mmod_Solvation_Energy-OPLS-2005>
-416.384613037109

> <b_mmod_Minimization_Converged-OPLS-2005>
0

> <r_mmod_RMS_Derivative-OPLS-2005>
25.8398971557617

$$$$
54
                    3D
 Structure written by MMmdl.
168176  0  0  1  0            999 V2000
  -30.6064  -14.4853   20.5136 C   0  0  0  0  0  0
  -30.4390  -12.3149   19.4385 C   0  0  0  0  0  0
  -29.5111  -12.5666   18.2284 C   0  0  0  0  0  0
  -28.0250  -12.3730   18.5942 C   0  0  0  0  0  0
  -27.6577  -13.1514   19.8821 C   0  0  2  0  0  0
  -28.6881  -12.9409   21.0321 C   0  0  0  0  0  0
  -25.2548  -13.7810   20.5459 C   0  0  0  0  0  0
  -24.1717  -13.0161   20.9271 C   0  0  0  0  0  0
  -24.6284  -11.6682   20.8907 C   0  0  0  0  0  0
  -23.8909  -10.4089   21.0490 C   0  0  0  0  0  0
  -24.3505   -9.3934   21.9128 C   0  0  0  0  0  0
  -23.6113   -8.2042   22.0686 C   0  0  0  0  0  0
  -22.4082   -8.0163   21.3589 C   0  0  0  0  0  0
  -21.9802   -9.0099   20.4665 C   0  0  0  0  0  0
  -22.7164  -10.1952   20.3023 C   0  0  0  0  0  0
  -21.6710   -6.0647   22.5287 C   0  0  0  0  0  0
  -21.3900   -6.5560   23.8228 C   0  0  0  0  0  0
  -21.3646   -5.6741   24.9212 C   0  0  0  0  0  0
  -21.6048   -4.3003   24.7271 C   0  0  0  0  0  0
  -21.8846   -3.8079   23.4399 C   0  0  0  0  0  0
  -21.9136   -4.6882   22.3433 C   0  0  0  0  0  0
  -22.7795  -13.5152   21.1912 C   0  0  0  0  0  0
  -22.1613   -4.2067   21.1011 F   0  0  0  0  0  0
  -21.5667   -3.4491   25.7795 F   0  0  0  0  0  0
  -30.0396  -13.2500   20.5042 N   0  0  0  0  0  0
  -26.2931  -12.8831   20.3330 N   0  0  0  0  0  0
  -25.9155  -11.6018   20.5812 N   0  0  0  0  0  0
  -22.0312  -12.8163   22.0560 N   0  0  0  0  0  0
  -25.4085  -15.1327   20.3117 N   0  0  0  0  0  0
  -31.7010  -14.7552   20.0076 O   0  0  0  0  0  0
  -21.6504   -6.8753   21.4238 O   0  0  0  0  0  0
  -22.3596  -14.5399   20.6632 O   0  0  0  0  0  0
  -24.6454  -31.8724   23.2017 C   0  0  0  0  0  0
  -25.9433  -32.4586   23.8354 C   0  0  1  0  0  0
  -27.0634  -27.3035   20.1376 C   0  0  0  0  0  0
  -25.5900  -33.8367   24.2048 N   0  0  0  0  0  0
  -23.4070  -30.5362   21.5508 C   0  0  2  0  0  0
  -24.7991  -28.9986   20.1111 C   0  0  0  0  0  0
  -22.7505  -29.5082   22.4926 C   0  0  0  0  0  0
  -18.0467  -28.1714   22.8336 C   0  0  0  0  0  0
  -24.1292  -36.7146   23.2678 C   0  0  0  0  0  0
  -26.0085  -30.7478   21.4512 C   0  0  0  0  0  0
  -26.0168  -29.4380   20.6833 C   0  0  0  0  0  0
  -27.1914  -28.6250   20.6302 C   0  0  0  0  0  0
  -25.7610  -26.8321   19.9238 C   0  0  0  0  0  0
  -24.6688  -27.6567   19.7246 C   0  0  0  0  0  0
  -23.5916  -29.8977   20.1328 C   0  0  0  0  0  0
  -25.3987  -36.3011   24.0403 C   0  0  1  0  0  0
  -20.6032  -28.3972   23.1111 C   0  0  2  0  0  0
  -20.6883  -26.9655   22.5679 C   0  0  0  0  0  0
  -19.6062  -26.6614   21.5269 C   0  0  0  0  0  0
  -18.2218  -26.8153   22.1581 C   0  0  0  0  0  0
  -19.1772  -28.9222   23.2539 C   0  0  0  0  0  0
  -18.9698  -30.1784   23.8590 C   0  0  0  0  0  0
  -17.6701  -30.6853   24.0532 C   0  0  0  0  0  0
  -25.9110  -34.9405   23.5224 C   0  0  0  0  0  0
  -16.5503  -29.9425   23.6364 C   0  0  0  0  0  0
  -16.7467  -28.6891   23.0240 C   0  0  0  0  0  0
  -26.4774  -31.6620   25.1031 C   0  0  0  0  0  0
  -25.4084  -31.3697   26.1821 C   0  0  0  0  0  0
  -27.0725  -30.2925   24.7031 C   0  0  0  0  0  0
  -27.6454  -32.4396   25.7640 C   0  0  0  0  0  0
  -27.5500  -37.1795   24.8556 C   0  0  0  0  0  0
  -21.4426  -29.2835   22.3115 N   0  0  0  0  0  0
  -26.4130  -37.3799   23.9639 N   0  0  0  0  0  0
  -24.7071  -31.0774   22.0957 N   0  0  0  0  0  0
  -23.4398  -28.9060   23.3230 O   0  0  0  0  0  0
  -28.0879  -26.3836   19.8621 O   0  0  0  0  0  0
  -26.5637  -34.8904   22.4708 O   0  0  0  0  0  0
  -23.5658  -32.1546   23.7395 O   0  0  0  0  0  0
  -26.7709  -19.1793   21.2535 C   0  0  0  0  0  0
  -26.0280  -20.3329   21.0189 C   0  0  0  0  0  0
  -27.0525  -18.2011   20.2866 C   0  0  0  0  0  0
  -25.6958  -19.5437   18.7057 C   0  0  0  0  0  0
  -25.3928  -20.4662   19.7844 C   0  0  0  0  0  0
  -26.5363  -18.3992   18.9808 C   0  0  0  0  0  0
  -25.8994  -21.3769   22.1555 C   0  0  0  0  0  0
  -27.9719  -17.0639   20.8481 C   0  0  0  0  0  0
  -25.2277  -19.9873   17.3023 C   0  0  0  0  0  0
  -26.9854  -23.3918   17.5057 C   0  0  0  0  0  0
  -27.6732  -23.9339   18.8071 C   0  0  0  0  0  0
  -29.0964  -16.4078   20.0412 C   0  0  0  0  0  0
  -27.0239  -21.8514   17.2846 C   0  0  0  0  0  0
  -27.8006  -25.4977   18.7059 C   0  0  0  0  0  0
  -29.7841  -15.4538   20.9391 N   0  0  0  0  0  0
  -25.6040  -21.4087   17.0612 N   0  3  0  0  0  0
  -24.4794  -21.9644   19.6102 Cl  0  0  0  0  0  0
  -27.0041  -17.2742   17.7386 Cl  0  0  0  0  0  0
  -31.4904  -12.4411   19.1444 H   0  0  0  0  0  0
  -30.3695  -11.2871   19.7968 H   0  0  0  0  0  0
  -29.8179  -11.9429   17.3908 H   0  0  0  0  0  0
  -29.6660  -13.5945   17.9035 H   0  0  0  0  0  0
  -27.8172  -11.3176   18.7029 H   0  0  0  0  0  0
  -27.4216  -12.7061   17.7588 H   0  0  0  0  0  0
  -27.6813  -14.1994   19.6079 H   0  0  0  0  0  0
  -28.6819  -11.9107   21.4124 H   0  0  0  0  0  0
  -28.4178  -13.5876   21.8809 H   0  0  0  0  0  0
  -25.2672   -9.5300   22.4661 H   0  0  0  0  0  0
  -23.9808   -7.4401   22.7306 H   0  0  0  0  0  0
  -21.0766   -8.8593   19.8942 H   0  0  0  0  0  0
  -22.3649  -10.9446   19.6076 H   0  0  0  0  0  0
  -21.1827   -7.6041   23.9730 H   0  0  0  0  0  0
  -21.1467   -6.0451   25.9145 H   0  0  0  0  0  0
  -22.0658   -2.7517   23.2936 H   0  0  0  0  0  0
  -22.3880  -11.9826   22.5014 H   0  0  0  0  0  0
  -21.0900  -13.1140   22.2804 H   0  0  0  0  0  0
  -24.6190  -15.7549   20.4319 H   0  0  0  0  0  0
  -26.2811  -15.6100   20.1057 H   0  0  0  0  0  0
  -26.7566  -32.4932   23.1029 H   0  0  0  0  0  0
  -24.9924  -33.9316   25.0108 H   0  0  0  0  0  0
  -22.7263  -31.3927   21.4494 H   0  0  0  0  0  0
  -23.3762  -35.9318   23.3460 H   0  0  0  0  0  0
  -24.3377  -36.8666   22.2118 H   0  0  0  0  0  0
  -23.6957  -37.6329   23.6637 H   0  0  0  0  0  0
  -26.3793  -31.5555   20.8306 H   0  0  0  0  0  0
  -26.7976  -30.5456   22.1762 H   0  0  0  0  0  0
  -28.1558  -28.9890   20.9536 H   0  0  0  0  0  0
  -25.5939  -25.7619   19.9344 H   0  0  0  0  0  0
  -23.7416  -27.2410   19.3544 H   0  0  0  0  0  0
  -23.7894  -30.7066   19.4280 H   0  0  0  0  0  0
  -22.6706  -29.4008   19.7408 H   0  0  0  0  0  0
  -25.1147  -36.1915   25.0923 H   0  0  0  0  0  0
  -21.0027  -28.3969   24.1260 H   0  0  0  0  0  0
  -20.5327  -26.2894   23.4152 H   0  0  0  0  0  0
  -21.6866  -26.7313   22.1906 H   0  0  0  0  0  0
  -19.7320  -25.6440   21.1450 H   0  0  0  0  0  0
  -19.7095  -27.3331   20.6768 H   0  0  0  0  0  0
  -17.4331  -26.6540   21.4256 H   0  0  0  0  0  0
  -18.0824  -26.0753   22.9432 H   0  0  0  0  0  0
  -19.8273  -30.7727   24.1651 H   0  0  0  0  0  0
  -17.5362  -31.6583   24.5265 H   0  0  0  0  0  0
  -15.5577  -30.3312   23.7874 H   0  0  0  0  0  0
  -15.8789  -28.1213   22.6836 H   0  0  0  0  0  0
  -24.6366  -30.6810   25.8318 H   0  0  0  0  0  0
  -24.9141  -32.2692   26.5421 H   0  0  0  0  0  0
  -25.8554  -30.9000   27.0612 H   0  0  0  0  0  0
  -26.3281  -29.6295   24.2548 H   0  0  0  0  0  0
  -27.4573  -29.7623   25.5820 H   0  0  0  0  0  0
  -27.9230  -30.4099   24.0294 H   0  0  0  0  0  0
  -27.3215  -33.3652   26.2303 H   0  0  0  0  0  0
  -28.4034  -32.6868   25.0243 H   0  0  0  0  0  0
  -28.1418  -31.8598   26.5396 H   0  0  0  0  0  0
  -28.2583  -37.9968   24.7516 H   0  0  0  0  0  0
  -28.0783  -36.2627   24.6346 H   0  0  0  0  0  0
  -27.2251  -37.1437   25.8899 H   0  0  0  0  0  0
  -21.0374  -29.7279   21.4970 H   0  0  0  0  0  0
  -26.0004  -38.2854   24.1737 H   0  0  0  0  0  0
  -27.2717  -19.1299   22.2075 H   0  0  0  0  0  0
  -25.1759  -22.1727   22.0704 H   0  0  0  0  0  0
  -25.6401  -20.8596   23.0611 H   0  0  0  0  0  0
  -26.8506  -21.8316   22.4259 H   0  0  0  0  0  0
  -27.3914  -16.3131   21.3823 H   0  0  0  0  0  0
  -28.5606  -17.5621   21.6082 H   0  0  0  0  0  0
  -24.1491  -19.8770   17.1564 H   0  0  0  0  0  0
  -25.6214  -19.3490   16.5143 H   0  0  0  0  0  0
  -27.3440  -23.8849   16.5833 H   0  0  0  0  0  0
  -25.9272  -23.7165   17.5796 H   0  0  0  0  0  0
  -28.6619  -23.4613   18.8556 H   0  0  0  0  0  0
  -27.0971  -23.5382   19.6740 H   0  0  0  0  0  0
  -29.7732  -17.2090   19.7519 H   0  0  0  0  0  0
  -28.7724  -15.9096   19.1203 H   0  0  0  0  0  0
  -27.4171  -21.3568   18.1796 H   0  0  0  0  0  0
  -27.7113  -21.6203   16.4475 H   0  0  0  0  0  0
  -26.8807  -25.7805   18.1572 H   0  0  0  0  0  0
  -28.5843  -25.7407   17.9759 H   0  0  0  0  0  0
  -29.2395  -15.1964   21.7632 H   0  0  0  0  0  0
  -25.0904  -21.8934   17.8215 H   0  0  0  0  0  0
  -25.2454  -21.7411   16.1928 H   0  0  0  0  0  0
  1 25  1  0  0  0
  1 30  2  0  0  0
  1 85  1  0  0  0
  2  3  1  0  0  0
  2 25  1  0  0  0
  2 89  1  0  0  0
  2 90  1  0  0  0
  3  4  1  0  0  0
  3 91  1  0  0  0
  3 92  1  0  0  0
  4  5  1  0  0  0
  4 93  1  0  0  0
  4 94  1  0  0  0
  5  6  1  0  0  0
  5 26  1  0  0  0
  5 95  1  0  0  0
  6 25  1  0  0  0
  6 96  1  0  0  0
  6 97  1  0  0  0
  7  8  2  0  0  0
  7 26  1  0  0  0
  7 29  1  0  0  0
  8  9  1  0  0  0
  8 22  1  0  0  0
  9 10  1  0  0  0
  9 27  2  0  0  0
 10 11  2  0  0  0
 10 15  1  0  0  0
 11 12  1  0  0  0
 11 98  1  0  0  0
 12 13  2  0  0  0
 12 99  1  0  0  0
 13 14  1  0  0  0
 13 31  1  0  0  0
 14 15  2  0  0  0
 14100  1  0  0  0
 15101  1  0  0  0
 16 17  2  0  0  0
 16 21  1  0  0  0
 16 31  1  0  0  0
 17 18  1  0  0  0
 17102  1  0  0  0
 18 19  2  0  0  0
 18103  1  0  0  0
 19 20  1  0  0  0
 19 24  1  0  0  0
 20 21  2  0  0  0
 20104  1  0  0  0
 21 23  1  0  0  0
 22 28  1  0  0  0
 22 32  2  0  0  0
 26 27  1  0  0  0
 28105  1  0  0  0
 28106  1  0  0  0
 29107  1  0  0  0
 29108  1  0  0  0
 33 34  1  0  0  0
 33 66  1  0  0  0
 33 70  2  0  0  0
 34 36  1  0  0  0
 34 59  1  0  0  0
 34109  1  0  0  0
 35 44  2  0  0  0
 35 45  1  0  0  0
 35 68  1  0  0  0
 36 56  1  0  0  0
 36110  1  0  0  0
 37 39  1  0  0  0
 37 47  1  0  0  0
 37 66  1  0  0  0
 37111  1  0  0  0
 38 43  2  0  0  0
 38 46  1  0  0  0
 38 47  1  0  0  0
 39 64  1  0  0  0
 39 67  2  0  0  0
 40 52  1  0  0  0
 40 53  2  0  0  0
 40 58  1  0  0  0
 41112  1  0  0  0
 41113  1  0  0  0
 41114  1  0  0  0
 41 48  1  0  0  0
 42 43  1  0  0  0
 42 66  1  0  0  0
 42115  1  0  0  0
 42116  1  0  0  0
 43 44  1  0  0  0
 44117  1  0  0  0
 45 46  2  0  0  0
 45118  1  0  0  0
 46119  1  0  0  0
 47120  1  0  0  0
 47121  1  0  0  0
 48 56  1  0  0  0
 48 65  1  0  0  0
 48122  1  0  0  0
 49 50  1  0  0  0
 49 53  1  0  0  0
 49 64  1  0  0  0
 49123  1  0  0  0
 50 51  1  0  0  0
 50124  1  0  0  0
 50125  1  0  0  0
 51 52  1  0  0  0
 51126  1  0  0  0
 51127  1  0  0  0
 52128  1  0  0  0
 52129  1  0  0  0
 53 54  1  0  0  0
 54 55  2  0  0  0
 54130  1  0  0  0
 55 57  1  0  0  0
 55131  1  0  0  0
 56 69  2  0  0  0
 57 58  2  0  0  0
 57132  1  0  0  0
 58133  1  0  0  0
 59 60  1  0  0  0
 59 61  1  0  0  0
 59 62  1  0  0  0
 60134  1  0  0  0
 60135  1  0  0  0
 60136  1  0  0  0
 61137  1  0  0  0
 61138  1  0  0  0
 61139  1  0  0  0
 62140  1  0  0  0
 62141  1  0  0  0
 62142  1  0  0  0
 63 65  1  0  0  0
 63143  1  0  0  0
 63144  1  0  0  0
 63145  1  0  0  0
 64146  1  0  0  0
 65147  1  0  0  0
 68 84  1  0  0  0
 71 72  2  0  0  0
 71 73  1  0  0  0
 71148  1  0  0  0
 72 75  1  0  0  0
 72 77  1  0  0  0
 73 76  2  0  0  0
 73 78  1  0  0  0
 74 75  2  0  0  0
 74 76  1  0  0  0
 74 79  1  0  0  0
 75 87  1  0  0  0
 76 88  1  0  0  0
 77149  1  0  0  0
 77150  1  0  0  0
 77151  1  0  0  0
 78 82  1  0  0  0
 78152  1  0  0  0
 78153  1  0  0  0
 79 86  1  0  0  0
 79154  1  0  0  0
 79155  1  0  0  0
 80 81  1  0  0  0
 80 83  1  0  0  0
 80156  1  0  0  0
 80157  1  0  0  0
 81 84  1  0  0  0
 81158  1  0  0  0
 81159  1  0  0  0
 82 85  1  0  0  0
 82160  1  0  0  0
 82161  1  0  0  0
 83 86  1  0  0  0
 83162  1  0  0  0
 83163  1  0  0  0
 84164  1  0  0  0
 84165  1  0  0  0
 85166  1  0  0  0
 86167  1  0  0  0
 86168  1  0  0  0
M  CHG  1  86   1
M  ISO  4   1 100  68 101  84 101  85 100
M  END
> <chiral flag>
0

> <version>
0

> <s_m_source_file>
/data/baiqing/PycharmProjects/Reinvent-master-3.2/result/LINK_invent/BTK/process_docking_weight1_custom_sum_contain_oxygen_bond_distance_aromatic_linkinvent_7_9_3/rearranged_h_0024.sdf

> <i_m_source_file_index>
55

> <r_mmod_Potential_Energy-OPLS-2005>
108.736427307129

> <r_mmod_Stretch_Energy-OPLS-2005>
84.0764770507812

> <r_mmod_Bend_Energy-OPLS-2005>
206.308441162109

> <r_mmod_Torsional_Energy-OPLS-2005>
320.487609863281

> <r_mmod_Improper_Torsional_Energy-OPLS-2005>
12.5302715301514

> <r_mmod_Van_der_Waal_Energy-OPLS-2005>
195.219772338867

> <r_mmod_Electrostatic_Energy-OPLS-2005>
-343.621429443359

> <r_mmod_Solvation_Energy-OPLS-2005>
-472.289093017578

> <b_mmod_Minimization_Converged-OPLS-2005>
0

> <r_mmod_RMS_Derivative-OPLS-2005>
47.8187675476074

$$$$
55
                    3D
 Structure written by MMmdl.
169179  0  0  1  0            999 V2000
  -30.4829  -15.1063   20.4032 C   0  0  0  0  0  0
  -30.4438  -12.7050   19.4990 C   0  0  0  0  0  0
  -29.5226  -12.5391   18.2668 C   0  0  0  0  0  0
  -28.0678  -12.2878   18.7020 C   0  0  0  0  0  0
  -27.6185  -13.2534   19.8283 C   0  0  2  0  0  0
  -28.6596  -13.3582   20.9599 C   0  0  0  0  0  0
  -25.2421  -13.8211   20.5718 C   0  0  0  0  0  0
  -24.1751  -13.0431   20.9247 C   0  0  0  0  0  0
  -24.6378  -11.6918   20.8776 C   0  0  0  0  0  0
  -23.9078  -10.4289   21.0418 C   0  0  0  0  0  0
  -24.3629   -9.4206   21.9196 C   0  0  0  0  0  0
  -23.6305   -8.2240   22.0760 C   0  0  0  0  0  0
  -22.4285   -8.0280   21.3554 C   0  0  0  0  0  0
  -21.9923   -9.0250   20.4651 C   0  0  0  0  0  0
  -22.7253  -10.2133   20.3062 C   0  0  0  0  0  0
  -21.6850   -6.0745   22.5283 C   0  0  0  0  0  0
  -21.4011   -6.5648   23.8215 C   0  0  0  0  0  0
  -21.3650   -5.6798   24.9175 C   0  0  0  0  0  0
  -21.6038   -4.3061   24.7224 C   0  0  0  0  0  0
  -21.8821   -3.8156   23.4343 C   0  0  0  0  0  0
  -21.9196   -4.6976   22.3406 C   0  0  0  0  0  0
  -22.7772  -13.5203   21.1893 C   0  0  0  0  0  0
  -22.1664   -4.2161   21.0984 F   0  0  0  0  0  0
  -21.5624   -3.4546   25.7731 F   0  0  0  0  0  0
  -29.9054  -13.8245   20.3371 N   0  0  0  0  0  0
  -26.2835  -12.9446   20.3234 N   0  0  0  0  0  0
  -25.9310  -11.6578   20.5755 N   0  0  0  0  0  0
  -22.0438  -12.8183   22.0451 N   0  0  0  0  0  0
  -25.4078  -15.1941   20.4120 N   0  0  0  0  0  0
  -31.7043  -15.1378   20.2117 O   0  0  0  0  0  0
  -21.6643   -6.8885   21.4240 O   0  0  0  0  0  0
  -22.3461  -14.5508   20.6740 O   0  0  0  0  0  0
  -24.6533  -31.8347   23.1814 C   0  0  0  0  0  0
  -25.9262  -32.4646   23.8226 C   0  0  1  0  0  0
  -27.2053  -27.0349   20.1707 C   0  0  0  0  0  0
  -25.5988  -33.8454   24.2139 N   0  0  0  0  0  0
  -23.4606  -30.4548   21.5273 C   0  0  2  0  0  0
  -24.9097  -28.8659   20.1059 C   0  0  0  0  0  0
  -22.7618  -29.4511   22.4805 C   0  0  0  0  0  0
  -18.0315  -28.1416   22.8486 C   0  0  0  0  0  0
  -24.1472  -36.7203   23.2652 C   0  0  0  0  0  0
  -26.0234  -30.6757   21.3965 C   0  0  0  0  0  0
  -26.0883  -29.2775   20.7395 C   0  0  0  0  0  0
  -27.2322  -28.3784   20.7569 C   0  0  0  0  0  0
  -26.0077  -26.7591   19.4739 C   0  0  0  0  0  0
  -24.8895  -27.6242   19.4519 C   0  0  0  0  0  0
  -23.6921  -29.7816   20.1469 C   0  0  0  0  0  0
  -25.4107  -36.2987   24.0321 C   0  0  1  0  0  0
  -20.5943  -28.3737   23.1209 C   0  0  2  0  0  0
  -20.6789  -26.9422   22.5411 C   0  0  0  0  0  0
  -19.5759  -26.6376   21.5230 C   0  0  0  0  0  0
  -18.1934  -26.7961   22.1623 C   0  0  0  0  0  0
  -19.1580  -28.8895   23.2845 C   0  0  0  0  0  0
  -18.9506  -30.1495   23.8860 C   0  0  0  0  0  0
  -17.6501  -30.6609   24.0569 C   0  0  0  0  0  0
  -25.9080  -34.9385   23.5031 C   0  0  0  0  0  0
  -16.5382  -29.9096   23.6363 C   0  0  0  0  0  0
  -16.7298  -28.6527   23.0367 C   0  0  0  0  0  0
  -26.4561  -31.6556   25.0707 C   0  0  0  0  0  0
  -25.3718  -31.3780   26.1384 C   0  0  0  0  0  0
  -27.0467  -30.2949   24.6356 C   0  0  0  0  0  0
  -27.6073  -32.4360   25.7484 C   0  0  0  0  0  0
  -27.5560  -37.1731   24.8469 C   0  0  0  0  0  0
  -21.4305  -29.3050   22.3575 N   0  0  0  0  0  0
  -26.4241  -37.3732   23.9460 N   0  0  0  0  0  0
  -24.7325  -31.0122   22.0888 N   0  0  0  0  0  0
  -23.4235  -28.8062   23.2982 O   0  0  0  0  0  0
  -28.2145  -25.9752   20.2804 O   0  0  0  0  0  0
  -26.5680  -34.8906   22.4620 O   0  0  0  0  0  0
  -23.5625  -32.1266   23.6973 O   0  0  0  0  0  0
  -29.8603  -22.1595   20.1178 C   0  0  0  0  0  0
  -30.2242  -20.7681   19.9507 C   0  0  0  0  0  0
  -31.9413  -22.1105   19.6222 C   0  0  0  0  0  0
  -34.5395  -18.6452   19.0028 C   0  0  0  0  0  0
  -34.5512  -19.5955   17.8081 C   0  0  0  0  0  0
  -27.5762  -21.5871   20.4378 C   0  0  0  0  0  0
  -28.0903  -20.0654   20.8163 C   0  0  0  0  0  0
  -33.4783  -19.2458   19.9200 C   0  0  0  0  0  0
  -33.0820  -19.9943   17.6082 C   0  0  0  0  0  0
  -28.5375  -22.8733   20.5726 C   0  0  2  0  0  0
  -29.3722  -19.4143   20.0996 C   0  0  2  0  0  0
  -32.3695  -19.7133   18.9542 C   0  0  0  0  0  0
  -27.9467  -24.4207   19.9847 C   0  0  0  0  0  0
  -30.0591  -17.9062   20.7028 C   0  0  0  0  0  0
  -30.9927  -22.9459   19.9848 N   0  0  0  0  0  0
  -31.5532  -20.8222   19.4726 N   0  0  0  0  0  0
  -33.2314  -22.5420   19.4041 N   0  0  0  0  0  0
  -29.7072  -16.3341   20.4850 N   0  0  0  0  0  0
  -31.4613  -12.9096   19.1626 H   0  0  0  0  0  0
  -30.5033  -11.7806   20.0757 H   0  0  0  0  0  0
  -29.8734  -11.7189   17.6385 H   0  0  0  0  0  0
  -29.5674  -13.4396   17.6527 H   0  0  0  0  0  0
  -28.0071  -11.2587   19.0580 H   0  0  0  0  0  0
  -27.3931  -12.3549   17.8469 H   0  0  0  0  0  0
  -27.5561  -14.2341   19.3562 H   0  0  0  0  0  0
  -28.7961  -12.4011   21.4652 H   0  0  0  0  0  0
  -28.3301  -14.0696   21.7186 H   0  0  0  0  0  0
  -25.2771   -9.5688   22.4770 H   0  0  0  0  0  0
  -24.0013   -7.4630   22.7473 H   0  0  0  0  0  0
  -21.0861   -8.8775   19.8944 H   0  0  0  0  0  0
  -22.3720  -10.9678   19.6171 H   0  0  0  0  0  0
  -21.1997   -7.6155   23.9725 H   0  0  0  0  0  0
  -21.1461   -6.0527   25.9080 H   0  0  0  0  0  0
  -22.0603   -2.7620   23.2840 H   0  0  0  0  0  0
  -22.4075  -11.9850   22.4828 H   0  0  0  0  0  0
  -21.1053  -13.1196   22.2664 H   0  0  0  0  0  0
  -24.6327  -15.8420   20.5053 H   0  0  0  0  0  0
  -26.2460  -15.6336   20.0545 H   0  0  0  0  0  0
  -26.7312  -32.5208   23.0929 H   0  0  0  0  0  0
  -25.0162  -33.9567   25.0304 H   0  0  0  0  0  0
  -22.7691  -31.2850   21.3677 H   0  0  0  0  0  0
  -23.3778  -35.9487   23.3265 H   0  0  0  0  0  0
  -24.3555  -36.8881   22.2073 H   0  0  0  0  0  0
  -23.7152  -37.6349   23.6726 H   0  0  0  0  0  0
  -26.1963  -31.4224   20.6202 H   0  0  0  0  0  0
  -26.8893  -30.7243   22.0448 H   0  0  0  0  0  0
  -28.1197  -28.6847   21.2918 H   0  0  0  0  0  0
  -25.8958  -25.8180   18.9563 H   0  0  0  0  0  0
  -23.9957  -27.3101   18.9298 H   0  0  0  0  0  0
  -23.8361  -30.5586   19.3944 H   0  0  0  0  0  0
  -22.8032  -29.2310   19.8315 H   0  0  0  0  0  0
  -25.1270  -36.1783   25.0802 H   0  0  0  0  0  0
  -21.0039  -28.3334   24.1328 H   0  0  0  0  0  0
  -20.5677  -26.2354   23.3644 H   0  0  0  0  0  0
  -21.6646  -26.7397   22.1201 H   0  0  0  0  0  0
  -19.6918  -25.6281   21.1265 H   0  0  0  0  0  0
  -19.6705  -27.3191   20.6767 H   0  0  0  0  0  0
  -17.4211  -26.6753   21.4016 H   0  0  0  0  0  0
  -18.0284  -26.0099   22.9003 H   0  0  0  0  0  0
  -19.7986  -30.7332   24.2181 H   0  0  0  0  0  0
  -17.5058  -31.6284   24.5183 H   0  0  0  0  0  0
  -15.5387  -30.2995   23.7727 H   0  0  0  0  0  0
  -15.8698  -28.0844   22.7081 H   0  0  0  0  0  0
  -24.5963  -30.7047   25.7723 H   0  0  0  0  0  0
  -24.8841  -32.2967   26.4654 H   0  0  0  0  0  0
  -25.7991  -30.9092   27.0256 H   0  0  0  0  0  0
  -26.3128  -29.6641   24.1334 H   0  0  0  0  0  0
  -27.4055  -29.7259   25.4942 H   0  0  0  0  0  0
  -27.9031  -30.4203   23.9730 H   0  0  0  0  0  0
  -27.2670  -33.3738   26.1889 H   0  0  0  0  0  0
  -28.3970  -32.6787   25.0363 H   0  0  0  0  0  0
  -28.0645  -31.8588   26.5527 H   0  0  0  0  0  0
  -28.2519  -38.0085   24.7577 H   0  0  0  0  0  0
  -28.1092  -36.2609   24.6183 H   0  0  0  0  0  0
  -27.2302  -37.1235   25.8874 H   0  0  0  0  0  0
  -20.9534  -29.8753   21.6732 H   0  0  0  0  0  0
  -26.0088  -38.2770   24.1558 H   0  0  0  0  0  0
  -35.5137  -18.5520   19.4843 H   0  0  0  0  0  0
  -34.2281  -17.6498   18.6806 H   0  0  0  0  0  0
  -34.9949  -19.1515   16.9158 H   0  0  0  0  0  0
  -35.1436  -20.4762   18.0615 H   0  0  0  0  0  0
  -26.6706  -21.7933   21.0080 H   0  0  0  0  0  0
  -27.2448  -21.5537   19.3998 H   0  0  0  0  0  0
  -27.2526  -19.3773   20.7002 H   0  0  0  0  0  0
  -28.2965  -20.0733   21.8875 H   0  0  0  0  0  0
  -33.9083  -20.0890   20.4622 H   0  0  0  0  0  0
  -33.1412  -18.5342   20.6713 H   0  0  0  0  0  0
  -32.6391  -19.3777   16.8250 H   0  0  0  0  0  0
  -32.9915  -21.0248   17.2651 H   0  0  0  0  0  0
  -28.6312  -23.0304   21.6475 H   0  0  0  0  0  0
  -29.0513  -19.1698   19.0860 H   0  0  0  0  0  0
  -31.7050  -18.8834   18.7284 H   0  0  0  0  0  0
  -26.8945  -24.3349   20.2520 H   0  0  0  0  0  0
  -27.9512  -24.3443   18.8974 H   0  0  0  0  0  0
  -30.0757  -18.0255   21.7858 H   0  0  0  0  0  0
  -31.1088  -17.9073   20.4558 H   0  0  0  0  0  0
  -33.5050  -23.5076   19.5377 H   0  0  0  0  0  0
  -33.9638  -21.8949   19.1417 H   0  0  0  0  0  0
  -28.7155  -16.1480   20.5231 H   0  0  0  0  0  0
  1 25  1  0  0  0
  1 30  2  0  0  0
  1 88  1  0  0  0
  2  3  1  0  0  0
  2 25  1  0  0  0
  2 89  1  0  0  0
  2 90  1  0  0  0
  3  4  1  0  0  0
  3 91  1  0  0  0
  3 92  1  0  0  0
  4  5  1  0  0  0
  4 93  1  0  0  0
  4 94  1  0  0  0
  5  6  1  0  0  0
  5 26  1  0  0  0
  5 95  1  0  0  0
  6 25  1  0  0  0
  6 96  1  0  0  0
  6 97  1  0  0  0
  7  8  2  0  0  0
  7 26  1  0  0  0
  7 29  1  0  0  0
  8  9  1  0  0  0
  8 22  1  0  0  0
  9 10  1  0  0  0
  9 27  2  0  0  0
 10 11  2  0  0  0
 10 15  1  0  0  0
 11 12  1  0  0  0
 11 98  1  0  0  0
 12 13  2  0  0  0
 12 99  1  0  0  0
 13 14  1  0  0  0
 13 31  1  0  0  0
 14 15  2  0  0  0
 14100  1  0  0  0
 15101  1  0  0  0
 16 17  2  0  0  0
 16 21  1  0  0  0
 16 31  1  0  0  0
 17 18  1  0  0  0
 17102  1  0  0  0
 18 19  2  0  0  0
 18103  1  0  0  0
 19 20  1  0  0  0
 19 24  1  0  0  0
 20 21  2  0  0  0
 20104  1  0  0  0
 21 23  1  0  0  0
 22 28  1  0  0  0
 22 32  2  0  0  0
 26 27  1  0  0  0
 28105  1  0  0  0
 28106  1  0  0  0
 29107  1  0  0  0
 29108  1  0  0  0
 33 34  1  0  0  0
 33 66  1  0  0  0
 33 70  2  0  0  0
 34 36  1  0  0  0
 34 59  1  0  0  0
 34109  1  0  0  0
 35 44  2  0  0  0
 35 45  1  0  0  0
 35 68  1  0  0  0
 36 56  1  0  0  0
 36110  1  0  0  0
 37 39  1  0  0  0
 37 47  1  0  0  0
 37 66  1  0  0  0
 37111  1  0  0  0
 38 43  2  0  0  0
 38 46  1  0  0  0
 38 47  1  0  0  0
 39 64  1  0  0  0
 39 67  2  0  0  0
 40 52  1  0  0  0
 40 53  2  0  0  0
 40 58  1  0  0  0
 41112  1  0  0  0
 41113  1  0  0  0
 41114  1  0  0  0
 41 48  1  0  0  0
 42 43  1  0  0  0
 42 66  1  0  0  0
 42115  1  0  0  0
 42116  1  0  0  0
 43 44  1  0  0  0
 44117  1  0  0  0
 45 46  2  0  0  0
 45118  1  0  0  0
 46119  1  0  0  0
 47120  1  0  0  0
 47121  1  0  0  0
 48 56  1  0  0  0
 48 65  1  0  0  0
 48122  1  0  0  0
 49 50  1  0  0  0
 49 53  1  0  0  0
 49 64  1  0  0  0
 49123  1  0  0  0
 50 51  1  0  0  0
 50124  1  0  0  0
 50125  1  0  0  0
 51 52  1  0  0  0
 51126  1  0  0  0
 51127  1  0  0  0
 52128  1  0  0  0
 52129  1  0  0  0
 53 54  1  0  0  0
 54 55  2  0  0  0
 54130  1  0  0  0
 55 57  1  0  0  0
 55131  1  0  0  0
 56 69  2  0  0  0
 57 58  2  0  0  0
 57132  1  0  0  0
 58133  1  0  0  0
 59 60  1  0  0  0
 59 61  1  0  0  0
 59 62  1  0  0  0
 60134  1  0  0  0
 60135  1  0  0  0
 60136  1  0  0  0
 61137  1  0  0  0
 61138  1  0  0  0
 61139  1  0  0  0
 62140  1  0  0  0
 62141  1  0  0  0
 62142  1  0  0  0
 63 65  1  0  0  0
 63143  1  0  0  0
 63144  1  0  0  0
 63145  1  0  0  0
 64146  1  0  0  0
 65147  1  0  0  0
 68 83  1  0  0  0
 71 72  2  0  0  0
 71 80  1  0  0  0
 71 85  1  0  0  0
 72 81  1  0  0  0
 72 86  1  0  0  0
 73 85  2  0  0  0
 73 86  1  0  0  0
 73 87  1  0  0  0
 74 75  1  0  0  0
 74 78  1  0  0  0
 74148  1  0  0  0
 74149  1  0  0  0
 75 79  1  0  0  0
 75150  1  0  0  0
 75151  1  0  0  0
 76 77  1  0  0  0
 76 80  1  0  0  0
 76152  1  0  0  0
 76153  1  0  0  0
 77 81  1  0  0  0
 77154  1  0  0  0
 77155  1  0  0  0
 78 82  1  0  0  0
 78156  1  0  0  0
 78157  1  0  0  0
 79 82  1  0  0  0
 79158  1  0  0  0
 79159  1  0  0  0
 80 83  1  0  0  0
 80160  1  0  0  0
 81 84  1  0  0  0
 81161  1  0  0  0
 82 86  1  0  0  0
 82162  1  0  0  0
 83163  1  0  0  0
 83164  1  0  0  0
 84 88  1  0  0  0
 84165  1  0  0  0
 84166  1  0  0  0
 87167  1  0  0  0
 87168  1  0  0  0
 88169  1  0  0  0
M  ISO  4   1 100  68 101  83 101  88 100
M  END
> <chiral flag>
0

> <version>
0

> <s_m_source_file>
/data/baiqing/PycharmProjects/Reinvent-master-3.2/result/LINK_invent/BTK/process_docking_weight1_custom_sum_contain_oxygen_bond_distance_aromatic_linkinvent_7_9_3/rearranged_h_0024.sdf

> <i_m_source_file_index>
56

> <r_mmod_Potential_Energy-OPLS-2005>
885.637084960938

> <r_mmod_Stretch_Energy-OPLS-2005>
399.036163330078

> <r_mmod_Bend_Energy-OPLS-2005>
431.213623046875

> <r_mmod_Torsional_Energy-OPLS-2005>
308.088623046875

> <r_mmod_Improper_Torsional_Energy-OPLS-2005>
5.06604957580566

> <r_mmod_Van_der_Waal_Energy-OPLS-2005>
118.650840759277

> <r_mmod_Electrostatic_Energy-OPLS-2005>
-454.589447021484

> <r_mmod_Solvation_Energy-OPLS-2005>
-237.781616210938

> <b_mmod_Minimization_Converged-OPLS-2005>
0

> <r_mmod_RMS_Derivative-OPLS-2005>
2.21701145172119

$$$$
56
                    3D
 Structure written by MMmdl.
203212  0  0  1  0            999 V2000
  -30.7586  -14.5467   20.5243 C   0  0  0  0  0  0
  -30.3893  -12.3626   19.4322 C   0  0  0  0  0  0
  -29.4710  -12.4882   18.2045 C   0  0  0  0  0  0
  -28.0005  -12.3300   18.6280 C   0  0  0  0  0  0
  -27.6394  -13.2069   19.8549 C   0  0  2  0  0  0
  -28.6945  -13.0776   20.9807 C   0  0  0  0  0  0
  -25.2468  -13.8154   20.5585 C   0  0  0  0  0  0
  -24.1803  -13.0422   20.9246 C   0  0  0  0  0  0
  -24.6387  -11.6905   20.8852 C   0  0  0  0  0  0
  -23.9064  -10.4292   21.0480 C   0  0  0  0  0  0
  -24.3616   -9.4200   21.9242 C   0  0  0  0  0  0
  -23.6289   -8.2232   22.0781 C   0  0  0  0  0  0
  -22.4268   -8.0278   21.3551 C   0  0  0  0  0  0
  -21.9937   -9.0260   20.4644 C   0  0  0  0  0  0
  -22.7263  -10.2138   20.3090 C   0  0  0  0  0  0
  -21.6843   -6.0742   22.5293 C   0  0  0  0  0  0
  -21.4008   -6.5641   23.8224 C   0  0  0  0  0  0
  -21.3666   -5.6795   24.9188 C   0  0  0  0  0  0
  -21.6059   -4.3053   24.7240 C   0  0  0  0  0  0
  -21.8824   -3.8154   23.4363 C   0  0  0  0  0  0
  -21.9200   -4.6971   22.3407 C   0  0  0  0  0  0
  -22.7820  -13.5216   21.1884 C   0  0  0  0  0  0
  -22.1671   -4.2154   21.0982 F   0  0  0  0  0  0
  -21.5612   -3.4543   25.7756 F   0  0  0  0  0  0
  -29.9869  -13.4226   20.3859 N   0  0  0  0  0  0
  -26.2927  -12.9326   20.3367 N   0  0  0  0  0  0
  -25.9309  -11.6492   20.5896 N   0  0  0  0  0  0
  -22.0462  -12.8192   22.0422 N   0  0  0  0  0  0
  -25.4037  -15.1835   20.3650 N   0  0  0  0  0  0
  -31.9474  -14.4638   20.2234 O   0  0  0  0  0  0
  -21.6630   -6.8874   21.4244 O   0  0  0  0  0  0
  -22.3519  -14.5518   20.6719 O   0  0  0  0  0  0
  -24.6150  -31.8660   23.2081 C   0  0  0  0  0  0
  -25.9008  -32.4807   23.8420 C   0  0  1  0  0  0
  -27.2193  -27.4013   20.1211 C   0  0  0  0  0  0
  -25.5830  -33.8609   24.2333 N   0  0  0  0  0  0
  -23.4088  -30.4882   21.5464 C   0  0  2  0  0  0
  -24.8553  -28.9502   20.1153 C   0  0  0  0  0  0
  -22.7435  -29.4651   22.4961 C   0  0  0  0  0  0
  -18.0282  -28.1423   22.8495 C   0  0  0  0  0  0
  -24.1490  -36.7337   23.2649 C   0  0  0  0  0  0
  -25.9393  -30.8242   21.3643 C   0  0  0  0  0  0
  -26.0165  -29.4554   20.7157 C   0  0  0  0  0  0
  -27.2086  -28.6890   20.7091 C   0  0  0  0  0  0
  -26.0484  -26.9182   19.5074 C   0  0  0  0  0  0
  -24.8682  -27.6850   19.5044 C   0  0  0  0  0  0
  -23.6185  -29.8197   20.1619 C   0  0  0  0  0  0
  -25.4111  -36.3109   24.0335 C   0  0  1  0  0  0
  -20.5871  -28.3720   23.1314 C   0  0  2  0  0  0
  -20.6773  -26.9454   22.5424 C   0  0  0  0  0  0
  -19.5734  -26.6423   21.5239 C   0  0  0  0  0  0
  -18.1909  -26.7970   22.1644 C   0  0  0  0  0  0
  -19.1525  -28.8885   23.2898 C   0  0  0  0  0  0
  -18.9455  -30.1489   23.8920 C   0  0  0  0  0  0
  -17.6447  -30.6607   24.0587 C   0  0  0  0  0  0
  -25.9021  -34.9461   23.5152 C   0  0  0  0  0  0
  -16.5346  -29.9116   23.6332 C   0  0  0  0  0  0
  -16.7271  -28.6544   23.0345 C   0  0  0  0  0  0
  -26.4432  -31.6582   25.0754 C   0  0  0  0  0  0
  -25.3698  -31.3596   26.1493 C   0  0  0  0  0  0
  -27.0254  -30.3026   24.6118 C   0  0  0  0  0  0
  -27.6030  -32.4313   25.7468 C   0  0  0  0  0  0
  -27.5587  -37.1815   24.8463 C   0  0  0  0  0  0
  -21.4156  -29.3056   22.3696 N   0  0  0  0  0  0
  -26.4305  -37.3791   23.9402 N   0  0  0  0  0  0
  -24.6732  -31.0751   22.0984 N   0  0  0  0  0  0
  -23.4187  -28.8202   23.3033 O   0  0  0  0  0  0
  -28.3507  -26.6142   20.1312 O   0  0  0  0  0  0
  -26.5627  -34.8902   22.4740 O   0  0  0  0  0  0
  -23.5330  -32.1400   23.7451 O   0  0  0  0  0  0
  -26.2942  -17.3297   23.0299 C   0  0  0  0  0  0
  -27.4391  -17.9694   22.4634 C   0  0  0  0  0  0
  -25.1226  -18.0911   23.2461 C   0  0  0  0  0  0
  -27.3349  -19.3681   22.1458 C   0  0  0  0  0  0
  -25.1452  -19.4542   22.9107 C   0  0  0  0  0  0
  -32.1818  -17.1446   21.6013 C   0  0  0  0  0  0
  -33.5894  -18.5629   20.0847 C   0  0  0  0  0  0
  -32.9236  -18.4806   21.4775 C   0  0  2  0  0  0
  -31.1491  -17.0013   20.4604 C   0  0  1  0  0  0
  -31.8225  -17.1315   19.0530 C   0  0  1  0  0  0
  -33.8067  -20.0334   23.3210 C   0  0  0  0  0  0
  -31.3924  -17.1214   16.4949 C   0  0  0  0  0  0
  -26.8723  -13.9562   26.8202 C   0  0  0  0  0  0
  -26.2979  -15.8571   23.4451 C   0  0  0  0  0  0
  -28.7554  -17.1785   22.3080 C   0  0  0  0  0  0
  -28.4980  -20.2372   21.6196 C   0  0  0  0  0  0
  -33.9317  -18.6696   22.6332 C   0  0  0  0  0  0
  -30.7840  -17.0722   17.9073 C   0  0  0  0  0  0
  -26.5918  -14.1690   25.3296 C   0  0  0  0  0  0
  -26.6312  -15.6519   24.9306 C   0  0  0  0  0  0
  -28.1348  -21.4517   20.6879 C   0  0  0  0  0  0
  -28.2985  -22.8723   21.3190 C   0  0  0  0  0  0
  -28.0815  -24.0815   20.3502 C   0  0  0  0  0  0
  -28.8745  -16.3342   20.9936 C   0  0  0  0  0  0
  -28.3027  -25.4732   21.0193 C   0  0  0  0  0  0
  -26.2115  -20.0773   22.3932 N   0  0  0  0  0  0
  -24.0356  -20.2572   23.1239 N   0  0  0  0  0  0
  -30.2441  -15.8256   20.6883 N   0  0  0  0  0  0
  -32.5980  -18.3969   18.9947 N   0  3  0  0  0  0
  -23.6855  -17.3904   23.9273 Cl  0  0  0  0  0  0
  -31.4300  -12.4240   19.1093 H   0  0  0  0  0  0
  -30.2883  -11.3770   19.8898 H   0  0  0  0  0  0
  -29.7306  -11.7344   17.4597 H   0  0  0  0  0  0
  -29.6168  -13.4585   17.7271 H   0  0  0  0  0  0
  -27.8393  -11.2783   18.8629 H   0  0  0  0  0  0
  -27.3373  -12.5595   17.7921 H   0  0  0  0  0  0
  -27.6451  -14.2246   19.4704 H   0  0  0  0  0  0
  -28.7140  -12.0527   21.3569 H   0  0  0  0  0  0
  -28.4734  -13.6856   21.8551 H   0  0  0  0  0  0
  -25.2758   -9.5668   22.4826 H   0  0  0  0  0  0
  -23.9988   -7.4613   22.7505 H   0  0  0  0  0  0
  -21.0897   -8.8787   19.8904 H   0  0  0  0  0  0
  -22.3771  -10.9679   19.6171 H   0  0  0  0  0  0
  -21.1967   -7.6141   23.9733 H   0  0  0  0  0  0
  -21.1479   -6.0513   25.9087 H   0  0  0  0  0  0
  -22.0586   -2.7615   23.2858 H   0  0  0  0  0  0
  -22.4057  -11.9827   22.4787 H   0  0  0  0  0  0
  -21.1095  -13.1256   22.2632 H   0  0  0  0  0  0
  -24.6132  -15.8145   20.4342 H   0  0  0  0  0  0
  -26.2244  -15.6180   19.9664 H   0  0  0  0  0  0
  -26.7081  -32.5509   23.1190 H   0  0  0  0  0  0
  -24.9908  -33.9791   25.0427 H   0  0  0  0  0  0
  -22.7008  -31.3068   21.4006 H   0  0  0  0  0  0
  -23.3736  -35.9685   23.3315 H   0  0  0  0  0  0
  -24.3598  -36.8982   22.2068 H   0  0  0  0  0  0
  -23.7255  -37.6547   23.6682 H   0  0  0  0  0  0
  -26.0554  -31.5836   20.5913 H   0  0  0  0  0  0
  -26.8289  -30.8856   21.9797 H   0  0  0  0  0  0
  -28.1092  -29.0705   21.1693 H   0  0  0  0  0  0
  -26.0465  -25.9453   19.0368 H   0  0  0  0  0  0
  -23.9754  -27.2946   19.0368 H   0  0  0  0  0  0
  -23.7287  -30.5932   19.4012 H   0  0  0  0  0  0
  -22.7441  -29.2376   19.8647 H   0  0  0  0  0  0
  -25.1263  -36.2007   25.0825 H   0  0  0  0  0  0
  -20.9972  -28.3305   24.1440 H   0  0  0  0  0  0
  -20.5741  -26.2323   23.3625 H   0  0  0  0  0  0
  -21.6636  -26.7519   22.1182 H   0  0  0  0  0  0
  -19.6916  -25.6345   21.1257 H   0  0  0  0  0  0
  -19.6674  -27.3248   20.6781 H   0  0  0  0  0  0
  -17.4190  -26.6756   21.4030 H   0  0  0  0  0  0
  -18.0298  -26.0113   22.9040 H   0  0  0  0  0  0
  -19.7910  -30.7296   24.2328 H   0  0  0  0  0  0
  -17.4985  -31.6280   24.5198 H   0  0  0  0  0  0
  -15.5352  -30.3012   23.7634 H   0  0  0  0  0  0
  -15.8685  -28.0857   22.7056 H   0  0  0  0  0  0
  -24.5962  -30.6840   25.7807 H   0  0  0  0  0  0
  -24.8741  -32.2656   26.4970 H   0  0  0  0  0  0
  -25.8078  -30.8768   27.0237 H   0  0  0  0  0  0
  -26.2764  -29.6788   24.1220 H   0  0  0  0  0  0
  -27.4057  -29.7256   25.4554 H   0  0  0  0  0  0
  -27.8583  -30.4352   23.9222 H   0  0  0  0  0  0
  -27.2716  -33.3658   26.2011 H   0  0  0  0  0  0
  -28.3819  -32.6823   25.0251 H   0  0  0  0  0  0
  -28.0717  -31.8457   26.5393 H   0  0  0  0  0  0
  -28.2579  -38.0134   24.7520 H   0  0  0  0  0  0
  -28.1113  -36.2658   24.6280 H   0  0  0  0  0  0
  -27.2299  -37.1452   25.8866 H   0  0  0  0  0  0
  -20.9365  -29.8726   21.6846 H   0  0  0  0  0  0
  -26.0197  -38.2872   24.1405 H   0  0  0  0  0  0
  -31.6860  -17.0916   22.5713 H   0  0  0  0  0  0
  -32.9048  -16.3290   21.5898 H   0  0  0  0  0  0
  -34.3628  -17.7993   19.9859 H   0  0  0  0  0  0
  -34.0844  -19.5268   19.9657 H   0  0  0  0  0  0
  -32.1746  -19.2724   21.5433 H   0  0  0  0  0  0
  -30.5491  -17.9071   20.5052 H   0  0  0  0  0  0
  -32.5534  -16.3401   18.8904 H   0  0  0  0  0  0
  -34.5351  -20.1276   24.1259 H   0  0  0  0  0  0
  -32.8152  -20.1626   23.7573 H   0  0  0  0  0  0
  -33.9774  -20.8506   22.6203 H   0  0  0  0  0  0
  -30.6216  -16.9871   15.7350 H   0  0  0  0  0  0
  -32.1305  -16.3316   16.3488 H   0  0  0  0  0  0
  -31.8765  -18.0769   16.2926 H   0  0  0  0  0  0
  -26.8630  -12.8970   27.0786 H   0  0  0  0  0  0
  -26.1192  -14.4511   27.4344 H   0  0  0  0  0  0
  -27.8488  -14.3561   27.0925 H   0  0  0  0  0  0
  -26.9846  -15.2811   22.8349 H   0  0  0  0  0  0
  -25.3244  -15.4201   23.2268 H   0  0  0  0  0  0
  -28.8883  -16.5155   23.1624 H   0  0  0  0  0  0
  -29.5676  -17.8901   22.4322 H   0  0  0  0  0  0
  -29.1439  -19.5841   21.0380 H   0  0  0  0  0  0
  -29.0991  -20.5693   22.4672 H   0  0  0  0  0  0
  -34.9533  -18.5345   22.2734 H   0  0  0  0  0  0
  -33.7894  -17.8964   23.3906 H   0  0  0  0  0  0
  -30.0557  -17.8769   18.0208 H   0  0  0  0  0  0
  -30.2102  -16.1487   17.9872 H   0  0  0  0  0  0
  -25.6141  -13.7499   25.0892 H   0  0  0  0  0  0
  -27.3177  -13.6113   24.7370 H   0  0  0  0  0  0
  -25.9251  -16.2089   25.5483 H   0  0  0  0  0  0
  -27.6178  -16.0653   25.1437 H   0  0  0  0  0  0
  -27.1380  -21.3287   20.2630 H   0  0  0  0  0  0
  -28.8017  -21.4107   19.8260 H   0  0  0  0  0  0
  -29.3011  -22.9512   21.7400 H   0  0  0  0  0  0
  -27.6183  -22.9641   22.1669 H   0  0  0  0  0  0
  -27.0706  -24.0390   19.9444 H   0  0  0  0  0  0
  -28.7588  -23.9852   19.4992 H   0  0  0  0  0  0
  -28.5713  -16.9566   20.1506 H   0  0  0  0  0  0
  -28.1259  -15.5653   21.0184 H   0  0  0  0  0  0
  -29.2624  -25.4530   21.5348 H   0  0  0  0  0  0
  -27.5594  -25.6261   21.8053 H   0  0  0  0  0  0
  -23.1629  -19.7710   23.2951 H   0  0  0  0  0  0
  -23.9530  -21.1071   22.5833 H   0  0  0  0  0  0
  -33.0970  -18.4350   18.1201 H   0  0  0  0  0  0
  -31.9692  -19.1824   19.0120 H   0  0  0  0  0  0
  1 25  1  0  0  0
  1 30  2  0  0  0
  1 98  1  0  0  0
  2  3  1  0  0  0
  2 25  1  0  0  0
  2101  1  0  0  0
  2102  1  0  0  0
  3  4  1  0  0  0
  3103  1  0  0  0
  3104  1  0  0  0
  4  5  1  0  0  0
  4105  1  0  0  0
  4106  1  0  0  0
  5  6  1  0  0  0
  5 26  1  0  0  0
  5107  1  0  0  0
  6 25  1  0  0  0
  6108  1  0  0  0
  6109  1  0  0  0
  7  8  2  0  0  0
  7 26  1  0  0  0
  7 29  1  0  0  0
  8  9  1  0  0  0
  8 22  1  0  0  0
  9 10  1  0  0  0
  9 27  2  0  0  0
 10 11  2  0  0  0
 10 15  1  0  0  0
 11 12  1  0  0  0
 11110  1  0  0  0
 12 13  2  0  0  0
 12111  1  0  0  0
 13 14  1  0  0  0
 13 31  1  0  0  0
 14 15  2  0  0  0
 14112  1  0  0  0
 15113  1  0  0  0
 16 17  2  0  0  0
 16 21  1  0  0  0
 16 31  1  0  0  0
 17 18  1  0  0  0
 17114  1  0  0  0
 18 19  2  0  0  0
 18115  1  0  0  0
 19 20  1  0  0  0
 19 24  1  0  0  0
 20 21  2  0  0  0
 20116  1  0  0  0
 21 23  1  0  0  0
 22 28  1  0  0  0
 22 32  2  0  0  0
 26 27  1  0  0  0
 28117  1  0  0  0
 28118  1  0  0  0
 29119  1  0  0  0
 29120  1  0  0  0
 33 34  1  0  0  0
 33 66  1  0  0  0
 33 70  2  0  0  0
 34 36  1  0  0  0
 34 59  1  0  0  0
 34121  1  0  0  0
 35 44  2  0  0  0
 35 45  1  0  0  0
 35 68  1  0  0  0
 36 56  1  0  0  0
 36122  1  0  0  0
 37 39  1  0  0  0
 37 47  1  0  0  0
 37 66  1  0  0  0
 37123  1  0  0  0
 38 43  2  0  0  0
 38 46  1  0  0  0
 38 47  1  0  0  0
 39 64  1  0  0  0
 39 67  2  0  0  0
 40 52  1  0  0  0
 40 53  2  0  0  0
 40 58  1  0  0  0
 41124  1  0  0  0
 41125  1  0  0  0
 41126  1  0  0  0
 41 48  1  0  0  0
 42 43  1  0  0  0
 42 66  1  0  0  0
 42127  1  0  0  0
 42128  1  0  0  0
 43 44  1  0  0  0
 44129  1  0  0  0
 45 46  2  0  0  0
 45130  1  0  0  0
 46131  1  0  0  0
 47132  1  0  0  0
 47133  1  0  0  0
 48 56  1  0  0  0
 48 65  1  0  0  0
 48134  1  0  0  0
 49 50  1  0  0  0
 49 53  1  0  0  0
 49 64  1  0  0  0
 49135  1  0  0  0
 50 51  1  0  0  0
 50136  1  0  0  0
 50137  1  0  0  0
 51 52  1  0  0  0
 51138  1  0  0  0
 51139  1  0  0  0
 52140  1  0  0  0
 52141  1  0  0  0
 53 54  1  0  0  0
 54 55  2  0  0  0
 54142  1  0  0  0
 55 57  1  0  0  0
 55143  1  0  0  0
 56 69  2  0  0  0
 57 58  2  0  0  0
 57144  1  0  0  0
 58145  1  0  0  0
 59 60  1  0  0  0
 59 61  1  0  0  0
 59 62  1  0  0  0
 60146  1  0  0  0
 60147  1  0  0  0
 60148  1  0  0  0
 61149  1  0  0  0
 61150  1  0  0  0
 61151  1  0  0  0
 62152  1  0  0  0
 62153  1  0  0  0
 62154  1  0  0  0
 63 65  1  0  0  0
 63155  1  0  0  0
 63156  1  0  0  0
 63157  1  0  0  0
 64158  1  0  0  0
 65159  1  0  0  0
 68 95  1  0  0  0
 71 72  2  0  0  0
 71 73  1  0  0  0
 71 84  1  0  0  0
 72 74  1  0  0  0
 72 85  1  0  0  0
 73 75  2  0  0  0
 73100  1  0  0  0
 74 86  1  0  0  0
 74 96  2  0  0  0
 75 96  1  0  0  0
 75 97  1  0  0  0
 76 78  1  0  0  0
 76 79  1  0  0  0
 76160  1  0  0  0
 76161  1  0  0  0
 77 78  1  0  0  0
 77 99  1  0  0  0
 77162  1  0  0  0
 77163  1  0  0  0
 78 87  1  0  0  0
 78164  1  0  0  0
 79 80  1  0  0  0
 79 98  1  0  0  0
 79165  1  0  0  0
 80 88  1  0  0  0
 80 99  1  0  0  0
 80166  1  0  0  0
 81 87  1  0  0  0
 81167  1  0  0  0
 81168  1  0  0  0
 81169  1  0  0  0
 82 88  1  0  0  0
 82170  1  0  0  0
 82171  1  0  0  0
 82172  1  0  0  0
 83 89  1  0  0  0
 83173  1  0  0  0
 83174  1  0  0  0
 83175  1  0  0  0
 84 90  1  0  0  0
 84176  1  0  0  0
 84177  1  0  0  0
 85 94  1  0  0  0
 85178  1  0  0  0
 85179  1  0  0  0
 86 91  1  0  0  0
 86180  1  0  0  0
 86181  1  0  0  0
 87182  1  0  0  0
 87183  1  0  0  0
 88184  1  0  0  0
 88185  1  0  0  0
 89 90  1  0  0  0
 89186  1  0  0  0
 89187  1  0  0  0
 90188  1  0  0  0
 90189  1  0  0  0
 91 92  1  0  0  0
 91190  1  0  0  0
 91191  1  0  0  0
 92 93  1  0  0  0
 92192  1  0  0  0
 92193  1  0  0  0
 93 95  1  0  0  0
 93194  1  0  0  0
 93195  1  0  0  0
 94 98  1  0  0  0
 94196  1  0  0  0
 94197  1  0  0  0
 95198  1  0  0  0
 95199  1  0  0  0
 97200  1  0  0  0
 97201  1  0  0  0
 99202  1  0  0  0
 99203  1  0  0  0
M  CHG  1  99   1
M  ISO  4   1 100  68 101  95 101  98 100
M  END
> <chiral flag>
0

> <version>
0

> <s_m_source_file>
/data/baiqing/PycharmProjects/Reinvent-master-3.2/result/LINK_invent/BTK/process_docking_weight1_custom_sum_contain_oxygen_bond_distance_aromatic_linkinvent_7_9_3/rearranged_h_0024.sdf

> <i_m_source_file_index>
57

> <r_mmod_Potential_Energy-OPLS-2005>
-46.3191528320312

> <r_mmod_Stretch_Energy-OPLS-2005>
65.9327239990234

> <r_mmod_Bend_Energy-OPLS-2005>
169.63459777832

> <r_mmod_Torsional_Energy-OPLS-2005>
359.987701416016

> <r_mmod_Improper_Torsional_Energy-OPLS-2005>
11.2088575363159

> <r_mmod_Van_der_Waal_Energy-OPLS-2005>
153.879013061523

> <r_mmod_Electrostatic_Energy-OPLS-2005>
-409.998901367188

> <r_mmod_Solvation_Energy-OPLS-2005>
-433.692047119141

> <b_mmod_Minimization_Converged-OPLS-2005>
0

> <r_mmod_RMS_Derivative-OPLS-2005>
3.20091533660889

$$$$
57
                    3D
 Structure written by MMmdl.
165173  0  0  1  0            999 V2000
  -30.7080  -14.4310   20.5714 C   0  0  0  0  0  0
  -30.4285  -12.2841   19.4029 C   0  0  0  0  0  0
  -29.5014  -12.5160   18.1918 C   0  0  0  0  0  0
  -28.0096  -12.4122   18.5910 C   0  0  0  0  0  0
  -27.6683  -13.1977   19.8880 C   0  0  2  0  0  0
  -28.7168  -12.9347   20.9917 C   0  0  0  0  0  0
  -25.2609  -13.8149   20.5685 C   0  0  0  0  0  0
  -24.1846  -13.0417   20.9195 C   0  0  0  0  0  0
  -24.6379  -11.6891   20.8746 C   0  0  0  0  0  0
  -23.9037  -10.4284   21.0419 C   0  0  0  0  0  0
  -24.3590   -9.4193   21.9172 C   0  0  0  0  0  0
  -23.6247   -8.2248   22.0780 C   0  0  0  0  0  0
  -22.4228   -8.0289   21.3579 C   0  0  0  0  0  0
  -21.9871   -9.0265   20.4677 C   0  0  0  0  0  0
  -22.7210  -10.2134   20.3058 C   0  0  0  0  0  0
  -21.6842   -6.0722   22.5281 C   0  0  0  0  0  0
  -21.4006   -6.5643   23.8214 C   0  0  0  0  0  0
  -21.3666   -5.6808   24.9190 C   0  0  0  0  0  0
  -21.6063   -4.3078   24.7256 C   0  0  0  0  0  0
  -21.8840   -3.8152   23.4381 C   0  0  0  0  0  0
  -21.9194   -4.6951   22.3425 C   0  0  0  0  0  0
  -22.7860  -13.5241   21.1829 C   0  0  0  0  0  0
  -22.1662   -4.2132   21.1006 F   0  0  0  0  0  0
  -21.5620   -3.4580   25.7788 F   0  0  0  0  0  0
  -30.0468  -13.2503   20.4409 N   0  0  0  0  0  0
  -26.3043  -12.9276   20.3433 N   0  0  0  0  0  0
  -25.9308  -11.6437   20.5785 N   0  0  0  0  0  0
  -22.0483  -12.8243   22.0380 N   0  0  0  0  0  0
  -25.4315  -15.1863   20.4048 N   0  0  0  0  0  0
  -31.8214  -14.6484   20.0852 O   0  0  0  0  0  0
  -21.6619   -6.8859   21.4242 O   0  0  0  0  0  0
  -22.3541  -14.5534   20.6690 O   0  0  0  0  0  0
  -24.6114  -31.8718   23.2141 C   0  0  0  0  0  0
  -25.9026  -32.4838   23.8415 C   0  0  1  0  0  0
  -27.2282  -27.4593   20.0782 C   0  0  0  0  0  0
  -25.5925  -33.8640   24.2367 N   0  0  0  0  0  0
  -23.3959  -30.4961   21.5563 C   0  0  2  0  0  0
  -24.8392  -28.9668   20.1185 C   0  0  0  0  0  0
  -22.7390  -29.4676   22.5035 C   0  0  0  0  0  0
  -18.0275  -28.1377   22.8493 C   0  0  0  0  0  0
  -24.1488  -36.7300   23.2630 C   0  0  0  0  0  0
  -25.9230  -30.8428   21.3640 C   0  0  0  0  0  0
  -25.9988  -29.4767   20.7154 C   0  0  0  0  0  0
  -27.1939  -28.7227   20.7075 C   0  0  0  0  0  0
  -26.0446  -26.9522   19.4982 C   0  0  0  0  0  0
  -24.8551  -27.7002   19.5128 C   0  0  0  0  0  0
  -23.6014  -29.8319   20.1697 C   0  0  0  0  0  0
  -25.4107  -36.3122   24.0346 C   0  0  1  0  0  0
  -20.5856  -28.3661   23.1343 C   0  0  2  0  0  0
  -20.6766  -26.9407   22.5422 C   0  0  0  0  0  0
  -19.5743  -26.6398   21.5214 C   0  0  0  0  0  0
  -18.1918  -26.7937   22.1615 C   0  0  0  0  0  0
  -19.1517  -28.8829   23.2920 C   0  0  0  0  0  0
  -18.9447  -30.1432   23.8931 C   0  0  0  0  0  0
  -17.6444  -30.6584   24.0572 C   0  0  0  0  0  0
  -25.9043  -34.9488   23.5151 C   0  0  0  0  0  0
  -16.5339  -29.9087   23.6320 C   0  0  0  0  0  0
  -16.7262  -28.6506   23.0345 C   0  0  0  0  0  0
  -26.4477  -31.6590   25.0716 C   0  0  0  0  0  0
  -25.3763  -31.3643   26.1472 C   0  0  0  0  0  0
  -27.0310  -30.3053   24.6026 C   0  0  0  0  0  0
  -27.6074  -32.4290   25.7470 C   0  0  0  0  0  0
  -27.5599  -37.1798   24.8459 C   0  0  0  0  0  0
  -21.4128  -29.3042   22.3780 N   0  0  0  0  0  0
  -26.4296  -37.3806   23.9424 N   0  0  0  0  0  0
  -24.6612  -31.0836   22.1038 N   0  0  0  0  0  0
  -23.4172  -28.8215   23.3070 O   0  0  0  0  0  0
  -28.4022  -26.7412   20.0597 O   0  0  0  0  0  0
  -26.5582  -34.8919   22.4700 O   0  0  0  0  0  0
  -23.5318  -32.1485   23.7552 O   0  0  0  0  0  0
  -30.9601  -18.9755   21.8218 C   0  0  0  0  0  0
  -30.3325  -19.6232   20.7182 C   0  0  0  0  0  0
  -30.1990  -16.7941   20.9714 C   0  0  0  0  0  0
  -30.9012  -17.5572   21.9337 C   0  0  0  0  0  0
  -29.6855  -18.8436   19.7278 C   0  0  0  0  0  0
  -29.6057  -17.4384   19.8591 C   0  0  0  0  0  0
  -31.6378  -19.8077   22.9113 C   0  0  0  0  0  0
  -32.4466  -23.6428   18.6654 C   0  0  0  0  0  0
  -30.2610  -21.1529   20.6073 C   0  0  0  0  0  0
  -30.0834  -25.4058   18.9361 C   0  0  0  0  0  0
  -29.9677  -23.9083   19.3044 C   0  0  0  0  0  0
  -28.7328  -26.1265   18.8180 C   0  0  0  0  0  0
  -31.3152  -23.1965   19.6139 C   0  0  1  0  0  0
  -30.0057  -15.3978   21.1756 N   0  0  0  0  0  0
  -31.1913  -21.7140   19.6035 N   0  3  0  0  0  0
  -31.6444  -16.7330   23.2681 Cl  0  0  0  0  0  0
  -28.9718  -19.6191   18.3484 Cl  0  0  0  0  0  0
  -28.7565  -16.5192   18.6596 Cl  0  0  0  0  0  0
  -31.4732  -12.3869   19.1016 H   0  0  0  0  0  0
  -30.3290  -11.2642   19.7785 H   0  0  0  0  0  0
  -29.7275  -11.8002   17.3997 H   0  0  0  0  0  0
  -29.7037  -13.5023   17.7653 H   0  0  0  0  0  0
  -27.7577  -11.3589   18.7179 H   0  0  0  0  0  0
  -27.3882  -12.7711   17.7689 H   0  0  0  0  0  0
  -27.7125  -14.2539   19.6400 H   0  0  0  0  0  0
  -28.6965  -11.8836   21.2825 H   0  0  0  0  0  0
  -28.4914  -13.4909   21.9028 H   0  0  0  0  0  0
  -25.2755   -9.5644   22.4702 H   0  0  0  0  0  0
  -23.9972   -7.4646   22.7491 H   0  0  0  0  0  0
  -21.0810   -8.8781   19.8967 H   0  0  0  0  0  0
  -22.3689  -10.9657   19.6128 H   0  0  0  0  0  0
  -21.2002   -7.6143   23.9721 H   0  0  0  0  0  0
  -21.1412   -6.0543   25.9085 H   0  0  0  0  0  0
  -22.0590   -2.7610   23.2911 H   0  0  0  0  0  0
  -22.4136  -11.9947   22.4803 H   0  0  0  0  0  0
  -21.1067  -13.1247   22.2510 H   0  0  0  0  0  0
  -24.6637  -15.8426   20.5068 H   0  0  0  0  0  0
  -26.2808  -15.6172   20.0596 H   0  0  0  0  0  0
  -26.7112  -32.5547   23.1195 H   0  0  0  0  0  0
  -25.0151  -33.9823   25.0563 H   0  0  0  0  0  0
  -22.6815  -31.3118   21.4228 H   0  0  0  0  0  0
  -23.3766  -35.9617   23.3289 H   0  0  0  0  0  0
  -24.3607  -36.8903   22.2048 H   0  0  0  0  0  0
  -23.7215  -37.6496   23.6632 H   0  0  0  0  0  0
  -26.0285  -31.6080   20.5925 H   0  0  0  0  0  0
  -26.8151  -30.9006   21.9767 H   0  0  0  0  0  0
  -28.0907  -29.1142   21.1674 H   0  0  0  0  0  0
  -26.0116  -25.9726   19.0463 H   0  0  0  0  0  0
  -23.9615  -27.2962   19.0575 H   0  0  0  0  0  0
  -23.6995  -30.6101   19.4124 H   0  0  0  0  0  0
  -22.7246  -29.2538   19.8755 H   0  0  0  0  0  0
  -25.1276  -36.1997   25.0842 H   0  0  0  0  0  0
  -20.9935  -28.3207   24.1464 H   0  0  0  0  0  0
  -20.5695  -26.2246   23.3589 H   0  0  0  0  0  0
  -21.6631  -26.7474   22.1181 H   0  0  0  0  0  0
  -19.6898  -25.6320   21.1214 H   0  0  0  0  0  0
  -19.6684  -27.3230   20.6761 H   0  0  0  0  0  0
  -17.4192  -26.6706   21.4011 H   0  0  0  0  0  0
  -18.0300  -26.0069   22.8996 H   0  0  0  0  0  0
  -19.7920  -30.7258   24.2309 H   0  0  0  0  0  0
  -17.4996  -31.6265   24.5179 H   0  0  0  0  0  0
  -15.5339  -30.2998   23.7642 H   0  0  0  0  0  0
  -15.8661  -28.0844   22.7031 H   0  0  0  0  0  0
  -24.5952  -30.6981   25.7784 H   0  0  0  0  0  0
  -24.8930  -32.2771   26.4964 H   0  0  0  0  0  0
  -25.8133  -30.8774   27.0202 H   0  0  0  0  0  0
  -26.2825  -29.6795   24.1144 H   0  0  0  0  0  0
  -27.4210  -29.7289   25.4426 H   0  0  0  0  0  0
  -27.8599  -30.4418   23.9071 H   0  0  0  0  0  0
  -27.2726  -33.3588   26.2077 H   0  0  0  0  0  0
  -28.3863  -32.6851   25.0275 H   0  0  0  0  0  0
  -28.0764  -31.8385   26.5352 H   0  0  0  0  0  0
  -28.2569  -38.0142   24.7594 H   0  0  0  0  0  0
  -28.1149  -36.2685   24.6184 H   0  0  0  0  0  0
  -27.2329  -37.1314   25.8860 H   0  0  0  0  0  0
  -20.9277  -29.8779   21.7026 H   0  0  0  0  0  0
  -26.0184  -38.2874   24.1469 H   0  0  0  0  0  0
  -32.3606  -20.5038   22.4860 H   0  0  0  0  0  0
  -32.1742  -19.2167   23.6516 H   0  0  0  0  0  0
  -30.8922  -20.3858   23.4550 H   0  0  0  0  0  0
  -32.7529  -24.6659   18.8924 H   0  0  0  0  0  0
  -32.1300  -23.6155   17.6221 H   0  0  0  0  0  0
  -33.3371  -23.0200   18.7631 H   0  0  0  0  0  0
  -30.4434  -21.6313   21.5655 H   0  0  0  0  0  0
  -29.2386  -21.4325   20.3522 H   0  0  0  0  0  0
  -30.5685  -25.4774   17.9627 H   0  0  0  0  0  0
  -30.7266  -25.9346   19.6394 H   0  0  0  0  0  0
  -29.4761  -23.3996   18.4746 H   0  0  0  0  0  0
  -29.2985  -23.8112   20.1601 H   0  0  0  0  0  0
  -27.9767  -25.4201   18.4738 H   0  0  0  0  0  0
  -28.8053  -26.9127   18.0660 H   0  0  0  0  0  0
  -31.6245  -23.4817   20.6211 H   0  0  0  0  0  0
  -29.1147  -15.1180   21.5518 H   0  0  0  0  0  0
  -30.9092  -21.3943   18.6904 H   0  0  0  0  0  0
  -32.1032  -21.3300   19.7845 H   0  0  0  0  0  0
  1 25  1  0  0  0
  1 30  2  0  0  0
  1 84  1  0  0  0
  2  3  1  0  0  0
  2 25  1  0  0  0
  2 89  1  0  0  0
  2 90  1  0  0  0
  3  4  1  0  0  0
  3 91  1  0  0  0
  3 92  1  0  0  0
  4  5  1  0  0  0
  4 93  1  0  0  0
  4 94  1  0  0  0
  5  6  1  0  0  0
  5 26  1  0  0  0
  5 95  1  0  0  0
  6 25  1  0  0  0
  6 96  1  0  0  0
  6 97  1  0  0  0
  7  8  2  0  0  0
  7 26  1  0  0  0
  7 29  1  0  0  0
  8  9  1  0  0  0
  8 22  1  0  0  0
  9 10  1  0  0  0
  9 27  2  0  0  0
 10 11  2  0  0  0
 10 15  1  0  0  0
 11 12  1  0  0  0
 11 98  1  0  0  0
 12 13  2  0  0  0
 12 99  1  0  0  0
 13 14  1  0  0  0
 13 31  1  0  0  0
 14 15  2  0  0  0
 14100  1  0  0  0
 15101  1  0  0  0
 16 17  2  0  0  0
 16 21  1  0  0  0
 16 31  1  0  0  0
 17 18  1  0  0  0
 17102  1  0  0  0
 18 19  2  0  0  0
 18103  1  0  0  0
 19 20  1  0  0  0
 19 24  1  0  0  0
 20 21  2  0  0  0
 20104  1  0  0  0
 21 23  1  0  0  0
 22 28  1  0  0  0
 22 32  2  0  0  0
 26 27  1  0  0  0
 28105  1  0  0  0
 28106  1  0  0  0
 29107  1  0  0  0
 29108  1  0  0  0
 33 34  1  0  0  0
 33 66  1  0  0  0
 33 70  2  0  0  0
 34 36  1  0  0  0
 34 59  1  0  0  0
 34109  1  0  0  0
 35 44  2  0  0  0
 35 45  1  0  0  0
 35 68  1  0  0  0
 36 56  1  0  0  0
 36110  1  0  0  0
 37 39  1  0  0  0
 37 47  1  0  0  0
 37 66  1  0  0  0
 37111  1  0  0  0
 38 43  2  0  0  0
 38 46  1  0  0  0
 38 47  1  0  0  0
 39 64  1  0  0  0
 39 67  2  0  0  0
 40 52  1  0  0  0
 40 53  2  0  0  0
 40 58  1  0  0  0
 41112  1  0  0  0
 41113  1  0  0  0
 41114  1  0  0  0
 41 48  1  0  0  0
 42 43  1  0  0  0
 42 66  1  0  0  0
 42115  1  0  0  0
 42116  1  0  0  0
 43 44  1  0  0  0
 44117  1  0  0  0
 45 46  2  0  0  0
 45118  1  0  0  0
 46119  1  0  0  0
 47120  1  0  0  0
 47121  1  0  0  0
 48 56  1  0  0  0
 48 65  1  0  0  0
 48122  1  0  0  0
 49 50  1  0  0  0
 49 53  1  0  0  0
 49 64  1  0  0  0
 49123  1  0  0  0
 50 51  1  0  0  0
 50124  1  0  0  0
 50125  1  0  0  0
 51 52  1  0  0  0
 51126  1  0  0  0
 51127  1  0  0  0
 52128  1  0  0  0
 52129  1  0  0  0
 53 54  1  0  0  0
 54 55  2  0  0  0
 54130  1  0  0  0
 55 57  1  0  0  0
 55131  1  0  0  0
 56 69  2  0  0  0
 57 58  2  0  0  0
 57132  1  0  0  0
 58133  1  0  0  0
 59 60  1  0  0  0
 59 61  1  0  0  0
 59 62  1  0  0  0
 60134  1  0  0  0
 60135  1  0  0  0
 60136  1  0  0  0
 61137  1  0  0  0
 61138  1  0  0  0
 61139  1  0  0  0
 62140  1  0  0  0
 62141  1  0  0  0
 62142  1  0  0  0
 63 65  1  0  0  0
 63143  1  0  0  0
 63144  1  0  0  0
 63145  1  0  0  0
 64146  1  0  0  0
 65147  1  0  0  0
 68 82  1  0  0  0
 71 72  2  0  0  0
 71 74  1  0  0  0
 71 77  1  0  0  0
 72 75  1  0  0  0
 72 79  1  0  0  0
 73 74  2  0  0  0
 73 76  1  0  0  0
 73 84  1  0  0  0
 74 86  1  0  0  0
 75 76  2  0  0  0
 75 87  1  0  0  0
 76 88  1  0  0  0
 77148  1  0  0  0
 77149  1  0  0  0
 77150  1  0  0  0
 78151  1  0  0  0
 78152  1  0  0  0
 78153  1  0  0  0
 78 83  1  0  0  0
 79 85  1  0  0  0
 79154  1  0  0  0
 79155  1  0  0  0
 80 81  1  0  0  0
 80 82  1  0  0  0
 80156  1  0  0  0
 80157  1  0  0  0
 81 83  1  0  0  0
 81158  1  0  0  0
 81159  1  0  0  0
 82160  1  0  0  0
 82161  1  0  0  0
 83 85  1  0  0  0
 83162  1  0  0  0
 84163  1  0  0  0
 85164  1  0  0  0
 85165  1  0  0  0
M  CHG  1  85   1
M  ISO  4   1 100  68 101  82 101  84 100
M  END
> <chiral flag>
0

> <version>
0

> <s_m_source_file>
/data/baiqing/PycharmProjects/Reinvent-master-3.2/result/LINK_invent/BTK/process_docking_weight1_custom_sum_contain_oxygen_bond_distance_aromatic_linkinvent_7_9_3/rearranged_h_0024.sdf

> <i_m_source_file_index>
58

> <r_mmod_Potential_Energy-OPLS-2005>
-248.479080200195

> <r_mmod_Stretch_Energy-OPLS-2005>
37.8232803344727

> <r_mmod_Bend_Energy-OPLS-2005>
90.2787399291992

> <r_mmod_Torsional_Energy-OPLS-2005>
257.38818359375

> <r_mmod_Improper_Torsional_Energy-OPLS-2005>
4.40688180923462

> <r_mmod_Van_der_Waal_Energy-OPLS-2005>
162.141372680664

> <r_mmod_Electrostatic_Energy-OPLS-2005>
-340.156219482422

> <r_mmod_Solvation_Energy-OPLS-2005>
-469.709838867188

> <b_mmod_Minimization_Converged-OPLS-2005>
0

> <r_mmod_RMS_Derivative-OPLS-2005>
4.21583271026611

$$$$
58
                    3D
 Structure written by MMmdl.
159167  0  0  1  0            999 V2000
  -30.6449  -14.4810   20.6231 C   0  0  0  0  0  0
  -30.4357  -12.3291   19.4247 C   0  0  0  0  0  0
  -29.4930  -12.4961   18.2103 C   0  0  0  0  0  0
  -28.0104  -12.3628   18.6164 C   0  0  0  0  0  0
  -27.6545  -13.1960   19.8766 C   0  0  2  0  0  0
  -28.6917  -12.9423   20.9919 C   0  0  0  0  0  0
  -25.2590  -13.8154   20.5746 C   0  0  0  0  0  0
  -24.1837  -13.0452   20.9296 C   0  0  0  0  0  0
  -24.6345  -11.6906   20.8724 C   0  0  0  0  0  0
  -23.9011  -10.4283   21.0361 C   0  0  0  0  0  0
  -24.3576   -9.4238   21.9168 C   0  0  0  0  0  0
  -23.6268   -8.2256   22.0758 C   0  0  0  0  0  0
  -22.4262   -8.0258   21.3539 C   0  0  0  0  0  0
  -21.9869   -9.0225   20.4657 C   0  0  0  0  0  0
  -22.7169  -10.2113   20.3042 C   0  0  0  0  0  0
  -21.6852   -6.0727   22.5258 C   0  0  0  0  0  0
  -21.4051   -6.5654   23.8181 C   0  0  0  0  0  0
  -21.3659   -5.6807   24.9154 C   0  0  0  0  0  0
  -21.6006   -4.3060   24.7210 C   0  0  0  0  0  0
  -21.8848   -3.8148   23.4338 C   0  0  0  0  0  0
  -21.9193   -4.6961   22.3380 C   0  0  0  0  0  0
  -22.7865  -13.5268   21.1858 C   0  0  0  0  0  0
  -22.1677   -4.2157   21.0947 F   0  0  0  0  0  0
  -21.5586   -3.4535   25.7718 F   0  0  0  0  0  0
  -30.0111  -13.2930   20.4518 N   0  0  0  0  0  0
  -26.2960  -12.9273   20.3319 N   0  0  0  0  0  0
  -25.9273  -11.6447   20.5738 N   0  0  0  0  0  0
  -22.0480  -12.8209   22.0372 N   0  0  0  0  0  0
  -25.4354  -15.1839   20.4111 N   0  0  0  0  0  0
  -31.7754  -14.6939   20.1691 O   0  0  0  0  0  0
  -21.6630   -6.8870   21.4228 O   0  0  0  0  0  0
  -22.3533  -14.5538   20.6670 O   0  0  0  0  0  0
  -24.6095  -31.8686   23.2151 C   0  0  0  0  0  0
  -25.9000  -32.4810   23.8451 C   0  0  1  0  0  0
  -27.2577  -27.4564   20.0841 C   0  0  0  0  0  0
  -25.5906  -33.8613   24.2377 N   0  0  0  0  0  0
  -23.4003  -30.4864   21.5515 C   0  0  2  0  0  0
  -24.8513  -28.9514   20.1269 C   0  0  0  0  0  0
  -22.7382  -29.4613   22.4991 C   0  0  0  0  0  0
  -18.0220  -28.1488   22.8682 C   0  0  0  0  0  0
  -24.1481  -36.7307   23.2648 C   0  0  0  0  0  0
  -25.9276  -30.8373   21.3713 C   0  0  0  0  0  0
  -26.0083  -29.4688   20.7243 C   0  0  0  0  0  0
  -27.2068  -28.7232   20.7050 C   0  0  0  0  0  0
  -26.0752  -26.9439   19.4957 C   0  0  0  0  0  0
  -24.8791  -27.6859   19.5162 C   0  0  0  0  0  0
  -23.6127  -29.8134   20.1700 C   0  0  0  0  0  0
  -25.4106  -36.3104   24.0341 C   0  0  1  0  0  0
  -20.5809  -28.3695   23.1401 C   0  0  2  0  0  0
  -20.6557  -26.9326   22.5736 C   0  0  0  0  0  0
  -19.5605  -26.6391   21.5502 C   0  0  0  0  0  0
  -18.1817  -26.7982   22.1953 C   0  0  0  0  0  0
  -19.1496  -28.8980   23.2935 C   0  0  0  0  0  0
  -18.9495  -30.1679   23.8728 C   0  0  0  0  0  0
  -17.6520  -30.6850   24.0425 C   0  0  0  0  0  0
  -25.9017  -34.9465   23.5151 C   0  0  0  0  0  0
  -16.5354  -29.9296   23.6423 C   0  0  0  0  0  0
  -16.7211  -28.6639   23.0605 C   0  0  0  0  0  0
  -26.4452  -31.6572   25.0753 C   0  0  0  0  0  0
  -25.3759  -31.3675   26.1524 C   0  0  0  0  0  0
  -27.0304  -30.3036   24.6115 C   0  0  0  0  0  0
  -27.6027  -32.4304   25.7501 C   0  0  0  0  0  0
  -27.5583  -37.1804   24.8475 C   0  0  0  0  0  0
  -21.4137  -29.2882   22.3648 N   0  0  0  0  0  0
  -26.4309  -37.3779   23.9402 N   0  0  0  0  0  0
  -24.6632  -31.0782   22.1067 N   0  0  0  0  0  0
  -23.4144  -28.8259   23.3145 O   0  0  0  0  0  0
  -28.4718  -26.8013   20.0769 O   0  0  0  0  0  0
  -26.5561  -34.8916   22.4696 O   0  0  0  0  0  0
  -23.5293  -32.1450   23.7562 O   0  0  0  0  0  0
  -29.0094  -20.4110   21.9421 C   0  0  0  0  0  0
  -28.1762  -20.6193   20.8306 C   0  0  0  0  0  0
  -27.9754  -19.5379   19.9269 C   0  0  0  0  0  0
  -29.5040  -18.0932   21.2599 C   0  0  0  0  0  0
  -29.6623  -19.1826   22.1610 C   0  0  0  0  0  0
  -28.6456  -18.2897   20.1352 C   0  0  0  0  0  0
  -27.0698  -19.7368   18.7158 C   0  0  0  0  0  0
  -30.4057  -16.8387   21.4564 C   0  0  0  0  0  0
  -27.5245  -22.0114   20.6913 C   0  0  0  0  0  0
  -28.1312  -24.4221   20.5146 C   0  0  0  0  0  0
  -28.6081  -25.4927   19.5162 C   0  0  0  0  0  0
  -29.9174  -15.4622   21.2035 N   0  0  0  0  0  0
  -28.4102  -23.0265   20.0707 N   0  3  0  0  0  0
  -30.7005  -19.1036   23.5424 Cl  0  0  0  0  0  0
  -28.4669  -17.0272   18.9657 Cl  0  0  0  0  0  0
  -31.4724  -12.4838   19.1111 H   0  0  0  0  0  0
  -30.3967  -11.3143   19.8281 H   0  0  0  0  0  0
  -29.7315  -11.7648   17.4348 H   0  0  0  0  0  0
  -29.6498  -13.4771   17.7652 H   0  0  0  0  0  0
  -27.8079  -11.3073   18.8106 H   0  0  0  0  0  0
  -27.3676  -12.6593   17.7856 H   0  0  0  0  0  0
  -27.7078  -14.2471   19.5931 H   0  0  0  0  0  0
  -28.6875  -11.8837   21.2513 H   0  0  0  0  0  0
  -28.4481  -13.4598   21.9203 H   0  0  0  0  0  0
  -25.2744   -9.5747   22.4733 H   0  0  0  0  0  0
  -23.9992   -7.4660   22.7493 H   0  0  0  0  0  0
  -21.0791   -8.8735   19.8968 H   0  0  0  0  0  0
  -22.3611  -10.9644   19.6142 H   0  0  0  0  0  0
  -21.2137   -7.6174   23.9701 H   0  0  0  0  0  0
  -21.1416   -6.0534   25.9042 H   0  0  0  0  0  0
  -22.0634   -2.7617   23.2811 H   0  0  0  0  0  0
  -22.4143  -11.9857   22.4689 H   0  0  0  0  0  0
  -21.1097  -13.1215   22.2642 H   0  0  0  0  0  0
  -24.7011  -15.8584   20.6020 H   0  0  0  0  0  0
  -26.2458  -15.5874   19.9558 H   0  0  0  0  0  0
  -26.7066  -32.5541   23.1214 H   0  0  0  0  0  0
  -25.0077  -33.9785   25.0536 H   0  0  0  0  0  0
  -22.6915  -31.3024   21.4101 H   0  0  0  0  0  0
  -23.3732  -35.9650   23.3306 H   0  0  0  0  0  0
  -24.3590  -36.8894   22.2071 H   0  0  0  0  0  0
  -23.7225  -37.6516   23.6650 H   0  0  0  0  0  0
  -26.0404  -31.6005   20.6005 H   0  0  0  0  0  0
  -26.8193  -30.8968   21.9848 H   0  0  0  0  0  0
  -28.1052  -29.1162   21.1648 H   0  0  0  0  0  0
  -26.0486  -25.9799   19.0157 H   0  0  0  0  0  0
  -23.9895  -27.2831   19.0493 H   0  0  0  0  0  0
  -23.7419  -30.5800   19.4069 H   0  0  0  0  0  0
  -22.7402  -29.2321   19.8577 H   0  0  0  0  0  0
  -25.1269  -36.1994   25.0833 H   0  0  0  0  0  0
  -20.9917  -28.3355   24.1522 H   0  0  0  0  0  0
  -20.5236  -26.2337   23.4021 H   0  0  0  0  0  0
  -21.6416  -26.7194   22.1580 H   0  0  0  0  0  0
  -19.6548  -27.3410   20.7190 H   0  0  0  0  0  0
  -19.6796  -25.6358   21.1382 H   0  0  0  0  0  0
  -17.3997  -26.6687   21.4453 H   0  0  0  0  0  0
  -18.0236  -26.0231   22.9479 H   0  0  0  0  0  0
  -19.7981  -30.7611   24.1856 H   0  0  0  0  0  0
  -17.5168  -31.6645   24.4813 H   0  0  0  0  0  0
  -15.5409  -30.3283   23.7847 H   0  0  0  0  0  0
  -15.8589  -28.0907   22.7523 H   0  0  0  0  0  0
  -24.5910  -30.7016   25.7897 H   0  0  0  0  0  0
  -24.8969  -32.2838   26.5024 H   0  0  0  0  0  0
  -25.8163  -30.8842   27.0250 H   0  0  0  0  0  0
  -26.2857  -29.6761   24.1200 H   0  0  0  0  0  0
  -27.4126  -29.7294   25.4554 H   0  0  0  0  0  0
  -27.8664  -30.4344   23.9229 H   0  0  0  0  0  0
  -27.2626  -33.3574   26.2132 H   0  0  0  0  0  0
  -28.3831  -32.6886   25.0329 H   0  0  0  0  0  0
  -28.0708  -31.8391   26.5385 H   0  0  0  0  0  0
  -28.2603  -38.0094   24.7512 H   0  0  0  0  0  0
  -28.1063  -36.2623   24.6304 H   0  0  0  0  0  0
  -27.2304  -37.1464   25.8877 H   0  0  0  0  0  0
  -20.9450  -29.8316   21.6520 H   0  0  0  0  0  0
  -26.0190  -38.2859   24.1377 H   0  0  0  0  0  0
  -29.1627  -21.2203   22.6460 H   0  0  0  0  0  0
  -27.6014  -20.3184   17.9665 H   0  0  0  0  0  0
  -26.1533  -20.2706   18.9650 H   0  0  0  0  0  0
  -26.7494  -18.7996   18.2616 H   0  0  0  0  0  0
  -30.7827  -16.8228   22.4768 H   0  0  0  0  0  0
  -31.2747  -17.0391   20.8218 H   0  0  0  0  0  0
  -27.2576  -22.3523   21.6892 H   0  0  0  0  0  0
  -26.5771  -21.9935   20.1566 H   0  0  0  0  0  0
  -27.0644  -24.5561   20.6901 H   0  0  0  0  0  0
  -28.6214  -24.5733   21.4765 H   0  0  0  0  0  0
  -28.0997  -25.4184   18.5566 H   0  0  0  0  0  0
  -29.6654  -25.3357   19.3046 H   0  0  0  0  0  0
  -29.0032  -15.2084   21.5477 H   0  0  0  0  0  0
  -28.3234  -22.9646   19.0674 H   0  0  0  0  0  0
  -29.3683  -22.8088   20.2975 H   0  0  0  0  0  0
  1 25  1  0  0  0
  1 30  2  0  0  0
  1 82  1  0  0  0
  2  3  1  0  0  0
  2 25  1  0  0  0
  2 86  1  0  0  0
  2 87  1  0  0  0
  3  4  1  0  0  0
  3 88  1  0  0  0
  3 89  1  0  0  0
  4  5  1  0  0  0
  4 90  1  0  0  0
  4 91  1  0  0  0
  5  6  1  0  0  0
  5 26  1  0  0  0
  5 92  1  0  0  0
  6 25  1  0  0  0
  6 93  1  0  0  0
  6 94  1  0  0  0
  7  8  2  0  0  0
  7 26  1  0  0  0
  7 29  1  0  0  0
  8  9  1  0  0  0
  8 22  1  0  0  0
  9 10  1  0  0  0
  9 27  2  0  0  0
 10 11  2  0  0  0
 10 15  1  0  0  0
 11 12  1  0  0  0
 11 95  1  0  0  0
 12 13  2  0  0  0
 12 96  1  0  0  0
 13 14  1  0  0  0
 13 31  1  0  0  0
 14 15  2  0  0  0
 14 97  1  0  0  0
 15 98  1  0  0  0
 16 17  2  0  0  0
 16 21  1  0  0  0
 16 31  1  0  0  0
 17 18  1  0  0  0
 17 99  1  0  0  0
 18 19  2  0  0  0
 18100  1  0  0  0
 19 20  1  0  0  0
 19 24  1  0  0  0
 20 21  2  0  0  0
 20101  1  0  0  0
 21 23  1  0  0  0
 22 28  1  0  0  0
 22 32  2  0  0  0
 26 27  1  0  0  0
 28102  1  0  0  0
 28103  1  0  0  0
 29104  1  0  0  0
 29105  1  0  0  0
 33 34  1  0  0  0
 33 66  1  0  0  0
 33 70  2  0  0  0
 34 36  1  0  0  0
 34 59  1  0  0  0
 34106  1  0  0  0
 35 44  2  0  0  0
 35 45  1  0  0  0
 35 68  1  0  0  0
 36 56  1  0  0  0
 36107  1  0  0  0
 37 39  1  0  0  0
 37 47  1  0  0  0
 37 66  1  0  0  0
 37108  1  0  0  0
 38 43  2  0  0  0
 38 46  1  0  0  0
 38 47  1  0  0  0
 39 64  1  0  0  0
 39 67  2  0  0  0
 40 52  1  0  0  0
 40 53  2  0  0  0
 40 58  1  0  0  0
 41109  1  0  0  0
 41110  1  0  0  0
 41111  1  0  0  0
 41 48  1  0  0  0
 42 43  1  0  0  0
 42 66  1  0  0  0
 42112  1  0  0  0
 42113  1  0  0  0
 43 44  1  0  0  0
 44114  1  0  0  0
 45 46  2  0  0  0
 45115  1  0  0  0
 46116  1  0  0  0
 47117  1  0  0  0
 47118  1  0  0  0
 48 56  1  0  0  0
 48 65  1  0  0  0
 48119  1  0  0  0
 49 50  1  0  0  0
 49 53  1  0  0  0
 49 64  1  0  0  0
 49120  1  0  0  0
 50 51  1  0  0  0
 50121  1  0  0  0
 50122  1  0  0  0
 51 52  1  0  0  0
 51123  1  0  0  0
 51124  1  0  0  0
 52125  1  0  0  0
 52126  1  0  0  0
 53 54  1  0  0  0
 54 55  2  0  0  0
 54127  1  0  0  0
 55 57  1  0  0  0
 55128  1  0  0  0
 56 69  2  0  0  0
 57 58  2  0  0  0
 57129  1  0  0  0
 58130  1  0  0  0
 59 60  1  0  0  0
 59 61  1  0  0  0
 59 62  1  0  0  0
 60131  1  0  0  0
 60132  1  0  0  0
 60133  1  0  0  0
 61134  1  0  0  0
 61135  1  0  0  0
 61136  1  0  0  0
 62137  1  0  0  0
 62138  1  0  0  0
 62139  1  0  0  0
 63 65  1  0  0  0
 63140  1  0  0  0
 63141  1  0  0  0
 63142  1  0  0  0
 64143  1  0  0  0
 65144  1  0  0  0
 68 81  1  0  0  0
 71 72  2  0  0  0
 71 75  1  0  0  0
 71145  1  0  0  0
 72 73  1  0  0  0
 72 79  1  0  0  0
 73 76  2  0  0  0
 73 77  1  0  0  0
 74 75  2  0  0  0
 74 76  1  0  0  0
 74 78  1  0  0  0
 75 84  1  0  0  0
 76 85  1  0  0  0
 77146  1  0  0  0
 77147  1  0  0  0
 77148  1  0  0  0
 78 82  1  0  0  0
 78149  1  0  0  0
 78150  1  0  0  0
 79 83  1  0  0  0
 79151  1  0  0  0
 79152  1  0  0  0
 80 81  1  0  0  0
 80 83  1  0  0  0
 80153  1  0  0  0
 80154  1  0  0  0
 81155  1  0  0  0
 81156  1  0  0  0
 82157  1  0  0  0
 83158  1  0  0  0
 83159  1  0  0  0
M  CHG  1  83   1
M  ISO  4   1 100  68 101  81 101  82 100
M  END
> <chiral flag>
0

> <version>
0

> <s_m_source_file>
/data/baiqing/PycharmProjects/Reinvent-master-3.2/result/LINK_invent/BTK/process_docking_weight1_custom_sum_contain_oxygen_bond_distance_aromatic_linkinvent_7_9_3/rearranged_h_0024.sdf

> <i_m_source_file_index>
59

> <r_mmod_Potential_Energy-OPLS-2005>
-242.104797363281

> <r_mmod_Stretch_Energy-OPLS-2005>
43.3316497802734

> <r_mmod_Bend_Energy-OPLS-2005>
117.673561096191

> <r_mmod_Torsional_Energy-OPLS-2005>
185.093078613281

> <r_mmod_Improper_Torsional_Energy-OPLS-2005>
3.9602472782135

> <r_mmod_Van_der_Waal_Energy-OPLS-2005>
160.438140869141

> <r_mmod_Electrostatic_Energy-OPLS-2005>
-295.067749023438

> <r_mmod_Solvation_Energy-OPLS-2005>
-472.352447509766

> <b_mmod_Minimization_Converged-OPLS-2005>
0

> <r_mmod_RMS_Derivative-OPLS-2005>
8.15583324432373

$$$$
59
                    3D
 Structure written by MMmdl.
175183  0  0  1  0            999 V2000
  -30.7931  -14.3251   20.7705 C   0  0  0  0  0  0
  -30.4189  -12.3157   19.3751 C   0  0  0  0  0  0
  -29.4784  -12.5597   18.1819 C   0  0  0  0  0  0
  -28.0047  -12.3902   18.5980 C   0  0  0  0  0  0
  -27.6651  -13.1976   19.8757 C   0  0  2  0  0  0
  -28.6990  -12.9229   20.9868 C   0  0  0  0  0  0
  -25.2631  -13.8144   20.5675 C   0  0  0  0  0  0
  -24.1869  -13.0425   20.9179 C   0  0  0  0  0  0
  -24.6395  -11.6890   20.8715 C   0  0  0  0  0  0
  -23.9048  -10.4289   21.0395 C   0  0  0  0  0  0
  -24.3599   -9.4224   21.9190 C   0  0  0  0  0  0
  -23.6283   -8.2256   22.0765 C   0  0  0  0  0  0
  -22.4266   -8.0286   21.3562 C   0  0  0  0  0  0
  -21.9898   -9.0250   20.4657 C   0  0  0  0  0  0
  -22.7212  -10.2126   20.3068 C   0  0  0  0  0  0
  -21.6853   -6.0750   22.5282 C   0  0  0  0  0  0
  -21.4009   -6.5651   23.8217 C   0  0  0  0  0  0
  -21.3666   -5.6799   24.9168 C   0  0  0  0  0  0
  -21.6037   -4.3057   24.7209 C   0  0  0  0  0  0
  -21.8814   -3.8162   23.4325 C   0  0  0  0  0  0
  -21.9187   -4.6982   22.3394 C   0  0  0  0  0  0
  -22.7904  -13.5252   21.1836 C   0  0  0  0  0  0
  -22.1668   -4.2180   21.0971 F   0  0  0  0  0  0
  -21.5625   -3.4543   25.7715 F   0  0  0  0  0  0
  -30.0427  -13.2341   20.4616 N   0  0  0  0  0  0
  -26.3037  -12.9286   20.3331 N   0  0  0  0  0  0
  -25.9317  -11.6453   20.5722 N   0  0  0  0  0  0
  -22.0557  -12.8256   22.0415 N   0  0  0  0  0  0
  -25.4360  -15.1854   20.4123 N   0  0  0  0  0  0
  -31.7720  -14.6654   20.0964 O   0  0  0  0  0  0
  -21.6643   -6.8883   21.4243 O   0  0  0  0  0  0
  -22.3610  -14.5552   20.6675 O   0  0  0  0  0  0
  -24.6116  -31.8705   23.2166 C   0  0  0  0  0  0
  -25.9025  -32.4845   23.8452 C   0  0  1  0  0  0
  -27.2391  -27.4665   20.0905 C   0  0  0  0  0  0
  -25.5906  -33.8644   24.2386 N   0  0  0  0  0  0
  -23.3990  -30.4942   21.5559 C   0  0  2  0  0  0
  -24.8480  -28.9642   20.1206 C   0  0  0  0  0  0
  -22.7401  -29.4671   22.5033 C   0  0  0  0  0  0
  -18.0276  -28.1384   22.8499 C   0  0  0  0  0  0
  -24.1496  -36.7323   23.2648 C   0  0  0  0  0  0
  -25.9258  -30.8407   21.3730 C   0  0  0  0  0  0
  -26.0038  -29.4758   20.7261 C   0  0  0  0  0  0
  -27.2019  -28.7294   20.7240 C   0  0  0  0  0  0
  -26.0735  -26.9677   19.4761 C   0  0  0  0  0  0
  -24.8734  -27.7032   19.4990 C   0  0  0  0  0  0
  -23.6073  -29.8259   20.1709 C   0  0  0  0  0  0
  -25.4114  -36.3131   24.0352 C   0  0  1  0  0  0
  -20.5860  -28.3677   23.1328 C   0  0  2  0  0  0
  -20.6774  -26.9413   22.5434 C   0  0  0  0  0  0
  -19.5759  -26.6378   21.5226 C   0  0  0  0  0  0
  -18.1923  -26.7934   22.1617 C   0  0  0  0  0  0
  -19.1517  -28.8857   23.2902 C   0  0  0  0  0  0
  -18.9441  -30.1460   23.8911 C   0  0  0  0  0  0
  -17.6435  -30.6592   24.0576 C   0  0  0  0  0  0
  -25.9027  -34.9493   23.5156 C   0  0  0  0  0  0
  -16.5331  -29.9094   23.6317 C   0  0  0  0  0  0
  -16.7255  -28.6505   23.0355 C   0  0  0  0  0  0
  -26.4481  -31.6605   25.0755 C   0  0  0  0  0  0
  -25.3733  -31.3626   26.1467 C   0  0  0  0  0  0
  -27.0366  -30.3076   24.6114 C   0  0  0  0  0  0
  -27.6038  -32.4348   25.7525 C   0  0  0  0  0  0
  -27.5598  -37.1810   24.8477 C   0  0  0  0  0  0
  -21.4138  -29.3027   22.3730 N   0  0  0  0  0  0
  -26.4319  -37.3799   23.9413 N   0  0  0  0  0  0
  -24.6625  -31.0835   22.1065 N   0  0  0  0  0  0
  -23.4184  -28.8206   23.3064 O   0  0  0  0  0  0
  -28.3711  -26.6961   20.0028 O   0  0  0  0  0  0
  -26.5575  -34.8921   22.4715 O   0  0  0  0  0  0
  -23.5305  -32.1462   23.7565 O   0  0  0  0  0  0
  -32.4416  -21.5337   23.4749 C   0  0  0  0  0  0
  -33.4544  -21.0381   22.6059 C   0  0  0  0  0  0
  -31.7431  -20.6300   24.3228 C   0  0  0  0  0  0
  -33.0847  -18.7606   23.4545 C   0  0  0  0  0  0
  -33.7703  -19.6576   22.6030 C   0  0  0  0  0  0
  -32.0881  -19.2568   24.3283 C   0  0  0  0  0  0
  -34.2251  -21.9670   21.6642 C   0  0  0  0  0  0
  -30.6098  -21.0975   25.2377 C   0  0  0  0  0  0
  -32.4935  -14.2469   23.3850 C   0  0  0  0  0  0
  -32.0960  -23.0252   23.4776 C   0  0  0  0  0  0
  -33.4023  -17.2659   23.4122 C   0  0  0  0  0  0
  -30.4820  -15.1481   22.0397 C   0  0  0  0  0  0
  -31.0348  -23.3578   22.4120 C   0  0  0  0  0  0
  -30.7053  -24.8566   22.3148 C   0  0  0  0  0  0
  -29.7166  -25.1509   21.1758 C   0  0  0  0  0  0
  -29.1894  -26.5926   21.1599 C   0  0  0  0  0  0
  -31.6848  -15.4912   22.9576 C   0  0  2  0  0  0
  -32.5479  -16.5727   22.4170 N   0  3  0  0  0  0
  -34.9980  -19.0601   21.5332 Cl  0  0  0  0  0  0
  -31.2653  -18.1758   25.4073 Cl  0  0  0  0  0  0
  -31.4590  -12.4320   19.0631 H   0  0  0  0  0  0
  -30.3300  -11.2848   19.7237 H   0  0  0  0  0  0
  -29.7202  -11.8838   17.3611 H   0  0  0  0  0  0
  -29.6319  -13.5718   17.8047 H   0  0  0  0  0  0
  -27.8197  -11.3288   18.7685 H   0  0  0  0  0  0
  -27.3474  -12.6879   17.7807 H   0  0  0  0  0  0
  -27.7300  -14.2561   19.6215 H   0  0  0  0  0  0
  -28.6700  -11.8749   21.2870 H   0  0  0  0  0  0
  -28.3921  -13.4777   21.8686 H   0  0  0  0  0  0
  -25.2711   -9.5725   22.4798 H   0  0  0  0  0  0
  -23.9996   -7.4659   22.7500 H   0  0  0  0  0  0
  -21.0839   -8.8754   19.8967 H   0  0  0  0  0  0
  -22.3641  -10.9681   19.6212 H   0  0  0  0  0  0
  -21.1991   -7.6154   23.9728 H   0  0  0  0  0  0
  -21.1510   -6.0519   25.9082 H   0  0  0  0  0  0
  -22.0578   -2.7632   23.2799 H   0  0  0  0  0  0
  -22.4209  -11.9943   22.4822 H   0  0  0  0  0  0
  -21.1185  -13.1304   22.2607 H   0  0  0  0  0  0
  -24.6734  -15.8411   20.5457 H   0  0  0  0  0  0
  -26.2838  -15.6272   20.0783 H   0  0  0  0  0  0
  -26.7093  -32.5590   23.1218 H   0  0  0  0  0  0
  -25.0138  -33.9823   25.0582 H   0  0  0  0  0  0
  -22.6847  -31.3088   21.4183 H   0  0  0  0  0  0
  -23.3787  -35.9628   23.3278 H   0  0  0  0  0  0
  -24.3590  -36.8983   22.2072 H   0  0  0  0  0  0
  -23.7221  -37.6494   23.6696 H   0  0  0  0  0  0
  -26.0402  -31.6037   20.6033 H   0  0  0  0  0  0
  -26.8131  -30.8944   21.9912 H   0  0  0  0  0  0
  -28.0926  -29.1291   21.1897 H   0  0  0  0  0  0
  -26.0969  -26.0066   18.9815 H   0  0  0  0  0  0
  -23.9857  -27.3036   19.0267 H   0  0  0  0  0  0
  -23.7101  -30.5987   19.4085 H   0  0  0  0  0  0
  -22.7340  -29.2390   19.8809 H   0  0  0  0  0  0
  -25.1284  -36.2018   25.0847 H   0  0  0  0  0  0
  -20.9948  -28.3254   24.1454 H   0  0  0  0  0  0
  -20.5703  -26.2269   23.3609 H   0  0  0  0  0  0
  -21.6642  -26.7482   22.1212 H   0  0  0  0  0  0
  -19.6917  -25.6292   21.1243 H   0  0  0  0  0  0
  -19.6689  -27.3183   20.6754 H   0  0  0  0  0  0
  -17.4209  -26.6733   21.3993 H   0  0  0  0  0  0
  -18.0274  -26.0056   22.8985 H   0  0  0  0  0  0
  -19.7913  -30.7287   24.2268 H   0  0  0  0  0  0
  -17.4988  -31.6258   24.5200 H   0  0  0  0  0  0
  -15.5326  -30.3004   23.7619 H   0  0  0  0  0  0
  -15.8658  -28.0809   22.7072 H   0  0  0  0  0  0
  -24.6030  -30.6840   25.7777 H   0  0  0  0  0  0
  -24.8761  -32.2722   26.4848 H   0  0  0  0  0  0
  -25.8106  -30.8878   27.0258 H   0  0  0  0  0  0
  -26.2922  -29.6789   24.1218 H   0  0  0  0  0  0
  -27.4219  -29.7359   25.4567 H   0  0  0  0  0  0
  -27.8712  -30.4441   23.9233 H   0  0  0  0  0  0
  -27.2643  -33.3627   26.2141 H   0  0  0  0  0  0
  -28.3818  -32.6948   25.0335 H   0  0  0  0  0  0
  -28.0753  -31.8468   26.5405 H   0  0  0  0  0  0
  -28.2609  -38.0116   24.7577 H   0  0  0  0  0  0
  -28.1113  -36.2658   24.6278 H   0  0  0  0  0  0
  -27.2302  -37.1428   25.8872 H   0  0  0  0  0  0
  -20.9311  -29.8717   21.6914 H   0  0  0  0  0  0
  -26.0226  -38.2880   24.1426 H   0  0  0  0  0  0
  -33.7116  -22.8971   21.4362 H   0  0  0  0  0  0
  -34.4045  -21.5004   20.6964 H   0  0  0  0  0  0
  -35.1927  -22.2184   22.0980 H   0  0  0  0  0  0
  -30.1630  -22.0436   24.9398 H   0  0  0  0  0  0
  -30.9677  -21.1916   26.2631 H   0  0  0  0  0  0
  -29.7824  -20.3878   25.2358 H   0  0  0  0  0  0
  -31.8226  -13.4463   23.6960 H   0  0  0  0  0  0
  -33.1410  -14.4597   24.2338 H   0  0  0  0  0  0
  -33.1172  -13.8571   22.5786 H   0  0  0  0  0  0
  -32.9960  -23.6187   23.3213 H   0  0  0  0  0  0
  -31.7666  -23.3474   24.4639 H   0  0  0  0  0  0
  -33.3022  -16.8317   24.4064 H   0  0  0  0  0  0
  -34.4502  -17.0934   23.1689 H   0  0  0  0  0  0
  -29.9526  -16.0511   21.7383 H   0  0  0  0  0  0
  -29.8044  -14.6175   22.6985 H   0  0  0  0  0  0
  -30.1222  -22.7982   22.6227 H   0  0  0  0  0  0
  -31.3788  -23.0035   21.4394 H   0  0  0  0  0  0
  -31.6212  -25.4271   22.1506 H   0  0  0  0  0  0
  -30.2918  -25.1980   23.2652 H   0  0  0  0  0  0
  -28.8643  -24.4729   21.2492 H   0  0  0  0  0  0
  -30.1929  -24.9318   20.2184 H   0  0  0  0  0  0
  -30.0066  -27.3120   21.1013 H   0  0  0  0  0  0
  -28.6295  -26.7862   22.0775 H   0  0  0  0  0  0
  -31.2297  -15.8839   23.8671 H   0  0  0  0  0  0
  -33.1232  -16.2143   21.6695 H   0  0  0  0  0  0
  -31.9520  -17.2784   22.0149 H   0  0  0  0  0  0
  1 25  1  0  0  0
  1 30  2  0  0  0
  1 82  1  0  0  0
  2  3  1  0  0  0
  2 25  1  0  0  0
  2 91  1  0  0  0
  2 92  1  0  0  0
  3  4  1  0  0  0
  3 93  1  0  0  0
  3 94  1  0  0  0
  4  5  1  0  0  0
  4 95  1  0  0  0
  4 96  1  0  0  0
  5  6  1  0  0  0
  5 26  1  0  0  0
  5 97  1  0  0  0
  6 25  1  0  0  0
  6 98  1  0  0  0
  6 99  1  0  0  0
  7  8  2  0  0  0
  7 26  1  0  0  0
  7 29  1  0  0  0
  8  9  1  0  0  0
  8 22  1  0  0  0
  9 10  1  0  0  0
  9 27  2  0  0  0
 10 11  2  0  0  0
 10 15  1  0  0  0
 11 12  1  0  0  0
 11100  1  0  0  0
 12 13  2  0  0  0
 12101  1  0  0  0
 13 14  1  0  0  0
 13 31  1  0  0  0
 14 15  2  0  0  0
 14102  1  0  0  0
 15103  1  0  0  0
 16 17  2  0  0  0
 16 21  1  0  0  0
 16 31  1  0  0  0
 17 18  1  0  0  0
 17104  1  0  0  0
 18 19  2  0  0  0
 18105  1  0  0  0
 19 20  1  0  0  0
 19 24  1  0  0  0
 20 21  2  0  0  0
 20106  1  0  0  0
 21 23  1  0  0  0
 22 28  1  0  0  0
 22 32  2  0  0  0
 26 27  1  0  0  0
 28107  1  0  0  0
 28108  1  0  0  0
 29109  1  0  0  0
 29110  1  0  0  0
 33 34  1  0  0  0
 33 66  1  0  0  0
 33 70  2  0  0  0
 34 36  1  0  0  0
 34 59  1  0  0  0
 34111  1  0  0  0
 35 44  2  0  0  0
 35 45  1  0  0  0
 35 68  1  0  0  0
 36 56  1  0  0  0
 36112  1  0  0  0
 37 39  1  0  0  0
 37 47  1  0  0  0
 37 66  1  0  0  0
 37113  1  0  0  0
 38 43  2  0  0  0
 38 46  1  0  0  0
 38 47  1  0  0  0
 39 64  1  0  0  0
 39 67  2  0  0  0
 40 52  1  0  0  0
 40 53  2  0  0  0
 40 58  1  0  0  0
 41114  1  0  0  0
 41115  1  0  0  0
 41116  1  0  0  0
 41 48  1  0  0  0
 42 43  1  0  0  0
 42 66  1  0  0  0
 42117  1  0  0  0
 42118  1  0  0  0
 43 44  1  0  0  0
 44119  1  0  0  0
 45 46  2  0  0  0
 45120  1  0  0  0
 46121  1  0  0  0
 47122  1  0  0  0
 47123  1  0  0  0
 48 56  1  0  0  0
 48 65  1  0  0  0
 48124  1  0  0  0
 49 50  1  0  0  0
 49 53  1  0  0  0
 49 64  1  0  0  0
 49125  1  0  0  0
 50 51  1  0  0  0
 50126  1  0  0  0
 50127  1  0  0  0
 51 52  1  0  0  0
 51128  1  0  0  0
 51129  1  0  0  0
 52130  1  0  0  0
 52131  1  0  0  0
 53 54  1  0  0  0
 54 55  2  0  0  0
 54132  1  0  0  0
 55 57  1  0  0  0
 55133  1  0  0  0
 56 69  2  0  0  0
 57 58  2  0  0  0
 57134  1  0  0  0
 58135  1  0  0  0
 59 60  1  0  0  0
 59 61  1  0  0  0
 59 62  1  0  0  0
 60136  1  0  0  0
 60137  1  0  0  0
 60138  1  0  0  0
 61139  1  0  0  0
 61140  1  0  0  0
 61141  1  0  0  0
 62142  1  0  0  0
 62143  1  0  0  0
 62144  1  0  0  0
 63 65  1  0  0  0
 63145  1  0  0  0
 63146  1  0  0  0
 63147  1  0  0  0
 64148  1  0  0  0
 65149  1  0  0  0
 68 86  1  0  0  0
 71 72  2  0  0  0
 71 73  1  0  0  0
 71 80  1  0  0  0
 72 75  1  0  0  0
 72 77  1  0  0  0
 73 76  2  0  0  0
 73 78  1  0  0  0
 74 75  2  0  0  0
 74 76  1  0  0  0
 74 81  1  0  0  0
 75 89  1  0  0  0
 76 90  1  0  0  0
 77150  1  0  0  0
 77151  1  0  0  0
 77152  1  0  0  0
 78153  1  0  0  0
 78154  1  0  0  0
 78155  1  0  0  0
 79156  1  0  0  0
 79157  1  0  0  0
 79158  1  0  0  0
 79 87  1  0  0  0
 80 83  1  0  0  0
 80159  1  0  0  0
 80160  1  0  0  0
 81 88  1  0  0  0
 81161  1  0  0  0
 81162  1  0  0  0
 82 87  1  0  0  0
 82163  1  0  0  0
 82164  1  0  0  0
 83 84  1  0  0  0
 83165  1  0  0  0
 83166  1  0  0  0
 84 85  1  0  0  0
 84167  1  0  0  0
 84168  1  0  0  0
 85 86  1  0  0  0
 85169  1  0  0  0
 85170  1  0  0  0
 86171  1  0  0  0
 86172  1  0  0  0
 87 88  1  0  0  0
 87173  1  0  0  0
 88174  1  0  0  0
 88175  1  0  0  0
M  CHG  1  88   1
M  ISO  4   1 100  68 101  82 100  86 101
M  END
> <chiral flag>
0

> <version>
0

> <s_m_source_file>
/data/baiqing/PycharmProjects/Reinvent-master-3.2/result/LINK_invent/BTK/process_docking_weight1_custom_sum_contain_oxygen_bond_distance_aromatic_linkinvent_7_9_3/rearranged_h_0024.sdf

> <i_m_source_file_index>
60

> <r_mmod_Potential_Energy-OPLS-2005>
-228.07177734375

> <r_mmod_Stretch_Energy-OPLS-2005>
37.2151908874512

> <r_mmod_Bend_Energy-OPLS-2005>
103.750183105469

> <r_mmod_Torsional_Energy-OPLS-2005>
169.117095947266

> <r_mmod_Improper_Torsional_Energy-OPLS-2005>
1.74923944473267

> <r_mmod_Van_der_Waal_Energy-OPLS-2005>
171.302658081055

> <r_mmod_Electrostatic_Energy-OPLS-2005>
-322.275695800781

> <r_mmod_Solvation_Energy-OPLS-2005>
-397.225738525391

> <b_mmod_Minimization_Converged-OPLS-2005>
0

> <r_mmod_RMS_Derivative-OPLS-2005>
2.74312210083008

$$$$
60
                    3D
 Structure written by MMmdl.
163171  0  0  1  0            999 V2000
  -30.4684  -15.0122   20.4103 C   0  0  0  0  0  0
  -30.4435  -12.6377   19.4868 C   0  0  0  0  0  0
  -29.5198  -12.5380   18.2492 C   0  0  0  0  0  0
  -28.0516  -12.3180   18.6654 C   0  0  0  0  0  0
  -27.6168  -13.2525   19.8229 C   0  0  2  0  0  0
  -28.6566  -13.2928   20.9586 C   0  0  0  0  0  0
  -25.2405  -13.8208   20.5669 C   0  0  0  0  0  0
  -24.1753  -13.0425   20.9214 C   0  0  0  0  0  0
  -24.6382  -11.6914   20.8725 C   0  0  0  0  0  0
  -23.9080  -10.4281   21.0394 C   0  0  0  0  0  0
  -24.3632   -9.4202   21.9179 C   0  0  0  0  0  0
  -23.6305   -8.2235   22.0751 C   0  0  0  0  0  0
  -22.4287   -8.0270   21.3543 C   0  0  0  0  0  0
  -21.9924   -9.0246   20.4652 C   0  0  0  0  0  0
  -22.7246  -10.2125   20.3053 C   0  0  0  0  0  0
  -21.6861   -6.0740   22.5278 C   0  0  0  0  0  0
  -21.4025   -6.5649   23.8208 C   0  0  0  0  0  0
  -21.3656   -5.6804   24.9169 C   0  0  0  0  0  0
  -21.6036   -4.3067   24.7229 C   0  0  0  0  0  0
  -21.8819   -3.8156   23.4356 C   0  0  0  0  0  0
  -21.9200   -4.6967   22.3408 C   0  0  0  0  0  0
  -22.7772  -13.5184   21.1901 C   0  0  0  0  0  0
  -22.1660   -4.2149   21.0986 F   0  0  0  0  0  0
  -21.5624   -3.4555   25.7745 F   0  0  0  0  0  0
  -29.9168  -13.7320   20.3499 N   0  0  0  0  0  0
  -26.2818  -12.9448   20.3153 N   0  0  0  0  0  0
  -25.9305  -11.6578   20.5677 N   0  0  0  0  0  0
  -22.0432  -12.8171   22.0455 N   0  0  0  0  0  0
  -25.4071  -15.1950   20.4122 N   0  0  0  0  0  0
  -31.6943  -15.0925   20.2558 O   0  0  0  0  0  0
  -21.6648   -6.8872   21.4234 O   0  0  0  0  0  0
  -22.3444  -14.5480   20.6733 O   0  0  0  0  0  0
  -24.6544  -31.8332   23.1813 C   0  0  0  0  0  0
  -25.9270  -32.4628   23.8226 C   0  0  1  0  0  0
  -27.2172  -27.0611   20.1331 C   0  0  0  0  0  0
  -25.5976  -33.8437   24.2130 N   0  0  0  0  0  0
  -23.4616  -30.4526   21.5286 C   0  0  2  0  0  0
  -24.9062  -28.8673   20.1092 C   0  0  0  0  0  0
  -22.7606  -29.4529   22.4829 C   0  0  0  0  0  0
  -18.0312  -28.1432   22.8419 C   0  0  0  0  0  0
  -24.1513  -36.7255   23.2645 C   0  0  0  0  0  0
  -26.0235  -30.6846   21.3900 C   0  0  0  0  0  0
  -26.0886  -29.2911   20.7248 C   0  0  0  0  0  0
  -27.2392  -28.4045   20.7147 C   0  0  0  0  0  0
  -25.9904  -26.7502   19.5053 C   0  0  0  0  0  0
  -24.8730  -27.6135   19.4862 C   0  0  0  0  0  0
  -23.6883  -29.7756   20.1512 C   0  0  0  0  0  0
  -25.4136  -36.2983   24.0303 C   0  0  1  0  0  0
  -20.5928  -28.3777   23.1179 C   0  0  2  0  0  0
  -20.6791  -26.9469   22.5383 C   0  0  0  0  0  0
  -19.5777  -26.6403   21.5187 C   0  0  0  0  0  0
  -18.1960  -26.7953   22.1590 C   0  0  0  0  0  0
  -19.1562  -28.8918   23.2778 C   0  0  0  0  0  0
  -18.9478  -30.1514   23.8815 C   0  0  0  0  0  0
  -17.6471  -30.6603   24.0559 C   0  0  0  0  0  0
  -25.9085  -34.9362   23.5019 C   0  0  0  0  0  0
  -16.5365  -29.9093   23.6356 C   0  0  0  0  0  0
  -16.7287  -28.6533   23.0315 C   0  0  0  0  0  0
  -26.4581  -31.6535   25.0705 C   0  0  0  0  0  0
  -25.3755  -31.3747   26.1387 C   0  0  0  0  0  0
  -27.0493  -30.2925   24.6371 C   0  0  0  0  0  0
  -27.6084  -32.4322   25.7499 C   0  0  0  0  0  0
  -27.5578  -37.1780   24.8445 C   0  0  0  0  0  0
  -21.4296  -29.3079   22.3542 N   0  0  0  0  0  0
  -26.4295  -37.3690   23.9380 N   0  0  0  0  0  0
  -24.7342  -31.0124   22.0890 N   0  0  0  0  0  0
  -23.4185  -28.8083   23.3025 O   0  0  0  0  0  0
  -28.2914  -26.0755   20.2347 O   0  0  0  0  0  0
  -26.5669  -34.8867   22.4608 O   0  0  0  0  0  0
  -23.5639  -32.1247   23.6989 O   0  0  0  0  0  0
  -29.3529  -20.0307   20.3222 C   0  0  0  0  0  0
  -29.0546  -18.6608   19.7776 C   0  0  0  0  0  0
  -30.1692  -19.6943   21.3979 C   0  0  0  0  0  0
  -29.6941  -17.6087   20.4888 C   0  0  0  0  0  0
  -28.1830  -18.3971   18.5778 C   0  0  0  0  0  0
  -27.7364  -24.3861   18.3478 C   0  0  0  0  0  0
  -29.9933  -24.7823   19.2904 C   0  0  0  0  0  0
  -30.9588  -17.5693   22.6311 C   0  0  0  0  0  0
  -29.0012  -21.5789   19.7281 C   0  0  0  0  0  0
  -28.5169  -23.0654   20.4540 C   0  0  0  0  0  0
  -30.8821  -20.6265   22.3519 C   0  0  0  0  0  0
  -28.5086  -24.5966   19.6646 C   0  0  0  0  0  0
  -30.3039  -18.2765   21.5410 N   0  0  0  0  0  0
  -29.6107  -16.1632   20.3294 N   0  0  0  0  0  0
  -32.1388  -20.2452   22.5726 F   0  0  0  0  0  0
  -30.9700  -21.8674   21.8793 F   0  0  0  0  0  0
  -30.2609  -20.6901   23.5311 F   0  0  0  0  0  0
  -31.4658  -12.8419   19.1681 H   0  0  0  0  0  0
  -30.4796  -11.6927   20.0312 H   0  0  0  0  0  0
  -29.8478  -11.7324   17.5913 H   0  0  0  0  0  0
  -29.6002  -13.4584   17.6675 H   0  0  0  0  0  0
  -27.9504  -11.2793   18.9798 H   0  0  0  0  0  0
  -27.3906  -12.4418   17.8067 H   0  0  0  0  0  0
  -27.5677  -14.2498   19.3848 H   0  0  0  0  0  0
  -28.7579  -12.3173   21.4376 H   0  0  0  0  0  0
  -28.3443  -13.9961   21.7325 H   0  0  0  0  0  0
  -25.2763   -9.5687   22.4784 H   0  0  0  0  0  0
  -24.0008   -7.4641   22.7496 H   0  0  0  0  0  0
  -21.0839   -8.8777   19.8986 H   0  0  0  0  0  0
  -22.3684  -10.9679   19.6191 H   0  0  0  0  0  0
  -21.2015   -7.6161   23.9700 H   0  0  0  0  0  0
  -21.1473   -6.0546   25.9072 H   0  0  0  0  0  0
  -22.0599   -2.7624   23.2855 H   0  0  0  0  0  0
  -22.4050  -11.9833   22.4847 H   0  0  0  0  0  0
  -21.1054  -13.1210   22.2667 H   0  0  0  0  0  0
  -24.6415  -15.8472   20.5406 H   0  0  0  0  0  0
  -26.2525  -15.6468   20.0939 H   0  0  0  0  0  0
  -26.7323  -32.5179   23.0937 H   0  0  0  0  0  0
  -25.0045  -33.9540   25.0217 H   0  0  0  0  0  0
  -22.7750  -31.2857   21.3649 H   0  0  0  0  0  0
  -23.3750  -35.9616   23.3281 H   0  0  0  0  0  0
  -24.3604  -36.8907   22.2064 H   0  0  0  0  0  0
  -23.7308  -37.6462   23.6698 H   0  0  0  0  0  0
  -26.1898  -31.4446   20.6254 H   0  0  0  0  0  0
  -26.8929  -30.7277   22.0358 H   0  0  0  0  0  0
  -28.1455  -28.7241   21.2097 H   0  0  0  0  0  0
  -25.8235  -25.7880   19.0627 H   0  0  0  0  0  0
  -23.9617  -27.2767   19.0112 H   0  0  0  0  0  0
  -23.8297  -30.5460   19.3940 H   0  0  0  0  0  0
  -22.8050  -29.2165   19.8337 H   0  0  0  0  0  0
  -25.1338  -36.1806   25.0797 H   0  0  0  0  0  0
  -20.9973  -28.3395   24.1313 H   0  0  0  0  0  0
  -20.5678  -26.2409   23.3618 H   0  0  0  0  0  0
  -21.6666  -26.7465   22.1194 H   0  0  0  0  0  0
  -19.6970  -25.6301   21.1252 H   0  0  0  0  0  0
  -19.6719  -27.3182   20.6691 H   0  0  0  0  0  0
  -17.4214  -26.6653   21.4015 H   0  0  0  0  0  0
  -18.0395  -26.0127   22.9022 H   0  0  0  0  0  0
  -19.7956  -30.7347   24.2138 H   0  0  0  0  0  0
  -17.5039  -31.6260   24.5207 H   0  0  0  0  0  0
  -15.5366  -30.2964   23.7763 H   0  0  0  0  0  0
  -15.8688  -28.0861   22.7030 H   0  0  0  0  0  0
  -24.5958  -30.7083   25.7684 H   0  0  0  0  0  0
  -24.8955  -32.2936   26.4747 H   0  0  0  0  0  0
  -25.8034  -30.8965   27.0206 H   0  0  0  0  0  0
  -26.3175  -29.6588   24.1345 H   0  0  0  0  0  0
  -27.4019  -29.7282   25.5017 H   0  0  0  0  0  0
  -27.9097  -30.4148   23.9781 H   0  0  0  0  0  0
  -27.2650  -33.3616   26.2053 H   0  0  0  0  0  0
  -28.3902  -32.6862   25.0332 H   0  0  0  0  0  0
  -28.0749  -31.8477   26.5441 H   0  0  0  0  0  0
  -28.2536  -38.0123   24.7453 H   0  0  0  0  0  0
  -28.1121  -36.2625   24.6307 H   0  0  0  0  0  0
  -27.2278  -37.1454   25.8843 H   0  0  0  0  0  0
  -20.9581  -29.8752   21.6642 H   0  0  0  0  0  0
  -26.0161  -38.2763   24.1356 H   0  0  0  0  0  0
  -28.5914  -17.5787   17.9837 H   0  0  0  0  0  0
  -28.1063  -19.2708   17.9314 H   0  0  0  0  0  0
  -27.1809  -18.1147   18.9022 H   0  0  0  0  0  0
  -28.2265  -23.6467   17.7143 H   0  0  0  0  0  0
  -27.6541  -25.2976   17.7571 H   0  0  0  0  0  0
  -26.7396  -23.9898   18.5357 H   0  0  0  0  0  0
  -30.3898  -23.9468   18.7135 H   0  0  0  0  0  0
  -30.6088  -24.8651   20.1871 H   0  0  0  0  0  0
  -30.1598  -25.6806   18.6939 H   0  0  0  0  0  0
  -31.8990  -17.1458   22.2763 H   0  0  0  0  0  0
  -30.3146  -16.7582   22.9753 H   0  0  0  0  0  0
  -31.1375  -18.2195   23.4830 H   0  0  0  0  0  0
  -29.9232  -21.8187   19.1995 H   0  0  0  0  0  0
  -28.2848  -21.4056   18.9272 H   0  0  0  0  0  0
  -27.5053  -22.9037   20.8252 H   0  0  0  0  0  0
  -29.1053  -23.2017   21.3578 H   0  0  0  0  0  0
  -28.6780  -15.8597   20.0973 H   0  0  0  0  0  0
  1 25  1  0  0  0
  1 30  2  0  0  0
  1 84  1  0  0  0
  2  3  1  0  0  0
  2 25  1  0  0  0
  2 88  1  0  0  0
  2 89  1  0  0  0
  3  4  1  0  0  0
  3 90  1  0  0  0
  3 91  1  0  0  0
  4  5  1  0  0  0
  4 92  1  0  0  0
  4 93  1  0  0  0
  5  6  1  0  0  0
  5 26  1  0  0  0
  5 94  1  0  0  0
  6 25  1  0  0  0
  6 95  1  0  0  0
  6 96  1  0  0  0
  7  8  2  0  0  0
  7 26  1  0  0  0
  7 29  1  0  0  0
  8  9  1  0  0  0
  8 22  1  0  0  0
  9 10  1  0  0  0
  9 27  2  0  0  0
 10 11  2  0  0  0
 10 15  1  0  0  0
 11 12  1  0  0  0
 11 97  1  0  0  0
 12 13  2  0  0  0
 12 98  1  0  0  0
 13 14  1  0  0  0
 13 31  1  0  0  0
 14 15  2  0  0  0
 14 99  1  0  0  0
 15100  1  0  0  0
 16 17  2  0  0  0
 16 21  1  0  0  0
 16 31  1  0  0  0
 17 18  1  0  0  0
 17101  1  0  0  0
 18 19  2  0  0  0
 18102  1  0  0  0
 19 20  1  0  0  0
 19 24  1  0  0  0
 20 21  2  0  0  0
 20103  1  0  0  0
 21 23  1  0  0  0
 22 28  1  0  0  0
 22 32  2  0  0  0
 26 27  1  0  0  0
 28104  1  0  0  0
 28105  1  0  0  0
 29106  1  0  0  0
 29107  1  0  0  0
 33 34  1  0  0  0
 33 66  1  0  0  0
 33 70  2  0  0  0
 34 36  1  0  0  0
 34 59  1  0  0  0
 34108  1  0  0  0
 35 44  2  0  0  0
 35 45  1  0  0  0
 35 68  1  0  0  0
 36 56  1  0  0  0
 36109  1  0  0  0
 37 39  1  0  0  0
 37 47  1  0  0  0
 37 66  1  0  0  0
 37110  1  0  0  0
 38 43  2  0  0  0
 38 46  1  0  0  0
 38 47  1  0  0  0
 39 64  1  0  0  0
 39 67  2  0  0  0
 40 52  1  0  0  0
 40 53  2  0  0  0
 40 58  1  0  0  0
 41111  1  0  0  0
 41112  1  0  0  0
 41113  1  0  0  0
 41 48  1  0  0  0
 42 43  1  0  0  0
 42 66  1  0  0  0
 42114  1  0  0  0
 42115  1  0  0  0
 43 44  1  0  0  0
 44116  1  0  0  0
 45 46  2  0  0  0
 45117  1  0  0  0
 46118  1  0  0  0
 47119  1  0  0  0
 47120  1  0  0  0
 48 56  1  0  0  0
 48 65  1  0  0  0
 48121  1  0  0  0
 49 50  1  0  0  0
 49 53  1  0  0  0
 49 64  1  0  0  0
 49122  1  0  0  0
 50 51  1  0  0  0
 50123  1  0  0  0
 50124  1  0  0  0
 51 52  1  0  0  0
 51125  1  0  0  0
 51126  1  0  0  0
 52127  1  0  0  0
 52128  1  0  0  0
 53 54  1  0  0  0
 54 55  2  0  0  0
 54129  1  0  0  0
 55 57  1  0  0  0
 55130  1  0  0  0
 56 69  2  0  0  0
 57 58  2  0  0  0
 57131  1  0  0  0
 58132  1  0  0  0
 59 60  1  0  0  0
 59 61  1  0  0  0
 59 62  1  0  0  0
 60133  1  0  0  0
 60134  1  0  0  0
 60135  1  0  0  0
 61136  1  0  0  0
 61137  1  0  0  0
 61138  1  0  0  0
 62139  1  0  0  0
 62140  1  0  0  0
 62141  1  0  0  0
 63 65  1  0  0  0
 63142  1  0  0  0
 63143  1  0  0  0
 63144  1  0  0  0
 64145  1  0  0  0
 65146  1  0  0  0
 68 82  1  0  0  0
 71 72  1  0  0  0
 71 73  2  0  0  0
 71 79  1  0  0  0
 72 74  2  0  0  0
 72 75  1  0  0  0
 73 81  1  0  0  0
 73 83  1  0  0  0
 74 83  1  0  0  0
 74 84  1  0  0  0
 75147  1  0  0  0
 75148  1  0  0  0
 75149  1  0  0  0
 76150  1  0  0  0
 76151  1  0  0  0
 76152  1  0  0  0
 76 82  1  0  0  0
 77 82  1  0  0  0
 77153  1  0  0  0
 77154  1  0  0  0
 77155  1  0  0  0
 78 83  1  0  0  0
 78156  1  0  0  0
 78157  1  0  0  0
 78158  1  0  0  0
 79 80  1  0  0  0
 79159  1  0  0  0
 79160  1  0  0  0
 80 82  1  0  0  0
 80161  1  0  0  0
 80162  1  0  0  0
 81 85  1  0  0  0
 81 86  1  0  0  0
 81 87  1  0  0  0
 84163  1  0  0  0
M  ISO  4   1 100  68 101  82 101  84 100
M  END
> <chiral flag>
0

> <version>
0

> <s_m_source_file>
/data/baiqing/PycharmProjects/Reinvent-master-3.2/result/LINK_invent/BTK/process_docking_weight1_custom_sum_contain_oxygen_bond_distance_aromatic_linkinvent_7_9_3/rearranged_h_0024.sdf

> <i_m_source_file_index>
61

> <r_mmod_Potential_Energy-OPLS-2005>
709.048645019531

> <r_mmod_Stretch_Energy-OPLS-2005>
323.496154785156

> <r_mmod_Bend_Energy-OPLS-2005>
358.875091552734

> <r_mmod_Torsional_Energy-OPLS-2005>
233.713516235352

> <r_mmod_Improper_Torsional_Energy-OPLS-2005>
9.58143711090088

> <r_mmod_Van_der_Waal_Energy-OPLS-2005>
112.782920837402

> <r_mmod_Electrostatic_Energy-OPLS-2005>
-386.312927246094

> <r_mmod_Solvation_Energy-OPLS-2005>
-196.439712524414

> <b_mmod_Minimization_Converged-OPLS-2005>
0

> <r_mmod_RMS_Derivative-OPLS-2005>
3.50632786750793

$$$$
61
                    3D
 Structure written by MMmdl.
189197  0  0  1  0            999 V2000
  -30.0722  -16.3236   19.7699 C   0  0  0  0  0  0
  -30.3951  -13.5923   19.2953 C   0  0  0  0  0  0
  -29.5659  -12.7515   18.2663 C   0  0  0  0  0  0
  -28.2273  -12.2582   18.8454 C   0  0  0  0  0  0
  -27.5897  -13.3633   19.7153 C   0  0  2  0  0  0
  -28.5897  -14.1065   20.6453 C   0  0  0  0  0  0
  -25.2428  -13.8452   20.5907 C   0  0  0  0  0  0
  -24.1898  -13.0478   20.9333 C   0  0  0  0  0  0
  -24.6733  -11.7048   20.8648 C   0  0  0  0  0  0
  -23.9381  -10.4385   21.0336 C   0  0  0  0  0  0
  -24.3820   -9.4280   21.9176 C   0  0  0  0  0  0
  -23.6462   -8.2330   22.0748 C   0  0  0  0  0  0
  -22.4430   -8.0392   21.3572 C   0  0  0  0  0  0
  -22.0101   -9.0362   20.4645 C   0  0  0  0  0  0
  -22.7475  -10.2225   20.3054 C   0  0  0  0  0  0
  -21.6888   -6.0810   22.5287 C   0  0  0  0  0  0
  -21.4061   -6.5709   23.8208 C   0  0  0  0  0  0
  -21.3668   -5.6847   24.9154 C   0  0  0  0  0  0
  -21.6015   -4.3096   24.7193 C   0  0  0  0  0  0
  -21.8833   -3.8222   23.4303 C   0  0  0  0  0  0
  -21.9217   -4.7047   22.3376 C   0  0  0  0  0  0
  -22.7865  -13.5133   21.1932 C   0  0  0  0  0  0
  -22.1687   -4.2244   21.0938 F   0  0  0  0  0  0
  -21.5600   -3.4564   25.7679 F   0  0  0  0  0  0
  -29.6030  -14.8554   19.7979 N   0  0  0  0  0  0
  -26.3085  -12.9940   20.3395 N   0  0  0  0  0  0
  -25.9699  -11.6899   20.5585 N   0  0  0  0  0  0
  -22.0565  -12.8049   22.0430 N   0  0  0  0  0  0
  -25.3729  -15.2192   20.4215 N   0  0  0  0  0  0
  -31.2854  -16.1230   20.0280 O   0  0  0  0  0  0
  -21.6724   -6.9003   21.4283 O   0  0  0  0  0  0
  -22.3454  -14.5383   20.6695 O   0  0  0  0  0  0
  -24.8252  -31.9094   23.2021 C   0  0  0  0  0  0
  -26.0728  -32.5078   23.8798 C   0  0  1  0  0  0
  -27.1378  -26.8279   20.5104 C   0  0  0  0  0  0
  -25.7292  -33.9017   24.2734 N   0  0  0  0  0  0
  -23.7186  -30.2930   21.8849 C   0  0  2  0  0  0
  -25.0589  -28.5974   20.6102 C   0  0  0  0  0  0
  -23.0735  -29.5918   23.0816 C   0  0  0  0  0  0
  -18.1450  -28.3580   21.3305 C   0  0  0  0  0  0
  -24.1387  -36.7626   23.2546 C   0  0  0  0  0  0
  -26.2666  -30.5451   21.6144 C   0  0  0  0  0  0
  -26.2852  -29.1689   20.8950 C   0  0  0  0  0  0
  -27.3631  -28.2209   20.8136 C   0  0  0  0  0  0
  -25.8850  -26.4258   20.2011 C   0  0  0  0  0  0
  -24.8928  -27.1808   20.4247 C   0  0  0  0  0  0
  -23.8209  -29.1566   20.9258 C   0  0  0  0  0  0
  -25.4069  -36.3454   24.0215 C   0  0  1  0  0  0
  -21.2854  -28.0193   23.4102 C   0  0  2  0  0  0
  -20.9179  -26.0498   23.1700 C   0  0  0  0  0  0
  -19.2090  -25.3205   22.1810 C   0  0  0  0  0  0
  -17.8818  -26.5144   21.3009 C   0  0  0  0  0  0
  -20.3367  -29.1317   22.5258 C   0  0  0  0  0  0
  -19.9705  -30.6766   23.3337 C   0  0  0  0  0  0
  -18.4666  -31.3580   23.2214 C   0  0  0  0  0  0
  -25.9422  -34.9839   23.5549 C   0  0  0  0  0  0
  -17.1398  -30.8099   22.4213 C   0  0  0  0  0  0
  -16.9238  -29.4242   21.5560 C   0  0  0  0  0  0
  -26.4856  -31.7175   25.1692 C   0  0  0  0  0  0
  -25.2992  -31.4180   26.1323 C   0  0  0  0  0  0
  -27.1570  -30.3761   24.8372 C   0  0  0  0  0  0
  -27.5647  -32.5474   25.9344 C   0  0  0  0  0  0
  -27.5560  -37.1811   24.8456 C   0  0  0  0  0  0
  -21.9655  -29.0269   22.7414 N   0  0  0  0  0  0
  -26.4457  -37.3848   23.9148 N   0  0  0  0  0  0
  -24.9731  -30.9208   22.2342 N   0  0  0  0  0  0
  -23.7935  -29.0158   23.8876 O   0  0  0  0  0  0
  -27.7295  -25.5157   20.4564 O   0  0  0  0  0  0
  -26.5239  -34.9556   22.4853 O   0  0  0  0  0  0
  -23.7408  -32.3287   23.5172 O   0  0  0  0  0  0
  -20.2322  -28.1567   20.0086 C   0  0  0  0  0  0
  -20.1798  -27.2547   21.3095 C   0  0  0  0  0  0
  -18.9997  -27.4841   23.1588 C   0  0  0  0  0  0
  -19.2303  -30.2565   21.0797 C   0  0  0  0  0  0
  -19.6415  -29.5158   19.8494 C   0  0  0  0  0  0
  -18.3662  -28.9600   23.3369 C   0  0  0  0  0  0
  -25.6414  -27.4639   17.7083 C   0  0  0  0  0  0
  -18.5824  -26.6772   24.4470 C   0  0  0  0  0  0
  -27.0128  -28.5205   17.6923 C   0  0  0  0  0  0
  -21.1993  -30.4047   20.1650 C   0  0  0  0  0  0
  -21.2214  -26.2374   20.5528 C   0  0  0  0  0  0
  -26.8176  -25.5672   17.4555 C   0  0  0  0  0  0
  -28.0586  -23.8651   18.0761 C   0  0  0  0  0  0
  -24.3017  -23.6772   19.3480 C   0  0  0  0  0  0
  -28.5700  -21.7534   18.2265 C   0  0  0  0  0  0
  -22.7759  -23.8521   19.6832 C   0  0  0  0  0  0
  -25.2370  -23.6865   20.6988 C   0  0  0  0  0  0
  -22.8243  -29.6555   18.6600 C   0  0  0  0  0  0
  -29.0274  -19.8176   19.2114 C   0  0  0  0  0  0
  -21.6238  -24.4685   18.7714 C   0  0  0  0  0  0
  -26.8750  -24.1250   20.7322 C   0  0  0  0  0  0
  -24.1122  -28.0854   18.0258 N   0  0  0  0  0  0
  -29.4503  -17.8405   19.2534 N   0  0  0  0  0  0
  -20.6313  -25.2505   19.5977 N   0  3  0  0  0  0
  -19.2190  -30.0804   18.2702 Cl  0  0  0  0  0  0
  -17.3937  -29.3214   24.8211 Cl  0  0  0  0  0  0
  -31.2819  -13.9456   18.7460 H   0  0  0  0  0  0
  -30.7807  -12.9919   20.1212 H   0  0  0  0  0  0
  -30.1542  -11.8887   17.9035 H   0  0  0  0  0  0
  -29.3709  -13.3882   17.3950 H   0  0  0  0  0  0
  -28.4205  -11.3925   19.4801 H   0  0  0  0  0  0
  -27.5490  -11.9538   18.0567 H   0  0  0  0  0  0
  -27.3228  -14.1335   18.9912 H   0  0  0  0  0  0
  -29.0424  -13.4993   21.4106 H   0  0  0  0  0  0
  -28.0528  -14.8893   21.1870 H   0  0  0  0  0  0
  -25.2994   -9.5703   22.4726 H   0  0  0  0  0  0
  -24.0141   -7.4714   22.7495 H   0  0  0  0  0  0
  -21.0997   -8.8979   19.8935 H   0  0  0  0  0  0
  -22.4021  -10.9783   19.6144 H   0  0  0  0  0  0
  -21.2098   -7.6221   23.9741 H   0  0  0  0  0  0
  -21.1449   -6.0546   25.9029 H   0  0  0  0  0  0
  -22.0590   -2.7710   23.2756 H   0  0  0  0  0  0
  -22.4228  -11.9790   22.4898 H   0  0  0  0  0  0
  -21.1118  -13.0923   22.2546 H   0  0  0  0  0  0
  -24.5757  -15.8306   20.5551 H   0  0  0  0  0  0
  -26.2096  -15.7117   20.1364 H   0  0  0  0  0  0
  -26.9625  -32.6314   23.2722 H   0  0  0  0  0  0
  -25.0650  -34.0243   25.0041 H   0  0  0  0  0  0
  -23.4045  -31.1802   21.4267 H   0  0  0  0  0  0
  -23.3472  -36.0014   23.3005 H   0  0  0  0  0  0
  -24.3933  -36.9346   22.2073 H   0  0  0  0  0  0
  -23.7517  -37.6969   23.6824 H   0  0  0  0  0  0
  -26.9900  -31.3370   21.1700 H   0  0  0  0  0  0
  -26.8837  -30.0595   22.4229 H   0  0  0  0  0  0
  -28.3700  -28.6141   21.0820 H   0  0  0  0  0  0
  -25.6472  -25.6124   19.6103 H   0  0  0  0  0  0
  -23.9261  -26.6662   20.2696 H   0  0  0  0  0  0
  -22.8771  -28.7091   20.5662 H   0  0  0  0  0  0
  -23.7072  -28.3209   21.5596 H   0  0  0  0  0  0
  -25.1100  -36.1895   25.0499 H   0  0  0  0  0  0
  -21.2911  -28.2972   24.4445 H   0  0  0  0  0  0
  -20.8651  -25.7139   24.2015 H   0  0  0  0  0  0
  -21.7964  -25.3968   23.0120 H   0  0  0  0  0  0
  -18.5635  -24.7705   22.8734 H   0  0  0  0  0  0
  -19.3915  -24.4742   21.5382 H   0  0  0  0  0  0
  -17.7959  -26.3043   20.2520 H   0  0  0  0  0  0
  -16.8858  -26.3652   21.6979 H   0  0  0  0  0  0
  -20.6544  -31.0789   24.0511 H   0  0  0  0  0  0
  -18.3384  -32.2476   23.8197 H   0  0  0  0  0  0
  -16.2757  -31.4441   22.5592 H   0  0  0  0  0  0
  -15.8987  -29.2198   21.2210 H   0  0  0  0  0  0
  -24.5417  -30.7553   25.7048 H   0  0  0  0  0  0
  -24.7808  -32.3348   26.4013 H   0  0  0  0  0  0
  -25.5843  -30.9672   27.0805 H   0  0  0  0  0  0
  -26.5079  -29.5695   24.5115 H   0  0  0  0  0  0
  -27.7101  -30.0133   25.6916 H   0  0  0  0  0  0
  -27.9354  -30.4912   24.1081 H   0  0  0  0  0  0
  -27.1271  -33.4747   26.3421 H   0  0  0  0  0  0
  -28.4021  -32.8135   25.2796 H   0  0  0  0  0  0
  -27.9870  -32.0036   26.7924 H   0  0  0  0  0  0
  -28.2266  -38.0254   24.7188 H   0  0  0  0  0  0
  -28.1232  -36.2714   24.6325 H   0  0  0  0  0  0
  -27.2335  -37.1531   25.8908 H   0  0  0  0  0  0
  -21.3450  -29.6499   22.2221 H   0  0  0  0  0  0
  -26.0073  -38.2734   24.1226 H   0  0  0  0  0  0
  -20.6650  -27.9346   19.0428 H   0  0  0  0  0  0
  -18.9127  -25.6757   24.6752 H   0  0  0  0  0  0
  -17.4934  -26.6000   24.4127 H   0  0  0  0  0  0
  -18.8414  -27.2503   25.3333 H   0  0  0  0  0  0
  -27.2813  -29.0274   16.7666 H   0  0  0  0  0  0
  -28.0267  -28.0251   17.7648 H   0  0  0  0  0  0
  -27.1404  -29.3511   18.4290 H   0  0  0  0  0  0
  -21.5226  -31.0781   20.9733 H   0  0  0  0  0  0
  -21.0991  -31.3349   19.5460 H   0  0  0  0  0  0
  -21.9946  -25.9533   21.2379 H   0  0  0  0  0  0
  -21.9672  -26.7479   19.9234 H   0  0  0  0  0  0
  -27.7645  -25.9736   17.8533 H   0  0  0  0  0  0
  -27.0846  -25.7244   16.3660 H   0  0  0  0  0  0
  -28.9765  -24.3496   18.5853 H   0  0  0  0  0  0
  -28.5831  -24.0506   17.1284 H   0  0  0  0  0  0
  -24.5023  -24.3697   18.5391 H   0  0  0  0  0  0
  -24.3852  -22.7552   18.7844 H   0  0  0  0  0  0
  -28.9348  -22.1606   19.1879 H   0  0  0  0  0  0
  -29.4333  -21.8210   17.5293 H   0  0  0  0  0  0
  -22.9640  -24.6159   20.3848 H   0  0  0  0  0  0
  -22.3436  -23.0213   20.2455 H   0  0  0  0  0  0
  -25.0685  -22.6403   21.0021 H   0  0  0  0  0  0
  -24.6731  -24.1698   21.4875 H   0  0  0  0  0  0
  -23.6018  -30.4494   18.9940 H   0  0  0  0  0  0
  -22.6836  -30.3692   17.8264 H   0  0  0  0  0  0
  -27.9562  -19.6881   19.3990 H   0  0  0  0  0  0
  -29.5934  -20.1569   20.1059 H   0  0  0  0  0  0
  -20.9617  -23.7084   18.3546 H   0  0  0  0  0  0
  -21.9186  -25.1020   17.9329 H   0  0  0  0  0  0
  -26.7955  -23.5442   19.7806 H   0  0  0  0  0  0
  -27.4590  -23.4845   21.4340 H   0  0  0  0  0  0
  -30.4124  -18.1355   19.4542 H   0  0  0  0  0  0
  -19.9322  -25.7238   19.0309 H   0  0  0  0  0  0
  -20.1269  -24.6429   20.2157 H   0  0  0  0  0  0
  1 25  1  0  0  0
  1 30  2  0  0  0
  1 93  1  0  0  0
  2  3  1  0  0  0
  2 25  1  0  0  0
  2 97  1  0  0  0
  2 98  1  0  0  0
  3  4  1  0  0  0
  3 99  1  0  0  0
  3100  1  0  0  0
  4  5  1  0  0  0
  4101  1  0  0  0
  4102  1  0  0  0
  5  6  1  0  0  0
  5 26  1  0  0  0
  5103  1  0  0  0
  6 25  1  0  0  0
  6104  1  0  0  0
  6105  1  0  0  0
  7  8  2  0  0  0
  7 26  1  0  0  0
  7 29  1  0  0  0
  8  9  1  0  0  0
  8 22  1  0  0  0
  9 10  1  0  0  0
  9 27  2  0  0  0
 10 11  2  0  0  0
 10 15  1  0  0  0
 11 12  1  0  0  0
 11106  1  0  0  0
 12 13  2  0  0  0
 12107  1  0  0  0
 13 14  1  0  0  0
 13 31  1  0  0  0
 14 15  2  0  0  0
 14108  1  0  0  0
 15109  1  0  0  0
 16 17  2  0  0  0
 16 21  1  0  0  0
 16 31  1  0  0  0
 17 18  1  0  0  0
 17110  1  0  0  0
 18 19  2  0  0  0
 18111  1  0  0  0
 19 20  1  0  0  0
 19 24  1  0  0  0
 20 21  2  0  0  0
 20112  1  0  0  0
 21 23  1  0  0  0
 22 28  1  0  0  0
 22 32  2  0  0  0
 26 27  1  0  0  0
 28113  1  0  0  0
 28114  1  0  0  0
 29115  1  0  0  0
 29116  1  0  0  0
 33 34  1  0  0  0
 33 66  1  0  0  0
 33 70  2  0  0  0
 34 36  1  0  0  0
 34 59  1  0  0  0
 34117  1  0  0  0
 35 44  2  0  0  0
 35 45  1  0  0  0
 35 68  1  0  0  0
 36 56  1  0  0  0
 36118  1  0  0  0
 37 39  1  0  0  0
 37 47  1  0  0  0
 37 66  1  0  0  0
 37119  1  0  0  0
 38 43  2  0  0  0
 38 46  1  0  0  0
 38 47  1  0  0  0
 39 64  1  0  0  0
 39 67  2  0  0  0
 40 52  1  0  0  0
 40 53  2  0  0  0
 40 58  1  0  0  0
 41120  1  0  0  0
 41121  1  0  0  0
 41122  1  0  0  0
 41 48  1  0  0  0
 42 43  1  0  0  0
 42 66  1  0  0  0
 42123  1  0  0  0
 42124  1  0  0  0
 43 44  1  0  0  0
 44125  1  0  0  0
 45 46  2  0  0  0
 45126  1  0  0  0
 46127  1  0  0  0
 47128  1  0  0  0
 47129  1  0  0  0
 48 56  1  0  0  0
 48 65  1  0  0  0
 48130  1  0  0  0
 49 50  1  0  0  0
 49 53  1  0  0  0
 49 64  1  0  0  0
 49131  1  0  0  0
 50 51  1  0  0  0
 50132  1  0  0  0
 50133  1  0  0  0
 51 52  1  0  0  0
 51134  1  0  0  0
 51135  1  0  0  0
 52136  1  0  0  0
 52137  1  0  0  0
 53 54  1  0  0  0
 54 55  2  0  0  0
 54138  1  0  0  0
 55 57  1  0  0  0
 55139  1  0  0  0
 56 69  2  0  0  0
 57 58  2  0  0  0
 57140  1  0  0  0
 58141  1  0  0  0
 59 60  1  0  0  0
 59 61  1  0  0  0
 59 62  1  0  0  0
 60142  1  0  0  0
 60143  1  0  0  0
 60144  1  0  0  0
 61145  1  0  0  0
 61146  1  0  0  0
 61147  1  0  0  0
 62148  1  0  0  0
 62149  1  0  0  0
 62150  1  0  0  0
 63 65  1  0  0  0
 63151  1  0  0  0
 63152  1  0  0  0
 63153  1  0  0  0
 64154  1  0  0  0
 65155  1  0  0  0
 68 91  1  0  0  0
 71 72  2  0  0  0
 71 75  1  0  0  0
 71156  1  0  0  0
 72 73  1  0  0  0
 72 81  1  0  0  0
 73 76  2  0  0  0
 73 78  1  0  0  0
 74 75  2  0  0  0
 74 76  1  0  0  0
 74 80  1  0  0  0
 75 95  1  0  0  0
 76 96  1  0  0  0
 77 79  1  0  0  0
 77 82  1  0  0  0
 77 92  2  0  0  0
 78157  1  0  0  0
 78158  1  0  0  0
 78159  1  0  0  0
 79160  1  0  0  0
 79161  1  0  0  0
 79162  1  0  0  0
 80 88  1  0  0  0
 80163  1  0  0  0
 80164  1  0  0  0
 81 94  1  0  0  0
 81165  1  0  0  0
 81166  1  0  0  0
 82 83  1  0  0  0
 82167  1  0  0  0
 82168  1  0  0  0
 83 85  1  0  0  0
 83169  1  0  0  0
 83170  1  0  0  0
 84 86  1  0  0  0
 84 87  1  0  0  0
 84171  1  0  0  0
 84172  1  0  0  0
 85 89  1  0  0  0
 85173  1  0  0  0
 85174  1  0  0  0
 86 90  1  0  0  0
 86175  1  0  0  0
 86176  1  0  0  0
 87 91  1  0  0  0
 87177  1  0  0  0
 87178  1  0  0  0
 88 92  1  0  0  0
 88179  1  0  0  0
 88180  1  0  0  0
 89 93  1  0  0  0
 89181  1  0  0  0
 89182  1  0  0  0
 90 94  1  0  0  0
 90183  1  0  0  0
 90184  1  0  0  0
 91185  1  0  0  0
 91186  1  0  0  0
 93187  1  0  0  0
 94188  1  0  0  0
 94189  1  0  0  0
M  CHG  1  94   1
M  ISO  4   1 100  68 101  91 101  93 100
M  END
> <chiral flag>
0

> <version>
0

> <s_m_source_file>
/data/baiqing/PycharmProjects/Reinvent-master-3.2/result/LINK_invent/BTK/process_docking_weight1_custom_sum_contain_oxygen_bond_distance_aromatic_linkinvent_7_9_3/rearranged_h_0024.sdf

> <i_m_source_file_index>
62

> <r_mmod_Potential_Energy-OPLS-2005>
29262.654296875

> <r_mmod_Stretch_Energy-OPLS-2005>
15480.2763671875

> <r_mmod_Bend_Energy-OPLS-2005>
3677.53686523438

> <r_mmod_Torsional_Energy-OPLS-2005>
626.9384765625

> <r_mmod_Improper_Torsional_Energy-OPLS-2005>
121.238090515137

> <r_mmod_Van_der_Waal_Energy-OPLS-2005>
5926.77978515625

> <r_mmod_Electrostatic_Energy-OPLS-2005>
-374.581298828125

> <r_mmod_Solvation_Energy-OPLS-2005>
-449.6962890625

> <b_mmod_Minimization_Converged-OPLS-2005>
0

> <r_mmod_RMS_Derivative-OPLS-2005>
99.9990005493164

$$$$
62
                    3D
 Structure written by MMmdl.
159167  0  0  1  0            999 V2000
  -30.7411  -14.4086   20.6462 C   0  0  0  0  0  0
  -30.4197  -12.3011   19.3998 C   0  0  0  0  0  0
  -29.4861  -12.5206   18.1939 C   0  0  0  0  0  0
  -28.0099  -12.3766   18.6113 C   0  0  0  0  0  0
  -27.6643  -13.2044   19.8773 C   0  0  2  0  0  0
  -28.7042  -12.9562   20.9918 C   0  0  0  0  0  0
  -25.2599  -13.8158   20.5676 C   0  0  0  0  0  0
  -24.1844  -13.0438   20.9167 C   0  0  0  0  0  0
  -24.6393  -11.6904   20.8723 C   0  0  0  0  0  0
  -23.9056  -10.4291   21.0400 C   0  0  0  0  0  0
  -24.3611   -9.4210   21.9178 C   0  0  0  0  0  0
  -23.6289   -8.2244   22.0752 C   0  0  0  0  0  0
  -22.4271   -8.0280   21.3543 C   0  0  0  0  0  0
  -21.9904   -9.0252   20.4646 C   0  0  0  0  0  0
  -22.7228  -10.2132   20.3052 C   0  0  0  0  0  0
  -21.6851   -6.0733   22.5279 C   0  0  0  0  0  0
  -21.4013   -6.5638   23.8211 C   0  0  0  0  0  0
  -21.3660   -5.6792   24.9174 C   0  0  0  0  0  0
  -21.6046   -4.3056   24.7224 C   0  0  0  0  0  0
  -21.8819   -3.8146   23.4347 C   0  0  0  0  0  0
  -21.9192   -4.6962   22.3403 C   0  0  0  0  0  0
  -22.7869  -13.5240   21.1838 C   0  0  0  0  0  0
  -22.1662   -4.2147   21.0980 F   0  0  0  0  0  0
  -21.5629   -3.4540   25.7738 F   0  0  0  0  0  0
  -30.0408  -13.2605   20.4480 N   0  0  0  0  0  0
  -26.3037  -12.9326   20.3370 N   0  0  0  0  0  0
  -25.9318  -11.6485   20.5755 N   0  0  0  0  0  0
  -22.0509  -12.8235   22.0395 N   0  0  0  0  0  0
  -25.4330  -15.1874   20.4092 N   0  0  0  0  0  0
  -31.8087  -14.6568   20.0788 O   0  0  0  0  0  0
  -21.6638   -6.8876   21.4240 O   0  0  0  0  0  0
  -22.3554  -14.5547   20.6689 O   0  0  0  0  0  0
  -24.6141  -31.8685   23.2112 C   0  0  0  0  0  0
  -25.9041  -32.4822   23.8399 C   0  0  1  0  0  0
  -27.2313  -27.4399   20.0912 C   0  0  0  0  0  0
  -25.5901  -33.8620   24.2328 N   0  0  0  0  0  0
  -23.4004  -30.4933   21.5524 C   0  0  2  0  0  0
  -24.8445  -28.9613   20.1155 C   0  0  0  0  0  0
  -22.7398  -29.4663   22.4998 C   0  0  0  0  0  0
  -18.0267  -28.1376   22.8490 C   0  0  0  0  0  0
  -24.1486  -36.7317   23.2638 C   0  0  0  0  0  0
  -25.9295  -30.8362   21.3625 C   0  0  0  0  0  0
  -26.0061  -29.4723   20.7074 C   0  0  0  0  0  0
  -27.2028  -28.7208   20.6878 C   0  0  0  0  0  0
  -26.0485  -26.9429   19.4957 C   0  0  0  0  0  0
  -24.8602  -27.6951   19.5075 C   0  0  0  0  0  0
  -23.6070  -29.8276   20.1663 C   0  0  0  0  0  0
  -25.4106  -36.3109   24.0336 C   0  0  1  0  0  0
  -20.5855  -28.3658   23.1323 C   0  0  2  0  0  0
  -20.6760  -26.9394   22.5419 C   0  0  0  0  0  0
  -19.5740  -26.6384   21.5211 C   0  0  0  0  0  0
  -18.1914  -26.7922   22.1618 C   0  0  0  0  0  0
  -19.1515  -28.8832   23.2905 C   0  0  0  0  0  0
  -18.9446  -30.1441   23.8913 C   0  0  0  0  0  0
  -17.6451  -30.6583   24.0566 C   0  0  0  0  0  0
  -25.9035  -34.9475   23.5128 C   0  0  0  0  0  0
  -16.5341  -29.9086   23.6330 C   0  0  0  0  0  0
  -16.7256  -28.6505   23.0345 C   0  0  0  0  0  0
  -26.4474  -31.6599   25.0724 C   0  0  0  0  0  0
  -25.3746  -31.3706   26.1479 C   0  0  0  0  0  0
  -27.0307  -30.3042   24.6100 C   0  0  0  0  0  0
  -27.6046  -32.4322   25.7486 C   0  0  0  0  0  0
  -27.5581  -37.1809   24.8463 C   0  0  0  0  0  0
  -21.4127  -29.3031   22.3738 N   0  0  0  0  0  0
  -26.4291  -37.3793   23.9410 N   0  0  0  0  0  0
  -24.6664  -31.0794   22.1009 N   0  0  0  0  0  0
  -23.4177  -28.8204   23.3032 O   0  0  0  0  0  0
  -28.4059  -26.7138   20.1051 O   0  0  0  0  0  0
  -26.5594  -34.8923   22.4689 O   0  0  0  0  0  0
  -23.5338  -32.1436   23.7515 O   0  0  0  0  0  0
  -28.0456  -21.8430   20.6725 C   0  0  0  0  0  0
  -28.4013  -20.9624   18.4396 C   0  0  0  0  0  0
  -28.0276  -22.0353   19.2761 C   0  0  0  0  0  0
  -28.7138  -19.4942   20.3813 C   0  0  0  0  0  0
  -28.3916  -20.5905   21.2248 C   0  0  0  0  0  0
  -28.7358  -19.7033   18.9799 C   0  0  0  0  0  0
  -27.5185  -23.3382   18.6630 C   0  0  0  0  0  0
  -28.9858  -18.1005   20.9619 C   0  0  0  0  0  0
  -28.4120  -24.5861   18.8395 C   0  0  0  0  0  0
  -30.4830  -17.7594   21.0901 C   0  0  0  0  0  0
  -30.7855  -16.5300   21.9768 C   0  0  0  0  0  0
  -28.2929  -25.2860   20.2099 C   0  0  0  0  0  0
  -30.1864  -15.2795   21.5019 N   0  0  0  0  0  0
  -28.3841  -20.4327   22.9471 Cl  0  0  0  0  0  0
  -29.1386  -18.4229   17.8890 Cl  0  0  0  0  0  0
  -31.4623  -12.4053   19.0942 H   0  0  0  0  0  0
  -30.3232  -11.2820   19.7776 H   0  0  0  0  0  0
  -29.7204  -11.8089   17.4013 H   0  0  0  0  0  0
  -29.6539  -13.5135   17.7734 H   0  0  0  0  0  0
  -27.8193  -11.3190   18.7976 H   0  0  0  0  0  0
  -27.3560  -12.6615   17.7860 H   0  0  0  0  0  0
  -27.7189  -14.2570   19.5980 H   0  0  0  0  0  0
  -28.6751  -11.9124   21.3078 H   0  0  0  0  0  0
  -28.4543  -13.5305   21.8840 H   0  0  0  0  0  0
  -25.2757   -9.5687   22.4749 H   0  0  0  0  0  0
  -23.9999   -7.4639   22.7473 H   0  0  0  0  0  0
  -21.0834   -8.8769   19.8953 H   0  0  0  0  0  0
  -22.3686  -10.9669   19.6161 H   0  0  0  0  0  0
  -21.2005   -7.6145   23.9713 H   0  0  0  0  0  0
  -21.1482   -6.0522   25.9076 H   0  0  0  0  0  0
  -22.0599   -2.7608   23.2848 H   0  0  0  0  0  0
  -22.4123  -11.9894   22.4779 H   0  0  0  0  0  0
  -21.1132  -13.1266   22.2609 H   0  0  0  0  0  0
  -24.6682  -15.8447   20.5162 H   0  0  0  0  0  0
  -26.2897  -15.6235   20.0931 H   0  0  0  0  0  0
  -26.7109  -32.5537   23.1160 H   0  0  0  0  0  0
  -25.0052  -33.9784   25.0473 H   0  0  0  0  0  0
  -22.6886  -31.3103   21.4156 H   0  0  0  0  0  0
  -23.3740  -35.9659   23.3311 H   0  0  0  0  0  0
  -24.3574  -36.8924   22.2049 H   0  0  0  0  0  0
  -23.7254  -37.6531   23.6647 H   0  0  0  0  0  0
  -26.0405  -31.6034   20.5950 H   0  0  0  0  0  0
  -26.8184  -30.8885   21.9798 H   0  0  0  0  0  0
  -28.1006  -29.1126   21.1454 H   0  0  0  0  0  0
  -26.0285  -25.9768   19.0148 H   0  0  0  0  0  0
  -23.9665  -27.2954   19.0483 H   0  0  0  0  0  0
  -23.7145  -30.6042   19.4079 H   0  0  0  0  0  0
  -22.7309  -29.2481   19.8696 H   0  0  0  0  0  0
  -25.1282  -36.1972   25.0829 H   0  0  0  0  0  0
  -20.9943  -28.3221   24.1446 H   0  0  0  0  0  0
  -20.5664  -26.2259   23.3603 H   0  0  0  0  0  0
  -21.6633  -26.7442   22.1212 H   0  0  0  0  0  0
  -19.6901  -25.6299   21.1231 H   0  0  0  0  0  0
  -19.6684  -27.3206   20.6750 H   0  0  0  0  0  0
  -17.4186  -26.6669   21.4019 H   0  0  0  0  0  0
  -18.0317  -26.0060   22.9010 H   0  0  0  0  0  0
  -19.7922  -30.7255   24.2285 H   0  0  0  0  0  0
  -17.5006  -31.6265   24.5163 H   0  0  0  0  0  0
  -15.5343  -30.2996   23.7648 H   0  0  0  0  0  0
  -15.8654  -28.0842   22.7041 H   0  0  0  0  0  0
  -24.5914  -30.7054   25.7826 H   0  0  0  0  0  0
  -24.8944  -32.2862   26.4936 H   0  0  0  0  0  0
  -25.8107  -30.8873   27.0231 H   0  0  0  0  0  0
  -26.2851  -29.6799   24.1162 H   0  0  0  0  0  0
  -27.4090  -29.7278   25.4555 H   0  0  0  0  0  0
  -27.8678  -30.4359   23.9239 H   0  0  0  0  0  0
  -27.2657  -33.3608   26.2091 H   0  0  0  0  0  0
  -28.3840  -32.6910   25.0306 H   0  0  0  0  0  0
  -28.0736  -31.8436   26.5381 H   0  0  0  0  0  0
  -28.2600  -38.0104   24.7510 H   0  0  0  0  0  0
  -28.1073  -36.2637   24.6286 H   0  0  0  0  0  0
  -27.2299  -37.1466   25.8866 H   0  0  0  0  0  0
  -20.9280  -29.8761   21.6973 H   0  0  0  0  0  0
  -26.0180  -38.2871   24.1414 H   0  0  0  0  0  0
  -27.7607  -22.6485   21.3339 H   0  0  0  0  0  0
  -28.3957  -21.0852   17.3655 H   0  0  0  0  0  0
  -26.5172  -23.5371   19.0473 H   0  0  0  0  0  0
  -27.3798  -23.1739   17.5935 H   0  0  0  0  0  0
  -28.4920  -17.3512   20.3430 H   0  0  0  0  0  0
  -28.5050  -18.0041   21.9343 H   0  0  0  0  0  0
  -28.1017  -25.3031   18.0789 H   0  0  0  0  0  0
  -29.4529  -24.3573   18.6084 H   0  0  0  0  0  0
  -30.9947  -18.6151   21.5326 H   0  0  0  0  0  0
  -30.9236  -17.6290   20.1012 H   0  0  0  0  0  0
  -30.4200  -16.7142   22.9878 H   0  0  0  0  0  0
  -31.8661  -16.4070   22.0734 H   0  0  0  0  0  0
  -29.0921  -24.9281   20.8595 H   0  0  0  0  0  0
  -27.3702  -25.0067   20.7218 H   0  0  0  0  0  0
  -29.3125  -14.9976   21.9212 H   0  0  0  0  0  0
  1 25  1  0  0  0
  1 30  2  0  0  0
  1 83  1  0  0  0
  2  3  1  0  0  0
  2 25  1  0  0  0
  2 86  1  0  0  0
  2 87  1  0  0  0
  3  4  1  0  0  0
  3 88  1  0  0  0
  3 89  1  0  0  0
  4  5  1  0  0  0
  4 90  1  0  0  0
  4 91  1  0  0  0
  5  6  1  0  0  0
  5 26  1  0  0  0
  5 92  1  0  0  0
  6 25  1  0  0  0
  6 93  1  0  0  0
  6 94  1  0  0  0
  7  8  2  0  0  0
  7 26  1  0  0  0
  7 29  1  0  0  0
  8  9  1  0  0  0
  8 22  1  0  0  0
  9 10  1  0  0  0
  9 27  2  0  0  0
 10 11  2  0  0  0
 10 15  1  0  0  0
 11 12  1  0  0  0
 11 95  1  0  0  0
 12 13  2  0  0  0
 12 96  1  0  0  0
 13 14  1  0  0  0
 13 31  1  0  0  0
 14 15  2  0  0  0
 14 97  1  0  0  0
 15 98  1  0  0  0
 16 17  2  0  0  0
 16 21  1  0  0  0
 16 31  1  0  0  0
 17 18  1  0  0  0
 17 99  1  0  0  0
 18 19  2  0  0  0
 18100  1  0  0  0
 19 20  1  0  0  0
 19 24  1  0  0  0
 20 21  2  0  0  0
 20101  1  0  0  0
 21 23  1  0  0  0
 22 28  1  0  0  0
 22 32  2  0  0  0
 26 27  1  0  0  0
 28102  1  0  0  0
 28103  1  0  0  0
 29104  1  0  0  0
 29105  1  0  0  0
 33 34  1  0  0  0
 33 66  1  0  0  0
 33 70  2  0  0  0
 34 36  1  0  0  0
 34 59  1  0  0  0
 34106  1  0  0  0
 35 44  2  0  0  0
 35 45  1  0  0  0
 35 68  1  0  0  0
 36 56  1  0  0  0
 36107  1  0  0  0
 37 39  1  0  0  0
 37 47  1  0  0  0
 37 66  1  0  0  0
 37108  1  0  0  0
 38 43  2  0  0  0
 38 46  1  0  0  0
 38 47  1  0  0  0
 39 64  1  0  0  0
 39 67  2  0  0  0
 40 52  1  0  0  0
 40 53  2  0  0  0
 40 58  1  0  0  0
 41109  1  0  0  0
 41110  1  0  0  0
 41111  1  0  0  0
 41 48  1  0  0  0
 42 43  1  0  0  0
 42 66  1  0  0  0
 42112  1  0  0  0
 42113  1  0  0  0
 43 44  1  0  0  0
 44114  1  0  0  0
 45 46  2  0  0  0
 45115  1  0  0  0
 46116  1  0  0  0
 47117  1  0  0  0
 47118  1  0  0  0
 48 56  1  0  0  0
 48 65  1  0  0  0
 48119  1  0  0  0
 49 50  1  0  0  0
 49 53  1  0  0  0
 49 64  1  0  0  0
 49120  1  0  0  0
 50 51  1  0  0  0
 50121  1  0  0  0
 50122  1  0  0  0
 51 52  1  0  0  0
 51123  1  0  0  0
 51124  1  0  0  0
 52125  1  0  0  0
 52126  1  0  0  0
 53 54  1  0  0  0
 54 55  2  0  0  0
 54127  1  0  0  0
 55 57  1  0  0  0
 55128  1  0  0  0
 56 69  2  0  0  0
 57 58  2  0  0  0
 57129  1  0  0  0
 58130  1  0  0  0
 59 60  1  0  0  0
 59 61  1  0  0  0
 59 62  1  0  0  0
 60131  1  0  0  0
 60132  1  0  0  0
 60133  1  0  0  0
 61134  1  0  0  0
 61135  1  0  0  0
 61136  1  0  0  0
 62137  1  0  0  0
 62138  1  0  0  0
 62139  1  0  0  0
 63 65  1  0  0  0
 63140  1  0  0  0
 63141  1  0  0  0
 63142  1  0  0  0
 64143  1  0  0  0
 65144  1  0  0  0
 68 82  1  0  0  0
 71 73  2  0  0  0
 71 75  1  0  0  0
 71145  1  0  0  0
 72 73  1  0  0  0
 72 76  2  0  0  0
 72146  1  0  0  0
 73 77  1  0  0  0
 74 75  2  0  0  0
 74 76  1  0  0  0
 74 78  1  0  0  0
 75 84  1  0  0  0
 76 85  1  0  0  0
 77 79  1  0  0  0
 77147  1  0  0  0
 77148  1  0  0  0
 78 80  1  0  0  0
 78149  1  0  0  0
 78150  1  0  0  0
 79 82  1  0  0  0
 79151  1  0  0  0
 79152  1  0  0  0
 80 81  1  0  0  0
 80153  1  0  0  0
 80154  1  0  0  0
 81 83  1  0  0  0
 81155  1  0  0  0
 81156  1  0  0  0
 82157  1  0  0  0
 82158  1  0  0  0
 83159  1  0  0  0
M  ISO  4   1 100  68 101  82 101  83 100
M  END
> <chiral flag>
0

> <version>
0

> <s_m_source_file>
/data/baiqing/PycharmProjects/Reinvent-master-3.2/result/LINK_invent/BTK/process_docking_weight1_custom_sum_contain_oxygen_bond_distance_aromatic_linkinvent_7_9_3/rearranged_h_0024.sdf

> <i_m_source_file_index>
63

> <r_mmod_Potential_Energy-OPLS-2005>
-69.9039764404297

> <r_mmod_Stretch_Energy-OPLS-2005>
35.2367897033691

> <r_mmod_Bend_Energy-OPLS-2005>
93.6002426147461

> <r_mmod_Torsional_Energy-OPLS-2005>
210.90446472168

> <r_mmod_Improper_Torsional_Energy-OPLS-2005>
2.09172677993774

> <r_mmod_Van_der_Waal_Energy-OPLS-2005>
147.59928894043

> <r_mmod_Electrostatic_Energy-OPLS-2005>
-363.519653320312

> <r_mmod_Solvation_Energy-OPLS-2005>
-204.77262878418

> <b_mmod_Minimization_Converged-OPLS-2005>
0

> <r_mmod_RMS_Derivative-OPLS-2005>
0.523900985717773

$$$$
63
                    3D
 Structure written by MMmdl.
193201  0  0  1  0            999 V2000
  -30.6294  -14.5191   20.2289 C   0  0  0  0  0  0
  -30.4316  -12.2424   19.5064 C   0  0  0  0  0  0
  -29.5089  -12.3828   18.2879 C   0  0  0  0  0  0
  -28.0269  -12.3098   18.6805 C   0  0  0  0  0  0
  -27.6595  -13.1764   19.9256 C   0  0  2  0  0  0
  -28.7343  -13.0802   21.0380 C   0  0  0  0  0  0
  -25.2656  -13.8011   20.6769 C   0  0  0  0  0  0
  -24.1731  -13.0255   20.9525 C   0  0  0  0  0  0
  -24.6106  -11.6714   20.8751 C   0  0  0  0  0  0
  -23.8705  -10.4165   21.0222 C   0  0  0  0  0  0
  -24.3288   -9.4157   21.8977 C   0  0  0  0  0  0
  -23.6094   -8.2278   22.0771 C   0  0  0  0  0  0
  -22.4016   -8.0141   21.3557 C   0  0  0  0  0  0
  -21.9501   -9.0093   20.4723 C   0  0  0  0  0  0
  -22.6744  -10.1995   20.2985 C   0  0  0  0  0  0
  -21.6658   -6.0694   22.5317 C   0  0  0  0  0  0
  -21.3810   -6.5705   23.8176 C   0  0  0  0  0  0
  -21.3693   -5.6891   24.9159 C   0  0  0  0  0  0
  -21.6124   -4.3150   24.7170 C   0  0  0  0  0  0
  -21.8906   -3.8221   23.4318 C   0  0  0  0  0  0
  -21.9152   -4.6940   22.3363 C   0  0  0  0  0  0
  -22.7776  -13.5294   21.1982 C   0  0  0  0  0  0
  -22.1579   -4.2234   21.0898 F   0  0  0  0  0  0
  -21.5562   -3.4556   25.7606 F   0  0  0  0  0  0
  -30.0502  -13.3137   20.4300 N   0  0  0  0  0  0
  -26.2944  -12.9093   20.3799 N   0  0  0  0  0  0
  -25.9041  -11.6282   20.5733 N   0  0  0  0  0  0
  -22.0067  -12.8775   22.0711 N   0  0  0  0  0  0
  -25.4963  -15.1739   20.6732 N   0  0  0  0  0  0
  -31.8502  -14.6515   20.0943 O   0  0  0  0  0  0
  -21.6557   -6.8690   21.4219 O   0  0  0  0  0  0
  -22.3622  -14.5379   20.6314 O   0  0  0  0  0  0
  -24.6129  -31.8697   23.2126 C   0  0  0  0  0  0
  -25.9025  -32.4807   23.8429 C   0  0  1  0  0  0
  -27.2457  -27.4648   20.1017 C   0  0  0  0  0  0
  -25.5928  -33.8613   24.2354 N   0  0  0  0  0  0
  -23.4023  -30.4958   21.5508 C   0  0  2  0  0  0
  -24.8459  -28.9658   20.1221 C   0  0  0  0  0  0
  -22.7425  -29.4661   22.4969 C   0  0  0  0  0  0
  -18.0292  -28.1382   22.8497 C   0  0  0  0  0  0
  -24.1478  -36.7299   23.2639 C   0  0  0  0  0  0
  -25.9308  -30.8436   21.3663 C   0  0  0  0  0  0
  -26.0065  -29.4835   20.7108 C   0  0  0  0  0  0
  -27.2065  -28.7443   20.6886 C   0  0  0  0  0  0
  -26.0581  -26.9435   19.5348 C   0  0  0  0  0  0
  -24.8640  -27.6883   19.5397 C   0  0  0  0  0  0
  -23.6112  -29.8339   20.1639 C   0  0  0  0  0  0
  -25.4101  -36.3117   24.0343 C   0  0  1  0  0  0
  -20.5881  -28.3683   23.1287 C   0  0  2  0  0  0
  -20.6771  -26.9420   22.5385 C   0  0  0  0  0  0
  -19.5755  -26.6392   21.5184 C   0  0  0  0  0  0
  -18.1943  -26.7929   22.1604 C   0  0  0  0  0  0
  -19.1544  -28.8843   23.2886 C   0  0  0  0  0  0
  -18.9462  -30.1440   23.8908 C   0  0  0  0  0  0
  -17.6472  -30.6579   24.0570 C   0  0  0  0  0  0
  -25.9039  -34.9475   23.5138 C   0  0  0  0  0  0
  -16.5358  -29.9081   23.6341 C   0  0  0  0  0  0
  -16.7271  -28.6493   23.0348 C   0  0  0  0  0  0
  -26.4493  -31.6602   25.0756 C   0  0  0  0  0  0
  -25.3774  -31.3675   26.1508 C   0  0  0  0  0  0
  -27.0353  -30.3046   24.6145 C   0  0  0  0  0  0
  -27.6078  -32.4334   25.7512 C   0  0  0  0  0  0
  -27.5567  -37.1824   24.8485 C   0  0  0  0  0  0
  -21.4155  -29.3046   22.3695 N   0  0  0  0  0  0
  -26.4293  -37.3789   23.9400 N   0  0  0  0  0  0
  -24.6666  -31.0844   22.1000 N   0  0  0  0  0  0
  -23.4185  -28.8212   23.3030 O   0  0  0  0  0  0
  -28.4484  -26.7837   20.1113 O   0  0  0  0  0  0
  -26.5583  -34.8924   22.4688 O   0  0  0  0  0  0
  -23.5347  -32.1422   23.7594 O   0  0  0  0  0  0
  -27.3299  -16.3582   17.4442 C   0  0  0  0  0  0
  -28.6809  -15.8983   17.2534 C   0  0  0  0  0  0
  -27.0810  -17.1177   16.3468 C   0  0  0  0  0  0
  -28.5902  -15.4982   15.9376 C   0  0  0  0  0  0
  -26.1348  -15.4910   17.7788 C   0  0  0  0  0  0
  -29.3772  -14.5090   15.1406 C   0  0  0  0  0  0
  -25.8251  -15.3022   13.9916 C   0  0  0  0  0  0
  -30.6044  -17.2508   18.2096 C   0  0  0  0  0  0
  -23.6250  -22.4706   19.4306 C   0  0  0  0  0  0
  -26.0856  -18.2390   16.0892 C   0  0  0  0  0  0
  -24.5858  -17.9814   16.4085 C   0  0  0  0  0  0
  -24.1159  -18.2794   17.8500 C   0  0  0  0  0  0
  -27.1922  -23.2425   20.0409 C   0  0  0  0  0  0
  -23.7959  -19.7486   18.1181 C   0  0  0  0  0  0
  -26.3105  -22.3781   20.9703 C   0  0  0  0  0  0
  -27.8229  -24.4755   20.7189 C   0  0  0  0  0  0
  -27.0679  -16.1884   13.9971 C   0  0  0  0  0  0
  -23.5416  -20.0180   19.6263 C   0  0  0  0  0  0
  -25.6523  -21.1977   20.2092 C   0  0  0  0  0  0
  -28.4915  -25.4219   19.6945 C   0  0  0  0  0  0
  -29.9330  -15.8774   18.2024 C   0  0  2  0  0  0
  -27.5725  -16.2765   15.3581 N   0  0  0  0  0  0
  -29.7987  -15.3958   19.6063 N   0  0  0  0  0  0
  -24.1582  -21.2696   20.1301 N   0  3  1  0  0  0
  -31.4778  -12.2992   19.1875 H   0  0  0  0  0  0
  -30.3041  -11.2556   19.9509 H   0  0  0  0  0  0
  -29.7493  -11.6363   17.5347 H   0  0  0  0  0  0
  -29.7146  -13.3326   17.8224 H   0  0  0  0  0  0
  -27.7986  -11.2570   18.8685 H   0  0  0  0  0  0
  -27.4204  -12.6021   17.8253 H   0  0  0  0  0  0
  -27.6871  -14.2050   19.5950 H   0  0  0  0  0  0
  -28.7167  -12.0976   21.5069 H   0  0  0  0  0  0
  -28.5472  -13.8016   21.8366 H   0  0  0  0  0  0
  -25.2434   -9.5861   22.4543 H   0  0  0  0  0  0
  -24.0014   -7.4803   22.7544 H   0  0  0  0  0  0
  -21.0366   -8.8538   19.9069 H   0  0  0  0  0  0
  -22.3131  -10.9408   19.6054 H   0  0  0  0  0  0
  -21.1711   -7.6289   23.9538 H   0  0  0  0  0  0
  -21.1500   -6.0714   25.9030 H   0  0  0  0  0  0
  -22.0660   -2.7701   23.2726 H   0  0  0  0  0  0
  -22.3493  -12.0748   22.5728 H   0  0  0  0  0  0
  -21.0932  -13.2569   22.2739 H   0  0  0  0  0  0
  -24.7878  -15.8427   20.9424 H   0  0  0  0  0  0
  -26.4369  -15.5581   20.6285 H   0  0  0  0  0  0
  -26.7126  -32.5541   23.1244 H   0  0  0  0  0  0
  -25.0194  -33.9751   25.0585 H   0  0  0  0  0  0
  -22.6922  -31.3142   21.4135 H   0  0  0  0  0  0
  -23.3729  -35.9643   23.3345 H   0  0  0  0  0  0
  -24.3594  -36.8850   22.2048 H   0  0  0  0  0  0
  -23.7238  -37.6524   23.6612 H   0  0  0  0  0  0
  -26.0645  -31.6206   20.6138 H   0  0  0  0  0  0
  -26.8127  -30.8825   21.9938 H   0  0  0  0  0  0
  -28.1093  -29.1466   21.1245 H   0  0  0  0  0  0
  -26.0240  -25.9598   19.0955 H   0  0  0  0  0  0
  -23.9730  -27.2716   19.0967 H   0  0  0  0  0  0
  -23.7285  -30.6113   19.4071 H   0  0  0  0  0  0
  -22.7353  -29.2573   19.8633 H   0  0  0  0  0  0
  -25.1283  -36.2010   25.0837 H   0  0  0  0  0  0
  -20.9994  -28.3268   24.1396 H   0  0  0  0  0  0
  -20.5694  -26.2315   23.3582 H   0  0  0  0  0  0
  -21.6640  -26.7474   22.1177 H   0  0  0  0  0  0
  -19.6912  -25.6309   21.1202 H   0  0  0  0  0  0
  -19.6657  -27.3208   20.6716 H   0  0  0  0  0  0
  -17.4202  -26.6686   21.3997 H   0  0  0  0  0  0
  -18.0339  -26.0046   22.8982 H   0  0  0  0  0  0
  -19.7920  -30.7243   24.2283 H   0  0  0  0  0  0
  -17.5009  -31.6257   24.5173 H   0  0  0  0  0  0
  -15.5351  -30.2976   23.7630 H   0  0  0  0  0  0
  -15.8673  -28.0791   22.7068 H   0  0  0  0  0  0
  -24.5947  -30.7025   25.7831 H   0  0  0  0  0  0
  -24.8960  -32.2812   26.5002 H   0  0  0  0  0  0
  -25.8131  -30.8806   27.0248 H   0  0  0  0  0  0
  -26.2899  -29.6792   24.1203 H   0  0  0  0  0  0
  -27.4148  -29.7292   25.4618 H   0  0  0  0  0  0
  -27.8747  -30.4365   23.9300 H   0  0  0  0  0  0
  -27.2686  -33.3618   26.2123 H   0  0  0  0  0  0
  -28.3861  -32.6918   25.0316 H   0  0  0  0  0  0
  -28.0796  -31.8449   26.5398 H   0  0  0  0  0  0
  -28.2651  -38.0058   24.7483 H   0  0  0  0  0  0
  -28.1000  -36.2600   24.6395 H   0  0  0  0  0  0
  -27.2290  -37.1590   25.8892 H   0  0  0  0  0  0
  -20.9326  -29.8779   21.6926 H   0  0  0  0  0  0
  -26.0197  -38.2881   24.1354 H   0  0  0  0  0  0
  -26.3839  -14.5102   18.1287 H   0  0  0  0  0  0
  -25.5736  -15.2740   16.8713 H   0  0  0  0  0  0
  -25.4317  -15.9862   18.4228 H   0  0  0  0  0  0
  -28.7545  -14.0900   14.3550 H   0  0  0  0  0  0
  -29.6953  -13.6660   15.7456 H   0  0  0  0  0  0
  -30.2529  -14.9421   14.6642 H   0  0  0  0  0  0
  -25.0422  -15.7329   14.6099 H   0  0  0  0  0  0
  -26.0588  -14.3235   14.4175 H   0  0  0  0  0  0
  -25.4038  -15.1710   12.9951 H   0  0  0  0  0  0
  -29.9523  -18.0237   18.6214 H   0  0  0  0  0  0
  -31.5368  -17.2469   18.7851 H   0  0  0  0  0  0
  -30.8629  -17.5568   17.1896 H   0  0  0  0  0  0
  -22.5393  -22.4038   19.2977 H   0  0  0  0  0  0
  -24.0703  -22.5924   18.4423 H   0  0  0  0  0  0
  -23.8072  -23.3820   20.0024 H   0  0  0  0  0  0
  -26.1234  -18.5132   15.0425 H   0  0  0  0  0  0
  -26.4376  -19.1348   16.6065 H   0  0  0  0  0  0
  -24.2889  -16.9680   16.1428 H   0  0  0  0  0  0
  -24.0089  -18.6075   15.7353 H   0  0  0  0  0  0
  -24.8888  -17.9853   18.5514 H   0  0  0  0  0  0
  -23.2116  -17.7078   18.0748 H   0  0  0  0  0  0
  -26.5769  -23.5841   19.2042 H   0  0  0  0  0  0
  -27.9902  -22.6351   19.6037 H   0  0  0  0  0  0
  -22.9017  -20.0082   17.5471 H   0  0  0  0  0  0
  -24.6012  -20.3705   17.7173 H   0  0  0  0  0  0
  -25.5596  -22.9916   21.4667 H   0  0  0  0  0  0
  -26.9261  -21.9816   21.7820 H   0  0  0  0  0  0
  -28.5618  -24.1707   21.4665 H   0  0  0  0  0  0
  -27.0490  -25.0108   21.2673 H   0  0  0  0  0  0
  -26.8522  -17.1851   13.6103 H   0  0  0  0  0  0
  -27.8359  -15.8120   13.3259 H   0  0  0  0  0  0
  -23.9002  -19.1798   20.2344 H   0  0  0  0  0  0
  -22.4671  -20.0882   19.8047 H   0  0  0  0  0  0
  -25.9316  -20.2868   20.7501 H   0  0  0  0  0  0
  -26.0835  -21.1125   19.2074 H   0  0  0  0  0  0
  -28.0866  -25.3203   18.6871 H   0  0  0  0  0  0
  -29.5401  -25.1493   19.5950 H   0  0  0  0  0  0
  -30.6834  -15.2409   17.7386 H   0  0  0  0  0  0
  -29.1209  -15.8660   20.1915 H   0  0  0  0  0  0
  -23.8326  -21.3405   21.0865 H   0  0  0  0  0  0
  1 25  1  0  0  0
  1 30  2  0  0  0
  1 93  1  0  0  0
  2  3  1  0  0  0
  2 25  1  0  0  0
  2 95  1  0  0  0
  2 96  1  0  0  0
  3  4  1  0  0  0
  3 97  1  0  0  0
  3 98  1  0  0  0
  4  5  1  0  0  0
  4 99  1  0  0  0
  4100  1  0  0  0
  5  6  1  0  0  0
  5 26  1  0  0  0
  5101  1  0  0  0
  6 25  1  0  0  0
  6102  1  0  0  0
  6103  1  0  0  0
  7  8  2  0  0  0
  7 26  1  0  0  0
  7 29  1  0  0  0
  8  9  1  0  0  0
  8 22  1  0  0  0
  9 10  1  0  0  0
  9 27  2  0  0  0
 10 11  2  0  0  0
 10 15  1  0  0  0
 11 12  1  0  0  0
 11104  1  0  0  0
 12 13  2  0  0  0
 12105  1  0  0  0
 13 14  1  0  0  0
 13 31  1  0  0  0
 14 15  2  0  0  0
 14106  1  0  0  0
 15107  1  0  0  0
 16 17  2  0  0  0
 16 21  1  0  0  0
 16 31  1  0  0  0
 17 18  1  0  0  0
 17108  1  0  0  0
 18 19  2  0  0  0
 18109  1  0  0  0
 19 20  1  0  0  0
 19 24  1  0  0  0
 20 21  2  0  0  0
 20110  1  0  0  0
 21 23  1  0  0  0
 22 28  1  0  0  0
 22 32  2  0  0  0
 26 27  1  0  0  0
 28111  1  0  0  0
 28112  1  0  0  0
 29113  1  0  0  0
 29114  1  0  0  0
 33 34  1  0  0  0
 33 66  1  0  0  0
 33 70  2  0  0  0
 34 36  1  0  0  0
 34 59  1  0  0  0
 34115  1  0  0  0
 35 44  2  0  0  0
 35 45  1  0  0  0
 35 68  1  0  0  0
 36 56  1  0  0  0
 36116  1  0  0  0
 37 39  1  0  0  0
 37 47  1  0  0  0
 37 66  1  0  0  0
 37117  1  0  0  0
 38 43  2  0  0  0
 38 46  1  0  0  0
 38 47  1  0  0  0
 39 64  1  0  0  0
 39 67  2  0  0  0
 40 52  1  0  0  0
 40 53  2  0  0  0
 40 58  1  0  0  0
 41118  1  0  0  0
 41119  1  0  0  0
 41120  1  0  0  0
 41 48  1  0  0  0
 42 43  1  0  0  0
 42 66  1  0  0  0
 42121  1  0  0  0
 42122  1  0  0  0
 43 44  1  0  0  0
 44123  1  0  0  0
 45 46  2  0  0  0
 45124  1  0  0  0
 46125  1  0  0  0
 47126  1  0  0  0
 47127  1  0  0  0
 48 56  1  0  0  0
 48 65  1  0  0  0
 48128  1  0  0  0
 49 50  1  0  0  0
 49 53  1  0  0  0
 49 64  1  0  0  0
 49129  1  0  0  0
 50 51  1  0  0  0
 50130  1  0  0  0
 50131  1  0  0  0
 51 52  1  0  0  0
 51132  1  0  0  0
 51133  1  0  0  0
 52134  1  0  0  0
 52135  1  0  0  0
 53 54  1  0  0  0
 54 55  2  0  0  0
 54136  1  0  0  0
 55 57  1  0  0  0
 55137  1  0  0  0
 56 69  2  0  0  0
 57 58  2  0  0  0
 57138  1  0  0  0
 58139  1  0  0  0
 59 60  1  0  0  0
 59 61  1  0  0  0
 59 62  1  0  0  0
 60140  1  0  0  0
 60141  1  0  0  0
 60142  1  0  0  0
 61143  1  0  0  0
 61144  1  0  0  0
 61145  1  0  0  0
 62146  1  0  0  0
 62147  1  0  0  0
 62148  1  0  0  0
 63 65  1  0  0  0
 63149  1  0  0  0
 63150  1  0  0  0
 63151  1  0  0  0
 64152  1  0  0  0
 65153  1  0  0  0
 68 90  1  0  0  0
 71 72  1  0  0  0
 71 73  2  0  0  0
 71 75  1  0  0  0
 72 74  2  0  0  0
 72 91  1  0  0  0
 73 80  1  0  0  0
 73 92  1  0  0  0
 74 76  1  0  0  0
 74 92  1  0  0  0
 75154  1  0  0  0
 75155  1  0  0  0
 75156  1  0  0  0
 76157  1  0  0  0
 76158  1  0  0  0
 76159  1  0  0  0
 77 87  1  0  0  0
 77160  1  0  0  0
 77161  1  0  0  0
 77162  1  0  0  0
 78163  1  0  0  0
 78164  1  0  0  0
 78165  1  0  0  0
 78 91  1  0  0  0
 79166  1  0  0  0
 79167  1  0  0  0
 79168  1  0  0  0
 79 94  1  0  0  0
 80 81  1  0  0  0
 80169  1  0  0  0
 80170  1  0  0  0
 81 82  1  0  0  0
 81171  1  0  0  0
 81172  1  0  0  0
 82 84  1  0  0  0
 82173  1  0  0  0
 82174  1  0  0  0
 83 85  1  0  0  0
 83 86  1  0  0  0
 83175  1  0  0  0
 83176  1  0  0  0
 84 88  1  0  0  0
 84177  1  0  0  0
 84178  1  0  0  0
 85 89  1  0  0  0
 85179  1  0  0  0
 85180  1  0  0  0
 86 90  1  0  0  0
 86181  1  0  0  0
 86182  1  0  0  0
 87 92  1  0  0  0
 87183  1  0  0  0
 87184  1  0  0  0
 88 94  1  0  0  0
 88185  1  0  0  0
 88186  1  0  0  0
 89 94  1  0  0  0
 89187  1  0  0  0
 89188  1  0  0  0
 90189  1  0  0  0
 90190  1  0  0  0
 91 93  1  0  0  0
 91191  1  0  0  0
 93192  1  0  0  0
 94193  1  0  0  0
M  CHG  1  94   1
M  ISO  4   1 100  68 101  90 101  93 100
M  END
> <chiral flag>
0

> <version>
0

> <s_m_source_file>
/data/baiqing/PycharmProjects/Reinvent-master-3.2/result/LINK_invent/BTK/process_docking_weight1_custom_sum_contain_oxygen_bond_distance_aromatic_linkinvent_7_9_3/rearranged_h_0024.sdf

> <i_m_source_file_index>
64

> <r_mmod_Potential_Energy-OPLS-2005>
283.331665039062

> <r_mmod_Stretch_Energy-OPLS-2005>
48.8461761474609

> <r_mmod_Bend_Energy-OPLS-2005>
176.453079223633

> <r_mmod_Torsional_Energy-OPLS-2005>
557.87158203125

> <r_mmod_Improper_Torsional_Energy-OPLS-2005>
47.6094284057617

> <r_mmod_Van_der_Waal_Energy-OPLS-2005>
154.53254699707

> <r_mmod_Electrostatic_Energy-OPLS-2005>
-314.158020019531

> <r_mmod_Solvation_Energy-OPLS-2005>
-440.895538330078

> <b_mmod_Minimization_Converged-OPLS-2005>
0

> <r_mmod_RMS_Derivative-OPLS-2005>
15.4409799575806

$$$$
64
                    3D
 Structure written by MMmdl.
204212  0  0  1  0            999 V2000
  -30.8740  -14.2542   20.7437 C   0  0  0  0  0  0
  -30.3982  -12.2753   19.3661 C   0  0  0  0  0  0
  -29.4654  -12.5428   18.1781 C   0  0  0  0  0  0
  -27.9998  -12.3872   18.6122 C   0  0  0  0  0  0
  -27.6699  -13.2106   19.8832 C   0  0  2  0  0  0
  -28.7155  -12.9812   21.0012 C   0  0  0  0  0  0
  -25.2615  -13.8162   20.5703 C   0  0  0  0  0  0
  -24.1870  -13.0453   20.9163 C   0  0  0  0  0  0
  -24.6411  -11.6911   20.8726 C   0  0  0  0  0  0
  -23.9066  -10.4304   21.0384 C   0  0  0  0  0  0
  -24.3605   -9.4214   21.9176 C   0  0  0  0  0  0
  -23.6279   -8.2248   22.0751 C   0  0  0  0  0  0
  -22.4270   -8.0270   21.3529 C   0  0  0  0  0  0
  -21.9906   -9.0256   20.4628 C   0  0  0  0  0  0
  -22.7223  -10.2134   20.3046 C   0  0  0  0  0  0
  -21.6853   -6.0726   22.5268 C   0  0  0  0  0  0
  -21.4016   -6.5630   23.8202 C   0  0  0  0  0  0
  -21.3665   -5.6784   24.9166 C   0  0  0  0  0  0
  -21.6051   -4.3047   24.7227 C   0  0  0  0  0  0
  -21.8822   -3.8139   23.4347 C   0  0  0  0  0  0
  -21.9193   -4.6948   22.3401 C   0  0  0  0  0  0
  -22.7878  -13.5223   21.1840 C   0  0  0  0  0  0
  -22.1665   -4.2134   21.0979 F   0  0  0  0  0  0
  -21.5629   -3.4538   25.7741 F   0  0  0  0  0  0
  -30.0689  -13.2040   20.4576 N   0  0  0  0  0  0
  -26.3091  -12.9364   20.3433 N   0  0  0  0  0  0
  -25.9354  -11.6515   20.5771 N   0  0  0  0  0  0
  -22.0517  -12.8232   22.0369 N   0  0  0  0  0  0
  -25.4347  -15.1890   20.4128 N   0  0  0  0  0  0
  -31.7349  -14.6873   19.9728 O   0  0  0  0  0  0
  -21.6638   -6.8868   21.4223 O   0  0  0  0  0  0
  -22.3575  -14.5549   20.6683 O   0  0  0  0  0  0
  -24.6117  -31.8680   23.2155 C   0  0  0  0  0  0
  -25.8987  -32.4837   23.8467 C   0  0  1  0  0  0
  -27.1970  -27.4342   20.1111 C   0  0  0  0  0  0
  -25.5860  -33.8646   24.2369 N   0  0  0  0  0  0
  -23.3991  -30.4948   21.5550 C   0  0  2  0  0  0
  -24.8449  -28.9777   20.0991 C   0  0  0  0  0  0
  -22.7443  -29.4619   22.5015 C   0  0  0  0  0  0
  -18.0268  -28.1436   22.8416 C   0  0  0  0  0  0
  -24.1525  -36.7283   23.2654 C   0  0  0  0  0  0
  -25.9312  -30.8326   21.3737 C   0  0  0  0  0  0
  -26.0029  -29.4749   20.7135 C   0  0  0  0  0  0
  -27.1886  -28.7058   20.7209 C   0  0  0  0  0  0
  -26.0492  -26.9769   19.4354 C   0  0  0  0  0  0
  -24.8665  -27.7341   19.4461 C   0  0  0  0  0  0
  -23.6041  -29.8356   20.1638 C   0  0  0  0  0  0
  -25.4092  -36.3054   24.0390 C   0  0  1  0  0  0
  -20.5845  -28.3657   23.1307 C   0  0  2  0  0  0
  -20.6760  -26.9457   22.5308 C   0  0  0  0  0  0
  -19.5770  -26.6527   21.5096 C   0  0  0  0  0  0
  -18.1948  -26.7989   22.1537 C   0  0  0  0  0  0
  -19.1530  -28.8858   23.2850 C   0  0  0  0  0  0
  -18.9449  -30.1430   23.8899 C   0  0  0  0  0  0
  -17.6474  -30.6605   24.0565 C   0  0  0  0  0  0
  -25.9024  -34.9450   23.5141 C   0  0  0  0  0  0
  -16.5340  -29.9094   23.6377 C   0  0  0  0  0  0
  -16.7265  -28.6557   23.0315 C   0  0  0  0  0  0
  -26.4443  -31.6630   25.0798 C   0  0  0  0  0  0
  -25.3744  -31.3709   26.1588 C   0  0  0  0  0  0
  -27.0330  -30.3076   24.6176 C   0  0  0  0  0  0
  -27.6038  -32.4331   25.7541 C   0  0  0  0  0  0
  -27.5577  -37.1754   24.8472 C   0  0  0  0  0  0
  -21.4178  -29.3048   22.3786 N   0  0  0  0  0  0
  -26.4266  -37.3736   23.9487 N   0  0  0  0  0  0
  -24.6655  -31.0796   22.1073 N   0  0  0  0  0  0
  -23.4212  -28.8126   23.3009 O   0  0  0  0  0  0
  -28.2908  -26.6125   20.1754 O   0  0  0  0  0  0
  -26.5622  -34.8879   22.4715 O   0  0  0  0  0  0
  -23.5297  -32.1481   23.7515 O   0  0  0  0  0  0
  -25.2119  -22.5264   19.3940 C   0  0  0  0  0  0
  -22.9171  -22.9303   20.0220 C   0  0  0  0  0  0
  -24.2966  -22.9410   20.3749 C   0  0  0  0  0  0
  -24.8117  -22.2605   18.0808 C   0  0  0  0  0  0
  -22.4560  -22.5571   18.7224 C   0  0  0  0  0  0
  -23.4470  -22.2903   17.7289 C   0  0  0  0  0  0
  -25.8885  -21.9527   17.0603 C   0  0  0  0  0  0
  -24.5642  -20.8257   22.5415 C   0  0  0  0  0  0
  -23.6999  -23.7758   22.7105 C   0  0  0  0  0  0
  -20.0558  -22.5979   19.6764 C   0  0  0  0  0  0
  -20.5425  -21.0647   17.8526 C   0  0  0  0  0  0
  -20.5064  -23.5889   17.4518 C   0  0  0  0  0  0
  -31.0044  -18.8974   23.6546 C   0  0  0  0  0  0
  -30.8720  -17.3755   23.4967 C   0  0  0  0  0  0
  -29.8342  -19.4914   24.4546 C   0  0  0  0  0  0
  -32.0012  -16.7714   22.6524 C   0  0  0  0  0  0
  -29.7684  -21.0256   24.3656 C   0  0  0  0  0  0
  -27.2283  -24.4415   21.0037 C   0  0  0  0  0  0
  -25.8168  -24.5666   21.6750 C   0  0  0  0  0  0
  -32.0362  -15.2337   22.6936 C   0  0  0  0  0  0
  -28.4356  -21.6286   24.8508 C   0  0  0  0  0  0
  -26.2448  -22.2596   23.7846 C   0  0  0  0  0  0
  -28.2222  -25.6282   21.2236 C   0  0  0  0  0  0
  -25.5245  -22.0424   22.4266 C   0  0  2  0  0  0
  -24.8477  -23.3166   21.7817 C   0  0  2  0  0  0
  -20.9333  -22.4575   18.4136 C   0  0  0  0  0  0
  -30.8893  -14.5966   22.0389 N   0  0  0  0  0  0
  -27.3305  -21.2675   23.9348 N   0  3  0  0  0  0
  -23.0676  -21.9985   16.0627 Cl  0  0  0  0  0  0
  -31.4405  -12.3576   19.0544 H   0  0  0  0  0  0
  -30.2741  -11.2496   19.7162 H   0  0  0  0  0  0
  -29.6866  -11.8538   17.3624 H   0  0  0  0  0  0
  -29.6347  -13.5478   17.7860 H   0  0  0  0  0  0
  -27.8173  -11.3275   18.7951 H   0  0  0  0  0  0
  -27.3345  -12.6753   17.7956 H   0  0  0  0  0  0
  -27.7231  -14.2619   19.6011 H   0  0  0  0  0  0
  -28.6463  -11.9630   21.3886 H   0  0  0  0  0  0
  -28.4974  -13.6450   21.8393 H   0  0  0  0  0  0
  -25.2749   -9.5702   22.4755 H   0  0  0  0  0  0
  -23.9987   -7.4651   22.7498 H   0  0  0  0  0  0
  -21.0835   -8.8757   19.8946 H   0  0  0  0  0  0
  -22.3663  -10.9674   19.6164 H   0  0  0  0  0  0
  -21.2012   -7.6148   23.9698 H   0  0  0  0  0  0
  -21.1486   -6.0524   25.9065 H   0  0  0  0  0  0
  -22.0599   -2.7603   23.2854 H   0  0  0  0  0  0
  -22.4111  -11.9874   22.4737 H   0  0  0  0  0  0
  -21.1129  -13.1254   22.2561 H   0  0  0  0  0  0
  -24.6723  -15.8497   20.5205 H   0  0  0  0  0  0
  -26.2998  -15.6255   20.1181 H   0  0  0  0  0  0
  -26.7007  -32.5559   23.1197 H   0  0  0  0  0  0
  -25.0042  -33.9901   25.0517 H   0  0  0  0  0  0
  -22.6804  -31.3054   21.4226 H   0  0  0  0  0  0
  -23.3794  -35.9579   23.3222 H   0  0  0  0  0  0
  -24.3666  -36.8959   22.2071 H   0  0  0  0  0  0
  -23.7295  -37.6461   23.6760 H   0  0  0  0  0  0
  -26.0422  -31.5880   20.5953 H   0  0  0  0  0  0
  -26.8229  -30.8904   21.9884 H   0  0  0  0  0  0
  -28.0745  -29.0702   21.2233 H   0  0  0  0  0  0
  -26.0482  -26.0151   18.9427 H   0  0  0  0  0  0
  -23.9878  -27.3609   18.9361 H   0  0  0  0  0  0
  -23.6902  -30.6204   19.4104 H   0  0  0  0  0  0
  -22.7329  -29.2400   19.8778 H   0  0  0  0  0  0
  -25.1229  -36.1890   25.0881 H   0  0  0  0  0  0
  -20.9859  -28.3123   24.1454 H   0  0  0  0  0  0
  -20.5688  -26.2249   23.3414 H   0  0  0  0  0  0
  -21.6620  -26.7606   22.1050 H   0  0  0  0  0  0
  -19.6986  -25.6496   21.1067 H   0  0  0  0  0  0
  -19.6706  -27.3409   20.6678 H   0  0  0  0  0  0
  -17.4198  -26.6689   21.3960 H   0  0  0  0  0  0
  -18.0393  -26.0191   22.9011 H   0  0  0  0  0  0
  -19.7943  -30.7193   24.2334 H   0  0  0  0  0  0
  -17.5058  -31.6324   24.5137 H   0  0  0  0  0  0
  -15.5343  -30.2946   23.7847 H   0  0  0  0  0  0
  -15.8665  -28.0907   22.6979 H   0  0  0  0  0  0
  -24.5987  -30.6949   25.7999 H   0  0  0  0  0  0
  -24.8842  -32.2804   26.5028 H   0  0  0  0  0  0
  -25.8099  -30.9002   27.0404 H   0  0  0  0  0  0
  -26.2947  -29.6778   24.1197 H   0  0  0  0  0  0
  -27.4128  -29.7313   25.4625 H   0  0  0  0  0  0
  -27.8692  -30.4440   23.9328 H   0  0  0  0  0  0
  -27.2751  -33.3660   26.2122 H   0  0  0  0  0  0
  -28.3825  -32.6812   25.0337 H   0  0  0  0  0  0
  -28.0752  -31.8514   26.5481 H   0  0  0  0  0  0
  -28.2469  -38.0152   24.7545 H   0  0  0  0  0  0
  -28.1188  -36.2680   24.6186 H   0  0  0  0  0  0
  -27.2378  -37.1197   25.8890 H   0  0  0  0  0  0
  -20.9381  -29.8797   21.7017 H   0  0  0  0  0  0
  -26.0126  -38.2797   24.1458 H   0  0  0  0  0  0
  -26.2557  -22.4278   19.6348 H   0  0  0  0  0  0
  -22.1941  -23.1880   20.7771 H   0  0  0  0  0  0
  -26.8791  -21.9544   17.5175 H   0  0  0  0  0  0
  -25.8902  -22.7129   16.2773 H   0  0  0  0  0  0
  -25.7321  -20.9688   16.6197 H   0  0  0  0  0  0
  -25.1086  -19.9092   22.7691 H   0  0  0  0  0  0
  -24.0219  -20.6396   21.6160 H   0  0  0  0  0  0
  -23.8172  -20.9563   23.3264 H   0  0  0  0  0  0
  -23.2112  -24.6722   22.3278 H   0  0  0  0  0  0
  -24.0684  -24.0120   23.7056 H   0  0  0  0  0  0
  -22.9316  -23.0133   22.8365 H   0  0  0  0  0  0
  -20.3365  -21.8731   20.4429 H   0  0  0  0  0  0
  -19.0028  -22.4222   19.4512 H   0  0  0  0  0  0
  -20.1158  -23.5973   20.1025 H   0  0  0  0  0  0
  -20.8180  -20.2760   18.5537 H   0  0  0  0  0  0
  -20.9904  -20.8104   16.8969 H   0  0  0  0  0  0
  -19.4655  -20.9819   17.6945 H   0  0  0  0  0  0
  -20.7038  -24.5673   17.8917 H   0  0  0  0  0  0
  -19.4384  -23.5421   17.2390 H   0  0  0  0  0  0
  -21.0192  -23.5672   16.4917 H   0  0  0  0  0  0
  -31.0464  -19.3508   22.6628 H   0  0  0  0  0  0
  -31.9472  -19.1482   24.1478 H   0  0  0  0  0  0
  -29.9134  -17.1297   23.0364 H   0  0  0  0  0  0
  -30.8711  -16.9133   24.4838 H   0  0  0  0  0  0
  -29.9071  -19.1882   25.5005 H   0  0  0  0  0  0
  -28.9085  -19.0616   24.0775 H   0  0  0  0  0  0
  -32.9577  -17.1472   23.0205 H   0  0  0  0  0  0
  -31.9273  -17.1195   21.6200 H   0  0  0  0  0  0
  -29.9466  -21.3519   23.3387 H   0  0  0  0  0  0
  -30.5892  -21.4442   24.9489 H   0  0  0  0  0  0
  -27.1509  -24.2904   19.9297 H   0  0  0  0  0  0
  -27.7025  -23.5498   21.4133 H   0  0  0  0  0  0
  -25.2522  -25.3551   21.1884 H   0  0  0  0  0  0
  -25.9941  -24.9611   22.6763 H   0  0  0  0  0  0
  -32.0772  -14.8915   23.7267 H   0  0  0  0  0  0
  -32.9632  -14.8824   22.2334 H   0  0  0  0  0  0
  -28.5521  -22.7110   24.8880 H   0  0  0  0  0  0
  -28.2119  -21.3017   25.8650 H   0  0  0  0  0  0
  -25.5473  -22.1802   24.6206 H   0  0  0  0  0  0
  -26.6769  -23.2577   23.8335 H   0  0  0  0  0  0
  -29.2341  -25.2221   21.2819 H   0  0  0  0  0  0
  -28.0577  -26.1010   22.1940 H   0  0  0  0  0  0
  -26.3045  -21.7327   21.7325 H   0  0  0  0  0  0
  -30.1940  -14.1606   22.6271 H   0  0  0  0  0  0
  -26.9348  -20.3864   24.2186 H   0  0  0  0  0  0
  -27.7267  -21.1434   23.0177 H   0  0  0  0  0  0
  1 25  1  0  0  0
  1 30  2  0  0  0
  1 97  1  0  0  0
  2  3  1  0  0  0
  2 25  1  0  0  0
  2100  1  0  0  0
  2101  1  0  0  0
  3  4  1  0  0  0
  3102  1  0  0  0
  3103  1  0  0  0
  4  5  1  0  0  0
  4104  1  0  0  0
  4105  1  0  0  0
  5  6  1  0  0  0
  5 26  1  0  0  0
  5106  1  0  0  0
  6 25  1  0  0  0
  6107  1  0  0  0
  6108  1  0  0  0
  7  8  2  0  0  0
  7 26  1  0  0  0
  7 29  1  0  0  0
  8  9  1  0  0  0
  8 22  1  0  0  0
  9 10  1  0  0  0
  9 27  2  0  0  0
 10 11  2  0  0  0
 10 15  1  0  0  0
 11 12  1  0  0  0
 11109  1  0  0  0
 12 13  2  0  0  0
 12110  1  0  0  0
 13 14  1  0  0  0
 13 31  1  0  0  0
 14 15  2  0  0  0
 14111  1  0  0  0
 15112  1  0  0  0
 16 17  2  0  0  0
 16 21  1  0  0  0
 16 31  1  0  0  0
 17 18  1  0  0  0
 17113  1  0  0  0
 18 19  2  0  0  0
 18114  1  0  0  0
 19 20  1  0  0  0
 19 24  1  0  0  0
 20 21  2  0  0  0
 20115  1  0  0  0
 21 23  1  0  0  0
 22 28  1  0  0  0
 22 32  2  0  0  0
 26 27  1  0  0  0
 28116  1  0  0  0
 28117  1  0  0  0
 29118  1  0  0  0
 29119  1  0  0  0
 33 34  1  0  0  0
 33 66  1  0  0  0
 33 70  2  0  0  0
 34 36  1  0  0  0
 34 59  1  0  0  0
 34120  1  0  0  0
 35 44  2  0  0  0
 35 45  1  0  0  0
 35 68  1  0  0  0
 36 56  1  0  0  0
 36121  1  0  0  0
 37 39  1  0  0  0
 37 47  1  0  0  0
 37 66  1  0  0  0
 37122  1  0  0  0
 38 43  2  0  0  0
 38 46  1  0  0  0
 38 47  1  0  0  0
 39 64  1  0  0  0
 39 67  2  0  0  0
 40 52  1  0  0  0
 40 53  2  0  0  0
 40 58  1  0  0  0
 41123  1  0  0  0
 41124  1  0  0  0
 41125  1  0  0  0
 41 48  1  0  0  0
 42 43  1  0  0  0
 42 66  1  0  0  0
 42126  1  0  0  0
 42127  1  0  0  0
 43 44  1  0  0  0
 44128  1  0  0  0
 45 46  2  0  0  0
 45129  1  0  0  0
 46130  1  0  0  0
 47131  1  0  0  0
 47132  1  0  0  0
 48 56  1  0  0  0
 48 65  1  0  0  0
 48133  1  0  0  0
 49 50  1  0  0  0
 49 53  1  0  0  0
 49 64  1  0  0  0
 49134  1  0  0  0
 50 51  1  0  0  0
 50135  1  0  0  0
 50136  1  0  0  0
 51 52  1  0  0  0
 51137  1  0  0  0
 51138  1  0  0  0
 52139  1  0  0  0
 52140  1  0  0  0
 53 54  1  0  0  0
 54 55  2  0  0  0
 54141  1  0  0  0
 55 57  1  0  0  0
 55142  1  0  0  0
 56 69  2  0  0  0
 57 58  2  0  0  0
 57143  1  0  0  0
 58144  1  0  0  0
 59 60  1  0  0  0
 59 61  1  0  0  0
 59 62  1  0  0  0
 60145  1  0  0  0
 60146  1  0  0  0
 60147  1  0  0  0
 61148  1  0  0  0
 61149  1  0  0  0
 61150  1  0  0  0
 62151  1  0  0  0
 62152  1  0  0  0
 62153  1  0  0  0
 63 65  1  0  0  0
 63154  1  0  0  0
 63155  1  0  0  0
 63156  1  0  0  0
 64157  1  0  0  0
 65158  1  0  0  0
 68 93  1  0  0  0
 71 73  2  0  0  0
 71 74  1  0  0  0
 71159  1  0  0  0
 72 73  1  0  0  0
 72 75  2  0  0  0
 72160  1  0  0  0
 73 95  1  0  0  0
 74 76  2  0  0  0
 74 77  1  0  0  0
 75 76  1  0  0  0
 75 96  1  0  0  0
 76 99  1  0  0  0
 77161  1  0  0  0
 77162  1  0  0  0
 77163  1  0  0  0
 78164  1  0  0  0
 78165  1  0  0  0
 78166  1  0  0  0
 78 94  1  0  0  0
 79167  1  0  0  0
 79168  1  0  0  0
 79169  1  0  0  0
 79 95  1  0  0  0
 80170  1  0  0  0
 80171  1  0  0  0
 80172  1  0  0  0
 80 96  1  0  0  0
 81 96  1  0  0  0
 81173  1  0  0  0
 81174  1  0  0  0
 81175  1  0  0  0
 82 96  1  0  0  0
 82176  1  0  0  0
 82177  1  0  0  0
 82178  1  0  0  0
 83 84  1  0  0  0
 83 85  1  0  0  0
 83179  1  0  0  0
 83180  1  0  0  0
 84 86  1  0  0  0
 84181  1  0  0  0
 84182  1  0  0  0
 85 87  1  0  0  0
 85183  1  0  0  0
 85184  1  0  0  0
 86 90  1  0  0  0
 86185  1  0  0  0
 86186  1  0  0  0
 87 91  1  0  0  0
 87187  1  0  0  0
 87188  1  0  0  0
 88 89  1  0  0  0
 88 93  1  0  0  0
 88189  1  0  0  0
 88190  1  0  0  0
 89 95  1  0  0  0
 89191  1  0  0  0
 89192  1  0  0  0
 90 97  1  0  0  0
 90193  1  0  0  0
 90194  1  0  0  0
 91 98  1  0  0  0
 91195  1  0  0  0
 91196  1  0  0  0
 92 94  1  0  0  0
 92 98  1  0  0  0
 92197  1  0  0  0
 92198  1  0  0  0
 93199  1  0  0  0
 93200  1  0  0  0
 94 95  1  0  0  0
 94201  1  0  0  0
 97202  1  0  0  0
 98203  1  0  0  0
 98204  1  0  0  0
M  CHG  1  98   1
M  ISO  4   1 100  68 101  93 101  97 100
M  END
> <chiral flag>
0

> <version>
0

> <s_m_source_file>
/data/baiqing/PycharmProjects/Reinvent-master-3.2/result/LINK_invent/BTK/process_docking_weight1_custom_sum_contain_oxygen_bond_distance_aromatic_linkinvent_7_9_3/rearranged_h_0024.sdf

> <i_m_source_file_index>
65

> <r_mmod_Potential_Energy-OPLS-2005>
-83.8081436157227

> <r_mmod_Stretch_Energy-OPLS-2005>
53.3969497680664

> <r_mmod_Bend_Energy-OPLS-2005>
132.477294921875

> <r_mmod_Torsional_Energy-OPLS-2005>
292.458465576172

> <r_mmod_Improper_Torsional_Energy-OPLS-2005>
7.72536611557007

> <r_mmod_Van_der_Waal_Energy-OPLS-2005>
169.98974609375

> <r_mmod_Electrostatic_Energy-OPLS-2005>
-313.518585205078

> <r_mmod_Solvation_Energy-OPLS-2005>
-444.791442871094

> <b_mmod_Minimization_Converged-OPLS-2005>
0

> <r_mmod_RMS_Derivative-OPLS-2005>
6.68420076370239

$$$$
65
                    3D
 Structure written by MMmdl.
205213  0  0  1  0            999 V2000
  -30.7893  -14.2925   20.8109 C   0  0  0  0  0  0
  -30.4313  -12.3086   19.3569 C   0  0  0  0  0  0
  -29.4739  -12.5417   18.1724 C   0  0  0  0  0  0
  -28.0093  -12.3527   18.6039 C   0  0  0  0  0  0
  -27.6706  -13.1741   19.8672 C   0  0  2  0  0  0
  -28.7066  -12.8859   20.9742 C   0  0  0  0  0  0
  -25.2686  -13.8058   20.5721 C   0  0  0  0  0  0
  -24.1903  -13.0386   20.9173 C   0  0  0  0  0  0
  -24.6391  -11.6817   20.8711 C   0  0  0  0  0  0
  -23.9041  -10.4225   21.0408 C   0  0  0  0  0  0
  -24.3603   -9.4120   21.9170 C   0  0  0  0  0  0
  -23.6256   -8.2171   22.0745 C   0  0  0  0  0  0
  -22.4198   -8.0278   21.3600 C   0  0  0  0  0  0
  -21.9829   -9.0251   20.4697 C   0  0  0  0  0  0
  -22.7198  -10.2097   20.3064 C   0  0  0  0  0  0
  -21.6803   -6.0732   22.5370 C   0  0  0  0  0  0
  -21.3983   -6.5631   23.8318 C   0  0  0  0  0  0
  -21.3633   -5.6797   24.9278 C   0  0  0  0  0  0
  -21.5998   -4.3048   24.7335 C   0  0  0  0  0  0
  -21.8788   -3.8144   23.4470 C   0  0  0  0  0  0
  -21.9141   -4.6951   22.3506 C   0  0  0  0  0  0
  -22.7927  -13.5232   21.1825 C   0  0  0  0  0  0
  -22.1600   -4.2113   21.1089 F   0  0  0  0  0  0
  -21.5627   -3.4543   25.7855 F   0  0  0  0  0  0
  -30.0576  -13.1985   20.4674 N   0  0  0  0  0  0
  -26.3079  -12.9177   20.3318 N   0  0  0  0  0  0
  -25.9301  -11.6366   20.5719 N   0  0  0  0  0  0
  -22.0535  -12.8360   22.0457 N   0  0  0  0  0  0
  -25.4449  -15.1802   20.4203 N   0  0  0  0  0  0
  -31.7185  -14.7319   20.1229 O   0  0  0  0  0  0
  -21.6541   -6.8887   21.4338 O   0  0  0  0  0  0
  -22.3638  -14.5524   20.6600 O   0  0  0  0  0  0
  -24.6104  -31.8707   23.2152 C   0  0  0  0  0  0
  -25.8991  -32.4856   23.8452 C   0  0  1  0  0  0
  -27.2432  -27.4773   20.0716 C   0  0  0  0  0  0
  -25.5856  -33.8655   24.2393 N   0  0  0  0  0  0
  -23.4006  -30.4920   21.5557 C   0  0  2  0  0  0
  -24.8470  -28.9594   20.1236 C   0  0  0  0  0  0
  -22.7408  -29.4648   22.5046 C   0  0  0  0  0  0
  -18.0265  -28.1368   22.8514 C   0  0  0  0  0  0
  -24.1469  -36.7327   23.2649 C   0  0  0  0  0  0
  -25.9266  -30.8432   21.3655 C   0  0  0  0  0  0
  -26.0047  -29.4776   20.7193 C   0  0  0  0  0  0
  -27.2059  -28.7366   20.7026 C   0  0  0  0  0  0
  -26.0648  -26.9507   19.5003 C   0  0  0  0  0  0
  -24.8685  -27.6914   19.5162 C   0  0  0  0  0  0
  -23.6079  -29.8223   20.1708 C   0  0  0  0  0  0
  -25.4090  -36.3152   24.0371 C   0  0  1  0  0  0
  -20.5850  -28.3640   23.1354 C   0  0  2  0  0  0
  -20.6745  -26.9383   22.5433 C   0  0  0  0  0  0
  -19.5722  -26.6382   21.5230 C   0  0  0  0  0  0
  -18.1903  -26.7920   22.1642 C   0  0  0  0  0  0
  -19.1507  -28.8826   23.2928 C   0  0  0  0  0  0
  -18.9433  -30.1434   23.8941 C   0  0  0  0  0  0
  -17.6430  -30.6577   24.0565 C   0  0  0  0  0  0
  -25.9006  -34.9503   23.5180 C   0  0  0  0  0  0
  -16.5328  -29.9080   23.6312 C   0  0  0  0  0  0
  -16.7251  -28.6488   23.0358 C   0  0  0  0  0  0
  -26.4432  -31.6627   25.0763 C   0  0  0  0  0  0
  -25.3714  -31.3682   26.1521 C   0  0  0  0  0  0
  -27.0263  -30.3094   24.6092 C   0  0  0  0  0  0
  -27.6048  -32.4331   25.7490 C   0  0  0  0  0  0
  -27.5584  -37.1820   24.8476 C   0  0  0  0  0  0
  -21.4140  -29.3014   22.3772 N   0  0  0  0  0  0
  -26.4298  -37.3822   23.9417 N   0  0  0  0  0  0
  -24.6640  -31.0827   22.1042 N   0  0  0  0  0  0
  -23.4193  -28.8190   23.3070 O   0  0  0  0  0  0
  -28.4193  -26.7765   19.9937 O   0  0  0  0  0  0
  -26.5581  -34.8938   22.4749 O   0  0  0  0  0  0
  -23.5295  -32.1444   23.7540 O   0  0  0  0  0  0
  -33.2343  -21.4482   20.9881 C   0  0  0  0  0  0
  -30.7079  -14.2103   23.2863 C   0  0  0  0  0  0
  -29.8798  -14.9811   24.3327 C   0  0  1  0  0  0
  -28.9606  -15.8883   23.4813 C   0  0  2  0  0  0
  -29.8119  -16.1683   22.2236 C   0  0  2  0  0  0
  -28.3236  -12.9546   24.9385 C   0  0  0  0  0  0
  -27.0121  -16.9290   24.6155 C   0  0  0  0  0  0
  -29.2594  -17.7720   25.1580 C   0  0  0  0  0  0
  -32.4260  -20.1489   20.9555 C   0  0  0  0  0  0
  -29.1910  -14.1254   25.4251 C   0  0  0  0  0  0
  -29.0152  -16.6767   20.9932 C   0  0  0  0  0  0
  -31.0822  -20.2830   20.2034 C   0  0  0  0  0  0
  -28.2321  -17.9832   21.1683 C   0  0  0  0  0  0
  -30.0632  -21.2295   20.8728 C   0  0  0  0  0  0
  -27.7469  -18.5303   19.8156 C   0  0  0  0  0  0
  -28.7963  -21.4907   20.0254 C   0  0  0  0  0  0
  -26.8454  -19.7702   19.9267 C   0  0  0  0  0  0
  -27.4794  -20.9738   20.6459 C   0  0  0  0  0  0
  -32.0811  -24.3577   19.0094 C   0  0  0  0  0  0
  -31.1935  -25.5973   19.2152 C   0  0  0  0  0  0
  -33.4122  -24.4312   19.7793 C   0  0  0  0  0  0
  -29.8345  -25.4398   18.5180 C   0  0  0  0  0  0
  -34.3313  -23.2033   19.5902 C   0  0  0  0  0  0
  -28.9201  -26.6628   18.6614 C   0  0  0  0  0  0
  -30.4300  -14.8517   21.9937 N   0  0  0  0  0  0
  -33.6477  -21.9314   19.8109 N   0  0  0  0  0  0
  -28.4059  -17.1140   24.1393 N   0  3  0  0  0  0
  -33.4750  -22.0010   22.0614 O   0  0  0  0  0  0
  -31.4655  -12.4549   19.0394 H   0  0  0  0  0  0
  -30.3706  -11.2699   19.6859 H   0  0  0  0  0  0
  -29.7071  -11.8465   17.3661 H   0  0  0  0  0  0
  -29.6149  -13.5484   17.7722 H   0  0  0  0  0  0
  -27.8556  -11.2928   18.8079 H   0  0  0  0  0  0
  -27.3336  -12.6108   17.7884 H   0  0  0  0  0  0
  -27.7349  -14.2193   19.5719 H   0  0  0  0  0  0
  -28.6818  -11.8317   21.2506 H   0  0  0  0  0  0
  -28.4286  -13.4143   21.8815 H   0  0  0  0  0  0
  -25.2784   -9.5522   22.4711 H   0  0  0  0  0  0
  -23.9950   -7.4517   22.7425 H   0  0  0  0  0  0
  -21.0718   -8.8813   19.9067 H   0  0  0  0  0  0
  -22.3709  -10.9641   19.6151 H   0  0  0  0  0  0
  -21.1987   -7.6141   23.9853 H   0  0  0  0  0  0
  -21.1470   -6.0528   25.9194 H   0  0  0  0  0  0
  -22.0572   -2.7596   23.3041 H   0  0  0  0  0  0
  -22.4132  -12.0122   22.5047 H   0  0  0  0  0  0
  -21.1163  -13.1537   22.2572 H   0  0  0  0  0  0
  -24.6703  -15.8216   20.5393 H   0  0  0  0  0  0
  -26.2702  -15.6275   20.0428 H   0  0  0  0  0  0
  -26.7079  -32.5583   23.1243 H   0  0  0  0  0  0
  -25.0000  -33.9828   25.0533 H   0  0  0  0  0  0
  -22.6873  -31.3069   21.4164 H   0  0  0  0  0  0
  -23.3744  -35.9647   23.3329 H   0  0  0  0  0  0
  -24.3581  -36.8902   22.2061 H   0  0  0  0  0  0
  -23.7186  -37.6534   23.6625 H   0  0  0  0  0  0
  -26.0321  -31.6065   20.5935 H   0  0  0  0  0  0
  -26.8174  -30.9038   21.9789 H   0  0  0  0  0  0
  -28.1080  -29.1384   21.1426 H   0  0  0  0  0  0
  -26.0759  -25.9793   19.0279 H   0  0  0  0  0  0
  -23.9781  -27.2850   19.0573 H   0  0  0  0  0  0
  -23.7142  -30.5956   19.4092 H   0  0  0  0  0  0
  -22.7340  -29.2379   19.8774 H   0  0  0  0  0  0
  -25.1252  -36.2068   25.0872 H   0  0  0  0  0  0
  -20.9947  -28.3178   24.1472 H   0  0  0  0  0  0
  -20.5647  -26.2242   23.3608 H   0  0  0  0  0  0
  -21.6612  -26.7423   22.1213 H   0  0  0  0  0  0
  -19.6867  -25.6302   21.1231 H   0  0  0  0  0  0
  -19.6655  -27.3218   20.6781 H   0  0  0  0  0  0
  -17.4174  -26.6698   21.4036 H   0  0  0  0  0  0
  -18.0280  -26.0053   22.9025 H   0  0  0  0  0  0
  -19.7901  -30.7239   24.2346 H   0  0  0  0  0  0
  -17.4975  -31.6266   24.5148 H   0  0  0  0  0  0
  -15.5324  -30.2987   23.7609 H   0  0  0  0  0  0
  -15.8657  -28.0810   22.7070 H   0  0  0  0  0  0
  -24.5906  -30.7015   25.7845 H   0  0  0  0  0  0
  -24.8864  -32.2796   26.5027 H   0  0  0  0  0  0
  -25.8074  -30.8818   27.0256 H   0  0  0  0  0  0
  -26.2790  -29.6877   24.1147 H   0  0  0  0  0  0
  -27.4067  -29.7312   25.4522 H   0  0  0  0  0  0
  -27.8608  -30.4467   23.9215 H   0  0  0  0  0  0
  -27.2728  -33.3642   26.2098 H   0  0  0  0  0  0
  -28.3811  -32.6873   25.0261 H   0  0  0  0  0  0
  -28.0766  -31.8432   26.5358 H   0  0  0  0  0  0
  -28.2628  -38.0096   24.7530 H   0  0  0  0  0  0
  -28.1056  -36.2635   24.6294 H   0  0  0  0  0  0
  -27.2314  -37.1465   25.8885 H   0  0  0  0  0  0
  -20.9308  -29.8754   21.7011 H   0  0  0  0  0  0
  -26.0211  -38.2919   24.1399 H   0  0  0  0  0  0
  -30.4720  -13.1469   23.2501 H   0  0  0  0  0  0
  -31.7716  -14.2865   23.5202 H   0  0  0  0  0  0
  -30.6087  -15.5964   24.8569 H   0  0  0  0  0  0
  -28.1123  -15.2970   23.1341 H   0  0  0  0  0  0
  -30.6167  -16.8683   22.4539 H   0  0  0  0  0  0
  -28.9279  -12.1466   24.5288 H   0  0  0  0  0  0
  -27.6094  -13.2654   24.1772 H   0  0  0  0  0  0
  -27.7613  -12.5290   25.7718 H   0  0  0  0  0  0
  -26.3569  -16.6077   23.8055 H   0  0  0  0  0  0
  -26.6021  -17.8627   25.0002 H   0  0  0  0  0  0
  -26.9449  -16.1873   25.4123 H   0  0  0  0  0  0
  -30.2688  -17.9422   24.7833 H   0  0  0  0  0  0
  -29.3274  -17.1782   26.0724 H   0  0  0  0  0  0
  -28.8431  -18.7438   25.4331 H   0  0  0  0  0  0
  -32.2561  -19.8030   21.9769 H   0  0  0  0  0  0
  -33.0375  -19.3806   20.4844 H   0  0  0  0  0  0
  -29.9570  -13.7356   26.0972 H   0  0  0  0  0  0
  -28.5763  -14.7691   26.0502 H   0  0  0  0  0  0
  -28.2989  -15.9206   20.6902 H   0  0  0  0  0  0
  -29.7053  -16.8033   20.1565 H   0  0  0  0  0  0
  -30.6521  -19.2879   20.1021 H   0  0  0  0  0  0
  -31.2733  -20.6131   19.1820 H   0  0  0  0  0  0
  -28.8565  -18.7159   21.6800 H   0  0  0  0  0  0
  -27.3576  -17.8163   21.7960 H   0  0  0  0  0  0
  -30.5340  -22.1913   21.0743 H   0  0  0  0  0  0
  -29.8074  -20.8414   21.8589 H   0  0  0  0  0  0
  -27.1848  -17.7520   19.2974 H   0  0  0  0  0  0
  -28.5955  -18.7541   19.1700 H   0  0  0  0  0  0
  -28.9217  -21.1181   19.0064 H   0  0  0  0  0  0
  -28.7020  -22.5709   19.9014 H   0  0  0  0  0  0
  -25.9267  -19.4913   20.4485 H   0  0  0  0  0  0
  -26.5289  -20.0718   18.9256 H   0  0  0  0  0  0
  -26.7536  -21.7876   20.6328 H   0  0  0  0  0  0
  -27.6065  -20.7376   21.7021 H   0  0  0  0  0  0
  -32.2800  -24.2246   17.9458 H   0  0  0  0  0  0
  -31.5230  -23.4774   19.3268 H   0  0  0  0  0  0
  -31.7024  -26.4827   18.8294 H   0  0  0  0  0  0
  -31.0347  -25.7704   20.2811 H   0  0  0  0  0  0
  -33.2050  -24.5685   20.8409 H   0  0  0  0  0  0
  -33.9563  -25.3239   19.4698 H   0  0  0  0  0  0
  -29.3178  -24.5568   18.8946 H   0  0  0  0  0  0
  -30.0033  -25.2581   17.4553 H   0  0  0  0  0  0
  -35.1979  -23.2816   20.2488 H   0  0  0  0  0  0
  -34.7262  -23.1967   18.5740 H   0  0  0  0  0  0
  -28.1162  -26.5648   17.9310 H   0  0  0  0  0  0
  -29.4573  -27.5773   18.4047 H   0  0  0  0  0  0
  -33.4424  -21.3782   18.9903 H   0  0  0  0  0  0
  -28.3284  -17.7873   23.3890 H   0  0  0  0  0  0
  1 25  1  0  0  0
  1 30  2  0  0  0
  1 95  1  0  0  0
  2  3  1  0  0  0
  2 25  1  0  0  0
  2 99  1  0  0  0
  2100  1  0  0  0
  3  4  1  0  0  0
  3101  1  0  0  0
  3102  1  0  0  0
  4  5  1  0  0  0
  4103  1  0  0  0
  4104  1  0  0  0
  5  6  1  0  0  0
  5 26  1  0  0  0
  5105  1  0  0  0
  6 25  1  0  0  0
  6106  1  0  0  0
  6107  1  0  0  0
  7  8  2  0  0  0
  7 26  1  0  0  0
  7 29  1  0  0  0
  8  9  1  0  0  0
  8 22  1  0  0  0
  9 10  1  0  0  0
  9 27  2  0  0  0
 10 11  2  0  0  0
 10 15  1  0  0  0
 11 12  1  0  0  0
 11108  1  0  0  0
 12 13  2  0  0  0
 12109  1  0  0  0
 13 14  1  0  0  0
 13 31  1  0  0  0
 14 15  2  0  0  0
 14110  1  0  0  0
 15111  1  0  0  0
 16 17  2  0  0  0
 16 21  1  0  0  0
 16 31  1  0  0  0
 17 18  1  0  0  0
 17112  1  0  0  0
 18 19  2  0  0  0
 18113  1  0  0  0
 19 20  1  0  0  0
 19 24  1  0  0  0
 20 21  2  0  0  0
 20114  1  0  0  0
 21 23  1  0  0  0
 22 28  1  0  0  0
 22 32  2  0  0  0
 26 27  1  0  0  0
 28115  1  0  0  0
 28116  1  0  0  0
 29117  1  0  0  0
 29118  1  0  0  0
 33 34  1  0  0  0
 33 66  1  0  0  0
 33 70  2  0  0  0
 34 36  1  0  0  0
 34 59  1  0  0  0
 34119  1  0  0  0
 35 44  2  0  0  0
 35 45  1  0  0  0
 35 68  1  0  0  0
 36 56  1  0  0  0
 36120  1  0  0  0
 37 39  1  0  0  0
 37 47  1  0  0  0
 37 66  1  0  0  0
 37121  1  0  0  0
 38 43  2  0  0  0
 38 46  1  0  0  0
 38 47  1  0  0  0
 39 64  1  0  0  0
 39 67  2  0  0  0
 40 52  1  0  0  0
 40 53  2  0  0  0
 40 58  1  0  0  0
 41122  1  0  0  0
 41123  1  0  0  0
 41124  1  0  0  0
 41 48  1  0  0  0
 42 43  1  0  0  0
 42 66  1  0  0  0
 42125  1  0  0  0
 42126  1  0  0  0
 43 44  1  0  0  0
 44127  1  0  0  0
 45 46  2  0  0  0
 45128  1  0  0  0
 46129  1  0  0  0
 47130  1  0  0  0
 47131  1  0  0  0
 48 56  1  0  0  0
 48 65  1  0  0  0
 48132  1  0  0  0
 49 50  1  0  0  0
 49 53  1  0  0  0
 49 64  1  0  0  0
 49133  1  0  0  0
 50 51  1  0  0  0
 50134  1  0  0  0
 50135  1  0  0  0
 51 52  1  0  0  0
 51136  1  0  0  0
 51137  1  0  0  0
 52138  1  0  0  0
 52139  1  0  0  0
 53 54  1  0  0  0
 54 55  2  0  0  0
 54140  1  0  0  0
 55 57  1  0  0  0
 55141  1  0  0  0
 56 69  2  0  0  0
 57 58  2  0  0  0
 57142  1  0  0  0
 58143  1  0  0  0
 59 60  1  0  0  0
 59 61  1  0  0  0
 59 62  1  0  0  0
 60144  1  0  0  0
 60145  1  0  0  0
 60146  1  0  0  0
 61147  1  0  0  0
 61148  1  0  0  0
 61149  1  0  0  0
 62150  1  0  0  0
 62151  1  0  0  0
 62152  1  0  0  0
 63 65  1  0  0  0
 63153  1  0  0  0
 63154  1  0  0  0
 63155  1  0  0  0
 64156  1  0  0  0
 65157  1  0  0  0
 68 94  1  0  0  0
 71 79  1  0  0  0
 71 96  1  0  0  0
 71 98  2  0  0  0
 72 73  1  0  0  0
 72 95  1  0  0  0
 72158  1  0  0  0
 72159  1  0  0  0
 73 74  1  0  0  0
 73 80  1  0  0  0
 73160  1  0  0  0
 74 75  1  0  0  0
 74 97  1  0  0  0
 74161  1  0  0  0
 75 81  1  0  0  0
 75 95  1  0  0  0
 75162  1  0  0  0
 76 80  1  0  0  0
 76163  1  0  0  0
 76164  1  0  0  0
 76165  1  0  0  0
 77166  1  0  0  0
 77167  1  0  0  0
 77168  1  0  0  0
 77 97  1  0  0  0
 78 97  1  0  0  0
 78169  1  0  0  0
 78170  1  0  0  0
 78171  1  0  0  0
 79 82  1  0  0  0
 79172  1  0  0  0
 79173  1  0  0  0
 80174  1  0  0  0
 80175  1  0  0  0
 81 83  1  0  0  0
 81176  1  0  0  0
 81177  1  0  0  0
 82 84  1  0  0  0
 82178  1  0  0  0
 82179  1  0  0  0
 83 85  1  0  0  0
 83180  1  0  0  0
 83181  1  0  0  0
 84 86  1  0  0  0
 84182  1  0  0  0
 84183  1  0  0  0
 85 87  1  0  0  0
 85184  1  0  0  0
 85185  1  0  0  0
 86 88  1  0  0  0
 86186  1  0  0  0
 86187  1  0  0  0
 87 88  1  0  0  0
 87188  1  0  0  0
 87189  1  0  0  0
 88190  1  0  0  0
 88191  1  0  0  0
 89 90  1  0  0  0
 89 91  1  0  0  0
 89192  1  0  0  0
 89193  1  0  0  0
 90 92  1  0  0  0
 90194  1  0  0  0
 90195  1  0  0  0
 91 93  1  0  0  0
 91196  1  0  0  0
 91197  1  0  0  0
 92 94  1  0  0  0
 92198  1  0  0  0
 92199  1  0  0  0
 93 96  1  0  0  0
 93200  1  0  0  0
 93201  1  0  0  0
 94202  1  0  0  0
 94203  1  0  0  0
 96204  1  0  0  0
 97205  1  0  0  0
M  CHG  1  97   1
M  ISO  4   1 100  68 101  94 101  95 100
M  END
> <chiral flag>
0

> <version>
0

> <s_m_source_file>
/data/baiqing/PycharmProjects/Reinvent-master-3.2/result/LINK_invent/BTK/process_docking_weight1_custom_sum_contain_oxygen_bond_distance_aromatic_linkinvent_7_9_3/rearranged_h_0024.sdf

> <i_m_source_file_index>
66

> <r_mmod_Potential_Energy-OPLS-2005>
84.8574066162109

> <r_mmod_Stretch_Energy-OPLS-2005>
37.5280113220215

> <r_mmod_Bend_Energy-OPLS-2005>
144.667572021484

> <r_mmod_Torsional_Energy-OPLS-2005>
445.560302734375

> <r_mmod_Improper_Torsional_Energy-OPLS-2005>
1.86699235439301

> <r_mmod_Van_der_Waal_Energy-OPLS-2005>
103.105911254883

> <r_mmod_Electrostatic_Energy-OPLS-2005>
-226.341522216797

> <r_mmod_Solvation_Energy-OPLS-2005>
-433.552154541016

> <b_mmod_Minimization_Converged-OPLS-2005>
0

> <r_mmod_RMS_Derivative-OPLS-2005>
4.50570440292358

$$$$
66
                    3D
 Structure written by MMmdl.
186196  0  0  1  0            999 V2000
  -30.7820  -14.4511   20.5077 C   0  0  0  0  0  0
  -30.3983  -12.2842   19.4317 C   0  0  0  0  0  0
  -29.4810  -12.4546   18.2060 C   0  0  0  0  0  0
  -28.0032  -12.3433   18.6250 C   0  0  0  0  0  0
  -27.6451  -13.2074   19.8655 C   0  0  2  0  0  0
  -28.7034  -13.0810   20.9885 C   0  0  0  0  0  0
  -25.2455  -13.8088   20.5666 C   0  0  0  0  0  0
  -24.1761  -13.0376   20.9223 C   0  0  0  0  0  0
  -24.6346  -11.6853   20.8795 C   0  0  0  0  0  0
  -23.9028  -10.4257   21.0433 C   0  0  0  0  0  0
  -24.3593   -9.4181   21.9201 C   0  0  0  0  0  0
  -23.6277   -8.2213   22.0756 C   0  0  0  0  0  0
  -22.4263   -8.0252   21.3537 C   0  0  0  0  0  0
  -21.9892   -9.0226   20.4642 C   0  0  0  0  0  0
  -22.7213  -10.2109   20.3066 C   0  0  0  0  0  0
  -21.6845   -6.0718   22.5280 C   0  0  0  0  0  0
  -21.4008   -6.5630   23.8209 C   0  0  0  0  0  0
  -21.3660   -5.6787   24.9175 C   0  0  0  0  0  0
  -21.6052   -4.3048   24.7232 C   0  0  0  0  0  0
  -21.8817   -3.8139   23.4350 C   0  0  0  0  0  0
  -21.9188   -4.6950   22.3407 C   0  0  0  0  0  0
  -22.7787  -13.5176   21.1873 C   0  0  0  0  0  0
  -22.1657   -4.2133   21.0981 F   0  0  0  0  0  0
  -21.5635   -3.4538   25.7746 F   0  0  0  0  0  0
  -30.0286  -13.3237   20.4010 N   0  0  0  0  0  0
  -26.2939  -12.9288   20.3409 N   0  0  0  0  0  0
  -25.9287  -11.6452   20.5879 N   0  0  0  0  0  0
  -22.0434  -12.8186   22.0434 N   0  0  0  0  0  0
  -25.4002  -15.1788   20.3914 N   0  0  0  0  0  0
  -31.9714  -14.4763   20.1983 O   0  0  0  0  0  0
  -21.6621   -6.8856   21.4236 O   0  0  0  0  0  0
  -22.3480  -14.5493   20.6722 O   0  0  0  0  0  0
  -24.6081  -31.8713   23.2146 C   0  0  0  0  0  0
  -25.8980  -32.4846   23.8438 C   0  0  1  0  0  0
  -27.2368  -27.4861   20.0717 C   0  0  0  0  0  0
  -25.5849  -33.8653   24.2358 N   0  0  0  0  0  0
  -23.3964  -30.4970   21.5529 C   0  0  2  0  0  0
  -24.8400  -28.9640   20.1236 C   0  0  0  0  0  0
  -22.7366  -29.4667   22.4977 C   0  0  0  0  0  0
  -18.0262  -28.1385   22.8490 C   0  0  0  0  0  0
  -24.1475  -36.7321   23.2634 C   0  0  0  0  0  0
  -25.9195  -30.8456   21.3672 C   0  0  0  0  0  0
  -25.9961  -29.4808   20.7217 C   0  0  0  0  0  0
  -27.1959  -28.7433   20.7055 C   0  0  0  0  0  0
  -26.0588  -26.9558   19.5079 C   0  0  0  0  0  0
  -24.8620  -27.6950   19.5197 C   0  0  0  0  0  0
  -23.6022  -29.8270   20.1681 C   0  0  0  0  0  0
  -25.4107  -36.3132   24.0326 C   0  0  1  0  0  0
  -20.5848  -28.3673   23.1299 C   0  0  2  0  0  0
  -20.6755  -26.9418   22.5411 C   0  0  0  0  0  0
  -19.5744  -26.6410   21.5202 C   0  0  0  0  0  0
  -18.1926  -26.7932   22.1618 C   0  0  0  0  0  0
  -19.1515  -28.8846   23.2897 C   0  0  0  0  0  0
  -18.9438  -30.1460   23.8915 C   0  0  0  0  0  0
  -17.6432  -30.6587   24.0583 C   0  0  0  0  0  0
  -25.9007  -34.9488   23.5128 C   0  0  0  0  0  0
  -16.5334  -29.9094   23.6334 C   0  0  0  0  0  0
  -16.7254  -28.6513   23.0341 C   0  0  0  0  0  0
  -26.4481  -31.6615   25.0728 C   0  0  0  0  0  0
  -25.3780  -31.3672   26.1495 C   0  0  0  0  0  0
  -27.0347  -30.3075   24.6093 C   0  0  0  0  0  0
  -27.6069  -32.4358   25.7466 C   0  0  0  0  0  0
  -27.5601  -37.1815   24.8458 C   0  0  0  0  0  0
  -21.4091  -29.3042   22.3708 N   0  0  0  0  0  0
  -26.4309  -37.3805   23.9397 N   0  0  0  0  0  0
  -24.6591  -31.0845   22.1041 N   0  0  0  0  0  0
  -23.4136  -28.8182   23.3002 O   0  0  0  0  0  0
  -28.4348  -26.8214   19.9941 O   0  0  0  0  0  0
  -26.5553  -34.8899   22.4684 O   0  0  0  0  0  0
  -23.5274  -32.1429   23.7545 O   0  0  0  0  0  0
  -27.6438  -23.4564   16.9401 C   0  0  0  0  0  0
  -29.7042  -22.8933   18.1177 C   0  0  0  0  0  0
  -28.8421  -25.2010   18.1677 C   0  0  0  0  0  0
  -28.5931  -22.4962   17.3356 C   0  0  0  0  0  0
  -27.7781  -24.8021   17.3219 C   0  0  0  0  0  0
  -29.8010  -24.2328   18.5534 C   0  0  0  0  0  0
  -28.6522  -19.5323   21.3788 C   0  0  0  0  0  0
  -28.6094  -18.1963   21.5515 C   0  0  0  0  0  0
  -28.1070  -19.7092   18.9494 C   0  0  0  0  0  0
  -28.0198  -20.1889   20.2315 C   0  0  0  0  0  0
  -28.8340  -18.4644   18.6380 C   0  0  0  0  0  0
  -28.7349  -17.3540   19.4084 C   0  0  0  0  0  0
  -29.5849  -17.4829   22.3938 C   0  0  0  0  0  0
  -27.8388  -17.3225   20.6144 C   0  0  0  0  0  0
  -29.6844  -16.1695   19.3269 C   0  0  0  0  0  0
  -30.6602  -16.6155   21.6535 C   0  0  2  0  0  0
  -30.7890  -21.9100   18.5313 C   0  0  0  0  0  0
  -34.5331  -17.4985   21.5546 C   0  0  0  0  0  0
  -28.7005  -27.7607   17.6688 C   0  0  0  0  0  0
  -31.8347  -18.8679   20.8789 C   0  0  0  0  0  0
  -27.4471  -20.4378   17.7774 C   0  0  0  0  0  0
  -33.1618  -17.1030   22.1261 C   0  0  0  0  0  0
  -29.0052  -26.6337   18.6869 C   0  0  2  0  0  0
  -31.9727  -17.3586   21.1675 C   0  0  1  0  0  0
  -30.1313  -15.6299   20.6426 N   0  0  0  0  0  0
  -28.4020  -21.1678   16.9424 N   0  0  0  0  0  0
  -29.5649  -17.5791   23.6232 O   0  0  0  0  0  0
  -26.8613  -25.6866   16.8641 F   0  0  0  0  0  0
  -30.8401  -24.5852   19.3519 F   0  0  0  0  0  0
  -27.1488  -21.6447   20.5705 Cl  0  0  0  0  0  0
  -29.9535  -18.4727   17.3149 Cl  0  0  0  0  0  0
  -31.4451  -12.3373   19.1264 H   0  0  0  0  0  0
  -30.2656  -11.2972   19.8762 H   0  0  0  0  0  0
  -29.7114  -11.6914   17.4606 H   0  0  0  0  0  0
  -29.6667  -13.4134   17.7217 H   0  0  0  0  0  0
  -27.8085  -11.2930   18.8423 H   0  0  0  0  0  0
  -27.3536  -12.5998   17.7884 H   0  0  0  0  0  0
  -27.6357  -14.2392   19.5327 H   0  0  0  0  0  0
  -28.6751  -12.0867   21.4357 H   0  0  0  0  0  0
  -28.4932  -13.7865   21.7940 H   0  0  0  0  0  0
  -25.2734   -9.5655   22.4779 H   0  0  0  0  0  0
  -23.9985   -7.4594   22.7472 H   0  0  0  0  0  0
  -21.0826   -8.8739   19.8945 H   0  0  0  0  0  0
  -22.3673  -10.9646   19.6180 H   0  0  0  0  0  0
  -21.1994   -7.6136   23.9707 H   0  0  0  0  0  0
  -21.1494   -6.0520   25.9075 H   0  0  0  0  0  0
  -22.0599   -2.7598   23.2859 H   0  0  0  0  0  0
  -22.4051  -11.9852   22.4839 H   0  0  0  0  0  0
  -21.1054  -13.1210   22.2643 H   0  0  0  0  0  0
  -24.6233  -15.8229   20.4872 H   0  0  0  0  0  0
  -26.2403  -15.6170   20.0407 H   0  0  0  0  0  0
  -26.7042  -32.5606   23.1218 H   0  0  0  0  0  0
  -25.0091  -33.9848   25.0564 H   0  0  0  0  0  0
  -22.6838  -31.3121   21.4156 H   0  0  0  0  0  0
  -23.3720  -35.9663   23.3311 H   0  0  0  0  0  0
  -24.3549  -36.8917   22.2031 H   0  0  0  0  0  0
  -23.7242  -37.6534   23.6650 H   0  0  0  0  0  0
  -26.0233  -31.6094   20.5939 H   0  0  0  0  0  0
  -26.8085  -30.9014   21.9848 H   0  0  0  0  0  0
  -28.0984  -29.1477   21.1436 H   0  0  0  0  0  0
  -26.0619  -25.9834   19.0458 H   0  0  0  0  0  0
  -23.9723  -27.2882   19.0573 H   0  0  0  0  0  0
  -23.7081  -30.5976   19.4045 H   0  0  0  0  0  0
  -22.7289  -29.2399   19.8803 H   0  0  0  0  0  0
  -25.1293  -36.2010   25.0821 H   0  0  0  0  0  0
  -20.9988  -28.3287   24.1396 H   0  0  0  0  0  0
  -20.5666  -26.2306   23.3599 H   0  0  0  0  0  0
  -21.6623  -26.7477   22.1214 H   0  0  0  0  0  0
  -19.6905  -25.6316   21.1237 H   0  0  0  0  0  0
  -19.6676  -27.3197   20.6700 H   0  0  0  0  0  0
  -17.4201  -26.6673   21.4013 H   0  0  0  0  0  0
  -18.0326  -26.0057   22.9000 H   0  0  0  0  0  0
  -19.7916  -30.7290   24.2287 H   0  0  0  0  0  0
  -17.4990  -31.6262   24.5188 H   0  0  0  0  0  0
  -15.5333  -30.3000   23.7663 H   0  0  0  0  0  0
  -15.8653  -28.0868   22.7017 H   0  0  0  0  0  0
  -24.5945  -30.7036   25.7840 H   0  0  0  0  0  0
  -24.8958  -32.2782   26.5025 H   0  0  0  0  0  0
  -25.8139  -30.8796   27.0212 H   0  0  0  0  0  0
  -26.2884  -29.6760   24.1263 H   0  0  0  0  0  0
  -27.4244  -29.7401   25.4549 H   0  0  0  0  0  0
  -27.8659  -30.4384   23.9158 H   0  0  0  0  0  0
  -27.2718  -33.3656   26.2073 H   0  0  0  0  0  0
  -28.3876  -32.6933   25.0291 H   0  0  0  0  0  0
  -28.0770  -31.8480   26.5355 H   0  0  0  0  0  0
  -28.2651  -38.0094   24.7545 H   0  0  0  0  0  0
  -28.1087  -36.2636   24.6302 H   0  0  0  0  0  0
  -27.2291  -37.1480   25.8851 H   0  0  0  0  0  0
  -20.9222  -29.8793   21.6963 H   0  0  0  0  0  0
  -26.0198  -38.2887   24.1394 H   0  0  0  0  0  0
  -26.8076  -23.1699   16.3203 H   0  0  0  0  0  0
  -29.3109  -20.1228   22.0003 H   0  0  0  0  0  0
  -26.8583  -17.7517   20.4011 H   0  0  0  0  0  0
  -27.6803  -16.3235   21.0200 H   0  0  0  0  0  0
  -30.5719  -16.4177   18.7467 H   0  0  0  0  0  0
  -29.1804  -15.4112   18.7344 H   0  0  0  0  0  0
  -30.9960  -15.9592   22.4600 H   0  0  0  0  0  0
  -30.5421  -21.4510   19.4855 H   0  0  0  0  0  0
  -31.7534  -22.4077   18.6377 H   0  0  0  0  0  0
  -30.9226  -21.1213   17.7927 H   0  0  0  0  0  0
  -35.3340  -17.1690   22.2165 H   0  0  0  0  0  0
  -34.6391  -18.5771   21.4366 H   0  0  0  0  0  0
  -34.7043  -17.0355   20.5819 H   0  0  0  0  0  0
  -28.9752  -28.7344   18.0768 H   0  0  0  0  0  0
  -27.6473  -27.8244   17.3967 H   0  0  0  0  0  0
  -29.2690  -27.6247   16.7497 H   0  0  0  0  0  0
  -31.0461  -19.0600   20.1571 H   0  0  0  0  0  0
  -32.7407  -19.2701   20.4276 H   0  0  0  0  0  0
  -31.6376  -19.4475   21.7801 H   0  0  0  0  0  0
  -26.6340  -21.0874   18.1052 H   0  0  0  0  0  0
  -26.9671  -19.6832   17.1533 H   0  0  0  0  0  0
  -32.9959  -17.6136   23.0753 H   0  0  0  0  0  0
  -33.2118  -16.0388   22.3593 H   0  0  0  0  0  0
  -30.0744  -26.7517   18.8693 H   0  0  0  0  0  0
  -32.2714  -16.9373   20.2083 H   0  0  0  0  0  0
  -29.2650  -20.6435   16.8229 H   0  0  0  0  0  0
  1 25  1  0  0  0
  1 30  2  0  0  0
  1 95  1  0  0  0
  2  3  1  0  0  0
  2 25  1  0  0  0
  2102  1  0  0  0
  2103  1  0  0  0
  3  4  1  0  0  0
  3104  1  0  0  0
  3105  1  0  0  0
  4  5  1  0  0  0
  4106  1  0  0  0
  4107  1  0  0  0
  5  6  1  0  0  0
  5 26  1  0  0  0
  5108  1  0  0  0
  6 25  1  0  0  0
  6109  1  0  0  0
  6110  1  0  0  0
  7  8  2  0  0  0
  7 26  1  0  0  0
  7 29  1  0  0  0
  8  9  1  0  0  0
  8 22  1  0  0  0
  9 10  1  0  0  0
  9 27  2  0  0  0
 10 11  2  0  0  0
 10 15  1  0  0  0
 11 12  1  0  0  0
 11111  1  0  0  0
 12 13  2  0  0  0
 12112  1  0  0  0
 13 14  1  0  0  0
 13 31  1  0  0  0
 14 15  2  0  0  0
 14113  1  0  0  0
 15114  1  0  0  0
 16 17  2  0  0  0
 16 21  1  0  0  0
 16 31  1  0  0  0
 17 18  1  0  0  0
 17115  1  0  0  0
 18 19  2  0  0  0
 18116  1  0  0  0
 19 20  1  0  0  0
 19 24  1  0  0  0
 20 21  2  0  0  0
 20117  1  0  0  0
 21 23  1  0  0  0
 22 28  1  0  0  0
 22 32  2  0  0  0
 26 27  1  0  0  0
 28118  1  0  0  0
 28119  1  0  0  0
 29120  1  0  0  0
 29121  1  0  0  0
 33 34  1  0  0  0
 33 66  1  0  0  0
 33 70  2  0  0  0
 34 36  1  0  0  0
 34 59  1  0  0  0
 34122  1  0  0  0
 35 44  2  0  0  0
 35 45  1  0  0  0
 35 68  1  0  0  0
 36 56  1  0  0  0
 36123  1  0  0  0
 37 39  1  0  0  0
 37 47  1  0  0  0
 37 66  1  0  0  0
 37124  1  0  0  0
 38 43  2  0  0  0
 38 46  1  0  0  0
 38 47  1  0  0  0
 39 64  1  0  0  0
 39 67  2  0  0  0
 40 52  1  0  0  0
 40 53  2  0  0  0
 40 58  1  0  0  0
 41125  1  0  0  0
 41126  1  0  0  0
 41127  1  0  0  0
 41 48  1  0  0  0
 42 43  1  0  0  0
 42 66  1  0  0  0
 42128  1  0  0  0
 42129  1  0  0  0
 43 44  1  0  0  0
 44130  1  0  0  0
 45 46  2  0  0  0
 45131  1  0  0  0
 46132  1  0  0  0
 47133  1  0  0  0
 47134  1  0  0  0
 48 56  1  0  0  0
 48 65  1  0  0  0
 48135  1  0  0  0
 49 50  1  0  0  0
 49 53  1  0  0  0
 49 64  1  0  0  0
 49136  1  0  0  0
 50 51  1  0  0  0
 50137  1  0  0  0
 50138  1  0  0  0
 51 52  1  0  0  0
 51139  1  0  0  0
 51140  1  0  0  0
 52141  1  0  0  0
 52142  1  0  0  0
 53 54  1  0  0  0
 54 55  2  0  0  0
 54143  1  0  0  0
 55 57  1  0  0  0
 55144  1  0  0  0
 56 69  2  0  0  0
 57 58  2  0  0  0
 57145  1  0  0  0
 58146  1  0  0  0
 59 60  1  0  0  0
 59 61  1  0  0  0
 59 62  1  0  0  0
 60147  1  0  0  0
 60148  1  0  0  0
 60149  1  0  0  0
 61150  1  0  0  0
 61151  1  0  0  0
 61152  1  0  0  0
 62153  1  0  0  0
 62154  1  0  0  0
 62155  1  0  0  0
 63 65  1  0  0  0
 63156  1  0  0  0
 63157  1  0  0  0
 63158  1  0  0  0
 64159  1  0  0  0
 65160  1  0  0  0
 68 93  1  0  0  0
 71 74  2  0  0  0
 71 75  1  0  0  0
 71161  1  0  0  0
 72 74  1  0  0  0
 72 76  2  0  0  0
 72 87  1  0  0  0
 73 75  2  0  0  0
 73 76  1  0  0  0
 73 93  1  0  0  0
 74 96  1  0  0  0
 75 98  1  0  0  0
 76 99  1  0  0  0
 77 78  2  0  0  0
 77 80  1  0  0  0
 77162  1  0  0  0
 78 83  1  0  0  0
 78 84  1  0  0  0
 79 80  2  0  0  0
 79 81  1  0  0  0
 79 91  1  0  0  0
 80100  1  0  0  0
 81 82  2  0  0  0
 81101  1  0  0  0
 82 84  1  0  0  0
 82 85  1  0  0  0
 83 86  1  0  0  0
 83 97  2  0  0  0
 84163  1  0  0  0
 84164  1  0  0  0
 85 95  1  0  0  0
 85165  1  0  0  0
 85166  1  0  0  0
 86 94  1  0  0  0
 86 95  1  0  0  0
 86167  1  0  0  0
 87168  1  0  0  0
 87169  1  0  0  0
 87170  1  0  0  0
 88 92  1  0  0  0
 88171  1  0  0  0
 88172  1  0  0  0
 88173  1  0  0  0
 89174  1  0  0  0
 89175  1  0  0  0
 89176  1  0  0  0
 89 93  1  0  0  0
 90177  1  0  0  0
 90178  1  0  0  0
 90179  1  0  0  0
 90 94  1  0  0  0
 91 96  1  0  0  0
 91180  1  0  0  0
 91181  1  0  0  0
 92 94  1  0  0  0
 92182  1  0  0  0
 92183  1  0  0  0
 93184  1  0  0  0
 94185  1  0  0  0
 96186  1  0  0  0
M  ISO  4   1 100  68 101  93 101  95 100
M  END
> <chiral flag>
0

> <version>
0

> <s_m_source_file>
/data/baiqing/PycharmProjects/Reinvent-master-3.2/result/LINK_invent/BTK/process_docking_weight1_custom_sum_contain_oxygen_bond_distance_aromatic_linkinvent_7_9_3/rearranged_h_0024.sdf

> <i_m_source_file_index>
67

> <r_mmod_Potential_Energy-OPLS-2005>
412.785247802734

> <r_mmod_Stretch_Energy-OPLS-2005>
53.1979026794434

> <r_mmod_Bend_Energy-OPLS-2005>
159.003601074219

> <r_mmod_Torsional_Energy-OPLS-2005>
449.481414794922

> <r_mmod_Improper_Torsional_Energy-OPLS-2005>
18.0222263336182

> <r_mmod_Van_der_Waal_Energy-OPLS-2005>
184.164978027344

> <r_mmod_Electrostatic_Energy-OPLS-2005>
-280.081176757812

> <r_mmod_Solvation_Energy-OPLS-2005>
-195.299423217773

> <b_mmod_Minimization_Converged-OPLS-2005>
0

> <r_mmod_RMS_Derivative-OPLS-2005>
3.14728116989136

$$$$
67
                    3D
 Structure written by MMmdl.
172180  0  0  1  0            999 V2000
  -30.7059  -14.4113   20.6150 C   0  0  0  0  0  0
  -30.4211  -12.2795   19.4168 C   0  0  0  0  0  0
  -29.4904  -12.5019   18.2079 C   0  0  0  0  0  0
  -28.0117  -12.3607   18.6209 C   0  0  0  0  0  0
  -27.6624  -13.1919   19.8848 C   0  0  2  0  0  0
  -28.6998  -12.9415   21.0023 C   0  0  0  0  0  0
  -25.2593  -13.8130   20.5692 C   0  0  0  0  0  0
  -24.1823  -13.0431   20.9172 C   0  0  0  0  0  0
  -24.6356  -11.6897   20.8744 C   0  0  0  0  0  0
  -23.9024  -10.4292   21.0424 C   0  0  0  0  0  0
  -24.3584   -9.4204   21.9196 C   0  0  0  0  0  0
  -23.6269   -8.2236   22.0754 C   0  0  0  0  0  0
  -22.4256   -8.0269   21.3546 C   0  0  0  0  0  0
  -21.9883   -9.0237   20.4654 C   0  0  0  0  0  0
  -22.7198  -10.2124   20.3078 C   0  0  0  0  0  0
  -21.6846   -6.0732   22.5277 C   0  0  0  0  0  0
  -21.4009   -6.5646   23.8210 C   0  0  0  0  0  0
  -21.3658   -5.6807   24.9177 C   0  0  0  0  0  0
  -21.6039   -4.3067   24.7228 C   0  0  0  0  0  0
  -21.8815   -3.8151   23.4356 C   0  0  0  0  0  0
  -21.9186   -4.6961   22.3405 C   0  0  0  0  0  0
  -22.7855  -13.5246   21.1849 C   0  0  0  0  0  0
  -22.1660   -4.2148   21.0982 F   0  0  0  0  0  0
  -21.5623   -3.4548   25.7742 F   0  0  0  0  0  0
  -30.0349  -13.2413   20.4566 N   0  0  0  0  0  0
  -26.3013  -12.9272   20.3419 N   0  0  0  0  0  0
  -25.9280  -11.6445   20.5791 N   0  0  0  0  0  0
  -22.0501  -12.8240   22.0413 N   0  0  0  0  0  0
  -25.4322  -15.1845   20.4093 N   0  0  0  0  0  0
  -31.8253  -14.6218   20.1348 O   0  0  0  0  0  0
  -21.6627   -6.8864   21.4238 O   0  0  0  0  0  0
  -22.3546  -14.5564   20.6720 O   0  0  0  0  0  0
  -24.6093  -31.8717   23.2141 C   0  0  0  0  0  0
  -25.9005  -32.4840   23.8420 C   0  0  1  0  0  0
  -27.2382  -27.4658   20.1001 C   0  0  0  0  0  0
  -25.5871  -33.8639   24.2346 N   0  0  0  0  0  0
  -23.3973  -30.4928   21.5528 C   0  0  2  0  0  0
  -24.8481  -28.9615   20.1193 C   0  0  0  0  0  0
  -22.7376  -29.4671   22.5016 C   0  0  0  0  0  0
  -18.0263  -28.1372   22.8498 C   0  0  0  0  0  0
  -24.1488  -36.7317   23.2632 C   0  0  0  0  0  0
  -25.9229  -30.8421   21.3684 C   0  0  0  0  0  0
  -26.0031  -29.4764   20.7232 C   0  0  0  0  0  0
  -27.2009  -28.7306   20.7214 C   0  0  0  0  0  0
  -26.0783  -26.9696   19.4697 C   0  0  0  0  0  0
  -24.8779  -27.7029   19.4939 C   0  0  0  0  0  0
  -23.6065  -29.8208   20.1688 C   0  0  0  0  0  0
  -25.4105  -36.3123   24.0339 C   0  0  1  0  0  0
  -20.5847  -28.3648   23.1327 C   0  0  2  0  0  0
  -20.6761  -26.9394   22.5415 C   0  0  0  0  0  0
  -19.5745  -26.6387   21.5204 C   0  0  0  0  0  0
  -18.1918  -26.7916   22.1618 C   0  0  0  0  0  0
  -19.1512  -28.8827   23.2909 C   0  0  0  0  0  0
  -18.9439  -30.1435   23.8920 C   0  0  0  0  0  0
  -17.6444  -30.6582   24.0555 C   0  0  0  0  0  0
  -25.9023  -34.9482   23.5141 C   0  0  0  0  0  0
  -16.5336  -29.9084   23.6319 C   0  0  0  0  0  0
  -16.7249  -28.6494   23.0347 C   0  0  0  0  0  0
  -26.4454  -31.6603   25.0728 C   0  0  0  0  0  0
  -25.3731  -31.3708   26.1481 C   0  0  0  0  0  0
  -27.0267  -30.3042   24.6087 C   0  0  0  0  0  0
  -27.6046  -32.4303   25.7477 C   0  0  0  0  0  0
  -27.5583  -37.1813   24.8463 C   0  0  0  0  0  0
  -21.4110  -29.3020   22.3735 N   0  0  0  0  0  0
  -26.4298  -37.3797   23.9401 N   0  0  0  0  0  0
  -24.6605  -31.0832   22.1036 N   0  0  0  0  0  0
  -23.4167  -28.8230   23.3052 O   0  0  0  0  0  0
  -28.4098  -26.7530   20.0524 O   0  0  0  0  0  0
  -26.5579  -34.8927   22.4702 O   0  0  0  0  0  0
  -23.5289  -32.1455   23.7548 O   0  0  0  0  0  0
  -30.6631  -18.1713   21.4843 C   0  0  0  0  0  0
  -30.3272  -17.7204   20.2555 C   0  0  0  0  0  0
  -30.2143  -17.4001   22.7157 C   0  0  0  0  0  0
  -29.4974  -16.4450   20.1741 C   0  0  0  0  0  0
  -30.1648  -15.8645   22.5114 C   0  0  0  0  0  0
  -31.4227  -19.4508   21.7879 C   0  0  0  0  0  0
  -27.1947  -21.5026   19.5351 C   0  0  0  0  0  0
  -28.3799  -22.0269   20.3692 C   0  0  0  0  0  0
  -27.5934  -20.7033   18.2792 C   0  0  0  0  0  0
  -28.0055  -23.1602   21.3353 C   0  0  0  0  0  0
  -28.3937  -19.4181   18.5541 C   0  0  0  0  0  0
  -27.6596  -24.4679   20.5958 C   0  0  0  0  0  0
  -29.9209  -19.6317   18.5855 C   0  0  0  0  0  0
  -28.5251  -25.6793   20.9872 C   0  0  0  0  0  0
  -30.7385  -18.3719   18.9267 C   0  0  0  0  0  0
  -29.9646  -15.4217   21.1181 N   0  0  0  0  0  0
  -32.0266  -18.7110   18.9508 F   0  0  0  0  0  0
  -30.5941  -17.5336   17.8994 F   0  0  0  0  0  0
  -31.4657  -12.3850   19.1186 H   0  0  0  0  0  0
  -30.3204  -11.2613   19.7944 H   0  0  0  0  0  0
  -29.7255  -11.7879   17.4179 H   0  0  0  0  0  0
  -29.6596  -13.4946   17.7888 H   0  0  0  0  0  0
  -27.8233  -11.3036   18.8129 H   0  0  0  0  0  0
  -27.3576  -12.6382   17.7943 H   0  0  0  0  0  0
  -27.7156  -14.2427   19.6026 H   0  0  0  0  0  0
  -28.6634  -11.9013   21.3293 H   0  0  0  0  0  0
  -28.4645  -13.5293   21.8901 H   0  0  0  0  0  0
  -25.2732   -9.5684   22.4766 H   0  0  0  0  0  0
  -23.9981   -7.4633   22.7481 H   0  0  0  0  0  0
  -21.0814   -8.8758   19.8969 H   0  0  0  0  0  0
  -22.3655  -10.9663   19.6195 H   0  0  0  0  0  0
  -21.2013   -7.6156   23.9710 H   0  0  0  0  0  0
  -21.1486   -6.0542   25.9078 H   0  0  0  0  0  0
  -22.0598   -2.7611   23.2856 H   0  0  0  0  0  0
  -22.4094  -11.9871   22.4764 H   0  0  0  0  0  0
  -21.1138  -13.1290   22.2675 H   0  0  0  0  0  0
  -24.6703  -15.8427   20.5314 H   0  0  0  0  0  0
  -26.2938  -15.6249   20.1128 H   0  0  0  0  0  0
  -26.7076  -32.5564   23.1186 H   0  0  0  0  0  0
  -25.0045  -33.9816   25.0505 H   0  0  0  0  0  0
  -22.6837  -31.3067   21.4111 H   0  0  0  0  0  0
  -23.3748  -35.9654   23.3319 H   0  0  0  0  0  0
  -24.3589  -36.8902   22.2044 H   0  0  0  0  0  0
  -23.7247  -37.6536   23.6627 H   0  0  0  0  0  0
  -26.0305  -31.6068   20.5989 H   0  0  0  0  0  0
  -26.8129  -30.8989   21.9836 H   0  0  0  0  0  0
  -28.0949  -29.1221   21.1883 H   0  0  0  0  0  0
  -26.1037  -26.0227   18.9495 H   0  0  0  0  0  0
  -23.9945  -27.3033   19.0147 H   0  0  0  0  0  0
  -23.7045  -30.5914   19.4028 H   0  0  0  0  0  0
  -22.7349  -29.2307   19.8807 H   0  0  0  0  0  0
  -25.1286  -36.2000   25.0833 H   0  0  0  0  0  0
  -20.9931  -28.3211   24.1448 H   0  0  0  0  0  0
  -20.5664  -26.2252   23.3594 H   0  0  0  0  0  0
  -21.6633  -26.7449   22.1205 H   0  0  0  0  0  0
  -19.6913  -25.6304   21.1219 H   0  0  0  0  0  0
  -19.6688  -27.3214   20.6749 H   0  0  0  0  0  0
  -17.4187  -26.6650   21.4023 H   0  0  0  0  0  0
  -18.0329  -26.0055   22.9016 H   0  0  0  0  0  0
  -19.7919  -30.7232   24.2312 H   0  0  0  0  0  0
  -17.5004  -31.6269   24.5146 H   0  0  0  0  0  0
  -15.5339  -30.2992   23.7640 H   0  0  0  0  0  0
  -15.8643  -28.0818   22.7062 H   0  0  0  0  0  0
  -24.5907  -30.7047   25.7827 H   0  0  0  0  0  0
  -24.8909  -32.2860   26.4926 H   0  0  0  0  0  0
  -25.8087  -30.8887   27.0239 H   0  0  0  0  0  0
  -26.2809  -29.6833   24.1104 H   0  0  0  0  0  0
  -27.4005  -29.7246   25.4538 H   0  0  0  0  0  0
  -27.8664  -30.4359   23.9256 H   0  0  0  0  0  0
  -27.2691  -33.3594   26.2093 H   0  0  0  0  0  0
  -28.3835  -32.6871   25.0288 H   0  0  0  0  0  0
  -28.0731  -31.8393   26.5355 H   0  0  0  0  0  0
  -28.2611  -38.0101   24.7503 H   0  0  0  0  0  0
  -28.1075  -36.2634   24.6307 H   0  0  0  0  0  0
  -27.2296  -37.1481   25.8865 H   0  0  0  0  0  0
  -20.9271  -29.8717   21.6936 H   0  0  0  0  0  0
  -26.0199  -38.2883   24.1396 H   0  0  0  0  0  0
  -29.2233  -17.7711   22.9829 H   0  0  0  0  0  0
  -30.8638  -17.6350   23.5606 H   0  0  0  0  0  0
  -29.4568  -16.0401   19.1624 H   0  0  0  0  0  0
  -28.4663  -16.6959   20.4234 H   0  0  0  0  0  0
  -31.0994  -15.4454   22.8929 H   0  0  0  0  0  0
  -29.3766  -15.4400   23.1362 H   0  0  0  0  0  0
  -32.3526  -19.2211   22.3087 H   0  0  0  0  0  0
  -30.8203  -20.0872   22.4367 H   0  0  0  0  0  0
  -31.6748  -20.0303   20.9046 H   0  0  0  0  0  0
  -26.5747  -22.3383   19.2086 H   0  0  0  0  0  0
  -26.5482  -20.8939   20.1688 H   0  0  0  0  0  0
  -29.1738  -22.3851   19.7113 H   0  0  0  0  0  0
  -28.8004  -21.1989   20.9427 H   0  0  0  0  0  0
  -28.1297  -21.3406   17.5749 H   0  0  0  0  0  0
  -26.6713  -20.4224   17.7681 H   0  0  0  0  0  0
  -28.8339  -23.3282   22.0257 H   0  0  0  0  0  0
  -27.1638  -22.8510   21.9574 H   0  0  0  0  0  0
  -28.1723  -18.6904   17.7710 H   0  0  0  0  0  0
  -28.0422  -18.9728   19.4845 H   0  0  0  0  0  0
  -27.7591  -24.3221   19.5200 H   0  0  0  0  0  0
  -26.6092  -24.6926   20.7755 H   0  0  0  0  0  0
  -30.1743  -20.4128   19.2939 H   0  0  0  0  0  0
  -30.2474  -20.0087   17.6157 H   0  0  0  0  0  0
  -28.2944  -26.0157   21.9986 H   0  0  0  0  0  0
  -29.5746  -25.3834   20.9898 H   0  0  0  0  0  0
  1 25  1  0  0  0
  1 30  2  0  0  0
  1 86  1  0  0  0
  2  3  1  0  0  0
  2 25  1  0  0  0
  2 89  1  0  0  0
  2 90  1  0  0  0
  3  4  1  0  0  0
  3 91  1  0  0  0
  3 92  1  0  0  0
  4  5  1  0  0  0
  4 93  1  0  0  0
  4 94  1  0  0  0
  5  6  1  0  0  0
  5 26  1  0  0  0
  5 95  1  0  0  0
  6 25  1  0  0  0
  6 96  1  0  0  0
  6 97  1  0  0  0
  7  8  2  0  0  0
  7 26  1  0  0  0
  7 29  1  0  0  0
  8  9  1  0  0  0
  8 22  1  0  0  0
  9 10  1  0  0  0
  9 27  2  0  0  0
 10 11  2  0  0  0
 10 15  1  0  0  0
 11 12  1  0  0  0
 11 98  1  0  0  0
 12 13  2  0  0  0
 12 99  1  0  0  0
 13 14  1  0  0  0
 13 31  1  0  0  0
 14 15  2  0  0  0
 14100  1  0  0  0
 15101  1  0  0  0
 16 17  2  0  0  0
 16 21  1  0  0  0
 16 31  1  0  0  0
 17 18  1  0  0  0
 17102  1  0  0  0
 18 19  2  0  0  0
 18103  1  0  0  0
 19 20  1  0  0  0
 19 24  1  0  0  0
 20 21  2  0  0  0
 20104  1  0  0  0
 21 23  1  0  0  0
 22 28  1  0  0  0
 22 32  2  0  0  0
 26 27  1  0  0  0
 28105  1  0  0  0
 28106  1  0  0  0
 29107  1  0  0  0
 29108  1  0  0  0
 33 34  1  0  0  0
 33 66  1  0  0  0
 33 70  2  0  0  0
 34 36  1  0  0  0
 34 59  1  0  0  0
 34109  1  0  0  0
 35 44  2  0  0  0
 35 45  1  0  0  0
 35 68  1  0  0  0
 36 56  1  0  0  0
 36110  1  0  0  0
 37 39  1  0  0  0
 37 47  1  0  0  0
 37 66  1  0  0  0
 37111  1  0  0  0
 38 43  2  0  0  0
 38 46  1  0  0  0
 38 47  1  0  0  0
 39 64  1  0  0  0
 39 67  2  0  0  0
 40 52  1  0  0  0
 40 53  2  0  0  0
 40 58  1  0  0  0
 41112  1  0  0  0
 41113  1  0  0  0
 41114  1  0  0  0
 41 48  1  0  0  0
 42 43  1  0  0  0
 42 66  1  0  0  0
 42115  1  0  0  0
 42116  1  0  0  0
 43 44  1  0  0  0
 44117  1  0  0  0
 45 46  2  0  0  0
 45118  1  0  0  0
 46119  1  0  0  0
 47120  1  0  0  0
 47121  1  0  0  0
 48 56  1  0  0  0
 48 65  1  0  0  0
 48122  1  0  0  0
 49 50  1  0  0  0
 49 53  1  0  0  0
 49 64  1  0  0  0
 49123  1  0  0  0
 50 51  1  0  0  0
 50124  1  0  0  0
 50125  1  0  0  0
 51 52  1  0  0  0
 51126  1  0  0  0
 51127  1  0  0  0
 52128  1  0  0  0
 52129  1  0  0  0
 53 54  1  0  0  0
 54 55  2  0  0  0
 54130  1  0  0  0
 55 57  1  0  0  0
 55131  1  0  0  0
 56 69  2  0  0  0
 57 58  2  0  0  0
 57132  1  0  0  0
 58133  1  0  0  0
 59 60  1  0  0  0
 59 61  1  0  0  0
 59 62  1  0  0  0
 60134  1  0  0  0
 60135  1  0  0  0
 60136  1  0  0  0
 61137  1  0  0  0
 61138  1  0  0  0
 61139  1  0  0  0
 62140  1  0  0  0
 62141  1  0  0  0
 62142  1  0  0  0
 63 65  1  0  0  0
 63143  1  0  0  0
 63144  1  0  0  0
 63145  1  0  0  0
 64146  1  0  0  0
 65147  1  0  0  0
 68 84  1  0  0  0
 71 72  2  0  0  0
 71 73  1  0  0  0
 71 76  1  0  0  0
 72 74  1  0  0  0
 72 85  1  0  0  0
 73 75  1  0  0  0
 73148  1  0  0  0
 73149  1  0  0  0
 74 86  1  0  0  0
 74150  1  0  0  0
 74151  1  0  0  0
 75 86  1  0  0  0
 75152  1  0  0  0
 75153  1  0  0  0
 76154  1  0  0  0
 76155  1  0  0  0
 76156  1  0  0  0
 77 78  1  0  0  0
 77 79  1  0  0  0
 77157  1  0  0  0
 77158  1  0  0  0
 78 80  1  0  0  0
 78159  1  0  0  0
 78160  1  0  0  0
 79 81  1  0  0  0
 79161  1  0  0  0
 79162  1  0  0  0
 80 82  1  0  0  0
 80163  1  0  0  0
 80164  1  0  0  0
 81 83  1  0  0  0
 81165  1  0  0  0
 81166  1  0  0  0
 82 84  1  0  0  0
 82167  1  0  0  0
 82168  1  0  0  0
 83 85  1  0  0  0
 83169  1  0  0  0
 83170  1  0  0  0
 84171  1  0  0  0
 84172  1  0  0  0
 85 87  1  0  0  0
 85 88  1  0  0  0
M  ISO  4   1 100  68 101  84 101  86 100
M  END
> <chiral flag>
0

> <version>
0

> <s_m_source_file>
/data/baiqing/PycharmProjects/Reinvent-master-3.2/result/LINK_invent/BTK/process_docking_weight1_custom_sum_contain_oxygen_bond_distance_aromatic_linkinvent_7_9_3/rearranged_h_0024.sdf

> <i_m_source_file_index>
68

> <r_mmod_Potential_Energy-OPLS-2005>
215.577606201172

> <r_mmod_Stretch_Energy-OPLS-2005>
33.6503715515137

> <r_mmod_Bend_Energy-OPLS-2005>
101.401390075684

> <r_mmod_Torsional_Energy-OPLS-2005>
363.072418212891

> <r_mmod_Improper_Torsional_Energy-OPLS-2005>
7.56159448623657

> <r_mmod_Van_der_Waal_Energy-OPLS-2005>
144.472061157227

> <r_mmod_Electrostatic_Energy-OPLS-2005>
-264.399627685547

> <r_mmod_Solvation_Energy-OPLS-2005>
-178.822601318359

> <b_mmod_Minimization_Converged-OPLS-2005>
0

> <r_mmod_RMS_Derivative-OPLS-2005>
2.05177545547485

$$$$
68
                    3D
 Structure written by MMmdl.
174182  0  0  1  0            999 V2000
  -31.1119  -14.1045   20.2074 C   0  0  0  0  0  0
  -30.2891  -11.9857   19.3913 C   0  0  0  0  0  0
  -29.4367  -12.3466   18.1640 C   0  0  0  0  0  0
  -27.9669  -12.3641   18.5929 C   0  0  0  0  0  0
  -27.6966  -13.2318   19.8546 C   0  0  2  0  0  0
  -28.8322  -13.1122   20.9318 C   0  0  0  0  0  0
  -25.2783  -13.8250   20.5770 C   0  0  0  0  0  0
  -24.1995  -13.0484   20.9190 C   0  0  0  0  0  0
  -24.6578  -11.6966   20.8784 C   0  0  0  0  0  0
  -23.9180  -10.4326   21.0413 C   0  0  0  0  0  0
  -24.3663   -9.4223   21.9206 C   0  0  0  0  0  0
  -23.6303   -8.2270   22.0773 C   0  0  0  0  0  0
  -22.4305   -8.0313   21.3538 C   0  0  0  0  0  0
  -21.9974   -9.0313   20.4659 C   0  0  0  0  0  0
  -22.7329  -10.2192   20.3074 C   0  0  0  0  0  0
  -21.6852   -6.0756   22.5253 C   0  0  0  0  0  0
  -21.4022   -6.5651   23.8197 C   0  0  0  0  0  0
  -21.3665   -5.6799   24.9152 C   0  0  0  0  0  0
  -21.6033   -4.3059   24.7191 C   0  0  0  0  0  0
  -21.8811   -3.8160   23.4309 C   0  0  0  0  0  0
  -21.9199   -4.6983   22.3373 C   0  0  0  0  0  0
  -22.7967  -13.5249   21.1764 C   0  0  0  0  0  0
  -22.1651   -4.2162   21.0945 F   0  0  0  0  0  0
  -21.5631   -3.4544   25.7706 F   0  0  0  0  0  0
  -30.1814  -13.1084   20.2853 N   0  0  0  0  0  0
  -26.3378  -12.9523   20.3634 N   0  0  0  0  0  0
  -25.9590  -11.6646   20.6019 N   0  0  0  0  0  0
  -22.0572  -12.8261   22.0327 N   0  0  0  0  0  0
  -25.4398  -15.1967   20.4076 N   0  0  0  0  0  0
  -30.9623  -15.1448   20.7840 O   0  0  0  0  0  0
  -21.6654   -6.8912   21.4224 O   0  0  0  0  0  0
  -22.3615  -14.5505   20.6569 O   0  0  0  0  0  0
  -24.6113  -31.8683   23.2119 C   0  0  0  0  0  0
  -25.9021  -32.4825   23.8394 C   0  0  1  0  0  0
  -27.2483  -27.4661   20.0775 C   0  0  0  0  0  0
  -25.5882  -33.8625   24.2332 N   0  0  0  0  0  0
  -23.3975  -30.4931   21.5512 C   0  0  2  0  0  0
  -24.8432  -28.9584   20.1161 C   0  0  0  0  0  0
  -22.7388  -29.4677   22.5009 C   0  0  0  0  0  0
  -18.0262  -28.1387   22.8504 C   0  0  0  0  0  0
  -24.1477  -36.7319   23.2628 C   0  0  0  0  0  0
  -25.9210  -30.8421   21.3594 C   0  0  0  0  0  0
  -25.9982  -29.4776   20.7107 C   0  0  0  0  0  0
  -27.1964  -28.7346   20.6939 C   0  0  0  0  0  0
  -26.0712  -26.9531   19.4809 C   0  0  0  0  0  0
  -24.8724  -27.6940   19.5039 C   0  0  0  0  0  0
  -23.6023  -29.8202   20.1667 C   0  0  0  0  0  0
  -25.4097  -36.3122   24.0339 C   0  0  1  0  0  0
  -20.5843  -28.3673   23.1326 C   0  0  2  0  0  0
  -20.6756  -26.9412   22.5422 C   0  0  0  0  0  0
  -19.5739  -26.6399   21.5220 C   0  0  0  0  0  0
  -18.1912  -26.7932   22.1629 C   0  0  0  0  0  0
  -19.1503  -28.8850   23.2923 C   0  0  0  0  0  0
  -18.9435  -30.1449   23.8946 C   0  0  0  0  0  0
  -17.6438  -30.6596   24.0572 C   0  0  0  0  0  0
  -25.9032  -34.9486   23.5144 C   0  0  0  0  0  0
  -16.5342  -29.9103   23.6323 C   0  0  0  0  0  0
  -16.7254  -28.6510   23.0372 C   0  0  0  0  0  0
  -26.4449  -31.6605   25.0724 C   0  0  0  0  0  0
  -25.3727  -31.3725   26.1493 C   0  0  0  0  0  0
  -27.0240  -30.3041   24.6096 C   0  0  0  0  0  0
  -27.6079  -32.4287   25.7450 C   0  0  0  0  0  0
  -27.5603  -37.1778   24.8437 C   0  0  0  0  0  0
  -21.4114  -29.3034   22.3732 N   0  0  0  0  0  0
  -26.4269  -37.3824   23.9448 N   0  0  0  0  0  0
  -24.6612  -31.0821   22.0994 N   0  0  0  0  0  0
  -23.4165  -28.8229   23.3057 O   0  0  0  0  0  0
  -28.4608  -26.8078   20.1029 O   0  0  0  0  0  0
  -26.5614  -34.8937   22.4713 O   0  0  0  0  0  0
  -23.5324  -32.1411   23.7558 O   0  0  0  0  0  0
  -31.1681  -21.1424   17.9510 C   0  0  0  0  0  0
  -32.5459  -20.8767   17.7101 C   0  0  0  0  0  0
  -30.4764  -20.3915   18.9429 C   0  0  0  0  0  0
  -32.4824  -19.0089   19.3148 C   0  0  0  0  0  0
  -33.1910  -19.8010   18.3783 C   0  0  0  0  0  0
  -31.1363  -19.3329   19.6134 C   0  0  0  0  0  0
  -33.3284  -21.7236   16.7062 C   0  0  0  0  0  0
  -29.0110  -20.6631   19.2981 C   0  0  0  0  0  0
  -33.1359  -17.7796   19.9572 C   0  0  0  0  0  0
  -30.4200  -22.1811   17.1034 C   0  0  0  0  0  0
  -29.0603  -25.6732   18.0307 C   0  0  0  0  0  0
  -33.3556  -15.3259   19.7566 C   0  0  0  0  0  0
  -29.2060  -24.3300   17.2867 C   0  0  0  0  0  0
  -28.6186  -25.5275   19.4984 C   0  0  0  0  0  0
  -32.4940  -14.0357   19.4310 C   0  0  2  0  0  0
  -32.5008  -13.8601   17.8663 C   0  0  0  0  0  0
  -32.7129  -16.5636   19.2788 N   0  0  0  0  0  0
  -30.3305  -23.4942   17.7738 N   0  3  0  0  0  0
  -31.6542  -14.7010   17.2702 F   0  0  0  0  0  0
  -33.7252  -14.1041   17.3888 F   0  0  0  0  0  0
  -32.2176  -12.6340   17.4327 F   0  0  0  0  0  0
  -34.8459  -19.4198   18.0194 Cl  0  0  0  0  0  0
  -30.2595  -18.3993   20.7842 Cl  0  0  0  0  0  0
  -31.3082  -11.6744   19.1897 H   0  0  0  0  0  0
  -29.8712  -11.0995   19.8710 H   0  0  0  0  0  0
  -29.5811  -11.6080   17.3754 H   0  0  0  0  0  0
  -29.6999  -13.3151   17.7396 H   0  0  0  0  0  0
  -27.6828  -11.3278   18.7824 H   0  0  0  0  0  0
  -27.3363  -12.6969   17.7669 H   0  0  0  0  0  0
  -27.7155  -14.2665   19.5124 H   0  0  0  0  0  0
  -28.7075  -12.1939   21.5082 H   0  0  0  0  0  0
  -28.7509  -13.9291   21.6504 H   0  0  0  0  0  0
  -25.2775   -9.5665   22.4839 H   0  0  0  0  0  0
  -23.9962   -7.4659   22.7517 H   0  0  0  0  0  0
  -21.0893   -8.8865   19.8976 H   0  0  0  0  0  0
  -22.3767  -10.9751   19.6214 H   0  0  0  0  0  0
  -21.2037   -7.6161   23.9697 H   0  0  0  0  0  0
  -21.1487   -6.0529   25.9052 H   0  0  0  0  0  0
  -22.0601   -2.7621   23.2797 H   0  0  0  0  0  0
  -22.4143  -11.9924   22.4739 H   0  0  0  0  0  0
  -21.1207  -13.1344   22.2520 H   0  0  0  0  0  0
  -24.6767  -15.8569   20.5170 H   0  0  0  0  0  0
  -26.3123  -15.6406   20.1453 H   0  0  0  0  0  0
  -26.7107  -32.5546   23.1175 H   0  0  0  0  0  0
  -25.0004  -33.9761   25.0464 H   0  0  0  0  0  0
  -22.6840  -31.3078   21.4132 H   0  0  0  0  0  0
  -23.3777  -35.9605   23.3187 H   0  0  0  0  0  0
  -24.3608  -36.9040   22.2064 H   0  0  0  0  0  0
  -23.7146  -37.6463   23.6697 H   0  0  0  0  0  0
  -26.0268  -31.6082   20.5905 H   0  0  0  0  0  0
  -26.8105  -30.8991   21.9746 H   0  0  0  0  0  0
  -28.0906  -29.1368   21.1504 H   0  0  0  0  0  0
  -26.0517  -25.9952   18.9854 H   0  0  0  0  0  0
  -23.9816  -27.2881   19.0429 H   0  0  0  0  0  0
  -23.7036  -30.5906   19.4012 H   0  0  0  0  0  0
  -22.7280  -29.2331   19.8788 H   0  0  0  0  0  0
  -25.1268  -36.1974   25.0830 H   0  0  0  0  0  0
  -20.9954  -28.3248   24.1446 H   0  0  0  0  0  0
  -20.5665  -26.2294   23.3618 H   0  0  0  0  0  0
  -21.6627  -26.7456   22.1219 H   0  0  0  0  0  0
  -19.6895  -25.6320   21.1234 H   0  0  0  0  0  0
  -19.6673  -27.3228   20.6765 H   0  0  0  0  0  0
  -17.4187  -26.6698   21.4024 H   0  0  0  0  0  0
  -18.0309  -26.0061   22.9011 H   0  0  0  0  0  0
  -19.7910  -30.7251   24.2352 H   0  0  0  0  0  0
  -17.4995  -31.6281   24.5169 H   0  0  0  0  0  0
  -15.5345  -30.3031   23.7613 H   0  0  0  0  0  0
  -15.8651  -28.0835   22.7099 H   0  0  0  0  0  0
  -24.5881  -30.7089   25.7827 H   0  0  0  0  0  0
  -24.8934  -32.2882   26.4968 H   0  0  0  0  0  0
  -25.8076  -30.8860   27.0234 H   0  0  0  0  0  0
  -26.2744  -29.6828   24.1176 H   0  0  0  0  0  0
  -27.4005  -29.7274   25.4550 H   0  0  0  0  0  0
  -27.8595  -30.4334   23.9219 H   0  0  0  0  0  0
  -27.2790  -33.3641   26.1989 H   0  0  0  0  0  0
  -28.3903  -32.6733   25.0254 H   0  0  0  0  0  0
  -28.0714  -31.8399   26.5379 H   0  0  0  0  0  0
  -28.2533  -38.0169   24.7679 H   0  0  0  0  0  0
  -28.1193  -36.2721   24.6017 H   0  0  0  0  0  0
  -27.2361  -37.1148   25.8841 H   0  0  0  0  0  0
  -20.9282  -29.8742   21.6938 H   0  0  0  0  0  0
  -26.0158  -38.2876   24.1579 H   0  0  0  0  0  0
  -33.1122  -22.7844   16.8301 H   0  0  0  0  0  0
  -33.0767  -21.4342   15.6857 H   0  0  0  0  0  0
  -34.4084  -21.6378   16.8135 H   0  0  0  0  0  0
  -28.5986  -21.5774   18.8795 H   0  0  0  0  0  0
  -28.8875  -20.7504   20.3786 H   0  0  0  0  0  0
  -28.3843  -19.8373   18.9596 H   0  0  0  0  0  0
  -32.8497  -17.7197   21.0086 H   0  0  0  0  0  0
  -34.2217  -17.8526   19.9496 H   0  0  0  0  0  0
  -29.4257  -21.7969   16.8719 H   0  0  0  0  0  0
  -30.8768  -22.3071   16.1218 H   0  0  0  0  0  0
  -28.3191  -26.2773   17.5058 H   0  0  0  0  0  0
  -29.9920  -26.2357   17.9740 H   0  0  0  0  0  0
  -34.3651  -15.2561   19.3486 H   0  0  0  0  0  0
  -33.4843  -15.3887   20.8383 H   0  0  0  0  0  0
  -29.3549  -24.5276   16.2239 H   0  0  0  0  0  0
  -28.2704  -23.7753   17.3641 H   0  0  0  0  0  0
  -29.4087  -25.0211   20.0539 H   0  0  0  0  0  0
  -27.7427  -24.8891   19.6070 H   0  0  0  0  0  0
  -33.0339  -13.1861   19.8515 H   0  0  0  0  0  0
  -31.7537  -16.4429   19.6105 H   0  0  0  0  0  0
  -31.2028  -23.9803   17.6393 H   0  0  0  0  0  0
  -30.2266  -23.3221   18.7591 H   0  0  0  0  0  0
  1 25  1  0  0  0
  1 30  2  0  0  0
  1 85  1  0  0  0
  2  3  1  0  0  0
  2 25  1  0  0  0
  2 94  1  0  0  0
  2 95  1  0  0  0
  3  4  1  0  0  0
  3 96  1  0  0  0
  3 97  1  0  0  0
  4  5  1  0  0  0
  4 98  1  0  0  0
  4 99  1  0  0  0
  5  6  1  0  0  0
  5 26  1  0  0  0
  5100  1  0  0  0
  6 25  1  0  0  0
  6101  1  0  0  0
  6102  1  0  0  0
  7  8  2  0  0  0
  7 26  1  0  0  0
  7 29  1  0  0  0
  8  9  1  0  0  0
  8 22  1  0  0  0
  9 10  1  0  0  0
  9 27  2  0  0  0
 10 11  2  0  0  0
 10 15  1  0  0  0
 11 12  1  0  0  0
 11103  1  0  0  0
 12 13  2  0  0  0
 12104  1  0  0  0
 13 14  1  0  0  0
 13 31  1  0  0  0
 14 15  2  0  0  0
 14105  1  0  0  0
 15106  1  0  0  0
 16 17  2  0  0  0
 16 21  1  0  0  0
 16 31  1  0  0  0
 17 18  1  0  0  0
 17107  1  0  0  0
 18 19  2  0  0  0
 18108  1  0  0  0
 19 20  1  0  0  0
 19 24  1  0  0  0
 20 21  2  0  0  0
 20109  1  0  0  0
 21 23  1  0  0  0
 22 28  1  0  0  0
 22 32  2  0  0  0
 26 27  1  0  0  0
 28110  1  0  0  0
 28111  1  0  0  0
 29112  1  0  0  0
 29113  1  0  0  0
 33 34  1  0  0  0
 33 66  1  0  0  0
 33 70  2  0  0  0
 34 36  1  0  0  0
 34 59  1  0  0  0
 34114  1  0  0  0
 35 44  2  0  0  0
 35 45  1  0  0  0
 35 68  1  0  0  0
 36 56  1  0  0  0
 36115  1  0  0  0
 37 39  1  0  0  0
 37 47  1  0  0  0
 37 66  1  0  0  0
 37116  1  0  0  0
 38 43  2  0  0  0
 38 46  1  0  0  0
 38 47  1  0  0  0
 39 64  1  0  0  0
 39 67  2  0  0  0
 40 52  1  0  0  0
 40 53  2  0  0  0
 40 58  1  0  0  0
 41117  1  0  0  0
 41118  1  0  0  0
 41119  1  0  0  0
 41 48  1  0  0  0
 42 43  1  0  0  0
 42 66  1  0  0  0
 42120  1  0  0  0
 42121  1  0  0  0
 43 44  1  0  0  0
 44122  1  0  0  0
 45 46  2  0  0  0
 45123  1  0  0  0
 46124  1  0  0  0
 47125  1  0  0  0
 47126  1  0  0  0
 48 56  1  0  0  0
 48 65  1  0  0  0
 48127  1  0  0  0
 49 50  1  0  0  0
 49 53  1  0  0  0
 49 64  1  0  0  0
 49128  1  0  0  0
 50 51  1  0  0  0
 50129  1  0  0  0
 50130  1  0  0  0
 51 52  1  0  0  0
 51131  1  0  0  0
 51132  1  0  0  0
 52133  1  0  0  0
 52134  1  0  0  0
 53 54  1  0  0  0
 54 55  2  0  0  0
 54135  1  0  0  0
 55 57  1  0  0  0
 55136  1  0  0  0
 56 69  2  0  0  0
 57 58  2  0  0  0
 57137  1  0  0  0
 58138  1  0  0  0
 59 60  1  0  0  0
 59 61  1  0  0  0
 59 62  1  0  0  0
 60139  1  0  0  0
 60140  1  0  0  0
 60141  1  0  0  0
 61142  1  0  0  0
 61143  1  0  0  0
 61144  1  0  0  0
 62145  1  0  0  0
 62146  1  0  0  0
 62147  1  0  0  0
 63 65  1  0  0  0
 63148  1  0  0  0
 63149  1  0  0  0
 63150  1  0  0  0
 64151  1  0  0  0
 65152  1  0  0  0
 68 84  1  0  0  0
 71 72  2  0  0  0
 71 73  1  0  0  0
 71 80  1  0  0  0
 72 75  1  0  0  0
 72 77  1  0  0  0
 73 76  2  0  0  0
 73 78  1  0  0  0
 74 75  2  0  0  0
 74 76  1  0  0  0
 74 79  1  0  0  0
 75 92  1  0  0  0
 76 93  1  0  0  0
 77153  1  0  0  0
 77154  1  0  0  0
 77155  1  0  0  0
 78156  1  0  0  0
 78157  1  0  0  0
 78158  1  0  0  0
 79 87  1  0  0  0
 79159  1  0  0  0
 79160  1  0  0  0
 80 88  1  0  0  0
 80161  1  0  0  0
 80162  1  0  0  0
 81 83  1  0  0  0
 81 84  1  0  0  0
 81163  1  0  0  0
 81164  1  0  0  0
 82 87  1  0  0  0
 82165  1  0  0  0
 82166  1  0  0  0
 82 85  1  0  0  0
 83 88  1  0  0  0
 83167  1  0  0  0
 83168  1  0  0  0
 84169  1  0  0  0
 84170  1  0  0  0
 85 86  1  0  0  0
 85171  1  0  0  0
 86 89  1  0  0  0
 86 90  1  0  0  0
 86 91  1  0  0  0
 87172  1  0  0  0
 88173  1  0  0  0
 88174  1  0  0  0
M  CHG  1  88   1
M  ISO  4   1 100  68 101  84 101  85 100
M  END
> <chiral flag>
0

> <version>
0

> <s_m_source_file>
/data/baiqing/PycharmProjects/Reinvent-master-3.2/result/LINK_invent/BTK/process_docking_weight1_custom_sum_contain_oxygen_bond_distance_aromatic_linkinvent_7_9_3/rearranged_h_0024.sdf

> <i_m_source_file_index>
69

> <r_mmod_Potential_Energy-OPLS-2005>
245.42463684082

> <r_mmod_Stretch_Energy-OPLS-2005>
58.5737152099609

> <r_mmod_Bend_Energy-OPLS-2005>
150.608779907227

> <r_mmod_Torsional_Energy-OPLS-2005>
153.48046875

> <r_mmod_Improper_Torsional_Energy-OPLS-2005>
2.30924487113953

> <r_mmod_Van_der_Waal_Energy-OPLS-2005>
193.780059814453

> <r_mmod_Electrostatic_Energy-OPLS-2005>
-78.2350006103516

> <r_mmod_Solvation_Energy-OPLS-2005>
-452.409790039062

> <b_mmod_Minimization_Converged-OPLS-2005>
0

> <r_mmod_RMS_Derivative-OPLS-2005>
2.74640583992004

$$$$
69
                    3D
 Structure written by MMmdl.
163171  0  0  1  0            999 V2000
  -30.5738  -14.7332   20.4854 C   0  0  0  0  0  0
  -30.4513  -12.4516   19.4612 C   0  0  0  0  0  0
  -29.5138  -12.5149   18.2324 C   0  0  0  0  0  0
  -28.0390  -12.3334   18.6477 C   0  0  0  0  0  0
  -27.6497  -13.2197   19.8597 C   0  0  2  0  0  0
  -28.6968  -13.1066   20.9904 C   0  0  0  0  0  0
  -25.2557  -13.8177   20.5709 C   0  0  0  0  0  0
  -24.1826  -13.0440   20.9205 C   0  0  0  0  0  0
  -24.6398  -11.6909   20.8751 C   0  0  0  0  0  0
  -23.9071  -10.4293   21.0415 C   0  0  0  0  0  0
  -24.3622   -9.4208   21.9190 C   0  0  0  0  0  0
  -23.6296   -8.2241   22.0752 C   0  0  0  0  0  0
  -22.4279   -8.0282   21.3544 C   0  0  0  0  0  0
  -21.9919   -9.0257   20.4643 C   0  0  0  0  0  0
  -22.7246  -10.2135   20.3058 C   0  0  0  0  0  0
  -21.6848   -6.0742   22.5281 C   0  0  0  0  0  0
  -21.4008   -6.5643   23.8215 C   0  0  0  0  0  0
  -21.3660   -5.6793   24.9178 C   0  0  0  0  0  0
  -21.6045   -4.3058   24.7223 C   0  0  0  0  0  0
  -21.8820   -3.8153   23.4343 C   0  0  0  0  0  0
  -21.9193   -4.6971   22.3404 C   0  0  0  0  0  0
  -22.7846  -13.5230   21.1867 C   0  0  0  0  0  0
  -22.1661   -4.2159   21.0981 F   0  0  0  0  0  0
  -21.5634   -3.4541   25.7737 F   0  0  0  0  0  0
  -30.0010  -13.4822   20.4209 N   0  0  0  0  0  0
  -26.2978  -12.9359   20.3323 N   0  0  0  0  0  0
  -25.9329  -11.6515   20.5765 N   0  0  0  0  0  0
  -22.0487  -12.8212   22.0414 N   0  0  0  0  0  0
  -25.4272  -15.1901   20.4131 N   0  0  0  0  0  0
  -31.7462  -14.9044   20.1359 O   0  0  0  0  0  0
  -21.6636   -6.8885   21.4244 O   0  0  0  0  0  0
  -22.3532  -14.5539   20.6721 O   0  0  0  0  0  0
  -24.6308  -31.8539   23.1990 C   0  0  0  0  0  0
  -25.9135  -32.4740   23.8329 C   0  0  1  0  0  0
  -27.2222  -27.2598   20.1223 C   0  0  0  0  0  0
  -25.5914  -33.8541   24.2247 N   0  0  0  0  0  0
  -23.4276  -30.4798   21.5406 C   0  0  2  0  0  0
  -24.8773  -28.9296   20.1097 C   0  0  0  0  0  0
  -22.7494  -29.4598   22.4883 C   0  0  0  0  0  0
  -18.0289  -28.1387   22.8480 C   0  0  0  0  0  0
  -24.1485  -36.7291   23.2637 C   0  0  0  0  0  0
  -25.9755  -30.7673   21.3788 C   0  0  0  0  0  0
  -26.0504  -29.3903   20.7209 C   0  0  0  0  0  0
  -27.2266  -28.5706   20.7132 C   0  0  0  0  0  0
  -26.0202  -26.8708   19.4859 C   0  0  0  0  0  0
  -24.8690  -27.6795   19.4791 C   0  0  0  0  0  0
  -23.6472  -29.8157   20.1567 C   0  0  0  0  0  0
  -25.4104  -36.3055   24.0319 C   0  0  1  0  0  0
  -20.5894  -28.3696   23.1264 C   0  0  2  0  0  0
  -20.6775  -26.9411   22.5403 C   0  0  0  0  0  0
  -19.5759  -26.6387   21.5198 C   0  0  0  0  0  0
  -18.1936  -26.7927   22.1616 C   0  0  0  0  0  0
  -19.1539  -28.8858   23.2868 C   0  0  0  0  0  0
  -18.9467  -30.1455   23.8898 C   0  0  0  0  0  0
  -17.6468  -30.6590   24.0569 C   0  0  0  0  0  0
  -25.9050  -34.9426   23.5088 C   0  0  0  0  0  0
  -16.5359  -29.9092   23.6337 C   0  0  0  0  0  0
  -16.7272  -28.6510   23.0358 C   0  0  0  0  0  0
  -26.4506  -31.6564   25.0721 C   0  0  0  0  0  0
  -25.3716  -31.3713   26.1435 C   0  0  0  0  0  0
  -27.0352  -30.2974   24.6213 C   0  0  0  0  0  0
  -27.6073  -32.4295   25.7488 C   0  0  0  0  0  0
  -27.5577  -37.1782   24.8448 C   0  0  0  0  0  0
  -21.4195  -29.3046   22.3649 N   0  0  0  0  0  0
  -26.4272  -37.3761   23.9415 N   0  0  0  0  0  0
  -24.6974  -31.0505   22.0959 N   0  0  0  0  0  0
  -23.4188  -28.8118   23.2966 O   0  0  0  0  0  0
  -28.3211  -26.3631   20.1623 O   0  0  0  0  0  0
  -26.5635  -34.8907   22.4666 O   0  0  0  0  0  0
  -23.5461  -32.1358   23.7283 O   0  0  0  0  0  0
  -29.3823  -19.1938   21.8521 C   0  0  0  0  0  0
  -29.7709  -19.5183   20.5705 C   0  0  0  0  0  0
  -30.0043  -18.1794   19.9936 C   0  0  0  0  0  0
  -29.7913  -17.1616   20.9182 C   0  0  0  0  0  0
  -27.5723  -16.7425   23.3801 C   0  0  0  0  0  0
  -31.3100  -21.4991   20.6717 C   0  0  0  0  0  0
  -30.1721  -21.0240   18.5119 C   0  0  0  0  0  0
  -29.2213  -23.7632   20.2104 C   0  0  0  0  0  0
  -28.8744  -22.1728   20.3689 C   0  0  0  0  0  0
  -29.0410  -17.1815   23.3412 C   0  0  0  0  0  0
  -28.0517  -24.8787   20.1742 C   0  0  0  0  0  0
  -29.9869  -21.0263   20.0404 C   0  0  0  0  0  0
  -29.3927  -17.8115   22.0778 N   0  0  0  0  0  0
  -29.7066  -15.7671   20.7818 N   0  0  0  0  0  0
  -30.4624  -17.8456   18.3609 Cl  0  0  0  0  0  0
  -31.4866  -12.6079   19.1522 H   0  0  0  0  0  0
  -30.4214  -11.4635   19.9233 H   0  0  0  0  0  0
  -29.7935  -11.7521   17.5044 H   0  0  0  0  0  0
  -29.6347  -13.4767   17.7305 H   0  0  0  0  0  0
  -27.8954  -11.2823   18.9016 H   0  0  0  0  0  0
  -27.3795  -12.5350   17.8026 H   0  0  0  0  0  0
  -27.6546  -14.2478   19.4969 H   0  0  0  0  0  0
  -28.7328  -12.0885   21.3813 H   0  0  0  0  0  0
  -28.4297  -13.7402   21.8378 H   0  0  0  0  0  0
  -25.2766   -9.5685   22.4762 H   0  0  0  0  0  0
  -24.0011   -7.4632   22.7468 H   0  0  0  0  0  0
  -21.0853   -8.8778   19.8940 H   0  0  0  0  0  0
  -22.3715  -10.9678   19.6165 H   0  0  0  0  0  0
  -21.1988   -7.6147   23.9725 H   0  0  0  0  0  0
  -21.1482   -6.0519   25.9081 H   0  0  0  0  0  0
  -22.0597   -2.7617   23.2841 H   0  0  0  0  0  0
  -22.4094  -11.9862   22.4789 H   0  0  0  0  0  0
  -21.1101  -13.1234   22.2618 H   0  0  0  0  0  0
  -24.6605  -15.8437   20.5259 H   0  0  0  0  0  0
  -26.2731  -15.6322   20.0780 H   0  0  0  0  0  0
  -26.7199  -32.5391   23.1065 H   0  0  0  0  0  0
  -25.0012  -33.9681   25.0360 H   0  0  0  0  0  0
  -22.7233  -31.3015   21.3935 H   0  0  0  0  0  0
  -23.3746  -35.9623   23.3254 H   0  0  0  0  0  0
  -24.3590  -36.8971   22.2065 H   0  0  0  0  0  0
  -23.7240  -37.6477   23.6704 H   0  0  0  0  0  0
  -26.1095  -31.5243   20.6052 H   0  0  0  0  0  0
  -26.8557  -30.8209   22.0081 H   0  0  0  0  0  0
  -28.1253  -28.9199   21.2030 H   0  0  0  0  0  0
  -25.9286  -25.9219   18.9826 H   0  0  0  0  0  0
  -23.9739  -27.3254   18.9865 H   0  0  0  0  0  0
  -23.7670  -30.5929   19.4008 H   0  0  0  0  0  0
  -22.7673  -29.2467   19.8522 H   0  0  0  0  0  0
  -25.1270  -36.1900   25.0808 H   0  0  0  0  0  0
  -20.9989  -28.3281   24.1384 H   0  0  0  0  0  0
  -20.5682  -26.2285   23.3594 H   0  0  0  0  0  0
  -21.6644  -26.7431   22.1193 H   0  0  0  0  0  0
  -19.6928  -25.6297   21.1232 H   0  0  0  0  0  0
  -19.6728  -27.3195   20.6727 H   0  0  0  0  0  0
  -17.4200  -26.6662   21.4029 H   0  0  0  0  0  0
  -18.0370  -26.0066   22.9018 H   0  0  0  0  0  0
  -19.7941  -30.7271   24.2270 H   0  0  0  0  0  0
  -17.5023  -31.6277   24.5163 H   0  0  0  0  0  0
  -15.5363  -30.2999   23.7667 H   0  0  0  0  0  0
  -15.8661  -28.0834   22.7075 H   0  0  0  0  0  0
  -24.5909  -30.7038   25.7764 H   0  0  0  0  0  0
  -24.8882  -32.2876   26.4833 H   0  0  0  0  0  0
  -25.8025  -30.8916   27.0231 H   0  0  0  0  0  0
  -26.2940  -29.6707   24.1242 H   0  0  0  0  0  0
  -27.4033  -29.7254   25.4741 H   0  0  0  0  0  0
  -27.8810  -30.4230   23.9449 H   0  0  0  0  0  0
  -27.2717  -33.3635   26.2003 H   0  0  0  0  0  0
  -28.3927  -32.6773   25.0334 H   0  0  0  0  0  0
  -28.0676  -31.8430   26.5455 H   0  0  0  0  0  0
  -28.2531  -38.0135   24.7550 H   0  0  0  0  0  0
  -28.1137  -36.2670   24.6194 H   0  0  0  0  0  0
  -27.2309  -37.1323   25.8851 H   0  0  0  0  0  0
  -20.9366  -29.8782   21.6875 H   0  0  0  0  0  0
  -26.0145  -38.2823   24.1468 H   0  0  0  0  0  0
  -29.1096  -19.8539   22.6641 H   0  0  0  0  0  0
  -27.3359  -16.2828   24.3399 H   0  0  0  0  0  0
  -27.3484  -16.0134   22.6020 H   0  0  0  0  0  0
  -26.9041  -17.5933   23.2454 H   0  0  0  0  0  0
  -32.1137  -20.7857   20.4867 H   0  0  0  0  0  0
  -31.2151  -21.6106   21.7523 H   0  0  0  0  0  0
  -31.6394  -22.4582   20.2694 H   0  0  0  0  0  0
  -31.0544  -20.4586   18.2133 H   0  0  0  0  0  0
  -30.3101  -22.0289   18.1151 H   0  0  0  0  0  0
  -29.3046  -20.5951   18.0098 H   0  0  0  0  0  0
  -29.7941  -23.8973   19.2947 H   0  0  0  0  0  0
  -29.9093  -24.0301   21.0118 H   0  0  0  0  0  0
  -27.9936  -21.9568   19.7631 H   0  0  0  0  0  0
  -28.5405  -22.0341   21.3967 H   0  0  0  0  0  0
  -29.7007  -16.3286   23.5074 H   0  0  0  0  0  0
  -29.2409  -17.8849   24.1505 H   0  0  0  0  0  0
  -27.3895  -24.6893   21.0205 H   0  0  0  0  0  0
  -27.4823  -24.6236   19.2837 H   0  0  0  0  0  0
  -28.8131  -15.4006   21.0668 H   0  0  0  0  0  0
  1 25  1  0  0  0
  1 30  2  0  0  0
  1 84  1  0  0  0
  2  3  1  0  0  0
  2 25  1  0  0  0
  2 86  1  0  0  0
  2 87  1  0  0  0
  3  4  1  0  0  0
  3 88  1  0  0  0
  3 89  1  0  0  0
  4  5  1  0  0  0
  4 90  1  0  0  0
  4 91  1  0  0  0
  5  6  1  0  0  0
  5 26  1  0  0  0
  5 92  1  0  0  0
  6 25  1  0  0  0
  6 93  1  0  0  0
  6 94  1  0  0  0
  7  8  2  0  0  0
  7 26  1  0  0  0
  7 29  1  0  0  0
  8  9  1  0  0  0
  8 22  1  0  0  0
  9 10  1  0  0  0
  9 27  2  0  0  0
 10 11  2  0  0  0
 10 15  1  0  0  0
 11 12  1  0  0  0
 11 95  1  0  0  0
 12 13  2  0  0  0
 12 96  1  0  0  0
 13 14  1  0  0  0
 13 31  1  0  0  0
 14 15  2  0  0  0
 14 97  1  0  0  0
 15 98  1  0  0  0
 16 17  2  0  0  0
 16 21  1  0  0  0
 16 31  1  0  0  0
 17 18  1  0  0  0
 17 99  1  0  0  0
 18 19  2  0  0  0
 18100  1  0  0  0
 19 20  1  0  0  0
 19 24  1  0  0  0
 20 21  2  0  0  0
 20101  1  0  0  0
 21 23  1  0  0  0
 22 28  1  0  0  0
 22 32  2  0  0  0
 26 27  1  0  0  0
 28102  1  0  0  0
 28103  1  0  0  0
 29104  1  0  0  0
 29105  1  0  0  0
 33 34  1  0  0  0
 33 66  1  0  0  0
 33 70  2  0  0  0
 34 36  1  0  0  0
 34 59  1  0  0  0
 34106  1  0  0  0
 35 44  2  0  0  0
 35 45  1  0  0  0
 35 68  1  0  0  0
 36 56  1  0  0  0
 36107  1  0  0  0
 37 39  1  0  0  0
 37 47  1  0  0  0
 37 66  1  0  0  0
 37108  1  0  0  0
 38 43  2  0  0  0
 38 46  1  0  0  0
 38 47  1  0  0  0
 39 64  1  0  0  0
 39 67  2  0  0  0
 40 52  1  0  0  0
 40 53  2  0  0  0
 40 58  1  0  0  0
 41109  1  0  0  0
 41110  1  0  0  0
 41111  1  0  0  0
 41 48  1  0  0  0
 42 43  1  0  0  0
 42 66  1  0  0  0
 42112  1  0  0  0
 42113  1  0  0  0
 43 44  1  0  0  0
 44114  1  0  0  0
 45 46  2  0  0  0
 45115  1  0  0  0
 46116  1  0  0  0
 47117  1  0  0  0
 47118  1  0  0  0
 48 56  1  0  0  0
 48 65  1  0  0  0
 48119  1  0  0  0
 49 50  1  0  0  0
 49 53  1  0  0  0
 49 64  1  0  0  0
 49120  1  0  0  0
 50 51  1  0  0  0
 50121  1  0  0  0
 50122  1  0  0  0
 51 52  1  0  0  0
 51123  1  0  0  0
 51124  1  0  0  0
 52125  1  0  0  0
 52126  1  0  0  0
 53 54  1  0  0  0
 54 55  2  0  0  0
 54127  1  0  0  0
 55 57  1  0  0  0
 55128  1  0  0  0
 56 69  2  0  0  0
 57 58  2  0  0  0
 57129  1  0  0  0
 58130  1  0  0  0
 59 60  1  0  0  0
 59 61  1  0  0  0
 59 62  1  0  0  0
 60131  1  0  0  0
 60132  1  0  0  0
 60133  1  0  0  0
 61134  1  0  0  0
 61135  1  0  0  0
 61136  1  0  0  0
 62137  1  0  0  0
 62138  1  0  0  0
 62139  1  0  0  0
 63 65  1  0  0  0
 63140  1  0  0  0
 63141  1  0  0  0
 63142  1  0  0  0
 64143  1  0  0  0
 65144  1  0  0  0
 68 81  1  0  0  0
 71 72  2  0  0  0
 71 83  1  0  0  0
 71145  1  0  0  0
 72 73  1  0  0  0
 72 82  1  0  0  0
 73 74  2  0  0  0
 73 85  1  0  0  0
 74 83  1  0  0  0
 74 84  1  0  0  0
 75 80  1  0  0  0
 75146  1  0  0  0
 75147  1  0  0  0
 75148  1  0  0  0
 76149  1  0  0  0
 76150  1  0  0  0
 76151  1  0  0  0
 76 82  1  0  0  0
 77 82  1  0  0  0
 77152  1  0  0  0
 77153  1  0  0  0
 77154  1  0  0  0
 78 79  1  0  0  0
 78 81  1  0  0  0
 78155  1  0  0  0
 78156  1  0  0  0
 79 82  1  0  0  0
 79157  1  0  0  0
 79158  1  0  0  0
 80 83  1  0  0  0
 80159  1  0  0  0
 80160  1  0  0  0
 81161  1  0  0  0
 81162  1  0  0  0
 84163  1  0  0  0
M  ISO  4   1 100  68 101  81 101  84 100
M  END
> <chiral flag>
0

> <version>
0

> <s_m_source_file>
/data/baiqing/PycharmProjects/Reinvent-master-3.2/result/LINK_invent/BTK/process_docking_weight1_custom_sum_contain_oxygen_bond_distance_aromatic_linkinvent_7_9_3/rearranged_h_0024.sdf

> <i_m_source_file_index>
70

> <r_mmod_Potential_Energy-OPLS-2005>
161.541488647461

> <r_mmod_Stretch_Energy-OPLS-2005>
124.621948242188

> <r_mmod_Bend_Energy-OPLS-2005>
196.24235534668

> <r_mmod_Torsional_Energy-OPLS-2005>
257.330139160156

> <r_mmod_Improper_Torsional_Energy-OPLS-2005>
6.32807731628418

> <r_mmod_Van_der_Waal_Energy-OPLS-2005>
112.215827941895

> <r_mmod_Electrostatic_Energy-OPLS-2005>
-411.652770996094

> <r_mmod_Solvation_Energy-OPLS-2005>
-205.51530456543

> <b_mmod_Minimization_Converged-OPLS-2005>
0

> <r_mmod_RMS_Derivative-OPLS-2005>
1.56077802181244

$$$$
70
                    3D
 Structure written by MMmdl.
162170  0  0  1  0            999 V2000
  -30.7586  -14.4217   20.6407 C   0  0  0  0  0  0
  -30.4262  -12.2833   19.4268 C   0  0  0  0  0  0
  -29.5142  -12.5385   18.2080 C   0  0  0  0  0  0
  -28.0320  -12.3932   18.6042 C   0  0  0  0  0  0
  -27.6742  -13.2080   19.8777 C   0  0  2  0  0  0
  -28.7095  -12.9665   20.9986 C   0  0  0  0  0  0
  -25.2661  -13.8071   20.5738 C   0  0  0  0  0  0
  -24.1849  -13.0441   20.9128 C   0  0  0  0  0  0
  -24.6355  -11.6857   20.8633 C   0  0  0  0  0  0
  -23.8983  -10.4293   21.0329 C   0  0  0  0  0  0
  -24.3518   -9.4219   21.9138 C   0  0  0  0  0  0
  -23.6222   -8.2244   22.0738 C   0  0  0  0  0  0
  -22.4211   -8.0245   21.3529 C   0  0  0  0  0  0
  -21.9816   -9.0212   20.4647 C   0  0  0  0  0  0
  -22.7109  -10.2106   20.3039 C   0  0  0  0  0  0
  -21.6840   -6.0660   22.5290 C   0  0  0  0  0  0
  -21.3995   -6.5556   23.8213 C   0  0  0  0  0  0
  -21.3709   -5.6745   24.9192 C   0  0  0  0  0  0
  -21.6098   -4.3002   24.7269 C   0  0  0  0  0  0
  -21.8800   -3.8071   23.4389 C   0  0  0  0  0  0
  -21.9155   -4.6876   22.3415 C   0  0  0  0  0  0
  -22.7893  -13.5264   21.1796 C   0  0  0  0  0  0
  -22.1587   -4.2047   21.0986 F   0  0  0  0  0  0
  -21.5757   -3.4495   25.7784 F   0  0  0  0  0  0
  -30.0633  -13.2476   20.4833 N   0  0  0  0  0  0
  -26.3102  -12.9284   20.3328 N   0  0  0  0  0  0
  -25.9287  -11.6440   20.5607 N   0  0  0  0  0  0
  -22.0415  -12.8389   22.0309 N   0  0  0  0  0  0
  -25.4494  -15.1792   20.4309 N   0  0  0  0  0  0
  -31.8219  -14.6266   20.0261 O   0  0  0  0  0  0
  -21.6610   -6.8814   21.4256 O   0  0  0  0  0  0
  -22.3635  -14.5627   20.6620 O   0  0  0  0  0  0
  -24.6121  -31.8682   23.2068 C   0  0  0  0  0  0
  -25.9109  -32.4765   23.8267 C   0  0  1  0  0  0
  -27.2482  -27.4528   20.0703 C   0  0  0  0  0  0
  -25.5985  -33.8535   24.2233 N   0  0  0  0  0  0
  -23.3860  -30.4894   21.5490 C   0  0  2  0  0  0
  -24.8361  -28.9449   20.1184 C   0  0  0  0  0  0
  -22.7290  -29.4707   22.5062 C   0  0  0  0  0  0
  -18.0265  -28.1335   22.8415 C   0  0  0  0  0  0
  -24.1507  -36.7318   23.2590 C   0  0  0  0  0  0
  -25.9066  -30.8341   21.3456 C   0  0  0  0  0  0
  -25.9900  -29.4611   20.7126 C   0  0  0  0  0  0
  -27.1891  -28.7181   20.7028 C   0  0  0  0  0  0
  -26.0702  -26.9485   19.4748 C   0  0  0  0  0  0
  -24.8696  -27.6799   19.5042 C   0  0  0  0  0  0
  -23.5901  -29.7984   20.1692 C   0  0  0  0  0  0
  -25.4108  -36.3029   24.0264 C   0  0  1  0  0  0
  -20.5811  -28.3725   23.1434 C   0  0  2  0  0  0
  -20.6824  -26.9569   22.5279 C   0  0  0  0  0  0
  -19.5881  -26.6932   21.4858 C   0  0  0  0  0  0
  -18.2025  -26.8053   22.1239 C   0  0  0  0  0  0
  -19.1455  -28.8802   23.2913 C   0  0  0  0  0  0
  -18.9319  -30.1441   23.8876 C   0  0  0  0  0  0
  -17.6294  -30.6547   24.0416 C   0  0  0  0  0  0
  -25.9100  -34.9422   23.5006 C   0  0  0  0  0  0
  -16.5235  -29.8961   23.6234 C   0  0  0  0  0  0
  -16.7229  -28.6382   23.0223 C   0  0  0  0  0  0
  -26.4525  -31.6486   25.0524 C   0  0  0  0  0  0
  -25.3864  -31.3646   26.1330 C   0  0  0  0  0  0
  -27.0333  -30.2933   24.5864 C   0  0  0  0  0  0
  -27.6096  -32.4134   25.7373 C   0  0  0  0  0  0
  -27.5552  -37.1804   24.8431 C   0  0  0  0  0  0
  -21.4032  -29.3187   22.3948 N   0  0  0  0  0  0
  -26.4261  -37.3743   23.9385 N   0  0  0  0  0  0
  -24.6540  -31.0779   22.0968 N   0  0  0  0  0  0
  -23.4159  -28.8187   23.3015 O   0  0  0  0  0  0
  -28.4607  -26.7889   20.0529 O   0  0  0  0  0  0
  -26.5602  -34.8903   22.4574 O   0  0  0  0  0  0
  -23.5336  -32.1460   23.7491 O   0  0  0  0  0  0
  -30.4833  -17.3893   19.9552 C   0  0  0  0  0  0
  -30.0328  -18.6595   19.5169 C   0  0  0  0  0  0
  -28.8515  -19.2246   20.0662 C   0  0  0  0  0  0
  -29.8165  -16.6659   20.9945 C   0  0  0  0  0  0
  -28.6761  -17.2748   21.5673 C   0  0  0  0  0  0
  -28.1891  -18.5210   21.1033 C   0  0  0  0  0  0
  -30.8439  -19.3807   18.4411 C   0  0  0  0  0  0
  -26.6792  -22.9520   18.8209 C   0  0  0  0  0  0
  -28.2142  -20.4978   19.4590 C   0  0  0  0  0  0
  -28.3158  -24.3182   20.2071 C   0  0  0  0  0  0
  -28.6137  -25.5572   19.3298 C   0  0  0  0  0  0
  -28.1130  -23.0055   19.3948 C   0  0  1  0  0  0
  -30.2616  -15.3650   21.4553 N   0  0  0  0  0  0
  -28.4493  -21.7776   20.1829 N   0  3  0  0  0  0
  -28.0061  -16.6246   22.5546 F   0  0  0  0  0  0
  -26.7415  -19.1731   21.8004 Cl  0  0  0  0  0  0
  -31.4763  -12.3475   19.1320 H   0  0  0  0  0  0
  -30.3043  -11.2584   19.7828 H   0  0  0  0  0  0
  -29.7570  -11.8635   17.3853 H   0  0  0  0  0  0
  -29.6958  -13.5457   17.8311 H   0  0  0  0  0  0
  -27.8284  -11.3353   18.7721 H   0  0  0  0  0  0
  -27.3991  -12.6997   17.7700 H   0  0  0  0  0  0
  -27.7328  -14.2626   19.6109 H   0  0  0  0  0  0
  -28.6562  -11.9261   21.3243 H   0  0  0  0  0  0
  -28.4653  -13.5628   21.8747 H   0  0  0  0  0  0
  -25.2637   -9.5756   22.4737 H   0  0  0  0  0  0
  -23.9945   -7.4681   22.7485 H   0  0  0  0  0  0
  -21.0731   -8.8727   19.8973 H   0  0  0  0  0  0
  -22.3514  -10.9647   19.6197 H   0  0  0  0  0  0
  -21.1942   -7.6051   23.9699 H   0  0  0  0  0  0
  -21.1583   -6.0450   25.9095 H   0  0  0  0  0  0
  -22.0521   -2.7507   23.2925 H   0  0  0  0  0  0
  -22.3832  -12.0036   22.4860 H   0  0  0  0  0  0
  -21.1065  -13.1607   22.2350 H   0  0  0  0  0  0
  -24.7143  -15.8492   20.6205 H   0  0  0  0  0  0
  -26.3455  -15.6005   20.2309 H   0  0  0  0  0  0
  -26.7130  -32.5513   23.0985 H   0  0  0  0  0  0
  -25.0142  -33.9650   25.0353 H   0  0  0  0  0  0
  -22.6729  -31.3054   21.4027 H   0  0  0  0  0  0
  -23.3687  -35.9747   23.3231 H   0  0  0  0  0  0
  -24.3607  -36.8987   22.2024 H   0  0  0  0  0  0
  -23.7415  -37.6543   23.6684 H   0  0  0  0  0  0
  -25.9736  -31.5835   20.5539 H   0  0  0  0  0  0
  -26.8090  -30.9212   21.9372 H   0  0  0  0  0  0
  -28.0768  -29.1128   21.1732 H   0  0  0  0  0  0
  -26.0537  -25.9959   18.9694 H   0  0  0  0  0  0
  -23.9837  -27.2717   19.0384 H   0  0  0  0  0  0
  -23.6742  -30.5528   19.3863 H   0  0  0  0  0  0
  -22.7184  -29.1969   19.9010 H   0  0  0  0  0  0
  -25.1325  -36.1752   25.0743 H   0  0  0  0  0  0
  -20.9813  -28.3267   24.1578 H   0  0  0  0  0  0
  -20.5698  -26.2179   23.3228 H   0  0  0  0  0  0
  -21.6744  -26.7745   22.1099 H   0  0  0  0  0  0
  -19.7271  -25.7204   21.0136 H   0  0  0  0  0  0
  -19.6801  -27.4329   20.6897 H   0  0  0  0  0  0
  -17.4439  -26.7048   21.3451 H   0  0  0  0  0  0
  -18.0418  -25.9925   22.8321 H   0  0  0  0  0  0
  -19.7773  -30.7291   24.2209 H   0  0  0  0  0  0
  -17.4766  -31.6327   24.4839 H   0  0  0  0  0  0
  -15.5205  -30.2777   23.7486 H   0  0  0  0  0  0
  -15.8683  -28.0737   22.6797 H   0  0  0  0  0  0
  -24.6086  -30.6875   25.7780 H   0  0  0  0  0  0
  -24.9012  -32.2831   26.4678 H   0  0  0  0  0  0
  -25.8340  -30.8976   27.0134 H   0  0  0  0  0  0
  -26.2857  -29.6676   24.0994 H   0  0  0  0  0  0
  -27.4189  -29.7164   25.4288 H   0  0  0  0  0  0
  -27.8651  -30.4184   23.8920 H   0  0  0  0  0  0
  -27.2724  -33.3423   26.2042 H   0  0  0  0  0  0
  -28.4034  -32.6719   25.0312 H   0  0  0  0  0  0
  -28.0674  -31.8154   26.5298 H   0  0  0  0  0  0
  -28.2541  -38.0116   24.7459 H   0  0  0  0  0  0
  -28.1071  -36.2650   24.6262 H   0  0  0  0  0  0
  -27.2280  -37.1468   25.8830 H   0  0  0  0  0  0
  -20.9091  -29.9092   21.7385 H   0  0  0  0  0  0
  -26.0071  -38.2783   24.1385 H   0  0  0  0  0  0
  -31.3506  -16.9718   19.4822 H   0  0  0  0  0  0
  -31.8317  -18.9386   18.3027 H   0  0  0  0  0  0
  -31.0154  -20.4277   18.7056 H   0  0  0  0  0  0
  -30.3463  -19.3553   17.4686 H   0  0  0  0  0  0
  -26.4223  -23.8748   18.3052 H   0  0  0  0  0  0
  -25.9369  -22.8065   19.6055 H   0  0  0  0  0  0
  -26.5518  -22.1542   18.0890 H   0  0  0  0  0  0
  -27.1411  -20.3263   19.3805 H   0  0  0  0  0  0
  -28.5412  -20.6125   18.4260 H   0  0  0  0  0  0
  -27.4377  -24.5119   20.8248 H   0  0  0  0  0  0
  -29.1457  -24.2060   20.9056 H   0  0  0  0  0  0
  -28.0584  -25.5516   18.3925 H   0  0  0  0  0  0
  -29.6578  -25.5010   19.0144 H   0  0  0  0  0  0
  -28.8172  -23.0326   18.5594 H   0  0  0  0  0  0
  -29.8947  -15.0425   22.3486 H   0  0  0  0  0  0
  -29.4250  -21.8233   20.4335 H   0  0  0  0  0  0
  -27.9234  -21.7673   21.0423 H   0  0  0  0  0  0
  1 25  1  0  0  0
  1 30  2  0  0  0
  1 83  1  0  0  0
  2  3  1  0  0  0
  2 25  1  0  0  0
  2 87  1  0  0  0
  2 88  1  0  0  0
  3  4  1  0  0  0
  3 89  1  0  0  0
  3 90  1  0  0  0
  4  5  1  0  0  0
  4 91  1  0  0  0
  4 92  1  0  0  0
  5  6  1  0  0  0
  5 26  1  0  0  0
  5 93  1  0  0  0
  6 25  1  0  0  0
  6 94  1  0  0  0
  6 95  1  0  0  0
  7  8  2  0  0  0
  7 26  1  0  0  0
  7 29  1  0  0  0
  8  9  1  0  0  0
  8 22  1  0  0  0
  9 10  1  0  0  0
  9 27  2  0  0  0
 10 11  2  0  0  0
 10 15  1  0  0  0
 11 12  1  0  0  0
 11 96  1  0  0  0
 12 13  2  0  0  0
 12 97  1  0  0  0
 13 14  1  0  0  0
 13 31  1  0  0  0
 14 15  2  0  0  0
 14 98  1  0  0  0
 15 99  1  0  0  0
 16 17  2  0  0  0
 16 21  1  0  0  0
 16 31  1  0  0  0
 17 18  1  0  0  0
 17100  1  0  0  0
 18 19  2  0  0  0
 18101  1  0  0  0
 19 20  1  0  0  0
 19 24  1  0  0  0
 20 21  2  0  0  0
 20102  1  0  0  0
 21 23  1  0  0  0
 22 28  1  0  0  0
 22 32  2  0  0  0
 26 27  1  0  0  0
 28103  1  0  0  0
 28104  1  0  0  0
 29105  1  0  0  0
 29106  1  0  0  0
 33 34  1  0  0  0
 33 66  1  0  0  0
 33 70  2  0  0  0
 34 36  1  0  0  0
 34 59  1  0  0  0
 34107  1  0  0  0
 35 44  2  0  0  0
 35 45  1  0  0  0
 35 68  1  0  0  0
 36 56  1  0  0  0
 36108  1  0  0  0
 37 39  1  0  0  0
 37 47  1  0  0  0
 37 66  1  0  0  0
 37109  1  0  0  0
 38 43  2  0  0  0
 38 46  1  0  0  0
 38 47  1  0  0  0
 39 64  1  0  0  0
 39 67  2  0  0  0
 40 52  1  0  0  0
 40 53  2  0  0  0
 40 58  1  0  0  0
 41110  1  0  0  0
 41111  1  0  0  0
 41112  1  0  0  0
 41 48  1  0  0  0
 42 43  1  0  0  0
 42 66  1  0  0  0
 42113  1  0  0  0
 42114  1  0  0  0
 43 44  1  0  0  0
 44115  1  0  0  0
 45 46  2  0  0  0
 45116  1  0  0  0
 46117  1  0  0  0
 47118  1  0  0  0
 47119  1  0  0  0
 48 56  1  0  0  0
 48 65  1  0  0  0
 48120  1  0  0  0
 49 50  1  0  0  0
 49 53  1  0  0  0
 49 64  1  0  0  0
 49121  1  0  0  0
 50 51  1  0  0  0
 50122  1  0  0  0
 50123  1  0  0  0
 51 52  1  0  0  0
 51124  1  0  0  0
 51125  1  0  0  0
 52126  1  0  0  0
 52127  1  0  0  0
 53 54  1  0  0  0
 54 55  2  0  0  0
 54128  1  0  0  0
 55 57  1  0  0  0
 55129  1  0  0  0
 56 69  2  0  0  0
 57 58  2  0  0  0
 57130  1  0  0  0
 58131  1  0  0  0
 59 60  1  0  0  0
 59 61  1  0  0  0
 59 62  1  0  0  0
 60132  1  0  0  0
 60133  1  0  0  0
 60134  1  0  0  0
 61135  1  0  0  0
 61136  1  0  0  0
 61137  1  0  0  0
 62138  1  0  0  0
 62139  1  0  0  0
 62140  1  0  0  0
 63 65  1  0  0  0
 63141  1  0  0  0
 63142  1  0  0  0
 63143  1  0  0  0
 64144  1  0  0  0
 65145  1  0  0  0
 68 81  1  0  0  0
 71 72  2  0  0  0
 71 74  1  0  0  0
 71146  1  0  0  0
 72 73  1  0  0  0
 72 77  1  0  0  0
 73 76  2  0  0  0
 73 79  1  0  0  0
 74 75  2  0  0  0
 74 83  1  0  0  0
 75 76  1  0  0  0
 75 85  1  0  0  0
 76 86  1  0  0  0
 77147  1  0  0  0
 77148  1  0  0  0
 77149  1  0  0  0
 78150  1  0  0  0
 78151  1  0  0  0
 78152  1  0  0  0
 78 82  1  0  0  0
 79 84  1  0  0  0
 79153  1  0  0  0
 79154  1  0  0  0
 80 81  1  0  0  0
 80 82  1  0  0  0
 80155  1  0  0  0
 80156  1  0  0  0
 81157  1  0  0  0
 81158  1  0  0  0
 82 84  1  0  0  0
 82159  1  0  0  0
 83160  1  0  0  0
 84161  1  0  0  0
 84162  1  0  0  0
M  CHG  1  84   1
M  ISO  4   1 100  68 101  81 101  83 100
M  END
> <chiral flag>
0

> <version>
0

> <s_m_source_file>
/data/baiqing/PycharmProjects/Reinvent-master-3.2/result/LINK_invent/BTK/process_docking_weight1_custom_sum_contain_oxygen_bond_distance_aromatic_linkinvent_7_9_3/rearranged_h_0024.sdf

> <i_m_source_file_index>
71

> <r_mmod_Potential_Energy-OPLS-2005>
-184.079818725586

> <r_mmod_Stretch_Energy-OPLS-2005>
47.7620277404785

> <r_mmod_Bend_Energy-OPLS-2005>
110.508003234863

> <r_mmod_Torsional_Energy-OPLS-2005>
240.380432128906

> <r_mmod_Improper_Torsional_Energy-OPLS-2005>
3.79972076416016

> <r_mmod_Van_der_Waal_Energy-OPLS-2005>
149.753479003906

> <r_mmod_Electrostatic_Energy-OPLS-2005>
-280.029388427734

> <r_mmod_Solvation_Energy-OPLS-2005>
-466.848571777344

> <b_mmod_Minimization_Converged-OPLS-2005>
0

> <r_mmod_RMS_Derivative-OPLS-2005>
15.2279710769653

$$$$
71
                    3D
 Structure written by MMmdl.
156164  0  0  1  0            999 V2000
  -30.6645  -14.5283   20.5608 C   0  0  0  0  0  0
  -30.4263  -12.3437   19.4227 C   0  0  0  0  0  0
  -29.4946  -12.5060   18.2040 C   0  0  0  0  0  0
  -28.0150  -12.3623   18.6143 C   0  0  0  0  0  0
  -27.6542  -13.2085   19.8655 C   0  0  2  0  0  0
  -28.6960  -13.0103   20.9871 C   0  0  0  0  0  0
  -25.2562  -13.8159   20.5677 C   0  0  0  0  0  0
  -24.1822  -13.0432   20.9184 C   0  0  0  0  0  0
  -24.6377  -11.6901   20.8721 C   0  0  0  0  0  0
  -23.9045  -10.4285   21.0388 C   0  0  0  0  0  0
  -24.3606   -9.4210   21.9171 C   0  0  0  0  0  0
  -23.6288   -8.2245   22.0744 C   0  0  0  0  0  0
  -22.4271   -8.0274   21.3536 C   0  0  0  0  0  0
  -21.9901   -9.0241   20.4638 C   0  0  0  0  0  0
  -22.7215  -10.2124   20.3042 C   0  0  0  0  0  0
  -21.6856   -6.0730   22.5272 C   0  0  0  0  0  0
  -21.4015   -6.5636   23.8202 C   0  0  0  0  0  0
  -21.3656   -5.6790   24.9167 C   0  0  0  0  0  0
  -21.6045   -4.3050   24.7221 C   0  0  0  0  0  0
  -21.8824   -3.8144   23.4342 C   0  0  0  0  0  0
  -21.9197   -4.6960   22.3399 C   0  0  0  0  0  0
  -22.7846  -13.5229   21.1851 C   0  0  0  0  0  0
  -22.1663   -4.2144   21.0974 F   0  0  0  0  0  0
  -21.5628   -3.4536   25.7737 F   0  0  0  0  0  0
  -30.0157  -13.3377   20.4270 N   0  0  0  0  0  0
  -26.2977  -12.9325   20.3310 N   0  0  0  0  0  0
  -25.9297  -11.6483   20.5731 N   0  0  0  0  0  0
  -22.0488  -12.8216   22.0399 N   0  0  0  0  0  0
  -25.4285  -15.1884   20.4103 N   0  0  0  0  0  0
  -31.8165  -14.7036   20.1547 O   0  0  0  0  0  0
  -21.6640   -6.8869   21.4232 O   0  0  0  0  0  0
  -22.3531  -14.5530   20.6688 O   0  0  0  0  0  0
  -24.6203  -31.8633   23.2068 C   0  0  0  0  0  0
  -25.9078  -32.4796   23.8378 C   0  0  1  0  0  0
  -27.2328  -27.3841   20.1110 C   0  0  0  0  0  0
  -25.5930  -33.8595   24.2320 N   0  0  0  0  0  0
  -23.4103  -30.4866   21.5476 C   0  0  2  0  0  0
  -24.8564  -28.9403   20.1206 C   0  0  0  0  0  0
  -22.7432  -29.4644   22.4967 C   0  0  0  0  0  0
  -18.0280  -28.1381   22.8496 C   0  0  0  0  0  0
  -24.1481  -36.7287   23.2643 C   0  0  0  0  0  0
  -25.9435  -30.8149   21.3649 C   0  0  0  0  0  0
  -26.0186  -29.4435   20.7165 C   0  0  0  0  0  0
  -27.2115  -28.6761   20.6999 C   0  0  0  0  0  0
  -26.0504  -26.9045   19.5108 C   0  0  0  0  0  0
  -24.8693  -27.6726   19.5133 C   0  0  0  0  0  0
  -23.6221  -29.8155   20.1640 C   0  0  0  0  0  0
  -25.4104  -36.3091   24.0344 C   0  0  1  0  0  0
  -20.5873  -28.3676   23.1308 C   0  0  2  0  0  0
  -20.6769  -26.9408   22.5416 C   0  0  0  0  0  0
  -19.5751  -26.6387   21.5212 C   0  0  0  0  0  0
  -18.1927  -26.7927   22.1621 C   0  0  0  0  0  0
  -19.1528  -28.8842   23.2901 C   0  0  0  0  0  0
  -18.9454  -30.1447   23.8921 C   0  0  0  0  0  0
  -17.6452  -30.6586   24.0567 C   0  0  0  0  0  0
  -25.9040  -34.9458   23.5122 C   0  0  0  0  0  0
  -16.5347  -29.9086   23.6328 C   0  0  0  0  0  0
  -16.7266  -28.6502   23.0355 C   0  0  0  0  0  0
  -26.4494  -31.6586   25.0720 C   0  0  0  0  0  0
  -25.3756  -31.3681   26.1463 C   0  0  0  0  0  0
  -27.0344  -30.3039   24.6100 C   0  0  0  0  0  0
  -27.6072  -32.4308   25.7480 C   0  0  0  0  0  0
  -27.5568  -37.1800   24.8472 C   0  0  0  0  0  0
  -21.4156  -29.3041   22.3709 N   0  0  0  0  0  0
  -26.4282  -37.3785   23.9415 N   0  0  0  0  0  0
  -24.6767  -31.0710   22.0978 N   0  0  0  0  0  0
  -23.4185  -28.8180   23.3021 O   0  0  0  0  0  0
  -28.4095  -26.6531   20.0585 O   0  0  0  0  0  0
  -26.5594  -34.8920   22.4680 O   0  0  0  0  0  0
  -23.5388  -32.1400   23.7438 O   0  0  0  0  0  0
  -28.3008  -21.6539   20.5524 C   0  0  0  0  0  0
  -28.6632  -22.7539   19.7123 C   0  0  0  0  0  0
  -29.0853  -20.5668   20.2319 C   0  0  0  0  0  0
  -30.9091  -20.3777   18.4101 C   0  0  0  0  0  0
  -28.0357  -24.1470   19.5197 C   0  0  0  0  0  0
  -29.0510  -19.1378   20.8091 C   0  0  0  0  0  0
  -30.1719  -18.0941   20.4609 C   0  0  0  0  0  0
  -30.3901  -16.8996   21.4575 C   0  0  0  0  0  0
  -28.4453  -25.2722   20.5233 C   0  0  0  0  0  0
  -29.6655  -22.3685   18.9292 N   0  0  0  0  0  0
  -29.9019  -21.0535   19.2095 N   0  0  0  0  0  0
  -29.9218  -15.5539   21.0446 N   0  0  0  0  0  0
  -27.0343  -21.6701   21.7256 Cl  0  0  0  0  0  0
  -31.4676  -12.4646   19.1185 H   0  0  0  0  0  0
  -30.3497  -11.3372   19.8368 H   0  0  0  0  0  0
  -29.7427  -11.7675   17.4401 H   0  0  0  0  0  0
  -29.6541  -13.4843   17.7470 H   0  0  0  0  0  0
  -27.8279  -11.3060   18.8132 H   0  0  0  0  0  0
  -27.3663  -12.6312   17.7795 H   0  0  0  0  0  0
  -27.6894  -14.2542   19.5585 H   0  0  0  0  0  0
  -28.6889  -11.9759   21.3349 H   0  0  0  0  0  0
  -28.4498  -13.6157   21.8614 H   0  0  0  0  0  0
  -25.2754   -9.5698   22.4737 H   0  0  0  0  0  0
  -24.0005   -7.4643   22.7466 H   0  0  0  0  0  0
  -21.0831   -8.8747   19.8945 H   0  0  0  0  0  0
  -22.3665  -10.9657   19.6149 H   0  0  0  0  0  0
  -21.2002   -7.6143   23.9702 H   0  0  0  0  0  0
  -21.1472   -6.0520   25.9067 H   0  0  0  0  0  0
  -22.0608   -2.7607   23.2842 H   0  0  0  0  0  0
  -22.4120  -11.9894   22.4804 H   0  0  0  0  0  0
  -21.1087  -13.1208   22.2565 H   0  0  0  0  0  0
  -24.6652  -15.8443   20.5347 H   0  0  0  0  0  0
  -26.2763  -15.6278   20.0739 H   0  0  0  0  0  0
  -26.7145  -32.5494   23.1134 H   0  0  0  0  0  0
  -25.0130  -33.9755   25.0501 H   0  0  0  0  0  0
  -22.7028  -31.3062   21.4043 H   0  0  0  0  0  0
  -23.3745  -35.9620   23.3318 H   0  0  0  0  0  0
  -24.3573  -36.8887   22.2055 H   0  0  0  0  0  0
  -23.7226  -37.6494   23.6646 H   0  0  0  0  0  0
  -26.0616  -31.5746   20.5910 H   0  0  0  0  0  0
  -26.8306  -30.8706   21.9838 H   0  0  0  0  0  0
  -28.1149  -29.0677   21.1459 H   0  0  0  0  0  0
  -26.0348  -25.9482   19.0134 H   0  0  0  0  0  0
  -23.9779  -27.2837   19.0423 H   0  0  0  0  0  0
  -23.7387  -30.5894   19.4040 H   0  0  0  0  0  0
  -22.7443  -29.2398   19.8650 H   0  0  0  0  0  0
  -25.1272  -36.1953   25.0837 H   0  0  0  0  0  0
  -20.9976  -28.3244   24.1424 H   0  0  0  0  0  0
  -20.5672  -26.2281   23.3606 H   0  0  0  0  0  0
  -21.6639  -26.7445   22.1207 H   0  0  0  0  0  0
  -19.6911  -25.6300   21.1237 H   0  0  0  0  0  0
  -19.6693  -27.3204   20.6749 H   0  0  0  0  0  0
  -17.4198  -26.6691   21.4019 H   0  0  0  0  0  0
  -18.0325  -26.0061   22.9007 H   0  0  0  0  0  0
  -19.7925  -30.7256   24.2308 H   0  0  0  0  0  0
  -17.5004  -31.6273   24.5155 H   0  0  0  0  0  0
  -15.5348  -30.2991   23.7636 H   0  0  0  0  0  0
  -15.8667  -28.0819   22.7066 H   0  0  0  0  0  0
  -24.5948  -30.7009   25.7790 H   0  0  0  0  0  0
  -24.8925  -32.2828   26.4913 H   0  0  0  0  0  0
  -25.8112  -30.8850   27.0220 H   0  0  0  0  0  0
  -26.2902  -29.6793   24.1145 H   0  0  0  0  0  0
  -27.4122  -29.7276   25.4553 H   0  0  0  0  0  0
  -27.8726  -30.4375   23.9257 H   0  0  0  0  0  0
  -27.2710  -33.3617   26.2056 H   0  0  0  0  0  0
  -28.3883  -32.6848   25.0302 H   0  0  0  0  0  0
  -28.0738  -31.8426   26.5393 H   0  0  0  0  0  0
  -28.2593  -38.0090   24.7514 H   0  0  0  0  0  0
  -28.1051  -36.2619   24.6299 H   0  0  0  0  0  0
  -27.2290  -37.1460   25.8879 H   0  0  0  0  0  0
  -20.9317  -29.8770   21.6935 H   0  0  0  0  0  0
  -26.0163  -38.2859   24.1421 H   0  0  0  0  0  0
  -31.7856  -20.1542   19.0172 H   0  0  0  0  0  0
  -31.2280  -21.0066   17.5775 H   0  0  0  0  0  0
  -30.5014  -19.4563   17.9960 H   0  0  0  0  0  0
  -26.9525  -24.0365   19.5392 H   0  0  0  0  0  0
  -28.2681  -24.4972   18.5138 H   0  0  0  0  0  0
  -28.0885  -18.6928   20.5546 H   0  0  0  0  0  0
  -29.0251  -19.2427   21.8936 H   0  0  0  0  0  0
  -31.1148  -18.6374   20.4881 H   0  0  0  0  0  0
  -30.0628  -17.7318   19.4390 H   0  0  0  0  0  0
  -29.9407  -17.1344   22.4229 H   0  0  0  0  0  0
  -31.4589  -16.8248   21.6694 H   0  0  0  0  0  0
  -29.4892  -25.1034   20.7897 H   0  0  0  0  0  0
  -27.8899  -25.1674   21.4565 H   0  0  0  0  0  0
  -28.9667  -15.3226   21.2766 H   0  0  0  0  0  0
  1 25  1  0  0  0
  1 30  2  0  0  0
  1 82  1  0  0  0
  2  3  1  0  0  0
  2 25  1  0  0  0
  2 84  1  0  0  0
  2 85  1  0  0  0
  3  4  1  0  0  0
  3 86  1  0  0  0
  3 87  1  0  0  0
  4  5  1  0  0  0
  4 88  1  0  0  0
  4 89  1  0  0  0
  5  6  1  0  0  0
  5 26  1  0  0  0
  5 90  1  0  0  0
  6 25  1  0  0  0
  6 91  1  0  0  0
  6 92  1  0  0  0
  7  8  2  0  0  0
  7 26  1  0  0  0
  7 29  1  0  0  0
  8  9  1  0  0  0
  8 22  1  0  0  0
  9 10  1  0  0  0
  9 27  2  0  0  0
 10 11  2  0  0  0
 10 15  1  0  0  0
 11 12  1  0  0  0
 11 93  1  0  0  0
 12 13  2  0  0  0
 12 94  1  0  0  0
 13 14  1  0  0  0
 13 31  1  0  0  0
 14 15  2  0  0  0
 14 95  1  0  0  0
 15 96  1  0  0  0
 16 17  2  0  0  0
 16 21  1  0  0  0
 16 31  1  0  0  0
 17 18  1  0  0  0
 17 97  1  0  0  0
 18 19  2  0  0  0
 18 98  1  0  0  0
 19 20  1  0  0  0
 19 24  1  0  0  0
 20 21  2  0  0  0
 20 99  1  0  0  0
 21 23  1  0  0  0
 22 28  1  0  0  0
 22 32  2  0  0  0
 26 27  1  0  0  0
 28100  1  0  0  0
 28101  1  0  0  0
 29102  1  0  0  0
 29103  1  0  0  0
 33 34  1  0  0  0
 33 66  1  0  0  0
 33 70  2  0  0  0
 34 36  1  0  0  0
 34 59  1  0  0  0
 34104  1  0  0  0
 35 44  2  0  0  0
 35 45  1  0  0  0
 35 68  1  0  0  0
 36 56  1  0  0  0
 36105  1  0  0  0
 37 39  1  0  0  0
 37 47  1  0  0  0
 37 66  1  0  0  0
 37106  1  0  0  0
 38 43  2  0  0  0
 38 46  1  0  0  0
 38 47  1  0  0  0
 39 64  1  0  0  0
 39 67  2  0  0  0
 40 52  1  0  0  0
 40 53  2  0  0  0
 40 58  1  0  0  0
 41107  1  0  0  0
 41108  1  0  0  0
 41109  1  0  0  0
 41 48  1  0  0  0
 42 43  1  0  0  0
 42 66  1  0  0  0
 42110  1  0  0  0
 42111  1  0  0  0
 43 44  1  0  0  0
 44112  1  0  0  0
 45 46  2  0  0  0
 45113  1  0  0  0
 46114  1  0  0  0
 47115  1  0  0  0
 47116  1  0  0  0
 48 56  1  0  0  0
 48 65  1  0  0  0
 48117  1  0  0  0
 49 50  1  0  0  0
 49 53  1  0  0  0
 49 64  1  0  0  0
 49118  1  0  0  0
 50 51  1  0  0  0
 50119  1  0  0  0
 50120  1  0  0  0
 51 52  1  0  0  0
 51121  1  0  0  0
 51122  1  0  0  0
 52123  1  0  0  0
 52124  1  0  0  0
 53 54  1  0  0  0
 54 55  2  0  0  0
 54125  1  0  0  0
 55 57  1  0  0  0
 55126  1  0  0  0
 56 69  2  0  0  0
 57 58  2  0  0  0
 57127  1  0  0  0
 58128  1  0  0  0
 59 60  1  0  0  0
 59 61  1  0  0  0
 59 62  1  0  0  0
 60129  1  0  0  0
 60130  1  0  0  0
 60131  1  0  0  0
 61132  1  0  0  0
 61133  1  0  0  0
 61134  1  0  0  0
 62135  1  0  0  0
 62136  1  0  0  0
 62137  1  0  0  0
 63 65  1  0  0  0
 63138  1  0  0  0
 63139  1  0  0  0
 63140  1  0  0  0
 64141  1  0  0  0
 65142  1  0  0  0
 68 79  1  0  0  0
 71 72  1  0  0  0
 71 73  2  0  0  0
 71 83  1  0  0  0
 72 75  1  0  0  0
 72 80  2  0  0  0
 73 76  1  0  0  0
 73 81  1  0  0  0
 74 81  1  0  0  0
 74143  1  0  0  0
 74144  1  0  0  0
 74145  1  0  0  0
 75 79  1  0  0  0
 75146  1  0  0  0
 75147  1  0  0  0
 76 77  1  0  0  0
 76148  1  0  0  0
 76149  1  0  0  0
 77 78  1  0  0  0
 77150  1  0  0  0
 77151  1  0  0  0
 78 82  1  0  0  0
 78152  1  0  0  0
 78153  1  0  0  0
 79154  1  0  0  0
 79155  1  0  0  0
 80 81  1  0  0  0
 82156  1  0  0  0
M  ISO  4   1 100  68 101  79 101  82 100
M  END
> <chiral flag>
0

> <version>
0

> <s_m_source_file>
/data/baiqing/PycharmProjects/Reinvent-master-3.2/result/LINK_invent/BTK/process_docking_weight1_custom_sum_contain_oxygen_bond_distance_aromatic_linkinvent_7_9_3/rearranged_h_0024.sdf

> <i_m_source_file_index>
72

> <r_mmod_Potential_Energy-OPLS-2005>
-32.8071556091309

> <r_mmod_Stretch_Energy-OPLS-2005>
49.2525405883789

> <r_mmod_Bend_Energy-OPLS-2005>
136.287460327148

> <r_mmod_Torsional_Energy-OPLS-2005>
229.821319580078

> <r_mmod_Improper_Torsional_Energy-OPLS-2005>
3.66419696807861

> <r_mmod_Van_der_Waal_Energy-OPLS-2005>
120.032341003418

> <r_mmod_Electrostatic_Energy-OPLS-2005>
-369.833038330078

> <r_mmod_Solvation_Energy-OPLS-2005>
-222.159118652344

> <b_mmod_Minimization_Converged-OPLS-2005>
0

> <r_mmod_RMS_Derivative-OPLS-2005>
1.20832848548889

$$$$
72
                    3D
 Structure written by MMmdl.
156164  0  0  1  0            999 V2000
  -30.4362  -15.1993   20.3520 C   0  0  0  0  0  0
  -30.4473  -12.7550   19.5057 C   0  0  0  0  0  0
  -29.5328  -12.5604   18.2691 C   0  0  0  0  0  0
  -28.0795  -12.2991   18.7029 C   0  0  0  0  0  0
  -27.6133  -13.2658   19.8206 C   0  0  2  0  0  0
  -28.6569  -13.4034   20.9499 C   0  0  0  0  0  0
  -25.2389  -13.8189   20.5777 C   0  0  0  0  0  0
  -24.1739  -13.0394   20.9290 C   0  0  0  0  0  0
  -24.6390  -11.6896   20.8761 C   0  0  0  0  0  0
  -23.9096  -10.4271   21.0415 C   0  0  0  0  0  0
  -24.3641   -9.4187   21.9195 C   0  0  0  0  0  0
  -23.6292   -8.2247   22.0764 C   0  0  0  0  0  0
  -22.4268   -8.0296   21.3566 C   0  0  0  0  0  0
  -21.9915   -9.0271   20.4670 C   0  0  0  0  0  0
  -22.7271  -10.2133   20.3074 C   0  0  0  0  0  0
  -21.6848   -6.0744   22.5290 C   0  0  0  0  0  0
  -21.4009   -6.5637   23.8228 C   0  0  0  0  0  0
  -21.3648   -5.6792   24.9184 C   0  0  0  0  0  0
  -21.6045   -4.3057   24.7228 C   0  0  0  0  0  0
  -21.8816   -3.8146   23.4350 C   0  0  0  0  0  0
  -21.9188   -4.6969   22.3406 C   0  0  0  0  0  0
  -22.7759  -13.5176   21.1919 C   0  0  0  0  0  0
  -22.1656   -4.2156   21.0982 F   0  0  0  0  0  0
  -21.5614   -3.4534   25.7737 F   0  0  0  0  0  0
  -29.8978  -13.8891   20.3247 N   0  0  0  0  0  0
  -26.2822  -12.9470   20.3203 N   0  0  0  0  0  0
  -25.9331  -11.6576   20.5696 N   0  0  0  0  0  0
  -22.0413  -12.8179   22.0480 N   0  0  0  0  0  0
  -25.3908  -15.1920   20.4252 N   0  0  0  0  0  0
  -31.6593  -15.2408   20.1623 O   0  0  0  0  0  0
  -21.6633   -6.8902   21.4262 O   0  0  0  0  0  0
  -22.3445  -14.5467   20.6738 O   0  0  0  0  0  0
  -24.6587  -31.8265   23.1746 C   0  0  0  0  0  0
  -25.9286  -32.4606   23.8193 C   0  0  1  0  0  0
  -27.2266  -26.9833   20.1673 C   0  0  0  0  0  0
  -25.5967  -33.8417   24.2099 N   0  0  0  0  0  0
  -23.4709  -30.4401   21.5230 C   0  0  2  0  0  0
  -24.9228  -28.8341   20.1143 C   0  0  0  0  0  0
  -22.7642  -29.4449   22.4795 C   0  0  0  0  0  0
  -18.0317  -28.1401   22.8461 C   0  0  0  0  0  0
  -24.1491  -36.7220   23.2645 C   0  0  0  0  0  0
  -26.0365  -30.6515   21.3952 C   0  0  0  0  0  0
  -26.1059  -29.2459   20.7402 C   0  0  0  0  0  0
  -27.2534  -28.3413   20.7407 C   0  0  0  0  0  0
  -26.0104  -26.7039   19.5054 C   0  0  0  0  0  0
  -24.8962  -27.5811   19.4802 C   0  0  0  0  0  0
  -23.7075  -29.7573   20.1486 C   0  0  0  0  0  0
  -25.4126  -36.2981   24.0304 C   0  0  1  0  0  0
  -20.5935  -28.3738   23.1197 C   0  0  2  0  0  0
  -20.6797  -26.9422   22.5404 C   0  0  0  0  0  0
  -19.5772  -26.6372   21.5214 C   0  0  0  0  0  0
  -18.1957  -26.7932   22.1622 C   0  0  0  0  0  0
  -19.1581  -28.8891   23.2816 C   0  0  0  0  0  0
  -18.9487  -30.1480   23.8851 C   0  0  0  0  0  0
  -17.6483  -30.6587   24.0562 C   0  0  0  0  0  0
  -25.9096  -34.9359   23.5025 C   0  0  0  0  0  0
  -16.5376  -29.9077   23.6336 C   0  0  0  0  0  0
  -16.7302  -28.6503   23.0346 C   0  0  0  0  0  0
  -26.4541  -31.6533   25.0704 C   0  0  0  0  0  0
  -25.3678  -31.3786   26.1371 C   0  0  0  0  0  0
  -27.0423  -30.2903   24.6409 C   0  0  0  0  0  0
  -27.6051  -32.4320   25.7496 C   0  0  0  0  0  0
  -27.5567  -37.1764   24.8456 C   0  0  0  0  0  0
  -21.4315  -29.3035   22.3553 N   0  0  0  0  0  0
  -26.4272  -37.3715   23.9413 N   0  0  0  0  0  0
  -24.7430  -30.9983   22.0855 N   0  0  0  0  0  0
  -23.4216  -28.8016   23.3019 O   0  0  0  0  0  0
  -28.2611  -25.9274   20.2250 O   0  0  0  0  0  0
  -26.5704  -34.8884   22.4619 O   0  0  0  0  0  0
  -23.5666  -32.1193   23.6890 O   0  0  0  0  0  0
  -30.4032  -20.4550   20.5686 C   0  0  0  0  0  0
  -29.2168  -21.2563   20.2663 C   0  0  0  0  0  0
  -28.1932  -20.2740   19.9380 C   0  0  0  0  0  0
  -29.5588  -18.0013   20.2993 C   0  0  0  0  0  0
  -30.5812  -18.9835   20.5923 C   0  0  0  0  0  0
  -28.3607  -18.7827   19.9682 C   0  0  0  0  0  0
  -26.8451  -20.8330   19.5083 C   0  0  0  0  0  0
  -30.2444  -23.3436   19.1526 C   0  0  0  0  0  0
  -29.8888  -23.3713   21.6421 C   0  0  0  0  0  0
  -28.0565  -24.3121   20.1104 C   0  0  0  0  0  0
  -29.2480  -23.0076   20.2824 C   0  0  0  0  0  0
  -29.5776  -16.3907   20.3557 N   0  0  0  0  0  0
  -32.1480  -18.4073   21.0299 Cl  0  0  0  0  0  0
  -26.9855  -17.8280   19.5390 Cl  0  0  0  0  0  0
  -31.4687  -12.9569   19.1771 H   0  0  0  0  0  0
  -30.5018  -11.8386   20.0936 H   0  0  0  0  0  0
  -29.8888  -11.7350   17.6508 H   0  0  0  0  0  0
  -29.5777  -13.4505   17.6400 H   0  0  0  0  0  0
  -28.0293  -11.2715   19.0642 H   0  0  0  0  0  0
  -27.4115  -12.3580   17.8427 H   0  0  0  0  0  0
  -27.5334  -14.2391   19.3363 H   0  0  0  0  0  0
  -28.8075  -12.4562   21.4694 H   0  0  0  0  0  0
  -28.3115  -14.1175   21.7001 H   0  0  0  0  0  0
  -25.2799   -9.5621   22.4756 H   0  0  0  0  0  0
  -23.9988   -7.4622   22.7471 H   0  0  0  0  0  0
  -21.0843   -8.8807   19.8983 H   0  0  0  0  0  0
  -22.3756  -10.9668   19.6167 H   0  0  0  0  0  0
  -21.2013   -7.6150   23.9728 H   0  0  0  0  0  0
  -21.1460   -6.0522   25.9085 H   0  0  0  0  0  0
  -22.0598   -2.7610   23.2857 H   0  0  0  0  0  0
  -22.4011  -11.9839   22.4885 H   0  0  0  0  0  0
  -21.1040  -13.1215   22.2687 H   0  0  0  0  0  0
  -24.6057  -15.8202   20.5579 H   0  0  0  0  0  0
  -26.1962  -15.6637   20.0344 H   0  0  0  0  0  0
  -26.7352  -32.5155   23.0908 H   0  0  0  0  0  0
  -25.0043  -33.9494   25.0204 H   0  0  0  0  0  0
  -22.7814  -31.2708   21.3570 H   0  0  0  0  0  0
  -23.3759  -35.9544   23.3279 H   0  0  0  0  0  0
  -24.3581  -36.8893   22.2066 H   0  0  0  0  0  0
  -23.7239  -37.6400   23.6717 H   0  0  0  0  0  0
  -26.2088  -31.3957   20.6173 H   0  0  0  0  0  0
  -26.9009  -30.7088   22.0448 H   0  0  0  0  0  0
  -28.1516  -28.6589   21.2512 H   0  0  0  0  0  0
  -25.8913  -25.7473   19.0188 H   0  0  0  0  0  0
  -23.9947  -27.2621   18.9756 H   0  0  0  0  0  0
  -23.8624  -30.5276   19.3924 H   0  0  0  0  0  0
  -22.8170  -29.2121   19.8294 H   0  0  0  0  0  0
  -25.1319  -36.1785   25.0793 H   0  0  0  0  0  0
  -21.0020  -28.3351   24.1323 H   0  0  0  0  0  0
  -20.5676  -26.2354   23.3642 H   0  0  0  0  0  0
  -21.6664  -26.7395   22.1218 H   0  0  0  0  0  0
  -19.6934  -25.6276   21.1267 H   0  0  0  0  0  0
  -19.6709  -27.3159   20.6729 H   0  0  0  0  0  0
  -17.4217  -26.6651   21.4041 H   0  0  0  0  0  0
  -18.0359  -26.0089   22.9030 H   0  0  0  0  0  0
  -19.7967  -30.7310   24.2203 H   0  0  0  0  0  0
  -17.5032  -31.6261   24.5173 H   0  0  0  0  0  0
  -15.5375  -30.2962   23.7689 H   0  0  0  0  0  0
  -15.8704  -28.0819   22.7066 H   0  0  0  0  0  0
  -24.5850  -30.7148   25.7679 H   0  0  0  0  0  0
  -24.8881  -32.2995   26.4691 H   0  0  0  0  0  0
  -25.7904  -30.9004   27.0217 H   0  0  0  0  0  0
  -26.3070  -29.6584   24.1410 H   0  0  0  0  0  0
  -27.3959  -29.7258   25.5050 H   0  0  0  0  0  0
  -27.9013  -30.4096   23.9804 H   0  0  0  0  0  0
  -27.2635  -33.3647   26.1995 H   0  0  0  0  0  0
  -28.3897  -32.6833   25.0349 H   0  0  0  0  0  0
  -28.0674  -31.8496   26.5476 H   0  0  0  0  0  0
  -28.2564  -38.0079   24.7522 H   0  0  0  0  0  0
  -28.1085  -36.2614   24.6255 H   0  0  0  0  0  0
  -27.2301  -37.1369   25.8862 H   0  0  0  0  0  0
  -20.9563  -29.8716   21.6679 H   0  0  0  0  0  0
  -26.0122  -38.2776   24.1431 H   0  0  0  0  0  0
  -31.2953  -21.0123   20.8067 H   0  0  0  0  0  0
  -26.9038  -21.8970   19.2873 H   0  0  0  0  0  0
  -26.1021  -20.6931   20.2943 H   0  0  0  0  0  0
  -26.4860  -20.3459   18.6002 H   0  0  0  0  0  0
  -31.2024  -22.8384   19.2788 H   0  0  0  0  0  0
  -30.4510  -24.4129   19.0901 H   0  0  0  0  0  0
  -29.8442  -23.0360   18.1846 H   0  0  0  0  0  0
  -30.8946  -22.9695   21.7631 H   0  0  0  0  0  0
  -29.2828  -22.9940   22.4677 H   0  0  0  0  0  0
  -29.9724  -24.4518   21.7749 H   0  0  0  0  0  0
  -27.2606  -24.0858   20.8208 H   0  0  0  0  0  0
  -27.6003  -24.1650   19.1315 H   0  0  0  0  0  0
  -28.6269  -16.0588   20.3429 H   0  0  0  0  0  0
  1 25  1  0  0  0
  1 30  2  0  0  0
  1 82  1  0  0  0
  2  3  1  0  0  0
  2 25  1  0  0  0
  2 85  1  0  0  0
  2 86  1  0  0  0
  3  4  1  0  0  0
  3 87  1  0  0  0
  3 88  1  0  0  0
  4  5  1  0  0  0
  4 89  1  0  0  0
  4 90  1  0  0  0
  5  6  1  0  0  0
  5 26  1  0  0  0
  5 91  1  0  0  0
  6 25  1  0  0  0
  6 92  1  0  0  0
  6 93  1  0  0  0
  7  8  2  0  0  0
  7 26  1  0  0  0
  7 29  1  0  0  0
  8  9  1  0  0  0
  8 22  1  0  0  0
  9 10  1  0  0  0
  9 27  2  0  0  0
 10 11  2  0  0  0
 10 15  1  0  0  0
 11 12  1  0  0  0
 11 94  1  0  0  0
 12 13  2  0  0  0
 12 95  1  0  0  0
 13 14  1  0  0  0
 13 31  1  0  0  0
 14 15  2  0  0  0
 14 96  1  0  0  0
 15 97  1  0  0  0
 16 17  2  0  0  0
 16 21  1  0  0  0
 16 31  1  0  0  0
 17 18  1  0  0  0
 17 98  1  0  0  0
 18 19  2  0  0  0
 18 99  1  0  0  0
 19 20  1  0  0  0
 19 24  1  0  0  0
 20 21  2  0  0  0
 20100  1  0  0  0
 21 23  1  0  0  0
 22 28  1  0  0  0
 22 32  2  0  0  0
 26 27  1  0  0  0
 28101  1  0  0  0
 28102  1  0  0  0
 29103  1  0  0  0
 29104  1  0  0  0
 33 34  1  0  0  0
 33 66  1  0  0  0
 33 70  2  0  0  0
 34 36  1  0  0  0
 34 59  1  0  0  0
 34105  1  0  0  0
 35 44  2  0  0  0
 35 45  1  0  0  0
 35 68  1  0  0  0
 36 56  1  0  0  0
 36106  1  0  0  0
 37 39  1  0  0  0
 37 47  1  0  0  0
 37 66  1  0  0  0
 37107  1  0  0  0
 38 43  2  0  0  0
 38 46  1  0  0  0
 38 47  1  0  0  0
 39 64  1  0  0  0
 39 67  2  0  0  0
 40 52  1  0  0  0
 40 53  2  0  0  0
 40 58  1  0  0  0
 41108  1  0  0  0
 41109  1  0  0  0
 41110  1  0  0  0
 41 48  1  0  0  0
 42 43  1  0  0  0
 42 66  1  0  0  0
 42111  1  0  0  0
 42112  1  0  0  0
 43 44  1  0  0  0
 44113  1  0  0  0
 45 46  2  0  0  0
 45114  1  0  0  0
 46115  1  0  0  0
 47116  1  0  0  0
 47117  1  0  0  0
 48 56  1  0  0  0
 48 65  1  0  0  0
 48118  1  0  0  0
 49 50  1  0  0  0
 49 53  1  0  0  0
 49 64  1  0  0  0
 49119  1  0  0  0
 50 51  1  0  0  0
 50120  1  0  0  0
 50121  1  0  0  0
 51 52  1  0  0  0
 51122  1  0  0  0
 51123  1  0  0  0
 52124  1  0  0  0
 52125  1  0  0  0
 53 54  1  0  0  0
 54 55  2  0  0  0
 54126  1  0  0  0
 55 57  1  0  0  0
 55127  1  0  0  0
 56 69  2  0  0  0
 57 58  2  0  0  0
 57128  1  0  0  0
 58129  1  0  0  0
 59 60  1  0  0  0
 59 61  1  0  0  0
 59 62  1  0  0  0
 60130  1  0  0  0
 60131  1  0  0  0
 60132  1  0  0  0
 61133  1  0  0  0
 61134  1  0  0  0
 61135  1  0  0  0
 62136  1  0  0  0
 62137  1  0  0  0
 62138  1  0  0  0
 63 65  1  0  0  0
 63139  1  0  0  0
 63140  1  0  0  0
 63141  1  0  0  0
 64142  1  0  0  0
 65143  1  0  0  0
 68 80  1  0  0  0
 71 72  2  0  0  0
 71 75  1  0  0  0
 71144  1  0  0  0
 72 73  1  0  0  0
 72 81  1  0  0  0
 73 76  2  0  0  0
 73 77  1  0  0  0
 74 75  2  0  0  0
 74 76  1  0  0  0
 74 82  1  0  0  0
 75 83  1  0  0  0
 76 84  1  0  0  0
 77145  1  0  0  0
 77146  1  0  0  0
 77147  1  0  0  0
 78148  1  0  0  0
 78149  1  0  0  0
 78150  1  0  0  0
 78 81  1  0  0  0
 79 81  1  0  0  0
 79151  1  0  0  0
 79152  1  0  0  0
 79153  1  0  0  0
 80 81  1  0  0  0
 80154  1  0  0  0
 80155  1  0  0  0
 82156  1  0  0  0
M  ISO  4   1 100  68 101  80 101  82 100
M  END
> <chiral flag>
0

> <version>
0

> <s_m_source_file>
/data/baiqing/PycharmProjects/Reinvent-master-3.2/result/LINK_invent/BTK/process_docking_weight1_custom_sum_contain_oxygen_bond_distance_aromatic_linkinvent_7_9_3/rearranged_h_0024.sdf

> <i_m_source_file_index>
73

> <r_mmod_Potential_Energy-OPLS-2005>
1004.71789550781

> <r_mmod_Stretch_Energy-OPLS-2005>
470.562622070312

> <r_mmod_Bend_Energy-OPLS-2005>
424.171264648438

> <r_mmod_Torsional_Energy-OPLS-2005>
223.03791809082

> <r_mmod_Improper_Torsional_Energy-OPLS-2005>
5.52675104141235

> <r_mmod_Van_der_Waal_Energy-OPLS-2005>
126.460304260254

> <r_mmod_Electrostatic_Energy-OPLS-2005>
-430.882965087891

> <r_mmod_Solvation_Energy-OPLS-2005>
-199.644989013672

> <b_mmod_Minimization_Converged-OPLS-2005>
0

> <r_mmod_RMS_Derivative-OPLS-2005>
2.82962846755981

$$$$
73
                    3D
 Structure written by MMmdl.
198206  0  0  1  0            999 V2000
  -30.8354  -14.2821   20.7589 C   0  0  0  0  0  0
  -30.4094  -12.2898   19.3714 C   0  0  0  0  0  0
  -29.4734  -12.5414   18.1797 C   0  0  0  0  0  0
  -28.0068  -12.3785   18.6106 C   0  0  0  0  0  0
  -27.6669  -13.2055   19.8762 C   0  0  2  0  0  0
  -28.7055  -12.9630   20.9943 C   0  0  0  0  0  0
  -25.2606  -13.8151   20.5678 C   0  0  0  0  0  0
  -24.1851  -13.0446   20.9167 C   0  0  0  0  0  0
  -24.6399  -11.6911   20.8732 C   0  0  0  0  0  0
  -23.9071  -10.4292   21.0393 C   0  0  0  0  0  0
  -24.3621   -9.4213   21.9177 C   0  0  0  0  0  0
  -23.6289   -8.2250   22.0755 C   0  0  0  0  0  0
  -22.4273   -8.0284   21.3545 C   0  0  0  0  0  0
  -21.9908   -9.0254   20.4646 C   0  0  0  0  0  0
  -22.7240  -10.2136   20.3044 C   0  0  0  0  0  0
  -21.6847   -6.0728   22.5280 C   0  0  0  0  0  0
  -21.4012   -6.5641   23.8216 C   0  0  0  0  0  0
  -21.3658   -5.6792   24.9180 C   0  0  0  0  0  0
  -21.6055   -4.3059   24.7225 C   0  0  0  0  0  0
  -21.8818   -3.8139   23.4347 C   0  0  0  0  0  0
  -21.9191   -4.6955   22.3399 C   0  0  0  0  0  0
  -22.7877  -13.5248   21.1846 C   0  0  0  0  0  0
  -22.1663   -4.2143   21.0975 F   0  0  0  0  0  0
  -21.5628   -3.4540   25.7739 F   0  0  0  0  0  0
  -30.0586  -13.2138   20.4590 N   0  0  0  0  0  0
  -26.3055  -12.9342   20.3371 N   0  0  0  0  0  0
  -25.9328  -11.6500   20.5754 N   0  0  0  0  0  0
  -22.0513  -12.8230   22.0381 N   0  0  0  0  0  0
  -25.4340  -15.1868   20.4083 N   0  0  0  0  0  0
  -31.7565  -14.6841   20.0394 O   0  0  0  0  0  0
  -21.6643   -6.8871   21.4243 O   0  0  0  0  0  0
  -22.3587  -14.5571   20.6698 O   0  0  0  0  0  0
  -24.6128  -31.8726   23.2129 C   0  0  0  0  0  0
  -25.9031  -32.4831   23.8429 C   0  0  1  0  0  0
  -27.2505  -27.4799   20.0774 C   0  0  0  0  0  0
  -25.5926  -33.8623   24.2383 N   0  0  0  0  0  0
  -23.3994  -30.4992   21.5527 C   0  0  2  0  0  0
  -24.8460  -28.9657   20.1292 C   0  0  0  0  0  0
  -22.7404  -29.4709   22.5013 C   0  0  0  0  0  0
  -18.0287  -28.1407   22.8505 C   0  0  0  0  0  0
  -24.1486  -36.7324   23.2624 C   0  0  0  0  0  0
  -25.9232  -30.8556   21.3554 C   0  0  0  0  0  0
  -26.0052  -29.4887   20.7140 C   0  0  0  0  0  0
  -27.2102  -28.7539   20.6850 C   0  0  0  0  0  0
  -26.0555  -26.9493   19.5485 C   0  0  0  0  0  0
  -24.8598  -27.6883   19.5535 C   0  0  0  0  0  0
  -23.6069  -29.8261   20.1711 C   0  0  0  0  0  0
  -25.4095  -36.3088   24.0333 C   0  0  1  0  0  0
  -20.5863  -28.3682   23.1334 C   0  0  2  0  0  0
  -20.6785  -26.9440   22.5402 C   0  0  0  0  0  0
  -19.5756  -26.6432   21.5204 C   0  0  0  0  0  0
  -18.1935  -26.7971   22.1615 C   0  0  0  0  0  0
  -19.1524  -28.8857   23.2915 C   0  0  0  0  0  0
  -18.9440  -30.1461   23.8926 C   0  0  0  0  0  0
  -17.6435  -30.6605   24.0552 C   0  0  0  0  0  0
  -25.9016  -34.9456   23.5145 C   0  0  0  0  0  0
  -16.5330  -29.9109   23.6304 C   0  0  0  0  0  0
  -16.7263  -28.6521   23.0338 C   0  0  0  0  0  0
  -26.4490  -31.6563   25.0716 C   0  0  0  0  0  0
  -25.3792  -31.3585   26.1472 C   0  0  0  0  0  0
  -27.0364  -30.3033   24.6038 C   0  0  0  0  0  0
  -27.6091  -32.4275   25.7477 C   0  0  0  0  0  0
  -27.5583  -37.1783   24.8452 C   0  0  0  0  0  0
  -21.4127  -29.3056   22.3746 N   0  0  0  0  0  0
  -26.4284  -37.3766   23.9407 N   0  0  0  0  0  0
  -24.6640  -31.0865   22.1008 N   0  0  0  0  0  0
  -23.4184  -28.8246   23.3031 O   0  0  0  0  0  0
  -28.4653  -26.8292   20.0191 O   0  0  0  0  0  0
  -26.5562  -34.8903   22.4681 O   0  0  0  0  0  0
  -23.5318  -32.1471   23.7516 O   0  0  0  0  0  0
  -24.6277  -22.4090   19.5565 C   0  0  0  0  0  0
  -24.3392  -21.1776   20.2149 C   0  0  0  0  0  0
  -24.7443  -22.4547   18.1334 C   0  0  0  0  0  0
  -23.9910  -20.0381   19.4395 C   0  0  0  0  0  0
  -24.3983  -21.3053   17.3668 C   0  0  0  0  0  0
  -23.9785  -20.1209   18.0243 C   0  0  0  0  0  0
  -24.8160  -23.6837   20.3888 C   0  0  0  0  0  0
  -23.6203  -18.7249   20.1309 C   0  0  0  0  0  0
  -23.1917  -21.9653   15.2182 C   0  0  0  0  0  0
  -26.1881  -22.6486   23.9238 C   0  0  0  0  0  0
  -24.4474  -21.3300   15.8323 C   0  0  0  0  0  0
  -25.2995  -23.7149   17.4392 C   0  0  0  0  0  0
  -24.4940  -21.0598   21.7448 C   0  0  0  0  0  0
  -29.5383  -18.9079   23.2520 C   0  0  0  0  0  0
  -29.7749  -17.4030   23.0770 C   0  0  0  0  0  0
  -28.0549  -19.2485   23.4242 C   0  0  0  0  0  0
  -31.2175  -17.0926   22.6511 C   0  0  0  0  0  0
  -27.8235  -20.7548   23.6321 C   0  0  0  0  0  0
  -28.6960  -25.4053   17.9426 C   0  0  0  0  0  0
  -31.5946  -15.6048   22.7359 C   0  0  0  0  0  0
  -27.4115  -25.0456   17.1491 C   0  0  0  0  0  0
  -28.5830  -25.5074   19.4884 C   0  0  0  0  0  0
  -26.3484  -21.1801   23.4789 C   0  0  2  0  0  0
  -30.6727  -14.7353   22.0074 N   0  0  0  0  0  0
  -26.7645  -23.7999   17.6370 N   0  3  0  0  0  0
  -25.9348  -20.9717   22.0684 N   0  3  0  0  0  0
  -23.4658  -18.7537   17.0830 Cl  0  0  0  0  0  0
  -31.4509  -12.3922   19.0612 H   0  0  0  0  0  0
  -30.3055  -11.2635   19.7254 H   0  0  0  0  0  0
  -29.7044  -11.8524   17.3667 H   0  0  0  0  0  0
  -29.6362  -13.5463   17.7877 H   0  0  0  0  0  0
  -27.8301  -11.3192   18.8007 H   0  0  0  0  0  0
  -27.3417  -12.6546   17.7909 H   0  0  0  0  0  0
  -27.7241  -14.2569   19.5956 H   0  0  0  0  0  0
  -28.6505  -11.9342   21.3529 H   0  0  0  0  0  0
  -28.4555  -13.5909   21.8496 H   0  0  0  0  0  0
  -25.2752   -9.5692   22.4763 H   0  0  0  0  0  0
  -23.9993   -7.4651   22.7479 H   0  0  0  0  0  0
  -21.0839   -8.8772   19.8953 H   0  0  0  0  0  0
  -22.3686  -10.9672   19.6160 H   0  0  0  0  0  0
  -21.2007   -7.6152   23.9714 H   0  0  0  0  0  0
  -21.1486   -6.0523   25.9084 H   0  0  0  0  0  0
  -22.0597   -2.7602   23.2853 H   0  0  0  0  0  0
  -22.4111  -11.9868   22.4742 H   0  0  0  0  0  0
  -21.1136  -13.1270   22.2579 H   0  0  0  0  0  0
  -24.6631  -15.8374   20.4940 H   0  0  0  0  0  0
  -26.2905  -15.6214   20.0907 H   0  0  0  0  0  0
  -26.7141  -32.5577   23.1237 H   0  0  0  0  0  0
  -25.0079  -33.9757   25.0544 H   0  0  0  0  0  0
  -22.6896  -31.3168   21.4096 H   0  0  0  0  0  0
  -23.3723  -35.9680   23.3246 H   0  0  0  0  0  0
  -24.3596  -36.8985   22.2049 H   0  0  0  0  0  0
  -23.7280  -37.6521   23.6700 H   0  0  0  0  0  0
  -26.0037  -31.6162   20.5761 H   0  0  0  0  0  0
  -26.8259  -30.9312   21.9538 H   0  0  0  0  0  0
  -28.1153  -29.1677   21.1116 H   0  0  0  0  0  0
  -26.0298  -25.9643   19.1368 H   0  0  0  0  0  0
  -23.9590  -27.2646   19.1321 H   0  0  0  0  0  0
  -23.7171  -30.5905   19.4002 H   0  0  0  0  0  0
  -22.7328  -29.2376   19.8848 H   0  0  0  0  0  0
  -25.1251  -36.1941   25.0824 H   0  0  0  0  0  0
  -20.9898  -28.3272   24.1475 H   0  0  0  0  0  0
  -20.5695  -26.2312   23.3586 H   0  0  0  0  0  0
  -21.6655  -26.7538   22.1175 H   0  0  0  0  0  0
  -19.6885  -25.6343   21.1250 H   0  0  0  0  0  0
  -19.6664  -27.3212   20.6710 H   0  0  0  0  0  0
  -17.4194  -26.6717   21.4036 H   0  0  0  0  0  0
  -18.0286  -26.0157   22.9029 H   0  0  0  0  0  0
  -19.7909  -30.7258   24.2329 H   0  0  0  0  0  0
  -17.5006  -31.6287   24.5158 H   0  0  0  0  0  0
  -15.5318  -30.2988   23.7644 H   0  0  0  0  0  0
  -15.8682  -28.0831   22.7028 H   0  0  0  0  0  0
  -24.6019  -30.6870   25.7784 H   0  0  0  0  0  0
  -24.8902  -32.2690   26.4943 H   0  0  0  0  0  0
  -25.8198  -30.8751   27.0199 H   0  0  0  0  0  0
  -26.2896  -29.6694   24.1237 H   0  0  0  0  0  0
  -27.4346  -29.7316   25.4424 H   0  0  0  0  0  0
  -27.8620  -30.4383   23.9052 H   0  0  0  0  0  0
  -27.2770  -33.3600   26.2050 H   0  0  0  0  0  0
  -28.3913  -32.6774   25.0297 H   0  0  0  0  0  0
  -28.0764  -31.8402   26.5386 H   0  0  0  0  0  0
  -28.2504  -38.0164   24.7551 H   0  0  0  0  0  0
  -28.1176  -36.2679   24.6214 H   0  0  0  0  0  0
  -27.2307  -37.1322   25.8854 H   0  0  0  0  0  0
  -20.9288  -29.8759   21.6957 H   0  0  0  0  0  0
  -26.0149  -38.2814   24.1503 H   0  0  0  0  0  0
  -24.2279  -23.6983   21.3023 H   0  0  0  0  0  0
  -24.4486  -24.5642   19.8700 H   0  0  0  0  0  0
  -25.8570  -23.8356   20.6683 H   0  0  0  0  0  0
  -24.4744  -18.3288   20.6786 H   0  0  0  0  0  0
  -23.2942  -17.9358   19.4593 H   0  0  0  0  0  0
  -22.7933  -18.8799   20.8235 H   0  0  0  0  0  0
  -23.2382  -21.9461   14.1293 H   0  0  0  0  0  0
  -23.0624  -23.0019   15.5241 H   0  0  0  0  0  0
  -22.2956  -21.4225   15.5166 H   0  0  0  0  0  0
  -26.5655  -22.7877   24.9377 H   0  0  0  0  0  0
  -25.1468  -22.9666   23.9329 H   0  0  0  0  0  0
  -26.7476  -23.3311   23.2825 H   0  0  0  0  0  0
  -24.5669  -20.3287   15.4210 H   0  0  0  0  0  0
  -25.3461  -21.8320   15.4773 H   0  0  0  0  0  0
  -24.7939  -24.6053   17.8047 H   0  0  0  0  0  0
  -25.0985  -23.7521   16.3728 H   0  0  0  0  0  0
  -24.0016  -20.1837   22.1625 H   0  0  0  0  0  0
  -24.0111  -21.8886   22.2544 H   0  0  0  0  0  0
  -29.9234  -19.4392   22.3801 H   0  0  0  0  0  0
  -30.1059  -19.2711   24.1111 H   0  0  0  0  0  0
  -29.0896  -17.0079   22.3256 H   0  0  0  0  0  0
  -29.5395  -16.8927   24.0121 H   0  0  0  0  0  0
  -27.6397  -18.6967   24.2695 H   0  0  0  0  0  0
  -27.5255  -18.8970   22.5384 H   0  0  0  0  0  0
  -31.9053  -17.6547   23.2854 H   0  0  0  0  0  0
  -31.3817  -17.4566   21.6352 H   0  0  0  0  0  0
  -28.4388  -21.3261   22.9338 H   0  0  0  0  0  0
  -28.1873  -21.0238   24.6253 H   0  0  0  0  0  0
  -29.1186  -26.3340   17.5582 H   0  0  0  0  0  0
  -29.4470  -24.6491   17.7119 H   0  0  0  0  0  0
  -31.5964  -15.2886   23.7795 H   0  0  0  0  0  0
  -32.6184  -15.4652   22.3819 H   0  0  0  0  0  0
  -27.6679  -24.9024   16.0987 H   0  0  0  0  0  0
  -26.7202  -25.8872   17.1425 H   0  0  0  0  0  0
  -29.5313  -25.1503   19.8923 H   0  0  0  0  0  0
  -27.8413  -24.8330   19.9119 H   0  0  0  0  0  0
  -25.7340  -20.5466   24.1241 H   0  0  0  0  0  0
  -29.9341  -14.3006   22.5412 H   0  0  0  0  0  0
  -27.1990  -23.0050   17.1928 H   0  0  0  0  0  0
  -26.9346  -23.7144   18.6224 H   0  0  0  0  0  0
  -26.4384  -21.6110   21.4786 H   0  0  0  0  0  0
  -26.2292  -20.0442   21.8058 H   0  0  0  0  0  0
  1 25  1  0  0  0
  1 30  2  0  0  0
  1 94  1  0  0  0
  2  3  1  0  0  0
  2 25  1  0  0  0
  2 98  1  0  0  0
  2 99  1  0  0  0
  3  4  1  0  0  0
  3100  1  0  0  0
  3101  1  0  0  0
  4  5  1  0  0  0
  4102  1  0  0  0
  4103  1  0  0  0
  5  6  1  0  0  0
  5 26  1  0  0  0
  5104  1  0  0  0
  6 25  1  0  0  0
  6105  1  0  0  0
  6106  1  0  0  0
  7  8  2  0  0  0
  7 26  1  0  0  0
  7 29  1  0  0  0
  8  9  1  0  0  0
  8 22  1  0  0  0
  9 10  1  0  0  0
  9 27  2  0  0  0
 10 11  2  0  0  0
 10 15  1  0  0  0
 11 12  1  0  0  0
 11107  1  0  0  0
 12 13  2  0  0  0
 12108  1  0  0  0
 13 14  1  0  0  0
 13 31  1  0  0  0
 14 15  2  0  0  0
 14109  1  0  0  0
 15110  1  0  0  0
 16 17  2  0  0  0
 16 21  1  0  0  0
 16 31  1  0  0  0
 17 18  1  0  0  0
 17111  1  0  0  0
 18 19  2  0  0  0
 18112  1  0  0  0
 19 20  1  0  0  0
 19 24  1  0  0  0
 20 21  2  0  0  0
 20113  1  0  0  0
 21 23  1  0  0  0
 22 28  1  0  0  0
 22 32  2  0  0  0
 26 27  1  0  0  0
 28114  1  0  0  0
 28115  1  0  0  0
 29116  1  0  0  0
 29117  1  0  0  0
 33 34  1  0  0  0
 33 66  1  0  0  0
 33 70  2  0  0  0
 34 36  1  0  0  0
 34 59  1  0  0  0
 34118  1  0  0  0
 35 44  2  0  0  0
 35 45  1  0  0  0
 35 68  1  0  0  0
 36 56  1  0  0  0
 36119  1  0  0  0
 37 39  1  0  0  0
 37 47  1  0  0  0
 37 66  1  0  0  0
 37120  1  0  0  0
 38 43  2  0  0  0
 38 46  1  0  0  0
 38 47  1  0  0  0
 39 64  1  0  0  0
 39 67  2  0  0  0
 40 52  1  0  0  0
 40 53  2  0  0  0
 40 58  1  0  0  0
 41121  1  0  0  0
 41122  1  0  0  0
 41123  1  0  0  0
 41 48  1  0  0  0
 42 43  1  0  0  0
 42 66  1  0  0  0
 42124  1  0  0  0
 42125  1  0  0  0
 43 44  1  0  0  0
 44126  1  0  0  0
 45 46  2  0  0  0
 45127  1  0  0  0
 46128  1  0  0  0
 47129  1  0  0  0
 47130  1  0  0  0
 48 56  1  0  0  0
 48 65  1  0  0  0
 48131  1  0  0  0
 49 50  1  0  0  0
 49 53  1  0  0  0
 49 64  1  0  0  0
 49132  1  0  0  0
 50 51  1  0  0  0
 50133  1  0  0  0
 50134  1  0  0  0
 51 52  1  0  0  0
 51135  1  0  0  0
 51136  1  0  0  0
 52137  1  0  0  0
 52138  1  0  0  0
 53 54  1  0  0  0
 54 55  2  0  0  0
 54139  1  0  0  0
 55 57  1  0  0  0
 55140  1  0  0  0
 56 69  2  0  0  0
 57 58  2  0  0  0
 57141  1  0  0  0
 58142  1  0  0  0
 59 60  1  0  0  0
 59 61  1  0  0  0
 59 62  1  0  0  0
 60143  1  0  0  0
 60144  1  0  0  0
 60145  1  0  0  0
 61146  1  0  0  0
 61147  1  0  0  0
 61148  1  0  0  0
 62149  1  0  0  0
 62150  1  0  0  0
 62151  1  0  0  0
 63 65  1  0  0  0
 63152  1  0  0  0
 63153  1  0  0  0
 63154  1  0  0  0
 64155  1  0  0  0
 65156  1  0  0  0
 68 92  1  0  0  0
 71 72  2  0  0  0
 71 73  1  0  0  0
 71 77  1  0  0  0
 72 74  1  0  0  0
 72 83  1  0  0  0
 73 75  2  0  0  0
 73 82  1  0  0  0
 74 76  2  0  0  0
 74 78  1  0  0  0
 75 76  1  0  0  0
 75 81  1  0  0  0
 76 97  1  0  0  0
 77157  1  0  0  0
 77158  1  0  0  0
 77159  1  0  0  0
 78160  1  0  0  0
 78161  1  0  0  0
 78162  1  0  0  0
 79 81  1  0  0  0
 79163  1  0  0  0
 79164  1  0  0  0
 79165  1  0  0  0
 80166  1  0  0  0
 80167  1  0  0  0
 80168  1  0  0  0
 80 93  1  0  0  0
 81169  1  0  0  0
 81170  1  0  0  0
 82 95  1  0  0  0
 82171  1  0  0  0
 82172  1  0  0  0
 83 96  1  0  0  0
 83173  1  0  0  0
 83174  1  0  0  0
 84 85  1  0  0  0
 84 86  1  0  0  0
 84175  1  0  0  0
 84176  1  0  0  0
 85 87  1  0  0  0
 85177  1  0  0  0
 85178  1  0  0  0
 86 88  1  0  0  0
 86179  1  0  0  0
 86180  1  0  0  0
 87 90  1  0  0  0
 87181  1  0  0  0
 87182  1  0  0  0
 88 93  1  0  0  0
 88183  1  0  0  0
 88184  1  0  0  0
 89 91  1  0  0  0
 89 92  1  0  0  0
 89185  1  0  0  0
 89186  1  0  0  0
 90 94  1  0  0  0
 90187  1  0  0  0
 90188  1  0  0  0
 91 95  1  0  0  0
 91189  1  0  0  0
 91190  1  0  0  0
 92191  1  0  0  0
 92192  1  0  0  0
 93 96  1  0  0  0
 93193  1  0  0  0
 94194  1  0  0  0
 95195  1  0  0  0
 95196  1  0  0  0
 96197  1  0  0  0
 96198  1  0  0  0
M  CHG  2  95   1  96   1
M  ISO  4   1 100  68 101  92 101  94 100
M  END
> <chiral flag>
0

> <version>
0

> <s_m_source_file>
/data/baiqing/PycharmProjects/Reinvent-master-3.2/result/LINK_invent/BTK/process_docking_weight1_custom_sum_contain_oxygen_bond_distance_aromatic_linkinvent_7_9_3/rearranged_h_0024.sdf

> <i_m_source_file_index>
74

> <r_mmod_Potential_Energy-OPLS-2005>
-364.019989013672

> <r_mmod_Stretch_Energy-OPLS-2005>
43.4643173217773

> <r_mmod_Bend_Energy-OPLS-2005>
121.610885620117

> <r_mmod_Torsional_Energy-OPLS-2005>
223.313400268555

> <r_mmod_Improper_Torsional_Energy-OPLS-2005>
5.0258207321167

> <r_mmod_Van_der_Waal_Energy-OPLS-2005>
160.97721862793

> <r_mmod_Electrostatic_Energy-OPLS-2005>
-0.0284316018223763

> <r_mmod_Solvation_Energy-OPLS-2005>
-928.119018554688

> <b_mmod_Minimization_Converged-OPLS-2005>
0

> <r_mmod_RMS_Derivative-OPLS-2005>
3.20777702331543

$$$$
74
                    3D
 Structure written by MMmdl.
158166  0  0  1  0            999 V2000
  -30.4227  -15.1998   20.3661 C   0  0  0  0  0  0
  -30.4464  -12.7550   19.5206 C   0  0  0  0  0  0
  -29.5335  -12.5654   18.2822 C   0  0  0  0  0  0
  -28.0777  -12.3003   18.7072 C   0  0  0  0  0  0
  -27.6176  -13.2629   19.8302 C   0  0  2  0  0  0
  -28.6541  -13.3883   20.9674 C   0  0  0  0  0  0
  -25.2411  -13.8225   20.5733 C   0  0  0  0  0  0
  -24.1750  -13.0431   20.9252 C   0  0  0  0  0  0
  -24.6383  -11.6925   20.8749 C   0  0  0  0  0  0
  -23.9068  -10.4291   21.0398 C   0  0  0  0  0  0
  -24.3618   -9.4207   21.9174 C   0  0  0  0  0  0
  -23.6291   -8.2242   22.0749 C   0  0  0  0  0  0
  -22.4273   -8.0272   21.3537 C   0  0  0  0  0  0
  -21.9910   -9.0246   20.4639 C   0  0  0  0  0  0
  -22.7238  -10.2124   20.3048 C   0  0  0  0  0  0
  -21.6859   -6.0721   22.5268 C   0  0  0  0  0  0
  -21.4017   -6.5628   23.8201 C   0  0  0  0  0  0
  -21.3662   -5.6782   24.9164 C   0  0  0  0  0  0
  -21.6052   -4.3049   24.7220 C   0  0  0  0  0  0
  -21.8821   -3.8135   23.4341 C   0  0  0  0  0  0
  -21.9192   -4.6951   22.3398 C   0  0  0  0  0  0
  -22.7767  -13.5192   21.1903 C   0  0  0  0  0  0
  -22.1662   -4.2132   21.0976 F   0  0  0  0  0  0
  -21.5628   -3.4536   25.7734 F   0  0  0  0  0  0
  -29.8975  -13.8820   20.3536 N   0  0  0  0  0  0
  -26.2833  -12.9476   20.3225 N   0  0  0  0  0  0
  -25.9318  -11.6596   20.5725 N   0  0  0  0  0  0
  -22.0425  -12.8170   22.0454 N   0  0  0  0  0  0
  -25.4052  -15.1961   20.4145 N   0  0  0  0  0  0
  -31.6371  -15.2496   20.1131 O   0  0  0  0  0  0
  -21.6647   -6.8867   21.4234 O   0  0  0  0  0  0
  -22.3451  -14.5495   20.6745 O   0  0  0  0  0  0
  -24.6576  -31.8269   23.1731 C   0  0  0  0  0  0
  -25.9283  -32.4602   23.8175 C   0  0  1  0  0  0
  -27.2198  -26.9720   20.1733 C   0  0  0  0  0  0
  -25.5973  -33.8414   24.2087 N   0  0  0  0  0  0
  -23.4694  -30.4392   21.5234 C   0  0  2  0  0  0
  -24.9234  -28.8341   20.1117 C   0  0  0  0  0  0
  -22.7636  -29.4435   22.4809 C   0  0  0  0  0  0
  -18.0308  -28.1377   22.8449 C   0  0  0  0  0  0
  -24.1498  -36.7215   23.2644 C   0  0  0  0  0  0
  -26.0367  -30.6482   21.3965 C   0  0  0  0  0  0
  -26.1070  -29.2430   20.7389 C   0  0  0  0  0  0
  -27.2525  -28.3340   20.7421 C   0  0  0  0  0  0
  -26.0046  -26.7009   19.5068 C   0  0  0  0  0  0
  -24.8945  -27.5819   19.4773 C   0  0  0  0  0  0
  -23.7071  -29.7564   20.1483 C   0  0  0  0  0  0
  -25.4137  -36.2973   24.0301 C   0  0  1  0  0  0
  -20.5929  -28.3711   23.1200 C   0  0  2  0  0  0
  -20.6780  -26.9397   22.5403 C   0  0  0  0  0  0
  -19.5763  -26.6354   21.5198 C   0  0  0  0  0  0
  -18.1941  -26.7908   22.1603 C   0  0  0  0  0  0
  -19.1571  -28.8865   23.2805 C   0  0  0  0  0  0
  -18.9487  -30.1456   23.8841 C   0  0  0  0  0  0
  -17.6486  -30.6572   24.0538 C   0  0  0  0  0  0
  -25.9099  -34.9357   23.5015 C   0  0  0  0  0  0
  -16.5375  -29.9057   23.6337 C   0  0  0  0  0  0
  -16.7296  -28.6478   23.0353 C   0  0  0  0  0  0
  -26.4557  -31.6529   25.0688 C   0  0  0  0  0  0
  -25.3689  -31.3778   26.1347 C   0  0  0  0  0  0
  -27.0441  -30.2897   24.6386 C   0  0  0  0  0  0
  -27.6047  -32.4349   25.7483 C   0  0  0  0  0  0
  -27.5574  -37.1758   24.8463 C   0  0  0  0  0  0
  -21.4308  -29.3019   22.3567 N   0  0  0  0  0  0
  -26.4280  -37.3709   23.9412 N   0  0  0  0  0  0
  -24.7423  -30.9964   22.0854 N   0  0  0  0  0  0
  -23.4218  -28.7989   23.3008 O   0  0  0  0  0  0
  -28.2440  -25.9025   20.2310 O   0  0  0  0  0  0
  -26.5697  -34.8884   22.4602 O   0  0  0  0  0  0
  -23.5663  -32.1229   23.6848 O   0  0  0  0  0  0
  -28.3354  -18.7558   20.7649 C   0  0  0  0  0  0
  -28.1488  -20.2280   20.7105 C   0  0  0  0  0  0
  -29.1394  -21.1743   20.2324 C   0  0  0  0  0  0
  -30.2796  -20.3289   19.8403 C   0  0  0  0  0  0
  -29.5156  -17.9887   20.3869 C   0  0  0  0  0  0
  -26.8360  -20.8018   21.2067 C   0  0  0  0  0  0
  -33.8863  -21.8249   19.8170 C   0  0  0  0  0  0
  -29.1465  -22.9260   20.2447 C   0  0  0  0  0  0
  -31.5338  -20.9851   19.2810 C   0  0  0  0  0  0
  -32.5309  -21.3797   20.3812 C   0  0  0  0  0  0
  -28.0059  -24.2847   20.1677 C   0  0  0  0  0  0
  -30.4423  -18.9143   19.9246 N   0  0  0  0  0  0
  -29.5665  -16.3886   20.5042 N   0  0  0  0  0  0
  -31.4655  -12.9608   19.1917 H   0  0  0  0  0  0
  -30.5055  -11.8353   20.1048 H   0  0  0  0  0  0
  -29.8996  -11.7458   17.6623 H   0  0  0  0  0  0
  -29.5727  -13.4625   17.6620 H   0  0  0  0  0  0
  -28.0218  -11.2706   19.0626 H   0  0  0  0  0  0
  -27.4088  -12.3650   17.8479 H   0  0  0  0  0  0
  -27.5471  -14.2418   19.3539 H   0  0  0  0  0  0
  -28.8043  -12.4352   21.4774 H   0  0  0  0  0  0
  -28.3068  -14.0909   21.7264 H   0  0  0  0  0  0
  -25.2760   -9.5688   22.4752 H   0  0  0  0  0  0
  -23.9997   -7.4640   22.7478 H   0  0  0  0  0  0
  -21.0836   -8.8764   19.8947 H   0  0  0  0  0  0
  -22.3690  -10.9660   19.6159 H   0  0  0  0  0  0
  -21.2015   -7.6137   23.9697 H   0  0  0  0  0  0
  -21.1485   -6.0516   25.9066 H   0  0  0  0  0  0
  -22.0600   -2.7595   23.2848 H   0  0  0  0  0  0
  -22.4068  -11.9843   22.4837 H   0  0  0  0  0  0
  -21.1033  -13.1168   22.2658 H   0  0  0  0  0  0
  -24.6268  -15.8378   20.5193 H   0  0  0  0  0  0
  -26.2232  -15.6333   20.0132 H   0  0  0  0  0  0
  -26.7342  -32.5164   23.0877 H   0  0  0  0  0  0
  -25.0104  -33.9513   25.0227 H   0  0  0  0  0  0
  -22.7789  -31.2685   21.3544 H   0  0  0  0  0  0
  -23.3780  -35.9522   23.3266 H   0  0  0  0  0  0
  -24.3578  -36.8899   22.2065 H   0  0  0  0  0  0
  -23.7235  -37.6385   23.6731 H   0  0  0  0  0  0
  -26.2107  -31.3940   20.6206 H   0  0  0  0  0  0
  -26.8997  -30.7029   22.0477 H   0  0  0  0  0  0
  -28.1532  -28.6462   21.2522 H   0  0  0  0  0  0
  -25.8802  -25.7434   19.0223 H   0  0  0  0  0  0
  -23.9937  -27.2619   18.9717 H   0  0  0  0  0  0
  -23.8566  -30.5274   19.3913 H   0  0  0  0  0  0
  -22.8183  -29.2080   19.8308 H   0  0  0  0  0  0
  -25.1325  -36.1773   25.0793 H   0  0  0  0  0  0
  -21.0005  -28.3299   24.1328 H   0  0  0  0  0  0
  -20.5644  -26.2315   23.3627 H   0  0  0  0  0  0
  -21.6644  -26.7354   22.1223 H   0  0  0  0  0  0
  -19.6932  -25.6258   21.1246 H   0  0  0  0  0  0
  -19.6725  -27.3138   20.6708 H   0  0  0  0  0  0
  -17.4217  -26.6649   21.4007 H   0  0  0  0  0  0
  -18.0334  -26.0049   22.9001 H   0  0  0  0  0  0
  -19.7973  -30.7262   24.2199 H   0  0  0  0  0  0
  -17.5046  -31.6255   24.5128 H   0  0  0  0  0  0
  -15.5374  -30.2936   23.7697 H   0  0  0  0  0  0
  -15.8690  -28.0773   22.7111 H   0  0  0  0  0  0
  -24.5888  -30.7105   25.7659 H   0  0  0  0  0  0
  -24.8861  -32.2981   26.4646 H   0  0  0  0  0  0
  -25.7920  -30.9033   27.0207 H   0  0  0  0  0  0
  -26.3091  -29.6583   24.1379 H   0  0  0  0  0  0
  -27.3977  -29.7247   25.5020 H   0  0  0  0  0  0
  -27.9028  -30.4084   23.9772 H   0  0  0  0  0  0
  -27.2614  -33.3708   26.1902 H   0  0  0  0  0  0
  -28.3928  -32.6815   25.0358 H   0  0  0  0  0  0
  -28.0626  -31.8584   26.5531 H   0  0  0  0  0  0
  -28.2548  -38.0090   24.7518 H   0  0  0  0  0  0
  -28.1114  -36.2616   24.6278 H   0  0  0  0  0  0
  -27.2294  -37.1368   25.8863 H   0  0  0  0  0  0
  -20.9546  -29.8763   21.6751 H   0  0  0  0  0  0
  -26.0133  -38.2765   24.1448 H   0  0  0  0  0  0
  -27.5022  -18.1762   21.1398 H   0  0  0  0  0  0
  -26.1446  -20.0220   21.5265 H   0  0  0  0  0  0
  -26.3477  -21.3771   20.4199 H   0  0  0  0  0  0
  -27.0120  -21.4647   22.0538 H   0  0  0  0  0  0
  -34.5634  -22.1213   20.6183 H   0  0  0  0  0  0
  -33.7773  -22.6737   19.1405 H   0  0  0  0  0  0
  -34.3666  -21.0145   19.2665 H   0  0  0  0  0  0
  -29.8116  -23.1771   19.4227 H   0  0  0  0  0  0
  -29.7400  -23.1422   21.1325 H   0  0  0  0  0  0
  -31.2837  -21.8387   18.6534 H   0  0  0  0  0  0
  -32.0149  -20.2798   18.6019 H   0  0  0  0  0  0
  -32.1029  -22.1710   20.9974 H   0  0  0  0  0  0
  -32.6911  -20.5270   21.0427 H   0  0  0  0  0  0
  -27.2877  -24.1000   20.9660 H   0  0  0  0  0  0
  -27.4415  -24.1225   19.2497 H   0  0  0  0  0  0
  -28.6513  -16.0467   20.7463 H   0  0  0  0  0  0
  1 25  1  0  0  0
  1 30  2  0  0  0
  1 83  1  0  0  0
  2  3  1  0  0  0
  2 25  1  0  0  0
  2 84  1  0  0  0
  2 85  1  0  0  0
  3  4  1  0  0  0
  3 86  1  0  0  0
  3 87  1  0  0  0
  4  5  1  0  0  0
  4 88  1  0  0  0
  4 89  1  0  0  0
  5  6  1  0  0  0
  5 26  1  0  0  0
  5 90  1  0  0  0
  6 25  1  0  0  0
  6 91  1  0  0  0
  6 92  1  0  0  0
  7  8  2  0  0  0
  7 26  1  0  0  0
  7 29  1  0  0  0
  8  9  1  0  0  0
  8 22  1  0  0  0
  9 10  1  0  0  0
  9 27  2  0  0  0
 10 11  2  0  0  0
 10 15  1  0  0  0
 11 12  1  0  0  0
 11 93  1  0  0  0
 12 13  2  0  0  0
 12 94  1  0  0  0
 13 14  1  0  0  0
 13 31  1  0  0  0
 14 15  2  0  0  0
 14 95  1  0  0  0
 15 96  1  0  0  0
 16 17  2  0  0  0
 16 21  1  0  0  0
 16 31  1  0  0  0
 17 18  1  0  0  0
 17 97  1  0  0  0
 18 19  2  0  0  0
 18 98  1  0  0  0
 19 20  1  0  0  0
 19 24  1  0  0  0
 20 21  2  0  0  0
 20 99  1  0  0  0
 21 23  1  0  0  0
 22 28  1  0  0  0
 22 32  2  0  0  0
 26 27  1  0  0  0
 28100  1  0  0  0
 28101  1  0  0  0
 29102  1  0  0  0
 29103  1  0  0  0
 33 34  1  0  0  0
 33 66  1  0  0  0
 33 70  2  0  0  0
 34 36  1  0  0  0
 34 59  1  0  0  0
 34104  1  0  0  0
 35 44  2  0  0  0
 35 45  1  0  0  0
 35 68  1  0  0  0
 36 56  1  0  0  0
 36105  1  0  0  0
 37 39  1  0  0  0
 37 47  1  0  0  0
 37 66  1  0  0  0
 37106  1  0  0  0
 38 43  2  0  0  0
 38 46  1  0  0  0
 38 47  1  0  0  0
 39 64  1  0  0  0
 39 67  2  0  0  0
 40 52  1  0  0  0
 40 53  2  0  0  0
 40 58  1  0  0  0
 41107  1  0  0  0
 41108  1  0  0  0
 41109  1  0  0  0
 41 48  1  0  0  0
 42 43  1  0  0  0
 42 66  1  0  0  0
 42110  1  0  0  0
 42111  1  0  0  0
 43 44  1  0  0  0
 44112  1  0  0  0
 45 46  2  0  0  0
 45113  1  0  0  0
 46114  1  0  0  0
 47115  1  0  0  0
 47116  1  0  0  0
 48 56  1  0  0  0
 48 65  1  0  0  0
 48117  1  0  0  0
 49 50  1  0  0  0
 49 53  1  0  0  0
 49 64  1  0  0  0
 49118  1  0  0  0
 50 51  1  0  0  0
 50119  1  0  0  0
 50120  1  0  0  0
 51 52  1  0  0  0
 51121  1  0  0  0
 51122  1  0  0  0
 52123  1  0  0  0
 52124  1  0  0  0
 53 54  1  0  0  0
 54 55  2  0  0  0
 54125  1  0  0  0
 55 57  1  0  0  0
 55126  1  0  0  0
 56 69  2  0  0  0
 57 58  2  0  0  0
 57127  1  0  0  0
 58128  1  0  0  0
 59 60  1  0  0  0
 59 61  1  0  0  0
 59 62  1  0  0  0
 60129  1  0  0  0
 60130  1  0  0  0
 60131  1  0  0  0
 61132  1  0  0  0
 61133  1  0  0  0
 61134  1  0  0  0
 62135  1  0  0  0
 62136  1  0  0  0
 62137  1  0  0  0
 63 65  1  0  0  0
 63138  1  0  0  0
 63139  1  0  0  0
 63140  1  0  0  0
 64141  1  0  0  0
 65142  1  0  0  0
 68 81  1  0  0  0
 71 72  2  0  0  0
 71 75  1  0  0  0
 71143  1  0  0  0
 72 73  1  0  0  0
 72 76  1  0  0  0
 73 74  2  0  0  0
 73 78  1  0  0  0
 74 79  1  0  0  0
 74 82  1  0  0  0
 75 82  2  0  0  0
 75 83  1  0  0  0
 76144  1  0  0  0
 76145  1  0  0  0
 76146  1  0  0  0
 77 80  1  0  0  0
 77147  1  0  0  0
 77148  1  0  0  0
 77149  1  0  0  0
 78 81  1  0  0  0
 78150  1  0  0  0
 78151  1  0  0  0
 79 80  1  0  0  0
 79152  1  0  0  0
 79153  1  0  0  0
 80154  1  0  0  0
 80155  1  0  0  0
 81156  1  0  0  0
 81157  1  0  0  0
 83158  1  0  0  0
M  ISO  4   1 100  68 101  81 101  83 100
M  END
> <chiral flag>
0

> <version>
0

> <s_m_source_file>
/data/baiqing/PycharmProjects/Reinvent-master-3.2/result/LINK_invent/BTK/process_docking_weight1_custom_sum_contain_oxygen_bond_distance_aromatic_linkinvent_7_9_3/rearranged_h_0024.sdf

> <i_m_source_file_index>
75

> <r_mmod_Potential_Energy-OPLS-2005>
893.249572753906

> <r_mmod_Stretch_Energy-OPLS-2005>
469.723510742188

> <r_mmod_Bend_Energy-OPLS-2005>
422.245208740234

> <r_mmod_Torsional_Energy-OPLS-2005>
199.993896484375

> <r_mmod_Improper_Torsional_Energy-OPLS-2005>
4.06073427200317

> <r_mmod_Van_der_Waal_Energy-OPLS-2005>
127.504524230957

> <r_mmod_Electrostatic_Energy-OPLS-2005>
-488.865539550781

> <r_mmod_Solvation_Energy-OPLS-2005>
-232.480773925781

> <b_mmod_Minimization_Converged-OPLS-2005>
0

> <r_mmod_RMS_Derivative-OPLS-2005>
1.59986352920532

$$$$
75
                    3D
 Structure written by MMmdl.
171179  0  0  1  0            999 V2000
  -30.7413  -14.4128   20.6491 C   0  0  0  0  0  0
  -30.4125  -12.3026   19.4067 C   0  0  0  0  0  0
  -29.4816  -12.5178   18.1980 C   0  0  0  0  0  0
  -28.0063  -12.3709   18.6152 C   0  0  0  0  0  0
  -27.6601  -13.2052   19.8768 C   0  0  2  0  0  0
  -28.6979  -12.9700   20.9956 C   0  0  0  0  0  0
  -25.2581  -13.8167   20.5686 C   0  0  0  0  0  0
  -24.1825  -13.0447   20.9177 C   0  0  0  0  0  0
  -24.6376  -11.6909   20.8738 C   0  0  0  0  0  0
  -23.9046  -10.4295   21.0411 C   0  0  0  0  0  0
  -24.3604   -9.4217   21.9188 C   0  0  0  0  0  0
  -23.6287   -8.2244   22.0756 C   0  0  0  0  0  0
  -22.4273   -8.0278   21.3540 C   0  0  0  0  0  0
  -21.9902   -9.0250   20.4645 C   0  0  0  0  0  0
  -22.7222  -10.2135   20.3057 C   0  0  0  0  0  0
  -21.6854   -6.0733   22.5278 C   0  0  0  0  0  0
  -21.4017   -6.5639   23.8211 C   0  0  0  0  0  0
  -21.3660   -5.6790   24.9171 C   0  0  0  0  0  0
  -21.6043   -4.3054   24.7224 C   0  0  0  0  0  0
  -21.8819   -3.8146   23.4347 C   0  0  0  0  0  0
  -21.9192   -4.6962   22.3402 C   0  0  0  0  0  0
  -22.7853  -13.5244   21.1843 C   0  0  0  0  0  0
  -22.1663   -4.2149   21.0980 F   0  0  0  0  0  0
  -21.5626   -3.4538   25.7738 F   0  0  0  0  0  0
  -30.0350  -13.2680   20.4515 N   0  0  0  0  0  0
  -26.3007  -12.9331   20.3369 N   0  0  0  0  0  0
  -25.9300  -11.6491   20.5765 N   0  0  0  0  0  0
  -22.0495  -12.8239   22.0405 N   0  0  0  0  0  0
  -25.4332  -15.1880   20.4096 N   0  0  0  0  0  0
  -31.8062  -14.6513   20.0711 O   0  0  0  0  0  0
  -21.6636   -6.8875   21.4239 O   0  0  0  0  0  0
  -22.3544  -14.5560   20.6705 O   0  0  0  0  0  0
  -24.6118  -31.8706   23.2119 C   0  0  0  0  0  0
  -25.9013  -32.4842   23.8421 C   0  0  1  0  0  0
  -27.2369  -27.4484   20.0855 C   0  0  0  0  0  0
  -25.5884  -33.8643   24.2348 N   0  0  0  0  0  0
  -23.4003  -30.4942   21.5486 C   0  0  2  0  0  0
  -24.8472  -28.9592   20.1151 C   0  0  0  0  0  0
  -22.7405  -29.4678   22.4963 C   0  0  0  0  0  0
  -18.0290  -28.1378   22.8484 C   0  0  0  0  0  0
  -24.1489  -36.7313   23.2641 C   0  0  0  0  0  0
  -25.9290  -30.8320   21.3700 C   0  0  0  0  0  0
  -26.0036  -29.4658   20.7219 C   0  0  0  0  0  0
  -27.1948  -28.7087   20.7206 C   0  0  0  0  0  0
  -26.0624  -26.9479   19.4804 C   0  0  0  0  0  0
  -24.8694  -27.6959   19.4987 C   0  0  0  0  0  0
  -23.6094  -29.8261   20.1632 C   0  0  0  0  0  0
  -25.4114  -36.3125   24.0345 C   0  0  1  0  0  0
  -20.5878  -28.3672   23.1302 C   0  0  2  0  0  0
  -20.6795  -26.9405   22.5407 C   0  0  0  0  0  0
  -19.5768  -26.6373   21.5206 C   0  0  0  0  0  0
  -18.1937  -26.7922   22.1609 C   0  0  0  0  0  0
  -19.1537  -28.8833   23.2892 C   0  0  0  0  0  0
  -18.9476  -30.1442   23.8901 C   0  0  0  0  0  0
  -17.6482  -30.6583   24.0559 C   0  0  0  0  0  0
  -25.9038  -34.9494   23.5146 C   0  0  0  0  0  0
  -16.5371  -29.9090   23.6323 C   0  0  0  0  0  0
  -16.7279  -28.6510   23.0339 C   0  0  0  0  0  0
  -26.4452  -31.6637   25.0749 C   0  0  0  0  0  0
  -25.3712  -31.3743   26.1502 C   0  0  0  0  0  0
  -27.0318  -30.3098   24.6122 C   0  0  0  0  0  0
  -27.6040  -32.4373   25.7478 C   0  0  0  0  0  0
  -27.5592  -37.1805   24.8460 C   0  0  0  0  0  0
  -21.4138  -29.3041   22.3702 N   0  0  0  0  0  0
  -26.4304  -37.3809   23.9411 N   0  0  0  0  0  0
  -24.6644  -31.0814   22.1015 N   0  0  0  0  0  0
  -23.4181  -28.8231   23.3009 O   0  0  0  0  0  0
  -28.4093  -26.7269   20.1080 O   0  0  0  0  0  0
  -26.5587  -34.8928   22.4702 O   0  0  0  0  0  0
  -23.5307  -32.1470   23.7505 O   0  0  0  0  0  0
  -29.7014  -21.5565   24.0086 C   0  0  0  0  0  0
  -29.1604  -19.8690   22.3205 C   0  0  0  0  0  0
  -28.7943  -22.2753   21.8546 C   0  0  0  0  0  0
  -29.6398  -20.2110   23.6085 C   0  0  0  0  0  0
  -29.2775  -22.5832   23.1498 C   0  0  0  0  0  0
  -28.7489  -20.9122   21.4437 C   0  0  0  0  0  0
  -28.8764  -22.6554   17.0902 C   0  0  0  0  0  0
  -30.5596  -24.2933   20.3857 C   0  0  0  0  0  0
  -29.0902  -18.3857   21.9152 C   0  0  0  0  0  0
  -28.2937  -23.3982   20.9290 C   0  0  0  0  0  0
  -29.1775  -24.1301   17.3954 C   0  0  0  0  0  0
  -30.4397  -17.8211   21.4096 C   0  0  0  0  0  0
  -30.8859  -16.4812   22.0457 C   0  0  0  0  0  0
  -28.8586  -26.1540   18.8798 C   0  0  0  0  0  0
  -28.6515  -24.6140   18.7656 C   0  0  2  0  0  0
  -30.2106  -15.2875   21.5212 N   0  0  0  0  0  0
  -29.2622  -23.7907   19.8643 N   0  3  1  0  0  0
  -30.1681  -19.0021   24.7282 Cl  0  0  0  0  0  0
  -29.3753  -24.2140   23.7208 Cl  0  0  0  0  0  0
  -28.2028  -20.5276   19.8462 Cl  0  0  0  0  0  0
  -31.4555  -12.4016   19.1012 H   0  0  0  0  0  0
  -30.3127  -11.2853   19.7900 H   0  0  0  0  0  0
  -29.7178  -11.8046   17.4067 H   0  0  0  0  0  0
  -29.6470  -13.5112   17.7770 H   0  0  0  0  0  0
  -27.8175  -11.3141   18.8076 H   0  0  0  0  0  0
  -27.3512  -12.6505   17.7891 H   0  0  0  0  0  0
  -27.7112  -14.2557   19.5901 H   0  0  0  0  0  0
  -28.6666  -11.9314   21.3285 H   0  0  0  0  0  0
  -28.4452  -13.5602   21.8769 H   0  0  0  0  0  0
  -25.2751   -9.5695   22.4764 H   0  0  0  0  0  0
  -24.0000   -7.4638   22.7477 H   0  0  0  0  0  0
  -21.0834   -8.8768   19.8952 H   0  0  0  0  0  0
  -22.3683  -10.9674   19.6165 H   0  0  0  0  0  0
  -21.2020   -7.6147   23.9715 H   0  0  0  0  0  0
  -21.1478   -6.0521   25.9071 H   0  0  0  0  0  0
  -22.0601   -2.7612   23.2847 H   0  0  0  0  0  0
  -22.4096  -11.9875   22.4759 H   0  0  0  0  0  0
  -21.1127  -13.1282   22.2643 H   0  0  0  0  0  0
  -24.6734  -15.8501   20.5206 H   0  0  0  0  0  0
  -26.2940  -15.6210   20.0989 H   0  0  0  0  0  0
  -26.7079  -32.5538   23.1186 H   0  0  0  0  0  0
  -25.0059  -33.9835   25.0506 H   0  0  0  0  0  0
  -22.6882  -31.3101   21.4085 H   0  0  0  0  0  0
  -23.3761  -35.9630   23.3297 H   0  0  0  0  0  0
  -24.3579  -36.8939   22.2054 H   0  0  0  0  0  0
  -23.7240  -37.6517   23.6660 H   0  0  0  0  0  0
  -26.0432  -31.5931   20.5977 H   0  0  0  0  0  0
  -26.8178  -30.8873   21.9868 H   0  0  0  0  0  0
  -28.0872  -29.0920   21.1951 H   0  0  0  0  0  0
  -26.0453  -25.9797   19.0057 H   0  0  0  0  0  0
  -23.9773  -27.2968   19.0353 H   0  0  0  0  0  0
  -23.7219  -30.6006   19.4034 H   0  0  0  0  0  0
  -22.7327  -29.2475   19.8662 H   0  0  0  0  0  0
  -25.1292  -36.1996   25.0839 H   0  0  0  0  0  0
  -20.9984  -28.3250   24.1420 H   0  0  0  0  0  0
  -20.5713  -26.2280   23.3602 H   0  0  0  0  0  0
  -21.6667  -26.7462   22.1188 H   0  0  0  0  0  0
  -19.6936  -25.6280   21.1252 H   0  0  0  0  0  0
  -19.6713  -27.3169   20.6722 H   0  0  0  0  0  0
  -17.4219  -26.6665   21.4001 H   0  0  0  0  0  0
  -18.0338  -26.0059   22.8999 H   0  0  0  0  0  0
  -19.7953  -30.7255   24.2265 H   0  0  0  0  0  0
  -17.5048  -31.6265   24.5163 H   0  0  0  0  0  0
  -15.5377  -30.3011   23.7650 H   0  0  0  0  0  0
  -15.8672  -28.0857   22.7030 H   0  0  0  0  0  0
  -24.5842  -30.7142   25.7840 H   0  0  0  0  0  0
  -24.8924  -32.2895   26.4991 H   0  0  0  0  0  0
  -25.8040  -30.8872   27.0243 H   0  0  0  0  0  0
  -26.2883  -29.6830   24.1182 H   0  0  0  0  0  0
  -27.4141  -29.7370   25.4584 H   0  0  0  0  0  0
  -27.8680  -30.4477   23.9264 H   0  0  0  0  0  0
  -27.2681  -33.3677   26.2069 H   0  0  0  0  0  0
  -28.3805  -32.6945   25.0262 H   0  0  0  0  0  0
  -28.0751  -31.8496   26.5365 H   0  0  0  0  0  0
  -28.2598  -38.0111   24.7557 H   0  0  0  0  0  0
  -28.1119  -36.2661   24.6255 H   0  0  0  0  0  0
  -27.2311  -37.1416   25.8859 H   0  0  0  0  0  0
  -20.9301  -29.8766   21.6929 H   0  0  0  0  0  0
  -26.0196  -38.2887   24.1424 H   0  0  0  0  0  0
  -30.0749  -21.8029   24.9919 H   0  0  0  0  0  0
  -29.1455  -22.4151   16.0610 H   0  0  0  0  0  0
  -27.8148  -22.4313   17.2093 H   0  0  0  0  0  0
  -29.4434  -21.9815   17.7320 H   0  0  0  0  0  0
  -31.0525  -23.5491   21.0101 H   0  0  0  0  0  0
  -30.4322  -25.1926   20.9888 H   0  0  0  0  0  0
  -31.2507  -24.5188   19.5735 H   0  0  0  0  0  0
  -28.3168  -18.2203   21.1660 H   0  0  0  0  0  0
  -28.7413  -17.8126   22.7743 H   0  0  0  0  0  0
  -28.0014  -24.2840   21.4915 H   0  0  0  0  0  0
  -27.3648  -23.0513   20.4752 H   0  0  0  0  0  0
  -28.7201  -24.7346   16.6099 H   0  0  0  0  0  0
  -30.2508  -24.3075   17.3109 H   0  0  0  0  0  0
  -31.2192  -18.5459   21.6492 H   0  0  0  0  0  0
  -30.4412  -17.7588   20.3208 H   0  0  0  0  0  0
  -30.7385  -16.5135   23.1255 H   0  0  0  0  0  0
  -31.9649  -16.3782   21.9140 H   0  0  0  0  0  0
  -28.3835  -26.6511   18.0324 H   0  0  0  0  0  0
  -29.9175  -26.3969   18.7842 H   0  0  0  0  0  0
  -27.5790  -24.4274   18.7535 H   0  0  0  0  0  0
  -29.3323  -15.0240   21.9430 H   0  0  0  0  0  0
  -29.4794  -22.9136   19.4112 H   0  0  0  0  0  0
  1 25  1  0  0  0
  1 30  2  0  0  0
  1 86  1  0  0  0
  2  3  1  0  0  0
  2 25  1  0  0  0
  2 91  1  0  0  0
  2 92  1  0  0  0
  3  4  1  0  0  0
  3 93  1  0  0  0
  3 94  1  0  0  0
  4  5  1  0  0  0
  4 95  1  0  0  0
  4 96  1  0  0  0
  5  6  1  0  0  0
  5 26  1  0  0  0
  5 97  1  0  0  0
  6 25  1  0  0  0
  6 98  1  0  0  0
  6 99  1  0  0  0
  7  8  2  0  0  0
  7 26  1  0  0  0
  7 29  1  0  0  0
  8  9  1  0  0  0
  8 22  1  0  0  0
  9 10  1  0  0  0
  9 27  2  0  0  0
 10 11  2  0  0  0
 10 15  1  0  0  0
 11 12  1  0  0  0
 11100  1  0  0  0
 12 13  2  0  0  0
 12101  1  0  0  0
 13 14  1  0  0  0
 13 31  1  0  0  0
 14 15  2  0  0  0
 14102  1  0  0  0
 15103  1  0  0  0
 16 17  2  0  0  0
 16 21  1  0  0  0
 16 31  1  0  0  0
 17 18  1  0  0  0
 17104  1  0  0  0
 18 19  2  0  0  0
 18105  1  0  0  0
 19 20  1  0  0  0
 19 24  1  0  0  0
 20 21  2  0  0  0
 20106  1  0  0  0
 21 23  1  0  0  0
 22 28  1  0  0  0
 22 32  2  0  0  0
 26 27  1  0  0  0
 28107  1  0  0  0
 28108  1  0  0  0
 29109  1  0  0  0
 29110  1  0  0  0
 33 34  1  0  0  0
 33 66  1  0  0  0
 33 70  2  0  0  0
 34 36  1  0  0  0
 34 59  1  0  0  0
 34111  1  0  0  0
 35 44  2  0  0  0
 35 45  1  0  0  0
 35 68  1  0  0  0
 36 56  1  0  0  0
 36112  1  0  0  0
 37 39  1  0  0  0
 37 47  1  0  0  0
 37 66  1  0  0  0
 37113  1  0  0  0
 38 43  2  0  0  0
 38 46  1  0  0  0
 38 47  1  0  0  0
 39 64  1  0  0  0
 39 67  2  0  0  0
 40 52  1  0  0  0
 40 53  2  0  0  0
 40 58  1  0  0  0
 41114  1  0  0  0
 41115  1  0  0  0
 41116  1  0  0  0
 41 48  1  0  0  0
 42 43  1  0  0  0
 42 66  1  0  0  0
 42117  1  0  0  0
 42118  1  0  0  0
 43 44  1  0  0  0
 44119  1  0  0  0
 45 46  2  0  0  0
 45120  1  0  0  0
 46121  1  0  0  0
 47122  1  0  0  0
 47123  1  0  0  0
 48 56  1  0  0  0
 48 65  1  0  0  0
 48124  1  0  0  0
 49 50  1  0  0  0
 49 53  1  0  0  0
 49 64  1  0  0  0
 49125  1  0  0  0
 50 51  1  0  0  0
 50126  1  0  0  0
 50127  1  0  0  0
 51 52  1  0  0  0
 51128  1  0  0  0
 51129  1  0  0  0
 52130  1  0  0  0
 52131  1  0  0  0
 53 54  1  0  0  0
 54 55  2  0  0  0
 54132  1  0  0  0
 55 57  1  0  0  0
 55133  1  0  0  0
 56 69  2  0  0  0
 57 58  2  0  0  0
 57134  1  0  0  0
 58135  1  0  0  0
 59 60  1  0  0  0
 59 61  1  0  0  0
 59 62  1  0  0  0
 60136  1  0  0  0
 60137  1  0  0  0
 60138  1  0  0  0
 61139  1  0  0  0
 61140  1  0  0  0
 61141  1  0  0  0
 62142  1  0  0  0
 62143  1  0  0  0
 62144  1  0  0  0
 63 65  1  0  0  0
 63145  1  0  0  0
 63146  1  0  0  0
 63147  1  0  0  0
 64148  1  0  0  0
 65149  1  0  0  0
 68 84  1  0  0  0
 71 74  2  0  0  0
 71 75  1  0  0  0
 71150  1  0  0  0
 72 74  1  0  0  0
 72 76  2  0  0  0
 72 79  1  0  0  0
 73 75  2  0  0  0
 73 76  1  0  0  0
 73 80  1  0  0  0
 74 88  1  0  0  0
 75 89  1  0  0  0
 76 90  1  0  0  0
 77 81  1  0  0  0
 77151  1  0  0  0
 77152  1  0  0  0
 77153  1  0  0  0
 78154  1  0  0  0
 78155  1  0  0  0
 78156  1  0  0  0
 78 87  1  0  0  0
 79 82  1  0  0  0
 79157  1  0  0  0
 79158  1  0  0  0
 80 87  1  0  0  0
 80159  1  0  0  0
 80160  1  0  0  0
 81161  1  0  0  0
 81162  1  0  0  0
 81 85  1  0  0  0
 82 83  1  0  0  0
 82163  1  0  0  0
 82164  1  0  0  0
 83 86  1  0  0  0
 83165  1  0  0  0
 83166  1  0  0  0
 84 85  1  0  0  0
 84167  1  0  0  0
 84168  1  0  0  0
 85 87  1  0  0  0
 85169  1  0  0  0
 86170  1  0  0  0
 87171  1  0  0  0
M  CHG  1  87   1
M  ISO  4   1 100  68 101  84 101  86 100
M  END
> <chiral flag>
0

> <version>
0

> <s_m_source_file>
/data/baiqing/PycharmProjects/Reinvent-master-3.2/result/LINK_invent/BTK/process_docking_weight1_custom_sum_contain_oxygen_bond_distance_aromatic_linkinvent_7_9_3/rearranged_h_0024.sdf

> <i_m_source_file_index>
76

> <r_mmod_Potential_Energy-OPLS-2005>
-154.293502807617

> <r_mmod_Stretch_Energy-OPLS-2005>
40.4218139648438

> <r_mmod_Bend_Energy-OPLS-2005>
106.286117553711

> <r_mmod_Torsional_Energy-OPLS-2005>
240.158065795898

> <r_mmod_Improper_Torsional_Energy-OPLS-2005>
1.9281690120697

> <r_mmod_Van_der_Waal_Energy-OPLS-2005>
149.188415527344

> <r_mmod_Electrostatic_Energy-OPLS-2005>
-293.703277587891

> <r_mmod_Solvation_Energy-OPLS-2005>
-407.718780517578

> <b_mmod_Minimization_Converged-OPLS-2005>
0

> <r_mmod_RMS_Derivative-OPLS-2005>
1.65695714950562

$$$$
76
                    3D
 Structure written by MMmdl.
156164  0  0  1  0            999 V2000
  -30.4430  -15.1719   20.3777 C   0  0  0  0  0  0
  -30.4473  -12.7383   19.5155 C   0  0  0  0  0  0
  -29.5337  -12.5621   18.2767 C   0  0  0  0  0  0
  -28.0754  -12.3062   18.6996 C   0  0  0  0  0  0
  -27.6181  -13.2630   19.8293 C   0  0  2  0  0  0
  -28.6580  -13.3798   20.9643 C   0  0  0  0  0  0
  -25.2374  -13.8148   20.5734 C   0  0  0  0  0  0
  -24.1734  -13.0368   20.9277 C   0  0  0  0  0  0
  -24.6398  -11.6878   20.8776 C   0  0  0  0  0  0
  -23.9091  -10.4256   21.0414 C   0  0  0  0  0  0
  -24.3634   -9.4175   21.9194 C   0  0  0  0  0  0
  -23.6297   -8.2219   22.0758 C   0  0  0  0  0  0
  -22.4278   -8.0269   21.3545 C   0  0  0  0  0  0
  -21.9922   -9.0245   20.4646 C   0  0  0  0  0  0
  -22.7264  -10.2115   20.3058 C   0  0  0  0  0  0
  -21.6848   -6.0733   22.5281 C   0  0  0  0  0  0
  -21.4012   -6.5638   23.8214 C   0  0  0  0  0  0
  -21.3656   -5.6791   24.9176 C   0  0  0  0  0  0
  -21.6044   -4.3054   24.7226 C   0  0  0  0  0  0
  -21.8819   -3.8146   23.4347 C   0  0  0  0  0  0
  -21.9192   -4.6963   22.3404 C   0  0  0  0  0  0
  -22.7757  -13.5149   21.1913 C   0  0  0  0  0  0
  -22.1661   -4.2149   21.0981 F   0  0  0  0  0  0
  -21.5628   -3.4537   25.7740 F   0  0  0  0  0  0
  -29.9046  -13.8635   20.3499 N   0  0  0  0  0  0
  -26.2833  -12.9448   20.3225 N   0  0  0  0  0  0
  -25.9337  -11.6564   20.5738 N   0  0  0  0  0  0
  -22.0406  -12.8146   22.0469 N   0  0  0  0  0  0
  -25.3893  -15.1850   20.4108 N   0  0  0  0  0  0
  -31.6577  -15.2218   20.1449 O   0  0  0  0  0  0
  -21.6632   -6.8875   21.4243 O   0  0  0  0  0  0
  -22.3452  -14.5456   20.6748 O   0  0  0  0  0  0
  -24.6551  -31.8296   23.1732 C   0  0  0  0  0  0
  -25.9262  -32.4621   23.8180 C   0  0  1  0  0  0
  -27.2301  -27.0025   20.1805 C   0  0  0  0  0  0
  -25.5956  -33.8431   24.2097 N   0  0  0  0  0  0
  -23.4666  -30.4398   21.5210 C   0  0  2  0  0  0
  -24.9194  -28.8316   20.1130 C   0  0  0  0  0  0
  -22.7625  -29.4469   22.4811 C   0  0  0  0  0  0
  -18.0315  -28.1407   22.8477 C   0  0  0  0  0  0
  -24.1489  -36.7218   23.2647 C   0  0  0  0  0  0
  -26.0283  -30.6608   21.3894 C   0  0  0  0  0  0
  -26.0987  -29.2559   20.7371 C   0  0  0  0  0  0
  -27.2488  -28.3610   20.7438 C   0  0  0  0  0  0
  -26.0209  -26.7005   19.5185 C   0  0  0  0  0  0
  -24.9009  -27.5730   19.4849 C   0  0  0  0  0  0
  -23.7013  -29.7514   20.1473 C   0  0  0  0  0  0
  -25.4129  -36.2987   24.0305 C   0  0  1  0  0  0
  -20.5934  -28.3741   23.1213 C   0  0  2  0  0  0
  -20.6791  -26.9429   22.5411 C   0  0  0  0  0  0
  -19.5765  -26.6383   21.5218 C   0  0  0  0  0  0
  -18.1947  -26.7944   22.1627 C   0  0  0  0  0  0
  -19.1574  -28.8895   23.2835 C   0  0  0  0  0  0
  -18.9488  -30.1488   23.8865 C   0  0  0  0  0  0
  -17.6482  -30.6600   24.0560 C   0  0  0  0  0  0
  -25.9089  -34.9369   23.5022 C   0  0  0  0  0  0
  -16.5373  -29.9090   23.6343 C   0  0  0  0  0  0
  -16.7298  -28.6509   23.0366 C   0  0  0  0  0  0
  -26.4543  -31.6542   25.0680 C   0  0  0  0  0  0
  -25.3694  -31.3772   26.1354 C   0  0  0  0  0  0
  -27.0429  -30.2923   24.6351 C   0  0  0  0  0  0
  -27.6046  -32.4338   25.7482 C   0  0  0  0  0  0
  -27.5570  -37.1767   24.8468 C   0  0  0  0  0  0
  -21.4302  -29.3039   22.3565 N   0  0  0  0  0  0
  -26.4278  -37.3718   23.9411 N   0  0  0  0  0  0
  -24.7373  -31.0026   22.0824 N   0  0  0  0  0  0
  -23.4202  -28.8050   23.3039 O   0  0  0  0  0  0
  -28.2968  -25.9911   20.2587 O   0  0  0  0  0  0
  -26.5698  -34.8894   22.4617 O   0  0  0  0  0  0
  -23.5638  -32.1231   23.6875 O   0  0  0  0  0  0
  -30.4286  -20.4063   20.5413 C   0  0  0  0  0  0
  -29.2045  -21.2088   20.4483 C   0  0  0  0  0  0
  -28.3091  -18.7427   20.2236 C   0  0  0  0  0  0
  -29.5447  -17.9613   20.3894 C   0  0  0  0  0  0
  -30.6034  -18.9388   20.5281 C   0  0  0  0  0  0
  -28.1471  -20.2299   20.2730 C   0  0  0  0  0  0
  -27.0456  -17.9318   19.9845 C   0  0  0  0  0  0
  -30.6085  -23.3482   20.8867 C   0  0  0  0  0  0
  -28.5972  -22.8537   22.2937 C   0  0  0  0  0  0
  -28.2900  -24.3659   20.1477 C   0  0  0  0  0  0
  -29.1102  -22.9125   20.8319 C   0  0  0  0  0  0
  -29.5825  -16.3548   20.4597 N   0  0  0  0  0  0
  -32.2138  -18.3605   20.7488 Cl  0  0  0  0  0  0
  -26.5521  -20.8946   20.1644 Cl  0  0  0  0  0  0
  -31.4688  -12.9395   19.1897 H   0  0  0  0  0  0
  -30.4995  -11.8152   20.0952 H   0  0  0  0  0  0
  -29.8932  -11.7429   17.6527 H   0  0  0  0  0  0
  -29.5818  -13.4611   17.6602 H   0  0  0  0  0  0
  -28.0108  -11.2745   19.0471 H   0  0  0  0  0  0
  -27.4087  -12.3816   17.8397 H   0  0  0  0  0  0
  -27.5488  -14.2440   19.3587 H   0  0  0  0  0  0
  -28.8018  -12.4249   21.4721 H   0  0  0  0  0  0
  -28.3173  -14.0854   21.7235 H   0  0  0  0  0  0
  -25.2776   -9.5648   22.4775 H   0  0  0  0  0  0
  -23.9997   -7.4608   22.7478 H   0  0  0  0  0  0
  -21.0853   -8.8774   19.8951 H   0  0  0  0  0  0
  -22.3731  -10.9661   19.6170 H   0  0  0  0  0  0
  -21.2001   -7.6146   23.9718 H   0  0  0  0  0  0
  -21.1477   -6.0521   25.9080 H   0  0  0  0  0  0
  -22.0602   -2.7609   23.2848 H   0  0  0  0  0  0
  -22.4030  -11.9814   22.4862 H   0  0  0  0  0  0
  -21.1023  -13.1166   22.2671 H   0  0  0  0  0  0
  -24.5963  -15.8117   20.4941 H   0  0  0  0  0  0
  -26.1889  -15.6121   19.9687 H   0  0  0  0  0  0
  -26.7328  -32.5189   23.0897 H   0  0  0  0  0  0
  -25.0057  -33.9520   25.0216 H   0  0  0  0  0  0
  -22.7763  -31.2688   21.3522 H   0  0  0  0  0  0
  -23.3762  -35.9538   23.3288 H   0  0  0  0  0  0
  -24.3563  -36.8880   22.2064 H   0  0  0  0  0  0
  -23.7231  -37.6397   23.6711 H   0  0  0  0  0  0
  -26.1966  -31.4045   20.6096 H   0  0  0  0  0  0
  -26.8930  -30.7191   22.0387 H   0  0  0  0  0  0
  -28.1469  -28.6859   21.2506 H   0  0  0  0  0  0
  -25.9215  -25.7334   19.0459 H   0  0  0  0  0  0
  -24.0015  -27.2419   18.9839 H   0  0  0  0  0  0
  -23.8486  -30.5176   19.3852 H   0  0  0  0  0  0
  -22.8133  -29.1986   19.8362 H   0  0  0  0  0  0
  -25.1326  -36.1791   25.0797 H   0  0  0  0  0  0
  -21.0028  -28.3342   24.1335 H   0  0  0  0  0  0
  -20.5672  -26.2357   23.3644 H   0  0  0  0  0  0
  -21.6656  -26.7414   22.1218 H   0  0  0  0  0  0
  -19.6920  -25.6285   21.1270 H   0  0  0  0  0  0
  -19.6704  -27.3177   20.6735 H   0  0  0  0  0  0
  -17.4218  -26.6696   21.4028 H   0  0  0  0  0  0
  -18.0337  -26.0094   22.9031 H   0  0  0  0  0  0
  -19.7964  -30.7316   24.2216 H   0  0  0  0  0  0
  -17.5035  -31.6276   24.5170 H   0  0  0  0  0  0
  -15.5372  -30.2981   23.7686 H   0  0  0  0  0  0
  -15.8700  -28.0814   22.7100 H   0  0  0  0  0  0
  -24.5893  -30.7095   25.7676 H   0  0  0  0  0  0
  -24.8859  -32.2963   26.4673 H   0  0  0  0  0  0
  -25.7950  -30.9020   27.0201 H   0  0  0  0  0  0
  -26.3073  -29.6615   24.1345 H   0  0  0  0  0  0
  -27.3986  -29.7263   25.4971 H   0  0  0  0  0  0
  -27.9002  -30.4130   23.9723 H   0  0  0  0  0  0
  -27.2623  -33.3678   26.1950 H   0  0  0  0  0  0
  -28.3916  -32.6834   25.0353 H   0  0  0  0  0  0
  -28.0646  -31.8532   26.5489 H   0  0  0  0  0  0
  -28.2581  -38.0071   24.7516 H   0  0  0  0  0  0
  -28.1073  -36.2599   24.6297 H   0  0  0  0  0  0
  -27.2286  -37.1412   25.8870 H   0  0  0  0  0  0
  -20.9541  -29.8715   21.6694 H   0  0  0  0  0  0
  -26.0132  -38.2778   24.1421 H   0  0  0  0  0  0
  -31.3580  -20.9286   20.6929 H   0  0  0  0  0  0
  -27.2711  -16.9657   19.5385 H   0  0  0  0  0  0
  -26.3717  -18.4220   19.2826 H   0  0  0  0  0  0
  -26.5136  -17.7763   20.9232 H   0  0  0  0  0  0
  -31.1666  -22.7981   21.6436 H   0  0  0  0  0  0
  -30.7766  -24.3937   21.1461 H   0  0  0  0  0  0
  -31.0923  -23.1919   19.9222 H   0  0  0  0  0  0
  -29.1566  -22.1271   22.8842 H   0  0  0  0  0  0
  -27.5499  -22.5544   22.3251 H   0  0  0  0  0  0
  -28.6747  -23.8042   22.8228 H   0  0  0  0  0  0
  -28.7666  -24.3648   19.1672 H   0  0  0  0  0  0
  -28.8049  -24.8282   20.9787 H   0  0  0  0  0  0
  -28.6453  -16.0052   20.5746 H   0  0  0  0  0  0
  1 25  1  0  0  0
  1 30  2  0  0  0
  1 82  1  0  0  0
  2  3  1  0  0  0
  2 25  1  0  0  0
  2 85  1  0  0  0
  2 86  1  0  0  0
  3  4  1  0  0  0
  3 87  1  0  0  0
  3 88  1  0  0  0
  4  5  1  0  0  0
  4 89  1  0  0  0
  4 90  1  0  0  0
  5  6  1  0  0  0
  5 26  1  0  0  0
  5 91  1  0  0  0
  6 25  1  0  0  0
  6 92  1  0  0  0
  6 93  1  0  0  0
  7  8  2  0  0  0
  7 26  1  0  0  0
  7 29  1  0  0  0
  8  9  1  0  0  0
  8 22  1  0  0  0
  9 10  1  0  0  0
  9 27  2  0  0  0
 10 11  2  0  0  0
 10 15  1  0  0  0
 11 12  1  0  0  0
 11 94  1  0  0  0
 12 13  2  0  0  0
 12 95  1  0  0  0
 13 14  1  0  0  0
 13 31  1  0  0  0
 14 15  2  0  0  0
 14 96  1  0  0  0
 15 97  1  0  0  0
 16 17  2  0  0  0
 16 21  1  0  0  0
 16 31  1  0  0  0
 17 18  1  0  0  0
 17 98  1  0  0  0
 18 19  2  0  0  0
 18 99  1  0  0  0
 19 20  1  0  0  0
 19 24  1  0  0  0
 20 21  2  0  0  0
 20100  1  0  0  0
 21 23  1  0  0  0
 22 28  1  0  0  0
 22 32  2  0  0  0
 26 27  1  0  0  0
 28101  1  0  0  0
 28102  1  0  0  0
 29103  1  0  0  0
 29104  1  0  0  0
 33 34  1  0  0  0
 33 66  1  0  0  0
 33 70  2  0  0  0
 34 36  1  0  0  0
 34 59  1  0  0  0
 34105  1  0  0  0
 35 44  2  0  0  0
 35 45  1  0  0  0
 35 68  1  0  0  0
 36 56  1  0  0  0
 36106  1  0  0  0
 37 39  1  0  0  0
 37 47  1  0  0  0
 37 66  1  0  0  0
 37107  1  0  0  0
 38 43  2  0  0  0
 38 46  1  0  0  0
 38 47  1  0  0  0
 39 64  1  0  0  0
 39 67  2  0  0  0
 40 52  1  0  0  0
 40 53  2  0  0  0
 40 58  1  0  0  0
 41108  1  0  0  0
 41109  1  0  0  0
 41110  1  0  0  0
 41 48  1  0  0  0
 42 43  1  0  0  0
 42 66  1  0  0  0
 42111  1  0  0  0
 42112  1  0  0  0
 43 44  1  0  0  0
 44113  1  0  0  0
 45 46  2  0  0  0
 45114  1  0  0  0
 46115  1  0  0  0
 47116  1  0  0  0
 47117  1  0  0  0
 48 56  1  0  0  0
 48 65  1  0  0  0
 48118  1  0  0  0
 49 50  1  0  0  0
 49 53  1  0  0  0
 49 64  1  0  0  0
 49119  1  0  0  0
 50 51  1  0  0  0
 50120  1  0  0  0
 50121  1  0  0  0
 51 52  1  0  0  0
 51122  1  0  0  0
 51123  1  0  0  0
 52124  1  0  0  0
 52125  1  0  0  0
 53 54  1  0  0  0
 54 55  2  0  0  0
 54126  1  0  0  0
 55 57  1  0  0  0
 55127  1  0  0  0
 56 69  2  0  0  0
 57 58  2  0  0  0
 57128  1  0  0  0
 58129  1  0  0  0
 59 60  1  0  0  0
 59 61  1  0  0  0
 59 62  1  0  0  0
 60130  1  0  0  0
 60131  1  0  0  0
 60132  1  0  0  0
 61133  1  0  0  0
 61134  1  0  0  0
 61135  1  0  0  0
 62136  1  0  0  0
 62137  1  0  0  0
 62138  1  0  0  0
 63 65  1  0  0  0
 63139  1  0  0  0
 63140  1  0  0  0
 63141  1  0  0  0
 64142  1  0  0  0
 65143  1  0  0  0
 68 80  1  0  0  0
 71 72  2  0  0  0
 71 75  1  0  0  0
 71144  1  0  0  0
 72 76  1  0  0  0
 72 81  1  0  0  0
 73 74  1  0  0  0
 73 76  2  0  0  0
 73 77  1  0  0  0
 74 75  2  0  0  0
 74 82  1  0  0  0
 75 83  1  0  0  0
 76 84  1  0  0  0
 77145  1  0  0  0
 77146  1  0  0  0
 77147  1  0  0  0
 78148  1  0  0  0
 78149  1  0  0  0
 78150  1  0  0  0
 78 81  1  0  0  0
 79 81  1  0  0  0
 79151  1  0  0  0
 79152  1  0  0  0
 79153  1  0  0  0
 80 81  1  0  0  0
 80154  1  0  0  0
 80155  1  0  0  0
 82156  1  0  0  0
M  ISO  4   1 100  68 101  80 101  82 100
M  END
> <chiral flag>
0

> <version>
0

> <s_m_source_file>
/data/baiqing/PycharmProjects/Reinvent-master-3.2/result/LINK_invent/BTK/process_docking_weight1_custom_sum_contain_oxygen_bond_distance_aromatic_linkinvent_7_9_3/rearranged_h_0024.sdf

> <i_m_source_file_index>
77

> <r_mmod_Potential_Energy-OPLS-2005>
1251.58056640625

> <r_mmod_Stretch_Energy-OPLS-2005>
472.625457763672

> <r_mmod_Bend_Energy-OPLS-2005>
634.219604492188

> <r_mmod_Torsional_Energy-OPLS-2005>
230.417037963867

> <r_mmod_Improper_Torsional_Energy-OPLS-2005>
7.39169836044312

> <r_mmod_Van_der_Waal_Energy-OPLS-2005>
148.258514404297

> <r_mmod_Electrostatic_Energy-OPLS-2005>
-388.75732421875

> <r_mmod_Solvation_Energy-OPLS-2005>
-206.54931640625

> <b_mmod_Minimization_Converged-OPLS-2005>
0

> <r_mmod_RMS_Derivative-OPLS-2005>
0.442542195320129

$$$$
77
                    3D
 Structure written by MMmdl.
183191  0  0  1  0            999 V2000
  -30.6944  -14.4274   20.6320 C   0  0  0  0  0  0
  -30.4393  -12.3047   19.4007 C   0  0  0  0  0  0
  -29.4994  -12.5230   18.1958 C   0  0  0  0  0  0
  -28.0198  -12.3711   18.6101 C   0  0  0  0  0  0
  -27.6689  -13.1889   19.8809 C   0  0  2  0  0  0
  -28.7086  -12.9214   20.9924 C   0  0  0  0  0  0
  -25.2624  -13.8102   20.5656 C   0  0  0  0  0  0
  -24.1861  -13.0416   20.9138 C   0  0  0  0  0  0
  -24.6392  -11.6869   20.8715 C   0  0  0  0  0  0
  -23.9051  -10.4276   21.0406 C   0  0  0  0  0  0
  -24.3620   -9.4200   21.9185 C   0  0  0  0  0  0
  -23.6302   -8.2236   22.0758 C   0  0  0  0  0  0
  -22.4275   -8.0274   21.3553 C   0  0  0  0  0  0
  -21.9908   -9.0242   20.4651 C   0  0  0  0  0  0
  -22.7222  -10.2126   20.3062 C   0  0  0  0  0  0
  -21.6849   -6.0740   22.5287 C   0  0  0  0  0  0
  -21.4017   -6.5648   23.8219 C   0  0  0  0  0  0
  -21.3658   -5.6800   24.9176 C   0  0  0  0  0  0
  -21.6047   -4.3063   24.7232 C   0  0  0  0  0  0
  -21.8821   -3.8158   23.4349 C   0  0  0  0  0  0
  -21.9200   -4.6973   22.3407 C   0  0  0  0  0  0
  -22.7890  -13.5235   21.1827 C   0  0  0  0  0  0
  -22.1665   -4.2160   21.0984 F   0  0  0  0  0  0
  -21.5630   -3.4547   25.7743 F   0  0  0  0  0  0
  -30.0421  -13.2504   20.4498 N   0  0  0  0  0  0
  -26.3059  -12.9248   20.3353 N   0  0  0  0  0  0
  -25.9309  -11.6419   20.5709 N   0  0  0  0  0  0
  -22.0538  -12.8239   22.0386 N   0  0  0  0  0  0
  -25.4358  -15.1824   20.4082 N   0  0  0  0  0  0
  -31.8214  -14.6644   20.1886 O   0  0  0  0  0  0
  -21.6639   -6.8875   21.4241 O   0  0  0  0  0  0
  -22.3581  -14.5560   20.6690 O   0  0  0  0  0  0
  -24.6116  -31.8720   23.2129 C   0  0  0  0  0  0
  -25.9020  -32.4847   23.8420 C   0  0  1  0  0  0
  -27.2283  -27.4675   20.0925 C   0  0  0  0  0  0
  -25.5886  -33.8650   24.2350 N   0  0  0  0  0  0
  -23.3991  -30.4966   21.5520 C   0  0  2  0  0  0
  -24.8443  -28.9720   20.1116 C   0  0  0  0  0  0
  -22.7411  -29.4666   22.4990 C   0  0  0  0  0  0
  -18.0275  -28.1381   22.8510 C   0  0  0  0  0  0
  -24.1490  -36.7305   23.2640 C   0  0  0  0  0  0
  -25.9259  -30.8482   21.3649 C   0  0  0  0  0  0
  -26.0041  -29.4873   20.7059 C   0  0  0  0  0  0
  -27.2020  -28.7425   20.6930 C   0  0  0  0  0  0
  -26.0578  -26.9655   19.4819 C   0  0  0  0  0  0
  -24.8646  -27.7078   19.4958 C   0  0  0  0  0  0
  -23.6052  -29.8349   20.1647 C   0  0  0  0  0  0
  -25.4121  -36.3140   24.0346 C   0  0  1  0  0  0
  -20.5865  -28.3654   23.1334 C   0  0  2  0  0  0
  -20.6761  -26.9389   22.5424 C   0  0  0  0  0  0
  -19.5734  -26.6386   21.5226 C   0  0  0  0  0  0
  -18.1910  -26.7924   22.1636 C   0  0  0  0  0  0
  -19.1525  -28.8832   23.2917 C   0  0  0  0  0  0
  -18.9456  -30.1442   23.8922 C   0  0  0  0  0  0
  -17.6453  -30.6582   24.0569 C   0  0  0  0  0  0
  -25.9046  -34.9498   23.5158 C   0  0  0  0  0  0
  -16.5350  -29.9097   23.6308 C   0  0  0  0  0  0
  -16.7260  -28.6513   23.0337 C   0  0  0  0  0  0
  -26.4445  -31.6624   25.0738 C   0  0  0  0  0  0
  -25.3701  -31.3747   26.1483 C   0  0  0  0  0  0
  -27.0255  -30.3064   24.6093 C   0  0  0  0  0  0
  -27.6048  -32.4311   25.7493 C   0  0  0  0  0  0
  -27.5592  -37.1810   24.8460 C   0  0  0  0  0  0
  -21.4136  -29.3026   22.3747 N   0  0  0  0  0  0
  -26.4306  -37.3820   23.9417 N   0  0  0  0  0  0
  -24.6633  -31.0859   22.1011 N   0  0  0  0  0  0
  -23.4202  -28.8206   23.3009 O   0  0  0  0  0  0
  -28.3783  -26.7197   20.1201 O   0  0  0  0  0  0
  -26.5609  -34.8932   22.4717 O   0  0  0  0  0  0
  -23.5321  -32.1461   23.7534 O   0  0  0  0  0  0
  -31.7893  -19.7001   18.7748 C   0  0  0  0  0  0
  -31.8626  -19.9227   20.1577 C   0  0  0  0  0  0
  -31.0243  -18.6492   18.2349 C   0  0  0  0  0  0
  -31.2837  -18.9773   21.0417 C   0  0  0  0  0  0
  -30.3758  -17.7328   19.1122 C   0  0  0  0  0  0
  -30.6297  -17.8125   20.5250 C   0  0  0  0  0  0
  -31.3466  -19.2622   22.5469 C   0  0  0  0  0  0
  -31.7128  -19.4978   15.8526 C   0  0  0  0  0  0
  -27.9069  -17.3665   18.6274 C   0  0  0  0  0  0
  -34.0584  -23.7920   20.7864 C   0  0  0  0  0  0
  -30.8736  -18.5354   16.7112 C   0  0  0  0  0  0
  -32.5876  -21.1882   20.6320 C   0  0  0  0  0  0
  -29.3209  -16.7886   18.5086 C   0  0  0  0  0  0
  -30.2111  -16.7467   21.5671 C   0  0  0  0  0  0
  -31.9833  -22.4783   20.0322 C   0  0  0  0  0  0
  -30.6010  -25.2453   21.6069 C   0  0  0  0  0  0
  -29.4932  -24.6342   20.7354 C   0  0  0  0  0  0
  -31.8021  -24.3055   21.8555 C   0  0  0  0  0  0
  -28.1922  -25.4371   20.7190 C   0  0  0  0  0  0
  -32.5338  -23.8223   20.5804 C   0  0  1  0  0  0
  -29.9215  -15.3654   21.1991 N   0  0  0  0  0  0
  -31.4793  -12.4356   19.0979 H   0  0  0  0  0  0
  -30.3646  -11.2811   19.7708 H   0  0  0  0  0  0
  -29.7408  -11.8242   17.3942 H   0  0  0  0  0  0
  -29.6604  -13.5177   17.7812 H   0  0  0  0  0  0
  -27.8301  -11.3110   18.7847 H   0  0  0  0  0  0
  -27.3708  -12.6659   17.7847 H   0  0  0  0  0  0
  -27.7227  -14.2421   19.6073 H   0  0  0  0  0  0
  -28.6884  -11.8697   21.2832 H   0  0  0  0  0  0
  -28.4622  -13.4690   21.9046 H   0  0  0  0  0  0
  -25.2771   -9.5688   22.4737 H   0  0  0  0  0  0
  -24.0025   -7.4633   22.7481 H   0  0  0  0  0  0
  -21.0843   -8.8757   19.8954 H   0  0  0  0  0  0
  -22.3686  -10.9667   19.6174 H   0  0  0  0  0  0
  -21.2005   -7.6154   23.9723 H   0  0  0  0  0  0
  -21.1472   -6.0525   25.9078 H   0  0  0  0  0  0
  -22.0601   -2.7621   23.2842 H   0  0  0  0  0  0
  -22.4173  -11.9913   22.4778 H   0  0  0  0  0  0
  -21.1150  -13.1262   22.2585 H   0  0  0  0  0  0
  -24.6633  -15.8299   20.5147 H   0  0  0  0  0  0
  -26.2853  -15.6261   20.0888 H   0  0  0  0  0  0
  -26.7096  -32.5557   23.1192 H   0  0  0  0  0  0
  -25.0022  -33.9821   25.0484 H   0  0  0  0  0  0
  -22.6860  -31.3124   21.4176 H   0  0  0  0  0  0
  -23.3776  -35.9611   23.3333 H   0  0  0  0  0  0
  -24.3586  -36.8886   22.2048 H   0  0  0  0  0  0
  -23.7203  -37.6504   23.6628 H   0  0  0  0  0  0
  -26.0402  -31.6230   20.6057 H   0  0  0  0  0  0
  -26.8128  -30.8942   21.9845 H   0  0  0  0  0  0
  -28.0972  -29.1318   21.1584 H   0  0  0  0  0  0
  -26.0601  -26.0043   18.9898 H   0  0  0  0  0  0
  -23.9771  -27.3073   19.0257 H   0  0  0  0  0  0
  -23.7095  -30.6142   19.4091 H   0  0  0  0  0  0
  -22.7313  -29.2534   19.8659 H   0  0  0  0  0  0
  -25.1292  -36.2031   25.0838 H   0  0  0  0  0  0
  -20.9959  -28.3208   24.1454 H   0  0  0  0  0  0
  -20.5672  -26.2260   23.3612 H   0  0  0  0  0  0
  -21.6634  -26.7432   22.1211 H   0  0  0  0  0  0
  -19.6898  -25.6306   21.1231 H   0  0  0  0  0  0
  -19.6670  -27.3222   20.6779 H   0  0  0  0  0  0
  -17.4182  -26.6685   21.4028 H   0  0  0  0  0  0
  -18.0290  -26.0060   22.9025 H   0  0  0  0  0  0
  -19.7932  -30.7252   24.2298 H   0  0  0  0  0  0
  -17.5012  -31.6260   24.5178 H   0  0  0  0  0  0
  -15.5350  -30.3013   23.7613 H   0  0  0  0  0  0
  -15.8660  -28.0850   22.7024 H   0  0  0  0  0  0
  -24.5883  -30.7070   25.7838 H   0  0  0  0  0  0
  -24.8853  -32.2893   26.4910 H   0  0  0  0  0  0
  -25.8046  -30.8959   27.0263 H   0  0  0  0  0  0
  -26.2808  -29.6878   24.1057 H   0  0  0  0  0  0
  -27.3943  -29.7241   25.4550 H   0  0  0  0  0  0
  -27.8685  -30.4406   23.9305 H   0  0  0  0  0  0
  -27.2702  -33.3598   26.2136 H   0  0  0  0  0  0
  -28.3833  -32.6886   25.0300 H   0  0  0  0  0  0
  -28.0735  -31.8378   26.5355 H   0  0  0  0  0  0
  -28.2634  -38.0088   24.7530 H   0  0  0  0  0  0
  -28.1070  -36.2626   24.6276 H   0  0  0  0  0  0
  -27.2311  -37.1463   25.8860 H   0  0  0  0  0  0
  -20.9279  -29.8754   21.6982 H   0  0  0  0  0  0
  -26.0207  -38.2900   24.1422 H   0  0  0  0  0  0
  -32.2885  -20.4021   18.1261 H   0  0  0  0  0  0
  -30.9375  -20.2526   22.7487 H   0  0  0  0  0  0
  -32.3780  -19.2415   22.9028 H   0  0  0  0  0  0
  -30.7670  -18.5971   23.1793 H   0  0  0  0  0  0
  -31.5439  -19.2983   14.7935 H   0  0  0  0  0  0
  -32.7804  -19.3736   16.0406 H   0  0  0  0  0  0
  -31.4471  -20.5400   16.0268 H   0  0  0  0  0  0
  -27.1688  -16.6532   18.2613 H   0  0  0  0  0  0
  -27.8066  -18.2783   18.0378 H   0  0  0  0  0  0
  -27.6536  -17.6078   19.6602 H   0  0  0  0  0  0
  -34.5768  -23.4140   19.9049 H   0  0  0  0  0  0
  -34.3377  -23.1624   21.6329 H   0  0  0  0  0  0
  -34.4469  -24.7911   20.9868 H   0  0  0  0  0  0
  -29.8225  -18.6769   16.4599 H   0  0  0  0  0  0
  -31.1413  -17.5216   16.4104 H   0  0  0  0  0  0
  -33.6316  -21.0965   20.3300 H   0  0  0  0  0  0
  -32.6073  -21.2808   21.7158 H   0  0  0  0  0  0
  -29.3233  -15.7955   18.9186 H   0  0  0  0  0  0
  -29.5122  -16.5779   17.4596 H   0  0  0  0  0  0
  -29.3363  -17.1286   22.0945 H   0  0  0  0  0  0
  -31.0074  -16.6507   22.3075 H   0  0  0  0  0  0
  -30.9052  -22.4362   20.1717 H   0  0  0  0  0  0
  -32.1204  -22.4714   18.9518 H   0  0  0  0  0  0
  -30.1775  -25.5225   22.5739 H   0  0  0  0  0  0
  -30.9432  -26.1773   21.1558 H   0  0  0  0  0  0
  -29.2593  -23.6380   21.1118 H   0  0  0  0  0  0
  -29.8440  -24.5097   19.7114 H   0  0  0  0  0  0
  -31.4920  -23.4505   22.4569 H   0  0  0  0  0  0
  -32.5054  -24.8542   22.4842 H   0  0  0  0  0  0
  -27.8113  -25.5548   21.7349 H   0  0  0  0  0  0
  -27.4537  -24.8464   20.1764 H   0  0  0  0  0  0
  -32.3524  -24.5709   19.8067 H   0  0  0  0  0  0
  -29.0048  -15.0432   21.4664 H   0  0  0  0  0  0
  1 25  1  0  0  0
  1 30  2  0  0  0
  1 91  1  0  0  0
  2  3  1  0  0  0
  2 25  1  0  0  0
  2 92  1  0  0  0
  2 93  1  0  0  0
  3  4  1  0  0  0
  3 94  1  0  0  0
  3 95  1  0  0  0
  4  5  1  0  0  0
  4 96  1  0  0  0
  4 97  1  0  0  0
  5  6  1  0  0  0
  5 26  1  0  0  0
  5 98  1  0  0  0
  6 25  1  0  0  0
  6 99  1  0  0  0
  6100  1  0  0  0
  7  8  2  0  0  0
  7 26  1  0  0  0
  7 29  1  0  0  0
  8  9  1  0  0  0
  8 22  1  0  0  0
  9 10  1  0  0  0
  9 27  2  0  0  0
 10 11  2  0  0  0
 10 15  1  0  0  0
 11 12  1  0  0  0
 11101  1  0  0  0
 12 13  2  0  0  0
 12102  1  0  0  0
 13 14  1  0  0  0
 13 31  1  0  0  0
 14 15  2  0  0  0
 14103  1  0  0  0
 15104  1  0  0  0
 16 17  2  0  0  0
 16 21  1  0  0  0
 16 31  1  0  0  0
 17 18  1  0  0  0
 17105  1  0  0  0
 18 19  2  0  0  0
 18106  1  0  0  0
 19 20  1  0  0  0
 19 24  1  0  0  0
 20 21  2  0  0  0
 20107  1  0  0  0
 21 23  1  0  0  0
 22 28  1  0  0  0
 22 32  2  0  0  0
 26 27  1  0  0  0
 28108  1  0  0  0
 28109  1  0  0  0
 29110  1  0  0  0
 29111  1  0  0  0
 33 34  1  0  0  0
 33 66  1  0  0  0
 33 70  2  0  0  0
 34 36  1  0  0  0
 34 59  1  0  0  0
 34112  1  0  0  0
 35 44  2  0  0  0
 35 45  1  0  0  0
 35 68  1  0  0  0
 36 56  1  0  0  0
 36113  1  0  0  0
 37 39  1  0  0  0
 37 47  1  0  0  0
 37 66  1  0  0  0
 37114  1  0  0  0
 38 43  2  0  0  0
 38 46  1  0  0  0
 38 47  1  0  0  0
 39 64  1  0  0  0
 39 67  2  0  0  0
 40 52  1  0  0  0
 40 53  2  0  0  0
 40 58  1  0  0  0
 41115  1  0  0  0
 41116  1  0  0  0
 41117  1  0  0  0
 41 48  1  0  0  0
 42 43  1  0  0  0
 42 66  1  0  0  0
 42118  1  0  0  0
 42119  1  0  0  0
 43 44  1  0  0  0
 44120  1  0  0  0
 45 46  2  0  0  0
 45121  1  0  0  0
 46122  1  0  0  0
 47123  1  0  0  0
 47124  1  0  0  0
 48 56  1  0  0  0
 48 65  1  0  0  0
 48125  1  0  0  0
 49 50  1  0  0  0
 49 53  1  0  0  0
 49 64  1  0  0  0
 49126  1  0  0  0
 50 51  1  0  0  0
 50127  1  0  0  0
 50128  1  0  0  0
 51 52  1  0  0  0
 51129  1  0  0  0
 51130  1  0  0  0
 52131  1  0  0  0
 52132  1  0  0  0
 53 54  1  0  0  0
 54 55  2  0  0  0
 54133  1  0  0  0
 55 57  1  0  0  0
 55134  1  0  0  0
 56 69  2  0  0  0
 57 58  2  0  0  0
 57135  1  0  0  0
 58136  1  0  0  0
 59 60  1  0  0  0
 59 61  1  0  0  0
 59 62  1  0  0  0
 60137  1  0  0  0
 60138  1  0  0  0
 60139  1  0  0  0
 61140  1  0  0  0
 61141  1  0  0  0
 61142  1  0  0  0
 62143  1  0  0  0
 62144  1  0  0  0
 62145  1  0  0  0
 63 65  1  0  0  0
 63146  1  0  0  0
 63147  1  0  0  0
 63148  1  0  0  0
 64149  1  0  0  0
 65150  1  0  0  0
 68 89  1  0  0  0
 71 72  2  0  0  0
 71 73  1  0  0  0
 71151  1  0  0  0
 72 74  1  0  0  0
 72 82  1  0  0  0
 73 75  2  0  0  0
 73 81  1  0  0  0
 74 76  2  0  0  0
 74 77  1  0  0  0
 75 76  1  0  0  0
 75 83  1  0  0  0
 76 84  1  0  0  0
 77152  1  0  0  0
 77153  1  0  0  0
 77154  1  0  0  0
 78 81  1  0  0  0
 78155  1  0  0  0
 78156  1  0  0  0
 78157  1  0  0  0
 79 83  1  0  0  0
 79158  1  0  0  0
 79159  1  0  0  0
 79160  1  0  0  0
 80161  1  0  0  0
 80162  1  0  0  0
 80163  1  0  0  0
 80 90  1  0  0  0
 81164  1  0  0  0
 81165  1  0  0  0
 82 85  1  0  0  0
 82166  1  0  0  0
 82167  1  0  0  0
 83168  1  0  0  0
 83169  1  0  0  0
 84 91  1  0  0  0
 84170  1  0  0  0
 84171  1  0  0  0
 85 90  1  0  0  0
 85172  1  0  0  0
 85173  1  0  0  0
 86 87  1  0  0  0
 86 88  1  0  0  0
 86174  1  0  0  0
 86175  1  0  0  0
 87 89  1  0  0  0
 87176  1  0  0  0
 87177  1  0  0  0
 88 90  1  0  0  0
 88178  1  0  0  0
 88179  1  0  0  0
 89180  1  0  0  0
 89181  1  0  0  0
 90182  1  0  0  0
 91183  1  0  0  0
M  ISO  4   1 100  68 101  89 101  91 100
M  END
> <chiral flag>
0

> <version>
0

> <s_m_source_file>
/data/baiqing/PycharmProjects/Reinvent-master-3.2/result/LINK_invent/BTK/process_docking_weight1_custom_sum_contain_oxygen_bond_distance_aromatic_linkinvent_7_9_3/rearranged_h_0024.sdf

> <i_m_source_file_index>
78

> <r_mmod_Potential_Energy-OPLS-2005>
-24.4519844055176

> <r_mmod_Stretch_Energy-OPLS-2005>
43.2511596679688

> <r_mmod_Bend_Energy-OPLS-2005>
123.278076171875

> <r_mmod_Torsional_Energy-OPLS-2005>
247.59992980957

> <r_mmod_Improper_Torsional_Energy-OPLS-2005>
4.05460643768311

> <r_mmod_Van_der_Waal_Energy-OPLS-2005>
176.035339355469

> <r_mmod_Electrostatic_Energy-OPLS-2005>
-427.325958251953

> <r_mmod_Solvation_Energy-OPLS-2005>
-202.810943603516

> <b_mmod_Minimization_Converged-OPLS-2005>
0

> <r_mmod_RMS_Derivative-OPLS-2005>
2.64166474342346

$$$$
78
                    3D
 Structure written by MMmdl.
184192  0  0  1  0            999 V2000
  -30.6731  -14.4694   20.6773 C   0  0  0  0  0  0
  -30.4283  -12.3498   19.4243 C   0  0  0  0  0  0
  -29.4833  -12.5394   18.2183 C   0  0  0  0  0  0
  -28.0054  -12.3759   18.6325 C   0  0  0  0  0  0
  -27.6559  -13.1970   19.8997 C   0  0  2  0  0  0
  -28.6977  -12.9006   20.9999 C   0  0  0  0  0  0
  -25.2367  -13.7921   20.5401 C   0  0  0  0  0  0
  -24.1666  -13.0240   20.9224 C   0  0  0  0  0  0
  -24.6331  -11.6754   20.8858 C   0  0  0  0  0  0
  -23.9057  -10.4135   21.0453 C   0  0  0  0  0  0
  -24.3625   -9.4006   21.9175 C   0  0  0  0  0  0
  -23.6214   -8.2084   22.0758 C   0  0  0  0  0  0
  -22.4187   -8.0231   21.3581 C   0  0  0  0  0  0
  -21.9831   -9.0223   20.4745 C   0  0  0  0  0  0
  -22.7184  -10.2054   20.3157 C   0  0  0  0  0  0
  -21.6826   -6.0705   22.5224 C   0  0  0  0  0  0
  -21.3992   -6.5635   23.8147 C   0  0  0  0  0  0
  -21.3706   -5.6807   24.9113 C   0  0  0  0  0  0
  -21.6029   -4.3056   24.7161 C   0  0  0  0  0  0
  -21.8807   -3.8136   23.4275 C   0  0  0  0  0  0
  -21.9177   -4.6944   22.3342 C   0  0  0  0  0  0
  -22.7744  -13.5081   21.2038 C   0  0  0  0  0  0
  -22.1648   -4.2120   21.0911 F   0  0  0  0  0  0
  -21.5651   -3.4565   25.7671 F   0  0  0  0  0  0
  -30.0135  -13.2913   20.4798 N   0  0  0  0  0  0
  -26.2947  -12.9180   20.3494 N   0  0  0  0  0  0
  -25.9268  -11.6379   20.5941 N   0  0  0  0  0  0
  -22.0416  -12.8214   22.0787 N   0  0  0  0  0  0
  -25.3952  -15.1476   20.3166 N   0  0  0  0  0  0
  -31.7441  -14.7143   20.1114 O   0  0  0  0  0  0
  -21.6576   -6.8818   21.4206 O   0  0  0  0  0  0
  -22.3329  -14.5292   20.6830 O   0  0  0  0  0  0
  -24.6166  -31.8678   23.2117 C   0  0  0  0  0  0
  -25.9025  -32.4823   23.8460 C   0  0  1  0  0  0
  -27.2474  -27.4812   20.1005 C   0  0  0  0  0  0
  -25.5902  -33.8610   24.2391 N   0  0  0  0  0  0
  -23.4025  -30.4917   21.5484 C   0  0  2  0  0  0
  -24.8514  -28.9683   20.1156 C   0  0  0  0  0  0
  -22.7417  -29.4601   22.4954 C   0  0  0  0  0  0
  -18.0344  -28.1408   22.8284 C   0  0  0  0  0  0
  -24.1498  -36.7320   23.2656 C   0  0  0  0  0  0
  -25.9312  -30.8528   21.3580 C   0  0  0  0  0  0
  -26.0044  -29.4894   20.7138 C   0  0  0  0  0  0
  -27.2057  -28.7591   20.6991 C   0  0  0  0  0  0
  -26.0805  -26.9654   19.4980 C   0  0  0  0  0  0
  -24.8816  -27.7016   19.5052 C   0  0  0  0  0  0
  -23.6103  -29.8281   20.1617 C   0  0  0  0  0  0
  -25.4085  -36.3095   24.0389 C   0  0  1  0  0  0
  -20.5906  -28.3575   23.1407 C   0  0  2  0  0  0
  -20.6799  -26.9240   22.5661 C   0  0  0  0  0  0
  -19.5960  -26.6137   21.5310 C   0  0  0  0  0  0
  -18.1908  -26.8196   22.1021 C   0  0  0  0  0  0
  -19.1548  -28.8736   23.2965 C   0  0  0  0  0  0
  -18.9403  -30.1202   23.9217 C   0  0  0  0  0  0
  -17.6391  -30.6376   24.0785 C   0  0  0  0  0  0
  -25.9012  -34.9450   23.5173 C   0  0  0  0  0  0
  -16.5330  -29.8982   23.6257 C   0  0  0  0  0  0
  -16.7325  -28.6512   23.0114 C   0  0  0  0  0  0
  -26.4453  -31.6629   25.0790 C   0  0  0  0  0  0
  -25.3773  -31.3667   26.1593 C   0  0  0  0  0  0
  -27.0332  -30.3120   24.6078 C   0  0  0  0  0  0
  -27.6043  -32.4378   25.7504 C   0  0  0  0  0  0
  -27.5563  -37.1789   24.8455 C   0  0  0  0  0  0
  -21.4155  -29.2862   22.3679 N   0  0  0  0  0  0
  -26.4253  -37.3787   23.9451 N   0  0  0  0  0  0
  -24.6685  -31.0896   22.0933 N   0  0  0  0  0  0
  -23.4199  -28.8088   23.2936 O   0  0  0  0  0  0
  -28.3872  -26.7217   20.0419 O   0  0  0  0  0  0
  -26.5555  -34.8903   22.4728 O   0  0  0  0  0  0
  -23.5351  -32.1336   23.7531 O   0  0  0  0  0  0
  -27.6852  -19.5910   22.8709 C   0  0  0  0  0  0
  -27.6336  -18.1916   22.5880 C   0  0  0  0  0  0
  -25.2607  -18.4411   22.0237 C   0  0  0  0  0  0
  -26.5199  -20.3907   22.7092 C   0  0  0  0  0  0
  -26.3577  -17.6280   22.3678 C   0  0  0  0  0  0
  -25.3991  -19.8361   22.0614 C   0  0  0  0  0  0
  -28.9653  -20.2214   23.3833 C   0  0  0  0  0  0
  -23.9157  -17.8347   21.6756 C   0  0  0  0  0  0
  -26.0805  -26.5337   24.6085 C   0  0  0  0  0  0
  -28.9042  -17.2967   22.5983 C   0  0  0  0  0  0
  -23.8813  -23.5521   23.7259 C   0  0  0  0  0  0
  -24.9064  -23.0005   24.7557 C   0  0  0  0  0  0
  -28.8527  -25.4196   22.0564 C   0  0  0  0  0  0
  -28.0494  -25.6784   23.3518 C   0  0  0  0  0  0
  -28.9241  -16.0547   21.6420 C   0  0  0  0  0  0
  -24.3281  -24.7888   22.9135 C   0  0  0  0  0  0
  -25.5018  -21.6179   24.4059 C   0  0  0  0  0  0
  -29.2093  -26.6584   21.2077 C   0  0  0  0  0  0
  -26.5501  -26.0116   23.2214 C   0  0  1  0  0  0
  -30.2168  -15.3314   21.6159 N   0  0  0  0  0  0
  -25.7952  -24.8308   22.7018 N   0  3  0  0  0  0
  -26.3923  -21.6496   23.2685 O   0  0  0  0  0  0
  -26.1776  -16.2969   22.5103 F   0  0  0  0  0  0
  -24.1605  -20.8650   21.4314 Cl  0  0  0  0  0  0
  -31.4645  -12.4981   19.1175 H   0  0  0  0  0  0
  -30.3768  -11.3265   19.7982 H   0  0  0  0  0  0
  -29.7331  -11.8381   17.4198 H   0  0  0  0  0  0
  -29.6315  -13.5373   17.8015 H   0  0  0  0  0  0
  -27.8300  -11.3185   18.8277 H   0  0  0  0  0  0
  -27.3448  -12.6504   17.8087 H   0  0  0  0  0  0
  -27.7078  -14.2517   19.6427 H   0  0  0  0  0  0
  -28.6920  -11.8289   21.2062 H   0  0  0  0  0  0
  -28.4620  -13.3446   21.9626 H   0  0  0  0  0  0
  -25.2798   -9.5347   22.4752 H   0  0  0  0  0  0
  -23.9877   -7.4412   22.7443 H   0  0  0  0  0  0
  -21.0785   -8.8707   19.9000 H   0  0  0  0  0  0
  -22.3644  -10.9580   19.6270 H   0  0  0  0  0  0
  -21.1984   -7.6161   23.9594 H   0  0  0  0  0  0
  -21.1635   -6.0610   25.9010 H   0  0  0  0  0  0
  -22.0573   -2.7612   23.2726 H   0  0  0  0  0  0
  -22.4027  -11.9998   22.5354 H   0  0  0  0  0  0
  -21.1021  -13.1202   22.2848 H   0  0  0  0  0  0
  -24.6966  -15.7299   20.7575 H   0  0  0  0  0  0
  -26.3177  -15.4941   20.5366 H   0  0  0  0  0  0
  -26.7164  -32.5550   23.1325 H   0  0  0  0  0  0
  -25.0209  -33.9821   25.0619 H   0  0  0  0  0  0
  -22.6851  -31.3046   21.4086 H   0  0  0  0  0  0
  -23.3761  -35.9656   23.3302 H   0  0  0  0  0  0
  -24.3596  -36.8907   22.2065 H   0  0  0  0  0  0
  -23.7256  -37.6531   23.6653 H   0  0  0  0  0  0
  -26.0513  -31.6206   20.5911 H   0  0  0  0  0  0
  -26.8236  -30.9032   21.9747 H   0  0  0  0  0  0
  -28.0979  -29.2033   21.1174 H   0  0  0  0  0  0
  -26.1106  -25.9940   19.0256 H   0  0  0  0  0  0
  -23.9937  -27.3008   19.0380 H   0  0  0  0  0  0
  -23.7135  -30.6055   19.4041 H   0  0  0  0  0  0
  -22.7440  -29.2358   19.8624 H   0  0  0  0  0  0
  -25.1234  -36.1963   25.0884 H   0  0  0  0  0  0
  -20.9933  -28.3242   24.1556 H   0  0  0  0  0  0
  -20.5469  -26.2236   23.3951 H   0  0  0  0  0  0
  -21.6679  -26.7055   22.1604 H   0  0  0  0  0  0
  -19.6965  -25.5919   21.1635 H   0  0  0  0  0  0
  -19.7417  -27.2690   20.6705 H   0  0  0  0  0  0
  -17.4723  -26.7907   21.2816 H   0  0  0  0  0  0
  -17.9087  -26.0128   22.7770 H   0  0  0  0  0  0
  -19.7850  -30.6796   24.2937 H   0  0  0  0  0  0
  -17.4847  -31.5925   24.5621 H   0  0  0  0  0  0
  -15.5281  -30.2771   23.7432 H   0  0  0  0  0  0
  -15.8786  -28.0904   22.6584 H   0  0  0  0  0  0
  -24.5884  -30.7072   25.7957 H   0  0  0  0  0  0
  -24.9063  -32.2804   26.5214 H   0  0  0  0  0  0
  -25.8185  -30.8714   27.0269 H   0  0  0  0  0  0
  -26.2900  -29.6923   24.1061 H   0  0  0  0  0  0
  -27.4138  -29.7267   25.4463 H   0  0  0  0  0  0
  -27.8718  -30.4576   23.9272 H   0  0  0  0  0  0
  -27.2651  -33.3656   26.2150 H   0  0  0  0  0  0
  -28.3775  -32.6990   25.0257 H   0  0  0  0  0  0
  -28.0869  -31.8514   26.5334 H   0  0  0  0  0  0
  -28.2543  -38.0115   24.7500 H   0  0  0  0  0  0
  -28.1090  -36.2625   24.6257 H   0  0  0  0  0  0
  -27.2320  -37.1443   25.8872 H   0  0  0  0  0  0
  -20.9288  -29.8501   21.6860 H   0  0  0  0  0  0
  -26.0147  -38.2872   24.1444 H   0  0  0  0  0  0
  -29.6890  -20.2782   22.5677 H   0  0  0  0  0  0
  -29.3955  -19.6219   24.1860 H   0  0  0  0  0  0
  -28.7949  -21.2287   23.7636 H   0  0  0  0  0  0
  -23.8292  -16.8095   22.0378 H   0  0  0  0  0  0
  -23.7622  -17.8612   20.5973 H   0  0  0  0  0  0
  -23.1201  -18.4014   22.1578 H   0  0  0  0  0  0
  -26.7746  -27.2855   24.9894 H   0  0  0  0  0  0
  -26.0264  -25.7597   25.3726 H   0  0  0  0  0  0
  -25.1133  -27.0292   24.5567 H   0  0  0  0  0  0
  -29.0806  -16.9695   23.6228 H   0  0  0  0  0  0
  -29.7545  -17.9191   22.3200 H   0  0  0  0  0  0
  -22.9742  -23.8505   24.2567 H   0  0  0  0  0  0
  -23.5378  -22.7560   23.0667 H   0  0  0  0  0  0
  -24.4032  -22.9191   25.7218 H   0  0  0  0  0  0
  -25.7135  -23.6964   24.9480 H   0  0  0  0  0  0
  -28.4019  -24.6472   21.4357 H   0  0  0  0  0  0
  -29.8050  -24.9968   22.3848 H   0  0  0  0  0  0
  -28.5499  -26.4849   23.8868 H   0  0  0  0  0  0
  -28.1384  -24.8179   24.0187 H   0  0  0  0  0  0
  -28.6819  -16.3712   20.6310 H   0  0  0  0  0  0
  -28.1431  -15.3702   21.9386 H   0  0  0  0  0  0
  -23.9454  -25.6807   23.4010 H   0  0  0  0  0  0
  -23.8342  -24.7755   21.9415 H   0  0  0  0  0  0
  -24.6822  -20.8998   24.2900 H   0  0  0  0  0  0
  -26.0742  -21.2582   25.2660 H   0  0  0  0  0  0
  -30.2357  -26.5495   20.8530 H   0  0  0  0  0  0
  -29.2220  -27.5653   21.8089 H   0  0  0  0  0  0
  -26.4204  -26.8379   22.5253 H   0  0  0  0  0  0
  -30.9675  -15.9354   21.9160 H   0  0  0  0  0  0
  -25.9448  -24.7547   21.7101 H   0  0  0  0  0  0
  -26.1705  -23.9862   23.1108 H   0  0  0  0  0  0
  1 25  1  0  0  0
  1 30  2  0  0  0
  1 90  1  0  0  0
  2  3  1  0  0  0
  2 25  1  0  0  0
  2 95  1  0  0  0
  2 96  1  0  0  0
  3  4  1  0  0  0
  3 97  1  0  0  0
  3 98  1  0  0  0
  4  5  1  0  0  0
  4 99  1  0  0  0
  4100  1  0  0  0
  5  6  1  0  0  0
  5 26  1  0  0  0
  5101  1  0  0  0
  6 25  1  0  0  0
  6102  1  0  0  0
  6103  1  0  0  0
  7  8  2  0  0  0
  7 26  1  0  0  0
  7 29  1  0  0  0
  8  9  1  0  0  0
  8 22  1  0  0  0
  9 10  1  0  0  0
  9 27  2  0  0  0
 10 11  2  0  0  0
 10 15  1  0  0  0
 11 12  1  0  0  0
 11104  1  0  0  0
 12 13  2  0  0  0
 12105  1  0  0  0
 13 14  1  0  0  0
 13 31  1  0  0  0
 14 15  2  0  0  0
 14106  1  0  0  0
 15107  1  0  0  0
 16 17  2  0  0  0
 16 21  1  0  0  0
 16 31  1  0  0  0
 17 18  1  0  0  0
 17108  1  0  0  0
 18 19  2  0  0  0
 18109  1  0  0  0
 19 20  1  0  0  0
 19 24  1  0  0  0
 20 21  2  0  0  0
 20110  1  0  0  0
 21 23  1  0  0  0
 22 28  1  0  0  0
 22 32  2  0  0  0
 26 27  1  0  0  0
 28111  1  0  0  0
 28112  1  0  0  0
 29113  1  0  0  0
 29114  1  0  0  0
 33 34  1  0  0  0
 33 66  1  0  0  0
 33 70  2  0  0  0
 34 36  1  0  0  0
 34 59  1  0  0  0
 34115  1  0  0  0
 35 44  2  0  0  0
 35 45  1  0  0  0
 35 68  1  0  0  0
 36 56  1  0  0  0
 36116  1  0  0  0
 37 39  1  0  0  0
 37 47  1  0  0  0
 37 66  1  0  0  0
 37117  1  0  0  0
 38 43  2  0  0  0
 38 46  1  0  0  0
 38 47  1  0  0  0
 39 64  1  0  0  0
 39 67  2  0  0  0
 40 52  1  0  0  0
 40 53  2  0  0  0
 40 58  1  0  0  0
 41118  1  0  0  0
 41119  1  0  0  0
 41120  1  0  0  0
 41 48  1  0  0  0
 42 43  1  0  0  0
 42 66  1  0  0  0
 42121  1  0  0  0
 42122  1  0  0  0
 43 44  1  0  0  0
 44123  1  0  0  0
 45 46  2  0  0  0
 45124  1  0  0  0
 46125  1  0  0  0
 47126  1  0  0  0
 47127  1  0  0  0
 48 56  1  0  0  0
 48 65  1  0  0  0
 48128  1  0  0  0
 49 50  1  0  0  0
 49 53  1  0  0  0
 49 64  1  0  0  0
 49129  1  0  0  0
 50 51  1  0  0  0
 50130  1  0  0  0
 50131  1  0  0  0
 51 52  1  0  0  0
 51132  1  0  0  0
 51133  1  0  0  0
 52134  1  0  0  0
 52135  1  0  0  0
 53 54  1  0  0  0
 54 55  2  0  0  0
 54136  1  0  0  0
 55 57  1  0  0  0
 55137  1  0  0  0
 56 69  2  0  0  0
 57 58  2  0  0  0
 57138  1  0  0  0
 58139  1  0  0  0
 59 60  1  0  0  0
 59 61  1  0  0  0
 59 62  1  0  0  0
 60140  1  0  0  0
 60141  1  0  0  0
 60142  1  0  0  0
 61143  1  0  0  0
 61144  1  0  0  0
 61145  1  0  0  0
 62146  1  0  0  0
 62147  1  0  0  0
 62148  1  0  0  0
 63 65  1  0  0  0
 63149  1  0  0  0
 63150  1  0  0  0
 63151  1  0  0  0
 64152  1  0  0  0
 65153  1  0  0  0
 68 88  1  0  0  0
 71 72  2  0  0  0
 71 74  1  0  0  0
 71 77  1  0  0  0
 72 75  1  0  0  0
 72 80  1  0  0  0
 73 75  2  0  0  0
 73 76  1  0  0  0
 73 78  1  0  0  0
 74 76  2  0  0  0
 74 92  1  0  0  0
 75 93  1  0  0  0
 76 94  1  0  0  0
 77154  1  0  0  0
 77155  1  0  0  0
 77156  1  0  0  0
 78157  1  0  0  0
 78158  1  0  0  0
 78159  1  0  0  0
 79160  1  0  0  0
 79161  1  0  0  0
 79162  1  0  0  0
 79 89  1  0  0  0
 80 85  1  0  0  0
 80163  1  0  0  0
 80164  1  0  0  0
 81 82  1  0  0  0
 81 86  1  0  0  0
 81165  1  0  0  0
 81166  1  0  0  0
 82 87  1  0  0  0
 82167  1  0  0  0
 82168  1  0  0  0
 83 84  1  0  0  0
 83 88  1  0  0  0
 83169  1  0  0  0
 83170  1  0  0  0
 84 89  1  0  0  0
 84171  1  0  0  0
 84172  1  0  0  0
 85 90  1  0  0  0
 85173  1  0  0  0
 85174  1  0  0  0
 86 91  1  0  0  0
 86175  1  0  0  0
 86176  1  0  0  0
 87 92  1  0  0  0
 87177  1  0  0  0
 87178  1  0  0  0
 88179  1  0  0  0
 88180  1  0  0  0
 89 91  1  0  0  0
 89181  1  0  0  0
 90182  1  0  0  0
 91183  1  0  0  0
 91184  1  0  0  0
M  CHG  1  91   1
M  ISO  4   1 100  68 101  88 101  90 100
M  END
> <chiral flag>
0

> <version>
0

> <s_m_source_file>
/data/baiqing/PycharmProjects/Reinvent-master-3.2/result/LINK_invent/BTK/process_docking_weight1_custom_sum_contain_oxygen_bond_distance_aromatic_linkinvent_7_9_3/rearranged_h_0024.sdf

> <i_m_source_file_index>
79

> <r_mmod_Potential_Energy-OPLS-2005>
-6.88635683059692

> <r_mmod_Stretch_Energy-OPLS-2005>
45.0831146240234

> <r_mmod_Bend_Energy-OPLS-2005>
136.223526000977

> <r_mmod_Torsional_Energy-OPLS-2005>
403.549652099609

> <r_mmod_Improper_Torsional_Energy-OPLS-2005>
12.7171077728271

> <r_mmod_Van_der_Waal_Energy-OPLS-2005>
148.233169555664

> <r_mmod_Electrostatic_Energy-OPLS-2005>
-383.846008300781

> <r_mmod_Solvation_Energy-OPLS-2005>
-383.995971679688

> <b_mmod_Minimization_Converged-OPLS-2005>
0

> <r_mmod_RMS_Derivative-OPLS-2005>
9.31990718841553

$$$$
79
                    3D
 Structure written by MMmdl.
165173  0  0  1  0            999 V2000
  -30.7820  -14.3425   20.7267 C   0  0  0  0  0  0
  -30.4200  -12.3032   19.3823 C   0  0  0  0  0  0
  -29.4800  -12.5311   18.1854 C   0  0  0  0  0  0
  -28.0067  -12.3788   18.6071 C   0  0  0  0  0  0
  -27.6649  -13.2009   19.8764 C   0  0  2  0  0  0
  -28.7016  -12.9372   20.9876 C   0  0  0  0  0  0
  -25.2604  -13.8159   20.5674 C   0  0  0  0  0  0
  -24.1844  -13.0447   20.9173 C   0  0  0  0  0  0
  -24.6387  -11.6911   20.8725 C   0  0  0  0  0  0
  -23.9056  -10.4303   21.0406 C   0  0  0  0  0  0
  -24.3611   -9.4218   21.9185 C   0  0  0  0  0  0
  -23.6292   -8.2251   22.0749 C   0  0  0  0  0  0
  -22.4274   -8.0285   21.3542 C   0  0  0  0  0  0
  -21.9907   -9.0261   20.4646 C   0  0  0  0  0  0
  -22.7228  -10.2146   20.3055 C   0  0  0  0  0  0
  -21.6852   -6.0739   22.5282 C   0  0  0  0  0  0
  -21.4013   -6.5642   23.8215 C   0  0  0  0  0  0
  -21.3657   -5.6793   24.9177 C   0  0  0  0  0  0
  -21.6043   -4.3056   24.7225 C   0  0  0  0  0  0
  -21.8820   -3.8150   23.4346 C   0  0  0  0  0  0
  -21.9194   -4.6968   22.3403 C   0  0  0  0  0  0
  -22.7872  -13.5254   21.1856 C   0  0  0  0  0  0
  -22.1663   -4.2153   21.0982 F   0  0  0  0  0  0
  -21.5630   -3.4540   25.7740 F   0  0  0  0  0  0
  -30.0454  -13.2351   20.4537 N   0  0  0  0  0  0
  -26.3038  -12.9318   20.3373 N   0  0  0  0  0  0
  -25.9308  -11.6481   20.5749 N   0  0  0  0  0  0
  -22.0503  -12.8242   22.0403 N   0  0  0  0  0  0
  -25.4348  -15.1870   20.4085 N   0  0  0  0  0  0
  -31.7830  -14.6720   20.0843 O   0  0  0  0  0  0
  -21.6636   -6.8884   21.4243 O   0  0  0  0  0  0
  -22.3561  -14.5562   20.6712 O   0  0  0  0  0  0
  -24.6104  -31.8721   23.2120 C   0  0  0  0  0  0
  -25.9029  -32.4840   23.8400 C   0  0  1  0  0  0
  -27.2399  -27.4823   20.0930 C   0  0  0  0  0  0
  -25.5906  -33.8637   24.2334 N   0  0  0  0  0  0
  -23.3959  -30.4958   21.5494 C   0  0  2  0  0  0
  -24.8455  -28.9632   20.1166 C   0  0  0  0  0  0
  -22.7389  -29.4682   22.4984 C   0  0  0  0  0  0
  -18.0272  -28.1386   22.8513 C   0  0  0  0  0  0
  -24.1475  -36.7323   23.2644 C   0  0  0  0  0  0
  -25.9175  -30.8521   21.3567 C   0  0  0  0  0  0
  -25.9990  -29.4850   20.7166 C   0  0  0  0  0  0
  -27.1995  -28.7484   20.7110 C   0  0  0  0  0  0
  -26.0787  -26.9613   19.4888 C   0  0  0  0  0  0
  -24.8767  -27.6956   19.5042 C   0  0  0  0  0  0
  -23.6039  -29.8249   20.1630 C   0  0  0  0  0  0
  -25.4094  -36.3119   24.0348 C   0  0  1  0  0  0
  -20.5859  -28.3670   23.1332 C   0  0  2  0  0  0
  -20.6767  -26.9414   22.5420 C   0  0  0  0  0  0
  -19.5740  -26.6404   21.5224 C   0  0  0  0  0  0
  -18.1919  -26.7936   22.1634 C   0  0  0  0  0  0
  -19.1518  -28.8844   23.2923 C   0  0  0  0  0  0
  -18.9444  -30.1456   23.8936 C   0  0  0  0  0  0
  -17.6445  -30.6597   24.0587 C   0  0  0  0  0  0
  -25.9026  -34.9489   23.5121 C   0  0  0  0  0  0
  -16.5338  -29.9116   23.6321 C   0  0  0  0  0  0
  -16.7257  -28.6520   23.0358 C   0  0  0  0  0  0
  -26.4463  -31.6601   25.0715 C   0  0  0  0  0  0
  -25.3747  -31.3724   26.1475 C   0  0  0  0  0  0
  -27.0278  -30.3051   24.6051 C   0  0  0  0  0  0
  -27.6042  -32.4314   25.7480 C   0  0  0  0  0  0
  -27.5576  -37.1817   24.8473 C   0  0  0  0  0  0
  -21.4115  -29.3042   22.3731 N   0  0  0  0  0  0
  -26.4281  -37.3806   23.9425 N   0  0  0  0  0  0
  -24.6602  -31.0863   22.0995 N   0  0  0  0  0  0
  -23.4190  -28.8248   23.3011 O   0  0  0  0  0  0
  -28.4032  -26.7632   20.0462 O   0  0  0  0  0  0
  -26.5573  -34.8944   22.4679 O   0  0  0  0  0  0
  -23.5313  -32.1452   23.7550 O   0  0  0  0  0  0
  -30.3229  -19.8205   22.2662 C   0  0  0  0  0  0
  -28.9867  -19.9048   22.7165 C   0  0  0  0  0  0
  -31.0136  -18.5927   22.2109 C   0  0  0  0  0  0
  -28.3295  -18.7162   23.1327 C   0  0  0  0  0  0
  -30.3501  -17.3964   22.5931 C   0  0  0  0  0  0
  -29.0111  -17.4709   23.0678 C   0  0  0  0  0  0
  -26.8907  -18.7754   23.6441 C   0  0  0  0  0  0
  -31.0923  -16.0522   22.5490 C   0  0  0  0  0  0
  -28.2731  -21.2648   22.7817 C   0  0  0  0  0  0
  -28.6387  -24.5996   21.0363 C   0  0  0  0  0  0
  -28.8725  -23.7631   22.3071 C   0  0  0  0  0  0
  -28.7351  -26.1134   21.2685 C   0  0  0  0  0  0
  -32.4708  -18.5962   21.7470 C   0  0  0  0  0  0
  -30.3936  -14.9912   21.8296 N   0  0  0  0  0  0
  -28.9273  -22.3220   21.9900 N   0  3  0  0  0  0
  -32.9788  -19.8277   21.6714 F   0  0  0  0  0  0
  -32.5730  -18.0223   20.5490 F   0  0  0  0  0  0
  -28.2026  -16.0336   23.6102 Cl  0  0  0  0  0  0
  -31.4591  -12.4240   19.0720 H   0  0  0  0  0  0
  -30.3386  -11.2781   19.7467 H   0  0  0  0  0  0
  -29.7163  -11.8285   17.3850 H   0  0  0  0  0  0
  -29.6425  -13.5289   17.7748 H   0  0  0  0  0  0
  -27.8213  -11.3201   18.7917 H   0  0  0  0  0  0
  -27.3493  -12.6649   17.7849 H   0  0  0  0  0  0
  -27.7248  -14.2556   19.6059 H   0  0  0  0  0  0
  -28.6651  -11.8919   21.2983 H   0  0  0  0  0  0
  -28.4351  -13.5070   21.8768 H   0  0  0  0  0  0
  -25.2757   -9.5697   22.4754 H   0  0  0  0  0  0
  -24.0005   -7.4641   22.7459 H   0  0  0  0  0  0
  -21.0840   -8.8781   19.8948 H   0  0  0  0  0  0
  -22.3688  -10.9686   19.6161 H   0  0  0  0  0  0
  -21.1999   -7.6147   23.9723 H   0  0  0  0  0  0
  -21.1477   -6.0520   25.9082 H   0  0  0  0  0  0
  -22.0598   -2.7611   23.2847 H   0  0  0  0  0  0
  -22.4115  -11.9903   22.4791 H   0  0  0  0  0  0
  -21.1123  -13.1278   22.2604 H   0  0  0  0  0  0
  -24.6789  -15.8508   20.5332 H   0  0  0  0  0  0
  -26.3040  -15.6241   20.1293 H   0  0  0  0  0  0
  -26.7133  -32.5585   23.1206 H   0  0  0  0  0  0
  -25.0097  -33.9800   25.0503 H   0  0  0  0  0  0
  -22.6798  -31.3097   21.4128 H   0  0  0  0  0  0
  -23.3731  -35.9661   23.3318 H   0  0  0  0  0  0
  -24.3563  -36.8914   22.2054 H   0  0  0  0  0  0
  -23.7241  -37.6544   23.6632 H   0  0  0  0  0  0
  -26.0123  -31.6123   20.5799 H   0  0  0  0  0  0
  -26.8122  -30.9170   21.9640 H   0  0  0  0  0  0
  -28.0907  -29.1540   21.1682 H   0  0  0  0  0  0
  -26.1104  -25.9946   19.0051 H   0  0  0  0  0  0
  -23.9899  -27.2887   19.0381 H   0  0  0  0  0  0
  -23.7073  -30.5972   19.4003 H   0  0  0  0  0  0
  -22.7293  -29.2411   19.8700 H   0  0  0  0  0  0
  -25.1272  -36.1984   25.0842 H   0  0  0  0  0  0
  -20.9955  -28.3235   24.1452 H   0  0  0  0  0  0
  -20.5675  -26.2284   23.3604 H   0  0  0  0  0  0
  -21.6637  -26.7470   22.1215 H   0  0  0  0  0  0
  -19.6896  -25.6322   21.1239 H   0  0  0  0  0  0
  -19.6681  -27.3220   20.6762 H   0  0  0  0  0  0
  -17.4196  -26.6702   21.4030 H   0  0  0  0  0  0
  -18.0328  -26.0051   22.9003 H   0  0  0  0  0  0
  -19.7909  -30.7276   24.2315 H   0  0  0  0  0  0
  -17.4995  -31.6278   24.5187 H   0  0  0  0  0  0
  -15.5340  -30.3051   23.7609 H   0  0  0  0  0  0
  -15.8648  -28.0867   22.7063 H   0  0  0  0  0  0
  -24.5902  -30.7089   25.7826 H   0  0  0  0  0  0
  -24.8971  -32.2887   26.4928 H   0  0  0  0  0  0
  -25.8105  -30.8886   27.0223 H   0  0  0  0  0  0
  -26.2800  -29.6856   24.1084 H   0  0  0  0  0  0
  -27.4028  -29.7248   25.4498 H   0  0  0  0  0  0
  -27.8647  -30.4381   23.9199 H   0  0  0  0  0  0
  -27.2671  -33.3584   26.2115 H   0  0  0  0  0  0
  -28.3835  -32.6904   25.0318 H   0  0  0  0  0  0
  -28.0728  -31.8407   26.5356 H   0  0  0  0  0  0
  -28.2618  -38.0094   24.7508 H   0  0  0  0  0  0
  -28.1034  -36.2625   24.6291 H   0  0  0  0  0  0
  -27.2281  -37.1481   25.8872 H   0  0  0  0  0  0
  -20.9253  -29.8758   21.6961 H   0  0  0  0  0  0
  -26.0160  -38.2879   24.1418 H   0  0  0  0  0  0
  -30.8468  -20.7116   21.9524 H   0  0  0  0  0  0
  -26.6882  -19.6916   24.1972 H   0  0  0  0  0  0
  -26.6485  -17.9667   24.3328 H   0  0  0  0  0  0
  -26.1946  -18.7264   22.8058 H   0  0  0  0  0  0
  -31.2132  -15.7156   23.5799 H   0  0  0  0  0  0
  -32.1045  -16.1421   22.1604 H   0  0  0  0  0  0
  -28.2064  -21.5798   23.8249 H   0  0  0  0  0  0
  -27.2551  -21.1656   22.4003 H   0  0  0  0  0  0
  -27.6576  -24.3652   20.6205 H   0  0  0  0  0  0
  -29.3712  -24.3218   20.2775 H   0  0  0  0  0  0
  -28.0900  -23.9621   23.0421 H   0  0  0  0  0  0
  -29.8168  -24.0453   22.7725 H   0  0  0  0  0  0
  -29.7534  -26.3925   21.5466 H   0  0  0  0  0  0
  -28.0871  -26.4177   22.0941 H   0  0  0  0  0  0
  -33.1187  -18.0622   22.4447 H   0  0  0  0  0  0
  -29.5567  -14.6451   22.2745 H   0  0  0  0  0  0
  -29.4646  -22.3088   22.8430 H   0  0  0  0  0  0
  -27.9541  -22.4842   21.7885 H   0  0  0  0  0  0
  1 25  1  0  0  0
  1 30  2  0  0  0
  1 84  1  0  0  0
  2  3  1  0  0  0
  2 25  1  0  0  0
  2 89  1  0  0  0
  2 90  1  0  0  0
  3  4  1  0  0  0
  3 91  1  0  0  0
  3 92  1  0  0  0
  4  5  1  0  0  0
  4 93  1  0  0  0
  4 94  1  0  0  0
  5  6  1  0  0  0
  5 26  1  0  0  0
  5 95  1  0  0  0
  6 25  1  0  0  0
  6 96  1  0  0  0
  6 97  1  0  0  0
  7  8  2  0  0  0
  7 26  1  0  0  0
  7 29  1  0  0  0
  8  9  1  0  0  0
  8 22  1  0  0  0
  9 10  1  0  0  0
  9 27  2  0  0  0
 10 11  2  0  0  0
 10 15  1  0  0  0
 11 12  1  0  0  0
 11 98  1  0  0  0
 12 13  2  0  0  0
 12 99  1  0  0  0
 13 14  1  0  0  0
 13 31  1  0  0  0
 14 15  2  0  0  0
 14100  1  0  0  0
 15101  1  0  0  0
 16 17  2  0  0  0
 16 21  1  0  0  0
 16 31  1  0  0  0
 17 18  1  0  0  0
 17102  1  0  0  0
 18 19  2  0  0  0
 18103  1  0  0  0
 19 20  1  0  0  0
 19 24  1  0  0  0
 20 21  2  0  0  0
 20104  1  0  0  0
 21 23  1  0  0  0
 22 28  1  0  0  0
 22 32  2  0  0  0
 26 27  1  0  0  0
 28105  1  0  0  0
 28106  1  0  0  0
 29107  1  0  0  0
 29108  1  0  0  0
 33 34  1  0  0  0
 33 66  1  0  0  0
 33 70  2  0  0  0
 34 36  1  0  0  0
 34 59  1  0  0  0
 34109  1  0  0  0
 35 44  2  0  0  0
 35 45  1  0  0  0
 35 68  1  0  0  0
 36 56  1  0  0  0
 36110  1  0  0  0
 37 39  1  0  0  0
 37 47  1  0  0  0
 37 66  1  0  0  0
 37111  1  0  0  0
 38 43  2  0  0  0
 38 46  1  0  0  0
 38 47  1  0  0  0
 39 64  1  0  0  0
 39 67  2  0  0  0
 40 52  1  0  0  0
 40 53  2  0  0  0
 40 58  1  0  0  0
 41112  1  0  0  0
 41113  1  0  0  0
 41114  1  0  0  0
 41 48  1  0  0  0
 42 43  1  0  0  0
 42 66  1  0  0  0
 42115  1  0  0  0
 42116  1  0  0  0
 43 44  1  0  0  0
 44117  1  0  0  0
 45 46  2  0  0  0
 45118  1  0  0  0
 46119  1  0  0  0
 47120  1  0  0  0
 47121  1  0  0  0
 48 56  1  0  0  0
 48 65  1  0  0  0
 48122  1  0  0  0
 49 50  1  0  0  0
 49 53  1  0  0  0
 49 64  1  0  0  0
 49123  1  0  0  0
 50 51  1  0  0  0
 50124  1  0  0  0
 50125  1  0  0  0
 51 52  1  0  0  0
 51126  1  0  0  0
 51127  1  0  0  0
 52128  1  0  0  0
 52129  1  0  0  0
 53 54  1  0  0  0
 54 55  2  0  0  0
 54130  1  0  0  0
 55 57  1  0  0  0
 55131  1  0  0  0
 56 69  2  0  0  0
 57 58  2  0  0  0
 57132  1  0  0  0
 58133  1  0  0  0
 59 60  1  0  0  0
 59 61  1  0  0  0
 59 62  1  0  0  0
 60134  1  0  0  0
 60135  1  0  0  0
 60136  1  0  0  0
 61137  1  0  0  0
 61138  1  0  0  0
 61139  1  0  0  0
 62140  1  0  0  0
 62141  1  0  0  0
 62142  1  0  0  0
 63 65  1  0  0  0
 63143  1  0  0  0
 63144  1  0  0  0
 63145  1  0  0  0
 64146  1  0  0  0
 65147  1  0  0  0
 68 82  1  0  0  0
 71 72  2  0  0  0
 71 73  1  0  0  0
 71148  1  0  0  0
 72 74  1  0  0  0
 72 79  1  0  0  0
 73 75  2  0  0  0
 73 83  1  0  0  0
 74 76  2  0  0  0
 74 77  1  0  0  0
 75 76  1  0  0  0
 75 78  1  0  0  0
 76 88  1  0  0  0
 77149  1  0  0  0
 77150  1  0  0  0
 77151  1  0  0  0
 78 84  1  0  0  0
 78152  1  0  0  0
 78153  1  0  0  0
 79 85  1  0  0  0
 79154  1  0  0  0
 79155  1  0  0  0
 80 81  1  0  0  0
 80 82  1  0  0  0
 80156  1  0  0  0
 80157  1  0  0  0
 81 85  1  0  0  0
 81158  1  0  0  0
 81159  1  0  0  0
 82160  1  0  0  0
 82161  1  0  0  0
 83 86  1  0  0  0
 83 87  1  0  0  0
 83162  1  0  0  0
 84163  1  0  0  0
 85164  1  0  0  0
 85165  1  0  0  0
M  CHG  1  85   1
M  ISO  4   1 100  68 101  82 101  84 100
M  END
> <chiral flag>
0

> <version>
0

> <s_m_source_file>
/data/baiqing/PycharmProjects/Reinvent-master-3.2/result/LINK_invent/BTK/process_docking_weight1_custom_sum_contain_oxygen_bond_distance_aromatic_linkinvent_7_9_3/rearranged_h_0024.sdf

> <i_m_source_file_index>
80

> <r_mmod_Potential_Energy-OPLS-2005>
-81.0792770385742

> <r_mmod_Stretch_Energy-OPLS-2005>
35.7029838562012

> <r_mmod_Bend_Energy-OPLS-2005>
287.7705078125

> <r_mmod_Torsional_Energy-OPLS-2005>
224.834487915039

> <r_mmod_Improper_Torsional_Energy-OPLS-2005>
2.36126804351807

> <r_mmod_Van_der_Waal_Energy-OPLS-2005>
164.444137573242

> <r_mmod_Electrostatic_Energy-OPLS-2005>
-324.283020019531

> <r_mmod_Solvation_Energy-OPLS-2005>
-478.569274902344

> <b_mmod_Minimization_Converged-OPLS-2005>
0

> <r_mmod_RMS_Derivative-OPLS-2005>
2.41838097572327

$$$$
80
                    3D
 Structure written by MMmdl.
188197  0  0  1  0            999 V2000
  -30.6932  -14.4112   20.4214 C   0  0  0  0  0  0
  -30.3931  -12.2254   19.4251 C   0  0  0  0  0  0
  -29.4794  -12.4519   18.1999 C   0  0  0  0  0  0
  -28.0023  -12.3255   18.6194 C   0  0  0  0  0  0
  -27.6514  -13.1853   19.8648 C   0  0  2  0  0  0
  -28.6942  -12.9875   20.9922 C   0  0  0  0  0  0
  -25.2494  -13.8081   20.5622 C   0  0  0  0  0  0
  -24.1763  -13.0392   20.9152 C   0  0  0  0  0  0
  -24.6323  -11.6853   20.8724 C   0  0  0  0  0  0
  -23.8993  -10.4265   21.0421 C   0  0  0  0  0  0
  -24.3563   -9.4171   21.9177 C   0  0  0  0  0  0
  -23.6266   -8.2187   22.0727 C   0  0  0  0  0  0
  -22.4245   -8.0201   21.3486 C   0  0  0  0  0  0
  -21.9881   -9.0199   20.4611 C   0  0  0  0  0  0
  -22.7182  -10.2105   20.3049 C   0  0  0  0  0  0
  -21.6800   -6.0687   22.5282 C   0  0  0  0  0  0
  -21.4008   -6.5605   23.8208 C   0  0  0  0  0  0
  -21.3633   -5.6746   24.9179 C   0  0  0  0  0  0
  -21.6022   -4.3016   24.7212 C   0  0  0  0  0  0
  -21.8818   -3.8084   23.4345 C   0  0  0  0  0  0
  -21.9178   -4.6913   22.3395 C   0  0  0  0  0  0
  -22.7777  -13.5195   21.1902 C   0  0  0  0  0  0
  -22.1685   -4.2086   21.0970 F   0  0  0  0  0  0
  -21.5638   -3.4517   25.7738 F   0  0  0  0  0  0
  -30.0260  -13.2343   20.4259 N   0  0  0  0  0  0
  -26.2930  -12.9229   20.3292 N   0  0  0  0  0  0
  -25.9223  -11.6412   20.5785 N   0  0  0  0  0  0
  -22.0427  -12.8224   22.0482 N   0  0  0  0  0  0
  -25.4212  -15.1825   20.4069 N   0  0  0  0  0  0
  -31.8695  -14.4953   20.0816 O   0  0  0  0  0  0
  -21.6568   -6.8840   21.4228 O   0  0  0  0  0  0
  -22.3473  -14.5529   20.6771 O   0  0  0  0  0  0
  -24.6053  -31.8765   23.2168 C   0  0  0  0  0  0
  -25.9043  -32.4852   23.8423 C   0  0  1  0  0  0
  -27.2237  -27.5108   20.0989 C   0  0  0  0  0  0
  -25.5978  -33.8630   24.2425 N   0  0  0  0  0  0
  -23.3832  -30.5015   21.5550 C   0  0  2  0  0  0
  -24.8307  -28.9807   20.1108 C   0  0  0  0  0  0
  -22.7349  -29.4720   22.5048 C   0  0  0  0  0  0
  -18.0261  -28.1376   22.8504 C   0  0  0  0  0  0
  -24.1463  -36.7272   23.2625 C   0  0  0  0  0  0
  -25.8990  -30.8685   21.3553 C   0  0  0  0  0  0
  -25.9838  -29.5064   20.7085 C   0  0  0  0  0  0
  -27.1865  -28.7760   20.7031 C   0  0  0  0  0  0
  -26.0681  -26.9892   19.4851 C   0  0  0  0  0  0
  -24.8662  -27.7162   19.4938 C   0  0  0  0  0  0
  -23.5912  -29.8432   20.1636 C   0  0  0  0  0  0
  -25.4076  -36.3110   24.0376 C   0  0  1  0  0  0
  -20.5841  -28.3651   23.1344 C   0  0  2  0  0  0
  -20.6727  -26.9417   22.5409 C   0  0  0  0  0  0
  -19.5730  -26.6414   21.5173 C   0  0  0  0  0  0
  -18.1918  -26.7925   22.1607 C   0  0  0  0  0  0
  -19.1518  -28.8830   23.2912 C   0  0  0  0  0  0
  -18.9456  -30.1446   23.8903 C   0  0  0  0  0  0
  -17.6465  -30.6589   24.0573 C   0  0  0  0  0  0
  -25.9029  -34.9478   23.5173 C   0  0  0  0  0  0
  -16.5350  -29.9102   23.6318 C   0  0  0  0  0  0
  -16.7256  -28.6519   23.0336 C   0  0  0  0  0  0
  -26.4522  -31.6525   25.0654 C   0  0  0  0  0  0
  -25.3896  -31.3613   26.1488 C   0  0  0  0  0  0
  -27.0278  -30.2956   24.5909 C   0  0  0  0  0  0
  -27.6135  -32.4156   25.7413 C   0  0  0  0  0  0
  -27.5564  -37.1790   24.8495 C   0  0  0  0  0  0
  -21.4103  -29.2999   22.3752 N   0  0  0  0  0  0
  -26.4246  -37.3813   23.9482 N   0  0  0  0  0  0
  -24.6455  -31.0941   22.1025 N   0  0  0  0  0  0
  -23.4129  -28.8296   23.3116 O   0  0  0  0  0  0
  -28.3770  -26.7762   20.1618 O   0  0  0  0  0  0
  -26.5527  -34.8919   22.4682 O   0  0  0  0  0  0
  -23.5283  -32.1501   23.7624 O   0  0  0  0  0  0
  -28.7728  -23.2741   21.6499 C   0  0  0  0  0  0
  -28.2003  -23.4692   22.9593 C   0  0  0  0  0  0
  -29.2688  -21.9679   21.3520 C   0  0  0  0  0  0
  -29.3338  -21.0205   22.3911 C   0  0  0  0  0  0
  -28.3480  -22.4148   23.9111 C   0  0  0  0  0  0
  -27.2051  -25.6559   22.1237 C   0  0  0  0  0  0
  -28.4484  -25.7931   21.2180 C   0  0  1  0  0  0
  -28.8674  -24.4306   20.6056 C   0  0  0  0  0  0
  -27.4076  -24.7382   23.3388 C   0  0  0  0  0  0
  -30.3372  -24.6544   20.1524 C   0  0  0  0  0  0
  -27.9860  -24.1296   19.3570 C   0  0  0  0  0  0
  -25.9652  -24.3903   23.7901 C   0  0  0  0  0  0
  -28.1343  -25.5429   24.4482 C   0  0  0  0  0  0
  -33.5636  -19.0232   21.2209 C   0  0  0  0  0  0
  -33.4011  -18.5095   19.7688 C   0  0  0  0  0  0
  -32.8090  -20.3200   21.5457 C   0  0  0  0  0  0
  -32.4236  -17.3345   19.6291 C   0  0  0  0  0  0
  -32.1876  -20.3423   22.9607 C   0  0  0  0  0  0
  -30.9245  -17.6898   19.6175 C   0  0  0  0  0  0
  -30.9639  -19.4170   23.1336 C   0  0  0  0  0  0
  -29.9601  -16.5136   19.3502 C   0  0  0  0  0  0
  -28.9179  -21.2469   23.6309 N   0  0  0  0  0  0
  -29.8904  -19.7605   22.1996 N   0  0  0  0  0  0
  -29.8880  -15.4827   20.3973 N   0  0  0  0  0  0
  -29.7657  -21.4615   19.7650 Cl  0  0  0  0  0  0
  -27.8313  -22.4546   25.5601 Cl  0  0  0  0  0  0
  -31.4402  -12.2752   19.1265 H   0  0  0  0  0  0
  -30.2549  -11.2232   19.8411 H   0  0  0  0  0  0
  -29.7178  -11.7294   17.4185 H   0  0  0  0  0  0
  -29.6436  -13.4385   17.7710 H   0  0  0  0  0  0
  -27.8301  -11.2735   18.8398 H   0  0  0  0  0  0
  -27.3451  -12.5779   17.7870 H   0  0  0  0  0  0
  -27.6838  -14.2291   19.5444 H   0  0  0  0  0  0
  -28.6492  -11.9675   21.3832 H   0  0  0  0  0  0
  -28.4827  -13.6392   21.8424 H   0  0  0  0  0  0
  -25.2736   -9.5642   22.4716 H   0  0  0  0  0  0
  -23.9937   -7.4583   22.7484 H   0  0  0  0  0  0
  -21.0811   -8.8750   19.8932 H   0  0  0  0  0  0
  -22.3670  -10.9641   19.6138 H   0  0  0  0  0  0
  -21.2045   -7.6108   23.9735 H   0  0  0  0  0  0
  -21.1448   -6.0469   25.9096 H   0  0  0  0  0  0
  -22.0632   -2.7533   23.2881 H   0  0  0  0  0  0
  -22.4057  -11.9824   22.4764 H   0  0  0  0  0  0
  -21.1019  -13.1195   22.2694 H   0  0  0  0  0  0
  -24.6474  -15.8275   20.5346 H   0  0  0  0  0  0
  -26.2612  -15.6242   20.0558 H   0  0  0  0  0  0
  -26.7102  -32.5673   23.1181 H   0  0  0  0  0  0
  -25.0303  -33.9813   25.0685 H   0  0  0  0  0  0
  -22.6614  -31.3090   21.4237 H   0  0  0  0  0  0
  -23.3730  -35.9605   23.3344 H   0  0  0  0  0  0
  -24.3537  -36.8784   22.2020 H   0  0  0  0  0  0
  -23.7188  -37.6501   23.6537 H   0  0  0  0  0  0
  -25.9884  -31.6364   20.5838 H   0  0  0  0  0  0
  -26.7886  -30.9288   21.9671 H   0  0  0  0  0  0
  -28.0741  -29.1721   21.1742 H   0  0  0  0  0  0
  -26.0810  -26.0218   19.0127 H   0  0  0  0  0  0
  -23.9862  -27.3044   19.0203 H   0  0  0  0  0  0
  -23.6920  -30.6231   19.4061 H   0  0  0  0  0  0
  -22.7154  -29.2671   19.8671 H   0  0  0  0  0  0
  -25.1214  -36.1961   25.0862 H   0  0  0  0  0  0
  -20.9910  -28.3211   24.1477 H   0  0  0  0  0  0
  -20.5539  -26.2308   23.3601 H   0  0  0  0  0  0
  -21.6628  -26.7424   22.1300 H   0  0  0  0  0  0
  -19.6885  -25.6323   21.1224 H   0  0  0  0  0  0
  -19.6643  -27.3190   20.6685 H   0  0  0  0  0  0
  -17.4179  -26.6690   21.4024 H   0  0  0  0  0  0
  -18.0340  -25.9997   22.8943 H   0  0  0  0  0  0
  -19.7949  -30.7261   24.2236 H   0  0  0  0  0  0
  -17.5050  -31.6262   24.5206 H   0  0  0  0  0  0
  -15.5373  -30.3037   23.7621 H   0  0  0  0  0  0
  -15.8656  -28.0875   22.7012 H   0  0  0  0  0  0
  -24.6079  -30.6898   25.7924 H   0  0  0  0  0  0
  -24.9109  -32.2758   26.4977 H   0  0  0  0  0  0
  -25.8407  -30.8830   27.0194 H   0  0  0  0  0  0
  -26.2792  -29.6800   24.0905 H   0  0  0  0  0  0
  -27.4005  -29.7066   25.4301 H   0  0  0  0  0  0
  -27.8652  -30.4240   23.9053 H   0  0  0  0  0  0
  -27.2813  -33.3437   26.2058 H   0  0  0  0  0  0
  -28.3941  -32.6696   25.0238 H   0  0  0  0  0  0
  -28.0782  -31.8194   26.5277 H   0  0  0  0  0  0
  -28.2609  -38.0063   24.7505 H   0  0  0  0  0  0
  -28.1028  -36.2581   24.6329 H   0  0  0  0  0  0
  -27.2299  -37.1468   25.8910 H   0  0  0  0  0  0
  -20.9235  -29.8761   21.7042 H   0  0  0  0  0  0
  -26.0150  -38.2894   24.1492 H   0  0  0  0  0  0
  -26.3915  -25.2694   21.5093 H   0  0  0  0  0  0
  -26.8672  -26.6252   22.4914 H   0  0  0  0  0  0
  -29.2563  -26.1439   21.8636 H   0  0  0  0  0  0
  -31.0039  -24.7776   21.0059 H   0  0  0  0  0  0
  -30.4318  -25.5563   19.5495 H   0  0  0  0  0  0
  -30.7343  -23.8605   19.5271 H   0  0  0  0  0  0
  -26.9708  -23.8407   19.6364 H   0  0  0  0  0  0
  -28.3852  -23.3525   18.7096 H   0  0  0  0  0  0
  -27.9077  -24.9861   18.6880 H   0  0  0  0  0  0
  -25.4193  -23.8318   23.0253 H   0  0  0  0  0  0
  -25.3929  -25.2915   24.0041 H   0  0  0  0  0  0
  -25.9038  -23.7953   24.6929 H   0  0  0  0  0  0
  -29.0563  -26.0037   24.0899 H   0  0  0  0  0  0
  -28.4142  -24.9426   25.3092 H   0  0  0  0  0  0
  -27.4954  -26.3423   24.8284 H   0  0  0  0  0  0
  -34.6222  -19.2048   21.4034 H   0  0  0  0  0  0
  -33.2917  -18.2408   21.9337 H   0  0  0  0  0  0
  -34.3739  -18.1199   19.4577 H   0  0  0  0  0  0
  -33.1696  -19.3202   19.0712 H   0  0  0  0  0  0
  -32.0460  -20.5209   20.8023 H   0  0  0  0  0  0
  -33.5020  -21.1603   21.4561 H   0  0  0  0  0  0
  -32.6445  -16.6648   20.4579 H   0  0  0  0  0  0
  -32.6454  -16.7819   18.7116 H   0  0  0  0  0  0
  -31.8941  -21.3666   23.2048 H   0  0  0  0  0  0
  -32.9422  -20.0756   23.7009 H   0  0  0  0  0  0
  -30.7515  -18.4633   18.8639 H   0  0  0  0  0  0
  -30.6487  -18.1148   20.5660 H   0  0  0  0  0  0
  -30.6082  -19.4847   24.1648 H   0  0  0  0  0  0
  -31.2395  -18.3708   23.0039 H   0  0  0  0  0  0
  -30.1820  -16.0534   18.3823 H   0  0  0  0  0  0
  -28.9492  -16.9087   19.2482 H   0  0  0  0  0  0
  -30.1385  -19.6112   21.2276 H   0  0  0  0  0  0
  -28.9599  -15.3102   20.7503 H   0  0  0  0  0  0
  1 25  1  0  0  0
  1 30  2  0  0  0
  1 94  1  0  0  0
  2  3  1  0  0  0
  2 25  1  0  0  0
  2 97  1  0  0  0
  2 98  1  0  0  0
  3  4  1  0  0  0
  3 99  1  0  0  0
  3100  1  0  0  0
  4  5  1  0  0  0
  4101  1  0  0  0
  4102  1  0  0  0
  5  6  1  0  0  0
  5 26  1  0  0  0
  5103  1  0  0  0
  6 25  1  0  0  0
  6104  1  0  0  0
  6105  1  0  0  0
  7  8  2  0  0  0
  7 26  1  0  0  0
  7 29  1  0  0  0
  8  9  1  0  0  0
  8 22  1  0  0  0
  9 10  1  0  0  0
  9 27  2  0  0  0
 10 11  2  0  0  0
 10 15  1  0  0  0
 11 12  1  0  0  0
 11106  1  0  0  0
 12 13  2  0  0  0
 12107  1  0  0  0
 13 14  1  0  0  0
 13 31  1  0  0  0
 14 15  2  0  0  0
 14108  1  0  0  0
 15109  1  0  0  0
 16 17  2  0  0  0
 16 21  1  0  0  0
 16 31  1  0  0  0
 17 18  1  0  0  0
 17110  1  0  0  0
 18 19  2  0  0  0
 18111  1  0  0  0
 19 20  1  0  0  0
 19 24  1  0  0  0
 20 21  2  0  0  0
 20112  1  0  0  0
 21 23  1  0  0  0
 22 28  1  0  0  0
 22 32  2  0  0  0
 26 27  1  0  0  0
 28113  1  0  0  0
 28114  1  0  0  0
 29115  1  0  0  0
 29116  1  0  0  0
 33 34  1  0  0  0
 33 66  1  0  0  0
 33 70  2  0  0  0
 34 36  1  0  0  0
 34 59  1  0  0  0
 34117  1  0  0  0
 35 44  2  0  0  0
 35 45  1  0  0  0
 35 68  1  0  0  0
 36 56  1  0  0  0
 36118  1  0  0  0
 37 39  1  0  0  0
 37 47  1  0  0  0
 37 66  1  0  0  0
 37119  1  0  0  0
 38 43  2  0  0  0
 38 46  1  0  0  0
 38 47  1  0  0  0
 39 64  1  0  0  0
 39 67  2  0  0  0
 40 52  1  0  0  0
 40 53  2  0  0  0
 40 58  1  0  0  0
 41120  1  0  0  0
 41121  1  0  0  0
 41122  1  0  0  0
 41 48  1  0  0  0
 42 43  1  0  0  0
 42 66  1  0  0  0
 42123  1  0  0  0
 42124  1  0  0  0
 43 44  1  0  0  0
 44125  1  0  0  0
 45 46  2  0  0  0
 45126  1  0  0  0
 46127  1  0  0  0
 47128  1  0  0  0
 47129  1  0  0  0
 48 56  1  0  0  0
 48 65  1  0  0  0
 48130  1  0  0  0
 49 50  1  0  0  0
 49 53  1  0  0  0
 49 64  1  0  0  0
 49131  1  0  0  0
 50 51  1  0  0  0
 50132  1  0  0  0
 50133  1  0  0  0
 51 52  1  0  0  0
 51134  1  0  0  0
 51135  1  0  0  0
 52136  1  0  0  0
 52137  1  0  0  0
 53 54  1  0  0  0
 54 55  2  0  0  0
 54138  1  0  0  0
 55 57  1  0  0  0
 55139  1  0  0  0
 56 69  2  0  0  0
 57 58  2  0  0  0
 57140  1  0  0  0
 58141  1  0  0  0
 59 60  1  0  0  0
 59 61  1  0  0  0
 59 62  1  0  0  0
 60142  1  0  0  0
 60143  1  0  0  0
 60144  1  0  0  0
 61145  1  0  0  0
 61146  1  0  0  0
 61147  1  0  0  0
 62148  1  0  0  0
 62149  1  0  0  0
 62150  1  0  0  0
 63 65  1  0  0  0
 63151  1  0  0  0
 63152  1  0  0  0
 63153  1  0  0  0
 64154  1  0  0  0
 65155  1  0  0  0
 68 77  1  0  0  0
 71 72  1  0  0  0
 71 73  2  0  0  0
 71 78  1  0  0  0
 72 75  2  0  0  0
 72 79  1  0  0  0
 73 74  1  0  0  0
 73 95  1  0  0  0
 74 92  2  0  0  0
 74 93  1  0  0  0
 75 92  1  0  0  0
 75 96  1  0  0  0
 76 77  1  0  0  0
 76 79  1  0  0  0
 76156  1  0  0  0
 76157  1  0  0  0
 77 78  1  0  0  0
 77158  1  0  0  0
 78 80  1  0  0  0
 78 81  1  0  0  0
 79 82  1  0  0  0
 79 83  1  0  0  0
 80159  1  0  0  0
 80160  1  0  0  0
 80161  1  0  0  0
 81162  1  0  0  0
 81163  1  0  0  0
 81164  1  0  0  0
 82165  1  0  0  0
 82166  1  0  0  0
 82167  1  0  0  0
 83168  1  0  0  0
 83169  1  0  0  0
 83170  1  0  0  0
 84 85  1  0  0  0
 84 86  1  0  0  0
 84171  1  0  0  0
 84172  1  0  0  0
 85 87  1  0  0  0
 85173  1  0  0  0
 85174  1  0  0  0
 86 88  1  0  0  0
 86175  1  0  0  0
 86176  1  0  0  0
 87 89  1  0  0  0
 87177  1  0  0  0
 87178  1  0  0  0
 88 90  1  0  0  0
 88179  1  0  0  0
 88180  1  0  0  0
 89 91  1  0  0  0
 89181  1  0  0  0
 89182  1  0  0  0
 90 93  1  0  0  0
 90183  1  0  0  0
 90184  1  0  0  0
 91 94  1  0  0  0
 91185  1  0  0  0
 91186  1  0  0  0
 93187  1  0  0  0
 94188  1  0  0  0
M  ISO  4   1 100  68 101  77 101  94 100
M  END
> <chiral flag>
0

> <version>
0

> <s_m_source_file>
/data/baiqing/PycharmProjects/Reinvent-master-3.2/result/LINK_invent/BTK/process_docking_weight1_custom_sum_contain_oxygen_bond_distance_aromatic_linkinvent_7_9_3/rearranged_h_0024.sdf

> <i_m_source_file_index>
81

> <r_mmod_Potential_Energy-OPLS-2005>
19.9565162658691

> <r_mmod_Stretch_Energy-OPLS-2005>
47.9840927124023

> <r_mmod_Bend_Energy-OPLS-2005>
142.413070678711

> <r_mmod_Torsional_Energy-OPLS-2005>
325.162109375

> <r_mmod_Improper_Torsional_Energy-OPLS-2005>
19.9965438842773

> <r_mmod_Van_der_Waal_Energy-OPLS-2005>
201.710144042969

> <r_mmod_Electrostatic_Energy-OPLS-2005>
-542.61328125

> <r_mmod_Solvation_Energy-OPLS-2005>
-196.183059692383

> <b_mmod_Minimization_Converged-OPLS-2005>
0

> <r_mmod_RMS_Derivative-OPLS-2005>
8.24083042144775

$$$$
81
                    3D
 Structure written by MMmdl.
153161  0  0  1  0            999 V2000
  -30.5557  -14.9543   20.2489 C   0  0  0  0  0  0
  -30.4434  -12.5788   19.4612 C   0  0  0  0  0  0
  -29.5177  -12.5169   18.2262 C   0  0  0  0  0  0
  -28.0457  -12.3433   18.6498 C   0  0  0  0  0  0
  -27.6232  -13.2685   19.8197 C   0  0  2  0  0  0
  -28.6888  -13.3536   20.9360 C   0  0  0  0  0  0
  -25.2450  -13.8268   20.5745 C   0  0  0  0  0  0
  -24.1846  -13.0521   20.9294 C   0  0  0  0  0  0
  -24.6452  -11.6947   20.8770 C   0  0  0  0  0  0
  -23.9166  -10.4316   21.0414 C   0  0  0  0  0  0
  -24.3701   -9.4203   21.9193 C   0  0  0  0  0  0
  -23.6338   -8.2253   22.0758 C   0  0  0  0  0  0
  -22.4306   -8.0297   21.3551 C   0  0  0  0  0  0
  -21.9977   -9.0299   20.4656 C   0  0  0  0  0  0
  -22.7324  -10.2162   20.3067 C   0  0  0  0  0  0
  -21.6865   -6.0739   22.5258 C   0  0  0  0  0  0
  -21.4034   -6.5636   23.8206 C   0  0  0  0  0  0
  -21.3680   -5.6776   24.9164 C   0  0  0  0  0  0
  -21.6052   -4.3036   24.7202 C   0  0  0  0  0  0
  -21.8832   -3.8139   23.4317 C   0  0  0  0  0  0
  -21.9227   -4.6974   22.3377 C   0  0  0  0  0  0
  -22.7813  -13.5195   21.1947 C   0  0  0  0  0  0
  -22.1675   -4.2173   21.0950 F   0  0  0  0  0  0
  -21.5650   -3.4506   25.7712 F   0  0  0  0  0  0
  -29.9554  -13.7092   20.2834 N   0  0  0  0  0  0
  -26.2905  -12.9555   20.3248 N   0  0  0  0  0  0
  -25.9417  -11.6661   20.5804 N   0  0  0  0  0  0
  -22.0497  -12.8170   22.0444 N   0  0  0  0  0  0
  -25.4124  -15.2059   20.4135 N   0  0  0  0  0  0
  -31.7881  -14.9951   20.1834 O   0  0  0  0  0  0
  -21.6664   -6.8886   21.4223 O   0  0  0  0  0  0
  -22.3456  -14.5513   20.6774 O   0  0  0  0  0  0
  -24.6677  -31.8217   23.1714 C   0  0  0  0  0  0
  -25.9388  -32.4533   23.8086 C   0  0  1  0  0  0
  -27.1947  -27.0685   20.0378 C   0  0  0  0  0  0
  -25.6030  -33.8355   24.2021 N   0  0  0  0  0  0
  -23.4697  -30.4450   21.5270 C   0  0  2  0  0  0
  -24.8902  -28.8502   20.1049 C   0  0  0  0  0  0
  -22.7691  -29.4441   22.4832 C   0  0  0  0  0  0
  -18.0332  -28.1365   22.8493 C   0  0  0  0  0  0
  -24.1486  -36.7246   23.2657 C   0  0  0  0  0  0
  -26.0338  -30.6504   21.3809 C   0  0  0  0  0  0
  -26.0863  -29.2641   20.7062 C   0  0  0  0  0  0
  -27.2440  -28.3922   20.6441 C   0  0  0  0  0  0
  -25.9617  -26.7675   19.4130 C   0  0  0  0  0  0
  -24.8414  -27.6154   19.4478 C   0  0  0  0  0  0
  -23.6850  -29.7721   20.1503 C   0  0  0  0  0  0
  -25.4143  -36.2974   24.0300 C   0  0  1  0  0  0
  -20.5957  -28.3725   23.1200 C   0  0  2  0  0  0
  -20.6805  -26.9404   22.5404 C   0  0  0  0  0  0
  -19.5764  -26.6358   21.5217 C   0  0  0  0  0  0
  -18.1950  -26.7895   22.1633 C   0  0  0  0  0  0
  -19.1599  -28.8867   23.2826 C   0  0  0  0  0  0
  -18.9513  -30.1466   23.8850 C   0  0  0  0  0  0
  -17.6509  -30.6565   24.0565 C   0  0  0  0  0  0
  -25.9090  -34.9349   23.4977 C   0  0  0  0  0  0
  -16.5396  -29.9064   23.6328 C   0  0  0  0  0  0
  -16.7326  -28.6483   23.0351 C   0  0  0  0  0  0
  -26.4579  -31.6516   25.0636 C   0  0  0  0  0  0
  -25.3732  -31.3811   26.1337 C   0  0  0  0  0  0
  -27.0456  -30.2888   24.6347 C   0  0  0  0  0  0
  -27.6008  -32.4351   25.7483 C   0  0  0  0  0  0
  -27.5566  -37.1788   24.8466 C   0  0  0  0  0  0
  -21.4361  -29.3067   22.3598 N   0  0  0  0  0  0
  -26.4259  -37.3736   23.9393 N   0  0  0  0  0  0
  -24.7455  -30.9944   22.0807 N   0  0  0  0  0  0
  -23.4274  -28.7991   23.3027 O   0  0  0  0  0  0
  -28.2364  -26.0566   20.0431 O   0  0  0  0  0  0
  -26.5690  -34.8917   22.4551 O   0  0  0  0  0  0
  -23.5760  -32.1127   23.6888 O   0  0  0  0  0  0
  -28.2575  -18.7071   18.4492 C   0  0  0  0  0  0
  -29.2867  -18.9393   19.3937 C   0  0  0  0  0  0
  -27.7908  -21.1512   18.1446 C   0  0  0  0  0  0
  -28.7341  -21.5616   19.1512 C   0  0  0  0  0  0
  -27.5491  -19.7753   17.8429 C   0  0  0  0  0  0
  -29.5096  -20.3891   19.6915 C   0  0  0  0  0  0
  -27.0631  -22.1559   17.2499 C   0  0  0  0  0  0
  -29.0271  -23.2065   19.4336 C   0  0  0  0  0  0
  -30.1871  -17.6476   19.9466 C   0  0  0  0  0  0
  -27.9506  -24.5534   19.6572 C   0  0  0  0  0  0
  -29.7842  -16.1255   20.0282 N   0  0  0  0  0  0
  -26.3649  -19.3688   16.6367 Cl  0  0  0  0  0  0
  -30.8949  -20.7113   20.6842 Cl  0  0  0  0  0  0
  -31.4752  -12.7320   19.1379 H   0  0  0  0  0  0
  -30.4329  -11.6495   20.0353 H   0  0  0  0  0  0
  -29.8190  -11.6981   17.5723 H   0  0  0  0  0  0
  -29.6270  -13.4339   17.6453 H   0  0  0  0  0  0
  -27.9017  -11.3010   18.9352 H   0  0  0  0  0  0
  -27.3909  -12.5254   17.7946 H   0  0  0  0  0  0
  -27.5643  -14.2650   19.3853 H   0  0  0  0  0  0
  -28.7801  -12.4325   21.5143 H   0  0  0  0  0  0
  -28.4202  -14.1387   21.6435 H   0  0  0  0  0  0
  -25.2877   -9.5671   22.4735 H   0  0  0  0  0  0
  -24.0096   -7.4618   22.7417 H   0  0  0  0  0  0
  -21.0944   -8.8820   19.8912 H   0  0  0  0  0  0
  -22.3815  -10.9719   19.6162 H   0  0  0  0  0  0
  -21.1998   -7.6136   23.9725 H   0  0  0  0  0  0
  -21.1493   -6.0475   25.9069 H   0  0  0  0  0  0
  -22.0601   -2.7602   23.2789 H   0  0  0  0  0  0
  -22.4168  -11.9837   22.4839 H   0  0  0  0  0  0
  -21.1107  -13.1129   22.2708 H   0  0  0  0  0  0
  -24.6436  -15.8603   20.5149 H   0  0  0  0  0  0
  -26.2563  -15.6353   20.0616 H   0  0  0  0  0  0
  -26.7451  -32.5023   23.0777 H   0  0  0  0  0  0
  -25.0195  -33.9333   25.0185 H   0  0  0  0  0  0
  -22.7921  -31.2852   21.3684 H   0  0  0  0  0  0
  -23.3688  -35.9609   23.3280 H   0  0  0  0  0  0
  -24.3610  -36.8912   22.2076 H   0  0  0  0  0  0
  -23.7272  -37.6457   23.6707 H   0  0  0  0  0  0
  -26.2230  -31.3871   20.6010 H   0  0  0  0  0  0
  -26.9068  -30.6723   22.0257 H   0  0  0  0  0  0
  -28.1830  -28.6927   21.0842 H   0  0  0  0  0  0
  -25.7989  -25.8462   18.8749 H   0  0  0  0  0  0
  -23.9333  -27.3004   18.9503 H   0  0  0  0  0  0
  -23.8468  -30.5350   19.3883 H   0  0  0  0  0  0
  -22.7873  -29.2367   19.8378 H   0  0  0  0  0  0
  -25.1314  -36.1749   25.0779 H   0  0  0  0  0  0
  -21.0055  -28.3296   24.1318 H   0  0  0  0  0  0
  -20.5655  -26.2350   23.3659 H   0  0  0  0  0  0
  -21.6661  -26.7338   22.1219 H   0  0  0  0  0  0
  -19.6888  -25.6265   21.1250 H   0  0  0  0  0  0
  -19.6646  -27.3175   20.6747 H   0  0  0  0  0  0
  -17.4217  -26.6679   21.4027 H   0  0  0  0  0  0
  -18.0308  -26.0021   22.9016 H   0  0  0  0  0  0
  -19.8010  -30.7294   24.2168 H   0  0  0  0  0  0
  -17.5078  -31.6247   24.5174 H   0  0  0  0  0  0
  -15.5400  -30.2958   23.7661 H   0  0  0  0  0  0
  -15.8741  -28.0811   22.7029 H   0  0  0  0  0  0
  -24.5846  -30.7195   25.7728 H   0  0  0  0  0  0
  -24.9003  -32.3041   26.4692 H   0  0  0  0  0  0
  -25.7994  -30.9050   27.0176 H   0  0  0  0  0  0
  -26.3100  -29.6585   24.1329 H   0  0  0  0  0  0
  -27.3986  -29.7221   25.4971 H   0  0  0  0  0  0
  -27.9030  -30.4071   23.9724 H   0  0  0  0  0  0
  -27.2469  -33.3664   26.1936 H   0  0  0  0  0  0
  -28.3904  -32.6924   25.0403 H   0  0  0  0  0  0
  -28.0574  -31.8584   26.5542 H   0  0  0  0  0  0
  -28.2556  -38.0115   24.7515 H   0  0  0  0  0  0
  -28.1067  -36.2625   24.6234 H   0  0  0  0  0  0
  -27.2299  -37.1428   25.8883 H   0  0  0  0  0  0
  -20.9609  -29.8927   21.6881 H   0  0  0  0  0  0
  -26.0079  -38.2752   24.1429 H   0  0  0  0  0  0
  -28.0160  -17.7126   18.1008 H   0  0  0  0  0  0
  -27.0643  -23.1496   17.6578 H   0  0  0  0  0  0
  -26.0040  -21.8960   17.1333 H   0  0  0  0  0  0
  -27.5481  -22.2047   16.2622 H   0  0  0  0  0  0
  -29.5646  -23.4822   18.5262 H   0  0  0  0  0  0
  -29.8129  -23.2626   20.1813 H   0  0  0  0  0  0
  -30.5270  -17.8968   20.9560 H   0  0  0  0  0  0
  -31.1084  -17.6607   19.3611 H   0  0  0  0  0  0
  -27.1021  -24.2011   20.2615 H   0  0  0  0  0  0
  -27.5573  -24.8032   18.6734 H   0  0  0  0  0  0
  -28.8067  -15.9336   19.8823 H   0  0  0  0  0  0
  1 25  1  0  0  0
  1 30  2  0  0  0
  1 81  1  0  0  0
  2  3  1  0  0  0
  2 25  1  0  0  0
  2 84  1  0  0  0
  2 85  1  0  0  0
  3  4  1  0  0  0
  3 86  1  0  0  0
  3 87  1  0  0  0
  4  5  1  0  0  0
  4 88  1  0  0  0
  4 89  1  0  0  0
  5  6  1  0  0  0
  5 26  1  0  0  0
  5 90  1  0  0  0
  6 25  1  0  0  0
  6 91  1  0  0  0
  6 92  1  0  0  0
  7  8  2  0  0  0
  7 26  1  0  0  0
  7 29  1  0  0  0
  8  9  1  0  0  0
  8 22  1  0  0  0
  9 10  1  0  0  0
  9 27  2  0  0  0
 10 11  2  0  0  0
 10 15  1  0  0  0
 11 12  1  0  0  0
 11 93  1  0  0  0
 12 13  2  0  0  0
 12 94  1  0  0  0
 13 14  1  0  0  0
 13 31  1  0  0  0
 14 15  2  0  0  0
 14 95  1  0  0  0
 15 96  1  0  0  0
 16 17  2  0  0  0
 16 21  1  0  0  0
 16 31  1  0  0  0
 17 18  1  0  0  0
 17 97  1  0  0  0
 18 19  2  0  0  0
 18 98  1  0  0  0
 19 20  1  0  0  0
 19 24  1  0  0  0
 20 21  2  0  0  0
 20 99  1  0  0  0
 21 23  1  0  0  0
 22 28  1  0  0  0
 22 32  2  0  0  0
 26 27  1  0  0  0
 28100  1  0  0  0
 28101  1  0  0  0
 29102  1  0  0  0
 29103  1  0  0  0
 33 34  1  0  0  0
 33 66  1  0  0  0
 33 70  2  0  0  0
 34 36  1  0  0  0
 34 59  1  0  0  0
 34104  1  0  0  0
 35 44  2  0  0  0
 35 45  1  0  0  0
 35 68  1  0  0  0
 36 56  1  0  0  0
 36105  1  0  0  0
 37 39  1  0  0  0
 37 47  1  0  0  0
 37 66  1  0  0  0
 37106  1  0  0  0
 38 43  2  0  0  0
 38 46  1  0  0  0
 38 47  1  0  0  0
 39 64  1  0  0  0
 39 67  2  0  0  0
 40 52  1  0  0  0
 40 53  2  0  0  0
 40 58  1  0  0  0
 41107  1  0  0  0
 41108  1  0  0  0
 41109  1  0  0  0
 41 48  1  0  0  0
 42 43  1  0  0  0
 42 66  1  0  0  0
 42110  1  0  0  0
 42111  1  0  0  0
 43 44  1  0  0  0
 44112  1  0  0  0
 45 46  2  0  0  0
 45113  1  0  0  0
 46114  1  0  0  0
 47115  1  0  0  0
 47116  1  0  0  0
 48 56  1  0  0  0
 48 65  1  0  0  0
 48117  1  0  0  0
 49 50  1  0  0  0
 49 53  1  0  0  0
 49 64  1  0  0  0
 49118  1  0  0  0
 50 51  1  0  0  0
 50119  1  0  0  0
 50120  1  0  0  0
 51 52  1  0  0  0
 51121  1  0  0  0
 51122  1  0  0  0
 52123  1  0  0  0
 52124  1  0  0  0
 53 54  1  0  0  0
 54 55  2  0  0  0
 54125  1  0  0  0
 55 57  1  0  0  0
 55126  1  0  0  0
 56 69  2  0  0  0
 57 58  2  0  0  0
 57127  1  0  0  0
 58128  1  0  0  0
 59 60  1  0  0  0
 59 61  1  0  0  0
 59 62  1  0  0  0
 60129  1  0  0  0
 60130  1  0  0  0
 60131  1  0  0  0
 61132  1  0  0  0
 61133  1  0  0  0
 61134  1  0  0  0
 62135  1  0  0  0
 62136  1  0  0  0
 62137  1  0  0  0
 63 65  1  0  0  0
 63138  1  0  0  0
 63139  1  0  0  0
 63140  1  0  0  0
 64141  1  0  0  0
 65142  1  0  0  0
 68 80  1  0  0  0
 71 72  2  0  0  0
 71 75  1  0  0  0
 71143  1  0  0  0
 72 76  1  0  0  0
 72 79  1  0  0  0
 73 74  1  0  0  0
 73 75  2  0  0  0
 73 77  1  0  0  0
 74 76  2  0  0  0
 74 78  1  0  0  0
 75 82  1  0  0  0
 76 83  1  0  0  0
 77144  1  0  0  0
 77145  1  0  0  0
 77146  1  0  0  0
 78 80  1  0  0  0
 78147  1  0  0  0
 78148  1  0  0  0
 79 81  1  0  0  0
 79149  1  0  0  0
 79150  1  0  0  0
 80151  1  0  0  0
 80152  1  0  0  0
 81153  1  0  0  0
M  ISO  4   1 100  68 101  80 101  81 100
M  END
> <chiral flag>
0

> <version>
0

> <s_m_source_file>
/data/baiqing/PycharmProjects/Reinvent-master-3.2/result/LINK_invent/BTK/process_docking_weight1_custom_sum_contain_oxygen_bond_distance_aromatic_linkinvent_7_9_3/rearranged_h_0024.sdf

> <i_m_source_file_index>
82

> <r_mmod_Potential_Energy-OPLS-2005>
601.663208007812

> <r_mmod_Stretch_Energy-OPLS-2005>
316.693817138672

> <r_mmod_Bend_Energy-OPLS-2005>
277.251037597656

> <r_mmod_Torsional_Energy-OPLS-2005>
219.224960327148

> <r_mmod_Improper_Torsional_Energy-OPLS-2005>
7.7110652923584

> <r_mmod_Van_der_Waal_Energy-OPLS-2005>
141.763916015625

> <r_mmod_Electrostatic_Energy-OPLS-2005>
-395.534301757812

> <r_mmod_Solvation_Energy-OPLS-2005>
-213.114700317383

> <b_mmod_Minimization_Converged-OPLS-2005>
0

> <r_mmod_RMS_Derivative-OPLS-2005>
14.3717193603516

$$$$
82
                    3D
 Structure written by MMmdl.
177185  0  0  1  0            999 V2000
  -30.2341  -14.9312   20.7178 C   0  0  0  0  0  0
  -30.3804  -12.6289   19.5731 C   0  0  0  0  0  0
  -29.5063  -12.5563   18.2957 C   0  0  0  0  0  0
  -28.0313  -12.3035   18.6656 C   0  0  0  0  0  0
  -27.5756  -13.2005   19.8443 C   0  0  2  0  0  0
  -28.5384  -13.1135   21.0288 C   0  0  0  0  0  0
  -25.2043  -13.7996   20.5424 C   0  0  0  0  0  0
  -24.1486  -13.0266   20.9234 C   0  0  0  0  0  0
  -24.6100  -11.6764   20.8810 C   0  0  0  0  0  0
  -23.8858  -10.4161   21.0481 C   0  0  0  0  0  0
  -24.3450   -9.4086   21.9249 C   0  0  0  0  0  0
  -23.6170   -8.2092   22.0760 C   0  0  0  0  0  0
  -22.4173   -8.0135   21.3522 C   0  0  0  0  0  0
  -21.9772   -9.0100   20.4637 C   0  0  0  0  0  0
  -22.7055  -10.2006   20.3097 C   0  0  0  0  0  0
  -21.6779   -6.0636   22.5294 C   0  0  0  0  0  0
  -21.3964   -6.5573   23.8221 C   0  0  0  0  0  0
  -21.3676   -5.6762   24.9213 C   0  0  0  0  0  0
  -21.6047   -4.3021   24.7287 C   0  0  0  0  0  0
  -21.8804   -3.8078   23.4418 C   0  0  0  0  0  0
  -21.9164   -4.6870   22.3451 C   0  0  0  0  0  0
  -22.7570  -13.5091   21.1905 C   0  0  0  0  0  0
  -22.1645   -4.2044   21.1034 F   0  0  0  0  0  0
  -21.5663   -3.4531   25.7818 F   0  0  0  0  0  0
  -29.7877  -13.6317   20.5261 N   0  0  0  0  0  0
  -26.2359  -12.9146   20.2946 N   0  0  0  0  0  0
  -25.8928  -11.6334   20.5599 N   0  0  0  0  0  0
  -22.0192  -12.8197   22.0524 N   0  0  0  0  0  0
  -25.3614  -15.1664   20.3530 N   0  0  0  0  0  0
  -31.4184  -15.0951   20.3411 O   0  0  0  0  0  0
  -21.6553   -6.8736   21.4229 O   0  0  0  0  0  0
  -22.3309  -14.5374   20.6671 O   0  0  0  0  0  0
  -24.6928  -31.9754   23.2457 C   0  0  0  0  0  0
  -25.9832  -32.5200   23.8866 C   0  0  1  0  0  0
  -25.4167  -27.2713   20.5614 C   0  0  0  0  0  0
  -25.6711  -33.8948   24.2795 N   0  0  0  0  0  0
  -23.5086  -30.6879   21.5840 C   0  0  2  0  0  0
  -24.8732  -29.4920   19.7025 C   0  0  0  0  0  0
  -23.1941  -29.5508   22.6412 C   0  0  0  0  0  0
  -18.2291  -27.1942   22.6450 C   0  0  0  0  0  0
  -24.1546  -36.7332   23.2568 C   0  0  0  0  0  0
  -26.0359  -30.8192   21.4678 C   0  0  0  0  0  0
  -25.8901  -29.5434   20.6539 C   0  0  0  0  0  0
  -26.3600  -28.2765   21.0230 C   0  0  0  0  0  0
  -25.4913  -27.1853   19.1981 C   0  0  0  0  0  0
  -24.7757  -28.3391   18.8497 C   0  0  0  0  0  0
  -23.7679  -30.4540   20.0126 C   0  0  0  0  0  0
  -25.4169  -36.3245   24.0327 C   0  0  1  0  0  0
  -21.6854  -28.0002   23.8039 C   0  0  2  0  0  0
  -22.1958  -26.3446   22.7125 C   0  0  0  0  0  0
  -20.6866  -25.4067   21.3714 C   0  0  0  0  0  0
  -18.7479  -25.8931   21.5387 C   0  0  0  0  0  0
  -19.9762  -28.3981   24.0238 C   0  0  0  0  0  0
  -19.6021  -30.1239   24.1358 C   0  0  0  0  0  0
  -18.2308  -30.8061   23.3748 C   0  0  0  0  0  0
  -25.9228  -34.9653   23.5194 C   0  0  0  0  0  0
  -17.0306  -29.9766   22.4687 C   0  0  0  0  0  0
  -16.9701  -28.2974   22.1147 C   0  0  0  0  0  0
  -26.4724  -31.6722   25.1202 C   0  0  0  0  0  0
  -25.3722  -31.3886   26.1692 C   0  0  0  0  0  0
  -27.0554  -30.3090   24.6809 C   0  0  0  0  0  0
  -27.6235  -32.4297   25.8155 C   0  0  0  0  0  0
  -27.5637  -37.1902   24.8454 C   0  0  0  0  0  0
  -21.9949  -29.2780   23.0613 N   0  0  0  0  0  0
  -26.4330  -37.3945   23.9425 N   0  0  0  0  0  0
  -24.7618  -31.2418   22.1109 N   0  0  0  0  0  0
  -24.0570  -28.8976   23.2082 O   0  0  0  0  0  0
  -23.9482  -27.3638   21.0308 O   0  0  0  0  0  0
  -26.5429  -34.8996   22.4543 O   0  0  0  0  0  0
  -23.6057  -32.2442   23.7842 O   0  0  0  0  0  0
  -19.0832  -26.1994   24.7478 C   0  0  0  0  0  0
  -19.2357  -29.0254   22.0802 C   0  0  0  0  0  0
  -18.0514  -27.2953   25.1151 C   0  0  0  0  0  0
  -20.0832  -26.1269   23.5214 C   0  0  0  0  0  0
  -20.4129  -27.6461   21.8800 C   0  0  0  0  0  0
  -17.8050  -28.6430   24.2576 C   0  0  0  0  0  0
  -17.2972  -26.9485   26.4093 C   0  0  0  0  0  0
  -30.3081  -16.9101   22.1641 C   0  0  0  0  0  0
  -20.7050  -24.4238   23.7492 C   0  0  0  0  0  0
  -25.8570  -18.8984   22.1454 C   0  0  0  0  0  0
  -25.2522  -20.5353   22.0749 C   0  0  0  0  0  0
  -27.4404  -18.2396   21.8057 C   0  0  0  0  0  0
  -24.0900  -21.4238   23.0404 C   0  0  0  0  0  0
  -27.9630  -16.6081   21.4294 C   0  0  0  0  0  0
  -22.7887  -22.5282   22.6506 C   0  0  0  0  0  0
  -22.2306  -27.6443   20.7058 C   0  0  0  0  0  0
  -16.6406  -29.4501   25.0433 C   0  0  0  0  0  0
  -29.4646  -15.9927   21.3881 N   0  0  0  0  0  0
  -22.1670  -23.6509   23.6455 N   0  3  0  0  0  0
  -21.9038  -28.8745   20.3178 F   0  0  0  0  0  0
  -22.0166  -26.9850   19.5417 F   0  0  0  0  0  0
  -16.1533  -30.6686   24.7661 F   0  0  0  0  0  0
  -15.5405  -28.6963   25.0156 F   0  0  0  0  0  0
  -17.0278  -29.6129   26.3087 F   0  0  0  0  0  0
  -31.4019  -12.8832   19.2910 H   0  0  0  0  0  0
  -30.4420  -11.6449   20.0423 H   0  0  0  0  0  0
  -29.8673  -11.7771   17.6229 H   0  0  0  0  0  0
  -29.5920  -13.4942   17.7458 H   0  0  0  0  0  0
  -27.9349  -11.2549   18.9493 H   0  0  0  0  0  0
  -27.3872  -12.4467   17.7967 H   0  0  0  0  0  0
  -27.5757  -14.2229   19.4688 H   0  0  0  0  0  0
  -28.6367  -12.0845   21.3799 H   0  0  0  0  0  0
  -28.1704  -13.6915   21.8757 H   0  0  0  0  0  0
  -25.2530   -9.5594   22.4920 H   0  0  0  0  0  0
  -23.9850   -7.4446   22.7464 H   0  0  0  0  0  0
  -21.0697   -8.8572   19.8946 H   0  0  0  0  0  0
  -22.3423  -10.9562   19.6273 H   0  0  0  0  0  0
  -21.1923   -7.6075   23.9700 H   0  0  0  0  0  0
  -21.1540   -6.0511   25.9120 H   0  0  0  0  0  0
  -22.0575   -2.7526   23.2971 H   0  0  0  0  0  0
  -22.3676  -11.9857   22.5020 H   0  0  0  0  0  0
  -21.0848  -13.1373   22.2704 H   0  0  0  0  0  0
  -24.5868  -15.8186   20.4004 H   0  0  0  0  0  0
  -26.1881  -15.5703   19.9349 H   0  0  0  0  0  0
  -26.7973  -32.5586   23.1645 H   0  0  0  0  0  0
  -25.1303  -34.0153   25.1231 H   0  0  0  0  0  0
  -22.7104  -31.4299   21.6434 H   0  0  0  0  0  0
  -23.3887  -35.9583   23.3183 H   0  0  0  0  0  0
  -24.3690  -36.8959   22.1995 H   0  0  0  0  0  0
  -23.7191  -37.6494   23.6560 H   0  0  0  0  0  0
  -26.3712  -31.6170   20.8032 H   0  0  0  0  0  0
  -26.8496  -30.6513   22.1598 H   0  0  0  0  0  0
  -26.8018  -28.2047   22.0062 H   0  0  0  0  0  0
  -25.1720  -26.2959   18.6725 H   0  0  0  0  0  0
  -24.0420  -28.2982   18.0567 H   0  0  0  0  0  0
  -24.1666  -31.4037   19.6507 H   0  0  0  0  0  0
  -22.9200  -30.4138   19.3308 H   0  0  0  0  0  0
  -25.1291  -36.2129   25.0813 H   0  0  0  0  0  0
  -22.1824  -27.9998   24.7737 H   0  0  0  0  0  0
  -22.4626  -25.9031   23.6639 H   0  0  0  0  0  0
  -23.2114  -26.0659   22.4849 H   0  0  0  0  0  0
  -20.7751  -24.3208   21.3810 H   0  0  0  0  0  0
  -20.8816  -25.4423   20.3137 H   0  0  0  0  0  0
  -18.3638  -26.1392   20.5479 H   0  0  0  0  0  0
  -18.1942  -24.9976   21.8308 H   0  0  0  0  0  0
  -20.3292  -30.7960   24.5773 H   0  0  0  0  0  0
  -18.1218  -31.8809   23.4517 H   0  0  0  0  0  0
  -16.2464  -30.5864   22.0387 H   0  0  0  0  0  0
  -16.2182  -27.9440   21.4251 H   0  0  0  0  0  0
  -24.5902  -30.7326   25.7845 H   0  0  0  0  0  0
  -24.8949  -32.3074   26.5106 H   0  0  0  0  0  0
  -25.7829  -30.8977   27.0523 H   0  0  0  0  0  0
  -26.3223  -29.6836   24.1740 H   0  0  0  0  0  0
  -27.3968  -29.7374   25.5451 H   0  0  0  0  0  0
  -27.9242  -30.4261   24.0329 H   0  0  0  0  0  0
  -27.2866  -33.3565   26.2810 H   0  0  0  0  0  0
  -28.4168  -32.6864   25.1127 H   0  0  0  0  0  0
  -28.0759  -31.8328   26.6080 H   0  0  0  0  0  0
  -28.2552  -38.0306   24.7692 H   0  0  0  0  0  0
  -28.1253  -36.2854   24.6060 H   0  0  0  0  0  0
  -27.2374  -37.1270   25.8855 H   0  0  0  0  0  0
  -21.2035  -29.8172   22.7364 H   0  0  0  0  0  0
  -26.0194  -38.2993   24.1505 H   0  0  0  0  0  0
  -19.0669  -25.3629   25.4263 H   0  0  0  0  0  0
  -19.2595  -29.8655   21.3952 H   0  0  0  0  0  0
  -17.4810  -25.9219   26.7243 H   0  0  0  0  0  0
  -16.2172  -27.0140   26.3260 H   0  0  0  0  0  0
  -17.6327  -27.5718   27.2372 H   0  0  0  0  0  0
  -30.5575  -17.7937   21.5784 H   0  0  0  0  0  0
  -31.2499  -16.4633   22.4936 H   0  0  0  0  0  0
  -29.8054  -17.2218   23.0806 H   0  0  0  0  0  0
  -19.9488  -23.7380   23.3668 H   0  0  0  0  0  0
  -20.6172  -24.2701   24.8214 H   0  0  0  0  0  0
  -25.1821  -18.3409   21.4924 H   0  0  0  0  0  0
  -25.5947  -18.5357   23.1405 H   0  0  0  0  0  0
  -24.9652  -20.6939   21.0342 H   0  0  0  0  0  0
  -26.1621  -21.1358   22.1513 H   0  0  0  0  0  0
  -28.0232  -18.5477   22.6742 H   0  0  0  0  0  0
  -27.8451  -18.8539   21.0032 H   0  0  0  0  0  0
  -24.7424  -22.0339   23.6684 H   0  0  0  0  0  0
  -23.6762  -20.7091   23.7504 H   0  0  0  0  0  0
  -27.5774  -16.3832   20.4398 H   0  0  0  0  0  0
  -27.4206  -15.9616   22.1212 H   0  0  0  0  0  0
  -21.9530  -21.9091   22.3301 H   0  0  0  0  0  0
  -23.0903  -23.0749   21.7556 H   0  0  0  0  0  0
  -22.2106  -23.1880   24.5394 H   0  0  0  0  0  0
  -22.8606  -24.3774   23.7104 H   0  0  0  0  0  0
  1 25  1  0  0  0
  1 30  2  0  0  0
  1 88  1  0  0  0
  2  3  1  0  0  0
  2 25  1  0  0  0
  2 95  1  0  0  0
  2 96  1  0  0  0
  3  4  1  0  0  0
  3 97  1  0  0  0
  3 98  1  0  0  0
  4  5  1  0  0  0
  4 99  1  0  0  0
  4100  1  0  0  0
  5  6  1  0  0  0
  5 26  1  0  0  0
  5101  1  0  0  0
  6 25  1  0  0  0
  6102  1  0  0  0
  6103  1  0  0  0
  7  8  2  0  0  0
  7 26  1  0  0  0
  7 29  1  0  0  0
  8  9  1  0  0  0
  8 22  1  0  0  0
  9 10  1  0  0  0
  9 27  2  0  0  0
 10 11  2  0  0  0
 10 15  1  0  0  0
 11 12  1  0  0  0
 11104  1  0  0  0
 12 13  2  0  0  0
 12105  1  0  0  0
 13 14  1  0  0  0
 13 31  1  0  0  0
 14 15  2  0  0  0
 14106  1  0  0  0
 15107  1  0  0  0
 16 17  2  0  0  0
 16 21  1  0  0  0
 16 31  1  0  0  0
 17 18  1  0  0  0
 17108  1  0  0  0
 18 19  2  0  0  0
 18109  1  0  0  0
 19 20  1  0  0  0
 19 24  1  0  0  0
 20 21  2  0  0  0
 20110  1  0  0  0
 21 23  1  0  0  0
 22 28  1  0  0  0
 22 32  2  0  0  0
 26 27  1  0  0  0
 28111  1  0  0  0
 28112  1  0  0  0
 29113  1  0  0  0
 29114  1  0  0  0
 33 34  1  0  0  0
 33 66  1  0  0  0
 33 70  2  0  0  0
 34 36  1  0  0  0
 34 59  1  0  0  0
 34115  1  0  0  0
 35 44  2  0  0  0
 35 45  1  0  0  0
 35 68  1  0  0  0
 36 56  1  0  0  0
 36116  1  0  0  0
 37 39  1  0  0  0
 37 47  1  0  0  0
 37 66  1  0  0  0
 37117  1  0  0  0
 38 43  2  0  0  0
 38 46  1  0  0  0
 38 47  1  0  0  0
 39 64  1  0  0  0
 39 67  2  0  0  0
 40 52  1  0  0  0
 40 53  2  0  0  0
 40 58  1  0  0  0
 41118  1  0  0  0
 41119  1  0  0  0
 41120  1  0  0  0
 41 48  1  0  0  0
 42 43  1  0  0  0
 42 66  1  0  0  0
 42121  1  0  0  0
 42122  1  0  0  0
 43 44  1  0  0  0
 44123  1  0  0  0
 45 46  2  0  0  0
 45124  1  0  0  0
 46125  1  0  0  0
 47126  1  0  0  0
 47127  1  0  0  0
 48 56  1  0  0  0
 48 65  1  0  0  0
 48128  1  0  0  0
 49 50  1  0  0  0
 49 53  1  0  0  0
 49 64  1  0  0  0
 49129  1  0  0  0
 50 51  1  0  0  0
 50130  1  0  0  0
 50131  1  0  0  0
 51 52  1  0  0  0
 51132  1  0  0  0
 51133  1  0  0  0
 52134  1  0  0  0
 52135  1  0  0  0
 53 54  1  0  0  0
 54 55  2  0  0  0
 54136  1  0  0  0
 55 57  1  0  0  0
 55137  1  0  0  0
 56 69  2  0  0  0
 57 58  2  0  0  0
 57138  1  0  0  0
 58139  1  0  0  0
 59 60  1  0  0  0
 59 61  1  0  0  0
 59 62  1  0  0  0
 60140  1  0  0  0
 60141  1  0  0  0
 60142  1  0  0  0
 61143  1  0  0  0
 61144  1  0  0  0
 61145  1  0  0  0
 62146  1  0  0  0
 62147  1  0  0  0
 62148  1  0  0  0
 63 65  1  0  0  0
 63149  1  0  0  0
 63150  1  0  0  0
 63151  1  0  0  0
 64152  1  0  0  0
 65153  1  0  0  0
 68 86  1  0  0  0
 71 73  2  0  0  0
 71 74  1  0  0  0
 71154  1  0  0  0
 72 75  1  0  0  0
 72 76  2  0  0  0
 72155  1  0  0  0
 73 76  1  0  0  0
 73 77  1  0  0  0
 74 75  2  0  0  0
 74 79  1  0  0  0
 75 86  1  0  0  0
 76 87  1  0  0  0
 77156  1  0  0  0
 77157  1  0  0  0
 77158  1  0  0  0
 78 88  1  0  0  0
 78159  1  0  0  0
 78160  1  0  0  0
 78161  1  0  0  0
 79 89  1  0  0  0
 79162  1  0  0  0
 79163  1  0  0  0
 80 81  1  0  0  0
 80 82  1  0  0  0
 80164  1  0  0  0
 80165  1  0  0  0
 81 83  1  0  0  0
 81166  1  0  0  0
 81167  1  0  0  0
 82 84  1  0  0  0
 82168  1  0  0  0
 82169  1  0  0  0
 83 85  1  0  0  0
 83170  1  0  0  0
 83171  1  0  0  0
 84 88  1  0  0  0
 84172  1  0  0  0
 84173  1  0  0  0
 85 89  1  0  0  0
 85174  1  0  0  0
 85175  1  0  0  0
 86 90  1  0  0  0
 86 91  1  0  0  0
 87 92  1  0  0  0
 87 93  1  0  0  0
 87 94  1  0  0  0
 89176  1  0  0  0
 89177  1  0  0  0
M  CHG  1  89   1
M  ISO  4   1 100  68 101  86 101  88 100
M  END
> <chiral flag>
0

> <version>
0

> <s_m_source_file>
/data/baiqing/PycharmProjects/Reinvent-master-3.2/result/LINK_invent/BTK/process_docking_weight1_custom_sum_contain_oxygen_bond_distance_aromatic_linkinvent_7_9_3/rearranged_h_0024.sdf

> <i_m_source_file_index>
83

> <r_mmod_Potential_Energy-OPLS-2005>
22805.93359375

> <r_mmod_Stretch_Energy-OPLS-2005>
11521.740234375

> <r_mmod_Bend_Energy-OPLS-2005>
1225.77990722656

> <r_mmod_Torsional_Energy-OPLS-2005>
659.349365234375

> <r_mmod_Improper_Torsional_Energy-OPLS-2005>
76.3948822021484

> <r_mmod_Van_der_Waal_Energy-OPLS-2005>
5290.47607421875

> <r_mmod_Electrostatic_Energy-OPLS-2005>
-201.871948242188

> <r_mmod_Solvation_Energy-OPLS-2005>
-449.505798339844

> <b_mmod_Minimization_Converged-OPLS-2005>
0

> <r_mmod_RMS_Derivative-OPLS-2005>
8.16489028930664

$$$$
83
                    3D
 Structure written by MMmdl.
156164  0  0  1  0            999 V2000
  -30.6343  -14.6796   20.4778 C   0  0  0  0  0  0
  -30.4246  -12.4153   19.4797 C   0  0  0  0  0  0
  -29.5079  -12.5195   18.2389 C   0  0  0  0  0  0
  -28.0358  -12.3377   18.6487 C   0  0  0  0  0  0
  -27.6472  -13.2241   19.8606 C   0  0  2  0  0  0
  -28.6860  -13.1351   21.0040 C   0  0  0  0  0  0
  -25.2542  -13.8176   20.5651 C   0  0  0  0  0  0
  -24.1825  -13.0442   20.9159 C   0  0  0  0  0  0
  -24.6406  -11.6923   20.8733 C   0  0  0  0  0  0
  -23.9070  -10.4308   21.0400 C   0  0  0  0  0  0
  -24.3622   -9.4223   21.9179 C   0  0  0  0  0  0
  -23.6303   -8.2254   22.0762 C   0  0  0  0  0  0
  -22.4290   -8.0289   21.3543 C   0  0  0  0  0  0
  -21.9923   -9.0247   20.4643 C   0  0  0  0  0  0
  -22.7240  -10.2140   20.3046 C   0  0  0  0  0  0
  -21.6869   -6.0734   22.5268 C   0  0  0  0  0  0
  -21.4029   -6.5643   23.8197 C   0  0  0  0  0  0
  -21.3667   -5.6793   24.9155 C   0  0  0  0  0  0
  -21.6049   -4.3054   24.7217 C   0  0  0  0  0  0
  -21.8824   -3.8145   23.4332 C   0  0  0  0  0  0
  -21.9204   -4.6954   22.3393 C   0  0  0  0  0  0
  -22.7841  -13.5238   21.1803 C   0  0  0  0  0  0
  -22.1675   -4.2138   21.0963 F   0  0  0  0  0  0
  -21.5628   -3.4543   25.7731 F   0  0  0  0  0  0
  -30.0033  -13.4601   20.4398 N   0  0  0  0  0  0
  -26.2971  -12.9380   20.3288 N   0  0  0  0  0  0
  -25.9337  -11.6530   20.5750 N   0  0  0  0  0  0
  -22.0524  -12.8235   22.0396 N   0  0  0  0  0  0
  -25.4260  -15.1883   20.4012 N   0  0  0  0  0  0
  -31.7929  -14.7957   20.0747 O   0  0  0  0  0  0
  -21.6660   -6.8880   21.4244 O   0  0  0  0  0  0
  -22.3529  -14.5524   20.6620 O   0  0  0  0  0  0
  -24.6279  -31.8577   23.1993 C   0  0  0  0  0  0
  -25.9120  -32.4771   23.8328 C   0  0  1  0  0  0
  -27.2267  -27.3017   20.1435 C   0  0  0  0  0  0
  -25.5942  -33.8576   24.2230 N   0  0  0  0  0  0
  -23.4245  -30.4808   21.5383 C   0  0  2  0  0  0
  -24.8751  -28.9371   20.1097 C   0  0  0  0  0  0
  -22.7463  -29.4585   22.4839 C   0  0  0  0  0  0
  -18.0295  -28.1388   22.8441 C   0  0  0  0  0  0
  -24.1513  -36.7293   23.2636 C   0  0  0  0  0  0
  -25.9674  -30.7852   21.3735 C   0  0  0  0  0  0
  -26.0442  -29.4129   20.7161 C   0  0  0  0  0  0
  -27.2234  -28.6087   20.7230 C   0  0  0  0  0  0
  -26.0432  -26.8977   19.4825 C   0  0  0  0  0  0
  -24.8774  -27.6840   19.4817 C   0  0  0  0  0  0
  -23.6452  -29.8184   20.1546 C   0  0  0  0  0  0
  -25.4141  -36.3056   24.0302 C   0  0  1  0  0  0
  -20.5892  -28.3691   23.1238 C   0  0  2  0  0  0
  -20.6774  -26.9404   22.5385 C   0  0  0  0  0  0
  -19.5761  -26.6360   21.5184 C   0  0  0  0  0  0
  -18.1929  -26.7932   22.1583 C   0  0  0  0  0  0
  -19.1548  -28.8844   23.2844 C   0  0  0  0  0  0
  -18.9478  -30.1454   23.8849 C   0  0  0  0  0  0
  -17.6490  -30.6578   24.0559 C   0  0  0  0  0  0
  -25.9067  -34.9438   23.5048 C   0  0  0  0  0  0
  -16.5372  -29.9071   23.6364 C   0  0  0  0  0  0
  -16.7283  -28.6513   23.0336 C   0  0  0  0  0  0
  -26.4483  -31.6601   25.0721 C   0  0  0  0  0  0
  -25.3700  -31.3787   26.1437 C   0  0  0  0  0  0
  -27.0328  -30.3019   24.6209 C   0  0  0  0  0  0
  -27.6014  -32.4370   25.7517 C   0  0  0  0  0  0
  -27.5579  -37.1794   24.8453 C   0  0  0  0  0  0
  -21.4164  -29.3051   22.3597 N   0  0  0  0  0  0
  -26.4301  -37.3763   23.9390 N   0  0  0  0  0  0
  -24.6921  -31.0578   22.0942 N   0  0  0  0  0  0
  -23.4183  -28.8117   23.2921 O   0  0  0  0  0  0
  -28.3090  -26.4026   20.2469 O   0  0  0  0  0  0
  -26.5634  -34.8917   22.4621 O   0  0  0  0  0  0
  -23.5439  -32.1375   23.7306 O   0  0  0  0  0  0
  -30.5111  -21.1835   21.6776 C   0  0  0  0  0  0
  -29.4901  -21.0448   20.7169 C   0  0  0  0  0  0
  -30.0352  -18.5465   20.6304 C   0  0  0  0  0  0
  -31.0450  -18.7804   21.5881 C   0  0  0  0  0  0
  -31.2777  -20.0771   22.1018 C   0  0  0  0  0  0
  -29.2697  -19.7051   20.1988 C   0  0  0  0  0  0
  -27.3481  -24.9398   21.9711 C   0  0  0  0  0  0
  -28.6104  -22.3056   20.3214 C   0  0  0  0  0  0
  -29.9408  -17.1107   19.9618 C   0  0  0  0  0  0
  -29.1177  -23.8292   20.5055 C   0  0  0  0  0  0
  -27.9894  -24.9704   20.5595 C   0  0  2  0  0  0
  -29.8688  -15.7961   20.7197 N   0  0  0  0  0  0
  -31.8353  -17.7575   21.9958 F   0  0  0  0  0  0
  -32.5408  -20.3326   23.2530 Cl  0  0  0  0  0  0
  -28.0452  -19.4967   18.9938 Cl  0  0  0  0  0  0
  -31.4678  -12.5297   19.1834 H   0  0  0  0  0  0
  -30.3474  -11.4265   19.9358 H   0  0  0  0  0  0
  -29.7872  -11.7755   17.4925 H   0  0  0  0  0  0
  -29.6359  -13.4936   17.7627 H   0  0  0  0  0  0
  -27.8994  -11.2849   18.8996 H   0  0  0  0  0  0
  -27.3771  -12.5463   17.8026 H   0  0  0  0  0  0
  -27.6543  -14.2488   19.4920 H   0  0  0  0  0  0
  -28.7018  -12.1382   21.4487 H   0  0  0  0  0  0
  -28.4213  -13.8231   21.8087 H   0  0  0  0  0  0
  -25.2789   -9.5704   22.4726 H   0  0  0  0  0  0
  -24.0026   -7.4664   22.7498 H   0  0  0  0  0  0
  -21.0853   -8.8723   19.8957 H   0  0  0  0  0  0
  -22.3679  -10.9641   19.6127 H   0  0  0  0  0  0
  -21.2029   -7.6153   23.9691 H   0  0  0  0  0  0
  -21.1487   -6.0530   25.9055 H   0  0  0  0  0  0
  -22.0604   -2.7607   23.2832 H   0  0  0  0  0  0
  -22.4205  -11.9910   22.4741 H   0  0  0  0  0  0
  -21.1119  -13.1207   22.2584 H   0  0  0  0  0  0
  -24.6516  -15.8388   20.4775 H   0  0  0  0  0  0
  -26.2684  -15.6235   20.0502 H   0  0  0  0  0  0
  -26.7175  -32.5409   23.1061 H   0  0  0  0  0  0
  -25.0127  -33.9739   25.0391 H   0  0  0  0  0  0
  -22.7248  -31.3046   21.3886 H   0  0  0  0  0  0
  -23.3767  -35.9624   23.3284 H   0  0  0  0  0  0
  -24.3601  -36.8955   22.2054 H   0  0  0  0  0  0
  -23.7295  -37.6499   23.6692 H   0  0  0  0  0  0
  -26.1115  -31.5495   20.6079 H   0  0  0  0  0  0
  -26.8450  -30.8290   22.0081 H   0  0  0  0  0  0
  -28.1121  -28.9665   21.2243 H   0  0  0  0  0  0
  -25.9862  -25.9520   18.9690 H   0  0  0  0  0  0
  -23.9835  -27.3125   18.9980 H   0  0  0  0  0  0
  -23.7778  -30.5979   19.4028 H   0  0  0  0  0  0
  -22.7700  -29.2512   19.8356 H   0  0  0  0  0  0
  -25.1327  -36.1876   25.0794 H   0  0  0  0  0  0
  -21.0008  -28.3282   24.1353 H   0  0  0  0  0  0
  -20.5650  -26.2289   23.3588 H   0  0  0  0  0  0
  -21.6639  -26.7399   22.1175 H   0  0  0  0  0  0
  -19.6931  -25.6263   21.1234 H   0  0  0  0  0  0
  -19.6735  -27.3133   20.6697 H   0  0  0  0  0  0
  -17.4204  -26.6670   21.3998 H   0  0  0  0  0  0
  -18.0337  -26.0082   22.8985 H   0  0  0  0  0  0
  -19.7966  -30.7274   24.2155 H   0  0  0  0  0  0
  -17.5066  -31.6246   24.5176 H   0  0  0  0  0  0
  -15.5375  -30.2971   23.7732 H   0  0  0  0  0  0
  -15.8676  -28.0847   22.7060 H   0  0  0  0  0  0
  -24.5863  -30.7162   25.7763 H   0  0  0  0  0  0
  -24.8926  -32.2987   26.4833 H   0  0  0  0  0  0
  -25.7997  -30.8979   27.0233 H   0  0  0  0  0  0
  -26.2891  -29.6762   24.1269 H   0  0  0  0  0  0
  -27.4060  -29.7308   25.4718 H   0  0  0  0  0  0
  -27.8740  -30.4320   23.9398 H   0  0  0  0  0  0
  -27.2603  -33.3701   26.2031 H   0  0  0  0  0  0
  -28.3864  -32.6906   25.0375 H   0  0  0  0  0  0
  -28.0620  -31.8552   26.5515 H   0  0  0  0  0  0
  -28.2545  -38.0136   24.7496 H   0  0  0  0  0  0
  -28.1111  -36.2645   24.6251 H   0  0  0  0  0  0
  -27.2280  -37.1415   25.8856 H   0  0  0  0  0  0
  -20.9315  -29.8851   21.6881 H   0  0  0  0  0  0
  -26.0148  -38.2811   24.1462 H   0  0  0  0  0  0
  -30.7272  -22.1471   22.1114 H   0  0  0  0  0  0
  -26.9433  -23.9554   22.2099 H   0  0  0  0  0  0
  -26.5283  -25.6491   22.0827 H   0  0  0  0  0  0
  -28.0818  -25.1803   22.7424 H   0  0  0  0  0  0
  -27.6795  -22.1885   20.8766 H   0  0  0  0  0  0
  -28.3154  -22.2000   19.2780 H   0  0  0  0  0  0
  -30.8089  -17.0603   19.3029 H   0  0  0  0  0  0
  -29.0947  -17.0908   19.2771 H   0  0  0  0  0  0
  -29.8364  -24.0486   19.7158 H   0  0  0  0  0  0
  -29.6827  -23.9224   21.4305 H   0  0  0  0  0  0
  -27.2517  -24.6180   19.8429 H   0  0  0  0  0  0
  -28.9770  -15.6061   21.1525 H   0  0  0  0  0  0
  1 25  1  0  0  0
  1 30  2  0  0  0
  1 82  1  0  0  0
  2  3  1  0  0  0
  2 25  1  0  0  0
  2 86  1  0  0  0
  2 87  1  0  0  0
  3  4  1  0  0  0
  3 88  1  0  0  0
  3 89  1  0  0  0
  4  5  1  0  0  0
  4 90  1  0  0  0
  4 91  1  0  0  0
  5  6  1  0  0  0
  5 26  1  0  0  0
  5 92  1  0  0  0
  6 25  1  0  0  0
  6 93  1  0  0  0
  6 94  1  0  0  0
  7  8  2  0  0  0
  7 26  1  0  0  0
  7 29  1  0  0  0
  8  9  1  0  0  0
  8 22  1  0  0  0
  9 10  1  0  0  0
  9 27  2  0  0  0
 10 11  2  0  0  0
 10 15  1  0  0  0
 11 12  1  0  0  0
 11 95  1  0  0  0
 12 13  2  0  0  0
 12 96  1  0  0  0
 13 14  1  0  0  0
 13 31  1  0  0  0
 14 15  2  0  0  0
 14 97  1  0  0  0
 15 98  1  0  0  0
 16 17  2  0  0  0
 16 21  1  0  0  0
 16 31  1  0  0  0
 17 18  1  0  0  0
 17 99  1  0  0  0
 18 19  2  0  0  0
 18100  1  0  0  0
 19 20  1  0  0  0
 19 24  1  0  0  0
 20 21  2  0  0  0
 20101  1  0  0  0
 21 23  1  0  0  0
 22 28  1  0  0  0
 22 32  2  0  0  0
 26 27  1  0  0  0
 28102  1  0  0  0
 28103  1  0  0  0
 29104  1  0  0  0
 29105  1  0  0  0
 33 34  1  0  0  0
 33 66  1  0  0  0
 33 70  2  0  0  0
 34 36  1  0  0  0
 34 59  1  0  0  0
 34106  1  0  0  0
 35 44  2  0  0  0
 35 45  1  0  0  0
 35 68  1  0  0  0
 36 56  1  0  0  0
 36107  1  0  0  0
 37 39  1  0  0  0
 37 47  1  0  0  0
 37 66  1  0  0  0
 37108  1  0  0  0
 38 43  2  0  0  0
 38 46  1  0  0  0
 38 47  1  0  0  0
 39 64  1  0  0  0
 39 67  2  0  0  0
 40 52  1  0  0  0
 40 53  2  0  0  0
 40 58  1  0  0  0
 41109  1  0  0  0
 41110  1  0  0  0
 41111  1  0  0  0
 41 48  1  0  0  0
 42 43  1  0  0  0
 42 66  1  0  0  0
 42112  1  0  0  0
 42113  1  0  0  0
 43 44  1  0  0  0
 44114  1  0  0  0
 45 46  2  0  0  0
 45115  1  0  0  0
 46116  1  0  0  0
 47117  1  0  0  0
 47118  1  0  0  0
 48 56  1  0  0  0
 48 65  1  0  0  0
 48119  1  0  0  0
 49 50  1  0  0  0
 49 53  1  0  0  0
 49 64  1  0  0  0
 49120  1  0  0  0
 50 51  1  0  0  0
 50121  1  0  0  0
 50122  1  0  0  0
 51 52  1  0  0  0
 51123  1  0  0  0
 51124  1  0  0  0
 52125  1  0  0  0
 52126  1  0  0  0
 53 54  1  0  0  0
 54 55  2  0  0  0
 54127  1  0  0  0
 55 57  1  0  0  0
 55128  1  0  0  0
 56 69  2  0  0  0
 57 58  2  0  0  0
 57129  1  0  0  0
 58130  1  0  0  0
 59 60  1  0  0  0
 59 61  1  0  0  0
 59 62  1  0  0  0
 60131  1  0  0  0
 60132  1  0  0  0
 60133  1  0  0  0
 61134  1  0  0  0
 61135  1  0  0  0
 61136  1  0  0  0
 62137  1  0  0  0
 62138  1  0  0  0
 62139  1  0  0  0
 63 65  1  0  0  0
 63140  1  0  0  0
 63141  1  0  0  0
 63142  1  0  0  0
 64143  1  0  0  0
 65144  1  0  0  0
 68 81  1  0  0  0
 71 72  2  0  0  0
 71 75  1  0  0  0
 71145  1  0  0  0
 72 76  1  0  0  0
 72 78  1  0  0  0
 73 74  1  0  0  0
 73 76  2  0  0  0
 73 79  1  0  0  0
 74 75  2  0  0  0
 74 83  1  0  0  0
 75 84  1  0  0  0
 76 85  1  0  0  0
 77146  1  0  0  0
 77147  1  0  0  0
 77148  1  0  0  0
 77 81  1  0  0  0
 78 80  1  0  0  0
 78149  1  0  0  0
 78150  1  0  0  0
 79 82  1  0  0  0
 79151  1  0  0  0
 79152  1  0  0  0
 80 81  1  0  0  0
 80153  1  0  0  0
 80154  1  0  0  0
 81155  1  0  0  0
 82156  1  0  0  0
M  ISO  4   1 100  68 101  81 101  82 100
M  END
> <chiral flag>
0

> <version>
0

> <s_m_source_file>
/data/baiqing/PycharmProjects/Reinvent-master-3.2/result/LINK_invent/BTK/process_docking_weight1_custom_sum_contain_oxygen_bond_distance_aromatic_linkinvent_7_9_3/rearranged_h_0024.sdf

> <i_m_source_file_index>
84

> <r_mmod_Potential_Energy-OPLS-2005>
122.126304626465

> <r_mmod_Stretch_Energy-OPLS-2005>
104.23722076416

> <r_mmod_Bend_Energy-OPLS-2005>
148.952224731445

> <r_mmod_Torsional_Energy-OPLS-2005>
231.63948059082

> <r_mmod_Improper_Torsional_Energy-OPLS-2005>
9.01617050170898

> <r_mmod_Van_der_Waal_Energy-OPLS-2005>
145.217727661133

> <r_mmod_Electrostatic_Energy-OPLS-2005>
-372.421295166016

> <r_mmod_Solvation_Energy-OPLS-2005>
-210.396606445312

> <b_mmod_Minimization_Converged-OPLS-2005>
0

> <r_mmod_RMS_Derivative-OPLS-2005>
4.0740008354187

$$$$
84
                    3D
 Structure written by MMmdl.
153161  0  0  1  0            999 V2000
  -30.6980  -14.5900   20.5227 C   0  0  0  0  0  0
  -30.4199  -12.3714   19.4480 C   0  0  0  0  0  0
  -29.4977  -12.4967   18.2184 C   0  0  0  0  0  0
  -28.0222  -12.3455   18.6346 C   0  0  0  0  0  0
  -27.6503  -13.2244   19.8593 C   0  0  2  0  0  0
  -28.6970  -13.1014   20.9893 C   0  0  0  0  0  0
  -25.2543  -13.8194   20.5685 C   0  0  0  0  0  0
  -24.1820  -13.0445   20.9190 C   0  0  0  0  0  0
  -24.6401  -11.6920   20.8746 C   0  0  0  0  0  0
  -23.9071  -10.4295   21.0407 C   0  0  0  0  0  0
  -24.3621   -9.4210   21.9185 C   0  0  0  0  0  0
  -23.6295   -8.2247   22.0755 C   0  0  0  0  0  0
  -22.4278   -8.0283   21.3545 C   0  0  0  0  0  0
  -21.9914   -9.0258   20.4647 C   0  0  0  0  0  0
  -22.7244  -10.2136   20.3056 C   0  0  0  0  0  0
  -21.6854   -6.0735   22.5277 C   0  0  0  0  0  0
  -21.4016   -6.5638   23.8211 C   0  0  0  0  0  0
  -21.3661   -5.6792   24.9172 C   0  0  0  0  0  0
  -21.6046   -4.3055   24.7225 C   0  0  0  0  0  0
  -21.8819   -3.8146   23.4345 C   0  0  0  0  0  0
  -21.9194   -4.6963   22.3402 C   0  0  0  0  0  0
  -22.7840  -13.5226   21.1854 C   0  0  0  0  0  0
  -22.1660   -4.2147   21.0980 F   0  0  0  0  0  0
  -21.5631   -3.4539   25.7738 F   0  0  0  0  0  0
  -30.0126  -13.4112   20.4133 N   0  0  0  0  0  0
  -26.2982  -12.9394   20.3326 N   0  0  0  0  0  0
  -25.9335  -11.6539   20.5775 N   0  0  0  0  0  0
  -22.0489  -12.8214   22.0410 N   0  0  0  0  0  0
  -25.4236  -15.1913   20.4079 N   0  0  0  0  0  0
  -31.8643  -14.6843   20.1345 O   0  0  0  0  0  0
  -21.6642   -6.8880   21.4239 O   0  0  0  0  0  0
  -22.3517  -14.5531   20.6703 O   0  0  0  0  0  0
  -24.6244  -31.8634   23.2076 C   0  0  0  0  0  0
  -25.9103  -32.4793   23.8385 C   0  0  1  0  0  0
  -27.2149  -27.3399   20.1031 C   0  0  0  0  0  0
  -25.5934  -33.8593   24.2309 N   0  0  0  0  0  0
  -23.4155  -30.4919   21.5504 C   0  0  2  0  0  0
  -24.8590  -28.9591   20.1082 C   0  0  0  0  0  0
  -22.7467  -29.4647   22.4946 C   0  0  0  0  0  0
  -18.0287  -28.1381   22.8482 C   0  0  0  0  0  0
  -24.1491  -36.7298   23.2639 C   0  0  0  0  0  0
  -25.9574  -30.7993   21.3777 C   0  0  0  0  0  0
  -26.0290  -29.4306   20.7169 C   0  0  0  0  0  0
  -27.2089  -28.6305   20.7119 C   0  0  0  0  0  0
  -26.0227  -26.9334   19.4524 C   0  0  0  0  0  0
  -24.8567  -27.7137   19.4691 C   0  0  0  0  0  0
  -23.6276  -29.8366   20.1624 C   0  0  0  0  0  0
  -25.4111  -36.3089   24.0339 C   0  0  1  0  0  0
  -20.5889  -28.3684   23.1284 C   0  0  2  0  0  0
  -20.6779  -26.9407   22.5409 C   0  0  0  0  0  0
  -19.5748  -26.6386   21.5212 C   0  0  0  0  0  0
  -18.1927  -26.7922   22.1625 C   0  0  0  0  0  0
  -19.1540  -28.8848   23.2879 C   0  0  0  0  0  0
  -18.9464  -30.1450   23.8893 C   0  0  0  0  0  0
  -17.6466  -30.6583   24.0563 C   0  0  0  0  0  0
  -25.9052  -34.9459   23.5119 C   0  0  0  0  0  0
  -16.5355  -29.9085   23.6328 C   0  0  0  0  0  0
  -16.7274  -28.6504   23.0342 C   0  0  0  0  0  0
  -26.4494  -31.6589   25.0739 C   0  0  0  0  0  0
  -25.3732  -31.3720   26.1468 C   0  0  0  0  0  0
  -27.0325  -30.3016   24.6166 C   0  0  0  0  0  0
  -27.6060  -32.4315   25.7504 C   0  0  0  0  0  0
  -27.5578  -37.1805   24.8466 C   0  0  0  0  0  0
  -21.4186  -29.3045   22.3682 N   0  0  0  0  0  0
  -26.4289  -37.3783   23.9413 N   0  0  0  0  0  0
  -24.6846  -31.0670   22.1021 N   0  0  0  0  0  0
  -23.4203  -28.8171   23.3003 O   0  0  0  0  0  0
  -28.3228  -26.4787   20.1694 O   0  0  0  0  0  0
  -26.5611  -34.8920   22.4680 O   0  0  0  0  0  0
  -23.5414  -32.1433   23.7414 O   0  0  0  0  0  0
  -28.4047  -20.2427   21.1756 C   0  0  0  0  0  0
  -30.7083  -19.2570   19.9596 C   0  0  0  0  0  0
  -29.0964  -21.1084   20.2864 C   0  0  0  0  0  0
  -30.0165  -18.3897   20.8467 C   0  0  0  0  0  0
  -30.2663  -20.5809   19.6801 C   0  0  0  0  0  0
  -28.8470  -18.9176   21.4543 C   0  0  0  0  0  0
  -28.4625  -22.4735   19.8597 C   0  0  0  0  0  0
  -30.6554  -17.0213   21.2569 C   0  0  0  0  0  0
  -29.0141  -23.8784   20.3428 C   0  0  0  0  0  0
  -28.0620  -25.0551   19.8866 C   0  0  0  0  0  0
  -30.0222  -15.7012   20.9352 N   0  0  0  0  0  0
  -31.1713  -21.5355   18.5607 Cl  0  0  0  0  0  0
  -27.9433  -17.9594   22.5713 Cl  0  0  0  0  0  0
  -31.4643  -12.4626   19.1452 H   0  0  0  0  0  0
  -30.3279  -11.3821   19.8995 H   0  0  0  0  0  0
  -29.7551  -11.7412   17.4750 H   0  0  0  0  0  0
  -29.6490  -13.4645   17.7377 H   0  0  0  0  0  0
  -27.8548  -11.2937   18.8711 H   0  0  0  0  0  0
  -27.3673  -12.5743   17.7930 H   0  0  0  0  0  0
  -27.6646  -14.2572   19.5107 H   0  0  0  0  0  0
  -28.7005  -12.0926   21.4047 H   0  0  0  0  0  0
  -28.4533  -13.7676   21.8182 H   0  0  0  0  0  0
  -25.2766   -9.5686   22.4757 H   0  0  0  0  0  0
  -24.0003   -7.4639   22.7475 H   0  0  0  0  0  0
  -21.0845   -8.8779   19.8951 H   0  0  0  0  0  0
  -22.3705  -10.9676   19.6164 H   0  0  0  0  0  0
  -21.2007   -7.6146   23.9712 H   0  0  0  0  0  0
  -21.1483   -6.0523   25.9075 H   0  0  0  0  0  0
  -22.0598   -2.7609   23.2848 H   0  0  0  0  0  0
  -22.4110  -11.9873   22.4788 H   0  0  0  0  0  0
  -21.1110  -13.1239   22.2624 H   0  0  0  0  0  0
  -24.6590  -15.8471   20.5261 H   0  0  0  0  0  0
  -26.2773  -15.6333   20.0923 H   0  0  0  0  0  0
  -26.7166  -32.5469   23.1135 H   0  0  0  0  0  0
  -25.0078  -33.9743   25.0451 H   0  0  0  0  0  0
  -22.7080  -31.3125   21.4132 H   0  0  0  0  0  0
  -23.3747  -35.9637   23.3311 H   0  0  0  0  0  0
  -24.3583  -36.8902   22.2050 H   0  0  0  0  0  0
  -23.7251  -37.6511   23.6648 H   0  0  0  0  0  0
  -26.0882  -31.5650   20.6115 H   0  0  0  0  0  0
  -26.8389  -30.8446   22.0056 H   0  0  0  0  0  0
  -28.1021  -28.9840   21.2079 H   0  0  0  0  0  0
  -25.9474  -25.9940   18.9256 H   0  0  0  0  0  0
  -23.9627  -27.3504   18.9805 H   0  0  0  0  0  0
  -23.7459  -30.6183   19.4110 H   0  0  0  0  0  0
  -22.7466  -29.2689   19.8570 H   0  0  0  0  0  0
  -25.1287  -36.1950   25.0831 H   0  0  0  0  0  0
  -20.9978  -28.3254   24.1408 H   0  0  0  0  0  0
  -20.5682  -26.2292   23.3611 H   0  0  0  0  0  0
  -21.6644  -26.7444   22.1193 H   0  0  0  0  0  0
  -19.6915  -25.6304   21.1228 H   0  0  0  0  0  0
  -19.6681  -27.3208   20.6749 H   0  0  0  0  0  0
  -17.4197  -26.6673   21.4024 H   0  0  0  0  0  0
  -18.0320  -26.0070   22.9026 H   0  0  0  0  0  0
  -19.7945  -30.7262   24.2259 H   0  0  0  0  0  0
  -17.5026  -31.6264   24.5167 H   0  0  0  0  0  0
  -15.5355  -30.2983   23.7660 H   0  0  0  0  0  0
  -15.8675  -28.0829   22.7046 H   0  0  0  0  0  0
  -24.5907  -30.7070   25.7799 H   0  0  0  0  0  0
  -24.8923  -32.2883   26.4898 H   0  0  0  0  0  0
  -25.8057  -30.8896   27.0239 H   0  0  0  0  0  0
  -26.2890  -29.6783   24.1186 H   0  0  0  0  0  0
  -27.4030  -29.7252   25.4652 H   0  0  0  0  0  0
  -27.8762  -30.4313   23.9382 H   0  0  0  0  0  0
  -27.2673  -33.3607   26.2098 H   0  0  0  0  0  0
  -28.3858  -32.6886   25.0322 H   0  0  0  0  0  0
  -28.0743  -31.8431   26.5404 H   0  0  0  0  0  0
  -28.2596  -38.0100   24.7503 H   0  0  0  0  0  0
  -28.1070  -36.2630   24.6298 H   0  0  0  0  0  0
  -27.2296  -37.1459   25.8869 H   0  0  0  0  0  0
  -20.9352  -29.8801   21.6925 H   0  0  0  0  0  0
  -26.0173  -38.2859   24.1410 H   0  0  0  0  0  0
  -27.4938  -20.5875   21.6429 H   0  0  0  0  0  0
  -31.6177  -18.9117   19.4895 H   0  0  0  0  0  0
  -27.4098  -22.4236   20.1396 H   0  0  0  0  0  0
  -28.4466  -22.4796   18.7691 H   0  0  0  0  0  0
  -30.7604  -17.0482   22.3420 H   0  0  0  0  0  0
  -31.6841  -17.0321   20.8936 H   0  0  0  0  0  0
  -30.0192  -24.0380   19.9523 H   0  0  0  0  0  0
  -29.0945  -23.8849   21.4297 H   0  0  0  0  0  0
  -27.1029  -24.7951   20.3365 H   0  0  0  0  0  0
  -27.9374  -24.9674   18.8063 H   0  0  0  0  0  0
  -29.0504  -15.5860   21.1784 H   0  0  0  0  0  0
  1 25  1  0  0  0
  1 30  2  0  0  0
  1 81  1  0  0  0
  2  3  1  0  0  0
  2 25  1  0  0  0
  2 84  1  0  0  0
  2 85  1  0  0  0
  3  4  1  0  0  0
  3 86  1  0  0  0
  3 87  1  0  0  0
  4  5  1  0  0  0
  4 88  1  0  0  0
  4 89  1  0  0  0
  5  6  1  0  0  0
  5 26  1  0  0  0
  5 90  1  0  0  0
  6 25  1  0  0  0
  6 91  1  0  0  0
  6 92  1  0  0  0
  7  8  2  0  0  0
  7 26  1  0  0  0
  7 29  1  0  0  0
  8  9  1  0  0  0
  8 22  1  0  0  0
  9 10  1  0  0  0
  9 27  2  0  0  0
 10 11  2  0  0  0
 10 15  1  0  0  0
 11 12  1  0  0  0
 11 93  1  0  0  0
 12 13  2  0  0  0
 12 94  1  0  0  0
 13 14  1  0  0  0
 13 31  1  0  0  0
 14 15  2  0  0  0
 14 95  1  0  0  0
 15 96  1  0  0  0
 16 17  2  0  0  0
 16 21  1  0  0  0
 16 31  1  0  0  0
 17 18  1  0  0  0
 17 97  1  0  0  0
 18 19  2  0  0  0
 18 98  1  0  0  0
 19 20  1  0  0  0
 19 24  1  0  0  0
 20 21  2  0  0  0
 20 99  1  0  0  0
 21 23  1  0  0  0
 22 28  1  0  0  0
 22 32  2  0  0  0
 26 27  1  0  0  0
 28100  1  0  0  0
 28101  1  0  0  0
 29102  1  0  0  0
 29103  1  0  0  0
 33 34  1  0  0  0
 33 66  1  0  0  0
 33 70  2  0  0  0
 34 36  1  0  0  0
 34 59  1  0  0  0
 34104  1  0  0  0
 35 44  2  0  0  0
 35 45  1  0  0  0
 35 68  1  0  0  0
 36 56  1  0  0  0
 36105  1  0  0  0
 37 39  1  0  0  0
 37 47  1  0  0  0
 37 66  1  0  0  0
 37106  1  0  0  0
 38 43  2  0  0  0
 38 46  1  0  0  0
 38 47  1  0  0  0
 39 64  1  0  0  0
 39 67  2  0  0  0
 40 52  1  0  0  0
 40 53  2  0  0  0
 40 58  1  0  0  0
 41107  1  0  0  0
 41108  1  0  0  0
 41109  1  0  0  0
 41 48  1  0  0  0
 42 43  1  0  0  0
 42 66  1  0  0  0
 42110  1  0  0  0
 42111  1  0  0  0
 43 44  1  0  0  0
 44112  1  0  0  0
 45 46  2  0  0  0
 45113  1  0  0  0
 46114  1  0  0  0
 47115  1  0  0  0
 47116  1  0  0  0
 48 56  1  0  0  0
 48 65  1  0  0  0
 48117  1  0  0  0
 49 50  1  0  0  0
 49 53  1  0  0  0
 49 64  1  0  0  0
 49118  1  0  0  0
 50 51  1  0  0  0
 50119  1  0  0  0
 50120  1  0  0  0
 51 52  1  0  0  0
 51121  1  0  0  0
 51122  1  0  0  0
 52123  1  0  0  0
 52124  1  0  0  0
 53 54  1  0  0  0
 54 55  2  0  0  0
 54125  1  0  0  0
 55 57  1  0  0  0
 55126  1  0  0  0
 56 69  2  0  0  0
 57 58  2  0  0  0
 57127  1  0  0  0
 58128  1  0  0  0
 59 60  1  0  0  0
 59 61  1  0  0  0
 59 62  1  0  0  0
 60129  1  0  0  0
 60130  1  0  0  0
 60131  1  0  0  0
 61132  1  0  0  0
 61133  1  0  0  0
 61134  1  0  0  0
 62135  1  0  0  0
 62136  1  0  0  0
 62137  1  0  0  0
 63 65  1  0  0  0
 63138  1  0  0  0
 63139  1  0  0  0
 63140  1  0  0  0
 64141  1  0  0  0
 65142  1  0  0  0
 68 80  1  0  0  0
 71 73  2  0  0  0
 71 76  1  0  0  0
 71143  1  0  0  0
 72 74  1  0  0  0
 72 75  2  0  0  0
 72144  1  0  0  0
 73 75  1  0  0  0
 73 77  1  0  0  0
 74 76  2  0  0  0
 74 78  1  0  0  0
 75 82  1  0  0  0
 76 83  1  0  0  0
 77 79  1  0  0  0
 77145  1  0  0  0
 77146  1  0  0  0
 78 81  1  0  0  0
 78147  1  0  0  0
 78148  1  0  0  0
 79 80  1  0  0  0
 79149  1  0  0  0
 79150  1  0  0  0
 80151  1  0  0  0
 80152  1  0  0  0
 81153  1  0  0  0
M  ISO  4   1 100  68 101  80 101  81 100
M  END
> <chiral flag>
0

> <version>
0

> <s_m_source_file>
/data/baiqing/PycharmProjects/Reinvent-master-3.2/result/LINK_invent/BTK/process_docking_weight1_custom_sum_contain_oxygen_bond_distance_aromatic_linkinvent_7_9_3/rearranged_h_0024.sdf

> <i_m_source_file_index>
85

> <r_mmod_Potential_Energy-OPLS-2005>
3.14365649223328

> <r_mmod_Stretch_Energy-OPLS-2005>
66.8105850219727

> <r_mmod_Bend_Energy-OPLS-2005>
137.570220947266

> <r_mmod_Torsional_Energy-OPLS-2005>
203.396560668945

> <r_mmod_Improper_Torsional_Energy-OPLS-2005>
4.8842716217041

> <r_mmod_Van_der_Waal_Energy-OPLS-2005>
150.332794189453

> <r_mmod_Electrostatic_Energy-OPLS-2005>
-399.946563720703

> <r_mmod_Solvation_Energy-OPLS-2005>
-201.608932495117

> <b_mmod_Minimization_Converged-OPLS-2005>
0

> <r_mmod_RMS_Derivative-OPLS-2005>
0.743907630443573

$$$$
85
                    3D
 Structure written by MMmdl.
161169  0  0  1  0            999 V2000
  -30.7529  -14.4563   20.5311 C   0  0  0  0  0  0
  -30.4014  -12.2854   19.4327 C   0  0  0  0  0  0
  -29.4906  -12.5008   18.2093 C   0  0  0  0  0  0
  -28.0121  -12.3703   18.6219 C   0  0  0  0  0  0
  -27.6580  -13.2191   19.8742 C   0  0  2  0  0  0
  -28.7060  -13.0398   20.9996 C   0  0  0  0  0  0
  -25.2555  -13.8165   20.5725 C   0  0  0  0  0  0
  -24.1832  -13.0430   20.9196 C   0  0  0  0  0  0
  -24.6415  -11.6907   20.8763 C   0  0  0  0  0  0
  -23.9088  -10.4292   21.0417 C   0  0  0  0  0  0
  -24.3630   -9.4200   21.9199 C   0  0  0  0  0  0
  -23.6295   -8.2239   22.0773 C   0  0  0  0  0  0
  -22.4273   -8.0292   21.3555 C   0  0  0  0  0  0
  -21.9920   -9.0273   20.4658 C   0  0  0  0  0  0
  -22.7261  -10.2142   20.3062 C   0  0  0  0  0  0
  -21.6848   -6.0733   22.5292 C   0  0  0  0  0  0
  -21.4018   -6.5642   23.8221 C   0  0  0  0  0  0
  -21.3654   -5.6795   24.9192 C   0  0  0  0  0  0
  -21.6036   -4.3063   24.7241 C   0  0  0  0  0  0
  -21.8814   -3.8141   23.4362 C   0  0  0  0  0  0
  -21.9197   -4.6952   22.3419 C   0  0  0  0  0  0
  -22.7854  -13.5234   21.1841 C   0  0  0  0  0  0
  -22.1656   -4.2143   21.0988 F   0  0  0  0  0  0
  -21.5622   -3.4548   25.7746 F   0  0  0  0  0  0
  -30.0362  -13.3036   20.4318 N   0  0  0  0  0  0
  -26.3021  -12.9379   20.3416 N   0  0  0  0  0  0
  -25.9349  -11.6524   20.5810 N   0  0  0  0  0  0
  -22.0464  -12.8262   22.0385 N   0  0  0  0  0  0
  -25.4195  -15.1899   20.4172 N   0  0  0  0  0  0
  -31.9003  -14.5314   20.0826 O   0  0  0  0  0  0
  -21.6643   -6.8882   21.4250 O   0  0  0  0  0  0
  -22.3547  -14.5533   20.6668 O   0  0  0  0  0  0
  -24.6125  -31.8705   23.2126 C   0  0  0  0  0  0
  -25.9032  -32.4839   23.8400 C   0  0  1  0  0  0
  -27.2237  -27.4358   20.0878 C   0  0  0  0  0  0
  -25.5919  -33.8643   24.2327 N   0  0  0  0  0  0
  -23.3993  -30.4959   21.5545 C   0  0  2  0  0  0
  -24.8415  -28.9755   20.1110 C   0  0  0  0  0  0
  -22.7388  -29.4659   22.4997 C   0  0  0  0  0  0
  -18.0275  -28.1403   22.8497 C   0  0  0  0  0  0
  -24.1490  -36.7293   23.2626 C   0  0  0  0  0  0
  -25.9313  -30.8343   21.3707 C   0  0  0  0  0  0
  -26.0035  -29.4718   20.7144 C   0  0  0  0  0  0
  -27.1935  -28.7080   20.7072 C   0  0  0  0  0  0
  -26.0411  -26.9792   19.4510 C   0  0  0  0  0  0
  -24.8552  -27.7273   19.4779 C   0  0  0  0  0  0
  -23.6045  -29.8390   20.1659 C   0  0  0  0  0  0
  -25.4122  -36.3111   24.0323 C   0  0  1  0  0  0
  -20.5860  -28.3669   23.1334 C   0  0  2  0  0  0
  -20.6778  -26.9413   22.5427 C   0  0  0  0  0  0
  -19.5760  -26.6407   21.5223 C   0  0  0  0  0  0
  -18.1933  -26.7956   22.1631 C   0  0  0  0  0  0
  -19.1526  -28.8852   23.2915 C   0  0  0  0  0  0
  -18.9454  -30.1468   23.8916 C   0  0  0  0  0  0
  -17.6454  -30.6606   24.0572 C   0  0  0  0  0  0
  -25.9049  -34.9485   23.5105 C   0  0  0  0  0  0
  -16.5339  -29.9108   23.6347 C   0  0  0  0  0  0
  -16.7261  -28.6531   23.0344 C   0  0  0  0  0  0
  -26.4465  -31.6611   25.0724 C   0  0  0  0  0  0
  -25.3727  -31.3739   26.1462 C   0  0  0  0  0  0
  -27.0257  -30.3039   24.6098 C   0  0  0  0  0  0
  -27.6050  -32.4300   25.7503 C   0  0  0  0  0  0
  -27.5583  -37.1807   24.8471 C   0  0  0  0  0  0
  -21.4116  -29.3031   22.3728 N   0  0  0  0  0  0
  -26.4297  -37.3806   23.9416 N   0  0  0  0  0  0
  -24.6650  -31.0817   22.1032 N   0  0  0  0  0  0
  -23.4163  -28.8193   23.3034 O   0  0  0  0  0  0
  -28.3868  -26.6806   20.1303 O   0  0  0  0  0  0
  -26.5603  -34.8931   22.4667 O   0  0  0  0  0  0
  -23.5325  -32.1436   23.7536 O   0  0  0  0  0  0
  -31.4063  -19.4393   20.1749 C   0  0  0  0  0  0
  -30.0287  -19.1821   20.0320 C   0  0  0  0  0  0
  -29.5781  -17.8583   20.3705 C   0  0  0  0  0  0
  -32.2559  -18.4619   20.6960 C   0  0  0  0  0  0
  -30.5322  -16.8965   20.8113 C   0  0  0  0  0  0
  -33.7361  -18.7314   20.8412 C   0  0  0  0  0  0
  -27.7401  -20.0931   19.0803 C   0  0  0  0  0  0
  -29.0964  -22.9616   19.4388 C   0  0  0  0  0  0
  -29.3306  -24.3239   20.1475 C   0  0  0  0  0  0
  -29.3695  -21.6859   20.2688 C   0  0  0  0  0  0
  -28.2867  -25.3346   19.6439 C   0  0  0  0  0  0
  -29.2124  -20.3628   19.4454 C   0  0  1  0  0  0
  -31.8265  -17.2357   21.0312 N   0  0  0  0  0  0
  -30.0944  -15.5456   20.9735 N   0  0  0  0  0  0
  -27.9346  -17.3238   20.2199 Cl  0  0  0  0  0  0
  -31.4509  -12.3277   19.1355 H   0  0  0  0  0  0
  -30.2526  -11.2856   19.8452 H   0  0  0  0  0  0
  -29.7268  -11.7744   17.4321 H   0  0  0  0  0  0
  -29.6730  -13.4843   17.7708 H   0  0  0  0  0  0
  -27.8234  -11.3159   18.8274 H   0  0  0  0  0  0
  -27.3583  -12.6401   17.7915 H   0  0  0  0  0  0
  -27.6866  -14.2621   19.5601 H   0  0  0  0  0  0
  -28.6766  -12.0213   21.3923 H   0  0  0  0  0  0
  -28.4846  -13.6912   21.8463 H   0  0  0  0  0  0
  -25.2766   -9.5671   22.4805 H   0  0  0  0  0  0
  -23.9992   -7.4630   22.7514 H   0  0  0  0  0  0
  -21.0839   -8.8803   19.8989 H   0  0  0  0  0  0
  -22.3720  -10.9695   19.6186 H   0  0  0  0  0  0
  -21.2012   -7.6152   23.9723 H   0  0  0  0  0  0
  -21.1478   -6.0530   25.9093 H   0  0  0  0  0  0
  -22.0596   -2.7606   23.2871 H   0  0  0  0  0  0
  -22.4033  -11.9916   22.4820 H   0  0  0  0  0  0
  -21.1085  -13.1334   22.2536 H   0  0  0  0  0  0
  -24.6544  -15.8394   20.5578 H   0  0  0  0  0  0
  -26.2785  -15.6534   20.1443 H   0  0  0  0  0  0
  -26.7109  -32.5553   23.1166 H   0  0  0  0  0  0
  -25.0153  -33.9843   25.0525 H   0  0  0  0  0  0
  -22.6873  -31.3131   21.4250 H   0  0  0  0  0  0
  -23.3761  -35.9619   23.3301 H   0  0  0  0  0  0
  -24.3584  -36.8878   22.2035 H   0  0  0  0  0  0
  -23.7233  -37.6494   23.6636 H   0  0  0  0  0  0
  -26.0545  -31.6013   20.6044 H   0  0  0  0  0  0
  -26.8154  -30.8788   21.9952 H   0  0  0  0  0  0
  -28.0853  -29.0865   21.1863 H   0  0  0  0  0  0
  -25.9912  -26.0443   18.9153 H   0  0  0  0  0  0
  -23.9672  -27.3447   18.9932 H   0  0  0  0  0  0
  -23.7130  -30.6174   19.4087 H   0  0  0  0  0  0
  -22.7289  -29.2567   19.8699 H   0  0  0  0  0  0
  -25.1306  -36.1956   25.0814 H   0  0  0  0  0  0
  -20.9977  -28.3234   24.1440 H   0  0  0  0  0  0
  -20.5730  -26.2259   23.3601 H   0  0  0  0  0  0
  -21.6642  -26.7502   22.1186 H   0  0  0  0  0  0
  -19.6913  -25.6327   21.1234 H   0  0  0  0  0  0
  -19.6699  -27.3230   20.6764 H   0  0  0  0  0  0
  -17.4208  -26.6692   21.4020 H   0  0  0  0  0  0
  -18.0320  -26.0119   22.9048 H   0  0  0  0  0  0
  -19.7924  -30.7296   24.2258 H   0  0  0  0  0  0
  -17.5014  -31.6295   24.5168 H   0  0  0  0  0  0
  -15.5348  -30.3015   23.7692 H   0  0  0  0  0  0
  -15.8654  -28.0879   22.7026 H   0  0  0  0  0  0
  -24.5945  -30.7031   25.7804 H   0  0  0  0  0  0
  -24.8886  -32.2899   26.4844 H   0  0  0  0  0  0
  -25.8081  -30.8976   27.0250 H   0  0  0  0  0  0
  -26.2794  -29.6870   24.1076 H   0  0  0  0  0  0
  -27.3896  -29.7210   25.4566 H   0  0  0  0  0  0
  -27.8693  -30.4331   23.9320 H   0  0  0  0  0  0
  -27.2689  -33.3612   26.2078 H   0  0  0  0  0  0
  -28.3883  -32.6805   25.0339 H   0  0  0  0  0  0
  -28.0673  -31.8411   26.5429 H   0  0  0  0  0  0
  -28.2609  -38.0095   24.7536 H   0  0  0  0  0  0
  -28.1064  -36.2636   24.6279 H   0  0  0  0  0  0
  -27.2307  -37.1424   25.8871 H   0  0  0  0  0  0
  -20.9254  -29.8708   21.6923 H   0  0  0  0  0  0
  -26.0158  -38.2867   24.1436 H   0  0  0  0  0  0
  -31.8208  -20.3934   19.8778 H   0  0  0  0  0  0
  -34.2224  -18.5964   19.8756 H   0  0  0  0  0  0
  -34.2053  -18.0650   21.5654 H   0  0  0  0  0  0
  -33.9034  -19.7589   21.1630 H   0  0  0  0  0  0
  -27.6514  -19.2686   18.3718 H   0  0  0  0  0  0
  -27.2725  -20.9481   18.5941 H   0  0  0  0  0  0
  -27.1418  -19.8713   19.9628 H   0  0  0  0  0  0
  -29.6862  -22.9455   18.5187 H   0  0  0  0  0  0
  -28.0593  -22.9184   19.1128 H   0  0  0  0  0  0
  -30.3447  -24.6803   19.9632 H   0  0  0  0  0  0
  -29.2343  -24.2268   21.2294 H   0  0  0  0  0  0
  -28.7246  -21.6506   21.1469 H   0  0  0  0  0  0
  -30.3792  -21.7889   20.6616 H   0  0  0  0  0  0
  -27.3436  -24.8905   19.9638 H   0  0  0  0  0  0
  -28.2976  -25.3657   18.5540 H   0  0  0  0  0  0
  -29.7054  -20.5460   18.4900 H   0  0  0  0  0  0
  -29.1156  -15.4240   21.1753 H   0  0  0  0  0  0
  1 25  1  0  0  0
  1 30  2  0  0  0
  1 84  1  0  0  0
  2  3  1  0  0  0
  2 25  1  0  0  0
  2 86  1  0  0  0
  2 87  1  0  0  0
  3  4  1  0  0  0
  3 88  1  0  0  0
  3 89  1  0  0  0
  4  5  1  0  0  0
  4 90  1  0  0  0
  4 91  1  0  0  0
  5  6  1  0  0  0
  5 26  1  0  0  0
  5 92  1  0  0  0
  6 25  1  0  0  0
  6 93  1  0  0  0
  6 94  1  0  0  0
  7  8  2  0  0  0
  7 26  1  0  0  0
  7 29  1  0  0  0
  8  9  1  0  0  0
  8 22  1  0  0  0
  9 10  1  0  0  0
  9 27  2  0  0  0
 10 11  2  0  0  0
 10 15  1  0  0  0
 11 12  1  0  0  0
 11 95  1  0  0  0
 12 13  2  0  0  0
 12 96  1  0  0  0
 13 14  1  0  0  0
 13 31  1  0  0  0
 14 15  2  0  0  0
 14 97  1  0  0  0
 15 98  1  0  0  0
 16 17  2  0  0  0
 16 21  1  0  0  0
 16 31  1  0  0  0
 17 18  1  0  0  0
 17 99  1  0  0  0
 18 19  2  0  0  0
 18100  1  0  0  0
 19 20  1  0  0  0
 19 24  1  0  0  0
 20 21  2  0  0  0
 20101  1  0  0  0
 21 23  1  0  0  0
 22 28  1  0  0  0
 22 32  2  0  0  0
 26 27  1  0  0  0
 28102  1  0  0  0
 28103  1  0  0  0
 29104  1  0  0  0
 29105  1  0  0  0
 33 34  1  0  0  0
 33 66  1  0  0  0
 33 70  2  0  0  0
 34 36  1  0  0  0
 34 59  1  0  0  0
 34106  1  0  0  0
 35 44  2  0  0  0
 35 45  1  0  0  0
 35 68  1  0  0  0
 36 56  1  0  0  0
 36107  1  0  0  0
 37 39  1  0  0  0
 37 47  1  0  0  0
 37 66  1  0  0  0
 37108  1  0  0  0
 38 43  2  0  0  0
 38 46  1  0  0  0
 38 47  1  0  0  0
 39 64  1  0  0  0
 39 67  2  0  0  0
 40 52  1  0  0  0
 40 53  2  0  0  0
 40 58  1  0  0  0
 41109  1  0  0  0
 41110  1  0  0  0
 41111  1  0  0  0
 41 48  1  0  0  0
 42 43  1  0  0  0
 42 66  1  0  0  0
 42112  1  0  0  0
 42113  1  0  0  0
 43 44  1  0  0  0
 44114  1  0  0  0
 45 46  2  0  0  0
 45115  1  0  0  0
 46116  1  0  0  0
 47117  1  0  0  0
 47118  1  0  0  0
 48 56  1  0  0  0
 48 65  1  0  0  0
 48119  1  0  0  0
 49 50  1  0  0  0
 49 53  1  0  0  0
 49 64  1  0  0  0
 49120  1  0  0  0
 50 51  1  0  0  0
 50121  1  0  0  0
 50122  1  0  0  0
 51 52  1  0  0  0
 51123  1  0  0  0
 51124  1  0  0  0
 52125  1  0  0  0
 52126  1  0  0  0
 53 54  1  0  0  0
 54 55  2  0  0  0
 54127  1  0  0  0
 55 57  1  0  0  0
 55128  1  0  0  0
 56 69  2  0  0  0
 57 58  2  0  0  0
 57129  1  0  0  0
 58130  1  0  0  0
 59 60  1  0  0  0
 59 61  1  0  0  0
 59 62  1  0  0  0
 60131  1  0  0  0
 60132  1  0  0  0
 60133  1  0  0  0
 61134  1  0  0  0
 61135  1  0  0  0
 61136  1  0  0  0
 62137  1  0  0  0
 62138  1  0  0  0
 62139  1  0  0  0
 63 65  1  0  0  0
 63140  1  0  0  0
 63141  1  0  0  0
 63142  1  0  0  0
 64143  1  0  0  0
 65144  1  0  0  0
 68 81  1  0  0  0
 71 72  2  0  0  0
 71 74  1  0  0  0
 71145  1  0  0  0
 72 73  1  0  0  0
 72 82  1  0  0  0
 73 75  2  0  0  0
 73 85  1  0  0  0
 74 76  1  0  0  0
 74 83  2  0  0  0
 75 83  1  0  0  0
 75 84  1  0  0  0
 76146  1  0  0  0
 76147  1  0  0  0
 76148  1  0  0  0
 77149  1  0  0  0
 77150  1  0  0  0
 77151  1  0  0  0
 77 82  1  0  0  0
 78 79  1  0  0  0
 78 80  1  0  0  0
 78152  1  0  0  0
 78153  1  0  0  0
 79 81  1  0  0  0
 79154  1  0  0  0
 79155  1  0  0  0
 80 82  1  0  0  0
 80156  1  0  0  0
 80157  1  0  0  0
 81158  1  0  0  0
 81159  1  0  0  0
 82160  1  0  0  0
 84161  1  0  0  0
M  ISO  4   1 100  68 101  81 101  84 100
M  END
> <chiral flag>
0

> <version>
0

> <s_m_source_file>
/data/baiqing/PycharmProjects/Reinvent-master-3.2/result/LINK_invent/BTK/process_docking_weight1_custom_sum_contain_oxygen_bond_distance_aromatic_linkinvent_7_9_3/rearranged_h_0024.sdf

> <i_m_source_file_index>
86

> <r_mmod_Potential_Energy-OPLS-2005>
-110.084228515625

> <r_mmod_Stretch_Energy-OPLS-2005>
42.5107688903809

> <r_mmod_Bend_Energy-OPLS-2005>
120.222175598145

> <r_mmod_Torsional_Energy-OPLS-2005>
218.174087524414

> <r_mmod_Improper_Torsional_Energy-OPLS-2005>
4.88456106185913

> <r_mmod_Van_der_Waal_Energy-OPLS-2005>
184.322601318359

> <r_mmod_Electrostatic_Energy-OPLS-2005>
-487.380035400391

> <r_mmod_Solvation_Energy-OPLS-2005>
-211.014190673828

> <b_mmod_Minimization_Converged-OPLS-2005>
0

> <r_mmod_RMS_Derivative-OPLS-2005>
3.3174307346344

$$$$
86
                    3D
 Structure written by MMmdl.
162170  0  0  1  0            999 V2000
  -30.6883  -14.5056   20.4831 C   0  0  0  0  0  0
  -30.4177  -12.2899   19.4445 C   0  0  0  0  0  0
  -29.4904  -12.4177   18.2156 C   0  0  0  0  0  0
  -28.0083  -12.3195   18.6279 C   0  0  0  0  0  0
  -27.6503  -13.2020   19.8534 C   0  0  2  0  0  0
  -28.6929  -13.0538   20.9831 C   0  0  0  0  0  0
  -25.2568  -13.8166   20.5669 C   0  0  0  0  0  0
  -24.1819  -13.0456   20.9181 C   0  0  0  0  0  0
  -24.6362  -11.6916   20.8756 C   0  0  0  0  0  0
  -23.9041  -10.4300   21.0415 C   0  0  0  0  0  0
  -24.3602   -9.4211   21.9189 C   0  0  0  0  0  0
  -23.6287   -8.2242   22.0755 C   0  0  0  0  0  0
  -22.4270   -8.0282   21.3542 C   0  0  0  0  0  0
  -21.9895   -9.0254   20.4643 C   0  0  0  0  0  0
  -22.7219  -10.2137   20.3060 C   0  0  0  0  0  0
  -21.6846   -6.0737   22.5282 C   0  0  0  0  0  0
  -21.4017   -6.5645   23.8215 C   0  0  0  0  0  0
  -21.3654   -5.6800   24.9178 C   0  0  0  0  0  0
  -21.6035   -4.3062   24.7226 C   0  0  0  0  0  0
  -21.8819   -3.8151   23.4349 C   0  0  0  0  0  0
  -21.9188   -4.6964   22.3403 C   0  0  0  0  0  0
  -22.7841  -13.5261   21.1844 C   0  0  0  0  0  0
  -22.1655   -4.2147   21.0984 F   0  0  0  0  0  0
  -21.5614   -3.4550   25.7735 F   0  0  0  0  0  0
  -30.0199  -13.3225   20.4118 N   0  0  0  0  0  0
  -26.2968  -12.9316   20.3296 N   0  0  0  0  0  0
  -25.9277  -11.6486   20.5788 N   0  0  0  0  0  0
  -22.0479  -12.8267   22.0400 N   0  0  0  0  0  0
  -25.4351  -15.1884   20.4106 N   0  0  0  0  0  0
  -31.8867  -14.6092   20.2014 O   0  0  0  0  0  0
  -21.6630   -6.8882   21.4247 O   0  0  0  0  0  0
  -22.3533  -14.5569   20.6688 O   0  0  0  0  0  0
  -24.6131  -31.8696   23.2089 C   0  0  0  0  0  0
  -25.9024  -32.4825   23.8388 C   0  0  1  0  0  0
  -27.2294  -27.4271   20.1105 C   0  0  0  0  0  0
  -25.5893  -33.8620   24.2340 N   0  0  0  0  0  0
  -23.3986  -30.4933   21.5501 C   0  0  2  0  0  0
  -24.8424  -28.9548   20.1199 C   0  0  0  0  0  0
  -22.7387  -29.4675   22.4994 C   0  0  0  0  0  0
  -18.0279  -28.1376   22.8503 C   0  0  0  0  0  0
  -24.1497  -36.7309   23.2644 C   0  0  0  0  0  0
  -25.9255  -30.8366   21.3564 C   0  0  0  0  0  0
  -26.0014  -29.4672   20.7122 C   0  0  0  0  0  0
  -27.1953  -28.7119   20.7005 C   0  0  0  0  0  0
  -26.0471  -26.9271   19.5149 C   0  0  0  0  0  0
  -24.8604  -27.6854   19.5184 C   0  0  0  0  0  0
  -23.6057  -29.8233   20.1658 C   0  0  0  0  0  0
  -25.4114  -36.3111   24.0351 C   0  0  1  0  0  0
  -20.5860  -28.3662   23.1330 C   0  0  2  0  0  0
  -20.6770  -26.9401   22.5423 C   0  0  0  0  0  0
  -19.5750  -26.6392   21.5215 C   0  0  0  0  0  0
  -18.1925  -26.7926   22.1632 C   0  0  0  0  0  0
  -19.1524  -28.8835   23.2918 C   0  0  0  0  0  0
  -18.9451  -30.1442   23.8926 C   0  0  0  0  0  0
  -17.6451  -30.6582   24.0572 C   0  0  0  0  0  0
  -25.9039  -34.9475   23.5143 C   0  0  0  0  0  0
  -16.5345  -29.9085   23.6321 C   0  0  0  0  0  0
  -16.7269  -28.6501   23.0349 C   0  0  0  0  0  0
  -26.4464  -31.6581   25.0696 C   0  0  0  0  0  0
  -25.3754  -31.3647   26.1453 C   0  0  0  0  0  0
  -27.0274  -30.3037   24.5998 C   0  0  0  0  0  0
  -27.6070  -32.4281   25.7437 C   0  0  0  0  0  0
  -27.5592  -37.1794   24.8472 C   0  0  0  0  0  0
  -21.4111  -29.3031   22.3728 N   0  0  0  0  0  0
  -26.4310  -37.3787   23.9415 N   0  0  0  0  0  0
  -24.6642  -31.0810   22.0979 N   0  0  0  0  0  0
  -23.4161  -28.8211   23.3028 O   0  0  0  0  0  0
  -28.4314  -26.7452   20.1209 O   0  0  0  0  0  0
  -26.5594  -34.8933   22.4701 O   0  0  0  0  0  0
  -23.5326  -32.1438   23.7495 O   0  0  0  0  0  0
  -29.7549  -16.4040   22.7657 C   0  0  0  0  0  0
  -29.3886  -17.6038   23.3153 C   0  0  0  0  0  0
  -29.6446  -16.5667   21.3536 C   0  0  0  0  0  0
  -29.3019  -18.0245   24.7462 C   0  0  0  0  0  0
  -29.8075  -16.1095   18.9514 C   0  0  0  0  0  0
  -29.1795  -22.3484   22.4903 C   0  0  0  0  0  0
  -28.8551  -23.0576   21.1529 C   0  0  0  0  0  0
  -29.6905  -20.8870   22.3621 C   0  0  0  0  0  0
  -28.4873  -24.5593   21.2995 C   0  0  0  0  0  0
  -28.5768  -19.8226   22.2502 C   0  0  0  0  0  0
  -28.4926  -25.3197   19.9514 C   0  0  0  0  0  0
  -29.2273  -17.8024   21.0631 N   0  0  0  0  0  0
  -29.0730  -18.4409   22.2497 N   0  0  0  0  0  0
  -29.8940  -15.5941   20.3287 N   0  0  0  0  0  0
  -30.2259  -14.9987   23.6569 Cl  0  0  0  0  0  0
  -31.4627  -12.3804   19.1416 H   0  0  0  0  0  0
  -30.3188  -11.3012   19.8972 H   0  0  0  0  0  0
  -29.7206  -11.6268   17.4997 H   0  0  0  0  0  0
  -29.6686  -13.3499   17.6863 H   0  0  0  0  0  0
  -27.8107  -11.2733   18.8628 H   0  0  0  0  0  0
  -27.3617  -12.5653   17.7852 H   0  0  0  0  0  0
  -27.6700  -14.2336   19.5045 H   0  0  0  0  0  0
  -28.6646  -12.0486   21.4060 H   0  0  0  0  0  0
  -28.4649  -13.7380   21.8003 H   0  0  0  0  0  0
  -25.2741   -9.5682   22.4773 H   0  0  0  0  0  0
  -23.9979   -7.4629   22.7476 H   0  0  0  0  0  0
  -21.0812   -8.8779   19.8963 H   0  0  0  0  0  0
  -22.3666  -10.9680   19.6182 H   0  0  0  0  0  0
  -21.2031   -7.6157   23.9727 H   0  0  0  0  0  0
  -21.1466   -6.0527   25.9081 H   0  0  0  0  0  0
  -22.0600   -2.7610   23.2853 H   0  0  0  0  0  0
  -22.4082  -11.9923   22.4790 H   0  0  0  0  0  0
  -21.1112  -13.1316   22.2620 H   0  0  0  0  0  0
  -24.6791  -15.8537   20.5293 H   0  0  0  0  0  0
  -26.2985  -15.6228   20.1095 H   0  0  0  0  0  0
  -26.7089  -32.5541   23.1147 H   0  0  0  0  0  0
  -25.0051  -33.9782   25.0491 H   0  0  0  0  0  0
  -22.6866  -31.3093   21.4091 H   0  0  0  0  0  0
  -23.3760  -35.9642   23.3316 H   0  0  0  0  0  0
  -24.3601  -36.8905   22.2061 H   0  0  0  0  0  0
  -23.7251  -37.6524   23.6634 H   0  0  0  0  0  0
  -26.8186  -30.9001   21.9661 H   0  0  0  0  0  0
  -26.0262  -31.5951   20.5790 H   0  0  0  0  0  0
  -28.0933  -29.1063   21.1558 H   0  0  0  0  0  0
  -26.0083  -25.9652   19.0298 H   0  0  0  0  0  0
  -23.9675  -27.2847   19.0580 H   0  0  0  0  0  0
  -23.7147  -30.5948   19.4030 H   0  0  0  0  0  0
  -22.7280  -29.2437   19.8736 H   0  0  0  0  0  0
  -25.1295  -36.1982   25.0847 H   0  0  0  0  0  0
  -20.9971  -28.3229   24.1445 H   0  0  0  0  0  0
  -20.5670  -26.2267   23.3607 H   0  0  0  0  0  0
  -21.6641  -26.7449   22.1213 H   0  0  0  0  0  0
  -19.6909  -25.6304   21.1237 H   0  0  0  0  0  0
  -19.6692  -27.3212   20.6751 H   0  0  0  0  0  0
  -17.4194  -26.6685   21.4037 H   0  0  0  0  0  0
  -18.0331  -26.0064   22.9027 H   0  0  0  0  0  0
  -19.7926  -30.7255   24.2308 H   0  0  0  0  0  0
  -17.5008  -31.6271   24.5161 H   0  0  0  0  0  0
  -15.5346  -30.3000   23.7625 H   0  0  0  0  0  0
  -15.8673  -28.0832   22.7046 H   0  0  0  0  0  0
  -24.5938  -30.6987   25.7781 H   0  0  0  0  0  0
  -24.8938  -32.2792   26.4935 H   0  0  0  0  0  0
  -25.8145  -30.8783   27.0177 H   0  0  0  0  0  0
  -26.2781  -29.6814   24.1088 H   0  0  0  0  0  0
  -27.8586  -30.4382   23.9075 H   0  0  0  0  0  0
  -27.4113  -29.7241   25.4396 H   0  0  0  0  0  0
  -27.2719  -33.3588   26.2042 H   0  0  0  0  0  0
  -28.3859  -32.6821   25.0242 H   0  0  0  0  0  0
  -28.0743  -31.8380   26.5327 H   0  0  0  0  0  0
  -28.2618  -38.0081   24.7516 H   0  0  0  0  0  0
  -28.1083  -36.2620   24.6301 H   0  0  0  0  0  0
  -27.2317  -37.1464   25.8877 H   0  0  0  0  0  0
  -20.9248  -29.8759   21.6968 H   0  0  0  0  0  0
  -26.0208  -38.2869   24.1411 H   0  0  0  0  0  0
  -28.4500  -18.6778   24.9246 H   0  0  0  0  0  0
  -29.1896  -17.1581   25.3973 H   0  0  0  0  0  0
  -30.2056  -18.5529   25.0458 H   0  0  0  0  0  0
  -28.7862  -16.4112   18.7236 H   0  0  0  0  0  0
  -30.1081  -15.3884   18.1927 H   0  0  0  0  0  0
  -30.4556  -16.9777   18.8248 H   0  0  0  0  0  0
  -28.3184  -22.3826   23.1604 H   0  0  0  0  0  0
  -29.9565  -22.9303   22.9884 H   0  0  0  0  0  0
  -28.0514  -22.5325   20.6340 H   0  0  0  0  0  0
  -29.7322  -22.9780   20.5099 H   0  0  0  0  0  0
  -30.2863  -20.6587   23.2478 H   0  0  0  0  0  0
  -30.3752  -20.7998   21.5172 H   0  0  0  0  0  0
  -29.2088  -25.0393   21.9625 H   0  0  0  0  0  0
  -27.5144  -24.6650   21.7823 H   0  0  0  0  0  0
  -27.9990  -19.9905   21.3396 H   0  0  0  0  0  0
  -27.8748  -19.9352   23.0762 H   0  0  0  0  0  0
  -27.7511  -24.9074   19.2713 H   0  0  0  0  0  0
  -29.4484  -25.1284   19.4635 H   0  0  0  0  0  0
  1 25  1  0  0  0
  1 30  2  0  0  0
  1 84  1  0  0  0
  2  3  1  0  0  0
  2 25  1  0  0  0
  2 86  1  0  0  0
  2 87  1  0  0  0
  3  4  1  0  0  0
  3 88  1  0  0  0
  3 89  1  0  0  0
  4  5  1  0  0  0
  4 90  1  0  0  0
  4 91  1  0  0  0
  5  6  1  0  0  0
  5 26  1  0  0  0
  5 92  1  0  0  0
  6 25  1  0  0  0
  6 93  1  0  0  0
  6 94  1  0  0  0
  7  8  2  0  0  0
  7 26  1  0  0  0
  7 29  1  0  0  0
  8  9  1  0  0  0
  8 22  1  0  0  0
  9 10  1  0  0  0
  9 27  2  0  0  0
 10 11  2  0  0  0
 10 15  1  0  0  0
 11 12  1  0  0  0
 11 95  1  0  0  0
 12 13  2  0  0  0
 12 96  1  0  0  0
 13 14  1  0  0  0
 13 31  1  0  0  0
 14 15  2  0  0  0
 14 97  1  0  0  0
 15 98  1  0  0  0
 16 17  2  0  0  0
 16 21  1  0  0  0
 16 31  1  0  0  0
 17 18  1  0  0  0
 17 99  1  0  0  0
 18 19  2  0  0  0
 18100  1  0  0  0
 19 20  1  0  0  0
 19 24  1  0  0  0
 20 21  2  0  0  0
 20101  1  0  0  0
 21 23  1  0  0  0
 22 28  1  0  0  0
 22 32  2  0  0  0
 26 27  1  0  0  0
 28102  1  0  0  0
 28103  1  0  0  0
 29104  1  0  0  0
 29105  1  0  0  0
 33 34  1  0  0  0
 33 66  1  0  0  0
 33 70  2  0  0  0
 34 36  1  0  0  0
 34 59  1  0  0  0
 34106  1  0  0  0
 35 44  2  0  0  0
 35 45  1  0  0  0
 35 68  1  0  0  0
 36 56  1  0  0  0
 36107  1  0  0  0
 37 39  1  0  0  0
 37 47  1  0  0  0
 37 66  1  0  0  0
 37108  1  0  0  0
 38 43  2  0  0  0
 38 46  1  0  0  0
 38 47  1  0  0  0
 39 64  1  0  0  0
 39 67  2  0  0  0
 40 52  1  0  0  0
 40 53  2  0  0  0
 40 58  1  0  0  0
 41109  1  0  0  0
 41110  1  0  0  0
 41111  1  0  0  0
 41 48  1  0  0  0
 42 43  1  0  0  0
 42 66  1  0  0  0
 42112  1  0  0  0
 42113  1  0  0  0
 43 44  1  0  0  0
 44114  1  0  0  0
 45 46  2  0  0  0
 45115  1  0  0  0
 46116  1  0  0  0
 47117  1  0  0  0
 47118  1  0  0  0
 48 56  1  0  0  0
 48 65  1  0  0  0
 48119  1  0  0  0
 49 50  1  0  0  0
 49 53  1  0  0  0
 49 64  1  0  0  0
 49120  1  0  0  0
 50 51  1  0  0  0
 50121  1  0  0  0
 50122  1  0  0  0
 51 52  1  0  0  0
 51123  1  0  0  0
 51124  1  0  0  0
 52125  1  0  0  0
 52126  1  0  0  0
 53 54  1  0  0  0
 54 55  2  0  0  0
 54127  1  0  0  0
 55 57  1  0  0  0
 55128  1  0  0  0
 56 69  2  0  0  0
 57 58  2  0  0  0
 57129  1  0  0  0
 58130  1  0  0  0
 59 60  1  0  0  0
 59 61  1  0  0  0
 59 62  1  0  0  0
 60131  1  0  0  0
 60132  1  0  0  0
 60133  1  0  0  0
 61134  1  0  0  0
 61135  1  0  0  0
 61136  1  0  0  0
 62137  1  0  0  0
 62138  1  0  0  0
 62139  1  0  0  0
 63 65  1  0  0  0
 63140  1  0  0  0
 63141  1  0  0  0
 63142  1  0  0  0
 64143  1  0  0  0
 65144  1  0  0  0
 68 81  1  0  0  0
 71 72  2  0  0  0
 71 73  1  0  0  0
 71 85  1  0  0  0
 72 74  1  0  0  0
 72 83  1  0  0  0
 73 82  2  0  0  0
 73 84  1  0  0  0
 74145  1  0  0  0
 74146  1  0  0  0
 74147  1  0  0  0
 75 84  1  0  0  0
 75148  1  0  0  0
 75149  1  0  0  0
 75150  1  0  0  0
 76 77  1  0  0  0
 76 78  1  0  0  0
 76151  1  0  0  0
 76152  1  0  0  0
 77 79  1  0  0  0
 77153  1  0  0  0
 77154  1  0  0  0
 78 80  1  0  0  0
 78155  1  0  0  0
 78156  1  0  0  0
 79 81  1  0  0  0
 79157  1  0  0  0
 79158  1  0  0  0
 80 83  1  0  0  0
 80159  1  0  0  0
 80160  1  0  0  0
 81161  1  0  0  0
 81162  1  0  0  0
 82 83  1  0  0  0
M  ISO  4   1 100  68 101  81 101  84 100
M  END
> <chiral flag>
0

> <version>
0

> <s_m_source_file>
/data/baiqing/PycharmProjects/Reinvent-master-3.2/result/LINK_invent/BTK/process_docking_weight1_custom_sum_contain_oxygen_bond_distance_aromatic_linkinvent_7_9_3/rearranged_h_0024.sdf

> <i_m_source_file_index>
87

> <r_mmod_Potential_Energy-OPLS-2005>
109.275825500488

> <r_mmod_Stretch_Energy-OPLS-2005>
37.7655410766602

> <r_mmod_Bend_Energy-OPLS-2005>
126.832641601562

> <r_mmod_Torsional_Energy-OPLS-2005>
281.547546386719

> <r_mmod_Improper_Torsional_Energy-OPLS-2005>
19.5320587158203

> <r_mmod_Van_der_Waal_Energy-OPLS-2005>
125.691833496094

> <r_mmod_Electrostatic_Energy-OPLS-2005>
-320.072479248047

> <r_mmod_Solvation_Energy-OPLS-2005>
-185.268737792969

> <b_mmod_Minimization_Converged-OPLS-2005>
0

> <r_mmod_RMS_Derivative-OPLS-2005>
2.05732369422913

$$$$
87
                    3D
 Structure written by MMmdl.
162170  0  0  1  0            999 V2000
  -30.7410  -14.5231   20.5348 C   0  0  0  0  0  0
  -30.4095  -12.3311   19.4279 C   0  0  0  0  0  0
  -29.4863  -12.4917   18.2047 C   0  0  0  0  0  0
  -28.0069  -12.3681   18.6187 C   0  0  0  0  0  0
  -27.6551  -13.2249   19.8610 C   0  0  2  0  0  0
  -28.7085  -13.0678   20.9839 C   0  0  0  0  0  0
  -25.2544  -13.8187   20.5607 C   0  0  0  0  0  0
  -24.1847  -13.0423   20.9154 C   0  0  0  0  0  0
  -24.6418  -11.6897   20.8762 C   0  0  0  0  0  0
  -23.9062  -10.4279   21.0452 C   0  0  0  0  0  0
  -24.3599   -9.4192   21.9234 C   0  0  0  0  0  0
  -23.6278   -8.2221   22.0761 C   0  0  0  0  0  0
  -22.4268   -8.0261   21.3523 C   0  0  0  0  0  0
  -21.9903   -9.0264   20.4634 C   0  0  0  0  0  0
  -22.7239  -10.2137   20.3090 C   0  0  0  0  0  0
  -21.6837   -6.0732   22.5303 C   0  0  0  0  0  0
  -21.4023   -6.5641   23.8235 C   0  0  0  0  0  0
  -21.3688   -5.6804   24.9201 C   0  0  0  0  0  0
  -21.6047   -4.3062   24.7234 C   0  0  0  0  0  0
  -21.8821   -3.8138   23.4365 C   0  0  0  0  0  0
  -21.9190   -4.6946   22.3404 C   0  0  0  0  0  0
  -22.7865  -13.5209   21.1819 C   0  0  0  0  0  0
  -22.1639   -4.2128   21.0987 F   0  0  0  0  0  0
  -21.5640   -3.4560   25.7752 F   0  0  0  0  0  0
  -30.0310  -13.3635   20.4112 N   0  0  0  0  0  0
  -26.3022  -12.9400   20.3357 N   0  0  0  0  0  0
  -25.9361  -11.6538   20.5816 N   0  0  0  0  0  0
  -22.0503  -12.8248   22.0392 N   0  0  0  0  0  0
  -25.4149  -15.1900   20.3872 N   0  0  0  0  0  0
  -31.8723  -14.6422   20.0589 O   0  0  0  0  0  0
  -21.6591   -6.8878   21.4250 O   0  0  0  0  0  0
  -22.3555  -14.5508   20.6658 O   0  0  0  0  0  0
  -24.6141  -31.8702   23.2098 C   0  0  0  0  0  0
  -25.9033  -32.4835   23.8397 C   0  0  1  0  0  0
  -27.2360  -27.4712   20.0864 C   0  0  0  0  0  0
  -25.5876  -33.8644   24.2325 N   0  0  0  0  0  0
  -23.4005  -30.4947   21.5481 C   0  0  2  0  0  0
  -24.8504  -28.9678   20.1032 C   0  0  0  0  0  0
  -22.7413  -29.4669   22.4964 C   0  0  0  0  0  0
  -18.0279  -28.1384   22.8514 C   0  0  0  0  0  0
  -24.1476  -36.7328   23.2637 C   0  0  0  0  0  0
  -25.9251  -30.8531   21.3493 C   0  0  0  0  0  0
  -26.0085  -29.4915   20.6933 C   0  0  0  0  0  0
  -27.2111  -28.7537   20.6759 C   0  0  0  0  0  0
  -26.0662  -26.9533   19.4889 C   0  0  0  0  0  0
  -24.8742  -27.7012   19.4928 C   0  0  0  0  0  0
  -23.6065  -29.8257   20.1625 C   0  0  0  0  0  0
  -25.4099  -36.3130   24.0343 C   0  0  1  0  0  0
  -20.5863  -28.3655   23.1316 C   0  0  2  0  0  0
  -20.6740  -26.9381   22.5412 C   0  0  0  0  0  0
  -19.5722  -26.6387   21.5208 C   0  0  0  0  0  0
  -18.1911  -26.7938   22.1629 C   0  0  0  0  0  0
  -19.1530  -28.8837   23.2917 C   0  0  0  0  0  0
  -18.9459  -30.1449   23.8922 C   0  0  0  0  0  0
  -17.6456  -30.6585   24.0576 C   0  0  0  0  0  0
  -25.9029  -34.9493   23.5139 C   0  0  0  0  0  0
  -16.5345  -29.9095   23.6327 C   0  0  0  0  0  0
  -16.7266  -28.6506   23.0358 C   0  0  0  0  0  0
  -26.4454  -31.6621   25.0717 C   0  0  0  0  0  0
  -25.3732  -31.3739   26.1477 C   0  0  0  0  0  0
  -27.0238  -30.3065   24.6050 C   0  0  0  0  0  0
  -27.6040  -32.4328   25.7469 C   0  0  0  0  0  0
  -27.5589  -37.1810   24.8472 C   0  0  0  0  0  0
  -21.4143  -29.3033   22.3720 N   0  0  0  0  0  0
  -26.4291  -37.3810   23.9421 N   0  0  0  0  0  0
  -24.6656  -31.0846   22.0955 N   0  0  0  0  0  0
  -23.4194  -28.8215   23.2998 O   0  0  0  0  0  0
  -28.3532  -26.6802   20.1716 O   0  0  0  0  0  0
  -26.5588  -34.8945   22.4696 O   0  0  0  0  0  0
  -23.5341  -32.1408   23.7509 O   0  0  0  0  0  0
  -28.6981  -18.3557   21.3384 C   0  0  0  0  0  0
  -30.0510  -18.1828   20.9840 C   0  0  0  0  0  0
  -28.6525  -20.6565   20.4455 C   0  0  0  0  0  0
  -28.0067  -19.5626   21.0800 C   0  0  0  0  0  0
  -30.6983  -19.2621   20.3161 C   0  0  0  0  0  0
  -29.9926  -20.4637   20.0138 C   0  0  0  0  0  0
  -30.2215  -24.2222   21.2305 C   0  0  0  0  0  0
  -26.6120  -23.3115   21.7694 C   0  0  0  0  0  0
  -30.7830  -16.8883   21.4202 C   0  0  0  0  0  0
  -27.8916  -21.9752   20.1435 C   0  0  0  0  0  0
  -28.2165  -25.7026   21.2186 C   0  0  0  0  0  0
  -28.7478  -24.2992   20.7741 C   0  0  2  0  0  0
  -30.1312  -15.5888   21.1064 N   0  0  0  0  0  0
  -27.9664  -23.0591   21.1943 N   0  3  1  0  0  0
  -26.3445  -19.6426   21.5422 Cl  0  0  0  0  0  0
  -32.3673  -19.1454   19.8642 Cl  0  0  0  0  0  0
  -30.7765  -21.6799   19.0591 Cl  0  0  0  0  0  0
  -31.4554  -12.3982   19.1220 H   0  0  0  0  0  0
  -30.2999  -11.3385   19.8681 H   0  0  0  0  0  0
  -29.7208  -11.7383   17.4502 H   0  0  0  0  0  0
  -29.6609  -13.4650   17.7431 H   0  0  0  0  0  0
  -27.7989  -11.3178   18.8203 H   0  0  0  0  0  0
  -27.3586  -12.6445   17.7877 H   0  0  0  0  0  0
  -27.6806  -14.2645   19.5320 H   0  0  0  0  0  0
  -28.6963  -12.0547   21.3897 H   0  0  0  0  0  0
  -28.4821  -13.7293   21.8198 H   0  0  0  0  0  0
  -25.2761   -9.5658   22.4786 H   0  0  0  0  0  0
  -24.0003   -7.4609   22.7478 H   0  0  0  0  0  0
  -21.0838   -8.8796   19.8935 H   0  0  0  0  0  0
  -22.3747  -10.9673   19.6171 H   0  0  0  0  0  0
  -21.2019   -7.6152   23.9738 H   0  0  0  0  0  0
  -21.1506   -6.0514   25.9098 H   0  0  0  0  0  0
  -22.0563   -2.7579   23.2875 H   0  0  0  0  0  0
  -22.4109  -11.9925   22.4827 H   0  0  0  0  0  0
  -21.1130  -13.1315   22.2604 H   0  0  0  0  0  0
  -24.6103  -15.8074   20.3781 H   0  0  0  0  0  0
  -26.2412  -15.6125   19.9842 H   0  0  0  0  0  0
  -26.7107  -32.5566   23.1178 H   0  0  0  0  0  0
  -25.0016  -33.9800   25.0463 H   0  0  0  0  0  0
  -22.6880  -31.3112   21.4107 H   0  0  0  0  0  0
  -23.3735  -35.9663   23.3315 H   0  0  0  0  0  0
  -24.3575  -36.8928   22.2048 H   0  0  0  0  0  0
  -23.7225  -37.6542   23.6634 H   0  0  0  0  0  0
  -26.0218  -31.6210   20.5800 H   0  0  0  0  0  0
  -26.8186  -30.9153   21.9587 H   0  0  0  0  0  0
  -28.1069  -29.1543   21.1303 H   0  0  0  0  0  0
  -26.0733  -25.9670   19.0451 H   0  0  0  0  0  0
  -23.9843  -27.2941   19.0305 H   0  0  0  0  0  0
  -23.7025  -30.5990   19.4013 H   0  0  0  0  0  0
  -22.7329  -29.2407   19.8707 H   0  0  0  0  0  0
  -25.1267  -36.1994   25.0834 H   0  0  0  0  0  0
  -20.9985  -28.3215   24.1430 H   0  0  0  0  0  0
  -20.5622  -26.2271   23.3608 H   0  0  0  0  0  0
  -21.6620  -26.7408   22.1221 H   0  0  0  0  0  0
  -19.6866  -25.6308   21.1230 H   0  0  0  0  0  0
  -19.6662  -27.3211   20.6750 H   0  0  0  0  0  0
  -17.4175  -26.6718   21.4025 H   0  0  0  0  0  0
  -18.0295  -26.0066   22.9014 H   0  0  0  0  0  0
  -19.7940  -30.7264   24.2296 H   0  0  0  0  0  0
  -17.5018  -31.6269   24.5181 H   0  0  0  0  0  0
  -15.5353  -30.3001   23.7647 H   0  0  0  0  0  0
  -15.8664  -28.0829   22.7056 H   0  0  0  0  0  0
  -24.5890  -30.7091   25.7836 H   0  0  0  0  0  0
  -24.8934  -32.2904   26.4934 H   0  0  0  0  0  0
  -25.8103  -30.8914   27.0234 H   0  0  0  0  0  0
  -26.2740  -29.6867   24.1119 H   0  0  0  0  0  0
  -27.4023  -29.7262   25.4479 H   0  0  0  0  0  0
  -27.8580  -30.4379   23.9151 H   0  0  0  0  0  0
  -27.2667  -33.3626   26.2067 H   0  0  0  0  0  0
  -28.3840  -32.6907   25.0290 H   0  0  0  0  0  0
  -28.0717  -31.8444   26.5374 H   0  0  0  0  0  0
  -28.2609  -38.0096   24.7516 H   0  0  0  0  0  0
  -28.1067  -36.2645   24.6281 H   0  0  0  0  0  0
  -27.2321  -37.1451   25.8871 H   0  0  0  0  0  0
  -20.9289  -29.8764   21.6962 H   0  0  0  0  0  0
  -26.0190  -38.2890   24.1425 H   0  0  0  0  0  0
  -28.1801  -17.5593   21.8481 H   0  0  0  0  0  0
  -30.8305  -24.9146   20.6474 H   0  0  0  0  0  0
  -30.6648  -23.2375   21.1330 H   0  0  0  0  0  0
  -30.3339  -24.5041   22.2779 H   0  0  0  0  0  0
  -26.1236  -22.3876   22.0812 H   0  0  0  0  0  0
  -25.9584  -23.7966   21.0406 H   0  0  0  0  0  0
  -26.6511  -23.9289   22.6667 H   0  0  0  0  0  0
  -30.8527  -16.9323   22.5085 H   0  0  0  0  0  0
  -31.8246  -16.9027   21.0969 H   0  0  0  0  0  0
  -26.8444  -21.7246   19.9552 H   0  0  0  0  0  0
  -28.2029  -22.3550   19.1731 H   0  0  0  0  0  0
  -28.7765  -26.0781   22.0780 H   0  0  0  0  0  0
  -27.1913  -25.6909   21.5796 H   0  0  0  0  0  0
  -28.7371  -24.3341   19.6848 H   0  0  0  0  0  0
  -29.1809  -15.4598   21.4177 H   0  0  0  0  0  0
  -28.4807  -22.6569   21.9642 H   0  0  0  0  0  0
  1 25  1  0  0  0
  1 30  2  0  0  0
  1 83  1  0  0  0
  2  3  1  0  0  0
  2 25  1  0  0  0
  2 88  1  0  0  0
  2 89  1  0  0  0
  3  4  1  0  0  0
  3 90  1  0  0  0
  3 91  1  0  0  0
  4  5  1  0  0  0
  4 92  1  0  0  0
  4 93  1  0  0  0
  5  6  1  0  0  0
  5 26  1  0  0  0
  5 94  1  0  0  0
  6 25  1  0  0  0
  6 95  1  0  0  0
  6 96  1  0  0  0
  7  8  2  0  0  0
  7 26  1  0  0  0
  7 29  1  0  0  0
  8  9  1  0  0  0
  8 22  1  0  0  0
  9 10  1  0  0  0
  9 27  2  0  0  0
 10 11  2  0  0  0
 10 15  1  0  0  0
 11 12  1  0  0  0
 11 97  1  0  0  0
 12 13  2  0  0  0
 12 98  1  0  0  0
 13 14  1  0  0  0
 13 31  1  0  0  0
 14 15  2  0  0  0
 14 99  1  0  0  0
 15100  1  0  0  0
 16 17  2  0  0  0
 16 21  1  0  0  0
 16 31  1  0  0  0
 17 18  1  0  0  0
 17101  1  0  0  0
 18 19  2  0  0  0
 18102  1  0  0  0
 19 20  1  0  0  0
 19 24  1  0  0  0
 20 21  2  0  0  0
 20103  1  0  0  0
 21 23  1  0  0  0
 22 28  1  0  0  0
 22 32  2  0  0  0
 26 27  1  0  0  0
 28104  1  0  0  0
 28105  1  0  0  0
 29106  1  0  0  0
 29107  1  0  0  0
 33 34  1  0  0  0
 33 66  1  0  0  0
 33 70  2  0  0  0
 34 36  1  0  0  0
 34 59  1  0  0  0
 34108  1  0  0  0
 35 44  2  0  0  0
 35 45  1  0  0  0
 35 68  1  0  0  0
 36 56  1  0  0  0
 36109  1  0  0  0
 37 39  1  0  0  0
 37 47  1  0  0  0
 37 66  1  0  0  0
 37110  1  0  0  0
 38 43  2  0  0  0
 38 46  1  0  0  0
 38 47  1  0  0  0
 39 64  1  0  0  0
 39 67  2  0  0  0
 40 52  1  0  0  0
 40 53  2  0  0  0
 40 58  1  0  0  0
 41111  1  0  0  0
 41112  1  0  0  0
 41113  1  0  0  0
 41 48  1  0  0  0
 42 43  1  0  0  0
 42 66  1  0  0  0
 42114  1  0  0  0
 42115  1  0  0  0
 43 44  1  0  0  0
 44116  1  0  0  0
 45 46  2  0  0  0
 45117  1  0  0  0
 46118  1  0  0  0
 47119  1  0  0  0
 47120  1  0  0  0
 48 56  1  0  0  0
 48 65  1  0  0  0
 48121  1  0  0  0
 49 50  1  0  0  0
 49 53  1  0  0  0
 49 64  1  0  0  0
 49122  1  0  0  0
 50 51  1  0  0  0
 50123  1  0  0  0
 50124  1  0  0  0
 51 52  1  0  0  0
 51125  1  0  0  0
 51126  1  0  0  0
 52127  1  0  0  0
 52128  1  0  0  0
 53 54  1  0  0  0
 54 55  2  0  0  0
 54129  1  0  0  0
 55 57  1  0  0  0
 55130  1  0  0  0
 56 69  2  0  0  0
 57 58  2  0  0  0
 57131  1  0  0  0
 58132  1  0  0  0
 59 60  1  0  0  0
 59 61  1  0  0  0
 59 62  1  0  0  0
 60133  1  0  0  0
 60134  1  0  0  0
 60135  1  0  0  0
 61136  1  0  0  0
 61137  1  0  0  0
 61138  1  0  0  0
 62139  1  0  0  0
 62140  1  0  0  0
 62141  1  0  0  0
 63 65  1  0  0  0
 63142  1  0  0  0
 63143  1  0  0  0
 63144  1  0  0  0
 64145  1  0  0  0
 65146  1  0  0  0
 68 81  1  0  0  0
 71 72  2  0  0  0
 71 74  1  0  0  0
 71147  1  0  0  0
 72 75  1  0  0  0
 72 79  1  0  0  0
 73 74  2  0  0  0
 73 76  1  0  0  0
 73 80  1  0  0  0
 74 85  1  0  0  0
 75 76  2  0  0  0
 75 86  1  0  0  0
 76 87  1  0  0  0
 77148  1  0  0  0
 77149  1  0  0  0
 77150  1  0  0  0
 77 82  1  0  0  0
 78151  1  0  0  0
 78152  1  0  0  0
 78153  1  0  0  0
 78 84  1  0  0  0
 79 83  1  0  0  0
 79154  1  0  0  0
 79155  1  0  0  0
 80 84  1  0  0  0
 80156  1  0  0  0
 80157  1  0  0  0
 81 82  1  0  0  0
 81158  1  0  0  0
 81159  1  0  0  0
 82 84  1  0  0  0
 82160  1  0  0  0
 83161  1  0  0  0
 84162  1  0  0  0
M  CHG  1  84   1
M  ISO  4   1 100  68 101  81 101  83 100
M  END
> <chiral flag>
0

> <version>
0

> <s_m_source_file>
/data/baiqing/PycharmProjects/Reinvent-master-3.2/result/LINK_invent/BTK/process_docking_weight1_custom_sum_contain_oxygen_bond_distance_aromatic_linkinvent_7_9_3/rearranged_h_0024.sdf

> <i_m_source_file_index>
88

> <r_mmod_Potential_Energy-OPLS-2005>
-116.730804443359

> <r_mmod_Stretch_Energy-OPLS-2005>
52.8201141357422

> <r_mmod_Bend_Energy-OPLS-2005>
114.674766540527

> <r_mmod_Torsional_Energy-OPLS-2005>
250.34846496582

> <r_mmod_Improper_Torsional_Energy-OPLS-2005>
3.96160483360291

> <r_mmod_Van_der_Waal_Energy-OPLS-2005>
165.495819091797

> <r_mmod_Electrostatic_Energy-OPLS-2005>
-289.638031005859

> <r_mmod_Solvation_Energy-OPLS-2005>
-434.520629882812

> <b_mmod_Minimization_Converged-OPLS-2005>
0

> <r_mmod_RMS_Derivative-OPLS-2005>
5.51810693740845

$$$$
88
                    3D
 Structure written by MMmdl.
164172  0  0  1  0            999 V2000
  -30.7288  -14.4431   20.5818 C   0  0  0  0  0  0
  -30.4163  -12.2912   19.4174 C   0  0  0  0  0  0
  -29.4884  -12.5075   18.2042 C   0  0  0  0  0  0
  -28.0098  -12.3743   18.6152 C   0  0  0  0  0  0
  -27.6622  -13.2101   19.8779 C   0  0  2  0  0  0
  -28.7042  -12.9815   20.9966 C   0  0  0  0  0  0
  -25.2518  -13.8134   20.5554 C   0  0  0  0  0  0
  -24.1799  -13.0426   20.9146 C   0  0  0  0  0  0
  -24.6385  -11.6896   20.8753 C   0  0  0  0  0  0
  -23.9061  -10.4284   21.0418 C   0  0  0  0  0  0
  -24.3611   -9.4206   21.9198 C   0  0  0  0  0  0
  -23.6289   -8.2240   22.0763 C   0  0  0  0  0  0
  -22.4274   -8.0278   21.3552 C   0  0  0  0  0  0
  -21.9910   -9.0253   20.4653 C   0  0  0  0  0  0
  -22.7235  -10.2132   20.3064 C   0  0  0  0  0  0
  -21.6862   -6.0733   22.5286 C   0  0  0  0  0  0
  -21.4007   -6.5620   23.8218 C   0  0  0  0  0  0
  -21.3659   -5.6784   24.9180 C   0  0  0  0  0  0
  -21.6046   -4.3054   24.7229 C   0  0  0  0  0  0
  -21.8820   -3.8136   23.4353 C   0  0  0  0  0  0
  -21.9191   -4.6957   22.3408 C   0  0  0  0  0  0
  -22.7824  -13.5234   21.1839 C   0  0  0  0  0  0
  -22.1659   -4.2141   21.0986 F   0  0  0  0  0  0
  -21.5644   -3.4543   25.7746 F   0  0  0  0  0  0
  -30.0422  -13.2739   20.4478 N   0  0  0  0  0  0
  -26.3020  -12.9342   20.3393 N   0  0  0  0  0  0
  -25.9330  -11.6502   20.5821 N   0  0  0  0  0  0
  -22.0473  -12.8219   22.0398 N   0  0  0  0  0  0
  -25.4115  -15.1812   20.3726 N   0  0  0  0  0  0
  -31.8448  -14.6064   20.0769 O   0  0  0  0  0  0
  -21.6641   -6.8872   21.4248 O   0  0  0  0  0  0
  -22.3498  -14.5550   20.6719 O   0  0  0  0  0  0
  -24.6121  -31.8660   23.2107 C   0  0  0  0  0  0
  -25.9030  -32.4804   23.8415 C   0  0  1  0  0  0
  -27.2563  -27.4598   20.1023 C   0  0  0  0  0  0
  -25.5906  -33.8601   24.2326 N   0  0  0  0  0  0
  -23.4018  -30.4853   21.5495 C   0  0  2  0  0  0
  -24.8541  -28.9570   20.1119 C   0  0  0  0  0  0
  -22.7430  -29.4587   22.5006 C   0  0  0  0  0  0
  -18.0267  -28.1369   22.8439 C   0  0  0  0  0  0
  -24.1496  -36.7293   23.2640 C   0  0  0  0  0  0
  -25.9248  -30.8445   21.3589 C   0  0  0  0  0  0
  -26.0070  -29.4789   20.7116 C   0  0  0  0  0  0
  -27.2075  -28.7377   20.7087 C   0  0  0  0  0  0
  -26.0898  -26.9541   19.4923 C   0  0  0  0  0  0
  -24.8892  -27.6914   19.4986 C   0  0  0  0  0  0
  -23.6121  -29.8167   20.1627 C   0  0  0  0  0  0
  -25.4104  -36.3071   24.0342 C   0  0  1  0  0  0
  -20.5858  -28.3611   23.1330 C   0  0  2  0  0  0
  -20.6746  -26.9352   22.5408 C   0  0  0  0  0  0
  -19.5751  -26.6357   21.5181 C   0  0  0  0  0  0
  -18.1920  -26.7907   22.1580 C   0  0  0  0  0  0
  -19.1522  -28.8809   23.2890 C   0  0  0  0  0  0
  -18.9457  -30.1418   23.8903 C   0  0  0  0  0  0
  -17.6458  -30.6553   24.0546 C   0  0  0  0  0  0
  -25.9039  -34.9450   23.5124 C   0  0  0  0  0  0
  -16.5339  -29.9061   23.6324 C   0  0  0  0  0  0
  -16.7267  -28.6496   23.0305 C   0  0  0  0  0  0
  -26.4470  -31.6591   25.0732 C   0  0  0  0  0  0
  -25.3743  -31.3744   26.1491 C   0  0  0  0  0  0
  -27.0255  -30.3048   24.6028 C   0  0  0  0  0  0
  -27.6056  -32.4292   25.7500 C   0  0  0  0  0  0
  -27.5585  -37.1779   24.8456 C   0  0  0  0  0  0
  -21.4144  -29.2992   22.3761 N   0  0  0  0  0  0
  -26.4276  -37.3760   23.9427 N   0  0  0  0  0  0
  -24.6640  -31.0797   22.0993 N   0  0  0  0  0  0
  -23.4207  -28.8101   23.3021 O   0  0  0  0  0  0
  -28.3840  -26.6622   20.0669 O   0  0  0  0  0  0
  -26.5569  -34.8890   22.4670 O   0  0  0  0  0  0
  -23.5315  -32.1343   23.7539 O   0  0  0  0  0  0
  -29.1139  -19.0070   21.2999 C   0  0  0  0  0  0
  -30.3026  -19.6195   20.8235 C   0  0  0  0  0  0
  -29.0918  -17.5984   21.4645 C   0  0  0  0  0  0
  -31.4153  -18.7791   20.5680 C   0  0  0  0  0  0
  -30.2304  -16.8314   21.1229 C   0  0  0  0  0  0
  -27.8631  -19.8245   21.6090 C   0  0  0  0  0  0
  -32.7630  -19.3242   20.1191 C   0  0  0  0  0  0
  -30.3803  -21.1324   20.5743 C   0  0  0  0  0  0
  -30.8152  -21.9307   21.8176 C   0  0  0  0  0  0
  -31.1885  -23.3998   21.5238 C   0  0  0  0  0  0
  -30.0159  -24.4084   21.5218 C   0  0  0  0  0  0
  -30.4701  -25.7967   21.0214 C   0  0  0  0  0  0
  -29.4015  -26.9095   21.0345 C   0  0  0  0  0  0
  -31.3708  -17.4377   20.7099 N   0  0  0  0  0  0
  -30.0700  -15.4201   21.2268 N   0  0  0  0  0  0
  -27.6751  -16.8012   22.0644 Cl  0  0  0  0  0  0
  -31.4623  -12.3744   19.1130 H   0  0  0  0  0  0
  -30.3058  -11.2783   19.8109 H   0  0  0  0  0  0
  -29.7233  -11.7876   17.4192 H   0  0  0  0  0  0
  -29.6617  -13.4967   17.7757 H   0  0  0  0  0  0
  -27.8138  -11.3174   18.8038 H   0  0  0  0  0  0
  -27.3615  -12.6618   17.7865 H   0  0  0  0  0  0
  -27.7087  -14.2612   19.5911 H   0  0  0  0  0  0
  -28.6692  -11.9432   21.3327 H   0  0  0  0  0  0
  -28.4650  -13.5796   21.8776 H   0  0  0  0  0  0
  -25.2762   -9.5681   22.4771 H   0  0  0  0  0  0
  -24.0011   -7.4620   22.7473 H   0  0  0  0  0  0
  -21.0859   -8.8768   19.8936 H   0  0  0  0  0  0
  -22.3718  -10.9668   19.6160 H   0  0  0  0  0  0
  -21.1984   -7.6131   23.9717 H   0  0  0  0  0  0
  -21.1485   -6.0514   25.9083 H   0  0  0  0  0  0
  -22.0596   -2.7601   23.2868 H   0  0  0  0  0  0
  -22.4101  -11.9873   22.4750 H   0  0  0  0  0  0
  -21.1088  -13.1221   22.2623 H   0  0  0  0  0  0
  -24.6467  -15.8362   20.4920 H   0  0  0  0  0  0
  -26.2838  -15.6311   20.1248 H   0  0  0  0  0  0
  -26.7124  -32.5534   23.1217 H   0  0  0  0  0  0
  -25.0131  -33.9796   25.0526 H   0  0  0  0  0  0
  -22.6868  -31.2985   21.4108 H   0  0  0  0  0  0
  -23.3748  -35.9625   23.3233 H   0  0  0  0  0  0
  -24.3651  -36.8964   22.2075 H   0  0  0  0  0  0
  -23.7235  -37.6476   23.6680 H   0  0  0  0  0  0
  -26.0269  -31.6136   20.5913 H   0  0  0  0  0  0
  -26.8145  -30.9043   21.9733 H   0  0  0  0  0  0
  -28.0869  -29.1636   21.1721 H   0  0  0  0  0  0
  -26.1079  -25.9811   19.0213 H   0  0  0  0  0  0
  -24.0043  -27.2780   19.0319 H   0  0  0  0  0  0
  -23.7199  -30.5889   19.4009 H   0  0  0  0  0  0
  -22.7413  -29.2301   19.8608 H   0  0  0  0  0  0
  -25.1292  -36.1929   25.0829 H   0  0  0  0  0  0
  -20.9949  -28.3102   24.1454 H   0  0  0  0  0  0
  -20.5628  -26.2204   23.3572 H   0  0  0  0  0  0
  -21.6631  -26.7379   22.1222 H   0  0  0  0  0  0
  -19.6941  -25.6279   21.1199 H   0  0  0  0  0  0
  -19.6727  -27.3167   20.6715 H   0  0  0  0  0  0
  -17.4200  -26.6621   21.3976 H   0  0  0  0  0  0
  -18.0344  -26.0060   22.9002 H   0  0  0  0  0  0
  -19.7941  -30.7221   24.2277 H   0  0  0  0  0  0
  -17.5010  -31.6250   24.5130 H   0  0  0  0  0  0
  -15.5351  -30.2965   23.7658 H   0  0  0  0  0  0
  -15.8648  -28.0836   22.7014 H   0  0  0  0  0  0
  -24.5908  -30.7106   25.7828 H   0  0  0  0  0  0
  -24.8978  -32.2951   26.4871 H   0  0  0  0  0  0
  -25.8098  -30.8942   27.0271 H   0  0  0  0  0  0
  -26.2750  -29.6884   24.1058 H   0  0  0  0  0  0
  -27.4048  -29.7213   25.4425 H   0  0  0  0  0  0
  -27.8588  -30.4402   23.9122 H   0  0  0  0  0  0
  -27.2691  -33.3637   26.1997 H   0  0  0  0  0  0
  -28.3918  -32.6744   25.0349 H   0  0  0  0  0  0
  -28.0619  -31.8445   26.5492 H   0  0  0  0  0  0
  -28.2510  -38.0154   24.7552 H   0  0  0  0  0  0
  -28.1151  -36.2686   24.6172 H   0  0  0  0  0  0
  -27.2332  -37.1315   25.8861 H   0  0  0  0  0  0
  -20.9289  -29.8769   21.7025 H   0  0  0  0  0  0
  -26.0145  -38.2806   24.1487 H   0  0  0  0  0  0
  -28.0708  -20.8684   21.8318 H   0  0  0  0  0  0
  -27.3449  -19.4319   22.4825 H   0  0  0  0  0  0
  -27.1755  -19.7884   20.7631 H   0  0  0  0  0  0
  -33.1710  -19.9982   20.8733 H   0  0  0  0  0  0
  -32.6808  -19.8659   19.1761 H   0  0  0  0  0  0
  -33.4890  -18.5245   19.9678 H   0  0  0  0  0  0
  -29.4280  -21.5074   20.1992 H   0  0  0  0  0  0
  -31.0780  -21.3288   19.7606 H   0  0  0  0  0  0
  -31.7034  -21.4435   22.2232 H   0  0  0  0  0  0
  -30.0640  -21.8724   22.6060 H   0  0  0  0  0  0
  -31.7213  -23.4483   20.5726 H   0  0  0  0  0  0
  -31.9071  -23.7258   22.2766 H   0  0  0  0  0  0
  -29.6190  -24.4984   22.5351 H   0  0  0  0  0  0
  -29.2004  -24.0377   20.8995 H   0  0  0  0  0  0
  -30.8708  -25.7067   20.0110 H   0  0  0  0  0  0
  -31.3050  -26.1289   21.6410 H   0  0  0  0  0  0
  -29.8931  -27.8527   20.7850 H   0  0  0  0  0  0
  -28.9711  -27.0136   22.0310 H   0  0  0  0  0  0
  -29.1827  -15.1420   21.6138 H   0  0  0  0  0  0
  1 25  1  0  0  0
  1 30  2  0  0  0
  1 85  1  0  0  0
  2  3  1  0  0  0
  2 25  1  0  0  0
  2 87  1  0  0  0
  2 88  1  0  0  0
  3  4  1  0  0  0
  3 89  1  0  0  0
  3 90  1  0  0  0
  4  5  1  0  0  0
  4 91  1  0  0  0
  4 92  1  0  0  0
  5  6  1  0  0  0
  5 26  1  0  0  0
  5 93  1  0  0  0
  6 25  1  0  0  0
  6 94  1  0  0  0
  6 95  1  0  0  0
  7  8  2  0  0  0
  7 26  1  0  0  0
  7 29  1  0  0  0
  8  9  1  0  0  0
  8 22  1  0  0  0
  9 10  1  0  0  0
  9 27  2  0  0  0
 10 11  2  0  0  0
 10 15  1  0  0  0
 11 12  1  0  0  0
 11 96  1  0  0  0
 12 13  2  0  0  0
 12 97  1  0  0  0
 13 14  1  0  0  0
 13 31  1  0  0  0
 14 15  2  0  0  0
 14 98  1  0  0  0
 15 99  1  0  0  0
 16 17  2  0  0  0
 16 21  1  0  0  0
 16 31  1  0  0  0
 17 18  1  0  0  0
 17100  1  0  0  0
 18 19  2  0  0  0
 18101  1  0  0  0
 19 20  1  0  0  0
 19 24  1  0  0  0
 20 21  2  0  0  0
 20102  1  0  0  0
 21 23  1  0  0  0
 22 28  1  0  0  0
 22 32  2  0  0  0
 26 27  1  0  0  0
 28103  1  0  0  0
 28104  1  0  0  0
 29105  1  0  0  0
 29106  1  0  0  0
 33 34  1  0  0  0
 33 66  1  0  0  0
 33 70  2  0  0  0
 34 36  1  0  0  0
 34 59  1  0  0  0
 34107  1  0  0  0
 35 44  2  0  0  0
 35 45  1  0  0  0
 35 68  1  0  0  0
 36 56  1  0  0  0
 36108  1  0  0  0
 37 39  1  0  0  0
 37 47  1  0  0  0
 37 66  1  0  0  0
 37109  1  0  0  0
 38 43  2  0  0  0
 38 46  1  0  0  0
 38 47  1  0  0  0
 39 64  1  0  0  0
 39 67  2  0  0  0
 40 52  1  0  0  0
 40 53  2  0  0  0
 40 58  1  0  0  0
 41110  1  0  0  0
 41111  1  0  0  0
 41112  1  0  0  0
 41 48  1  0  0  0
 42 43  1  0  0  0
 42 66  1  0  0  0
 42113  1  0  0  0
 42114  1  0  0  0
 43 44  1  0  0  0
 44115  1  0  0  0
 45 46  2  0  0  0
 45116  1  0  0  0
 46117  1  0  0  0
 47118  1  0  0  0
 47119  1  0  0  0
 48 56  1  0  0  0
 48 65  1  0  0  0
 48120  1  0  0  0
 49 50  1  0  0  0
 49 53  1  0  0  0
 49 64  1  0  0  0
 49121  1  0  0  0
 50 51  1  0  0  0
 50122  1  0  0  0
 50123  1  0  0  0
 51 52  1  0  0  0
 51124  1  0  0  0
 51125  1  0  0  0
 52126  1  0  0  0
 52127  1  0  0  0
 53 54  1  0  0  0
 54 55  2  0  0  0
 54128  1  0  0  0
 55 57  1  0  0  0
 55129  1  0  0  0
 56 69  2  0  0  0
 57 58  2  0  0  0
 57130  1  0  0  0
 58131  1  0  0  0
 59 60  1  0  0  0
 59 61  1  0  0  0
 59 62  1  0  0  0
 60132  1  0  0  0
 60133  1  0  0  0
 60134  1  0  0  0
 61135  1  0  0  0
 61136  1  0  0  0
 61137  1  0  0  0
 62138  1  0  0  0
 62139  1  0  0  0
 62140  1  0  0  0
 63 65  1  0  0  0
 63141  1  0  0  0
 63142  1  0  0  0
 63143  1  0  0  0
 64144  1  0  0  0
 65145  1  0  0  0
 68 83  1  0  0  0
 71 72  2  0  0  0
 71 73  1  0  0  0
 71 76  1  0  0  0
 72 74  1  0  0  0
 72 78  1  0  0  0
 73 75  2  0  0  0
 73 86  1  0  0  0
 74 77  1  0  0  0
 74 84  2  0  0  0
 75 84  1  0  0  0
 75 85  1  0  0  0
 76146  1  0  0  0
 76147  1  0  0  0
 76148  1  0  0  0
 77149  1  0  0  0
 77150  1  0  0  0
 77151  1  0  0  0
 78 79  1  0  0  0
 78152  1  0  0  0
 78153  1  0  0  0
 79 80  1  0  0  0
 79154  1  0  0  0
 79155  1  0  0  0
 80 81  1  0  0  0
 80156  1  0  0  0
 80157  1  0  0  0
 81 82  1  0  0  0
 81158  1  0  0  0
 81159  1  0  0  0
 82 83  1  0  0  0
 82160  1  0  0  0
 82161  1  0  0  0
 83162  1  0  0  0
 83163  1  0  0  0
 85164  1  0  0  0
M  ISO  4   1 100  68 101  83 101  85 100
M  END
> <chiral flag>
0

> <version>
0

> <s_m_source_file>
/data/baiqing/PycharmProjects/Reinvent-master-3.2/result/LINK_invent/BTK/process_docking_weight1_custom_sum_contain_oxygen_bond_distance_aromatic_linkinvent_7_9_3/rearranged_h_0024.sdf

> <i_m_source_file_index>
89

> <r_mmod_Potential_Energy-OPLS-2005>
-175.996246337891

> <r_mmod_Stretch_Energy-OPLS-2005>
37.1369781494141

> <r_mmod_Bend_Energy-OPLS-2005>
103.190689086914

> <r_mmod_Torsional_Energy-OPLS-2005>
205.188446044922

> <r_mmod_Improper_Torsional_Energy-OPLS-2005>
3.26601099967957

> <r_mmod_Van_der_Waal_Energy-OPLS-2005>
159.777984619141

> <r_mmod_Electrostatic_Energy-OPLS-2005>
-481.0966796875

> <r_mmod_Solvation_Energy-OPLS-2005>
-213.613525390625

> <b_mmod_Minimization_Converged-OPLS-2005>
0

> <r_mmod_RMS_Derivative-OPLS-2005>
3.67095994949341

$$$$
89
                    3D
 Structure written by MMmdl.
183191  0  0  1  0            999 V2000
  -30.8564  -14.2608   20.7622 C   0  0  0  0  0  0
  -30.4012  -12.2774   19.3784 C   0  0  0  0  0  0
  -29.4716  -12.5468   18.1852 C   0  0  0  0  0  0
  -28.0042  -12.3873   18.6114 C   0  0  0  0  0  0
  -27.6701  -13.2071   19.8835 C   0  0  2  0  0  0
  -28.7076  -12.9649   21.0037 C   0  0  0  0  0  0
  -25.2638  -13.8169   20.5720 C   0  0  0  0  0  0
  -24.1848  -13.0425   20.9149 C   0  0  0  0  0  0
  -24.6412  -11.6912   20.8716 C   0  0  0  0  0  0
  -23.9077  -10.4280   21.0400 C   0  0  0  0  0  0
  -24.3620   -9.4193   21.9183 C   0  0  0  0  0  0
  -23.6289   -8.2233   22.0768 C   0  0  0  0  0  0
  -22.4275   -8.0276   21.3550 C   0  0  0  0  0  0
  -21.9910   -9.0246   20.4649 C   0  0  0  0  0  0
  -22.7251  -10.2121   20.3056 C   0  0  0  0  0  0
  -21.6845   -6.0736   22.5278 C   0  0  0  0  0  0
  -21.4015   -6.5648   23.8208 C   0  0  0  0  0  0
  -21.3659   -5.6801   24.9171 C   0  0  0  0  0  0
  -21.6046   -4.3059   24.7222 C   0  0  0  0  0  0
  -21.8815   -3.8150   23.4344 C   0  0  0  0  0  0
  -21.9186   -4.6964   22.3404 C   0  0  0  0  0  0
  -22.7878  -13.5235   21.1806 C   0  0  0  0  0  0
  -22.1654   -4.2159   21.0977 F   0  0  0  0  0  0
  -21.5629   -3.4553   25.7739 F   0  0  0  0  0  0
  -30.0595  -13.2045   20.4673 N   0  0  0  0  0  0
  -26.3080  -12.9338   20.3416 N   0  0  0  0  0  0
  -25.9348  -11.6489   20.5754 N   0  0  0  0  0  0
  -22.0520  -12.8224   22.0373 N   0  0  0  0  0  0
  -25.4388  -15.1885   20.4246 N   0  0  0  0  0  0
  -31.7819  -14.6280   20.0331 O   0  0  0  0  0  0
  -21.6633   -6.8879   21.4239 O   0  0  0  0  0  0
  -22.3568  -14.5536   20.6675 O   0  0  0  0  0  0
  -24.6193  -31.8705   23.2178 C   0  0  0  0  0  0
  -25.9089  -32.4868   23.8439 C   0  0  1  0  0  0
  -27.2432  -27.4741   20.0609 C   0  0  0  0  0  0
  -25.5906  -33.8655   24.2371 N   0  0  0  0  0  0
  -23.4041  -30.4964   21.5590 C   0  0  2  0  0  0
  -24.8474  -28.9713   20.1128 C   0  0  0  0  0  0
  -22.7440  -29.4659   22.5021 C   0  0  0  0  0  0
  -18.0218  -28.1379   22.8560 C   0  0  0  0  0  0
  -24.1472  -36.7332   23.2634 C   0  0  0  0  0  0
  -25.9346  -30.8493   21.3642 C   0  0  0  0  0  0
  -26.0108  -29.4936   20.6909 C   0  0  0  0  0  0
  -27.2150  -28.7610   20.6388 C   0  0  0  0  0  0
  -26.0604  -26.9589   19.4815 C   0  0  0  0  0  0
  -24.8685  -27.7082   19.4983 C   0  0  0  0  0  0
  -23.6056  -29.8333   20.1723 C   0  0  0  0  0  0
  -25.4084  -36.3129   24.0342 C   0  0  1  0  0  0
  -20.5852  -28.3699   23.1290 C   0  0  2  0  0  0
  -20.6744  -26.9414   22.5475 C   0  0  0  0  0  0
  -19.5620  -26.6233   21.5415 C   0  0  0  0  0  0
  -18.1872  -26.7776   22.2008 C   0  0  0  0  0  0
  -19.1509  -28.8870   23.2822 C   0  0  0  0  0  0
  -18.9536  -30.1496   23.8816 C   0  0  0  0  0  0
  -17.6550  -30.6646   24.0554 C   0  0  0  0  0  0
  -25.9009  -34.9502   23.5147 C   0  0  0  0  0  0
  -16.5389  -29.9168   23.6388 C   0  0  0  0  0  0
  -16.7225  -28.6541   23.0481 C   0  0  0  0  0  0
  -26.4498  -31.6623   25.0773 C   0  0  0  0  0  0
  -25.3789  -31.3633   26.1529 C   0  0  0  0  0  0
  -27.0308  -30.3073   24.6110 C   0  0  0  0  0  0
  -27.6106  -32.4315   25.7504 C   0  0  0  0  0  0
  -27.5578  -37.1803   24.8451 C   0  0  0  0  0  0
  -21.4160  -29.3046   22.3718 N   0  0  0  0  0  0
  -26.4274  -37.3830   23.9416 N   0  0  0  0  0  0
  -24.6702  -31.0882   22.1036 N   0  0  0  0  0  0
  -23.4221  -28.8164   23.3014 O   0  0  0  0  0  0
  -28.4354  -26.7846   20.0630 O   0  0  0  0  0  0
  -26.5603  -34.8955   22.4723 O   0  0  0  0  0  0
  -23.5408  -32.1333   23.7659 O   0  0  0  0  0  0
  -26.9268  -20.9965   22.4222 C   0  0  0  0  0  0
  -25.4244  -21.3208   24.3143 C   0  0  0  0  0  0
  -26.2653  -23.2759   23.0640 C   0  0  0  0  0  0
  -26.1694  -20.4646   23.4802 C   0  0  0  0  0  0
  -26.8780  -22.3752   22.1493 C   0  0  0  0  0  0
  -25.5080  -22.7211   24.1335 C   0  0  0  0  0  0
  -27.3258  -25.4405   22.7097 C   0  0  0  0  0  0
  -24.5986  -20.7271   25.4445 C   0  0  0  0  0  0
  -27.2861  -26.8675   23.2194 C   0  0  0  0  0  0
  -28.5524  -19.5208   17.9459 C   0  0  0  0  0  0
  -27.9639  -20.1482   21.6989 C   0  0  0  0  0  0
  -28.5823  -25.1268   21.8945 C   0  0  0  0  0  0
  -30.8019  -17.8911   22.1722 C   0  0  0  0  0  0
  -30.8878  -18.9566   21.0592 C   0  0  0  0  0  0
  -31.9821  -16.9107   22.1273 C   0  0  0  0  0  0
  -29.9424  -18.6793   19.8612 C   0  0  0  0  0  0
  -31.6840  -15.5358   22.7521 C   0  0  0  0  0  0
  -28.4143  -25.3898   20.3749 C   0  0  0  0  0  0
  -28.9929  -19.8216   19.3948 C   0  0  2  0  0  0
  -26.3543  -24.6832   23.0541 N   0  0  0  0  0  0
  -30.7055  -14.7360   22.0077 N   0  0  0  0  0  0
  -27.7718  -20.0064   20.2377 N   0  3  0  0  0  0
  -26.1895  -19.1308   23.7200 F   0  0  0  0  0  0
  -27.4568  -22.7871   21.0003 F   0  0  0  0  0  0
  -24.7021  -23.7707   25.2608 Cl  0  0  0  0  0  0
  -31.4443  -12.3625   19.0676 H   0  0  0  0  0  0
  -30.2844  -11.2480   19.7232 H   0  0  0  0  0  0
  -29.7015  -11.8670   17.3636 H   0  0  0  0  0  0
  -29.6414  -13.5556   17.8043 H   0  0  0  0  0  0
  -27.8223  -11.3271   18.7924 H   0  0  0  0  0  0
  -27.3425  -12.6783   17.7951 H   0  0  0  0  0  0
  -27.7251  -14.2609   19.6059 H   0  0  0  0  0  0
  -28.6439  -11.9388   21.3672 H   0  0  0  0  0  0
  -28.4663  -13.6013   21.8551 H   0  0  0  0  0  0
  -25.2765   -9.5669   22.4762 H   0  0  0  0  0  0
  -23.9991   -7.4641   22.7505 H   0  0  0  0  0  0
  -21.0834   -8.8763   19.8962 H   0  0  0  0  0  0
  -22.3705  -10.9661   19.6162 H   0  0  0  0  0  0
  -21.2019   -7.6160   23.9719 H   0  0  0  0  0  0
  -21.1487   -6.0536   25.9078 H   0  0  0  0  0  0
  -22.0597   -2.7620   23.2852 H   0  0  0  0  0  0
  -22.4115  -11.9863   22.4732 H   0  0  0  0  0  0
  -21.1160  -13.1286   22.2610 H   0  0  0  0  0  0
  -24.6850  -15.8506   20.5727 H   0  0  0  0  0  0
  -26.3172  -15.6307   20.1832 H   0  0  0  0  0  0
  -26.7187  -32.5592   23.1241 H   0  0  0  0  0  0
  -25.0080  -33.9811   25.0529 H   0  0  0  0  0  0
  -22.6858  -31.3087   21.4380 H   0  0  0  0  0  0
  -23.3763  -35.9637   23.3257 H   0  0  0  0  0  0
  -24.3545  -36.8999   22.2044 H   0  0  0  0  0  0
  -23.7193  -37.6500   23.6694 H   0  0  0  0  0  0
  -26.0560  -31.6278   20.6090 H   0  0  0  0  0  0
  -26.8227  -30.8928   21.9824 H   0  0  0  0  0  0
  -28.1218  -29.1683   21.0607 H   0  0  0  0  0  0
  -26.0464  -26.0001   18.9824 H   0  0  0  0  0  0
  -23.9746  -27.3172   19.0354 H   0  0  0  0  0  0
  -23.6976  -30.6121   19.4149 H   0  0  0  0  0  0
  -22.7252  -29.2510   19.8893 H   0  0  0  0  0  0
  -25.1256  -36.1977   25.0828 H   0  0  0  0  0  0
  -20.9806  -28.3335   24.1473 H   0  0  0  0  0  0
  -20.5659  -26.2463   23.3827 H   0  0  0  0  0  0
  -21.6614  -26.7336   22.1318 H   0  0  0  0  0  0
  -19.6807  -25.6106   21.1550 H   0  0  0  0  0  0
  -19.6359  -27.3010   20.6916 H   0  0  0  0  0  0
  -17.3979  -26.6154   21.4640 H   0  0  0  0  0  0
  -18.0467  -26.0177   22.9733 H   0  0  0  0  0  0
  -19.8084  -30.7246   24.2133 H   0  0  0  0  0  0
  -17.5186  -31.6315   24.5182 H   0  0  0  0  0  0
  -15.5445  -30.3139   23.7790 H   0  0  0  0  0  0
  -15.8544  -28.0844   22.7426 H   0  0  0  0  0  0
  -24.6046  -30.6921   25.7854 H   0  0  0  0  0  0
  -24.8930  -32.2727   26.5052 H   0  0  0  0  0  0
  -25.8190  -30.8763   27.0243 H   0  0  0  0  0  0
  -26.2831  -29.6870   24.1210 H   0  0  0  0  0  0
  -27.4093  -29.7291   25.4552 H   0  0  0  0  0  0
  -27.8651  -30.4386   23.9231 H   0  0  0  0  0  0
  -27.2803  -33.3627   26.2084 H   0  0  0  0  0  0
  -28.3885  -32.6832   25.0301 H   0  0  0  0  0  0
  -28.0791  -31.8440   26.5387 H   0  0  0  0  0  0
  -28.2581  -38.0133   24.7637 H   0  0  0  0  0  0
  -28.1090  -36.2687   24.6108 H   0  0  0  0  0  0
  -27.2304  -37.1257   25.8854 H   0  0  0  0  0  0
  -20.9356  -29.8732   21.6874 H   0  0  0  0  0  0
  -26.0151  -38.2892   24.1463 H   0  0  0  0  0  0
  -24.3642  -19.6790   25.2566 H   0  0  0  0  0  0
  -23.6498  -21.2496   25.5580 H   0  0  0  0  0  0
  -25.1434  -20.7944   26.3865 H   0  0  0  0  0  0
  -28.1636  -27.4317   22.9022 H   0  0  0  0  0  0
  -27.2660  -26.8729   24.3077 H   0  0  0  0  0  0
  -26.3970  -27.3874   22.8624 H   0  0  0  0  0  0
  -29.4030  -19.4890   17.2641 H   0  0  0  0  0  0
  -27.8569  -20.2636   17.5546 H   0  0  0  0  0  0
  -28.0609  -18.5479   17.8832 H   0  0  0  0  0  0
  -28.0636  -19.1674   22.1623 H   0  0  0  0  0  0
  -28.8855  -20.6856   21.9001 H   0  0  0  0  0  0
  -28.9053  -24.1081   22.0946 H   0  0  0  0  0  0
  -29.4177  -25.7245   22.2586 H   0  0  0  0  0  0
  -29.8537  -17.3539   22.1169 H   0  0  0  0  0  0
  -30.8018  -18.3759   23.1494 H   0  0  0  0  0  0
  -31.9151  -19.0073   20.6943 H   0  0  0  0  0  0
  -30.7458  -19.9465   21.4799 H   0  0  0  0  0  0
  -32.8302  -17.3612   22.6466 H   0  0  0  0  0  0
  -32.3182  -16.7831   21.0994 H   0  0  0  0  0  0
  -29.3695  -17.7632   20.0067 H   0  0  0  0  0  0
  -30.6054  -18.4460   19.0263 H   0  0  0  0  0  0
  -31.3178  -15.6651   23.7723 H   0  0  0  0  0  0
  -32.6088  -14.9617   22.8364 H   0  0  0  0  0  0
  -27.5402  -24.8816   19.9780 H   0  0  0  0  0  0
  -29.2590  -24.9469   19.8460 H   0  0  0  0  0  0
  -29.5481  -20.7632   19.3808 H   0  0  0  0  0  0
  -29.9530  -14.3304   22.5460 H   0  0  0  0  0  0
  -27.3192  -20.8523   19.9213 H   0  0  0  0  0  0
  -27.1387  -19.2410   20.0779 H   0  0  0  0  0  0
  1 25  1  0  0  0
  1 30  2  0  0  0
  1 91  1  0  0  0
  2  3  1  0  0  0
  2 25  1  0  0  0
  2 96  1  0  0  0
  2 97  1  0  0  0
  3  4  1  0  0  0
  3 98  1  0  0  0
  3 99  1  0  0  0
  4  5  1  0  0  0
  4100  1  0  0  0
  4101  1  0  0  0
  5  6  1  0  0  0
  5 26  1  0  0  0
  5102  1  0  0  0
  6 25  1  0  0  0
  6103  1  0  0  0
  6104  1  0  0  0
  7  8  2  0  0  0
  7 26  1  0  0  0
  7 29  1  0  0  0
  8  9  1  0  0  0
  8 22  1  0  0  0
  9 10  1  0  0  0
  9 27  2  0  0  0
 10 11  2  0  0  0
 10 15  1  0  0  0
 11 12  1  0  0  0
 11105  1  0  0  0
 12 13  2  0  0  0
 12106  1  0  0  0
 13 14  1  0  0  0
 13 31  1  0  0  0
 14 15  2  0  0  0
 14107  1  0  0  0
 15108  1  0  0  0
 16 17  2  0  0  0
 16 21  1  0  0  0
 16 31  1  0  0  0
 17 18  1  0  0  0
 17109  1  0  0  0
 18 19  2  0  0  0
 18110  1  0  0  0
 19 20  1  0  0  0
 19 24  1  0  0  0
 20 21  2  0  0  0
 20111  1  0  0  0
 21 23  1  0  0  0
 22 28  1  0  0  0
 22 32  2  0  0  0
 26 27  1  0  0  0
 28112  1  0  0  0
 28113  1  0  0  0
 29114  1  0  0  0
 29115  1  0  0  0
 33 34  1  0  0  0
 33 66  1  0  0  0
 33 70  2  0  0  0
 34 36  1  0  0  0
 34 59  1  0  0  0
 34116  1  0  0  0
 35 44  2  0  0  0
 35 45  1  0  0  0
 35 68  1  0  0  0
 36 56  1  0  0  0
 36117  1  0  0  0
 37 39  1  0  0  0
 37 47  1  0  0  0
 37 66  1  0  0  0
 37118  1  0  0  0
 38 43  2  0  0  0
 38 46  1  0  0  0
 38 47  1  0  0  0
 39 64  1  0  0  0
 39 67  2  0  0  0
 40 52  1  0  0  0
 40 53  2  0  0  0
 40 58  1  0  0  0
 41119  1  0  0  0
 41120  1  0  0  0
 41121  1  0  0  0
 41 48  1  0  0  0
 42 43  1  0  0  0
 42 66  1  0  0  0
 42122  1  0  0  0
 42123  1  0  0  0
 43 44  1  0  0  0
 44124  1  0  0  0
 45 46  2  0  0  0
 45125  1  0  0  0
 46126  1  0  0  0
 47127  1  0  0  0
 47128  1  0  0  0
 48 56  1  0  0  0
 48 65  1  0  0  0
 48129  1  0  0  0
 49 50  1  0  0  0
 49 53  1  0  0  0
 49 64  1  0  0  0
 49130  1  0  0  0
 50 51  1  0  0  0
 50131  1  0  0  0
 50132  1  0  0  0
 51 52  1  0  0  0
 51133  1  0  0  0
 51134  1  0  0  0
 52135  1  0  0  0
 52136  1  0  0  0
 53 54  1  0  0  0
 54 55  2  0  0  0
 54137  1  0  0  0
 55 57  1  0  0  0
 55138  1  0  0  0
 56 69  2  0  0  0
 57 58  2  0  0  0
 57139  1  0  0  0
 58140  1  0  0  0
 59 60  1  0  0  0
 59 61  1  0  0  0
 59 62  1  0  0  0
 60141  1  0  0  0
 60142  1  0  0  0
 60143  1  0  0  0
 61144  1  0  0  0
 61145  1  0  0  0
 61146  1  0  0  0
 62147  1  0  0  0
 62148  1  0  0  0
 62149  1  0  0  0
 63 65  1  0  0  0
 63150  1  0  0  0
 63151  1  0  0  0
 63152  1  0  0  0
 64153  1  0  0  0
 65154  1  0  0  0
 68 88  1  0  0  0
 71 74  1  0  0  0
 71 75  2  0  0  0
 71 81  1  0  0  0
 72 74  2  0  0  0
 72 76  1  0  0  0
 72 78  1  0  0  0
 73 75  1  0  0  0
 73 76  2  0  0  0
 73 90  1  0  0  0
 74 93  1  0  0  0
 75 94  1  0  0  0
 76 95  1  0  0  0
 77 79  1  0  0  0
 77 82  1  0  0  0
 77 90  2  0  0  0
 78155  1  0  0  0
 78156  1  0  0  0
 78157  1  0  0  0
 79158  1  0  0  0
 79159  1  0  0  0
 79160  1  0  0  0
 80161  1  0  0  0
 80162  1  0  0  0
 80163  1  0  0  0
 80 89  1  0  0  0
 81 92  1  0  0  0
 81164  1  0  0  0
 81165  1  0  0  0
 82 88  1  0  0  0
 82166  1  0  0  0
 82167  1  0  0  0
 83 84  1  0  0  0
 83 85  1  0  0  0
 83168  1  0  0  0
 83169  1  0  0  0
 84 86  1  0  0  0
 84170  1  0  0  0
 84171  1  0  0  0
 85 87  1  0  0  0
 85172  1  0  0  0
 85173  1  0  0  0
 86 89  1  0  0  0
 86174  1  0  0  0
 86175  1  0  0  0
 87 91  1  0  0  0
 87176  1  0  0  0
 87177  1  0  0  0
 88178  1  0  0  0
 88179  1  0  0  0
 89 92  1  0  0  0
 89180  1  0  0  0
 91181  1  0  0  0
 92182  1  0  0  0
 92183  1  0  0  0
M  CHG  1  92   1
M  ISO  4   1 100  68 101  88 101  91 100
M  END
> <chiral flag>
0

> <version>
0

> <s_m_source_file>
/data/baiqing/PycharmProjects/Reinvent-master-3.2/result/LINK_invent/BTK/process_docking_weight1_custom_sum_contain_oxygen_bond_distance_aromatic_linkinvent_7_9_3/rearranged_h_0024.sdf

> <i_m_source_file_index>
90

> <r_mmod_Potential_Energy-OPLS-2005>
-159.599594116211

> <r_mmod_Stretch_Energy-OPLS-2005>
39.2142295837402

> <r_mmod_Bend_Energy-OPLS-2005>
149.001556396484

> <r_mmod_Torsional_Energy-OPLS-2005>
281.361083984375

> <r_mmod_Improper_Torsional_Energy-OPLS-2005>
6.06851148605347

> <r_mmod_Van_der_Waal_Energy-OPLS-2005>
164.629440307617

> <r_mmod_Electrostatic_Energy-OPLS-2005>
-356.141754150391

> <r_mmod_Solvation_Energy-OPLS-2005>
-454.946624755859

> <b_mmod_Minimization_Converged-OPLS-2005>
0

> <r_mmod_RMS_Derivative-OPLS-2005>
5.51507472991943

$$$$
90
                    3D
 Structure written by MMmdl.
195203  0  0  1  0            999 V2000
  -30.8435  -14.4078   20.6379 C   0  0  0  0  0  0
  -30.4058  -12.3117   19.4225 C   0  0  0  0  0  0
  -29.4861  -12.5235   18.2073 C   0  0  0  0  0  0
  -28.0111  -12.3849   18.6236 C   0  0  0  0  0  0
  -27.6653  -13.2269   19.8827 C   0  0  2  0  0  0
  -28.7184  -13.0450   21.0047 C   0  0  0  0  0  0
  -25.2591  -13.8221   20.5710 C   0  0  0  0  0  0
  -24.1847  -13.0452   20.9188 C   0  0  0  0  0  0
  -24.6428  -11.6950   20.8761 C   0  0  0  0  0  0
  -23.9110  -10.4307   21.0394 C   0  0  0  0  0  0
  -24.3635   -9.4216   21.9166 C   0  0  0  0  0  0
  -23.6299   -8.2261   22.0762 C   0  0  0  0  0  0
  -22.4292   -8.0285   21.3553 C   0  0  0  0  0  0
  -21.9926   -9.0260   20.4653 C   0  0  0  0  0  0
  -22.7282  -10.2137   20.3051 C   0  0  0  0  0  0
  -21.6843   -6.0741   22.5279 C   0  0  0  0  0  0
  -21.4012   -6.5642   23.8208 C   0  0  0  0  0  0
  -21.3689   -5.6789   24.9166 C   0  0  0  0  0  0
  -21.6020   -4.3049   24.7205 C   0  0  0  0  0  0
  -21.8835   -3.8154   23.4330 C   0  0  0  0  0  0
  -21.9193   -4.6975   22.3388 C   0  0  0  0  0  0
  -22.7857  -13.5236   21.1814 C   0  0  0  0  0  0
  -22.1655   -4.2147   21.0974 F   0  0  0  0  0  0
  -21.5642   -3.4547   25.7736 F   0  0  0  0  0  0
  -30.0569  -13.3093   20.4478 N   0  0  0  0  0  0
  -26.3058  -12.9402   20.3469 N   0  0  0  0  0  0
  -25.9363  -11.6532   20.5818 N   0  0  0  0  0  0
  -22.0506  -12.8197   22.0398 N   0  0  0  0  0  0
  -25.4274  -15.1913   20.4132 N   0  0  0  0  0  0
  -31.8794  -14.5871   19.9991 O   0  0  0  0  0  0
  -21.6659   -6.8881   21.4242 O   0  0  0  0  0  0
  -22.3524  -14.5528   20.6689 O   0  0  0  0  0  0
  -24.6287  -31.8708   23.2193 C   0  0  0  0  0  0
  -25.9181  -32.4816   23.8471 C   0  0  1  0  0  0
  -27.2223  -27.4510   20.0192 C   0  0  0  0  0  0
  -25.6147  -33.8658   24.2435 N   0  0  0  0  0  0
  -23.4092  -30.5046   21.5590 C   0  0  2  0  0  0
  -24.8477  -28.9987   20.1070 C   0  0  0  0  0  0
  -22.7379  -29.4712   22.4956 C   0  0  0  0  0  0
  -18.0180  -28.1314   22.8660 C   0  0  0  0  0  0
  -24.1506  -36.7341   23.2576 C   0  0  0  0  0  0
  -25.9407  -30.8421   21.3658 C   0  0  0  0  0  0
  -26.0198  -29.4796   20.7059 C   0  0  0  0  0  0
  -27.2085  -28.7070   20.6827 C   0  0  0  0  0  0
  -26.0171  -27.0068   19.4119 C   0  0  0  0  0  0
  -24.8375  -27.7523   19.4757 C   0  0  0  0  0  0
  -23.6203  -29.8708   20.1641 C   0  0  0  0  0  0
  -25.4165  -36.3186   24.0278 C   0  0  1  0  0  0
  -20.5806  -28.3712   23.1216 C   0  0  2  0  0  0
  -20.6877  -26.9525   22.5182 C   0  0  0  0  0  0
  -19.5591  -26.6268   21.5332 C   0  0  0  0  0  0
  -18.1886  -26.7730   22.2055 C   0  0  0  0  0  0
  -19.1469  -28.8835   23.2898 C   0  0  0  0  0  0
  -18.9410  -30.1499   23.8791 C   0  0  0  0  0  0
  -17.6449  -30.6699   24.0415 C   0  0  0  0  0  0
  -25.9115  -34.9505   23.5125 C   0  0  0  0  0  0
  -16.5282  -29.9200   23.6299 C   0  0  0  0  0  0
  -16.7184  -28.6554   23.0474 C   0  0  0  0  0  0
  -26.4534  -31.6480   25.0768 C   0  0  0  0  0  0
  -25.3752  -31.3552   26.1457 C   0  0  0  0  0  0
  -27.0206  -30.2898   24.6067 C   0  0  0  0  0  0
  -27.6128  -32.4069   25.7673 C   0  0  0  0  0  0
  -27.5560  -37.1823   24.8452 C   0  0  0  0  0  0
  -21.4079  -29.3154   22.3683 N   0  0  0  0  0  0
  -26.4329  -37.3931   23.9385 N   0  0  0  0  0  0
  -24.6787  -31.0788   22.1125 N   0  0  0  0  0  0
  -23.4096  -28.8120   23.2923 O   0  0  0  0  0  0
  -28.3533  -26.6432   19.9879 O   0  0  0  0  0  0
  -26.5524  -34.8926   22.4595 O   0  0  0  0  0  0
  -23.5516  -32.1469   23.7661 O   0  0  0  0  0  0
  -27.5026  -23.7696   17.8845 C   0  0  0  0  0  0
  -26.6277  -23.0583   18.7425 C   0  0  0  0  0  0
  -28.2589  -24.8657   18.3291 C   0  0  0  0  0  0
  -26.7213  -23.3466   20.1509 C   0  0  0  0  0  0
  -27.4829  -24.4754   20.6010 C   0  0  0  0  0  0
  -28.1102  -25.3172   19.6587 C   0  0  0  0  0  0
  -26.0427  -22.4774   21.2117 C   0  0  0  0  0  0
  -26.4213  -25.5615   22.6873 C   0  0  0  0  0  0
  -23.6965  -23.7448   17.6383 C   0  0  0  0  0  0
  -25.9297  -20.5869   18.5779 C   0  0  0  0  0  0
  -25.7911  -21.8963   16.5603 C   0  0  0  0  0  0
  -27.6307  -24.8246   22.0866 C   0  0  0  0  0  0
  -29.1890  -25.5675   17.3564 C   0  0  0  0  0  0
  -24.1442  -22.4400   18.3325 C   0  0  0  0  0  0
  -32.0691  -19.5282   20.1002 C   0  0  0  0  0  0
  -31.3616  -20.9018   20.0042 C   0  0  0  0  0  0
  -31.2839  -18.4628   20.9092 C   0  0  0  0  0  0
  -31.9166  -21.8307   18.8975 C   0  0  0  0  0  0
  -32.1502  -17.2893   21.4140 C   0  0  0  0  0  0
  -31.3492  -23.2704   18.9597 C   0  0  0  0  0  0
  -31.4076  -16.2215   22.2755 C   0  0  0  0  0  0
  -31.1030  -23.9262   17.5822 C   0  0  0  0  0  0
  -25.6381  -22.0290   18.0988 C   0  0  0  0  0  0
  -30.4909  -15.2750   21.6014 N   0  0  0  0  0  0
  -30.6098  -25.3225   17.7026 N   0  3  0  0  0  0
  -31.4504  -12.3642   19.1157 H   0  0  0  0  0  0
  -30.2792  -11.3090   19.8279 H   0  0  0  0  0  0
  -29.7234  -11.8012   17.4228 H   0  0  0  0  0  0
  -29.6570  -13.5142   17.7785 H   0  0  0  0  0  0
  -27.8164  -11.3288   18.8118 H   0  0  0  0  0  0
  -27.3606  -12.6714   17.7961 H   0  0  0  0  0  0
  -27.6981  -14.2746   19.5746 H   0  0  0  0  0  0
  -28.6869  -12.0253   21.3905 H   0  0  0  0  0  0
  -28.4828  -13.6898   21.8516 H   0  0  0  0  0  0
  -25.2764   -9.5684   22.4752 H   0  0  0  0  0  0
  -24.0005   -7.4645   22.7478 H   0  0  0  0  0  0
  -21.0856   -8.8779   19.8926 H   0  0  0  0  0  0
  -22.3729  -10.9674   19.6165 H   0  0  0  0  0  0
  -21.2006   -7.6147   23.9702 H   0  0  0  0  0  0
  -21.1490   -6.0525   25.9060 H   0  0  0  0  0  0
  -22.0587   -2.7612   23.2834 H   0  0  0  0  0  0
  -22.4135  -11.9860   22.4781 H   0  0  0  0  0  0
  -21.1103  -13.1192   22.2579 H   0  0  0  0  0  0
  -24.6659  -15.8520   20.5258 H   0  0  0  0  0  0
  -26.2894  -15.6328   20.1169 H   0  0  0  0  0  0
  -26.7234  -32.5478   23.1219 H   0  0  0  0  0  0
  -25.0543  -33.9884   25.0732 H   0  0  0  0  0  0
  -22.7095  -31.3322   21.4278 H   0  0  0  0  0  0
  -23.3848  -35.9611   23.3351 H   0  0  0  0  0  0
  -24.3530  -36.8870   22.1948 H   0  0  0  0  0  0
  -23.7117  -37.6536   23.6510 H   0  0  0  0  0  0
  -26.0083  -31.6027   20.5851 H   0  0  0  0  0  0
  -26.8477  -30.9247   21.9498 H   0  0  0  0  0  0
  -28.1008  -29.0658   21.1806 H   0  0  0  0  0  0
  -25.9339  -26.0684   18.8820 H   0  0  0  0  0  0
  -23.9434  -27.3641   19.0158 H   0  0  0  0  0  0
  -23.7780  -30.6663   19.4371 H   0  0  0  0  0  0
  -22.7418  -29.3128   19.8352 H   0  0  0  0  0  0
  -25.1319  -36.2192   25.0779 H   0  0  0  0  0  0
  -20.9787  -28.3148   24.1345 H   0  0  0  0  0  0
  -20.6487  -26.2155   23.3255 H   0  0  0  0  0  0
  -21.6624  -26.8055   22.0435 H   0  0  0  0  0  0
  -19.6860  -25.6138   21.1469 H   0  0  0  0  0  0
  -19.6203  -27.2987   20.6748 H   0  0  0  0  0  0
  -17.3913  -26.6066   21.4797 H   0  0  0  0  0  0
  -18.0710  -26.0065   22.9746 H   0  0  0  0  0  0
  -19.7874  -30.7393   24.2067 H   0  0  0  0  0  0
  -17.5024  -31.6496   24.4804 H   0  0  0  0  0  0
  -15.5347  -30.3243   23.7635 H   0  0  0  0  0  0
  -15.8485  -28.0946   22.7305 H   0  0  0  0  0  0
  -24.6207  -30.6587   25.7726 H   0  0  0  0  0  0
  -24.8632  -32.2659   26.4609 H   0  0  0  0  0  0
  -25.8170  -30.8965   27.0320 H   0  0  0  0  0  0
  -26.2727  -29.6798   24.0995 H   0  0  0  0  0  0
  -27.3676  -29.6962   25.4510 H   0  0  0  0  0  0
  -27.8692  -30.4048   23.9328 H   0  0  0  0  0  0
  -27.2880  -33.3431   26.2232 H   0  0  0  0  0  0
  -28.4129  -32.6480   25.0647 H   0  0  0  0  0  0
  -28.0578  -31.8098   26.5656 H   0  0  0  0  0  0
  -28.2608  -38.0088   24.7609 H   0  0  0  0  0  0
  -28.1032  -36.2615   24.6308 H   0  0  0  0  0  0
  -27.2190  -37.1514   25.8826 H   0  0  0  0  0  0
  -20.9241  -29.8773   21.6834 H   0  0  0  0  0  0
  -26.0240  -38.2976   24.1655 H   0  0  0  0  0  0
  -27.5701  -23.5384   16.8336 H   0  0  0  0  0  0
  -25.1276  -21.9943   20.8994 H   0  0  0  0  0  0
  -25.7471  -23.0275   22.0958 H   0  0  0  0  0  0
  -26.7330  -21.7075   21.5522 H   0  0  0  0  0  0
  -25.4807  -25.0856   22.4223 H   0  0  0  0  0  0
  -26.3575  -26.5806   22.3139 H   0  0  0  0  0  0
  -26.4820  -25.6183   23.7746 H   0  0  0  0  0  0
  -22.6889  -24.0133   17.9479 H   0  0  0  0  0  0
  -23.6580  -23.6464   16.5542 H   0  0  0  0  0  0
  -24.3485  -24.5838   17.8796 H   0  0  0  0  0  0
  -26.9322  -20.2729   18.2836 H   0  0  0  0  0  0
  -25.2435  -19.8709   18.1316 H   0  0  0  0  0  0
  -25.8676  -20.4391   19.6463 H   0  0  0  0  0  0
  -26.7651  -21.4987   16.2825 H   0  0  0  0  0  0
  -25.6576  -22.8413   16.0331 H   0  0  0  0  0  0
  -25.0590  -21.1950   16.1551 H   0  0  0  0  0  0
  -28.5159  -25.4516   22.2336 H   0  0  0  0  0  0
  -27.8585  -23.9041   22.6245 H   0  0  0  0  0  0
  -28.9723  -26.6364   17.3427 H   0  0  0  0  0  0
  -29.0044  -25.2216   16.3389 H   0  0  0  0  0  0
  -23.4834  -21.6451   17.9828 H   0  0  0  0  0  0
  -23.9050  -22.5434   19.3853 H   0  0  0  0  0  0
  -33.0538  -19.6790   20.5469 H   0  0  0  0  0  0
  -32.2647  -19.1469   19.0954 H   0  0  0  0  0  0
  -31.4291  -21.4061   20.9709 H   0  0  0  0  0  0
  -30.2974  -20.7497   19.8157 H   0  0  0  0  0  0
  -30.4608  -18.0896   20.2969 H   0  0  0  0  0  0
  -30.8279  -18.9371   21.7779 H   0  0  0  0  0  0
  -31.6853  -21.3870   17.9279 H   0  0  0  0  0  0
  -33.0070  -21.8728   18.9507 H   0  0  0  0  0  0
  -32.9345  -17.7172   22.0457 H   0  0  0  0  0  0
  -32.6962  -16.8325   20.5874 H   0  0  0  0  0  0
  -32.0379  -23.8895   19.5426 H   0  0  0  0  0  0
  -30.4061  -23.2701   19.5032 H   0  0  0  0  0  0
  -30.8587  -16.7303   23.0682 H   0  0  0  0  0  0
  -32.1580  -15.6221   22.7914 H   0  0  0  0  0  0
  -30.4096  -23.3274   16.9890 H   0  0  0  0  0  0
  -32.0394  -23.9409   17.0248 H   0  0  0  0  0  0
  -29.6063  -15.1050   22.0580 H   0  0  0  0  0  0
  -30.7686  -25.6435   18.6414 H   0  0  0  0  0  0
  -31.1626  -25.9047   17.0930 H   0  0  0  0  0  0
  1 25  1  0  0  0
  1 30  2  0  0  0
  1 94  1  0  0  0
  2  3  1  0  0  0
  2 25  1  0  0  0
  2 96  1  0  0  0
  2 97  1  0  0  0
  3  4  1  0  0  0
  3 98  1  0  0  0
  3 99  1  0  0  0
  4  5  1  0  0  0
  4100  1  0  0  0
  4101  1  0  0  0
  5  6  1  0  0  0
  5 26  1  0  0  0
  5102  1  0  0  0
  6 25  1  0  0  0
  6103  1  0  0  0
  6104  1  0  0  0
  7  8  2  0  0  0
  7 26  1  0  0  0
  7 29  1  0  0  0
  8  9  1  0  0  0
  8 22  1  0  0  0
  9 10  1  0  0  0
  9 27  2  0  0  0
 10 11  2  0  0  0
 10 15  1  0  0  0
 11 12  1  0  0  0
 11105  1  0  0  0
 12 13  2  0  0  0
 12106  1  0  0  0
 13 14  1  0  0  0
 13 31  1  0  0  0
 14 15  2  0  0  0
 14107  1  0  0  0
 15108  1  0  0  0
 16 17  2  0  0  0
 16 21  1  0  0  0
 16 31  1  0  0  0
 17 18  1  0  0  0
 17109  1  0  0  0
 18 19  2  0  0  0
 18110  1  0  0  0
 19 20  1  0  0  0
 19 24  1  0  0  0
 20 21  2  0  0  0
 20111  1  0  0  0
 21 23  1  0  0  0
 22 28  1  0  0  0
 22 32  2  0  0  0
 26 27  1  0  0  0
 28112  1  0  0  0
 28113  1  0  0  0
 29114  1  0  0  0
 29115  1  0  0  0
 33 34  1  0  0  0
 33 66  1  0  0  0
 33 70  2  0  0  0
 34 36  1  0  0  0
 34 59  1  0  0  0
 34116  1  0  0  0
 35 44  2  0  0  0
 35 45  1  0  0  0
 35 68  1  0  0  0
 36 56  1  0  0  0
 36117  1  0  0  0
 37 39  1  0  0  0
 37 47  1  0  0  0
 37 66  1  0  0  0
 37118  1  0  0  0
 38 43  2  0  0  0
 38 46  1  0  0  0
 38 47  1  0  0  0
 39 64  1  0  0  0
 39 67  2  0  0  0
 40 52  1  0  0  0
 40 53  2  0  0  0
 40 58  1  0  0  0
 41119  1  0  0  0
 41120  1  0  0  0
 41121  1  0  0  0
 41 48  1  0  0  0
 42 43  1  0  0  0
 42 66  1  0  0  0
 42122  1  0  0  0
 42123  1  0  0  0
 43 44  1  0  0  0
 44124  1  0  0  0
 45 46  2  0  0  0
 45125  1  0  0  0
 46126  1  0  0  0
 47127  1  0  0  0
 47128  1  0  0  0
 48 56  1  0  0  0
 48 65  1  0  0  0
 48129  1  0  0  0
 49 50  1  0  0  0
 49 53  1  0  0  0
 49 64  1  0  0  0
 49130  1  0  0  0
 50 51  1  0  0  0
 50131  1  0  0  0
 50132  1  0  0  0
 51 52  1  0  0  0
 51133  1  0  0  0
 51134  1  0  0  0
 52135  1  0  0  0
 52136  1  0  0  0
 53 54  1  0  0  0
 54 55  2  0  0  0
 54137  1  0  0  0
 55 57  1  0  0  0
 55138  1  0  0  0
 56 69  2  0  0  0
 57 58  2  0  0  0
 57139  1  0  0  0
 58140  1  0  0  0
 59 60  1  0  0  0
 59 61  1  0  0  0
 59 62  1  0  0  0
 60141  1  0  0  0
 60142  1  0  0  0
 60143  1  0  0  0
 61144  1  0  0  0
 61145  1  0  0  0
 61146  1  0  0  0
 62147  1  0  0  0
 62148  1  0  0  0
 62149  1  0  0  0
 63 65  1  0  0  0
 63150  1  0  0  0
 63151  1  0  0  0
 63152  1  0  0  0
 64153  1  0  0  0
 65154  1  0  0  0
 68 76  1  0  0  0
 71 72  2  0  0  0
 71 73  1  0  0  0
 71155  1  0  0  0
 72 74  1  0  0  0
 72 93  1  0  0  0
 73 76  2  0  0  0
 73 83  1  0  0  0
 74 75  2  0  0  0
 74 77  1  0  0  0
 75 76  1  0  0  0
 75 82  1  0  0  0
 77156  1  0  0  0
 77157  1  0  0  0
 77158  1  0  0  0
 78 82  1  0  0  0
 78159  1  0  0  0
 78160  1  0  0  0
 78161  1  0  0  0
 79 84  1  0  0  0
 79162  1  0  0  0
 79163  1  0  0  0
 79164  1  0  0  0
 80165  1  0  0  0
 80166  1  0  0  0
 80167  1  0  0  0
 80 93  1  0  0  0
 81 93  1  0  0  0
 81168  1  0  0  0
 81169  1  0  0  0
 81170  1  0  0  0
 82171  1  0  0  0
 82172  1  0  0  0
 83 95  1  0  0  0
 83173  1  0  0  0
 83174  1  0  0  0
 84 93  1  0  0  0
 84175  1  0  0  0
 84176  1  0  0  0
 85 86  1  0  0  0
 85 87  1  0  0  0
 85177  1  0  0  0
 85178  1  0  0  0
 86 88  1  0  0  0
 86179  1  0  0  0
 86180  1  0  0  0
 87 89  1  0  0  0
 87181  1  0  0  0
 87182  1  0  0  0
 88 90  1  0  0  0
 88183  1  0  0  0
 88184  1  0  0  0
 89 91  1  0  0  0
 89185  1  0  0  0
 89186  1  0  0  0
 90 92  1  0  0  0
 90187  1  0  0  0
 90188  1  0  0  0
 91 94  1  0  0  0
 91189  1  0  0  0
 91190  1  0  0  0
 92 95  1  0  0  0
 92191  1  0  0  0
 92192  1  0  0  0
 94193  1  0  0  0
 95194  1  0  0  0
 95195  1  0  0  0
M  CHG  1  95   1
M  ISO  4   1 100  68 101  76 101  94 100
M  END
> <chiral flag>
0

> <version>
0

> <s_m_source_file>
/data/baiqing/PycharmProjects/Reinvent-master-3.2/result/LINK_invent/BTK/process_docking_weight1_custom_sum_contain_oxygen_bond_distance_aromatic_linkinvent_7_9_3/rearranged_h_0024.sdf

> <i_m_source_file_index>
91

> <r_mmod_Potential_Energy-OPLS-2005>
-140.370819091797

> <r_mmod_Stretch_Energy-OPLS-2005>
55.2269744873047

> <r_mmod_Bend_Energy-OPLS-2005>
132.431625366211

> <r_mmod_Torsional_Energy-OPLS-2005>
268.167541503906

> <r_mmod_Improper_Torsional_Energy-OPLS-2005>
3.80291152000427

> <r_mmod_Van_der_Waal_Energy-OPLS-2005>
174.557235717773

> <r_mmod_Electrostatic_Energy-OPLS-2005>
-375.99658203125

> <r_mmod_Solvation_Energy-OPLS-2005>
-416.432830810547

> <b_mmod_Minimization_Converged-OPLS-2005>
0

> <r_mmod_RMS_Derivative-OPLS-2005>
8.2062816619873

$$$$
91
                    3D
 Structure written by MMmdl.
170178  0  0  1  0            999 V2000
  -28.2979  -16.6367   20.8071 C   0  0  0  0  0  0
  -29.8245  -14.1904   19.7490 C   0  0  0  0  0  0
  -29.4419  -13.1172   18.6006 C   0  0  0  0  0  0
  -28.1842  -12.3209   18.9528 C   0  0  0  0  0  0
  -27.3851  -13.2719   19.8347 C   0  0  2  0  0  0
  -28.0942  -13.8425   21.0670 C   0  0  0  0  0  0
  -25.1156  -13.7927   20.5428 C   0  0  0  0  0  0
  -24.0861  -13.0128   20.9384 C   0  0  0  0  0  0
  -24.5648  -11.6653   20.8894 C   0  0  0  0  0  0
  -23.8601  -10.4081   21.0564 C   0  0  0  0  0  0
  -24.3357   -9.4059   21.9269 C   0  0  0  0  0  0
  -23.6148   -8.2048   22.0760 C   0  0  0  0  0  0
  -22.4137   -8.0090   21.3538 C   0  0  0  0  0  0
  -21.9682   -9.0006   20.4644 C   0  0  0  0  0  0
  -22.6881  -10.1927   20.3111 C   0  0  0  0  0  0
  -21.6786   -6.0636   22.5293 C   0  0  0  0  0  0
  -21.3965   -6.5583   23.8214 C   0  0  0  0  0  0
  -21.3636   -5.6754   24.9184 C   0  0  0  0  0  0
  -21.6045   -4.3020   24.7251 C   0  0  0  0  0  0
  -21.8826   -3.8091   23.4381 C   0  0  0  0  0  0
  -21.9177   -4.6884   22.3427 C   0  0  0  0  0  0
  -22.7052  -13.4997   21.2129 C   0  0  0  0  0  0
  -22.1657   -4.2080   21.1004 F   0  0  0  0  0  0
  -21.5637   -3.4520   25.7776 F   0  0  0  0  0  0
  -28.6407  -15.0786   20.5052 N   0  0  0  0  0  0
  -26.1172  -12.8959   20.2624 N   0  0  0  0  0  0
  -25.8396  -11.6168   20.5496 N   0  0  0  0  0  0
  -21.9794  -12.8043   22.0761 N   0  0  0  0  0  0
  -25.2771  -15.1691   20.3588 N   0  0  0  0  0  0
  -29.5997  -16.7907   20.6853 O   0  0  0  0  0  0
  -21.6540   -6.8704   21.4225 O   0  0  0  0  0  0
  -22.2889  -14.5362   20.6955 O   0  0  0  0  0  0
  -24.6797  -31.9379   23.0119 C   0  0  0  0  0  0
  -25.9719  -32.4791   23.7668 C   0  0  1  0  0  0
  -26.5213  -27.8262   21.2273 C   0  0  0  0  0  0
  -25.6607  -33.8586   24.1966 N   0  0  0  0  0  0
  -23.4139  -30.3059   21.2295 C   0  0  2  0  0  0
  -25.1651  -29.3384   19.5748 C   0  0  0  0  0  0
  -23.1037  -28.7058   21.3703 C   0  0  0  0  0  0
  -18.5482  -26.9733   23.2512 C   0  0  0  0  0  0
  -24.1535  -36.7208   23.2641 C   0  0  0  0  0  0
  -25.9067  -31.0857   21.1761 C   0  0  0  0  0  0
  -26.1609  -29.8266   20.4374 C   0  0  0  0  0  0
  -27.1670  -28.9944   20.9171 C   0  0  0  0  0  0
  -26.0518  -27.1429   20.0341 C   0  0  0  0  0  0
  -25.2860  -27.9702   19.1527 C   0  0  0  0  0  0
  -23.8196  -30.1047   19.7165 C   0  0  0  0  0  0
  -25.4216  -36.3049   24.0271 C   0  0  1  0  0  0
  -21.6847  -27.0525   23.4304 C   0  0  2  0  0  0
  -22.1247  -26.2480   21.7920 C   0  0  0  0  0  0
  -20.9751  -25.9403   20.4138 C   0  0  0  0  0  0
  -19.2547  -25.9565   20.6849 C   0  0  0  0  0  0
  -19.7611  -27.5269   24.1107 C   0  0  0  0  0  0
  -19.3078  -28.9086   24.6244 C   0  0  0  0  0  0
  -18.1547  -29.7467   24.3464 C   0  0  0  0  0  0
  -25.9331  -34.9568   23.4850 C   0  0  0  0  0  0
  -17.0388  -29.1142   23.8404 C   0  0  0  0  0  0
  -17.2335  -27.7206   23.5913 C   0  0  0  0  0  0
  -26.5041  -31.6764   25.0344 C   0  0  0  0  0  0
  -25.4286  -31.3819   26.1151 C   0  0  0  0  0  0
  -27.3021  -30.4023   24.6316 C   0  0  0  0  0  0
  -27.5920  -32.5279   25.7471 C   0  0  0  0  0  0
  -27.5620  -37.1828   24.8472 C   0  0  0  0  0  0
  -22.5638  -27.7185   22.2130 N   0  0  0  0  0  0
  -26.4280  -37.3854   23.9486 N   0  0  0  0  0  0
  -24.6387  -31.0581   21.9284 N   0  0  0  0  0  0
  -23.9156  -27.9632   21.2901 O   0  0  0  0  0  0
  -25.8145  -27.9167   22.5601 O   0  0  0  0  0  0
  -26.5723  -34.9208   22.4309 O   0  0  0  0  0  0
  -23.6801  -32.4942   23.4169 O   0  0  0  0  0  0
  -20.1952  -25.2944   22.5977 C   0  0  0  0  0  0
  -18.6031  -24.6726   22.5538 C   0  0  0  0  0  0
  -17.2497  -27.0473   21.1562 C   0  0  0  0  0  0
  -20.1066  -27.6770   21.8209 C   0  0  0  0  0  0
  -17.2634  -25.4821   21.8575 C   0  0  0  0  0  0
  -18.5746  -28.1343   21.1719 C   0  0  0  0  0  0
  -18.3772  -23.2459   23.0070 C   0  0  0  0  0  0
  -15.9571  -27.5183   20.5148 C   0  0  0  0  0  0
  -21.7519  -30.9674   23.9650 C   0  0  0  0  0  0
  -22.2247  -29.1337   25.2402 C   0  0  0  0  0  0
  -21.8493  -23.4031   22.5154 C   0  0  0  0  0  0
  -23.5357  -21.5251   21.6832 C   0  0  0  0  0  0
  -25.4969  -19.7275   21.6548 C   0  0  0  0  0  0
  -24.4042  -28.8475   23.5570 C   0  0  0  0  0  0
  -22.2719  -29.5373   23.6843 C   0  0  0  0  0  0
  -20.7872  -29.1633   22.5010 N   0  0  0  0  0  0
  -26.8076  -17.8573   21.1003 N   0  0  0  0  0  0
  -16.0989  -24.7927   21.8136 F   0  0  0  0  0  0
  -18.3615  -29.7505   20.5952 Cl  0  0  0  0  0  0
  -30.4801  -14.9112   19.2603 H   0  0  0  0  0  0
  -30.4899  -13.7326   20.4862 H   0  0  0  0  0  0
  -30.2782  -12.4536   18.3763 H   0  0  0  0  0  0
  -29.2417  -13.6717   17.6826 H   0  0  0  0  0  0
  -28.4420  -11.4197   19.5112 H   0  0  0  0  0  0
  -27.6346  -12.0136   18.0619 H   0  0  0  0  0  0
  -27.1582  -14.0648   19.1153 H   0  0  0  0  0  0
  -28.7751  -13.1401   21.5523 H   0  0  0  0  0  0
  -27.4100  -14.1504   21.8595 H   0  0  0  0  0  0
  -25.2490   -9.5619   22.4835 H   0  0  0  0  0  0
  -23.9908   -7.4424   22.7443 H   0  0  0  0  0  0
  -21.0629   -8.8437   19.8947 H   0  0  0  0  0  0
  -22.3301  -10.9468   19.6240 H   0  0  0  0  0  0
  -21.1939   -7.6091   23.9694 H   0  0  0  0  0  0
  -21.1461   -6.0493   25.9084 H   0  0  0  0  0  0
  -22.0643   -2.7557   23.2896 H   0  0  0  0  0  0
  -22.3422  -11.9669   22.5062 H   0  0  0  0  0  0
  -21.0467  -13.1112   22.3134 H   0  0  0  0  0  0
  -24.3876  -15.6575   20.3245 H   0  0  0  0  0  0
  -25.8374  -15.3904   19.5443 H   0  0  0  0  0  0
  -26.8296  -32.6093   23.1172 H   0  0  0  0  0  0
  -25.0764  -33.9541   25.0132 H   0  0  0  0  0  0
  -22.5039  -30.9007   21.2471 H   0  0  0  0  0  0
  -23.3906  -35.9424   23.3187 H   0  0  0  0  0  0
  -24.3595  -36.9006   22.2080 H   0  0  0  0  0  0
  -23.7167  -37.6276   23.6820 H   0  0  0  0  0  0
  -25.8729  -31.9076   20.4590 H   0  0  0  0  0  0
  -26.8099  -31.2406   21.7469 H   0  0  0  0  0  0
  -27.7862  -29.4138   21.6970 H   0  0  0  0  0  0
  -25.7456  -26.1084   20.0753 H   0  0  0  0  0  0
  -24.5478  -27.5093   18.5105 H   0  0  0  0  0  0
  -23.9364  -31.0851   19.2546 H   0  0  0  0  0  0
  -23.0437  -29.6248   19.1107 H   0  0  0  0  0  0
  -25.1417  -36.1732   25.0749 H   0  0  0  0  0  0
  -22.3021  -26.5890   24.2009 H   0  0  0  0  0  0
  -22.5571  -25.4367   22.3191 H   0  0  0  0  0  0
  -23.0838  -25.9238   21.3090 H   0  0  0  0  0  0
  -21.2396  -24.9918   19.9450 H   0  0  0  0  0  0
  -21.2032  -26.6759   19.6403 H   0  0  0  0  0  0
  -18.9489  -26.4105   19.7258 H   0  0  0  0  0  0
  -18.9809  -24.9472   20.3298 H   0  0  0  0  0  0
  -19.9379  -29.4338   25.2917 H   0  0  0  0  0  0
  -18.0900  -30.7592   24.7197 H   0  0  0  0  0  0
  -16.0664  -29.5869   23.8038 H   0  0  0  0  0  0
  -16.2910  -27.2654   23.3232 H   0  0  0  0  0  0
  -24.8519  -30.4880   25.9342 H   0  0  0  0  0  0
  -24.7207  -32.2048   26.2201 H   0  0  0  0  0  0
  -25.8809  -31.2293   27.0965 H   0  0  0  0  0  0
  -26.7958  -29.5441   24.2288 H   0  0  0  0  0  0
  -27.8492  -30.0062   25.4894 H   0  0  0  0  0  0
  -28.0591  -30.6590   23.8872 H   0  0  0  0  0  0
  -27.1856  -33.4311   26.2055 H   0  0  0  0  0  0
  -28.3710  -32.8439   25.0508 H   0  0  0  0  0  0
  -28.0870  -31.9832   26.5533 H   0  0  0  0  0  0
  -28.2552  -38.0207   24.7642 H   0  0  0  0  0  0
  -28.1214  -36.2750   24.6159 H   0  0  0  0  0  0
  -27.2353  -37.1280   25.8865 H   0  0  0  0  0  0
  -21.7761  -28.4135   22.2683 H   0  0  0  0  0  0
  -26.0076  -38.2848   24.1663 H   0  0  0  0  0  0
  -18.8774  -23.0542   23.9571 H   0  0  0  0  0  0
  -18.7534  -22.5431   22.2646 H   0  0  0  0  0  0
  -17.3127  -23.0530   23.1456 H   0  0  0  0  0  0
  -15.1163  -26.9039   20.8361 H   0  0  0  0  0  0
  -16.0249  -27.4557   19.4290 H   0  0  0  0  0  0
  -15.7416  -28.5508   20.7917 H   0  0  0  0  0  0
  -22.2479  -31.4883   24.7877 H   0  0  0  0  0  0
  -20.7184  -30.9961   24.2834 H   0  0  0  0  0  0
  -21.6550  -31.5742   23.0681 H   0  0  0  0  0  0
  -23.2209  -29.1292   25.6660 H   0  0  0  0  0  0
  -21.8293  -28.1668   25.5236 H   0  0  0  0  0  0
  -21.7504  -29.8195   25.9455 H   0  0  0  0  0  0
  -21.1317  -22.6922   22.9208 H   0  0  0  0  0  0
  -22.4067  -23.6834   23.4118 H   0  0  0  0  0  0
  -22.7817  -20.8974   21.2076 H   0  0  0  0  0  0
  -23.9425  -22.1158   20.8620 H   0  0  0  0  0  0
  -25.3734  -19.4115   22.6904 H   0  0  0  0  0  0
  -26.3275  -20.4317   21.7018 H   0  0  0  0  0  0
  -24.3910  -28.0606   24.3111 H   0  0  0  0  0  0
  -24.8769  -29.6354   24.0876 H   0  0  0  0  0  0
  -20.1325  -29.9367   22.4091 H   0  0  0  0  0  0
  -26.0812  -17.1563   20.9812 H   0  0  0  0  0  0
  1 25  1  0  0  0
  1 30  2  0  0  0
  1 87  1  0  0  0
  2  3  1  0  0  0
  2 25  1  0  0  0
  2 90  1  0  0  0
  2 91  1  0  0  0
  3  4  1  0  0  0
  3 92  1  0  0  0
  3 93  1  0  0  0
  4  5  1  0  0  0
  4 94  1  0  0  0
  4 95  1  0  0  0
  5  6  1  0  0  0
  5 26  1  0  0  0
  5 96  1  0  0  0
  6 25  1  0  0  0
  6 97  1  0  0  0
  6 98  1  0  0  0
  7  8  2  0  0  0
  7 26  1  0  0  0
  7 29  1  0  0  0
  8  9  1  0  0  0
  8 22  1  0  0  0
  9 10  1  0  0  0
  9 27  2  0  0  0
 10 11  2  0  0  0
 10 15  1  0  0  0
 11 12  1  0  0  0
 11 99  1  0  0  0
 12 13  2  0  0  0
 12100  1  0  0  0
 13 14  1  0  0  0
 13 31  1  0  0  0
 14 15  2  0  0  0
 14101  1  0  0  0
 15102  1  0  0  0
 16 17  2  0  0  0
 16 21  1  0  0  0
 16 31  1  0  0  0
 17 18  1  0  0  0
 17103  1  0  0  0
 18 19  2  0  0  0
 18104  1  0  0  0
 19 20  1  0  0  0
 19 24  1  0  0  0
 20 21  2  0  0  0
 20105  1  0  0  0
 21 23  1  0  0  0
 22 28  1  0  0  0
 22 32  2  0  0  0
 26 27  1  0  0  0
 28106  1  0  0  0
 28107  1  0  0  0
 29108  1  0  0  0
 29109  1  0  0  0
 33 34  1  0  0  0
 33 66  1  0  0  0
 33 70  2  0  0  0
 34 36  1  0  0  0
 34 59  1  0  0  0
 34110  1  0  0  0
 35 44  2  0  0  0
 35 45  1  0  0  0
 35 68  1  0  0  0
 36 56  1  0  0  0
 36111  1  0  0  0
 37 39  1  0  0  0
 37 47  1  0  0  0
 37 66  1  0  0  0
 37112  1  0  0  0
 38 43  2  0  0  0
 38 46  1  0  0  0
 38 47  1  0  0  0
 39 64  1  0  0  0
 39 67  2  0  0  0
 40 52  1  0  0  0
 40 53  2  0  0  0
 40 58  1  0  0  0
 41113  1  0  0  0
 41114  1  0  0  0
 41115  1  0  0  0
 41 48  1  0  0  0
 42 43  1  0  0  0
 42 66  1  0  0  0
 42116  1  0  0  0
 42117  1  0  0  0
 43 44  1  0  0  0
 44118  1  0  0  0
 45 46  2  0  0  0
 45119  1  0  0  0
 46120  1  0  0  0
 47121  1  0  0  0
 47122  1  0  0  0
 48 56  1  0  0  0
 48 65  1  0  0  0
 48123  1  0  0  0
 49 50  1  0  0  0
 49 53  1  0  0  0
 49 64  1  0  0  0
 49124  1  0  0  0
 50 51  1  0  0  0
 50125  1  0  0  0
 50126  1  0  0  0
 51 52  1  0  0  0
 51127  1  0  0  0
 51128  1  0  0  0
 52129  1  0  0  0
 52130  1  0  0  0
 53 54  1  0  0  0
 54 55  2  0  0  0
 54131  1  0  0  0
 55 57  1  0  0  0
 55132  1  0  0  0
 56 69  2  0  0  0
 57 58  2  0  0  0
 57133  1  0  0  0
 58134  1  0  0  0
 59 60  1  0  0  0
 59 61  1  0  0  0
 59 62  1  0  0  0
 60135  1  0  0  0
 60136  1  0  0  0
 60137  1  0  0  0
 61138  1  0  0  0
 61139  1  0  0  0
 61140  1  0  0  0
 62141  1  0  0  0
 62142  1  0  0  0
 62143  1  0  0  0
 63 65  1  0  0  0
 63144  1  0  0  0
 63145  1  0  0  0
 63146  1  0  0  0
 64147  1  0  0  0
 65148  1  0  0  0
 68 84  1  0  0  0
 71 72  2  0  0  0
 71 74  1  0  0  0
 71 81  1  0  0  0
 72 75  1  0  0  0
 72 77  1  0  0  0
 73 75  2  0  0  0
 73 76  1  0  0  0
 73 78  1  0  0  0
 74 76  2  0  0  0
 74 86  1  0  0  0
 75 88  1  0  0  0
 76 89  1  0  0  0
 77149  1  0  0  0
 77150  1  0  0  0
 77151  1  0  0  0
 78152  1  0  0  0
 78153  1  0  0  0
 78154  1  0  0  0
 79155  1  0  0  0
 79156  1  0  0  0
 79157  1  0  0  0
 79 85  1  0  0  0
 80 85  1  0  0  0
 80158  1  0  0  0
 80159  1  0  0  0
 80160  1  0  0  0
 81 82  1  0  0  0
 81161  1  0  0  0
 81162  1  0  0  0
 82 83  1  0  0  0
 82163  1  0  0  0
 82164  1  0  0  0
 83 87  1  0  0  0
 83165  1  0  0  0
 83166  1  0  0  0
 84 85  1  0  0  0
 84167  1  0  0  0
 84168  1  0  0  0
 85 86  1  0  0  0
 86169  1  0  0  0
 87170  1  0  0  0
M  ISO  4   1 100  68 101  84 101  87 100
M  END
> <chiral flag>
0

> <version>
0

> <s_m_source_file>
/data/baiqing/PycharmProjects/Reinvent-master-3.2/result/LINK_invent/BTK/process_docking_weight1_custom_sum_contain_oxygen_bond_distance_aromatic_linkinvent_7_9_3/rearranged_h_0024.sdf

> <i_m_source_file_index>
92

> <r_mmod_Potential_Energy-OPLS-2005>
31486.82421875

> <r_mmod_Stretch_Energy-OPLS-2005>
14945.9169921875

> <r_mmod_Bend_Energy-OPLS-2005>
3161.54467773438

> <r_mmod_Torsional_Energy-OPLS-2005>
816.197265625

> <r_mmod_Improper_Torsional_Energy-OPLS-2005>
143.330871582031

> <r_mmod_Van_der_Waal_Energy-OPLS-2005>
4381.328125

> <r_mmod_Electrostatic_Energy-OPLS-2005>
-483.323883056641

> <r_mmod_Solvation_Energy-OPLS-2005>
-186.643981933594

> <b_mmod_Minimization_Converged-OPLS-2005>
0

> <r_mmod_RMS_Derivative-OPLS-2005>
4.46015977859497

$$$$
92
                    3D
 Structure written by MMmdl.
168176  0  0  1  0            999 V2000
  -30.6586  -14.4739   20.5184 C   0  0  0  0  0  0
  -30.4278  -12.2957   19.4187 C   0  0  0  0  0  0
  -29.4940  -12.4576   18.2033 C   0  0  0  0  0  0
  -28.0122  -12.3439   18.6258 C   0  0  0  0  0  0
  -27.6522  -13.1980   19.8714 C   0  0  2  0  0  0
  -28.6966  -12.9969   20.9931 C   0  0  0  0  0  0
  -25.2509  -13.8122   20.5626 C   0  0  0  0  0  0
  -24.1807  -13.0388   20.9198 C   0  0  0  0  0  0
  -24.6398  -11.6878   20.8847 C   0  0  0  0  0  0
  -23.9068  -10.4270   21.0500 C   0  0  0  0  0  0
  -24.3603   -9.4148   21.9253 C   0  0  0  0  0  0
  -23.6279   -8.2183   22.0790 C   0  0  0  0  0  0
  -22.4254   -8.0279   21.3567 C   0  0  0  0  0  0
  -21.9913   -9.0260   20.4679 C   0  0  0  0  0  0
  -22.7254  -10.2132   20.3127 C   0  0  0  0  0  0
  -21.6856   -6.0750   22.5302 C   0  0  0  0  0  0
  -21.3999   -6.5635   23.8231 C   0  0  0  0  0  0
  -21.3667   -5.6787   24.9183 C   0  0  0  0  0  0
  -21.6047   -4.3045   24.7252 C   0  0  0  0  0  0
  -21.8813   -3.8148   23.4367 C   0  0  0  0  0  0
  -21.9172   -4.6977   22.3416 C   0  0  0  0  0  0
  -22.7818  -13.5143   21.1843 C   0  0  0  0  0  0
  -22.1655   -4.2153   21.1021 F   0  0  0  0  0  0
  -21.5627   -3.4527   25.7748 F   0  0  0  0  0  0
  -30.0121  -13.2886   20.4191 N   0  0  0  0  0  0
  -26.2960  -12.9291   20.3343 N   0  0  0  0  0  0
  -25.9304  -11.6469   20.5852 N   0  0  0  0  0  0
  -22.0482  -12.8184   22.0440 N   0  0  0  0  0  0
  -25.4075  -15.1852   20.3976 N   0  0  0  0  0  0
  -31.8426  -14.6134   20.2092 O   0  0  0  0  0  0
  -21.6638   -6.8864   21.4246 O   0  0  0  0  0  0
  -22.3492  -14.5423   20.6661 O   0  0  0  0  0  0
  -24.6081  -31.8683   23.2066 C   0  0  0  0  0  0
  -25.9008  -32.4815   23.8330 C   0  0  1  0  0  0
  -27.2416  -27.4617   20.0889 C   0  0  0  0  0  0
  -25.5856  -33.8590   24.2244 N   0  0  0  0  0  0
  -23.3965  -30.4920   21.5456 C   0  0  2  0  0  0
  -24.8465  -28.9498   20.1155 C   0  0  0  0  0  0
  -22.7405  -29.4673   22.4967 C   0  0  0  0  0  0
  -18.0300  -28.1358   22.8506 C   0  0  0  0  0  0
  -24.1505  -36.7288   23.2631 C   0  0  0  0  0  0
  -25.9195  -30.8311   21.3701 C   0  0  0  0  0  0
  -25.9985  -29.4662   20.7270 C   0  0  0  0  0  0
  -27.1931  -28.7170   20.7326 C   0  0  0  0  0  0
  -26.0769  -26.9473   19.4848 C   0  0  0  0  0  0
  -24.8767  -27.6897   19.4985 C   0  0  0  0  0  0
  -23.6040  -29.8121   20.1645 C   0  0  0  0  0  0
  -25.4143  -36.3093   24.0308 C   0  0  1  0  0  0
  -20.5871  -28.3646   23.1307 C   0  0  2  0  0  0
  -20.6776  -26.9357   22.5408 C   0  0  0  0  0  0
  -19.5751  -26.6365   21.5209 C   0  0  0  0  0  0
  -18.1930  -26.7927   22.1627 C   0  0  0  0  0  0
  -19.1521  -28.8823   23.2923 C   0  0  0  0  0  0
  -18.9468  -30.1436   23.8909 C   0  0  0  0  0  0
  -17.6473  -30.6559   24.0578 C   0  0  0  0  0  0
  -25.9044  -34.9449   23.5082 C   0  0  0  0  0  0
  -16.5366  -29.9065   23.6320 C   0  0  0  0  0  0
  -16.7293  -28.6482   23.0348 C   0  0  0  0  0  0
  -26.4453  -31.6585   25.0644 C   0  0  0  0  0  0
  -25.3673  -31.3698   26.1360 C   0  0  0  0  0  0
  -27.0273  -30.3027   24.6008 C   0  0  0  0  0  0
  -27.6045  -32.4320   25.7367 C   0  0  0  0  0  0
  -27.5613  -37.1787   24.8462 C   0  0  0  0  0  0
  -21.4127  -29.3033   22.3710 N   0  0  0  0  0  0
  -26.4327  -37.3769   23.9389 N   0  0  0  0  0  0
  -24.6583  -31.0803   22.0957 N   0  0  0  0  0  0
  -23.4182  -28.8203   23.3015 O   0  0  0  0  0  0
  -28.4289  -26.7680   20.0805 O   0  0  0  0  0  0
  -26.5630  -34.8894   22.4656 O   0  0  0  0  0  0
  -23.5288  -32.1459   23.7452 O   0  0  0  0  0  0
  -28.5858  -20.6498   19.1744 C   0  0  0  0  0  0
  -28.1004  -21.6509   18.2770 C   0  0  0  0  0  0
  -27.6967  -19.9709   20.0640 C   0  0  0  0  0  0
  -25.8060  -21.1554   19.0240 C   0  0  0  0  0  0
  -26.6962  -21.8364   18.1687 C   0  0  0  0  0  0
  -26.3044  -20.2518   19.9963 C   0  0  0  0  0  0
  -30.0352  -20.1783   19.1332 C   0  0  0  0  0  0
  -24.3033  -21.4232   18.8966 C   0  0  0  0  0  0
  -29.0440  -22.4970   17.3899 C   0  0  0  0  0  0
  -28.2319  -18.9200   21.0743 C   0  0  0  0  0  0
  -28.9269  -24.0397   17.4916 C   0  0  0  0  0  0
  -28.7715  -17.6345   20.3839 C   0  0  0  0  0  0
  -28.7341  -24.6305   18.8987 C   0  0  0  0  0  0
  -28.9599  -16.3073   21.1527 C   0  0  0  0  0  0
  -28.8113  -26.1641   18.8496 C   0  0  0  0  0  0
  -29.8794  -15.5371   20.2981 N   0  0  0  0  0  0
  -26.0333  -22.8846   16.9544 Cl  0  0  0  0  0  0
  -25.2092  -19.4757   21.0926 Cl  0  0  0  0  0  0
  -31.4682  -12.4173   19.1078 H   0  0  0  0  0  0
  -30.3565  -11.2868   19.8292 H   0  0  0  0  0  0
  -29.7255  -11.7014   17.4507 H   0  0  0  0  0  0
  -29.6625  -13.4269   17.7342 H   0  0  0  0  0  0
  -27.8159  -11.2925   18.8331 H   0  0  0  0  0  0
  -27.3628  -12.6128   17.7943 H   0  0  0  0  0  0
  -27.6777  -14.2362   19.5533 H   0  0  0  0  0  0
  -28.6735  -11.9662   21.3513 H   0  0  0  0  0  0
  -28.4990  -13.6232   21.8645 H   0  0  0  0  0  0
  -25.2770   -9.5558   22.4825 H   0  0  0  0  0  0
  -23.9994   -7.4530   22.7459 H   0  0  0  0  0  0
  -21.0878   -8.8779   19.8950 H   0  0  0  0  0  0
  -22.3770  -10.9676   19.6233 H   0  0  0  0  0  0
  -21.2016   -7.6145   23.9718 H   0  0  0  0  0  0
  -21.1494   -6.0542   25.9066 H   0  0  0  0  0  0
  -22.0614   -2.7619   23.2895 H   0  0  0  0  0  0
  -22.4080  -11.9877   22.4880 H   0  0  0  0  0  0
  -21.1117  -13.1222   22.2643 H   0  0  0  0  0  0
  -24.6245  -15.8234   20.4935 H   0  0  0  0  0  0
  -26.2461  -15.6352   20.0520 H   0  0  0  0  0  0
  -26.7047  -32.5528   23.1077 H   0  0  0  0  0  0
  -25.0018  -33.9748   25.0394 H   0  0  0  0  0  0
  -22.6831  -31.3021   21.3980 H   0  0  0  0  0  0
  -23.3773  -35.9617   23.3330 H   0  0  0  0  0  0
  -24.3582  -36.8890   22.2042 H   0  0  0  0  0  0
  -23.7248  -37.6479   23.6639 H   0  0  0  0  0  0
  -26.0332  -31.5928   20.5956 H   0  0  0  0  0  0
  -26.8052  -30.8823   21.9888 H   0  0  0  0  0  0
  -28.0788  -29.0977   21.2225 H   0  0  0  0  0  0
  -26.0899  -25.9781   19.0037 H   0  0  0  0  0  0
  -23.9975  -27.2885   19.0170 H   0  0  0  0  0  0
  -23.6881  -30.5691   19.3862 H   0  0  0  0  0  0
  -22.7369  -29.2131   19.8847 H   0  0  0  0  0  0
  -25.1324  -36.1975   25.0809 H   0  0  0  0  0  0
  -21.0000  -28.3246   24.1424 H   0  0  0  0  0  0
  -20.5662  -26.2254   23.3609 H   0  0  0  0  0  0
  -21.6647  -26.7396   22.1193 H   0  0  0  0  0  0
  -19.6904  -25.6283   21.1234 H   0  0  0  0  0  0
  -19.6690  -27.3176   20.6750 H   0  0  0  0  0  0
  -17.4200  -26.6679   21.4041 H   0  0  0  0  0  0
  -18.0346  -26.0004   22.8972 H   0  0  0  0  0  0
  -19.7919  -30.7268   24.2235 H   0  0  0  0  0  0
  -17.5007  -31.6231   24.5170 H   0  0  0  0  0  0
  -15.5340  -30.2993   23.7595 H   0  0  0  0  0  0
  -15.8709  -28.0822   22.7046 H   0  0  0  0  0  0
  -24.5855  -30.7062   25.7662 H   0  0  0  0  0  0
  -24.8809  -32.2839   26.4770 H   0  0  0  0  0  0
  -25.7955  -30.8841   27.0139 H   0  0  0  0  0  0
  -26.2776  -29.6796   24.1101 H   0  0  0  0  0  0
  -27.4112  -29.7288   25.4457 H   0  0  0  0  0  0
  -27.8599  -30.4341   23.9073 H   0  0  0  0  0  0
  -27.2663  -33.3631   26.1940 H   0  0  0  0  0  0
  -28.3808  -32.6897   25.0138 H   0  0  0  0  0  0
  -28.0743  -31.8427   26.5257 H   0  0  0  0  0  0
  -28.2632  -38.0094   24.7543 H   0  0  0  0  0  0
  -28.1091  -36.2605   24.6279 H   0  0  0  0  0  0
  -27.2272  -37.1446   25.8848 H   0  0  0  0  0  0
  -20.9275  -29.8738   21.6907 H   0  0  0  0  0  0
  -26.0243  -38.2853   24.1407 H   0  0  0  0  0  0
  -30.3773  -19.9189   20.1336 H   0  0  0  0  0  0
  -30.8009  -20.8446   18.7499 H   0  0  0  0  0  0
  -30.0482  -19.2757   18.5145 H   0  0  0  0  0  0
  -23.9869  -21.4814   17.8519 H   0  0  0  0  0  0
  -24.0465  -22.3757   19.3586 H   0  0  0  0  0  0
  -23.6828  -20.6631   19.3560 H   0  0  0  0  0  0
  -28.9165  -22.1898   16.3522 H   0  0  0  0  0  0
  -30.0902  -22.3063   17.5909 H   0  0  0  0  0  0
  -27.5193  -18.6820   21.8621 H   0  0  0  0  0  0
  -29.0472  -19.3809   21.6417 H   0  0  0  0  0  0
  -28.1092  -24.3988   16.8735 H   0  0  0  0  0  0
  -29.8067  -24.4819   17.0284 H   0  0  0  0  0  0
  -29.7747  -17.8520   20.0382 H   0  0  0  0  0  0
  -28.1804  -17.4346   19.4899 H   0  0  0  0  0  0
  -27.7787  -24.3170   19.3192 H   0  0  0  0  0  0
  -29.5043  -24.2559   19.5747 H   0  0  0  0  0  0
  -28.0032  -15.8057   21.2943 H   0  0  0  0  0  0
  -29.4011  -16.4639   22.1371 H   0  0  0  0  0  0
  -28.2332  -26.5553   18.0094 H   0  0  0  0  0  0
  -29.8407  -26.4636   18.6519 H   0  0  0  0  0  0
  -30.4109  -16.1792   19.7255 H   0  0  0  0  0  0
  1 25  1  0  0  0
  1 30  2  0  0  0
  1 86  1  0  0  0
  2  3  1  0  0  0
  2 25  1  0  0  0
  2 89  1  0  0  0
  2 90  1  0  0  0
  3  4  1  0  0  0
  3 91  1  0  0  0
  3 92  1  0  0  0
  4  5  1  0  0  0
  4 93  1  0  0  0
  4 94  1  0  0  0
  5  6  1  0  0  0
  5 26  1  0  0  0
  5 95  1  0  0  0
  6 25  1  0  0  0
  6 96  1  0  0  0
  6 97  1  0  0  0
  7  8  2  0  0  0
  7 26  1  0  0  0
  7 29  1  0  0  0
  8  9  1  0  0  0
  8 22  1  0  0  0
  9 10  1  0  0  0
  9 27  2  0  0  0
 10 11  2  0  0  0
 10 15  1  0  0  0
 11 12  1  0  0  0
 11 98  1  0  0  0
 12 13  2  0  0  0
 12 99  1  0  0  0
 13 14  1  0  0  0
 13 31  1  0  0  0
 14 15  2  0  0  0
 14100  1  0  0  0
 15101  1  0  0  0
 16 17  2  0  0  0
 16 21  1  0  0  0
 16 31  1  0  0  0
 17 18  1  0  0  0
 17102  1  0  0  0
 18 19  2  0  0  0
 18103  1  0  0  0
 19 20  1  0  0  0
 19 24  1  0  0  0
 20 21  2  0  0  0
 20104  1  0  0  0
 21 23  1  0  0  0
 22 28  1  0  0  0
 22 32  2  0  0  0
 26 27  1  0  0  0
 28105  1  0  0  0
 28106  1  0  0  0
 29107  1  0  0  0
 29108  1  0  0  0
 33 34  1  0  0  0
 33 66  1  0  0  0
 33 70  2  0  0  0
 34 36  1  0  0  0
 34 59  1  0  0  0
 34109  1  0  0  0
 35 44  2  0  0  0
 35 45  1  0  0  0
 35 68  1  0  0  0
 36 56  1  0  0  0
 36110  1  0  0  0
 37 39  1  0  0  0
 37 47  1  0  0  0
 37 66  1  0  0  0
 37111  1  0  0  0
 38 43  2  0  0  0
 38 46  1  0  0  0
 38 47  1  0  0  0
 39 64  1  0  0  0
 39 67  2  0  0  0
 40 52  1  0  0  0
 40 53  2  0  0  0
 40 58  1  0  0  0
 41112  1  0  0  0
 41113  1  0  0  0
 41114  1  0  0  0
 41 48  1  0  0  0
 42 43  1  0  0  0
 42 66  1  0  0  0
 42115  1  0  0  0
 42116  1  0  0  0
 43 44  1  0  0  0
 44117  1  0  0  0
 45 46  2  0  0  0
 45118  1  0  0  0
 46119  1  0  0  0
 47120  1  0  0  0
 47121  1  0  0  0
 48 56  1  0  0  0
 48 65  1  0  0  0
 48122  1  0  0  0
 49 50  1  0  0  0
 49 53  1  0  0  0
 49 64  1  0  0  0
 49123  1  0  0  0
 50 51  1  0  0  0
 50124  1  0  0  0
 50125  1  0  0  0
 51 52  1  0  0  0
 51126  1  0  0  0
 51127  1  0  0  0
 52128  1  0  0  0
 52129  1  0  0  0
 53 54  1  0  0  0
 54 55  2  0  0  0
 54130  1  0  0  0
 55 57  1  0  0  0
 55131  1  0  0  0
 56 69  2  0  0  0
 57 58  2  0  0  0
 57132  1  0  0  0
 58133  1  0  0  0
 59 60  1  0  0  0
 59 61  1  0  0  0
 59 62  1  0  0  0
 60134  1  0  0  0
 60135  1  0  0  0
 60136  1  0  0  0
 61137  1  0  0  0
 61138  1  0  0  0
 61139  1  0  0  0
 62140  1  0  0  0
 62141  1  0  0  0
 62142  1  0  0  0
 63 65  1  0  0  0
 63143  1  0  0  0
 63144  1  0  0  0
 63145  1  0  0  0
 64146  1  0  0  0
 65147  1  0  0  0
 68 85  1  0  0  0
 71 72  2  0  0  0
 71 73  1  0  0  0
 71 77  1  0  0  0
 72 75  1  0  0  0
 72 79  1  0  0  0
 73 76  2  0  0  0
 73 80  1  0  0  0
 74 75  2  0  0  0
 74 76  1  0  0  0
 74 78  1  0  0  0
 75 87  1  0  0  0
 76 88  1  0  0  0
 77148  1  0  0  0
 77149  1  0  0  0
 77150  1  0  0  0
 78151  1  0  0  0
 78152  1  0  0  0
 78153  1  0  0  0
 79 81  1  0  0  0
 79154  1  0  0  0
 79155  1  0  0  0
 80 82  1  0  0  0
 80156  1  0  0  0
 80157  1  0  0  0
 81 83  1  0  0  0
 81158  1  0  0  0
 81159  1  0  0  0
 82 84  1  0  0  0
 82160  1  0  0  0
 82161  1  0  0  0
 83 85  1  0  0  0
 83162  1  0  0  0
 83163  1  0  0  0
 84 86  1  0  0  0
 84164  1  0  0  0
 84165  1  0  0  0
 85166  1  0  0  0
 85167  1  0  0  0
 86168  1  0  0  0
M  ISO  4   1 100  68 101  85 101  86 100
M  END
> <chiral flag>
0

> <version>
0

> <s_m_source_file>
/data/baiqing/PycharmProjects/Reinvent-master-3.2/result/LINK_invent/BTK/process_docking_weight1_custom_sum_contain_oxygen_bond_distance_aromatic_linkinvent_7_9_3/rearranged_h_0024.sdf

> <i_m_source_file_index>
93

> <r_mmod_Potential_Energy-OPLS-2005>
115.000991821289

> <r_mmod_Stretch_Energy-OPLS-2005>
41.3222808837891

> <r_mmod_Bend_Energy-OPLS-2005>
140.911270141602

> <r_mmod_Torsional_Energy-OPLS-2005>
282.766265869141

> <r_mmod_Improper_Torsional_Energy-OPLS-2005>
28.1991539001465

> <r_mmod_Van_der_Waal_Energy-OPLS-2005>
184.099639892578

> <r_mmod_Electrostatic_Energy-OPLS-2005>
-387.063812255859

> <r_mmod_Solvation_Energy-OPLS-2005>
-192.167724609375

> <b_mmod_Minimization_Converged-OPLS-2005>
0

> <r_mmod_RMS_Derivative-OPLS-2005>
8.57837009429932

$$$$
93
                    3D
 Structure written by MMmdl.
175184  0  0  1  0            999 V2000
  -30.6440  -14.6706   20.4656 C   0  0  0  0  0  0
  -30.4251  -12.4055   19.4690 C   0  0  0  0  0  0
  -29.5055  -12.4992   18.2322 C   0  0  0  0  0  0
  -28.0298  -12.3374   18.6442 C   0  0  0  0  0  0
  -27.6459  -13.2275   19.8569 C   0  0  2  0  0  0
  -28.6904  -13.1349   20.9923 C   0  0  0  0  0  0
  -25.2522  -13.8195   20.5695 C   0  0  0  0  0  0
  -24.1806  -13.0443   20.9202 C   0  0  0  0  0  0
  -24.6391  -11.6917   20.8747 C   0  0  0  0  0  0
  -23.9067  -10.4295   21.0406 C   0  0  0  0  0  0
  -24.3617   -9.4211   21.9185 C   0  0  0  0  0  0
  -23.6293   -8.2246   22.0755 C   0  0  0  0  0  0
  -22.4277   -8.0281   21.3545 C   0  0  0  0  0  0
  -21.9914   -9.0253   20.4644 C   0  0  0  0  0  0
  -22.7241  -10.2133   20.3054 C   0  0  0  0  0  0
  -21.6853   -6.0734   22.5277 C   0  0  0  0  0  0
  -21.4012   -6.5638   23.8210 C   0  0  0  0  0  0
  -21.3659   -5.6792   24.9174 C   0  0  0  0  0  0
  -21.6044   -4.3055   24.7226 C   0  0  0  0  0  0
  -21.8821   -3.8146   23.4347 C   0  0  0  0  0  0
  -21.9194   -4.6962   22.3402 C   0  0  0  0  0  0
  -22.7829  -13.5227   21.1862 C   0  0  0  0  0  0
  -22.1663   -4.2148   21.0980 F   0  0  0  0  0  0
  -21.5630   -3.4539   25.7739 F   0  0  0  0  0  0
  -30.0010  -13.4596   20.4157 N   0  0  0  0  0  0
  -26.2956  -12.9398   20.3313 N   0  0  0  0  0  0
  -25.9323  -11.6541   20.5767 N   0  0  0  0  0  0
  -22.0476  -12.8209   22.0415 N   0  0  0  0  0  0
  -25.4211  -15.1920   20.4107 N   0  0  0  0  0  0
  -31.8241  -14.7654   20.1198 O   0  0  0  0  0  0
  -21.6641   -6.8878   21.4241 O   0  0  0  0  0  0
  -22.3512  -14.5532   20.6713 O   0  0  0  0  0  0
  -24.6292  -31.8576   23.2010 C   0  0  0  0  0  0
  -25.9131  -32.4766   23.8344 C   0  0  1  0  0  0
  -27.2209  -27.2880   20.1090 C   0  0  0  0  0  0
  -25.5942  -33.8567   24.2273 N   0  0  0  0  0  0
  -23.4235  -30.4823   21.5450 C   0  0  2  0  0  0
  -24.8677  -28.9358   20.1096 C   0  0  0  0  0  0
  -22.7490  -29.4611   22.4925 C   0  0  0  0  0  0
  -18.0287  -28.1385   22.8485 C   0  0  0  0  0  0
  -24.1483  -36.7273   23.2643 C   0  0  0  0  0  0
  -25.9682  -30.7769   21.3785 C   0  0  0  0  0  0
  -26.0380  -29.4029   20.7185 C   0  0  0  0  0  0
  -27.2128  -28.5893   20.7117 C   0  0  0  0  0  0
  -26.0215  -26.8859   19.4731 C   0  0  0  0  0  0
  -24.8631  -27.6842   19.4797 C   0  0  0  0  0  0
  -23.6389  -29.8204   20.1595 C   0  0  0  0  0  0
  -25.4112  -36.3072   24.0330 C   0  0  1  0  0  0
  -20.5891  -28.3691   23.1268 C   0  0  2  0  0  0
  -20.6775  -26.9410   22.5402 C   0  0  0  0  0  0
  -19.5748  -26.6382   21.5208 C   0  0  0  0  0  0
  -18.1927  -26.7930   22.1618 C   0  0  0  0  0  0
  -19.1543  -28.8856   23.2871 C   0  0  0  0  0  0
  -18.9471  -30.1459   23.8887 C   0  0  0  0  0  0
  -17.6472  -30.6589   24.0566 C   0  0  0  0  0  0
  -25.9053  -34.9445   23.5099 C   0  0  0  0  0  0
  -16.5359  -29.9087   23.6341 C   0  0  0  0  0  0
  -16.7277  -28.6505   23.0361 C   0  0  0  0  0  0
  -26.4504  -31.6586   25.0727 C   0  0  0  0  0  0
  -25.3728  -31.3721   26.1444 C   0  0  0  0  0  0
  -27.0370  -30.3016   24.6192 C   0  0  0  0  0  0
  -27.6047  -32.4336   25.7512 C   0  0  0  0  0  0
  -27.5571  -37.1794   24.8472 C   0  0  0  0  0  0
  -21.4202  -29.3045   22.3667 N   0  0  0  0  0  0
  -26.4286  -37.3772   23.9413 N   0  0  0  0  0  0
  -24.6926  -31.0565   22.0975 N   0  0  0  0  0  0
  -23.4201  -28.8153   23.3016 O   0  0  0  0  0  0
  -28.3508  -26.4447   20.1871 O   0  0  0  0  0  0
  -26.5623  -34.8918   22.4665 O   0  0  0  0  0  0
  -23.5449  -32.1390   23.7321 O   0  0  0  0  0  0
  -29.6043  -19.7561   20.1663 C   0  0  0  0  0  0
  -29.1967  -21.0357   20.7071 C   0  0  0  0  0  0
  -28.8193  -21.0452   22.0711 C   0  0  0  0  0  0
  -29.6954  -18.5315   20.9240 C   0  0  0  0  0  0
  -29.3588  -18.6191   22.3006 C   0  0  0  0  0  0
  -28.9020  -19.8534   22.8490 C   0  0  0  0  0  0
  -28.3655  -22.3410   22.7483 C   0  0  0  0  0  0
  -29.2047  -22.3792   19.8532 C   0  0  0  0  0  0
  -27.8435  -23.4796   21.8336 C   0  0  0  0  0  0
  -28.8676  -23.7879   20.6569 C   0  0  1  0  0  0
  -29.5293  -17.4029   23.2081 C   0  0  0  0  0  0
  -30.5945  -22.4657   19.1648 C   0  0  0  0  0  0
  -28.2242  -22.1746   18.6664 C   0  0  0  0  0  0
  -26.4351  -23.0552   21.3425 C   0  0  0  0  0  0
  -27.5959  -24.7001   22.7610 C   0  0  0  0  0  0
  -30.1946  -24.3271   21.2726 C   0  0  0  0  0  0
  -30.2888  -17.2146   20.2666 C   0  0  0  0  0  0
  -28.3620  -25.0201   19.7218 C   0  0  0  0  0  0
  -29.8901  -15.8052   20.6632 N   0  0  0  0  0  0
  -28.4672  -19.9212   24.5289 Cl  0  0  0  0  0  0
  -31.4697  -12.5076   19.1699 H   0  0  0  0  0  0
  -30.3445  -11.4227   19.9361 H   0  0  0  0  0  0
  -29.7748  -11.7353   17.5015 H   0  0  0  0  0  0
  -29.6468  -13.4611   17.7368 H   0  0  0  0  0  0
  -27.8723  -11.2873   18.8927 H   0  0  0  0  0  0
  -27.3751  -12.5494   17.7980 H   0  0  0  0  0  0
  -27.6498  -14.2540   19.4902 H   0  0  0  0  0  0
  -28.7055  -12.1336   21.4252 H   0  0  0  0  0  0
  -28.4397  -13.8159   21.8074 H   0  0  0  0  0  0
  -25.2759   -9.5690   22.4762 H   0  0  0  0  0  0
  -24.0001   -7.4641   22.7476 H   0  0  0  0  0  0
  -21.0848   -8.8770   19.8947 H   0  0  0  0  0  0
  -22.3699  -10.9671   19.6161 H   0  0  0  0  0  0
  -21.2001   -7.6146   23.9713 H   0  0  0  0  0  0
  -21.1479   -6.0522   25.9077 H   0  0  0  0  0  0
  -22.0600   -2.7607   23.2848 H   0  0  0  0  0  0
  -22.4095  -11.9865   22.4787 H   0  0  0  0  0  0
  -21.1095  -13.1230   22.2626 H   0  0  0  0  0  0
  -24.6505  -15.8427   20.5158 H   0  0  0  0  0  0
  -26.2666  -15.6343   20.0741 H   0  0  0  0  0  0
  -26.7196  -32.5424   23.1086 H   0  0  0  0  0  0
  -25.0111  -33.9708   25.0434 H   0  0  0  0  0  0
  -22.7186  -31.3038   21.4020 H   0  0  0  0  0  0
  -23.3753  -35.9599   23.3312 H   0  0  0  0  0  0
  -24.3565  -36.8887   22.2054 H   0  0  0  0  0  0
  -23.7226  -37.6471   23.6662 H   0  0  0  0  0  0
  -26.1062  -31.5392   20.6103 H   0  0  0  0  0  0
  -26.8464  -30.8223   22.0108 H   0  0  0  0  0  0
  -28.1089  -28.9413   21.2032 H   0  0  0  0  0  0
  -25.9152  -25.9442   18.9635 H   0  0  0  0  0  0
  -23.9661  -27.3211   18.9969 H   0  0  0  0  0  0
  -23.7626  -30.5982   19.4050 H   0  0  0  0  0  0
  -22.7571  -29.2536   19.8550 H   0  0  0  0  0  0
  -25.1290  -36.1920   25.0822 H   0  0  0  0  0  0
  -20.9980  -28.3271   24.1391 H   0  0  0  0  0  0
  -20.5682  -26.2303   23.3608 H   0  0  0  0  0  0
  -21.6643  -26.7439   22.1192 H   0  0  0  0  0  0
  -19.6911  -25.6292   21.1243 H   0  0  0  0  0  0
  -19.6687  -27.3193   20.6736 H   0  0  0  0  0  0
  -17.4200  -26.6690   21.4017 H   0  0  0  0  0  0
  -18.0312  -26.0071   22.9008 H   0  0  0  0  0  0
  -19.7952  -30.7271   24.2251 H   0  0  0  0  0  0
  -17.5034  -31.6271   24.5168 H   0  0  0  0  0  0
  -15.5362  -30.2992   23.7675 H   0  0  0  0  0  0
  -15.8672  -28.0825   22.7083 H   0  0  0  0  0  0
  -24.5937  -30.7030   25.7775 H   0  0  0  0  0  0
  -24.8879  -32.2882   26.4825 H   0  0  0  0  0  0
  -25.8050  -30.8946   27.0247 H   0  0  0  0  0  0
  -26.2961  -29.6747   24.1216 H   0  0  0  0  0  0
  -27.4082  -29.7282   25.4695 H   0  0  0  0  0  0
  -27.8816  -30.4314   23.9421 H   0  0  0  0  0  0
  -27.2648  -33.3653   26.2046 H   0  0  0  0  0  0
  -28.3882  -32.6866   25.0359 H   0  0  0  0  0  0
  -28.0684  -31.8492   26.5467 H   0  0  0  0  0  0
  -28.2589  -38.0091   24.7519 H   0  0  0  0  0  0
  -28.1065  -36.2617   24.6303 H   0  0  0  0  0  0
  -27.2285  -37.1449   25.8876 H   0  0  0  0  0  0
  -20.9385  -29.8778   21.6882 H   0  0  0  0  0  0
  -26.0162  -38.2844   24.1422 H   0  0  0  0  0  0
  -29.8978  -19.7101   19.1278 H   0  0  0  0  0  0
  -29.2030  -22.6912   23.3519 H   0  0  0  0  0  0
  -27.5742  -22.1127   23.4626 H   0  0  0  0  0  0
  -30.4428  -16.8606   22.9675 H   0  0  0  0  0  0
  -28.6805  -16.7271   23.1027 H   0  0  0  0  0  0
  -29.6264  -17.6546   24.2622 H   0  0  0  0  0  0
  -31.4114  -22.4259   19.8856 H   0  0  0  0  0  0
  -30.7028  -23.3800   18.5819 H   0  0  0  0  0  0
  -30.7673  -21.6453   18.4691 H   0  0  0  0  0  0
  -27.1849  -22.0800   18.9616 H   0  0  0  0  0  0
  -28.4587  -21.2703   18.1044 H   0  0  0  0  0  0
  -28.2773  -22.9894   17.9455 H   0  0  0  0  0  0
  -26.4281  -22.0557   20.9141 H   0  0  0  0  0  0
  -26.0082  -23.7471   20.6189 H   0  0  0  0  0  0
  -25.7266  -23.0071   22.1703 H   0  0  0  0  0  0
  -28.4877  -25.0225   23.2958 H   0  0  0  0  0  0
  -26.8676  -24.4624   23.5372 H   0  0  0  0  0  0
  -27.1958  -25.5565   22.2241 H   0  0  0  0  0  0
  -30.6955  -23.5867   21.8952 H   0  0  0  0  0  0
  -30.0511  -25.2225   21.8726 H   0  0  0  0  0  0
  -30.9050  -24.6377   20.5076 H   0  0  0  0  0  0
  -31.3706  -17.2992   20.3836 H   0  0  0  0  0  0
  -30.1165  -17.2852   19.1917 H   0  0  0  0  0  0
  -27.4292  -24.7157   19.2706 H   0  0  0  0  0  0
  -29.0388  -25.0559   18.8681 H   0  0  0  0  0  0
  -28.9234  -15.6645   20.9105 H   0  0  0  0  0  0
  1 25  1  0  0  0
  1 30  2  0  0  0
  1 89  1  0  0  0
  2  3  1  0  0  0
  2 25  1  0  0  0
  2 91  1  0  0  0
  2 92  1  0  0  0
  3  4  1  0  0  0
  3 93  1  0  0  0
  3 94  1  0  0  0
  4  5  1  0  0  0
  4 95  1  0  0  0
  4 96  1  0  0  0
  5  6  1  0  0  0
  5 26  1  0  0  0
  5 97  1  0  0  0
  6 25  1  0  0  0
  6 98  1  0  0  0
  6 99  1  0  0  0
  7  8  2  0  0  0
  7 26  1  0  0  0
  7 29  1  0  0  0
  8  9  1  0  0  0
  8 22  1  0  0  0
  9 10  1  0  0  0
  9 27  2  0  0  0
 10 11  2  0  0  0
 10 15  1  0  0  0
 11 12  1  0  0  0
 11100  1  0  0  0
 12 13  2  0  0  0
 12101  1  0  0  0
 13 14  1  0  0  0
 13 31  1  0  0  0
 14 15  2  0  0  0
 14102  1  0  0  0
 15103  1  0  0  0
 16 17  2  0  0  0
 16 21  1  0  0  0
 16 31  1  0  0  0
 17 18  1  0  0  0
 17104  1  0  0  0
 18 19  2  0  0  0
 18105  1  0  0  0
 19 20  1  0  0  0
 19 24  1  0  0  0
 20 21  2  0  0  0
 20106  1  0  0  0
 21 23  1  0  0  0
 22 28  1  0  0  0
 22 32  2  0  0  0
 26 27  1  0  0  0
 28107  1  0  0  0
 28108  1  0  0  0
 29109  1  0  0  0
 29110  1  0  0  0
 33 34  1  0  0  0
 33 66  1  0  0  0
 33 70  2  0  0  0
 34 36  1  0  0  0
 34 59  1  0  0  0
 34111  1  0  0  0
 35 44  2  0  0  0
 35 45  1  0  0  0
 35 68  1  0  0  0
 36 56  1  0  0  0
 36112  1  0  0  0
 37 39  1  0  0  0
 37 47  1  0  0  0
 37 66  1  0  0  0
 37113  1  0  0  0
 38 43  2  0  0  0
 38 46  1  0  0  0
 38 47  1  0  0  0
 39 64  1  0  0  0
 39 67  2  0  0  0
 40 52  1  0  0  0
 40 53  2  0  0  0
 40 58  1  0  0  0
 41114  1  0  0  0
 41115  1  0  0  0
 41116  1  0  0  0
 41 48  1  0  0  0
 42 43  1  0  0  0
 42 66  1  0  0  0
 42117  1  0  0  0
 42118  1  0  0  0
 43 44  1  0  0  0
 44119  1  0  0  0
 45 46  2  0  0  0
 45120  1  0  0  0
 46121  1  0  0  0
 47122  1  0  0  0
 47123  1  0  0  0
 48 56  1  0  0  0
 48 65  1  0  0  0
 48124  1  0  0  0
 49 50  1  0  0  0
 49 53  1  0  0  0
 49 64  1  0  0  0
 49125  1  0  0  0
 50 51  1  0  0  0
 50126  1  0  0  0
 50127  1  0  0  0
 51 52  1  0  0  0
 51128  1  0  0  0
 51129  1  0  0  0
 52130  1  0  0  0
 52131  1  0  0  0
 53 54  1  0  0  0
 54 55  2  0  0  0
 54132  1  0  0  0
 55 57  1  0  0  0
 55133  1  0  0  0
 56 69  2  0  0  0
 57 58  2  0  0  0
 57134  1  0  0  0
 58135  1  0  0  0
 59 60  1  0  0  0
 59 61  1  0  0  0
 59 62  1  0  0  0
 60136  1  0  0  0
 60137  1  0  0  0
 60138  1  0  0  0
 61139  1  0  0  0
 61140  1  0  0  0
 61141  1  0  0  0
 62142  1  0  0  0
 62143  1  0  0  0
 62144  1  0  0  0
 63 65  1  0  0  0
 63145  1  0  0  0
 63146  1  0  0  0
 63147  1  0  0  0
 64148  1  0  0  0
 65149  1  0  0  0
 68 88  1  0  0  0
 71 72  2  0  0  0
 71 74  1  0  0  0
 71150  1  0  0  0
 72 73  1  0  0  0
 72 78  1  0  0  0
 73 76  2  0  0  0
 73 77  1  0  0  0
 74 75  2  0  0  0
 74 87  1  0  0  0
 75 76  1  0  0  0
 75 81  1  0  0  0
 76 90  1  0  0  0
 77 79  1  0  0  0
 77151  1  0  0  0
 77152  1  0  0  0
 78 80  1  0  0  0
 78 82  1  0  0  0
 78 83  1  0  0  0
 79 80  1  0  0  0
 79 84  1  0  0  0
 79 85  1  0  0  0
 80 86  1  0  0  0
 80 88  1  0  0  0
 81153  1  0  0  0
 81154  1  0  0  0
 81155  1  0  0  0
 82156  1  0  0  0
 82157  1  0  0  0
 82158  1  0  0  0
 83159  1  0  0  0
 83160  1  0  0  0
 83161  1  0  0  0
 84162  1  0  0  0
 84163  1  0  0  0
 84164  1  0  0  0
 85165  1  0  0  0
 85166  1  0  0  0
 85167  1  0  0  0
 86168  1  0  0  0
 86169  1  0  0  0
 86170  1  0  0  0
 87 89  1  0  0  0
 87171  1  0  0  0
 87172  1  0  0  0
 88173  1  0  0  0
 88174  1  0  0  0
 89175  1  0  0  0
M  ISO  4   1 100  68 101  88 101  89 100
M  END
> <chiral flag>
0

> <version>
0

> <s_m_source_file>
/data/baiqing/PycharmProjects/Reinvent-master-3.2/result/LINK_invent/BTK/process_docking_weight1_custom_sum_contain_oxygen_bond_distance_aromatic_linkinvent_7_9_3/rearranged_h_0024.sdf

> <i_m_source_file_index>
94

> <r_mmod_Potential_Energy-OPLS-2005>
189.99658203125

> <r_mmod_Stretch_Energy-OPLS-2005>
128.045059204102

> <r_mmod_Bend_Energy-OPLS-2005>
189.029891967773

> <r_mmod_Torsional_Energy-OPLS-2005>
245.536193847656

> <r_mmod_Improper_Torsional_Energy-OPLS-2005>
6.73452425003052

> <r_mmod_Van_der_Waal_Energy-OPLS-2005>
181.72526550293

> <r_mmod_Electrostatic_Energy-OPLS-2005>
-434.940216064453

> <r_mmod_Solvation_Energy-OPLS-2005>
-187.429840087891

> <b_mmod_Minimization_Converged-OPLS-2005>
0

> <r_mmod_RMS_Derivative-OPLS-2005>
0.703492045402527

$$$$
94
                    3D
 Structure written by MMmdl.
174182  0  0  1  0            999 V2000
  -30.5850  -14.5217   20.6440 C   0  0  0  0  0  0
  -30.4684  -12.3657   19.4368 C   0  0  0  0  0  0
  -29.5414  -12.6421   18.2207 C   0  0  0  0  0  0
  -28.0627  -12.4347   18.5876 C   0  0  0  0  0  0
  -27.6835  -13.2055   19.8868 C   0  0  2  0  0  0
  -28.7062  -12.9038   21.0133 C   0  0  0  0  0  0
  -25.2477  -13.8120   20.5608 C   0  0  0  0  0  0
  -24.1878  -13.0290   20.9246 C   0  0  0  0  0  0
  -24.6471  -11.6858   20.8685 C   0  0  0  0  0  0
  -23.9127  -10.4207   21.0467 C   0  0  0  0  0  0
  -24.3646   -9.4045   21.9166 C   0  0  0  0  0  0
  -23.6263   -8.2091   22.0724 C   0  0  0  0  0  0
  -22.4194   -8.0204   21.3595 C   0  0  0  0  0  0
  -21.9932   -9.0169   20.4644 C   0  0  0  0  0  0
  -22.7311  -10.2044   20.3039 C   0  0  0  0  0  0
  -21.6751   -6.0648   22.5317 C   0  0  0  0  0  0
  -21.3921   -6.5542   23.8221 C   0  0  0  0  0  0
  -21.3638   -5.6734   24.9207 C   0  0  0  0  0  0
  -21.6054   -4.2998   24.7292 C   0  0  0  0  0  0
  -21.8818   -3.8074   23.4424 C   0  0  0  0  0  0
  -21.9159   -4.6873   22.3432 C   0  0  0  0  0  0
  -22.7827  -13.5127   21.1912 C   0  0  0  0  0  0
  -22.1601   -4.2050   21.1027 F   0  0  0  0  0  0
  -21.5694   -3.4465   25.7817 F   0  0  0  0  0  0
  -30.0556  -13.2773   20.5194 N   0  0  0  0  0  0
  -26.3092  -12.9405   20.3358 N   0  0  0  0  0  0
  -25.9396  -11.6527   20.5657 N   0  0  0  0  0  0
  -22.0476  -12.7999   22.0461 N   0  0  0  0  0  0
  -25.3772  -15.1884   20.4299 N   0  0  0  0  0  0
  -31.6342  -14.8391   20.0467 O   0  0  0  0  0  0
  -21.6520   -6.8810   21.4290 O   0  0  0  0  0  0
  -22.3556  -14.5449   20.6942 O   0  0  0  0  0  0
  -24.6055  -31.8627   23.2118 C   0  0  0  0  0  0
  -25.8952  -32.4824   23.8332 C   0  0  1  0  0  0
  -27.2165  -27.4628   20.1463 C   0  0  0  0  0  0
  -25.5915  -33.8630   24.2366 N   0  0  0  0  0  0
  -23.3776  -30.4977   21.5428 C   0  0  2  0  0  0
  -24.8422  -28.9924   20.1068 C   0  0  0  0  0  0
  -22.7158  -29.4683   22.4926 C   0  0  0  0  0  0
  -18.0210  -28.1413   22.8567 C   0  0  0  0  0  0
  -24.1488  -36.7349   23.2625 C   0  0  0  0  0  0
  -25.9049  -30.8663   21.3698 C   0  0  0  0  0  0
  -25.9944  -29.5096   20.7129 C   0  0  0  0  0  0
  -27.1875  -28.7589   20.7188 C   0  0  0  0  0  0
  -26.0537  -26.9651   19.4961 C   0  0  0  0  0  0
  -24.8713  -27.7305   19.4838 C   0  0  0  0  0  0
  -23.6192  -29.8825   20.1406 C   0  0  0  0  0  0
  -25.4049  -36.3143   24.0382 C   0  0  1  0  0  0
  -20.5635  -28.4074   23.2146 C   0  0  2  0  0  0
  -20.6316  -26.9600   22.7279 C   0  0  0  0  0  0
  -19.6426  -26.7119   21.6005 C   0  0  0  0  0  0
  -18.2231  -26.8061   22.1471 C   0  0  0  0  0  0
  -19.1202  -28.9309   23.3077 C   0  0  0  0  0  0
  -18.8607  -30.1997   23.8643 C   0  0  0  0  0  0
  -17.5226  -30.6501   23.9843 C   0  0  0  0  0  0
  -25.8938  -34.9496   23.5090 C   0  0  0  0  0  0
  -16.4492  -29.8245   23.6325 C   0  0  0  0  0  0
  -16.7007  -28.5557   23.0884 C   0  0  0  0  0  0
  -26.4394  -31.6600   25.0638 C   0  0  0  0  0  0
  -25.3711  -31.3729   26.1478 C   0  0  0  0  0  0
  -27.0351  -30.3063   24.6069 C   0  0  0  0  0  0
  -27.6033  -32.4189   25.7510 C   0  0  0  0  0  0
  -27.5594  -37.1851   24.8492 C   0  0  0  0  0  0
  -21.3924  -29.2878   22.3882 N   0  0  0  0  0  0
  -26.4287  -37.3806   23.9467 N   0  0  0  0  0  0
  -24.6432  -31.0890   22.0985 N   0  0  0  0  0  0
  -23.4097  -28.8354   23.2837 O   0  0  0  0  0  0
  -28.2998  -26.6523   20.3792 O   0  0  0  0  0  0
  -26.5529  -34.8886   22.4649 O   0  0  0  0  0  0
  -23.5342  -32.1490   23.7551 O   0  0  0  0  0  0
  -26.1502  -18.2097   19.9495 C   0  0  0  0  0  0
  -27.5293  -17.9260   19.8454 C   0  0  0  0  0  0
  -28.2252  -17.4997   21.0327 C   0  0  0  0  0  0
  -26.3268  -18.4565   22.3270 C   0  0  0  0  0  0
  -25.5100  -18.3941   21.1807 C   0  0  0  0  0  0
  -27.6266  -17.8666   22.2786 C   0  0  0  0  0  0
  -28.2010  -18.3366   18.5094 C   0  0  0  0  0  0
  -29.6684  -16.8722   20.9878 C   0  0  0  0  0  0
  -26.0587  -19.6134   23.2935 C   0  0  0  0  0  0
  -25.6093  -24.2635   24.0953 C   0  0  0  0  0  0
  -25.3582  -22.8652   24.6897 C   0  0  0  0  0  0
  -26.0740  -24.3056   22.6114 C   0  0  0  0  0  0
  -24.0083  -22.2061   24.3931 C   0  0  0  0  0  0
  -26.9904  -25.5249   22.2906 C   0  0  0  0  0  0
  -24.0215  -21.0754   23.3438 C   0  0  0  0  0  0
  -27.9500  -25.4166   21.0559 C   0  0  0  0  0  0
  -29.8075  -15.4143   21.3221 N   0  0  0  0  0  0
  -24.6640  -19.7834   23.7286 N   0  3  0  0  0  0
  -23.7772  -18.6287   21.2051 Cl  0  0  0  0  0  0
  -28.6137  -17.8733   23.7117 Cl  0  0  0  0  0  0
  -31.5083  -12.5457   19.1334 H   0  0  0  0  0  0
  -30.4249  -11.3100   19.7280 H   0  0  0  0  0  0
  -29.8308  -12.0570   17.3529 H   0  0  0  0  0  0
  -29.6702  -13.6777   17.9166 H   0  0  0  0  0  0
  -27.8950  -11.3623   18.6966 H   0  0  0  0  0  0
  -27.4288  -12.7552   17.7719 H   0  0  0  0  0  0
  -27.7519  -14.2747   19.6758 H   0  0  0  0  0  0
  -28.6881  -11.8424   21.2565 H   0  0  0  0  0  0
  -28.4495  -13.4354   21.9325 H   0  0  0  0  0  0
  -25.2879   -9.5247   22.4666 H   0  0  0  0  0  0
  -23.9870   -7.4373   22.7390 H   0  0  0  0  0  0
  -21.0846   -8.8739   19.8922 H   0  0  0  0  0  0
  -22.3909  -10.9513   19.6016 H   0  0  0  0  0  0
  -21.1800   -7.6011   23.9734 H   0  0  0  0  0  0
  -21.1489   -6.0421   25.9133 H   0  0  0  0  0  0
  -22.0641   -2.7513   23.2969 H   0  0  0  0  0  0
  -22.4125  -11.9668   22.4755 H   0  0  0  0  0  0
  -21.1058  -13.0913   22.2638 H   0  0  0  0  0  0
  -24.5450  -15.7304   20.6381 H   0  0  0  0  0  0
  -26.1674  -15.7867   20.2272 H   0  0  0  0  0  0
  -26.7143  -32.5662   23.1261 H   0  0  0  0  0  0
  -25.0420  -33.9871   25.0771 H   0  0  0  0  0  0
  -22.6632  -31.3130   21.4341 H   0  0  0  0  0  0
  -23.3752  -35.9725   23.3276 H   0  0  0  0  0  0
  -24.3684  -36.8927   22.2085 H   0  0  0  0  0  0
  -23.7334  -37.6529   23.6618 H   0  0  0  0  0  0
  -26.0283  -31.6394   20.6106 H   0  0  0  0  0  0
  -26.7880  -30.8874   22.0008 H   0  0  0  0  0  0
  -28.0625  -29.1562   21.2110 H   0  0  0  0  0  0
  -26.0694  -25.9765   19.0478 H   0  0  0  0  0  0
  -24.0036  -27.3329   18.9771 H   0  0  0  0  0  0
  -23.7779  -30.7013   19.4364 H   0  0  0  0  0  0
  -22.7326  -29.3585   19.7888 H   0  0  0  0  0  0
  -25.1252  -36.1962   25.0922 H   0  0  0  0  0  0
  -20.9933  -28.4437   24.2157 H   0  0  0  0  0  0
  -20.3636  -26.3318   23.5887 H   0  0  0  0  0  0
  -21.6398  -26.6482   22.4853 H   0  0  0  0  0  0
  -19.8262  -25.7622   21.1318 H   0  0  0  0  0  0
  -19.7677  -27.4358   20.7954 H   0  0  0  0  0  0
  -17.4819  -26.7350   21.3576 H   0  0  0  0  0  0
  -18.0537  -26.0043   22.8340 H   0  0  0  0  0  0
  -19.6615  -30.8417   24.2163 H   0  0  0  0  0  0
  -17.3030  -31.6304   24.3809 H   0  0  0  0  0  0
  -15.4406  -30.1475   23.8203 H   0  0  0  0  0  0
  -15.8483  -27.9115   22.9022 H   0  0  0  0  0  0
  -24.5815  -30.7114   25.7878 H   0  0  0  0  0  0
  -24.8982  -32.2927   26.4891 H   0  0  0  0  0  0
  -25.8043  -30.8911   27.0294 H   0  0  0  0  0  0
  -26.3008  -29.6730   24.1080 H   0  0  0  0  0  0
  -27.4196  -29.7299   25.4527 H   0  0  0  0  0  0
  -27.8724  -30.4473   23.9255 H   0  0  0  0  0  0
  -27.2675  -33.3463   26.2214 H   0  0  0  0  0  0
  -28.3835  -32.6764   25.0300 H   0  0  0  0  0  0
  -28.0708  -31.8160   26.5381 H   0  0  0  0  0  0
  -28.2547  -38.0174   24.7450 H   0  0  0  0  0  0
  -28.1092  -36.2693   24.6305 H   0  0  0  0  0  0
  -27.2338  -37.1506   25.8890 H   0  0  0  0  0  0
  -20.9137  -29.7951   21.6646 H   0  0  0  0  0  0
  -26.0122  -38.2860   24.1420 H   0  0  0  0  0  0
  -25.5660  -18.4830   19.0808 H   0  0  0  0  0  0
  -27.7159  -17.9008   17.6285 H   0  0  0  0  0  0
  -29.2640  -18.0944   18.4066 H   0  0  0  0  0  0
  -28.1527  -19.4427   18.4017 H   0  0  0  0  0  0
  -30.3435  -17.4527   21.6352 H   0  0  0  0  0  0
  -30.1164  -16.9782   20.0145 H   0  0  0  0  0  0
  -26.3749  -20.4533   22.6612 H   0  0  0  0  0  0
  -26.7089  -19.6515   24.1707 H   0  0  0  0  0  0
  -26.4037  -24.6771   24.7200 H   0  0  0  0  0  0
  -24.7551  -24.9226   24.2684 H   0  0  0  0  0  0
  -26.2109  -22.2191   24.4807 H   0  0  0  0  0  0
  -25.3575  -22.9964   25.7794 H   0  0  0  0  0  0
  -25.2119  -24.3049   21.9427 H   0  0  0  0  0  0
  -26.6051  -23.3878   22.3765 H   0  0  0  0  0  0
  -23.2958  -22.9646   24.0887 H   0  0  0  0  0  0
  -23.5592  -21.8310   25.3193 H   0  0  0  0  0  0
  -27.6643  -25.7271   23.1180 H   0  0  0  0  0  0
  -26.3472  -26.4052   22.2348 H   0  0  0  0  0  0
  -24.4211  -21.4599   22.4102 H   0  0  0  0  0  0
  -22.9919  -20.8096   23.1181 H   0  0  0  0  0  0
  -27.5170  -24.7284   20.3292 H   0  0  0  0  0  0
  -28.8893  -24.9244   21.3609 H   0  0  0  0  0  0
  -29.0309  -15.0026   21.8516 H   0  0  0  0  0  0
  -24.4775  -19.5044   24.6760 H   0  0  0  0  0  0
  -24.1814  -19.1062   23.1624 H   0  0  0  0  0  0
  1 25  1  0  0  0
  1 30  2  0  0  0
  1 87  1  0  0  0
  2  3  1  0  0  0
  2 25  1  0  0  0
  2 91  1  0  0  0
  2 92  1  0  0  0
  3  4  1  0  0  0
  3 93  1  0  0  0
  3 94  1  0  0  0
  4  5  1  0  0  0
  4 95  1  0  0  0
  4 96  1  0  0  0
  5  6  1  0  0  0
  5 26  1  0  0  0
  5 97  1  0  0  0
  6 25  1  0  0  0
  6 98  1  0  0  0
  6 99  1  0  0  0
  7  8  2  0  0  0
  7 26  1  0  0  0
  7 29  1  0  0  0
  8  9  1  0  0  0
  8 22  1  0  0  0
  9 10  1  0  0  0
  9 27  2  0  0  0
 10 11  2  0  0  0
 10 15  1  0  0  0
 11 12  1  0  0  0
 11100  1  0  0  0
 12 13  2  0  0  0
 12101  1  0  0  0
 13 14  1  0  0  0
 13 31  1  0  0  0
 14 15  2  0  0  0
 14102  1  0  0  0
 15103  1  0  0  0
 16 17  2  0  0  0
 16 21  1  0  0  0
 16 31  1  0  0  0
 17 18  1  0  0  0
 17104  1  0  0  0
 18 19  2  0  0  0
 18105  1  0  0  0
 19 20  1  0  0  0
 19 24  1  0  0  0
 20 21  2  0  0  0
 20106  1  0  0  0
 21 23  1  0  0  0
 22 28  1  0  0  0
 22 32  2  0  0  0
 26 27  1  0  0  0
 28107  1  0  0  0
 28108  1  0  0  0
 29109  1  0  0  0
 29110  1  0  0  0
 33 34  1  0  0  0
 33 66  1  0  0  0
 33 70  2  0  0  0
 34 36  1  0  0  0
 34 59  1  0  0  0
 34111  1  0  0  0
 35 44  2  0  0  0
 35 45  1  0  0  0
 35 68  1  0  0  0
 36 56  1  0  0  0
 36112  1  0  0  0
 37 39  1  0  0  0
 37 47  1  0  0  0
 37 66  1  0  0  0
 37113  1  0  0  0
 38 43  2  0  0  0
 38 46  1  0  0  0
 38 47  1  0  0  0
 39 64  1  0  0  0
 39 67  2  0  0  0
 40 52  1  0  0  0
 40 53  2  0  0  0
 40 58  1  0  0  0
 41114  1  0  0  0
 41115  1  0  0  0
 41116  1  0  0  0
 41 48  1  0  0  0
 42 43  1  0  0  0
 42 66  1  0  0  0
 42117  1  0  0  0
 42118  1  0  0  0
 43 44  1  0  0  0
 44119  1  0  0  0
 45 46  2  0  0  0
 45120  1  0  0  0
 46121  1  0  0  0
 47122  1  0  0  0
 47123  1  0  0  0
 48 56  1  0  0  0
 48 65  1  0  0  0
 48124  1  0  0  0
 49 50  1  0  0  0
 49 53  1  0  0  0
 49 64  1  0  0  0
 49125  1  0  0  0
 50 51  1  0  0  0
 50126  1  0  0  0
 50127  1  0  0  0
 51 52  1  0  0  0
 51128  1  0  0  0
 51129  1  0  0  0
 52130  1  0  0  0
 52131  1  0  0  0
 53 54  1  0  0  0
 54 55  2  0  0  0
 54132  1  0  0  0
 55 57  1  0  0  0
 55133  1  0  0  0
 56 69  2  0  0  0
 57 58  2  0  0  0
 57134  1  0  0  0
 58135  1  0  0  0
 59 60  1  0  0  0
 59 61  1  0  0  0
 59 62  1  0  0  0
 60136  1  0  0  0
 60137  1  0  0  0
 60138  1  0  0  0
 61139  1  0  0  0
 61140  1  0  0  0
 61141  1  0  0  0
 62142  1  0  0  0
 62143  1  0  0  0
 62144  1  0  0  0
 63 65  1  0  0  0
 63145  1  0  0  0
 63146  1  0  0  0
 63147  1  0  0  0
 64148  1  0  0  0
 65149  1  0  0  0
 68 86  1  0  0  0
 71 72  2  0  0  0
 71 75  1  0  0  0
 71150  1  0  0  0
 72 73  1  0  0  0
 72 77  1  0  0  0
 73 76  2  0  0  0
 73 78  1  0  0  0
 74 75  2  0  0  0
 74 76  1  0  0  0
 74 79  1  0  0  0
 75 89  1  0  0  0
 76 90  1  0  0  0
 77151  1  0  0  0
 77152  1  0  0  0
 77153  1  0  0  0
 78 87  1  0  0  0
 78154  1  0  0  0
 78155  1  0  0  0
 79 88  1  0  0  0
 79156  1  0  0  0
 79157  1  0  0  0
 80 81  1  0  0  0
 80 82  1  0  0  0
 80158  1  0  0  0
 80159  1  0  0  0
 81 83  1  0  0  0
 81160  1  0  0  0
 81161  1  0  0  0
 82 84  1  0  0  0
 82162  1  0  0  0
 82163  1  0  0  0
 83 85  1  0  0  0
 83164  1  0  0  0
 83165  1  0  0  0
 84 86  1  0  0  0
 84166  1  0  0  0
 84167  1  0  0  0
 85 88  1  0  0  0
 85168  1  0  0  0
 85169  1  0  0  0
 86170  1  0  0  0
 86171  1  0  0  0
 87172  1  0  0  0
 88173  1  0  0  0
 88174  1  0  0  0
M  CHG  1  88   1
M  ISO  4   1 100  68 101  86 101  87 100
M  END
> <chiral flag>
0

> <version>
0

> <s_m_source_file>
/data/baiqing/PycharmProjects/Reinvent-master-3.2/result/LINK_invent/BTK/process_docking_weight1_custom_sum_contain_oxygen_bond_distance_aromatic_linkinvent_7_9_3/rearranged_h_0024.sdf

> <i_m_source_file_index>
95

> <r_mmod_Potential_Energy-OPLS-2005>
42.0069923400879

> <r_mmod_Stretch_Energy-OPLS-2005>
67.8591232299805

> <r_mmod_Bend_Energy-OPLS-2005>
157.857727050781

> <r_mmod_Torsional_Energy-OPLS-2005>
378.863922119141

> <r_mmod_Improper_Torsional_Energy-OPLS-2005>
17.3669013977051

> <r_mmod_Van_der_Waal_Energy-OPLS-2005>
155.371383666992

> <r_mmod_Electrostatic_Energy-OPLS-2005>
-335.308868408203

> <r_mmod_Solvation_Energy-OPLS-2005>
-451.978240966797

> <b_mmod_Minimization_Converged-OPLS-2005>
0

> <r_mmod_RMS_Derivative-OPLS-2005>
35.6414909362793

$$$$
95
                    3D
 Structure written by MMmdl.
175184  0  0  1  0            999 V2000
  -30.8150  -14.2867   20.7466 C   0  0  0  0  0  0
  -30.4138  -12.2828   19.3691 C   0  0  0  0  0  0
  -29.4741  -12.5395   18.1795 C   0  0  0  0  0  0
  -28.0045  -12.3812   18.6048 C   0  0  0  0  0  0
  -27.6687  -13.2000   19.8764 C   0  0  2  0  0  0
  -28.7050  -12.9353   20.9902 C   0  0  0  0  0  0
  -25.2615  -13.8160   20.5646 C   0  0  0  0  0  0
  -24.1859  -13.0448   20.9156 C   0  0  0  0  0  0
  -24.6406  -11.6910   20.8727 C   0  0  0  0  0  0
  -23.9063  -10.4300   21.0406 C   0  0  0  0  0  0
  -24.3616   -9.4209   21.9181 C   0  0  0  0  0  0
  -23.6287   -8.2252   22.0757 C   0  0  0  0  0  0
  -22.4269   -8.0291   21.3548 C   0  0  0  0  0  0
  -21.9914   -9.0261   20.4641 C   0  0  0  0  0  0
  -22.7240  -10.2134   20.3045 C   0  0  0  0  0  0
  -21.6852   -6.0737   22.5281 C   0  0  0  0  0  0
  -21.4010   -6.5643   23.8216 C   0  0  0  0  0  0
  -21.3661   -5.6789   24.9171 C   0  0  0  0  0  0
  -21.6043   -4.3061   24.7228 C   0  0  0  0  0  0
  -21.8821   -3.8146   23.4350 C   0  0  0  0  0  0
  -21.9190   -4.6966   22.3398 C   0  0  0  0  0  0
  -22.7878  -13.5233   21.1825 C   0  0  0  0  0  0
  -22.1660   -4.2164   21.0978 F   0  0  0  0  0  0
  -21.5631   -3.4542   25.7736 F   0  0  0  0  0  0
  -30.0588  -13.1988   20.4604 N   0  0  0  0  0  0
  -26.3058  -12.9325   20.3356 N   0  0  0  0  0  0
  -25.9328  -11.6487   20.5742 N   0  0  0  0  0  0
  -22.0510  -12.8227   22.0377 N   0  0  0  0  0  0
  -25.4343  -15.1872   20.4087 N   0  0  0  0  0  0
  -31.7491  -14.6831   20.0436 O   0  0  0  0  0  0
  -21.6638   -6.8883   21.4244 O   0  0  0  0  0  0
  -22.3574  -14.5556   20.6685 O   0  0  0  0  0  0
  -24.6068  -31.8729   23.2146 C   0  0  0  0  0  0
  -25.8977  -32.4864   23.8447 C   0  0  1  0  0  0
  -27.2347  -27.4865   20.0883 C   0  0  0  0  0  0
  -25.5858  -33.8656   24.2408 N   0  0  0  0  0  0
  -23.3963  -30.4924   21.5562 C   0  0  2  0  0  0
  -24.8448  -28.9701   20.1134 C   0  0  0  0  0  0
  -22.7390  -29.4645   22.5037 C   0  0  0  0  0  0
  -18.0245  -28.1357   22.8485 C   0  0  0  0  0  0
  -24.1483  -36.7312   23.2635 C   0  0  0  0  0  0
  -25.9172  -30.8554   21.3612 C   0  0  0  0  0  0
  -25.9990  -29.4918   20.7133 C   0  0  0  0  0  0
  -27.1992  -28.7524   20.7067 C   0  0  0  0  0  0
  -26.0759  -26.9719   19.4780 C   0  0  0  0  0  0
  -24.8741  -27.7050   19.4978 C   0  0  0  0  0  0
  -23.6034  -29.8271   20.1691 C   0  0  0  0  0  0
  -25.4112  -36.3152   24.0342 C   0  0  1  0  0  0
  -20.5833  -28.3630   23.1356 C   0  0  2  0  0  0
  -20.6757  -26.9394   22.5421 C   0  0  0  0  0  0
  -19.5730  -26.6378   21.5216 C   0  0  0  0  0  0
  -18.1896  -26.7916   22.1599 C   0  0  0  0  0  0
  -19.1490  -28.8816   23.2915 C   0  0  0  0  0  0
  -18.9432  -30.1407   23.8962 C   0  0  0  0  0  0
  -17.6443  -30.6590   24.0553 C   0  0  0  0  0  0
  -25.9018  -34.9496   23.5179 C   0  0  0  0  0  0
  -16.5327  -29.9097   23.6313 C   0  0  0  0  0  0
  -16.7234  -28.6482   23.0385 C   0  0  0  0  0  0
  -26.4458  -31.6626   25.0737 C   0  0  0  0  0  0
  -25.3713  -31.3640   26.1460 C   0  0  0  0  0  0
  -27.0320  -30.3106   24.6029 C   0  0  0  0  0  0
  -27.6061  -32.4325   25.7481 C   0  0  0  0  0  0
  -27.5591  -37.1812   24.8458 C   0  0  0  0  0  0
  -21.4115  -29.3010   22.3786 N   0  0  0  0  0  0
  -26.4325  -37.3821   23.9393 N   0  0  0  0  0  0
  -24.6591  -31.0845   22.1057 N   0  0  0  0  0  0
  -23.4191  -28.8169   23.3042 O   0  0  0  0  0  0
  -28.3827  -26.7428   20.0606 O   0  0  0  0  0  0
  -26.5582  -34.8915   22.4738 O   0  0  0  0  0  0
  -23.5247  -32.1478   23.7546 O   0  0  0  0  0  0
  -32.9504  -16.5227   24.2252 C   0  0  0  0  0  0
  -32.7137  -17.8773   23.9184 C   0  0  0  0  0  0
  -31.7504  -18.2191   22.9321 C   0  0  0  0  0  0
  -31.3049  -15.8363   22.5670 C   0  0  0  0  0  0
  -32.2398  -15.5052   23.5690 C   0  0  0  0  0  0
  -31.0626  -17.1890   22.2376 C   0  0  0  0  0  0
  -30.6200  -21.7705   23.8490 C   0  0  0  0  0  0
  -28.9306  -19.9774   23.2049 C   0  0  0  0  0  0
  -29.5824  -22.3634   24.8171 C   0  0  0  0  0  0
  -27.8922  -20.6377   24.1382 C   0  0  0  0  0  0
  -30.3900  -20.2636   23.6347 C   0  0  1  0  0  0
  -28.1373  -22.1521   24.3097 C   0  0  2  0  0  0
  -33.5061  -18.9394   24.6680 C   0  0  0  0  0  0
  -31.4299  -19.6853   22.6478 C   0  0  0  0  0  0
  -27.8699  -24.9559   21.6423 C   0  0  0  0  0  0
  -28.2818  -24.2824   22.9599 C   0  0  0  0  0  0
  -28.7404  -26.1893   21.3235 C   0  0  0  0  0  0
  -30.5633  -14.8040   21.9517 N   0  0  0  0  0  0
  -27.8166  -22.8766   23.0513 N   0  3  0  0  0  0
  -32.5235  -13.8576   24.0094 Cl  0  0  0  0  0  0
  -29.8954  -17.5681   21.0091 Cl  0  0  0  0  0  0
  -31.4549  -12.3894   19.0578 H   0  0  0  0  0  0
  -30.3131  -11.2524   19.7155 H   0  0  0  0  0  0
  -29.7028  -11.8531   17.3631 H   0  0  0  0  0  0
  -29.6411  -13.5453   17.7906 H   0  0  0  0  0  0
  -27.8193  -11.3213   18.7839 H   0  0  0  0  0  0
  -27.3438  -12.6707   17.7864 H   0  0  0  0  0  0
  -27.7308  -14.2550   19.6065 H   0  0  0  0  0  0
  -28.6517  -11.8955   21.3197 H   0  0  0  0  0  0
  -28.4498  -13.5358   21.8635 H   0  0  0  0  0  0
  -25.2757   -9.5699   22.4761 H   0  0  0  0  0  0
  -24.0000   -7.4650   22.7491 H   0  0  0  0  0  0
  -21.0846   -8.8776   19.8943 H   0  0  0  0  0  0
  -22.3701  -10.9676   19.6166 H   0  0  0  0  0  0
  -21.2003   -7.6154   23.9721 H   0  0  0  0  0  0
  -21.1481   -6.0524   25.9077 H   0  0  0  0  0  0
  -22.0599   -2.7620   23.2843 H   0  0  0  0  0  0
  -22.4107  -11.9869   22.4737 H   0  0  0  0  0  0
  -21.1133  -13.1270   22.2569 H   0  0  0  0  0  0
  -24.6722  -15.8466   20.5179 H   0  0  0  0  0  0
  -26.2982  -15.6275   20.1152 H   0  0  0  0  0  0
  -26.7045  -32.5655   23.1218 H   0  0  0  0  0  0
  -24.9975  -33.9844   25.0535 H   0  0  0  0  0  0
  -22.6808  -31.3068   21.4218 H   0  0  0  0  0  0
  -23.3759  -35.9630   23.3314 H   0  0  0  0  0  0
  -24.3556  -36.8918   22.2044 H   0  0  0  0  0  0
  -23.7212  -37.6498   23.6656 H   0  0  0  0  0  0
  -26.0125  -31.6273   20.5952 H   0  0  0  0  0  0
  -26.8090  -30.9175   21.9731 H   0  0  0  0  0  0
  -28.0955  -29.1482   21.1647 H   0  0  0  0  0  0
  -26.1051  -25.9999   19.0055 H   0  0  0  0  0  0
  -23.9838  -27.2949   19.0363 H   0  0  0  0  0  0
  -23.7082  -30.6079   19.4143 H   0  0  0  0  0  0
  -22.7322  -29.2365   19.8788 H   0  0  0  0  0  0
  -25.1294  -36.2045   25.0836 H   0  0  0  0  0  0
  -20.9900  -28.3210   24.1487 H   0  0  0  0  0  0
  -20.5679  -26.2246   23.3587 H   0  0  0  0  0  0
  -21.6621  -26.7471   22.1222 H   0  0  0  0  0  0
  -19.6911  -25.6303   21.1223 H   0  0  0  0  0  0
  -19.6689  -27.3215   20.6779 H   0  0  0  0  0  0
  -17.4174  -26.6659   21.3981 H   0  0  0  0  0  0
  -18.0245  -26.0077   22.9014 H   0  0  0  0  0  0
  -19.7920  -30.7146   24.2435 H   0  0  0  0  0  0
  -17.5018  -31.6296   24.5098 H   0  0  0  0  0  0
  -15.5334  -30.3015   23.7623 H   0  0  0  0  0  0
  -15.8623  -28.0796   22.7170 H   0  0  0  0  0  0
  -24.5938  -30.6961   25.7732 H   0  0  0  0  0  0
  -24.8822  -32.2744   26.4936 H   0  0  0  0  0  0
  -25.8032  -30.8776   27.0223 H   0  0  0  0  0  0
  -26.2877  -29.6794   24.1161 H   0  0  0  0  0  0
  -27.4251  -29.7376   25.4444 H   0  0  0  0  0  0
  -27.8625  -30.4474   23.9095 H   0  0  0  0  0  0
  -27.2742  -33.3640   26.2082 H   0  0  0  0  0  0
  -28.3845  -32.6850   25.0265 H   0  0  0  0  0  0
  -28.0761  -31.8420   26.5358 H   0  0  0  0  0  0
  -28.2616  -38.0116   24.7565 H   0  0  0  0  0  0
  -28.1103  -36.2643   24.6270 H   0  0  0  0  0  0
  -27.2281  -37.1447   25.8858 H   0  0  0  0  0  0
  -20.9263  -29.8747   21.7032 H   0  0  0  0  0  0
  -26.0217  -38.2896   24.1429 H   0  0  0  0  0  0
  -33.6750  -16.2547   24.9817 H   0  0  0  0  0  0
  -31.6190  -21.9434   24.2523 H   0  0  0  0  0  0
  -30.5955  -22.2853   22.8884 H   0  0  0  0  0  0
  -28.7709  -20.3197   22.1814 H   0  0  0  0  0  0
  -28.7535  -18.9009   23.1968 H   0  0  0  0  0  0
  -29.7927  -23.4134   25.0247 H   0  0  0  0  0  0
  -29.6865  -21.8735   25.7857 H   0  0  0  0  0  0
  -27.9309  -20.1598   25.1181 H   0  0  0  0  0  0
  -26.8846  -20.4501   23.7659 H   0  0  0  0  0  0
  -30.5482  -19.8009   24.6097 H   0  0  0  0  0  0
  -27.4565  -22.5324   25.0731 H   0  0  0  0  0  0
  -34.0866  -18.5074   25.4832 H   0  0  0  0  0  0
  -32.8538  -19.6917   25.1067 H   0  0  0  0  0  0
  -34.2066  -19.4402   24.0008 H   0  0  0  0  0  0
  -31.1098  -19.8368   21.6160 H   0  0  0  0  0  0
  -32.3575  -20.2536   22.7083 H   0  0  0  0  0  0
  -26.8164  -25.2341   21.6949 H   0  0  0  0  0  0
  -27.9627  -24.2529   20.8158 H   0  0  0  0  0  0
  -27.9077  -24.8617   23.8049 H   0  0  0  0  0  0
  -29.3685  -24.2983   23.0169 H   0  0  0  0  0  0
  -29.7882  -25.8895   21.2630 H   0  0  0  0  0  0
  -28.6766  -26.9291   22.1227 H   0  0  0  0  0  0
  -29.8931  -14.3160   22.5255 H   0  0  0  0  0  0
  -26.8162  -22.8564   22.9269 H   0  0  0  0  0  0
  -28.2177  -22.3600   22.2851 H   0  0  0  0  0  0
  1 25  1  0  0  0
  1 30  2  0  0  0
  1 88  1  0  0  0
  2  3  1  0  0  0
  2 25  1  0  0  0
  2 92  1  0  0  0
  2 93  1  0  0  0
  3  4  1  0  0  0
  3 94  1  0  0  0
  3 95  1  0  0  0
  4  5  1  0  0  0
  4 96  1  0  0  0
  4 97  1  0  0  0
  5  6  1  0  0  0
  5 26  1  0  0  0
  5 98  1  0  0  0
  6 25  1  0  0  0
  6 99  1  0  0  0
  6100  1  0  0  0
  7  8  2  0  0  0
  7 26  1  0  0  0
  7 29  1  0  0  0
  8  9  1  0  0  0
  8 22  1  0  0  0
  9 10  1  0  0  0
  9 27  2  0  0  0
 10 11  2  0  0  0
 10 15  1  0  0  0
 11 12  1  0  0  0
 11101  1  0  0  0
 12 13  2  0  0  0
 12102  1  0  0  0
 13 14  1  0  0  0
 13 31  1  0  0  0
 14 15  2  0  0  0
 14103  1  0  0  0
 15104  1  0  0  0
 16 17  2  0  0  0
 16 21  1  0  0  0
 16 31  1  0  0  0
 17 18  1  0  0  0
 17105  1  0  0  0
 18 19  2  0  0  0
 18106  1  0  0  0
 19 20  1  0  0  0
 19 24  1  0  0  0
 20 21  2  0  0  0
 20107  1  0  0  0
 21 23  1  0  0  0
 22 28  1  0  0  0
 22 32  2  0  0  0
 26 27  1  0  0  0
 28108  1  0  0  0
 28109  1  0  0  0
 29110  1  0  0  0
 29111  1  0  0  0
 33 34  1  0  0  0
 33 66  1  0  0  0
 33 70  2  0  0  0
 34 36  1  0  0  0
 34 59  1  0  0  0
 34112  1  0  0  0
 35 44  2  0  0  0
 35 45  1  0  0  0
 35 68  1  0  0  0
 36 56  1  0  0  0
 36113  1  0  0  0
 37 39  1  0  0  0
 37 47  1  0  0  0
 37 66  1  0  0  0
 37114  1  0  0  0
 38 43  2  0  0  0
 38 46  1  0  0  0
 38 47  1  0  0  0
 39 64  1  0  0  0
 39 67  2  0  0  0
 40 52  1  0  0  0
 40 53  2  0  0  0
 40 58  1  0  0  0
 41115  1  0  0  0
 41116  1  0  0  0
 41117  1  0  0  0
 41 48  1  0  0  0
 42 43  1  0  0  0
 42 66  1  0  0  0
 42118  1  0  0  0
 42119  1  0  0  0
 43 44  1  0  0  0
 44120  1  0  0  0
 45 46  2  0  0  0
 45121  1  0  0  0
 46122  1  0  0  0
 47123  1  0  0  0
 47124  1  0  0  0
 48 56  1  0  0  0
 48 65  1  0  0  0
 48125  1  0  0  0
 49 50  1  0  0  0
 49 53  1  0  0  0
 49 64  1  0  0  0
 49126  1  0  0  0
 50 51  1  0  0  0
 50127  1  0  0  0
 50128  1  0  0  0
 51 52  1  0  0  0
 51129  1  0  0  0
 51130  1  0  0  0
 52131  1  0  0  0
 52132  1  0  0  0
 53 54  1  0  0  0
 54 55  2  0  0  0
 54133  1  0  0  0
 55 57  1  0  0  0
 55134  1  0  0  0
 56 69  2  0  0  0
 57 58  2  0  0  0
 57135  1  0  0  0
 58136  1  0  0  0
 59 60  1  0  0  0
 59 61  1  0  0  0
 59 62  1  0  0  0
 60137  1  0  0  0
 60138  1  0  0  0
 60139  1  0  0  0
 61140  1  0  0  0
 61141  1  0  0  0
 61142  1  0  0  0
 62143  1  0  0  0
 62144  1  0  0  0
 62145  1  0  0  0
 63 65  1  0  0  0
 63146  1  0  0  0
 63147  1  0  0  0
 63148  1  0  0  0
 64149  1  0  0  0
 65150  1  0  0  0
 68 87  1  0  0  0
 71 72  2  0  0  0
 71 75  1  0  0  0
 71151  1  0  0  0
 72 73  1  0  0  0
 72 83  1  0  0  0
 73 76  2  0  0  0
 73 84  1  0  0  0
 74 75  2  0  0  0
 74 76  1  0  0  0
 74 88  1  0  0  0
 75 90  1  0  0  0
 76 91  1  0  0  0
 77 79  1  0  0  0
 77 81  1  0  0  0
 77152  1  0  0  0
 77153  1  0  0  0
 78 80  1  0  0  0
 78 81  1  0  0  0
 78154  1  0  0  0
 78155  1  0  0  0
 79 82  1  0  0  0
 79156  1  0  0  0
 79157  1  0  0  0
 80 82  1  0  0  0
 80158  1  0  0  0
 80159  1  0  0  0
 81 84  1  0  0  0
 81160  1  0  0  0
 82 89  1  0  0  0
 82161  1  0  0  0
 83162  1  0  0  0
 83163  1  0  0  0
 83164  1  0  0  0
 84165  1  0  0  0
 84166  1  0  0  0
 85 86  1  0  0  0
 85 87  1  0  0  0
 85167  1  0  0  0
 85168  1  0  0  0
 86 89  1  0  0  0
 86169  1  0  0  0
 86170  1  0  0  0
 87171  1  0  0  0
 87172  1  0  0  0
 88173  1  0  0  0
 89174  1  0  0  0
 89175  1  0  0  0
M  CHG  1  89   1
M  ISO  4   1 100  68 101  87 101  88 100
M  END
> <chiral flag>
0

> <version>
0

> <s_m_source_file>
/data/baiqing/PycharmProjects/Reinvent-master-3.2/result/LINK_invent/BTK/process_docking_weight1_custom_sum_contain_oxygen_bond_distance_aromatic_linkinvent_7_9_3/rearranged_h_0024.sdf

> <i_m_source_file_index>
96

> <r_mmod_Potential_Energy-OPLS-2005>
-178.904525756836

> <r_mmod_Stretch_Energy-OPLS-2005>
33.9923286437988

> <r_mmod_Bend_Energy-OPLS-2005>
89.8815383911133

> <r_mmod_Torsional_Energy-OPLS-2005>
297.079925537109

> <r_mmod_Improper_Torsional_Energy-OPLS-2005>
3.55211710929871

> <r_mmod_Van_der_Waal_Energy-OPLS-2005>
158.611114501953

> <r_mmod_Electrostatic_Energy-OPLS-2005>
-328.093719482422

> <r_mmod_Solvation_Energy-OPLS-2005>
-441.483520507812

> <b_mmod_Minimization_Converged-OPLS-2005>
0

> <r_mmod_RMS_Derivative-OPLS-2005>
3.67029285430908

$$$$
96
                    3D
 Structure written by MMmdl.
163171  0  0  1  0            999 V2000
  -30.5269  -14.9945   20.4094 C   0  0  0  0  0  0
  -30.4410  -12.6237   19.4914 C   0  0  0  0  0  0
  -29.5209  -12.5415   18.2518 C   0  0  0  0  0  0
  -28.0567  -12.3144   18.6729 C   0  0  0  0  0  0
  -27.6240  -13.2525   19.8296 C   0  0  2  0  0  0
  -28.6679  -13.3075   20.9639 C   0  0  0  0  0  0
  -25.2440  -13.8225   20.5710 C   0  0  0  0  0  0
  -24.1760  -13.0440   20.9219 C   0  0  0  0  0  0
  -24.6374  -11.6927   20.8733 C   0  0  0  0  0  0
  -23.9051  -10.4291   21.0385 C   0  0  0  0  0  0
  -24.3597   -9.4214   21.9172 C   0  0  0  0  0  0
  -23.6273   -8.2246   22.0743 C   0  0  0  0  0  0
  -22.4258   -8.0272   21.3527 C   0  0  0  0  0  0
  -21.9870   -9.0237   20.4632 C   0  0  0  0  0  0
  -22.7211  -10.2115   20.3044 C   0  0  0  0  0  0
  -21.6859   -6.0712   22.5257 C   0  0  0  0  0  0
  -21.4027   -6.5605   23.8192 C   0  0  0  0  0  0
  -21.3667   -5.6766   24.9156 C   0  0  0  0  0  0
  -21.6043   -4.3025   24.7220 C   0  0  0  0  0  0
  -21.8825   -3.8115   23.4340 C   0  0  0  0  0  0
  -21.9198   -4.6934   22.3400 C   0  0  0  0  0  0
  -22.7784  -13.5220   21.1873 C   0  0  0  0  0  0
  -22.1673   -4.2117   21.0980 F   0  0  0  0  0  0
  -21.5629   -3.4514   25.7735 F   0  0  0  0  0  0
  -29.9379  -13.7296   20.3558 N   0  0  0  0  0  0
  -26.2856  -12.9456   20.3202 N   0  0  0  0  0  0
  -25.9301  -11.6580   20.5680 N   0  0  0  0  0  0
  -22.0432  -12.8217   22.0427 N   0  0  0  0  0  0
  -25.4101  -15.1964   20.4161 N   0  0  0  0  0  0
  -31.7425  -15.0550   20.1954 O   0  0  0  0  0  0
  -21.6643   -6.8852   21.4223 O   0  0  0  0  0  0
  -22.3479  -14.5530   20.6721 O   0  0  0  0  0  0
  -24.6494  -31.8393   23.1885 C   0  0  0  0  0  0
  -25.9257  -32.4663   23.8281 C   0  0  1  0  0  0
  -27.2052  -27.0856   20.1473 C   0  0  0  0  0  0
  -25.5999  -33.8471   24.2195 N   0  0  0  0  0  0
  -23.4541  -30.4621   21.5352 C   0  0  2  0  0  0
  -24.9036  -28.8906   20.1078 C   0  0  0  0  0  0
  -22.7598  -29.4520   22.4840 C   0  0  0  0  0  0
  -18.0316  -28.1387   22.8451 C   0  0  0  0  0  0
  -24.1500  -36.7237   23.2638 C   0  0  0  0  0  0
  -26.0161  -30.6957   21.3991 C   0  0  0  0  0  0
  -26.0842  -29.3045   20.7372 C   0  0  0  0  0  0
  -27.2347  -28.4177   20.7451 C   0  0  0  0  0  0
  -25.9963  -26.8002   19.4678 C   0  0  0  0  0  0
  -24.8769  -27.6534   19.4563 C   0  0  0  0  0  0
  -23.6835  -29.7986   20.1525 C   0  0  0  0  0  0
  -25.4126  -36.3005   24.0313 C   0  0  1  0  0  0
  -20.5927  -28.3719   23.1212 C   0  0  2  0  0  0
  -20.6798  -26.9419   22.5390 C   0  0  0  0  0  0
  -19.5781  -26.6373   21.5191 C   0  0  0  0  0  0
  -18.1961  -26.7923   22.1602 C   0  0  0  0  0  0
  -19.1571  -28.8874   23.2822 C   0  0  0  0  0  0
  -18.9482  -30.1468   23.8849 C   0  0  0  0  0  0
  -17.6478  -30.6579   24.0546 C   0  0  0  0  0  0
  -25.9079  -34.9382   23.5055 C   0  0  0  0  0  0
  -16.5369  -29.9062   23.6339 C   0  0  0  0  0  0
  -16.7300  -28.6488   23.0345 C   0  0  0  0  0  0
  -26.4571  -31.6533   25.0730 C   0  0  0  0  0  0
  -25.3752  -31.3737   26.1426 C   0  0  0  0  0  0
  -27.0423  -30.2903   24.6358 C   0  0  0  0  0  0
  -27.6094  -32.4297   25.7511 C   0  0  0  0  0  0
  -27.5574  -37.1775   24.8462 C   0  0  0  0  0  0
  -21.4283  -29.3045   22.3587 N   0  0  0  0  0  0
  -26.4284  -37.3721   23.9402 N   0  0  0  0  0  0
  -24.7267  -31.0212   22.0951 N   0  0  0  0  0  0
  -23.4222  -28.8051   23.2991 O   0  0  0  0  0  0
  -28.2119  -26.0335   20.2229 O   0  0  0  0  0  0
  -26.5639  -34.8882   22.4617 O   0  0  0  0  0  0
  -23.5604  -32.1304   23.7070 O   0  0  0  0  0  0
  -29.2329  -20.6931   20.1512 C   0  0  0  0  0  0
  -28.1971  -21.7696   20.0998 C   0  0  0  0  0  0
  -30.3252  -21.5217   20.3656 C   0  0  0  0  0  0
  -28.6188  -23.1236   20.1871 C   0  0  0  0  0  0
  -31.7607  -21.1108   20.4959 C   0  0  0  0  0  0
  -26.1526  -18.5923   17.4166 C   0  0  0  0  0  0
  -30.9517  -23.9900   20.5617 C   0  0  0  0  0  0
  -27.7653  -24.5407   20.0035 C   0  0  0  0  0  0
  -27.5674  -18.9701   17.8692 C   0  0  0  0  0  0
  -27.8642  -18.5230   19.3157 C   0  0  0  0  0  0
  -29.9847  -17.7463   20.7014 C   0  0  0  0  0  0
  -29.2273  -19.0166   19.8532 C   0  0  2  0  0  0
  -29.9856  -22.9152   20.3861 N   0  0  0  0  0  0
  -29.7303  -16.1785   20.5035 N   0  0  0  0  0  0
  -26.5150  -21.4443   19.8790 Cl  0  0  0  0  0  0
  -31.4719  -12.7948   19.1770 H   0  0  0  0  0  0
  -30.4478  -11.6808   20.0400 H   0  0  0  0  0  0
  -29.8467  -11.7429   17.5828 H   0  0  0  0  0  0
  -29.5963  -13.4683   17.6797 H   0  0  0  0  0  0
  -27.9604  -11.2752   18.9872 H   0  0  0  0  0  0
  -27.3960  -12.4390   17.8149 H   0  0  0  0  0  0
  -27.5750  -14.2470   19.3869 H   0  0  0  0  0  0
  -28.7642  -12.3428   21.4631 H   0  0  0  0  0  0
  -28.3587  -14.0240   21.7270 H   0  0  0  0  0  0
  -25.2730   -9.5703   22.4761 H   0  0  0  0  0  0
  -23.9975   -7.4642   22.7465 H   0  0  0  0  0  0
  -21.0790   -8.8741   19.8952 H   0  0  0  0  0  0
  -22.3639  -10.9639   19.6164 H   0  0  0  0  0  0
  -21.2020   -7.6113   23.9678 H   0  0  0  0  0  0
  -21.1496   -6.0500   25.9051 H   0  0  0  0  0  0
  -22.0603   -2.7576   23.2853 H   0  0  0  0  0  0
  -22.4041  -11.9886   22.4843 H   0  0  0  0  0  0
  -21.1053  -13.1245   22.2634 H   0  0  0  0  0  0
  -24.6356  -15.8417   20.5215 H   0  0  0  0  0  0
  -26.2380  -15.6309   20.0336 H   0  0  0  0  0  0
  -26.7311  -32.5253   23.0992 H   0  0  0  0  0  0
  -25.0179  -33.9580   25.0369 H   0  0  0  0  0  0
  -22.7602  -31.2906   21.3816 H   0  0  0  0  0  0
  -23.3763  -35.9568   23.3284 H   0  0  0  0  0  0
  -24.3596  -36.8878   22.2055 H   0  0  0  0  0  0
  -23.7258  -37.6430   23.6683 H   0  0  0  0  0  0
  -26.1801  -31.4507   20.6287 H   0  0  0  0  0  0
  -26.8830  -30.7425   22.0454 H   0  0  0  0  0  0
  -28.1256  -28.7232   21.2757 H   0  0  0  0  0  0
  -25.8540  -25.8660   18.9496 H   0  0  0  0  0  0
  -23.9797  -27.3337   18.9440 H   0  0  0  0  0  0
  -23.8235  -30.5751   19.3997 H   0  0  0  0  0  0
  -22.7964  -29.2457   19.8380 H   0  0  0  0  0  0
  -25.1313  -36.1826   25.0806 H   0  0  0  0  0  0
  -21.0008  -28.3306   24.1335 H   0  0  0  0  0  0
  -20.5678  -26.2326   23.3608 H   0  0  0  0  0  0
  -21.6668  -26.7414   22.1200 H   0  0  0  0  0  0
  -19.6942  -25.6275   21.1245 H   0  0  0  0  0  0
  -19.6716  -27.3159   20.6700 H   0  0  0  0  0  0
  -17.4223  -26.6646   21.4015 H   0  0  0  0  0  0
  -18.0371  -26.0079   22.9014 H   0  0  0  0  0  0
  -19.7961  -30.7297   24.2191 H   0  0  0  0  0  0
  -17.5031  -31.6260   24.5145 H   0  0  0  0  0  0
  -15.5366  -30.2940   23.7702 H   0  0  0  0  0  0
  -15.8702  -28.0796   22.7076 H   0  0  0  0  0  0
  -24.5953  -30.7050   25.7772 H   0  0  0  0  0  0
  -24.8934  -32.2923   26.4781 H   0  0  0  0  0  0
  -25.8061  -30.8978   27.0246 H   0  0  0  0  0  0
  -26.3052  -29.6610   24.1357 H   0  0  0  0  0  0
  -27.3978  -29.7219   25.4966 H   0  0  0  0  0  0
  -27.8999  -30.4088   23.9726 H   0  0  0  0  0  0
  -27.2697  -33.3626   26.2023 H   0  0  0  0  0  0
  -28.3954  -32.6802   25.0370 H   0  0  0  0  0  0
  -28.0717  -31.8462   26.5486 H   0  0  0  0  0  0
  -28.2574  -38.0083   24.7505 H   0  0  0  0  0  0
  -28.1088  -36.2615   24.6295 H   0  0  0  0  0  0
  -27.2300  -37.1430   25.8866 H   0  0  0  0  0  0
  -20.9499  -29.8761   21.6763 H   0  0  0  0  0  0
  -26.0149  -38.2787   24.1395 H   0  0  0  0  0  0
  -31.8520  -20.0537   20.7386 H   0  0  0  0  0  0
  -32.2723  -21.6630   21.2836 H   0  0  0  0  0  0
  -32.2953  -21.2824   19.5617 H   0  0  0  0  0  0
  -25.9950  -18.8496   16.3682 H   0  0  0  0  0  0
  -25.4018  -19.1236   18.0038 H   0  0  0  0  0  0
  -25.9688  -17.5227   17.5273 H   0  0  0  0  0  0
  -31.7637  -23.8840   19.8425 H   0  0  0  0  0  0
  -31.3606  -23.9548   21.5716 H   0  0  0  0  0  0
  -30.4883  -24.9641   20.4129 H   0  0  0  0  0  0
  -26.8567  -24.4195   20.5943 H   0  0  0  0  0  0
  -27.4402  -24.5015   18.9647 H   0  0  0  0  0  0
  -27.7040  -20.0461   17.7612 H   0  0  0  0  0  0
  -28.2920  -18.5124   17.1930 H   0  0  0  0  0  0
  -27.8396  -17.4352   19.3028 H   0  0  0  0  0  0
  -27.0659  -18.8090   19.9994 H   0  0  0  0  0  0
  -29.7518  -17.9182   21.7521 H   0  0  0  0  0  0
  -31.0628  -17.8912   20.6375 H   0  0  0  0  0  0
  -29.8564  -19.0189   18.9621 H   0  0  0  0  0  0
  -28.7503  -15.9467   20.5674 H   0  0  0  0  0  0
  1 25  1  0  0  0
  1 30  2  0  0  0
  1 84  1  0  0  0
  2  3  1  0  0  0
  2 25  1  0  0  0
  2 86  1  0  0  0
  2 87  1  0  0  0
  3  4  1  0  0  0
  3 88  1  0  0  0
  3 89  1  0  0  0
  4  5  1  0  0  0
  4 90  1  0  0  0
  4 91  1  0  0  0
  5  6  1  0  0  0
  5 26  1  0  0  0
  5 92  1  0  0  0
  6 25  1  0  0  0
  6 93  1  0  0  0
  6 94  1  0  0  0
  7  8  2  0  0  0
  7 26  1  0  0  0
  7 29  1  0  0  0
  8  9  1  0  0  0
  8 22  1  0  0  0
  9 10  1  0  0  0
  9 27  2  0  0  0
 10 11  2  0  0  0
 10 15  1  0  0  0
 11 12  1  0  0  0
 11 95  1  0  0  0
 12 13  2  0  0  0
 12 96  1  0  0  0
 13 14  1  0  0  0
 13 31  1  0  0  0
 14 15  2  0  0  0
 14 97  1  0  0  0
 15 98  1  0  0  0
 16 17  2  0  0  0
 16 21  1  0  0  0
 16 31  1  0  0  0
 17 18  1  0  0  0
 17 99  1  0  0  0
 18 19  2  0  0  0
 18100  1  0  0  0
 19 20  1  0  0  0
 19 24  1  0  0  0
 20 21  2  0  0  0
 20101  1  0  0  0
 21 23  1  0  0  0
 22 28  1  0  0  0
 22 32  2  0  0  0
 26 27  1  0  0  0
 28102  1  0  0  0
 28103  1  0  0  0
 29104  1  0  0  0
 29105  1  0  0  0
 33 34  1  0  0  0
 33 66  1  0  0  0
 33 70  2  0  0  0
 34 36  1  0  0  0
 34 59  1  0  0  0
 34106  1  0  0  0
 35 44  2  0  0  0
 35 45  1  0  0  0
 35 68  1  0  0  0
 36 56  1  0  0  0
 36107  1  0  0  0
 37 39  1  0  0  0
 37 47  1  0  0  0
 37 66  1  0  0  0
 37108  1  0  0  0
 38 43  2  0  0  0
 38 46  1  0  0  0
 38 47  1  0  0  0
 39 64  1  0  0  0
 39 67  2  0  0  0
 40 52  1  0  0  0
 40 53  2  0  0  0
 40 58  1  0  0  0
 41109  1  0  0  0
 41110  1  0  0  0
 41111  1  0  0  0
 41 48  1  0  0  0
 42 43  1  0  0  0
 42 66  1  0  0  0
 42112  1  0  0  0
 42113  1  0  0  0
 43 44  1  0  0  0
 44114  1  0  0  0
 45 46  2  0  0  0
 45115  1  0  0  0
 46116  1  0  0  0
 47117  1  0  0  0
 47118  1  0  0  0
 48 56  1  0  0  0
 48 65  1  0  0  0
 48119  1  0  0  0
 49 50  1  0  0  0
 49 53  1  0  0  0
 49 64  1  0  0  0
 49120  1  0  0  0
 50 51  1  0  0  0
 50121  1  0  0  0
 50122  1  0  0  0
 51 52  1  0  0  0
 51123  1  0  0  0
 51124  1  0  0  0
 52125  1  0  0  0
 52126  1  0  0  0
 53 54  1  0  0  0
 54 55  2  0  0  0
 54127  1  0  0  0
 55 57  1  0  0  0
 55128  1  0  0  0
 56 69  2  0  0  0
 57 58  2  0  0  0
 57129  1  0  0  0
 58130  1  0  0  0
 59 60  1  0  0  0
 59 61  1  0  0  0
 59 62  1  0  0  0
 60131  1  0  0  0
 60132  1  0  0  0
 60133  1  0  0  0
 61134  1  0  0  0
 61135  1  0  0  0
 61136  1  0  0  0
 62137  1  0  0  0
 62138  1  0  0  0
 62139  1  0  0  0
 63 65  1  0  0  0
 63140  1  0  0  0
 63141  1  0  0  0
 63142  1  0  0  0
 64143  1  0  0  0
 65144  1  0  0  0
 68 78  1  0  0  0
 71 72  1  0  0  0
 71 73  2  0  0  0
 71 82  1  0  0  0
 72 74  2  0  0  0
 72 85  1  0  0  0
 73 75  1  0  0  0
 73 83  1  0  0  0
 74 78  1  0  0  0
 74 83  1  0  0  0
 75145  1  0  0  0
 75146  1  0  0  0
 75147  1  0  0  0
 76 79  1  0  0  0
 76148  1  0  0  0
 76149  1  0  0  0
 76150  1  0  0  0
 77 83  1  0  0  0
 77151  1  0  0  0
 77152  1  0  0  0
 77153  1  0  0  0
 78154  1  0  0  0
 78155  1  0  0  0
 79 80  1  0  0  0
 79156  1  0  0  0
 79157  1  0  0  0
 80158  1  0  0  0
 80159  1  0  0  0
 80 82  1  0  0  0
 81 82  1  0  0  0
 81 84  1  0  0  0
 81160  1  0  0  0
 81161  1  0  0  0
 82162  1  0  0  0
 84163  1  0  0  0
M  ISO  4   1 100  68 101  78 101  84 100
M  END
> <chiral flag>
0

> <version>
0

> <s_m_source_file>
/data/baiqing/PycharmProjects/Reinvent-master-3.2/result/LINK_invent/BTK/process_docking_weight1_custom_sum_contain_oxygen_bond_distance_aromatic_linkinvent_7_9_3/rearranged_h_0024.sdf

> <i_m_source_file_index>
97

> <r_mmod_Potential_Energy-OPLS-2005>
633.816589355469

> <r_mmod_Stretch_Energy-OPLS-2005>
302.152770996094

> <r_mmod_Bend_Energy-OPLS-2005>
325.095031738281

> <r_mmod_Torsional_Energy-OPLS-2005>
224.44775390625

> <r_mmod_Improper_Torsional_Energy-OPLS-2005>
5.71028566360474

> <r_mmod_Van_der_Waal_Energy-OPLS-2005>
111.700843811035

> <r_mmod_Electrostatic_Energy-OPLS-2005>
-372.253570556641

> <r_mmod_Solvation_Energy-OPLS-2005>
-204.452072143555

> <b_mmod_Minimization_Converged-OPLS-2005>
0

> <r_mmod_RMS_Derivative-OPLS-2005>
2.36979651451111

$$$$
97
                    3D
 Structure written by MMmdl.
150158  0  0  1  0            999 V2000
  -30.4417  -15.1848   20.3823 C   0  0  0  0  0  0
  -30.4476  -12.7484   19.5232 C   0  0  0  0  0  0
  -29.5368  -12.5721   18.2818 C   0  0  0  0  0  0
  -28.0784  -12.3128   18.7015 C   0  0  0  0  0  0
  -27.6198  -13.2682   19.8318 C   0  0  2  0  0  0
  -28.6569  -13.3876   20.9692 C   0  0  0  0  0  0
  -25.2394  -13.8213   20.5695 C   0  0  0  0  0  0
  -24.1746  -13.0416   20.9230 C   0  0  0  0  0  0
  -24.6406  -11.6918   20.8757 C   0  0  0  0  0  0
  -23.9095  -10.4284   21.0405 C   0  0  0  0  0  0
  -24.3637   -9.4199   21.9185 C   0  0  0  0  0  0
  -23.6302   -8.2239   22.0755 C   0  0  0  0  0  0
  -22.4284   -8.0282   21.3544 C   0  0  0  0  0  0
  -21.9927   -9.0257   20.4645 C   0  0  0  0  0  0
  -22.7264  -10.2130   20.3054 C   0  0  0  0  0  0
  -21.6854   -6.0736   22.5279 C   0  0  0  0  0  0
  -21.4016   -6.5640   23.8213 C   0  0  0  0  0  0
  -21.3660   -5.6792   24.9175 C   0  0  0  0  0  0
  -21.6044   -4.3054   24.7226 C   0  0  0  0  0  0
  -21.8817   -3.8146   23.4346 C   0  0  0  0  0  0
  -21.9193   -4.6963   22.3402 C   0  0  0  0  0  0
  -22.7766  -13.5179   21.1893 C   0  0  0  0  0  0
  -22.1660   -4.2148   21.0977 F   0  0  0  0  0  0
  -21.5629   -3.4537   25.7738 F   0  0  0  0  0  0
  -29.9052  -13.8736   20.3603 N   0  0  0  0  0  0
  -26.2848  -12.9494   20.3232 N   0  0  0  0  0  0
  -25.9348  -11.6605   20.5735 N   0  0  0  0  0  0
  -22.0429  -12.8164   22.0455 N   0  0  0  0  0  0
  -25.3975  -15.1933   20.4081 N   0  0  0  0  0  0
  -31.6511  -15.2349   20.1227 O   0  0  0  0  0  0
  -21.6641   -6.8883   21.4242 O   0  0  0  0  0  0
  -22.3438  -14.5479   20.6737 O   0  0  0  0  0  0
  -24.6579  -31.8274   23.1735 C   0  0  0  0  0  0
  -25.9281  -32.4604   23.8185 C   0  0  1  0  0  0
  -27.2248  -26.9825   20.1783 C   0  0  0  0  0  0
  -25.5969  -33.8419   24.2091 N   0  0  0  0  0  0
  -23.4704  -30.4400   21.5212 C   0  0  2  0  0  0
  -24.9245  -28.8350   20.1111 C   0  0  0  0  0  0
  -22.7641  -29.4457   22.4789 C   0  0  0  0  0  0
  -18.0317  -28.1407   22.8466 C   0  0  0  0  0  0
  -24.1494  -36.7220   23.2646 C   0  0  0  0  0  0
  -26.0356  -30.6530   21.3941 C   0  0  0  0  0  0
  -26.1062  -29.2477   20.7391 C   0  0  0  0  0  0
  -27.2525  -28.3422   20.7470 C   0  0  0  0  0  0
  -26.0140  -26.7051   19.5065 C   0  0  0  0  0  0
  -24.9004  -27.5830   19.4747 C   0  0  0  0  0  0
  -23.7079  -29.7567   20.1464 C   0  0  0  0  0  0
  -25.4130  -36.2974   24.0299 C   0  0  1  0  0  0
  -20.5938  -28.3746   23.1196 C   0  0  2  0  0  0
  -20.6795  -26.9429   22.5403 C   0  0  0  0  0  0
  -19.5771  -26.6376   21.5214 C   0  0  0  0  0  0
  -18.1953  -26.7939   22.1622 C   0  0  0  0  0  0
  -19.1578  -28.8895   23.2821 C   0  0  0  0  0  0
  -18.9491  -30.1486   23.8855 C   0  0  0  0  0  0
  -17.6487  -30.6598   24.0556 C   0  0  0  0  0  0
  -25.9091  -34.9357   23.5013 C   0  0  0  0  0  0
  -16.5375  -29.9088   23.6341 C   0  0  0  0  0  0
  -16.7301  -28.6508   23.0359 C   0  0  0  0  0  0
  -26.4551  -31.6538   25.0697 C   0  0  0  0  0  0
  -25.3698  -31.3780   26.1370 C   0  0  0  0  0  0
  -27.0440  -30.2910   24.6395 C   0  0  0  0  0  0
  -27.6042  -32.4346   25.7506 C   0  0  0  0  0  0
  -27.5566  -37.1767   24.8464 C   0  0  0  0  0  0
  -21.4315  -29.3042   22.3547 N   0  0  0  0  0  0
  -26.4277  -37.3708   23.9404 N   0  0  0  0  0  0
  -24.7421  -30.9994   22.0838 N   0  0  0  0  0  0
  -23.4212  -28.8020   23.3008 O   0  0  0  0  0  0
  -28.2509  -25.9200   20.2588 O   0  0  0  0  0  0
  -26.5698  -34.8887   22.4607 O   0  0  0  0  0  0
  -23.5660  -32.1214   23.6864 O   0  0  0  0  0  0
  -30.2373  -20.4236   19.8366 C   0  0  0  0  0  0
  -29.1166  -21.2097   20.3479 C   0  0  0  0  0  0
  -28.2075  -20.2275   20.9216 C   0  0  0  0  0  0
  -29.5469  -17.9763   20.4522 C   0  0  0  0  0  0
  -30.4505  -18.9545   19.8708 C   0  0  0  0  0  0
  -28.4118  -18.7478   20.9571 C   0  0  0  0  0  0
  -26.9460  -20.7756   21.5700 C   0  0  0  0  0  0
  -29.1166  -22.9488   20.4550 C   0  0  0  0  0  0
  -28.0346  -24.3106   20.1074 C   0  0  0  0  0  0
  -29.5979  -16.3711   20.5458 N   0  0  0  0  0  0
  -31.9062  -18.3750   19.1482 Cl  0  0  0  0  0  0
  -27.1762  -17.7954   21.7071 Cl  0  0  0  0  0  0
  -31.4700  -12.9482   19.1990 H   0  0  0  0  0  0
  -30.4984  -11.8255   20.1028 H   0  0  0  0  0  0
  -29.8999  -11.7564   17.6552 H   0  0  0  0  0  0
  -29.5835  -13.4735   17.6690 H   0  0  0  0  0  0
  -28.0130  -11.2802   19.0458 H   0  0  0  0  0  0
  -27.4138  -12.3912   17.8404 H   0  0  0  0  0  0
  -27.5512  -14.2500   19.3620 H   0  0  0  0  0  0
  -28.8007  -12.4337   21.4781 H   0  0  0  0  0  0
  -28.3119  -14.0935   21.7263 H   0  0  0  0  0  0
  -25.2780   -9.5671   22.4764 H   0  0  0  0  0  0
  -24.0005   -7.4629   22.7477 H   0  0  0  0  0  0
  -21.0858   -8.8780   19.8950 H   0  0  0  0  0  0
  -22.3727  -10.9669   19.6163 H   0  0  0  0  0  0
  -21.2009   -7.6149   23.9717 H   0  0  0  0  0  0
  -21.1485   -6.0522   25.9078 H   0  0  0  0  0  0
  -22.0596   -2.7608   23.2846 H   0  0  0  0  0  0
  -22.4068  -11.9836   22.4843 H   0  0  0  0  0  0
  -21.1044  -13.1171   22.2665 H   0  0  0  0  0  0
  -24.6296  -15.8398   20.5492 H   0  0  0  0  0  0
  -26.2450  -15.6524   20.1053 H   0  0  0  0  0  0
  -26.7349  -32.5161   23.0903 H   0  0  0  0  0  0
  -25.0072  -33.9506   25.0212 H   0  0  0  0  0  0
  -22.7809  -31.2695   21.3523 H   0  0  0  0  0  0
  -23.3757  -35.9551   23.3285 H   0  0  0  0  0  0
  -24.3570  -36.8891   22.2065 H   0  0  0  0  0  0
  -23.7255  -37.6405   23.6719 H   0  0  0  0  0  0
  -26.2076  -31.3971   20.6153 H   0  0  0  0  0  0
  -26.8988  -30.7093   22.0455 H   0  0  0  0  0  0
  -28.1499  -28.6565   21.2610 H   0  0  0  0  0  0
  -25.8987  -25.7453   19.0239 H   0  0  0  0  0  0
  -24.0013  -27.2618   18.9666 H   0  0  0  0  0  0
  -23.8597  -30.5255   19.3876 H   0  0  0  0  0  0
  -22.8192  -29.2074   19.8307 H   0  0  0  0  0  0
  -25.1329  -36.1773   25.0791 H   0  0  0  0  0  0
  -21.0028  -28.3352   24.1320 H   0  0  0  0  0  0
  -20.5674  -26.2363   23.3640 H   0  0  0  0  0  0
  -21.6659  -26.7411   22.1209 H   0  0  0  0  0  0
  -19.6931  -25.6276   21.1271 H   0  0  0  0  0  0
  -19.6711  -27.3164   20.6722 H   0  0  0  0  0  0
  -17.4219  -26.6679   21.4028 H   0  0  0  0  0  0
  -18.0350  -26.0095   22.9029 H   0  0  0  0  0  0
  -19.7967  -30.7311   24.2207 H   0  0  0  0  0  0
  -17.5040  -31.6273   24.5167 H   0  0  0  0  0  0
  -15.5375  -30.2977   23.7690 H   0  0  0  0  0  0
  -15.8700  -28.0815   22.7094 H   0  0  0  0  0  0
  -24.5887  -30.7118   25.7694 H   0  0  0  0  0  0
  -24.8883  -32.2982   26.4690 H   0  0  0  0  0  0
  -25.7949  -30.9025   27.0218 H   0  0  0  0  0  0
  -26.3093  -29.6597   24.1383 H   0  0  0  0  0  0
  -27.3970  -29.7261   25.5034 H   0  0  0  0  0  0
  -27.9036  -30.4100   23.9796 H   0  0  0  0  0  0
  -27.2600  -33.3684   26.1968 H   0  0  0  0  0  0
  -28.3919  -32.6851   25.0388 H   0  0  0  0  0  0
  -28.0637  -31.8554   26.5526 H   0  0  0  0  0  0
  -28.2564  -38.0079   24.7498 H   0  0  0  0  0  0
  -28.1079  -36.2603   24.6304 H   0  0  0  0  0  0
  -27.2281  -37.1425   25.8866 H   0  0  0  0  0  0
  -20.9556  -29.8744   21.6695 H   0  0  0  0  0  0
  -26.0124  -38.2765   24.1415 H   0  0  0  0  0  0
  -31.0412  -20.9943   19.3943 H   0  0  0  0  0  0
  -26.9008  -20.4888   22.6208 H   0  0  0  0  0  0
  -26.0600  -20.3853   21.0682 H   0  0  0  0  0  0
  -26.8943  -21.8621   21.5265 H   0  0  0  0  0  0
  -30.0243  -23.2123   19.9120 H   0  0  0  0  0  0
  -29.3929  -23.1087   21.4969 H   0  0  0  0  0  0
  -27.1248  -24.1110   20.6737 H   0  0  0  0  0  0
  -27.7373  -24.1788   19.0671 H   0  0  0  0  0  0
  -28.6843  -16.0434   20.8188 H   0  0  0  0  0  0
  1 25  1  0  0  0
  1 30  2  0  0  0
  1 80  1  0  0  0
  2  3  1  0  0  0
  2 25  1  0  0  0
  2 83  1  0  0  0
  2 84  1  0  0  0
  3  4  1  0  0  0
  3 85  1  0  0  0
  3 86  1  0  0  0
  4  5  1  0  0  0
  4 87  1  0  0  0
  4 88  1  0  0  0
  5  6  1  0  0  0
  5 26  1  0  0  0
  5 89  1  0  0  0
  6 25  1  0  0  0
  6 90  1  0  0  0
  6 91  1  0  0  0
  7  8  2  0  0  0
  7 26  1  0  0  0
  7 29  1  0  0  0
  8  9  1  0  0  0
  8 22  1  0  0  0
  9 10  1  0  0  0
  9 27  2  0  0  0
 10 11  2  0  0  0
 10 15  1  0  0  0
 11 12  1  0  0  0
 11 92  1  0  0  0
 12 13  2  0  0  0
 12 93  1  0  0  0
 13 14  1  0  0  0
 13 31  1  0  0  0
 14 15  2  0  0  0
 14 94  1  0  0  0
 15 95  1  0  0  0
 16 17  2  0  0  0
 16 21  1  0  0  0
 16 31  1  0  0  0
 17 18  1  0  0  0
 17 96  1  0  0  0
 18 19  2  0  0  0
 18 97  1  0  0  0
 19 20  1  0  0  0
 19 24  1  0  0  0
 20 21  2  0  0  0
 20 98  1  0  0  0
 21 23  1  0  0  0
 22 28  1  0  0  0
 22 32  2  0  0  0
 26 27  1  0  0  0
 28 99  1  0  0  0
 28100  1  0  0  0
 29101  1  0  0  0
 29102  1  0  0  0
 33 34  1  0  0  0
 33 66  1  0  0  0
 33 70  2  0  0  0
 34 36  1  0  0  0
 34 59  1  0  0  0
 34103  1  0  0  0
 35 44  2  0  0  0
 35 45  1  0  0  0
 35 68  1  0  0  0
 36 56  1  0  0  0
 36104  1  0  0  0
 37 39  1  0  0  0
 37 47  1  0  0  0
 37 66  1  0  0  0
 37105  1  0  0  0
 38 43  2  0  0  0
 38 46  1  0  0  0
 38 47  1  0  0  0
 39 64  1  0  0  0
 39 67  2  0  0  0
 40 52  1  0  0  0
 40 53  2  0  0  0
 40 58  1  0  0  0
 41106  1  0  0  0
 41107  1  0  0  0
 41108  1  0  0  0
 41 48  1  0  0  0
 42 43  1  0  0  0
 42 66  1  0  0  0
 42109  1  0  0  0
 42110  1  0  0  0
 43 44  1  0  0  0
 44111  1  0  0  0
 45 46  2  0  0  0
 45112  1  0  0  0
 46113  1  0  0  0
 47114  1  0  0  0
 47115  1  0  0  0
 48 56  1  0  0  0
 48 65  1  0  0  0
 48116  1  0  0  0
 49 50  1  0  0  0
 49 53  1  0  0  0
 49 64  1  0  0  0
 49117  1  0  0  0
 50 51  1  0  0  0
 50118  1  0  0  0
 50119  1  0  0  0
 51 52  1  0  0  0
 51120  1  0  0  0
 51121  1  0  0  0
 52122  1  0  0  0
 52123  1  0  0  0
 53 54  1  0  0  0
 54 55  2  0  0  0
 54124  1  0  0  0
 55 57  1  0  0  0
 55125  1  0  0  0
 56 69  2  0  0  0
 57 58  2  0  0  0
 57126  1  0  0  0
 58127  1  0  0  0
 59 60  1  0  0  0
 59 61  1  0  0  0
 59 62  1  0  0  0
 60128  1  0  0  0
 60129  1  0  0  0
 60130  1  0  0  0
 61131  1  0  0  0
 61132  1  0  0  0
 61133  1  0  0  0
 62134  1  0  0  0
 62135  1  0  0  0
 62136  1  0  0  0
 63 65  1  0  0  0
 63137  1  0  0  0
 63138  1  0  0  0
 63139  1  0  0  0
 64140  1  0  0  0
 65141  1  0  0  0
 68 79  1  0  0  0
 71 72  2  0  0  0
 71 75  1  0  0  0
 71142  1  0  0  0
 72 73  1  0  0  0
 72 78  1  0  0  0
 73 76  2  0  0  0
 73 77  1  0  0  0
 74 75  2  0  0  0
 74 76  1  0  0  0
 74 80  1  0  0  0
 75 81  1  0  0  0
 76 82  1  0  0  0
 77143  1  0  0  0
 77144  1  0  0  0
 77145  1  0  0  0
 78 79  1  0  0  0
 78146  1  0  0  0
 78147  1  0  0  0
 79148  1  0  0  0
 79149  1  0  0  0
 80150  1  0  0  0
M  ISO  4   1 100  68 101  79 101  80 100
M  END
> <chiral flag>
0

> <version>
0

> <s_m_source_file>
/data/baiqing/PycharmProjects/Reinvent-master-3.2/result/LINK_invent/BTK/process_docking_weight1_custom_sum_contain_oxygen_bond_distance_aromatic_linkinvent_7_9_3/rearranged_h_0024.sdf

> <i_m_source_file_index>
98

> <r_mmod_Potential_Energy-OPLS-2005>
981.833312988281

> <r_mmod_Stretch_Energy-OPLS-2005>
456.074340820312

> <r_mmod_Bend_Energy-OPLS-2005>
411.928405761719

> <r_mmod_Torsional_Energy-OPLS-2005>
214.472686767578

> <r_mmod_Improper_Torsional_Energy-OPLS-2005>
4.52982902526855

> <r_mmod_Van_der_Waal_Energy-OPLS-2005>
125.066452026367

> <r_mmod_Electrostatic_Energy-OPLS-2005>
-399.713897705078

> <r_mmod_Solvation_Energy-OPLS-2005>
-208.038208007812

> <b_mmod_Minimization_Converged-OPLS-2005>
0

> <r_mmod_RMS_Derivative-OPLS-2005>
0.692124605178833

$$$$
98
                    3D
 Structure written by MMmdl.
183191  0  0  1  0            999 V2000
  -30.7549  -14.3587   20.6770 C   0  0  0  0  0  0
  -30.4204  -12.2838   19.3866 C   0  0  0  0  0  0
  -29.4829  -12.5217   18.1880 C   0  0  0  0  0  0
  -28.0071  -12.3771   18.6060 C   0  0  0  0  0  0
  -27.6667  -13.1978   19.8770 C   0  0  2  0  0  0
  -28.7031  -12.9253   20.9881 C   0  0  0  0  0  0
  -25.2616  -13.8152   20.5665 C   0  0  0  0  0  0
  -24.1856  -13.0441   20.9160 C   0  0  0  0  0  0
  -24.6393  -11.6897   20.8711 C   0  0  0  0  0  0
  -23.9055  -10.4290   21.0394 C   0  0  0  0  0  0
  -24.3611   -9.4214   21.9181 C   0  0  0  0  0  0
  -23.6290   -8.2249   22.0752 C   0  0  0  0  0  0
  -22.4277   -8.0282   21.3540 C   0  0  0  0  0  0
  -21.9907   -9.0252   20.4646 C   0  0  0  0  0  0
  -22.7224  -10.2134   20.3051 C   0  0  0  0  0  0
  -21.6855   -6.0738   22.5279 C   0  0  0  0  0  0
  -21.4011   -6.5641   23.8212 C   0  0  0  0  0  0
  -21.3657   -5.6794   24.9177 C   0  0  0  0  0  0
  -21.6046   -4.3055   24.7226 C   0  0  0  0  0  0
  -21.8820   -3.8149   23.4346 C   0  0  0  0  0  0
  -21.9193   -4.6966   22.3405 C   0  0  0  0  0  0
  -22.7880  -13.5245   21.1830 C   0  0  0  0  0  0
  -22.1663   -4.2154   21.0979 F   0  0  0  0  0  0
  -21.5630   -3.4538   25.7739 F   0  0  0  0  0  0
  -30.0477  -13.2217   20.4542 N   0  0  0  0  0  0
  -26.3042  -12.9303   20.3354 N   0  0  0  0  0  0
  -25.9313  -11.6466   20.5743 N   0  0  0  0  0  0
  -22.0519  -12.8237   22.0383 N   0  0  0  0  0  0
  -25.4368  -15.1869   20.4098 N   0  0  0  0  0  0
  -31.7894  -14.6528   20.0701 O   0  0  0  0  0  0
  -21.6635   -6.8882   21.4240 O   0  0  0  0  0  0
  -22.3560  -14.5555   20.6686 O   0  0  0  0  0  0
  -24.6107  -31.8677   23.2106 C   0  0  0  0  0  0
  -25.8997  -32.4837   23.8403 C   0  0  1  0  0  0
  -27.2492  -27.4583   20.0974 C   0  0  0  0  0  0
  -25.5846  -33.8640   24.2322 N   0  0  0  0  0  0
  -23.3991  -30.4877   21.5503 C   0  0  2  0  0  0
  -24.8494  -28.9474   20.1228 C   0  0  0  0  0  0
  -22.7393  -29.4654   22.5012 C   0  0  0  0  0  0
  -18.0265  -28.1390   22.8493 C   0  0  0  0  0  0
  -24.1452  -36.7299   23.2653 C   0  0  0  0  0  0
  -25.9254  -30.8368   21.3624 C   0  0  0  0  0  0
  -26.0055  -29.4707   20.7156 C   0  0  0  0  0  0
  -27.2078  -28.7332   20.6962 C   0  0  0  0  0  0
  -26.0782  -26.9405   19.4985 C   0  0  0  0  0  0
  -24.8786  -27.6798   19.5130 C   0  0  0  0  0  0
  -23.6080  -29.8118   20.1688 C   0  0  0  0  0  0
  -25.4088  -36.3117   24.0342 C   0  0  1  0  0  0
  -20.5858  -28.3667   23.1339 C   0  0  2  0  0  0
  -20.6763  -26.9405   22.5428 C   0  0  0  0  0  0
  -19.5742  -26.6385   21.5227 C   0  0  0  0  0  0
  -18.1912  -26.7933   22.1627 C   0  0  0  0  0  0
  -19.1513  -28.8837   23.2910 C   0  0  0  0  0  0
  -18.9459  -30.1455   23.8919 C   0  0  0  0  0  0
  -17.6469  -30.6602   24.0572 C   0  0  0  0  0  0
  -25.9014  -34.9488   23.5132 C   0  0  0  0  0  0
  -16.5356  -29.9115   23.6335 C   0  0  0  0  0  0
  -16.7252  -28.6532   23.0337 C   0  0  0  0  0  0
  -26.4447  -31.6646   25.0741 C   0  0  0  0  0  0
  -25.3716  -31.3761   26.1497 C   0  0  0  0  0  0
  -27.0310  -30.3113   24.6111 C   0  0  0  0  0  0
  -27.6019  -32.4417   25.7464 C   0  0  0  0  0  0
  -27.5560  -37.1793   24.8470 C   0  0  0  0  0  0
  -21.4123  -29.3023   22.3737 N   0  0  0  0  0  0
  -26.4276  -37.3795   23.9411 N   0  0  0  0  0  0
  -24.6628  -31.0782   22.0997 N   0  0  0  0  0  0
  -23.4168  -28.8215   23.3061 O   0  0  0  0  0  0
  -28.4474  -26.7856   20.0669 O   0  0  0  0  0  0
  -26.5585  -34.8936   22.4703 O   0  0  0  0  0  0
  -23.5303  -32.1431   23.7507 O   0  0  0  0  0  0
  -25.8845  -22.2399   16.9455 C   0  0  0  0  0  0
  -25.4374  -22.0699   18.2693 C   0  0  0  0  0  0
  -26.7245  -21.2834   16.3394 C   0  0  0  0  0  0
  -26.6569  -19.9460   18.4033 C   0  0  0  0  0  0
  -25.8306  -20.9292   19.0059 C   0  0  0  0  0  0
  -27.1006  -20.1283   17.0676 C   0  0  0  0  0  0
  -24.5206  -23.1121   18.8859 C   0  0  0  0  0  0
  -27.0665  -18.6939   19.1770 C   0  0  0  0  0  0
  -27.2074  -21.5141   14.9079 C   0  0  0  0  0  0
  -28.4907  -18.7879   19.7487 C   0  0  0  0  0  0
  -28.8712  -17.5513   20.5741 C   0  0  0  0  0  0
  -30.0316  -23.9816   17.0983 C   0  0  0  0  0  0
  -29.0382  -24.7208   18.0153 C   0  0  0  0  0  0
  -30.3479  -17.5739   21.0076 C   0  0  0  0  0  0
  -29.7961  -24.2382   15.5947 C   0  0  0  0  0  0
  -29.4217  -24.6429   19.5012 C   0  0  0  0  0  0
  -30.7354  -16.4700   22.0115 C   0  0  0  0  0  0
  -28.4825  -23.6577   15.0331 C   0  0  0  0  0  0
  -28.4451  -25.4005   20.4133 C   0  0  0  0  0  0
  -30.2404  -15.1549   21.6192 N   0  0  0  0  0  0
  -28.5245  -22.1873   14.8742 N   0  3  0  0  0  0
  -25.2893  -20.7568   20.6442 Cl  0  0  0  0  0  0
  -28.1188  -18.9395   16.3200 Cl  0  0  0  0  0  0
  -31.4617  -12.3950   19.0788 H   0  0  0  0  0  0
  -30.3283  -11.2587   19.7481 H   0  0  0  0  0  0
  -29.7132  -11.8192   17.3856 H   0  0  0  0  0  0
  -29.6523  -13.5190   17.7801 H   0  0  0  0  0  0
  -27.8134  -11.3186   18.7847 H   0  0  0  0  0  0
  -27.3537  -12.6694   17.7833 H   0  0  0  0  0  0
  -27.7292  -14.2527   19.6082 H   0  0  0  0  0  0
  -28.6650  -11.8768   21.2877 H   0  0  0  0  0  0
  -28.4478  -13.4847   21.8876 H   0  0  0  0  0  0
  -25.2764   -9.5691   22.4745 H   0  0  0  0  0  0
  -24.0007   -7.4639   22.7470 H   0  0  0  0  0  0
  -21.0840   -8.8766   19.8947 H   0  0  0  0  0  0
  -22.3691  -10.9669   19.6154 H   0  0  0  0  0  0
  -21.1998   -7.6148   23.9721 H   0  0  0  0  0  0
  -21.1479   -6.0521   25.9081 H   0  0  0  0  0  0
  -22.0601   -2.7608   23.2845 H   0  0  0  0  0  0
  -22.4127  -11.9896   22.4764 H   0  0  0  0  0  0
  -21.1140  -13.1263   22.2590 H   0  0  0  0  0  0
  -24.6753  -15.8460   20.5287 H   0  0  0  0  0  0
  -26.3021  -15.6230   20.1176 H   0  0  0  0  0  0
  -26.7073  -32.5552   23.1179 H   0  0  0  0  0  0
  -24.9940  -33.9811   25.0431 H   0  0  0  0  0  0
  -22.6863  -31.3015   21.4064 H   0  0  0  0  0  0
  -23.3719  -35.9626   23.3358 H   0  0  0  0  0  0
  -24.3518  -36.8873   22.2051 H   0  0  0  0  0  0
  -23.7211  -37.6520   23.6648 H   0  0  0  0  0  0
  -26.0303  -31.5985   20.5890 H   0  0  0  0  0  0
  -26.8168  -30.8992   21.9753 H   0  0  0  0  0  0
  -28.1067  -29.1359   21.1423 H   0  0  0  0  0  0
  -26.0936  -25.9819   19.0006 H   0  0  0  0  0  0
  -23.9930  -27.2703   19.0466 H   0  0  0  0  0  0
  -23.7167  -30.5821   19.4045 H   0  0  0  0  0  0
  -22.7342  -29.2257   19.8773 H   0  0  0  0  0  0
  -25.1276  -36.1969   25.0836 H   0  0  0  0  0  0
  -20.9958  -28.3237   24.1456 H   0  0  0  0  0  0
  -20.5673  -26.2269   23.3612 H   0  0  0  0  0  0
  -21.6633  -26.7439   22.1211 H   0  0  0  0  0  0
  -19.6904  -25.6294   21.1256 H   0  0  0  0  0  0
  -19.6706  -27.3198   20.6760 H   0  0  0  0  0  0
  -17.4179  -26.6686   21.4019 H   0  0  0  0  0  0
  -18.0308  -26.0082   22.9029 H   0  0  0  0  0  0
  -19.7928  -30.7271   24.2287 H   0  0  0  0  0  0
  -17.5019  -31.6278   24.5173 H   0  0  0  0  0  0
  -15.5356  -30.3029   23.7655 H   0  0  0  0  0  0
  -15.8645  -28.0885   22.7028 H   0  0  0  0  0  0
  -24.5811  -30.7216   25.7811 H   0  0  0  0  0  0
  -24.8994  -32.2931   26.5038 H   0  0  0  0  0  0
  -25.8037  -30.8820   27.0206 H   0  0  0  0  0  0
  -26.2865  -29.6850   24.1190 H   0  0  0  0  0  0
  -27.4142  -29.7379   25.4556 H   0  0  0  0  0  0
  -27.8650  -30.4480   23.9228 H   0  0  0  0  0  0
  -27.2628  -33.3700   26.2077 H   0  0  0  0  0  0
  -28.3767  -32.7039   25.0246 H   0  0  0  0  0  0
  -28.0769  -31.8555   26.5338 H   0  0  0  0  0  0
  -28.2608  -38.0058   24.7502 H   0  0  0  0  0  0
  -28.1026  -36.2596   24.6324 H   0  0  0  0  0  0
  -27.2276  -37.1489   25.8874 H   0  0  0  0  0  0
  -20.9284  -29.8755   21.6970 H   0  0  0  0  0  0
  -26.0165  -38.2862   24.1454 H   0  0  0  0  0  0
  -25.5773  -23.1146   16.3895 H   0  0  0  0  0  0
  -23.5449  -22.6731   19.0994 H   0  0  0  0  0  0
  -24.3644  -23.9602   18.2192 H   0  0  0  0  0  0
  -24.9377  -23.4909   19.8191 H   0  0  0  0  0  0
  -26.9850  -17.8271   18.5209 H   0  0  0  0  0  0
  -26.3624  -18.4849   19.9808 H   0  0  0  0  0  0
  -26.4703  -22.0922   14.3478 H   0  0  0  0  0  0
  -27.2752  -20.5620   14.3811 H   0  0  0  0  0  0
  -28.5806  -19.6791   20.3712 H   0  0  0  0  0  0
  -29.2063  -18.9108   18.9350 H   0  0  0  0  0  0
  -28.6794  -16.6549   19.9826 H   0  0  0  0  0  0
  -28.2240  -17.4893   21.4504 H   0  0  0  0  0  0
  -30.0161  -22.9134   17.3150 H   0  0  0  0  0  0
  -31.0424  -24.3136   17.3424 H   0  0  0  0  0  0
  -28.0335  -24.3178   17.8852 H   0  0  0  0  0  0
  -28.9909  -25.7699   17.7197 H   0  0  0  0  0  0
  -30.5820  -18.5410   21.4550 H   0  0  0  0  0  0
  -30.9793  -17.4939   20.1213 H   0  0  0  0  0  0
  -30.6453  -23.8658   15.0198 H   0  0  0  0  0  0
  -29.7933  -25.3163   15.4283 H   0  0  0  0  0  0
  -30.4281  -25.0415   19.6419 H   0  0  0  0  0  0
  -29.4586  -23.5975   19.8101 H   0  0  0  0  0  0
  -30.3186  -16.7043   22.9914 H   0  0  0  0  0  0
  -31.8190  -16.4411   22.1394 H   0  0  0  0  0  0
  -28.2790  -24.0929   14.0541 H   0  0  0  0  0  0
  -27.6503  -23.9567   15.6670 H   0  0  0  0  0  0
  -28.7856  -25.3236   21.4475 H   0  0  0  0  0  0
  -27.4620  -24.9302   20.3897 H   0  0  0  0  0  0
  -29.4043  -14.8232   22.0781 H   0  0  0  0  0  0
  -28.9538  -21.9844   13.9843 H   0  0  0  0  0  0
  -29.1062  -21.7816   15.5870 H   0  0  0  0  0  0
  1 25  1  0  0  0
  1 30  2  0  0  0
  1 90  1  0  0  0
  2  3  1  0  0  0
  2 25  1  0  0  0
  2 94  1  0  0  0
  2 95  1  0  0  0
  3  4  1  0  0  0
  3 96  1  0  0  0
  3 97  1  0  0  0
  4  5  1  0  0  0
  4 98  1  0  0  0
  4 99  1  0  0  0
  5  6  1  0  0  0
  5 26  1  0  0  0
  5100  1  0  0  0
  6 25  1  0  0  0
  6101  1  0  0  0
  6102  1  0  0  0
  7  8  2  0  0  0
  7 26  1  0  0  0
  7 29  1  0  0  0
  8  9  1  0  0  0
  8 22  1  0  0  0
  9 10  1  0  0  0
  9 27  2  0  0  0
 10 11  2  0  0  0
 10 15  1  0  0  0
 11 12  1  0  0  0
 11103  1  0  0  0
 12 13  2  0  0  0
 12104  1  0  0  0
 13 14  1  0  0  0
 13 31  1  0  0  0
 14 15  2  0  0  0
 14105  1  0  0  0
 15106  1  0  0  0
 16 17  2  0  0  0
 16 21  1  0  0  0
 16 31  1  0  0  0
 17 18  1  0  0  0
 17107  1  0  0  0
 18 19  2  0  0  0
 18108  1  0  0  0
 19 20  1  0  0  0
 19 24  1  0  0  0
 20 21  2  0  0  0
 20109  1  0  0  0
 21 23  1  0  0  0
 22 28  1  0  0  0
 22 32  2  0  0  0
 26 27  1  0  0  0
 28110  1  0  0  0
 28111  1  0  0  0
 29112  1  0  0  0
 29113  1  0  0  0
 33 34  1  0  0  0
 33 66  1  0  0  0
 33 70  2  0  0  0
 34 36  1  0  0  0
 34 59  1  0  0  0
 34114  1  0  0  0
 35 44  2  0  0  0
 35 45  1  0  0  0
 35 68  1  0  0  0
 36 56  1  0  0  0
 36115  1  0  0  0
 37 39  1  0  0  0
 37 47  1  0  0  0
 37 66  1  0  0  0
 37116  1  0  0  0
 38 43  2  0  0  0
 38 46  1  0  0  0
 38 47  1  0  0  0
 39 64  1  0  0  0
 39 67  2  0  0  0
 40 52  1  0  0  0
 40 53  2  0  0  0
 40 58  1  0  0  0
 41117  1  0  0  0
 41118  1  0  0  0
 41119  1  0  0  0
 41 48  1  0  0  0
 42 43  1  0  0  0
 42 66  1  0  0  0
 42120  1  0  0  0
 42121  1  0  0  0
 43 44  1  0  0  0
 44122  1  0  0  0
 45 46  2  0  0  0
 45123  1  0  0  0
 46124  1  0  0  0
 47125  1  0  0  0
 47126  1  0  0  0
 48 56  1  0  0  0
 48 65  1  0  0  0
 48127  1  0  0  0
 49 50  1  0  0  0
 49 53  1  0  0  0
 49 64  1  0  0  0
 49128  1  0  0  0
 50 51  1  0  0  0
 50129  1  0  0  0
 50130  1  0  0  0
 51 52  1  0  0  0
 51131  1  0  0  0
 51132  1  0  0  0
 52133  1  0  0  0
 52134  1  0  0  0
 53 54  1  0  0  0
 54 55  2  0  0  0
 54135  1  0  0  0
 55 57  1  0  0  0
 55136  1  0  0  0
 56 69  2  0  0  0
 57 58  2  0  0  0
 57137  1  0  0  0
 58138  1  0  0  0
 59 60  1  0  0  0
 59 61  1  0  0  0
 59 62  1  0  0  0
 60139  1  0  0  0
 60140  1  0  0  0
 60141  1  0  0  0
 61142  1  0  0  0
 61143  1  0  0  0
 61144  1  0  0  0
 62145  1  0  0  0
 62146  1  0  0  0
 62147  1  0  0  0
 63 65  1  0  0  0
 63148  1  0  0  0
 63149  1  0  0  0
 63150  1  0  0  0
 64151  1  0  0  0
 65152  1  0  0  0
 68 89  1  0  0  0
 71 72  2  0  0  0
 71 73  1  0  0  0
 71153  1  0  0  0
 72 75  1  0  0  0
 72 77  1  0  0  0
 73 76  2  0  0  0
 73 79  1  0  0  0
 74 75  2  0  0  0
 74 76  1  0  0  0
 74 78  1  0  0  0
 75 92  1  0  0  0
 76 93  1  0  0  0
 77154  1  0  0  0
 77155  1  0  0  0
 77156  1  0  0  0
 78 80  1  0  0  0
 78157  1  0  0  0
 78158  1  0  0  0
 79 91  1  0  0  0
 79159  1  0  0  0
 79160  1  0  0  0
 80 81  1  0  0  0
 80161  1  0  0  0
 80162  1  0  0  0
 81 84  1  0  0  0
 81163  1  0  0  0
 81164  1  0  0  0
 82 83  1  0  0  0
 82 85  1  0  0  0
 82165  1  0  0  0
 82166  1  0  0  0
 83 86  1  0  0  0
 83167  1  0  0  0
 83168  1  0  0  0
 84 87  1  0  0  0
 84169  1  0  0  0
 84170  1  0  0  0
 85 88  1  0  0  0
 85171  1  0  0  0
 85172  1  0  0  0
 86 89  1  0  0  0
 86173  1  0  0  0
 86174  1  0  0  0
 87 90  1  0  0  0
 87175  1  0  0  0
 87176  1  0  0  0
 88 91  1  0  0  0
 88177  1  0  0  0
 88178  1  0  0  0
 89179  1  0  0  0
 89180  1  0  0  0
 90181  1  0  0  0
 91182  1  0  0  0
 91183  1  0  0  0
M  CHG  1  91   1
M  ISO  4   1 100  68 101  89 101  90 100
M  END
> <chiral flag>
0

> <version>
0

> <s_m_source_file>
/data/baiqing/PycharmProjects/Reinvent-master-3.2/result/LINK_invent/BTK/process_docking_weight1_custom_sum_contain_oxygen_bond_distance_aromatic_linkinvent_7_9_3/rearranged_h_0024.sdf

> <i_m_source_file_index>
99

> <r_mmod_Potential_Energy-OPLS-2005>
-276.207244873047

> <r_mmod_Stretch_Energy-OPLS-2005>
34.402904510498

> <r_mmod_Bend_Energy-OPLS-2005>
93.296012878418

> <r_mmod_Torsional_Energy-OPLS-2005>
218.99055480957

> <r_mmod_Improper_Torsional_Energy-OPLS-2005>
1.77966177463531

> <r_mmod_Van_der_Waal_Energy-OPLS-2005>
137.60920715332

> <r_mmod_Electrostatic_Energy-OPLS-2005>
-309.921203613281

> <r_mmod_Solvation_Energy-OPLS-2005>
-459.778442382812

> <b_mmod_Minimization_Converged-OPLS-2005>
0

> <r_mmod_RMS_Derivative-OPLS-2005>
2.30552577972412

$$$$
