0
                    3D
 Structure written by MMmdl.
171180  0  0  1  0            999 V2000
  -30.6853  -14.3401   20.6359 C   0  0  0  0  0  0
  -30.4268  -12.2196   19.4101 C   0  0  0  0  0  0
  -29.5264  -12.5359   18.2024 C   0  0  0  0  0  0
  -28.0385  -12.3837   18.5878 C   0  0  0  0  0  0
  -27.6760  -13.1729   19.8721 C   0  0  2  0  0  0
  -28.6979  -12.8440   20.9905 C   0  0  0  0  0  0
  -25.2721  -13.8017   20.5605 C   0  0  0  0  0  0
  -24.1875  -13.0331   20.9109 C   0  0  0  0  0  0
  -24.6402  -11.6782   20.8625 C   0  0  0  0  0  0
  -23.9043  -10.4173   21.0341 C   0  0  0  0  0  0
  -24.3581   -9.4094   21.9121 C   0  0  0  0  0  0
  -23.6257   -8.2141   22.0694 C   0  0  0  0  0  0
  -22.4246   -8.0184   21.3502 C   0  0  0  0  0  0
  -21.9909   -9.0154   20.4579 C   0  0  0  0  0  0
  -22.7234  -10.2038   20.2994 C   0  0  0  0  0  0
  -21.6766   -6.0706   22.5301 C   0  0  0  0  0  0
  -21.3926   -6.5596   23.8241 C   0  0  0  0  0  0
  -21.3686   -5.6748   24.9198 C   0  0  0  0  0  0
  -21.6048   -4.3024   24.7211 C   0  0  0  0  0  0
  -21.8793   -3.8122   23.4333 C   0  0  0  0  0  0
  -21.9146   -4.6942   22.3394 C   0  0  0  0  0  0
  -22.7897  -13.5153   21.1838 C   0  0  0  0  0  0
  -22.1591   -4.2158   21.0965 F   0  0  0  0  0  0
  -21.5710   -3.4482   25.7718 F   0  0  0  0  0  0
  -30.0485  -13.1486   20.4826 N   0  0  0  0  0  0
  -26.3047  -12.9112   20.3202 N   0  0  0  0  0  0
  -25.9302  -11.6283   20.5612 N   0  0  0  0  0  0
  -22.0499  -12.8188   22.0408 N   0  0  0  0  0  0
  -25.4752  -15.1670   20.3929 N   0  0  0  0  0  0
  -31.7289  -14.6536   20.0605 O   0  0  0  0  0  0
  -21.6551   -6.8850   21.4261 O   0  0  0  0  0  0
  -22.3627  -14.5455   20.6729 O   0  0  0  0  0  0
  -24.6025  -31.8760   23.2349 C   0  0  0  0  0  0
  -25.8972  -32.4893   23.8549 C   0  0  1  0  0  0
  -27.2310  -27.5340   20.0583 C   0  0  0  0  0  0
  -25.5853  -33.8724   24.2445 N   0  0  0  0  0  0
  -23.3785  -30.5036   21.5806 C   0  0  2  0  0  0
  -24.8177  -29.0013   20.1200 C   0  0  0  0  0  0
  -22.7382  -29.4733   22.5335 C   0  0  0  0  0  0
  -18.0369  -28.1440   22.9002 C   0  0  0  0  0  0
  -24.1510  -36.7314   23.2623 C   0  0  0  0  0  0
  -25.8962  -30.8786   21.3655 C   0  0  0  0  0  0
  -25.9781  -29.5263   20.7019 C   0  0  0  0  0  0
  -27.1847  -28.7955   20.6800 C   0  0  0  0  0  0
  -26.0419  -27.0162   19.4704 C   0  0  0  0  0  0
  -24.8411  -27.7349   19.5109 C   0  0  0  0  0  0
  -23.5704  -29.8494   20.1886 C   0  0  0  0  0  0
  -25.4126  -36.3135   24.0337 C   0  0  1  0  0  0
  -20.5951  -28.3751   23.1992 C   0  0  2  0  0  0
  -20.7065  -26.9641   22.5799 C   0  0  0  0  0  0
  -19.5924  -26.7057   21.5465 C   0  0  0  0  0  0
  -18.2096  -26.8153   22.2004 C   0  0  0  0  0  0
  -19.1583  -28.8961   23.3416 C   0  0  0  0  0  0
  -18.9448  -30.1644   23.9218 C   0  0  0  0  0  0
  -17.6492  -30.6939   24.0382 C   0  0  0  0  0  0
  -25.9028  -34.9490   23.5173 C   0  0  0  0  0  0
  -16.5420  -29.9335   23.6178 C   0  0  0  0  0  0
  -16.7303  -28.6510   23.0777 C   0  0  0  0  0  0
  -26.4475  -31.6602   25.0814 C   0  0  0  0  0  0
  -25.3873  -31.3594   26.1635 C   0  0  0  0  0  0
  -27.0228  -30.3017   24.6088 C   0  0  0  0  0  0
  -27.6025  -32.4321   25.7583 C   0  0  0  0  0  0
  -27.5581  -37.1794   24.8461 C   0  0  0  0  0  0
  -21.4091  -29.3329   22.4524 N   0  0  0  0  0  0
  -26.4308  -37.3764   23.9402 N   0  0  0  0  0  0
  -24.6455  -31.0910   22.1227 N   0  0  0  0  0  0
  -23.4337  -28.8059   23.3021 O   0  0  0  0  0  0
  -28.4399  -26.8617   20.0665 O   0  0  0  0  0  0
  -26.5549  -34.8931   22.4720 O   0  0  0  0  0  0
  -23.5252  -32.1604   23.7738 O   0  0  0  0  0  0
  -27.6445  -20.2437   19.5207 C   0  0  0  0  0  0
  -28.8283  -19.6384   21.9815 C   0  0  0  0  0  0
  -28.1963  -21.2696   20.2914 C   0  0  0  0  0  0
  -28.3467  -18.5937   21.1579 C   0  0  0  0  0  0
  -27.6703  -18.9071   19.9557 C   0  0  0  0  0  0
  -28.7404  -20.9814   21.5642 C   0  0  0  0  0  0
  -29.5065  -23.2778   19.3963 C   0  0  0  0  0  0
  -27.1026  -23.4986   20.5918 C   0  0  0  0  0  0
  -29.7206  -24.7737   19.7216 C   0  0  0  0  0  0
  -27.6671  -24.8081   21.0980 C   0  0  0  0  0  0
  -28.1039  -22.6794   19.7435 C   0  0  2  0  0  0
  -28.3690  -25.4639   19.8962 C   0  0  1  0  0  0
  -25.6754  -18.2586   18.9034 C   0  0  0  0  0  0
  -28.6775  -22.0745   23.6572 C   0  0  0  0  0  0
  -28.5680  -17.1591   21.5741 C   0  0  0  0  0  0
  -29.9645  -16.6490   21.1905 C   0  0  0  0  0  0
  -29.9885  -15.2054   21.3793 N   0  0  0  0  0  0
  -27.0308  -17.9314   19.2292 O   0  0  0  0  0  0
  -29.2206  -22.0100   22.3456 O   0  0  0  0  0  0
  -31.4824  -12.2821   19.1428 H   0  0  0  0  0  0
  -30.2718  -11.1860   19.7230 H   0  0  0  0  0  0
  -29.7872  -11.9016   17.3539 H   0  0  0  0  0  0
  -29.7197  -13.5522   17.8611 H   0  0  0  0  0  0
  -27.8314  -11.3232   18.7347 H   0  0  0  0  0  0
  -27.4161  -12.7031   17.7491 H   0  0  0  0  0  0
  -27.7561  -14.2338   19.6276 H   0  0  0  0  0  0
  -28.6366  -11.7823   21.2408 H   0  0  0  0  0  0
  -28.4561  -13.3608   21.9258 H   0  0  0  0  0  0
  -25.2727   -9.5467   22.4726 H   0  0  0  0  0  0
  -23.9863   -7.4481   22.7415 H   0  0  0  0  0  0
  -21.0836   -8.8692   19.8870 H   0  0  0  0  0  0
  -22.3714  -10.9560   19.6082 H   0  0  0  0  0  0
  -21.1831   -7.6086   23.9764 H   0  0  0  0  0  0
  -21.1585   -6.0463   25.9149 H   0  0  0  0  0  0
  -22.0579   -2.7590   23.2800 H   0  0  0  0  0  0
  -22.4121  -11.9796   22.4694 H   0  0  0  0  0  0
  -21.1148  -13.1321   22.2639 H   0  0  0  0  0  0
  -24.7577  -15.8730   20.5038 H   0  0  0  0  0  0
  -26.3376  -15.5471   20.0193 H   0  0  0  0  0  0
  -26.6989  -32.5661   23.1253 H   0  0  0  0  0  0
  -25.0092  -33.9936   25.0640 H   0  0  0  0  0  0
  -22.6606  -31.3188   21.4687 H   0  0  0  0  0  0
  -23.3775  -35.9625   23.3317 H   0  0  0  0  0  0
  -24.3551  -36.8915   22.2006 H   0  0  0  0  0  0
  -23.7313  -37.6560   23.6644 H   0  0  0  0  0  0
  -25.9800  -31.6695   20.6145 H   0  0  0  0  0  0
  -26.7843  -30.9178   21.9834 H   0  0  0  0  0  0
  -28.0758  -29.1980   21.1457 H   0  0  0  0  0  0
  -25.9951  -26.0637   18.9715 H   0  0  0  0  0  0
  -23.9489  -27.3206   19.0624 H   0  0  0  0  0  0
  -23.6585  -30.6499   19.4534 H   0  0  0  0  0  0
  -22.6860  -29.2786   19.9041 H   0  0  0  0  0  0
  -25.1314  -36.1955   25.0815 H   0  0  0  0  0  0
  -20.9965  -28.3308   24.2186 H   0  0  0  0  0  0
  -20.6381  -26.2191   23.3769 H   0  0  0  0  0  0
  -21.7006  -26.8186   22.1637 H   0  0  0  0  0  0
  -19.7007  -25.7409   21.0486 H   0  0  0  0  0  0
  -19.6757  -27.4614   20.7678 H   0  0  0  0  0  0
  -17.4247  -26.7197   21.4516 H   0  0  0  0  0  0
  -18.0492  -26.0165   22.9177 H   0  0  0  0  0  0
  -19.7885  -30.7514   24.2605 H   0  0  0  0  0  0
  -17.5009  -31.6844   24.4574 H   0  0  0  0  0  0
  -15.5428  -30.3394   23.7093 H   0  0  0  0  0  0
  -15.8635  -28.0720   22.7950 H   0  0  0  0  0  0
  -24.6057  -30.6860   25.8079 H   0  0  0  0  0  0
  -24.9110  -32.2717   26.5224 H   0  0  0  0  0  0
  -25.8370  -30.8771   27.0321 H   0  0  0  0  0  0
  -26.2668  -29.6779   24.1261 H   0  0  0  0  0  0
  -27.4095  -29.7199   25.4479 H   0  0  0  0  0  0
  -27.8512  -30.4316   23.9102 H   0  0  0  0  0  0
  -27.2560  -33.3544   26.2237 H   0  0  0  0  0  0
  -28.3792  -32.6962   25.0411 H   0  0  0  0  0  0
  -28.0734  -31.8458   26.5477 H   0  0  0  0  0  0
  -28.2611  -38.0066   24.7489 H   0  0  0  0  0  0
  -28.1056  -36.2606   24.6320 H   0  0  0  0  0  0
  -27.2278  -37.1483   25.8848 H   0  0  0  0  0  0
  -20.8920  -29.9614   21.8527 H   0  0  0  0  0  0
  -26.0199  -38.2854   24.1334 H   0  0  0  0  0  0
  -27.1869  -20.4977   18.5802 H   0  0  0  0  0  0
  -29.2813  -19.4054   22.9316 H   0  0  0  0  0  0
  -30.3110  -22.7144   19.8760 H   0  0  0  0  0  0
  -29.6705  -23.1250   18.3254 H   0  0  0  0  0  0
  -26.2295  -23.7262   19.9838 H   0  0  0  0  0  0
  -26.7137  -22.9094   21.4268 H   0  0  0  0  0  0
  -30.2924  -25.2553   18.9225 H   0  0  0  0  0  0
  -30.3302  -24.8891   20.6232 H   0  0  0  0  0  0
  -28.3656  -24.6451   21.9215 H   0  0  0  0  0  0
  -26.8565  -25.4126   21.5046 H   0  0  0  0  0  0
  -27.6128  -22.6146   18.7690 H   0  0  0  0  0  0
  -27.8610  -25.2720   18.9510 H   0  0  0  0  0  0
  -25.1518  -17.3499   18.6067 H   0  0  0  0  0  0
  -25.5742  -18.9629   18.0752 H   0  0  0  0  0  0
  -25.1626  -18.6679   19.7791 H   0  0  0  0  0  0
  -27.5849  -22.1400   23.6047 H   0  0  0  0  0  0
  -29.0712  -22.9573   24.1683 H   0  0  0  0  0  0
  -28.9427  -21.2135   24.2627 H   0  0  0  0  0  0
  -27.8081  -16.5348   21.1137 H   0  0  0  0  0  0
  -28.4231  -17.0766   22.6507 H   0  0  0  0  0  0
  -30.1356  -16.8753   20.1364 H   0  0  0  0  0  0
  -30.7516  -17.1390   21.7602 H   0  0  0  0  0  0
  -29.1918  -14.7979   21.8448 H   0  0  0  0  0  0
  1 25  1  0  0  0
  1 30  2  0  0  0
  1 87  1  0  0  0
  2  3  1  0  0  0
  2 25  1  0  0  0
  2 90  1  0  0  0
  2 91  1  0  0  0
  3  4  1  0  0  0
  3 92  1  0  0  0
  3 93  1  0  0  0
  4  5  1  0  0  0
  4 94  1  0  0  0
  4 95  1  0  0  0
  5  6  1  0  0  0
  5 26  1  0  0  0
  5 96  1  0  0  0
  6 25  1  0  0  0
  6 97  1  0  0  0
  6 98  1  0  0  0
  7  8  2  0  0  0
  7 26  1  0  0  0
  7 29  1  0  0  0
  8  9  1  0  0  0
  8 22  1  0  0  0
  9 10  1  0  0  0
  9 27  2  0  0  0
 10 11  2  0  0  0
 10 15  1  0  0  0
 11 12  1  0  0  0
 11 99  1  0  0  0
 12 13  2  0  0  0
 12100  1  0  0  0
 13 14  1  0  0  0
 13 31  1  0  0  0
 14 15  2  0  0  0
 14101  1  0  0  0
 15102  1  0  0  0
 16 17  2  0  0  0
 16 21  1  0  0  0
 16 31  1  0  0  0
 17 18  1  0  0  0
 17103  1  0  0  0
 18 19  2  0  0  0
 18104  1  0  0  0
 19 20  1  0  0  0
 19 24  1  0  0  0
 20 21  2  0  0  0
 20105  1  0  0  0
 21 23  1  0  0  0
 22 28  1  0  0  0
 22 32  2  0  0  0
 26 27  1  0  0  0
 28106  1  0  0  0
 28107  1  0  0  0
 29108  1  0  0  0
 29109  1  0  0  0
 33 34  1  0  0  0
 33 66  1  0  0  0
 33 70  2  0  0  0
 34 36  1  0  0  0
 34 59  1  0  0  0
 34110  1  0  0  0
 35 44  2  0  0  0
 35 45  1  0  0  0
 35 68  1  0  0  0
 36 56  1  0  0  0
 36111  1  0  0  0
 37 39  1  0  0  0
 37 47  1  0  0  0
 37 66  1  0  0  0
 37112  1  0  0  0
 38 43  2  0  0  0
 38 46  1  0  0  0
 38 47  1  0  0  0
 39 64  1  0  0  0
 39 67  2  0  0  0
 40 52  1  0  0  0
 40 53  2  0  0  0
 40 58  1  0  0  0
 41113  1  0  0  0
 41114  1  0  0  0
 41115  1  0  0  0
 41 48  1  0  0  0
 42 43  1  0  0  0
 42 66  1  0  0  0
 42116  1  0  0  0
 42117  1  0  0  0
 43 44  1  0  0  0
 44118  1  0  0  0
 45 46  2  0  0  0
 45119  1  0  0  0
 46120  1  0  0  0
 47121  1  0  0  0
 47122  1  0  0  0
 48 56  1  0  0  0
 48 65  1  0  0  0
 48123  1  0  0  0
 49 50  1  0  0  0
 49 53  1  0  0  0
 49 64  1  0  0  0
 49124  1  0  0  0
 50 51  1  0  0  0
 50125  1  0  0  0
 50126  1  0  0  0
 51 52  1  0  0  0
 51127  1  0  0  0
 51128  1  0  0  0
 52129  1  0  0  0
 52130  1  0  0  0
 53 54  1  0  0  0
 54 55  2  0  0  0
 54131  1  0  0  0
 55 57  1  0  0  0
 55132  1  0  0  0
 56 69  2  0  0  0
 57 58  2  0  0  0
 57133  1  0  0  0
 58134  1  0  0  0
 59 60  1  0  0  0
 59 61  1  0  0  0
 59 62  1  0  0  0
 60135  1  0  0  0
 60136  1  0  0  0
 60137  1  0  0  0
 61138  1  0  0  0
 61139  1  0  0  0
 61140  1  0  0  0
 62141  1  0  0  0
 62142  1  0  0  0
 62143  1  0  0  0
 63 65  1  0  0  0
 63144  1  0  0  0
 63145  1  0  0  0
 63146  1  0  0  0
 64147  1  0  0  0
 65148  1  0  0  0
 68 82  1  0  0  0
 71 73  2  0  0  0
 71 75  1  0  0  0
 71149  1  0  0  0
 72 74  1  0  0  0
 72 76  2  0  0  0
 72150  1  0  0  0
 73 76  1  0  0  0
 73 81  1  0  0  0
 74 75  2  0  0  0
 74 85  1  0  0  0
 75 88  1  0  0  0
 76 89  1  0  0  0
 77 79  1  0  0  0
 77 81  1  0  0  0
 77151  1  0  0  0
 77152  1  0  0  0
 78 80  1  0  0  0
 78 81  1  0  0  0
 78153  1  0  0  0
 78154  1  0  0  0
 79 82  1  0  0  0
 79155  1  0  0  0
 79156  1  0  0  0
 80 82  1  0  0  0
 80157  1  0  0  0
 80158  1  0  0  0
 81159  1  0  0  0
 82160  1  0  0  0
 83 88  1  0  0  0
 83161  1  0  0  0
 83162  1  0  0  0
 83163  1  0  0  0
 84 89  1  0  0  0
 84164  1  0  0  0
 84165  1  0  0  0
 84166  1  0  0  0
 85 86  1  0  0  0
 85167  1  0  0  0
 85168  1  0  0  0
 86 87  1  0  0  0
 86169  1  0  0  0
 86170  1  0  0  0
 87171  1  0  0  0
M  ISO  4   1 100  68 101  82 101  87 100
M  END
> <chiral flag>
0

> <version>
0

> <s_m_source_file>
/data/baiqing/PycharmProjects/Reinvent-master-3.2/result/LINK_invent/BTK/process_docking_weight1_custom_sum_contain_oxygen_bond_distance_aromatic_linkinvent_7_9_3/rearranged_h_0148.sdf

> <i_m_source_file_index>
1

> <r_mmod_Potential_Energy-OPLS-2005>
33.4059906005859

> <r_mmod_Stretch_Energy-OPLS-2005>
34.9913558959961

> <r_mmod_Bend_Energy-OPLS-2005>
118.752792358398

> <r_mmod_Torsional_Energy-OPLS-2005>
305.640747070312

> <r_mmod_Improper_Torsional_Energy-OPLS-2005>
5.18500375747681

> <r_mmod_Van_der_Waal_Energy-OPLS-2005>
181.150802612305

> <r_mmod_Electrostatic_Energy-OPLS-2005>
-423.039489746094

> <r_mmod_Solvation_Energy-OPLS-2005>
-207.024017333984

> <b_mmod_Minimization_Converged-OPLS-2005>
0

> <r_mmod_RMS_Derivative-OPLS-2005>
13.2421522140503

$$$$
1
                    3D
 Structure written by MMmdl.
161170  0  0  1  0            999 V2000
  -30.7239  -14.4707   20.5716 C   0  0  0  0  0  0
  -30.4150  -12.3078   19.4296 C   0  0  0  0  0  0
  -29.4928  -12.4994   18.2090 C   0  0  0  0  0  0
  -28.0142  -12.3646   18.6213 C   0  0  0  0  0  0
  -27.6591  -13.2131   19.8726 C   0  0  2  0  0  0
  -28.7006  -13.0168   20.9976 C   0  0  0  0  0  0
  -25.2573  -13.8175   20.5686 C   0  0  0  0  0  0
  -24.1831  -13.0442   20.9178 C   0  0  0  0  0  0
  -24.6394  -11.6912   20.8734 C   0  0  0  0  0  0
  -23.9062  -10.4294   21.0401 C   0  0  0  0  0  0
  -24.3614   -9.4210   21.9182 C   0  0  0  0  0  0
  -23.6290   -8.2246   22.0754 C   0  0  0  0  0  0
  -22.4272   -8.0281   21.3545 C   0  0  0  0  0  0
  -21.9906   -9.0252   20.4646 C   0  0  0  0  0  0
  -22.7234  -10.2132   20.3052 C   0  0  0  0  0  0
  -21.6853   -6.0732   22.5276 C   0  0  0  0  0  0
  -21.4014   -6.5637   23.8209 C   0  0  0  0  0  0
  -21.3661   -5.6791   24.9173 C   0  0  0  0  0  0
  -21.6044   -4.3053   24.7225 C   0  0  0  0  0  0
  -21.8821   -3.8144   23.4346 C   0  0  0  0  0  0
  -21.9193   -4.6960   22.3402 C   0  0  0  0  0  0
  -22.7852  -13.5237   21.1836 C   0  0  0  0  0  0
  -22.1661   -4.2144   21.0980 F   0  0  0  0  0  0
  -21.5629   -3.4538   25.7739 F   0  0  0  0  0  0
  -30.0304  -13.3071   20.4399 N   0  0  0  0  0  0
  -26.3013  -12.9359   20.3362 N   0  0  0  0  0  0
  -25.9322  -11.6511   20.5767 N   0  0  0  0  0  0
  -22.0491  -12.8228   22.0393 N   0  0  0  0  0  0
  -25.4291  -15.1898   20.4112 N   0  0  0  0  0  0
  -31.8492  -14.6321   20.0952 O   0  0  0  0  0  0
  -21.6640   -6.8875   21.4238 O   0  0  0  0  0  0
  -22.3535  -14.5542   20.6685 O   0  0  0  0  0  0
  -24.6172  -31.8676   23.2107 C   0  0  0  0  0  0
  -25.9062  -32.4818   23.8400 C   0  0  1  0  0  0
  -27.2221  -27.4096   20.0983 C   0  0  0  0  0  0
  -25.5911  -33.8617   24.2330 N   0  0  0  0  0  0
  -23.4044  -30.4947   21.5519 C   0  0  2  0  0  0
  -24.8479  -28.9646   20.1101 C   0  0  0  0  0  0
  -22.7418  -29.4667   22.4978 C   0  0  0  0  0  0
  -18.0274  -28.1386   22.8495 C   0  0  0  0  0  0
  -24.1481  -36.7303   23.2638 C   0  0  0  0  0  0
  -25.9372  -30.8257   21.3685 C   0  0  0  0  0  0
  -26.0109  -29.4605   20.7119 C   0  0  0  0  0  0
  -27.1999  -28.6906   20.7044 C   0  0  0  0  0  0
  -26.0432  -26.9533   19.4603 C   0  0  0  0  0  0
  -24.8602  -27.7113   19.4799 C   0  0  0  0  0  0
  -23.6124  -29.8335   20.1644 C   0  0  0  0  0  0
  -25.4102  -36.3103   24.0340 C   0  0  1  0  0  0
  -20.5867  -28.3677   23.1310 C   0  0  2  0  0  0
  -20.6763  -26.9412   22.5416 C   0  0  0  0  0  0
  -19.5739  -26.6397   21.5212 C   0  0  0  0  0  0
  -18.1918  -26.7934   22.1625 C   0  0  0  0  0  0
  -19.1526  -28.8847   23.2901 C   0  0  0  0  0  0
  -18.9453  -30.1452   23.8914 C   0  0  0  0  0  0
  -17.6455  -30.6592   24.0570 C   0  0  0  0  0  0
  -25.9036  -34.9474   23.5130 C   0  0  0  0  0  0
  -16.5345  -29.9094   23.6333 C   0  0  0  0  0  0
  -16.7264  -28.6511   23.0354 C   0  0  0  0  0  0
  -26.4480  -31.6596   25.0732 C   0  0  0  0  0  0
  -25.3744  -31.3699   26.1477 C   0  0  0  0  0  0
  -27.0308  -30.3033   24.6121 C   0  0  0  0  0  0
  -27.6057  -32.4310   25.7493 C   0  0  0  0  0  0
  -27.5572  -37.1805   24.8468 C   0  0  0  0  0  0
  -21.4145  -29.3040   22.3711 N   0  0  0  0  0  0
  -26.4282  -37.3796   23.9418 N   0  0  0  0  0  0
  -24.6714  -31.0768   22.1017 N   0  0  0  0  0  0
  -23.4185  -28.8205   23.3023 O   0  0  0  0  0  0
  -28.3723  -26.6359   20.1526 O   0  0  0  0  0  0
  -26.5597  -34.8928   22.4691 O   0  0  0  0  0  0
  -23.5361  -32.1437   23.7492 O   0  0  0  0  0  0
  -27.7188  -22.1561   20.9006 C   0  0  0  0  0  0
  -30.1888  -20.7580   20.9951 C   0  0  0  0  0  0
  -28.9362  -22.8641   20.9236 C   0  0  0  0  0  0
  -30.1415  -22.1696   20.9575 C   0  0  0  0  0  0
  -27.7443  -20.7375   20.9147 C   0  0  0  0  0  0
  -28.9721  -20.0236   20.9848 C   0  0  0  0  0  0
  -31.3104  -23.1208   20.9443 C   0  0  0  0  0  0
  -30.6660  -24.4954   20.6268 C   0  0  0  0  0  0
  -29.1543  -24.3754   20.9429 C   0  0  1  0  0  0
  -26.4358  -19.9705   20.8695 C   0  0  0  0  0  0
  -28.2189  -25.2009   20.0210 C   0  0  0  0  0  0
  -30.6531  -16.8677   21.1922 C   0  0  0  0  0  0
  -29.7757  -17.9270   21.9027 C   0  0  0  0  0  0
  -30.0760  -15.5106   21.1282 N   0  0  0  0  0  0
  -28.9243  -18.6375   20.9930 O   0  0  0  0  0  0
  -31.4607  -12.3930   19.1297 H   0  0  0  0  0  0
  -30.3068  -11.3021   19.8390 H   0  0  0  0  0  0
  -29.7328  -11.7668   17.4371 H   0  0  0  0  0  0
  -29.6647  -13.4808   17.7644 H   0  0  0  0  0  0
  -27.8234  -11.3099   18.8226 H   0  0  0  0  0  0
  -27.3652  -12.6355   17.7875 H   0  0  0  0  0  0
  -27.6981  -14.2583   19.5652 H   0  0  0  0  0  0
  -28.6747  -11.9902   21.3655 H   0  0  0  0  0  0
  -28.4657  -13.6439   21.8584 H   0  0  0  0  0  0
  -25.2759   -9.5685   22.4755 H   0  0  0  0  0  0
  -23.9997   -7.4638   22.7473 H   0  0  0  0  0  0
  -21.0838   -8.8770   19.8951 H   0  0  0  0  0  0
  -22.3692  -10.9669   19.6159 H   0  0  0  0  0  0
  -21.2008   -7.6145   23.9710 H   0  0  0  0  0  0
  -21.1481   -6.0523   25.9076 H   0  0  0  0  0  0
  -22.0600   -2.7606   23.2849 H   0  0  0  0  0  0
  -22.4105  -11.9893   22.4786 H   0  0  0  0  0  0
  -21.1106  -13.1251   22.2589 H   0  0  0  0  0  0
  -24.6647  -15.8461   20.5254 H   0  0  0  0  0  0
  -26.2857  -15.6298   20.0984 H   0  0  0  0  0  0
  -26.7130  -32.5523   23.1160 H   0  0  0  0  0  0
  -25.0065  -33.9774   25.0476 H   0  0  0  0  0  0
  -22.6943  -31.3132   21.4160 H   0  0  0  0  0  0
  -23.3742  -35.9637   23.3313 H   0  0  0  0  0  0
  -24.3570  -36.8904   22.2049 H   0  0  0  0  0  0
  -23.7233  -37.6513   23.6642 H   0  0  0  0  0  0
  -26.0549  -31.5922   20.6011 H   0  0  0  0  0  0
  -26.8237  -30.8752   21.9893 H   0  0  0  0  0  0
  -28.0929  -29.0650   21.1851 H   0  0  0  0  0  0
  -26.0106  -26.0080   18.9387 H   0  0  0  0  0  0
  -23.9702  -27.3292   18.9990 H   0  0  0  0  0  0
  -23.7233  -30.6119   19.4085 H   0  0  0  0  0  0
  -22.7348  -29.2573   19.8653 H   0  0  0  0  0  0
  -25.1277  -36.1965   25.0833 H   0  0  0  0  0  0
  -20.9964  -28.3244   24.1428 H   0  0  0  0  0  0
  -20.5662  -26.2289   23.3607 H   0  0  0  0  0  0
  -21.6635  -26.7450   22.1211 H   0  0  0  0  0  0
  -19.6900  -25.6313   21.1230 H   0  0  0  0  0  0
  -19.6678  -27.3220   20.6751 H   0  0  0  0  0  0
  -17.4191  -26.6695   21.4023 H   0  0  0  0  0  0
  -18.0313  -26.0069   22.9014 H   0  0  0  0  0  0
  -19.7929  -30.7264   24.2292 H   0  0  0  0  0  0
  -17.5013  -31.6274   24.5174 H   0  0  0  0  0  0
  -15.5348  -30.3005   23.7651 H   0  0  0  0  0  0
  -15.8661  -28.0837   22.7062 H   0  0  0  0  0  0
  -24.5939  -30.7017   25.7819 H   0  0  0  0  0  0
  -24.8908  -32.2848   26.4905 H   0  0  0  0  0  0
  -25.8106  -30.8892   27.0242 H   0  0  0  0  0  0
  -26.2853  -29.6797   24.1171 H   0  0  0  0  0  0
  -27.4060  -29.7268   25.4588 H   0  0  0  0  0  0
  -27.8704  -30.4340   23.9289 H   0  0  0  0  0  0
  -27.2681  -33.3608   26.2085 H   0  0  0  0  0  0
  -28.3862  -32.6870   25.0314 H   0  0  0  0  0  0
  -28.0734  -31.8424   26.5396 H   0  0  0  0  0  0
  -28.2603  -38.0089   24.7507 H   0  0  0  0  0  0
  -28.1052  -36.2622   24.6298 H   0  0  0  0  0  0
  -27.2295  -37.1468   25.8873 H   0  0  0  0  0  0
  -20.9306  -29.8760   21.6930 H   0  0  0  0  0  0
  -26.0166  -38.2872   24.1425 H   0  0  0  0  0  0
  -26.7771  -22.6866   20.8726 H   0  0  0  0  0  0
  -31.1441  -20.2526   21.0126 H   0  0  0  0  0  0
  -32.0600  -22.8340   20.2056 H   0  0  0  0  0  0
  -31.7801  -23.1267   21.9288 H   0  0  0  0  0  0
  -30.7797  -24.6734   19.5566 H   0  0  0  0  0  0
  -31.1471  -25.3302   21.1367 H   0  0  0  0  0  0
  -28.9861  -24.6927   21.9728 H   0  0  0  0  0  0
  -25.5761  -20.6399   20.8333 H   0  0  0  0  0  0
  -26.3356  -19.3381   21.7518 H   0  0  0  0  0  0
  -26.4033  -19.3314   19.9866 H   0  0  0  0  0  0
  -27.2138  -24.8945   20.3079 H   0  0  0  0  0  0
  -28.3545  -24.9149   18.9774 H   0  0  0  0  0  0
  -31.5944  -16.7915   21.7399 H   0  0  0  0  0  0
  -30.9177  -17.2170   20.1925 H   0  0  0  0  0  0
  -30.4227  -18.6077   22.4574 H   0  0  0  0  0  0
  -29.1537  -17.4522   22.6624 H   0  0  0  0  0  0
  -29.1366  -15.3659   21.4681 H   0  0  0  0  0  0
  1 25  1  0  0  0
  1 30  2  0  0  0
  1 84  1  0  0  0
  2  3  1  0  0  0
  2 25  1  0  0  0
  2 86  1  0  0  0
  2 87  1  0  0  0
  3  4  1  0  0  0
  3 88  1  0  0  0
  3 89  1  0  0  0
  4  5  1  0  0  0
  4 90  1  0  0  0
  4 91  1  0  0  0
  5  6  1  0  0  0
  5 26  1  0  0  0
  5 92  1  0  0  0
  6 25  1  0  0  0
  6 93  1  0  0  0
  6 94  1  0  0  0
  7  8  2  0  0  0
  7 26  1  0  0  0
  7 29  1  0  0  0
  8  9  1  0  0  0
  8 22  1  0  0  0
  9 10  1  0  0  0
  9 27  2  0  0  0
 10 11  2  0  0  0
 10 15  1  0  0  0
 11 12  1  0  0  0
 11 95  1  0  0  0
 12 13  2  0  0  0
 12 96  1  0  0  0
 13 14  1  0  0  0
 13 31  1  0  0  0
 14 15  2  0  0  0
 14 97  1  0  0  0
 15 98  1  0  0  0
 16 17  2  0  0  0
 16 21  1  0  0  0
 16 31  1  0  0  0
 17 18  1  0  0  0
 17 99  1  0  0  0
 18 19  2  0  0  0
 18100  1  0  0  0
 19 20  1  0  0  0
 19 24  1  0  0  0
 20 21  2  0  0  0
 20101  1  0  0  0
 21 23  1  0  0  0
 22 28  1  0  0  0
 22 32  2  0  0  0
 26 27  1  0  0  0
 28102  1  0  0  0
 28103  1  0  0  0
 29104  1  0  0  0
 29105  1  0  0  0
 33 34  1  0  0  0
 33 66  1  0  0  0
 33 70  2  0  0  0
 34 36  1  0  0  0
 34 59  1  0  0  0
 34106  1  0  0  0
 35 44  2  0  0  0
 35 45  1  0  0  0
 35 68  1  0  0  0
 36 56  1  0  0  0
 36107  1  0  0  0
 37 39  1  0  0  0
 37 47  1  0  0  0
 37 66  1  0  0  0
 37108  1  0  0  0
 38 43  2  0  0  0
 38 46  1  0  0  0
 38 47  1  0  0  0
 39 64  1  0  0  0
 39 67  2  0  0  0
 40 52  1  0  0  0
 40 53  2  0  0  0
 40 58  1  0  0  0
 41109  1  0  0  0
 41110  1  0  0  0
 41111  1  0  0  0
 41 48  1  0  0  0
 42 43  1  0  0  0
 42 66  1  0  0  0
 42112  1  0  0  0
 42113  1  0  0  0
 43 44  1  0  0  0
 44114  1  0  0  0
 45 46  2  0  0  0
 45115  1  0  0  0
 46116  1  0  0  0
 47117  1  0  0  0
 47118  1  0  0  0
 48 56  1  0  0  0
 48 65  1  0  0  0
 48119  1  0  0  0
 49 50  1  0  0  0
 49 53  1  0  0  0
 49 64  1  0  0  0
 49120  1  0  0  0
 50 51  1  0  0  0
 50121  1  0  0  0
 50122  1  0  0  0
 51 52  1  0  0  0
 51123  1  0  0  0
 51124  1  0  0  0
 52125  1  0  0  0
 52126  1  0  0  0
 53 54  1  0  0  0
 54 55  2  0  0  0
 54127  1  0  0  0
 55 57  1  0  0  0
 55128  1  0  0  0
 56 69  2  0  0  0
 57 58  2  0  0  0
 57129  1  0  0  0
 58130  1  0  0  0
 59 60  1  0  0  0
 59 61  1  0  0  0
 59 62  1  0  0  0
 60131  1  0  0  0
 60132  1  0  0  0
 60133  1  0  0  0
 61134  1  0  0  0
 61135  1  0  0  0
 61136  1  0  0  0
 62137  1  0  0  0
 62138  1  0  0  0
 62139  1  0  0  0
 63 65  1  0  0  0
 63140  1  0  0  0
 63141  1  0  0  0
 63142  1  0  0  0
 64143  1  0  0  0
 65144  1  0  0  0
 68 81  1  0  0  0
 71 73  2  0  0  0
 71 75  1  0  0  0
 71145  1  0  0  0
 72 74  2  0  0  0
 72 76  1  0  0  0
 72146  1  0  0  0
 73 74  1  0  0  0
 73 79  1  0  0  0
 74 77  1  0  0  0
 75 76  2  0  0  0
 75 80  1  0  0  0
 76 85  1  0  0  0
 77 78  1  0  0  0
 77147  1  0  0  0
 77148  1  0  0  0
 78 79  1  0  0  0
 78149  1  0  0  0
 78150  1  0  0  0
 79 81  1  0  0  0
 79151  1  0  0  0
 80152  1  0  0  0
 80153  1  0  0  0
 80154  1  0  0  0
 81155  1  0  0  0
 81156  1  0  0  0
 82 83  1  0  0  0
 82 84  1  0  0  0
 82157  1  0  0  0
 82158  1  0  0  0
 83 85  1  0  0  0
 83159  1  0  0  0
 83160  1  0  0  0
 84161  1  0  0  0
M  ISO  4   1 100  68 101  81 101  84 100
M  END
> <chiral flag>
0

> <version>
0

> <s_m_source_file>
/data/baiqing/PycharmProjects/Reinvent-master-3.2/result/LINK_invent/BTK/process_docking_weight1_custom_sum_contain_oxygen_bond_distance_aromatic_linkinvent_7_9_3/rearranged_h_0148.sdf

> <i_m_source_file_index>
2

> <r_mmod_Potential_Energy-OPLS-2005>
-48.5811767578125

> <r_mmod_Stretch_Energy-OPLS-2005>
41.2757682800293

> <r_mmod_Bend_Energy-OPLS-2005>
144.474258422852

> <r_mmod_Torsional_Energy-OPLS-2005>
232.965255737305

> <r_mmod_Improper_Torsional_Energy-OPLS-2005>
3.05001354217529

> <r_mmod_Van_der_Waal_Energy-OPLS-2005>
154.548065185547

> <r_mmod_Electrostatic_Energy-OPLS-2005>
-434.976440429688

> <r_mmod_Solvation_Energy-OPLS-2005>
-206.785919189453

> <b_mmod_Minimization_Converged-OPLS-2005>
0

> <r_mmod_RMS_Derivative-OPLS-2005>
0.680477201938629

$$$$
2
                    3D
 Structure written by MMmdl.
162170  0  0  1  0            999 V2000
  -30.6727  -14.5180   20.5186 C   0  0  0  0  0  0
  -30.4274  -12.3221   19.4236 C   0  0  0  0  0  0
  -29.4969  -12.4914   18.2039 C   0  0  0  0  0  0
  -28.0164  -12.3586   18.6139 C   0  0  0  0  0  0
  -27.6596  -13.2070   19.8647 C   0  0  2  0  0  0
  -28.7038  -13.0128   20.9878 C   0  0  0  0  0  0
  -25.2603  -13.8187   20.5645 C   0  0  0  0  0  0
  -24.1854  -13.0470   20.9168 C   0  0  0  0  0  0
  -24.6396  -11.6926   20.8713 C   0  0  0  0  0  0
  -23.9059  -10.4317   21.0393 C   0  0  0  0  0  0
  -24.3627   -9.4234   21.9172 C   0  0  0  0  0  0
  -23.6305   -8.2275   22.0755 C   0  0  0  0  0  0
  -22.4283   -8.0311   21.3560 C   0  0  0  0  0  0
  -21.9911   -9.0269   20.4650 C   0  0  0  0  0  0
  -22.7234  -10.2148   20.3041 C   0  0  0  0  0  0
  -21.6881   -6.0746   22.5262 C   0  0  0  0  0  0
  -21.4028   -6.5645   23.8195 C   0  0  0  0  0  0
  -21.3654   -5.6795   24.9162 C   0  0  0  0  0  0
  -21.6044   -4.3054   24.7207 C   0  0  0  0  0  0
  -21.8833   -3.8150   23.4322 C   0  0  0  0  0  0
  -21.9206   -4.6971   22.3381 C   0  0  0  0  0  0
  -22.7870  -13.5271   21.1817 C   0  0  0  0  0  0
  -22.1678   -4.2161   21.0954 F   0  0  0  0  0  0
  -21.5626   -3.4530   25.7709 F   0  0  0  0  0  0
  -30.0283  -13.3217   20.4269 N   0  0  0  0  0  0
  -26.3025  -12.9335   20.3315 N   0  0  0  0  0  0
  -25.9322  -11.6504   20.5742 N   0  0  0  0  0  0
  -22.0498  -12.8284   22.0364 N   0  0  0  0  0  0
  -25.4328  -15.1902   20.4035 N   0  0  0  0  0  0
  -31.8265  -14.6874   20.1190 O   0  0  0  0  0  0
  -21.6678   -6.8890   21.4231 O   0  0  0  0  0  0
  -22.3547  -14.5557   20.6637 O   0  0  0  0  0  0
  -24.6211  -31.8670   23.2097 C   0  0  0  0  0  0
  -25.9081  -32.4826   23.8397 C   0  0  1  0  0  0
  -27.2105  -27.3697   20.0885 C   0  0  0  0  0  0
  -25.5923  -33.8626   24.2315 N   0  0  0  0  0  0
  -23.4099  -30.4958   21.5532 C   0  0  2  0  0  0
  -24.8513  -28.9682   20.1107 C   0  0  0  0  0  0
  -22.7446  -29.4658   22.4967 C   0  0  0  0  0  0
  -18.0280  -28.1392   22.8483 C   0  0  0  0  0  0
  -24.1496  -36.7333   23.2630 C   0  0  0  0  0  0
  -25.9503  -30.8107   21.3759 C   0  0  0  0  0  0
  -26.0210  -29.4441   20.7168 C   0  0  0  0  0  0
  -27.2023  -28.6517   20.7083 C   0  0  0  0  0  0
  -26.0174  -26.9519   19.4453 C   0  0  0  0  0  0
  -24.8483  -27.7240   19.4711 C   0  0  0  0  0  0
  -23.6189  -29.8413   20.1651 C   0  0  0  0  0  0
  -25.4119  -36.3117   24.0324 C   0  0  1  0  0  0
  -20.5874  -28.3679   23.1306 C   0  0  2  0  0  0
  -20.6774  -26.9411   22.5411 C   0  0  0  0  0  0
  -19.5747  -26.6387   21.5217 C   0  0  0  0  0  0
  -18.1928  -26.7935   22.1627 C   0  0  0  0  0  0
  -19.1527  -28.8849   23.2897 C   0  0  0  0  0  0
  -18.9455  -30.1451   23.8913 C   0  0  0  0  0  0
  -17.6458  -30.6589   24.0571 C   0  0  0  0  0  0
  -25.9039  -34.9481   23.5110 C   0  0  0  0  0  0
  -16.5350  -29.9095   23.6324 C   0  0  0  0  0  0
  -16.7269  -28.6518   23.0332 C   0  0  0  0  0  0
  -26.4464  -31.6628   25.0752 C   0  0  0  0  0  0
  -25.3689  -31.3789   26.1469 C   0  0  0  0  0  0
  -27.0292  -30.3048   24.6186 C   0  0  0  0  0  0
  -27.6020  -32.4357   25.7534 C   0  0  0  0  0  0
  -27.5595  -37.1825   24.8451 C   0  0  0  0  0  0
  -21.4165  -29.3055   22.3717 N   0  0  0  0  0  0
  -26.4308  -37.3798   23.9392 N   0  0  0  0  0  0
  -24.6797  -31.0722   22.1036 N   0  0  0  0  0  0
  -23.4204  -28.8164   23.2989 O   0  0  0  0  0  0
  -28.3291  -26.5312   20.1425 O   0  0  0  0  0  0
  -26.5594  -34.8934   22.4669 O   0  0  0  0  0  0
  -23.5387  -32.1450   23.7452 O   0  0  0  0  0  0
  -28.7991  -22.6784   19.9370 C   0  0  0  0  0  0
  -30.2909  -24.3271   20.8690 C   0  0  0  0  0  0
  -29.0866  -24.0448   20.2073 C   0  0  0  0  0  0
  -29.7056  -21.6520   20.3130 C   0  0  0  0  0  0
  -30.9129  -22.0710   20.9254 C   0  0  0  0  0  0
  -32.3470  -21.0498   22.7501 C   0  0  0  0  0  0
  -33.2803  -21.3361   20.3745 C   0  0  0  0  0  0
  -28.0917  -25.1364   19.7763 C   0  0  0  0  0  0
  -28.9779  -17.9268   20.6915 C   0  0  0  0  0  0
  -30.2387  -17.0077   20.7957 C   0  0  0  0  0  0
  -29.1275  -19.4359   21.0837 C   0  0  0  0  0  0
  -32.0380  -21.0855   21.2449 C   0  0  0  0  0  0
  -31.1833  -23.3697   21.2090 N   0  0  0  0  0  0
  -29.8981  -15.5643   20.8835 N   0  0  0  0  0  0
  -29.4547  -20.3210   19.9929 O   0  0  0  0  0  0
  -31.4686  -12.4334   19.1173 H   0  0  0  0  0  0
  -30.3408  -11.3157   19.8330 H   0  0  0  0  0  0
  -29.7362  -11.7536   17.4373 H   0  0  0  0  0  0
  -29.6655  -13.4692   17.7504 H   0  0  0  0  0  0
  -27.8206  -11.3034   18.8094 H   0  0  0  0  0  0
  -27.3702  -12.6347   17.7784 H   0  0  0  0  0  0
  -27.6944  -14.2515   19.5536 H   0  0  0  0  0  0
  -28.6862  -11.9829   21.3462 H   0  0  0  0  0  0
  -28.4668  -13.6329   21.8530 H   0  0  0  0  0  0
  -25.2777   -9.5741   22.4729 H   0  0  0  0  0  0
  -24.0027   -7.4692   22.7494 H   0  0  0  0  0  0
  -21.0851   -8.8789   19.8950 H   0  0  0  0  0  0
  -22.3702  -10.9691   19.6147 H   0  0  0  0  0  0
  -21.2020   -7.6153   23.9694 H   0  0  0  0  0  0
  -21.1460   -6.0526   25.9067 H   0  0  0  0  0  0
  -22.0607   -2.7615   23.2817 H   0  0  0  0  0  0
  -22.4139  -11.9981   22.4800 H   0  0  0  0  0  0
  -21.1081  -13.1269   22.2482 H   0  0  0  0  0  0
  -24.6609  -15.8414   20.5029 H   0  0  0  0  0  0
  -26.2732  -15.6263   20.0477 H   0  0  0  0  0  0
  -26.7152  -32.5498   23.1149 H   0  0  0  0  0  0
  -25.0110  -33.9798   25.0487 H   0  0  0  0  0  0
  -22.7005  -31.3150   21.4174 H   0  0  0  0  0  0
  -23.3753  -35.9670   23.3294 H   0  0  0  0  0  0
  -24.3592  -36.8953   22.2046 H   0  0  0  0  0  0
  -23.7261  -37.6541   23.6651 H   0  0  0  0  0  0
  -26.0732  -31.5755   20.6079 H   0  0  0  0  0  0
  -26.8350  -30.8594   21.9991 H   0  0  0  0  0  0
  -28.0968  -29.0069   21.2004 H   0  0  0  0  0  0
  -25.9394  -26.0176   18.9102 H   0  0  0  0  0  0
  -23.9525  -27.3585   18.9880 H   0  0  0  0  0  0
  -23.7332  -30.6203   19.4105 H   0  0  0  0  0  0
  -22.7401  -29.2676   19.8648 H   0  0  0  0  0  0
  -25.1302  -36.1982   25.0818 H   0  0  0  0  0  0
  -20.9967  -28.3246   24.1422 H   0  0  0  0  0  0
  -20.5691  -26.2287   23.3600 H   0  0  0  0  0  0
  -21.6643  -26.7460   22.1189 H   0  0  0  0  0  0
  -19.6907  -25.6295   21.1253 H   0  0  0  0  0  0
  -19.6690  -27.3190   20.6745 H   0  0  0  0  0  0
  -17.4196  -26.6672   21.4038 H   0  0  0  0  0  0
  -18.0330  -26.0084   22.9033 H   0  0  0  0  0  0
  -19.7925  -30.7263   24.2296 H   0  0  0  0  0  0
  -17.5008  -31.6265   24.5176 H   0  0  0  0  0  0
  -15.5347  -30.3005   23.7640 H   0  0  0  0  0  0
  -15.8667  -28.0854   22.7029 H   0  0  0  0  0  0
  -24.5823  -30.7189   25.7798 H   0  0  0  0  0  0
  -24.8920  -32.2981   26.4893 H   0  0  0  0  0  0
  -25.7976  -30.8952   27.0252 H   0  0  0  0  0  0
  -26.2872  -29.6836   24.1157 H   0  0  0  0  0  0
  -27.3936  -29.7269   25.4691 H   0  0  0  0  0  0
  -27.8761  -30.4343   23.9443 H   0  0  0  0  0  0
  -27.2606  -33.3633   26.2146 H   0  0  0  0  0  0
  -28.3816  -32.6969   25.0369 H   0  0  0  0  0  0
  -28.0696  -31.8468   26.5431 H   0  0  0  0  0  0
  -28.2592  -38.0142   24.7512 H   0  0  0  0  0  0
  -28.1114  -36.2671   24.6259 H   0  0  0  0  0  0
  -27.2310  -37.1449   25.8852 H   0  0  0  0  0  0
  -20.9320  -29.8822   21.6978 H   0  0  0  0  0  0
  -26.0198  -38.2881   24.1378 H   0  0  0  0  0  0
  -27.8831  -22.4142   19.4291 H   0  0  0  0  0  0
  -30.5566  -25.3420   21.1251 H   0  0  0  0  0  0
  -31.4529  -20.7956   23.3213 H   0  0  0  0  0  0
  -32.7009  -22.0175   23.1076 H   0  0  0  0  0  0
  -33.1066  -20.3048   22.9813 H   0  0  0  0  0  0
  -33.0282  -21.2587   19.3163 H   0  0  0  0  0  0
  -34.0601  -20.6023   20.5768 H   0  0  0  0  0  0
  -33.6993  -22.3279   20.5436 H   0  0  0  0  0  0
  -27.1488  -24.7929   20.2053 H   0  0  0  0  0  0
  -28.0012  -25.0790   18.6893 H   0  0  0  0  0  0
  -28.2205  -17.5097   21.3581 H   0  0  0  0  0  0
  -28.5456  -17.8555   19.6924 H   0  0  0  0  0  0
  -30.8227  -17.2711   21.6787 H   0  0  0  0  0  0
  -30.8831  -17.1844   19.9336 H   0  0  0  0  0  0
  -29.8130  -19.5343   21.9233 H   0  0  0  0  0  0
  -28.1635  -19.7740   21.4685 H   0  0  0  0  0  0
  -31.7125  -20.0838   20.9704 H   0  0  0  0  0  0
  -28.9630  -15.3314   21.1831 H   0  0  0  0  0  0
  1 25  1  0  0  0
  1 30  2  0  0  0
  1 84  1  0  0  0
  2  3  1  0  0  0
  2 25  1  0  0  0
  2 86  1  0  0  0
  2 87  1  0  0  0
  3  4  1  0  0  0
  3 88  1  0  0  0
  3 89  1  0  0  0
  4  5  1  0  0  0
  4 90  1  0  0  0
  4 91  1  0  0  0
  5  6  1  0  0  0
  5 26  1  0  0  0
  5 92  1  0  0  0
  6 25  1  0  0  0
  6 93  1  0  0  0
  6 94  1  0  0  0
  7  8  2  0  0  0
  7 26  1  0  0  0
  7 29  1  0  0  0
  8  9  1  0  0  0
  8 22  1  0  0  0
  9 10  1  0  0  0
  9 27  2  0  0  0
 10 11  2  0  0  0
 10 15  1  0  0  0
 11 12  1  0  0  0
 11 95  1  0  0  0
 12 13  2  0  0  0
 12 96  1  0  0  0
 13 14  1  0  0  0
 13 31  1  0  0  0
 14 15  2  0  0  0
 14 97  1  0  0  0
 15 98  1  0  0  0
 16 17  2  0  0  0
 16 21  1  0  0  0
 16 31  1  0  0  0
 17 18  1  0  0  0
 17 99  1  0  0  0
 18 19  2  0  0  0
 18100  1  0  0  0
 19 20  1  0  0  0
 19 24  1  0  0  0
 20 21  2  0  0  0
 20101  1  0  0  0
 21 23  1  0  0  0
 22 28  1  0  0  0
 22 32  2  0  0  0
 26 27  1  0  0  0
 28102  1  0  0  0
 28103  1  0  0  0
 29104  1  0  0  0
 29105  1  0  0  0
 33 34  1  0  0  0
 33 66  1  0  0  0
 33 70  2  0  0  0
 34 36  1  0  0  0
 34 59  1  0  0  0
 34106  1  0  0  0
 35 44  2  0  0  0
 35 45  1  0  0  0
 35 68  1  0  0  0
 36 56  1  0  0  0
 36107  1  0  0  0
 37 39  1  0  0  0
 37 47  1  0  0  0
 37 66  1  0  0  0
 37108  1  0  0  0
 38 43  2  0  0  0
 38 46  1  0  0  0
 38 47  1  0  0  0
 39 64  1  0  0  0
 39 67  2  0  0  0
 40 52  1  0  0  0
 40 53  2  0  0  0
 40 58  1  0  0  0
 41109  1  0  0  0
 41110  1  0  0  0
 41111  1  0  0  0
 41 48  1  0  0  0
 42 43  1  0  0  0
 42 66  1  0  0  0
 42112  1  0  0  0
 42113  1  0  0  0
 43 44  1  0  0  0
 44114  1  0  0  0
 45 46  2  0  0  0
 45115  1  0  0  0
 46116  1  0  0  0
 47117  1  0  0  0
 47118  1  0  0  0
 48 56  1  0  0  0
 48 65  1  0  0  0
 48119  1  0  0  0
 49 50  1  0  0  0
 49 53  1  0  0  0
 49 64  1  0  0  0
 49120  1  0  0  0
 50 51  1  0  0  0
 50121  1  0  0  0
 50122  1  0  0  0
 51 52  1  0  0  0
 51123  1  0  0  0
 51124  1  0  0  0
 52125  1  0  0  0
 52126  1  0  0  0
 53 54  1  0  0  0
 54 55  2  0  0  0
 54127  1  0  0  0
 55 57  1  0  0  0
 55128  1  0  0  0
 56 69  2  0  0  0
 57 58  2  0  0  0
 57129  1  0  0  0
 58130  1  0  0  0
 59 60  1  0  0  0
 59 61  1  0  0  0
 59 62  1  0  0  0
 60131  1  0  0  0
 60132  1  0  0  0
 60133  1  0  0  0
 61134  1  0  0  0
 61135  1  0  0  0
 61136  1  0  0  0
 62137  1  0  0  0
 62138  1  0  0  0
 62139  1  0  0  0
 63 65  1  0  0  0
 63140  1  0  0  0
 63141  1  0  0  0
 63142  1  0  0  0
 64143  1  0  0  0
 65144  1  0  0  0
 68 78  1  0  0  0
 71 73  2  0  0  0
 71 74  1  0  0  0
 71145  1  0  0  0
 72 73  1  0  0  0
 72 83  2  0  0  0
 72146  1  0  0  0
 73 78  1  0  0  0
 74 75  2  0  0  0
 74 85  1  0  0  0
 75 82  1  0  0  0
 75 83  1  0  0  0
 76147  1  0  0  0
 76148  1  0  0  0
 76149  1  0  0  0
 76 82  1  0  0  0
 77 82  1  0  0  0
 77150  1  0  0  0
 77151  1  0  0  0
 77152  1  0  0  0
 78153  1  0  0  0
 78154  1  0  0  0
 79 80  1  0  0  0
 79 81  1  0  0  0
 79155  1  0  0  0
 79156  1  0  0  0
 80 84  1  0  0  0
 80157  1  0  0  0
 80158  1  0  0  0
 81 85  1  0  0  0
 81159  1  0  0  0
 81160  1  0  0  0
 82161  1  0  0  0
 84162  1  0  0  0
M  ISO  4   1 100  68 101  78 101  84 100
M  END
> <chiral flag>
0

> <version>
0

> <s_m_source_file>
/data/baiqing/PycharmProjects/Reinvent-master-3.2/result/LINK_invent/BTK/process_docking_weight1_custom_sum_contain_oxygen_bond_distance_aromatic_linkinvent_7_9_3/rearranged_h_0148.sdf

> <i_m_source_file_index>
3

> <r_mmod_Potential_Energy-OPLS-2005>
-126.911865234375

> <r_mmod_Stretch_Energy-OPLS-2005>
50.3576316833496

> <r_mmod_Bend_Energy-OPLS-2005>
111.564903259277

> <r_mmod_Torsional_Energy-OPLS-2005>
228.736587524414

> <r_mmod_Improper_Torsional_Energy-OPLS-2005>
5.14183950424194

> <r_mmod_Van_der_Waal_Energy-OPLS-2005>
157.772125244141

> <r_mmod_Electrostatic_Energy-OPLS-2005>
-485.912109375

> <r_mmod_Solvation_Energy-OPLS-2005>
-221.941513061523

> <b_mmod_Minimization_Converged-OPLS-2005>
0

> <r_mmod_RMS_Derivative-OPLS-2005>
3.04485702514648

$$$$
3
                    3D
 Structure written by MMmdl.
171181  0  0  1  0            999 V2000
  -30.6842  -14.5885   20.4643 C   0  0  0  0  0  0
  -30.4143  -12.3548   19.4554 C   0  0  0  0  0  0
  -29.4987  -12.4859   18.2211 C   0  0  0  0  0  0
  -28.0211  -12.3412   18.6326 C   0  0  0  0  0  0
  -27.6460  -13.2248   19.8531 C   0  0  2  0  0  0
  -28.6906  -13.1159   20.9863 C   0  0  0  0  0  0
  -25.2525  -13.8196   20.5679 C   0  0  0  0  0  0
  -24.1810  -13.0447   20.9205 C   0  0  0  0  0  0
  -24.6391  -11.6923   20.8748 C   0  0  0  0  0  0
  -23.9065  -10.4298   21.0408 C   0  0  0  0  0  0
  -24.3617   -9.4211   21.9183 C   0  0  0  0  0  0
  -23.6295   -8.2245   22.0751 C   0  0  0  0  0  0
  -22.4277   -8.0281   21.3541 C   0  0  0  0  0  0
  -21.9911   -9.0255   20.4644 C   0  0  0  0  0  0
  -22.7238  -10.2137   20.3055 C   0  0  0  0  0  0
  -21.6856   -6.0733   22.5275 C   0  0  0  0  0  0
  -21.4016   -6.5638   23.8208 C   0  0  0  0  0  0
  -21.3658   -5.6792   24.9171 C   0  0  0  0  0  0
  -21.6045   -4.3054   24.7224 C   0  0  0  0  0  0
  -21.8821   -3.8144   23.4345 C   0  0  0  0  0  0
  -21.9195   -4.6960   22.3401 C   0  0  0  0  0  0
  -22.7828  -13.5227   21.1865 C   0  0  0  0  0  0
  -22.1663   -4.2144   21.0978 F   0  0  0  0  0  0
  -21.5629   -3.4538   25.7737 F   0  0  0  0  0  0
  -30.0069  -13.4049   20.4071 N   0  0  0  0  0  0
  -26.2952  -12.9395   20.3288 N   0  0  0  0  0  0
  -25.9318  -11.6541   20.5755 N   0  0  0  0  0  0
  -22.0476  -12.8215   22.0421 N   0  0  0  0  0  0
  -25.4215  -15.1916   20.4065 N   0  0  0  0  0  0
  -31.8844  -14.6448   20.1908 O   0  0  0  0  0  0
  -21.6643   -6.8877   21.4237 O   0  0  0  0  0  0
  -22.3507  -14.5527   20.6706 O   0  0  0  0  0  0
  -24.6225  -31.8632   23.2051 C   0  0  0  0  0  0
  -25.9091  -32.4794   23.8367 C   0  0  1  0  0  0
  -27.2185  -27.3560   20.1137 C   0  0  0  0  0  0
  -25.5924  -33.8593   24.2302 N   0  0  0  0  0  0
  -23.4129  -30.4883   21.5477 C   0  0  2  0  0  0
  -24.8563  -28.9481   20.1126 C   0  0  0  0  0  0
  -22.7452  -29.4642   22.4954 C   0  0  0  0  0  0
  -18.0283  -28.1380   22.8486 C   0  0  0  0  0  0
  -24.1488  -36.7299   23.2638 C   0  0  0  0  0  0
  -25.9503  -30.8075   21.3677 C   0  0  0  0  0  0
  -26.0243  -29.4382   20.7101 C   0  0  0  0  0  0
  -27.2110  -28.6548   20.6972 C   0  0  0  0  0  0
  -26.0270  -26.9043   19.5040 C   0  0  0  0  0  0
  -24.8573  -27.6851   19.5013 C   0  0  0  0  0  0
  -23.6240  -29.8250   20.1619 C   0  0  0  0  0  0
  -25.4110  -36.3093   24.0335 C   0  0  1  0  0  0
  -20.5879  -28.3680   23.1295 C   0  0  2  0  0  0
  -20.6772  -26.9409   22.5410 C   0  0  0  0  0  0
  -19.5751  -26.6386   21.5208 C   0  0  0  0  0  0
  -18.1930  -26.7925   22.1619 C   0  0  0  0  0  0
  -19.1533  -28.8846   23.2887 C   0  0  0  0  0  0
  -18.9458  -30.1448   23.8904 C   0  0  0  0  0  0
  -17.6460  -30.6584   24.0563 C   0  0  0  0  0  0
  -25.9045  -34.9461   23.5116 C   0  0  0  0  0  0
  -16.5350  -29.9084   23.6327 C   0  0  0  0  0  0
  -16.7270  -28.6501   23.0348 C   0  0  0  0  0  0
  -26.4490  -31.6586   25.0719 C   0  0  0  0  0  0
  -25.3741  -31.3706   26.1458 C   0  0  0  0  0  0
  -27.0324  -30.3019   24.6132 C   0  0  0  0  0  0
  -27.6060  -32.4308   25.7489 C   0  0  0  0  0  0
  -27.5581  -37.1804   24.8464 C   0  0  0  0  0  0
  -21.4171  -29.3040   22.3695 N   0  0  0  0  0  0
  -26.4289  -37.3785   23.9413 N   0  0  0  0  0  0
  -24.6808  -31.0686   22.0978 N   0  0  0  0  0  0
  -23.4196  -28.8183   23.3018 O   0  0  0  0  0  0
  -28.3534  -26.5459   20.1460 O   0  0  0  0  0  0
  -26.5607  -34.8923   22.4678 O   0  0  0  0  0  0
  -23.5401  -32.1410   23.7409 O   0  0  0  0  0  0
  -27.9744  -19.8481   20.7920 C   0  0  0  0  0  0
  -28.3294  -18.4661   20.7750 C   0  0  0  0  0  0
  -29.0727  -20.6045   20.4813 C   0  0  0  0  0  0
  -29.6526  -18.3491   20.4492 C   0  0  0  0  0  0
  -33.5402  -20.5511   20.6449 C   0  0  0  0  0  0
  -29.1377  -22.9912   21.5532 C   0  0  0  0  0  0
  -28.0768  -22.7186   19.3167 C   0  0  0  0  0  0
  -32.1964  -21.2449   20.8581 C   0  0  0  0  0  0
  -32.7452  -19.2542   20.5305 C   0  0  0  0  0  0
  -29.2573  -24.5310   21.3038 C   0  0  0  0  0  0
  -28.2408  -24.2499   19.0497 C   0  0  0  0  0  0
  -29.1651  -22.1351   20.2573 C   0  0  2  0  0  0
  -31.5157  -20.0819   20.0986 C   0  0  0  0  0  0
  -28.1773  -25.1006   20.3474 C   0  0  2  0  0  0
  -30.6899  -17.0676   18.5676 C   0  0  0  0  0  0
  -30.4680  -17.0824   20.0971 C   0  0  2  0  0  0
  -30.1447  -19.6845   20.3807 N   0  0  0  0  0  0
  -29.9506  -15.7410   20.5298 N   0  0  0  0  0  0
  -31.4615  -12.4377   19.1583 H   0  0  0  0  0  0
  -30.3101  -11.3696   19.9125 H   0  0  0  0  0  0
  -29.7554  -11.7291   17.4786 H   0  0  0  0  0  0
  -29.6566  -13.4533   17.7411 H   0  0  0  0  0  0
  -27.8501  -11.2908   18.8707 H   0  0  0  0  0  0
  -27.3696  -12.5689   17.7881 H   0  0  0  0  0  0
  -27.6556  -14.2539   19.4939 H   0  0  0  0  0  0
  -28.6848  -12.1176   21.4262 H   0  0  0  0  0  0
  -28.4570  -13.8097   21.7957 H   0  0  0  0  0  0
  -25.2761   -9.5690   22.4758 H   0  0  0  0  0  0
  -24.0005   -7.4636   22.7470 H   0  0  0  0  0  0
  -21.0841   -8.8775   19.8951 H   0  0  0  0  0  0
  -22.3695  -10.9675   19.6165 H   0  0  0  0  0  0
  -21.2009   -7.6146   23.9709 H   0  0  0  0  0  0
  -21.1478   -6.0522   25.9075 H   0  0  0  0  0  0
  -22.0601   -2.7606   23.2846 H   0  0  0  0  0  0
  -22.4098  -11.9882   22.4814 H   0  0  0  0  0  0
  -21.1090  -13.1230   22.2623 H   0  0  0  0  0  0
  -24.6505  -15.8425   20.5087 H   0  0  0  0  0  0
  -26.2598  -15.6270   20.0449 H   0  0  0  0  0  0
  -26.7159  -32.5477   23.1120 H   0  0  0  0  0  0
  -25.0086  -33.9743   25.0456 H   0  0  0  0  0  0
  -22.7046  -31.3077   21.4083 H   0  0  0  0  0  0
  -23.3752  -35.9630   23.3297 H   0  0  0  0  0  0
  -24.3585  -36.8919   22.2054 H   0  0  0  0  0  0
  -23.7238  -37.6501   23.6655 H   0  0  0  0  0  0
  -26.0746  -31.5729   20.6004 H   0  0  0  0  0  0
  -26.8335  -30.8563   21.9930 H   0  0  0  0  0  0
  -28.1106  -29.0278   21.1663 H   0  0  0  0  0  0
  -25.9752  -25.9362   19.0331 H   0  0  0  0  0  0
  -23.9603  -27.3022   19.0342 H   0  0  0  0  0  0
  -23.7421  -30.6023   19.4061 H   0  0  0  0  0  0
  -22.7441  -29.2543   19.8598 H   0  0  0  0  0  0
  -25.1286  -36.1949   25.0828 H   0  0  0  0  0  0
  -20.9972  -28.3250   24.1415 H   0  0  0  0  0  0
  -20.5674  -26.2290   23.3604 H   0  0  0  0  0  0
  -21.6644  -26.7445   22.1206 H   0  0  0  0  0  0
  -19.6916  -25.6299   21.1234 H   0  0  0  0  0  0
  -19.6691  -27.3198   20.6740 H   0  0  0  0  0  0
  -17.4202  -26.6673   21.4019 H   0  0  0  0  0  0
  -18.0333  -26.0065   22.9014 H   0  0  0  0  0  0
  -19.7936  -30.7257   24.2283 H   0  0  0  0  0  0
  -17.5016  -31.6265   24.5162 H   0  0  0  0  0  0
  -15.5351  -30.2987   23.7649 H   0  0  0  0  0  0
  -15.8672  -28.0821   22.7061 H   0  0  0  0  0  0
  -24.5919  -30.7048   25.7792 H   0  0  0  0  0  0
  -24.8927  -32.2865   26.4896 H   0  0  0  0  0  0
  -25.8085  -30.8882   27.0223 H   0  0  0  0  0  0
  -26.2880  -29.6776   24.1175 H   0  0  0  0  0  0
  -27.4065  -29.7261   25.4608 H   0  0  0  0  0  0
  -27.8731  -30.4320   23.9313 H   0  0  0  0  0  0
  -27.2678  -33.3602   26.2081 H   0  0  0  0  0  0
  -28.3864  -32.6874   25.0314 H   0  0  0  0  0  0
  -28.0733  -31.8421   26.5393 H   0  0  0  0  0  0
  -28.2593  -38.0106   24.7519 H   0  0  0  0  0  0
  -28.1082  -36.2639   24.6273 H   0  0  0  0  0  0
  -27.2305  -37.1435   25.8868 H   0  0  0  0  0  0
  -20.9341  -29.8766   21.6914 H   0  0  0  0  0  0
  -26.0173  -38.2862   24.1415 H   0  0  0  0  0  0
  -26.9854  -20.2494   20.9682 H   0  0  0  0  0  0
  -27.6554  -17.6339   20.9240 H   0  0  0  0  0  0
  -34.2241  -20.5986   21.4933 H   0  0  0  0  0  0
  -34.0268  -20.8378   19.7107 H   0  0  0  0  0  0
  -28.2120  -22.7905   22.0939 H   0  0  0  0  0  0
  -29.9429  -22.6748   22.2157 H   0  0  0  0  0  0
  -28.1066  -22.1873   18.3648 H   0  0  0  0  0  0
  -27.0878  -22.5303   19.7364 H   0  0  0  0  0  0
  -32.1466  -22.2261   20.3872 H   0  0  0  0  0  0
  -31.9101  -21.2905   21.9103 H   0  0  0  0  0  0
  -32.6231  -18.7745   21.5037 H   0  0  0  0  0  0
  -33.1254  -18.5608   19.7791 H   0  0  0  0  0  0
  -30.2460  -24.7496   20.8987 H   0  0  0  0  0  0
  -29.2025  -25.0544   22.2589 H   0  0  0  0  0  0
  -27.4799  -24.5683   18.3400 H   0  0  0  0  0  0
  -29.1950  -24.4268   18.5522 H   0  0  0  0  0  0
  -30.0958  -22.3462   19.7392 H   0  0  0  0  0  0
  -31.5510  -20.2716   19.0236 H   0  0  0  0  0  0
  -27.2137  -24.9242   20.8296 H   0  0  0  0  0  0
  -31.1606  -17.9880   18.2244 H   0  0  0  0  0  0
  -29.7422  -16.9741   18.0367 H   0  0  0  0  0  0
  -31.3341  -16.2526   18.2397 H   0  0  0  0  0  0
  -31.4330  -17.1481   20.5879 H   0  0  0  0  0  0
  -28.9648  -15.6601   20.7194 H   0  0  0  0  0  0
  1 25  1  0  0  0
  1 30  2  0  0  0
  1 88  1  0  0  0
  2  3  1  0  0  0
  2 25  1  0  0  0
  2 89  1  0  0  0
  2 90  1  0  0  0
  3  4  1  0  0  0
  3 91  1  0  0  0
  3 92  1  0  0  0
  4  5  1  0  0  0
  4 93  1  0  0  0
  4 94  1  0  0  0
  5  6  1  0  0  0
  5 26  1  0  0  0
  5 95  1  0  0  0
  6 25  1  0  0  0
  6 96  1  0  0  0
  6 97  1  0  0  0
  7  8  2  0  0  0
  7 26  1  0  0  0
  7 29  1  0  0  0
  8  9  1  0  0  0
  8 22  1  0  0  0
  9 10  1  0  0  0
  9 27  2  0  0  0
 10 11  2  0  0  0
 10 15  1  0  0  0
 11 12  1  0  0  0
 11 98  1  0  0  0
 12 13  2  0  0  0
 12 99  1  0  0  0
 13 14  1  0  0  0
 13 31  1  0  0  0
 14 15  2  0  0  0
 14100  1  0  0  0
 15101  1  0  0  0
 16 17  2  0  0  0
 16 21  1  0  0  0
 16 31  1  0  0  0
 17 18  1  0  0  0
 17102  1  0  0  0
 18 19  2  0  0  0
 18103  1  0  0  0
 19 20  1  0  0  0
 19 24  1  0  0  0
 20 21  2  0  0  0
 20104  1  0  0  0
 21 23  1  0  0  0
 22 28  1  0  0  0
 22 32  2  0  0  0
 26 27  1  0  0  0
 28105  1  0  0  0
 28106  1  0  0  0
 29107  1  0  0  0
 29108  1  0  0  0
 33 34  1  0  0  0
 33 66  1  0  0  0
 33 70  2  0  0  0
 34 36  1  0  0  0
 34 59  1  0  0  0
 34109  1  0  0  0
 35 44  2  0  0  0
 35 45  1  0  0  0
 35 68  1  0  0  0
 36 56  1  0  0  0
 36110  1  0  0  0
 37 39  1  0  0  0
 37 47  1  0  0  0
 37 66  1  0  0  0
 37111  1  0  0  0
 38 43  2  0  0  0
 38 46  1  0  0  0
 38 47  1  0  0  0
 39 64  1  0  0  0
 39 67  2  0  0  0
 40 52  1  0  0  0
 40 53  2  0  0  0
 40 58  1  0  0  0
 41112  1  0  0  0
 41113  1  0  0  0
 41114  1  0  0  0
 41 48  1  0  0  0
 42 43  1  0  0  0
 42 66  1  0  0  0
 42115  1  0  0  0
 42116  1  0  0  0
 43 44  1  0  0  0
 44117  1  0  0  0
 45 46  2  0  0  0
 45118  1  0  0  0
 46119  1  0  0  0
 47120  1  0  0  0
 47121  1  0  0  0
 48 56  1  0  0  0
 48 65  1  0  0  0
 48122  1  0  0  0
 49 50  1  0  0  0
 49 53  1  0  0  0
 49 64  1  0  0  0
 49123  1  0  0  0
 50 51  1  0  0  0
 50124  1  0  0  0
 50125  1  0  0  0
 51 52  1  0  0  0
 51126  1  0  0  0
 51127  1  0  0  0
 52128  1  0  0  0
 52129  1  0  0  0
 53 54  1  0  0  0
 54 55  2  0  0  0
 54130  1  0  0  0
 55 57  1  0  0  0
 55131  1  0  0  0
 56 69  2  0  0  0
 57 58  2  0  0  0
 57132  1  0  0  0
 58133  1  0  0  0
 59 60  1  0  0  0
 59 61  1  0  0  0
 59 62  1  0  0  0
 60134  1  0  0  0
 60135  1  0  0  0
 60136  1  0  0  0
 61137  1  0  0  0
 61138  1  0  0  0
 61139  1  0  0  0
 62140  1  0  0  0
 62141  1  0  0  0
 62142  1  0  0  0
 63 65  1  0  0  0
 63143  1  0  0  0
 63144  1  0  0  0
 63145  1  0  0  0
 64146  1  0  0  0
 65147  1  0  0  0
 68 84  1  0  0  0
 71 72  1  0  0  0
 71 73  2  0  0  0
 71148  1  0  0  0
 72 74  2  0  0  0
 72149  1  0  0  0
 73 87  1  0  0  0
 73 82  1  0  0  0
 74 86  1  0  0  0
 74 87  1  0  0  0
 75 78  1  0  0  0
 75 79  1  0  0  0
 75150  1  0  0  0
 75151  1  0  0  0
 76 80  1  0  0  0
 76 82  1  0  0  0
 76152  1  0  0  0
 76153  1  0  0  0
 77 81  1  0  0  0
 77 82  1  0  0  0
 77154  1  0  0  0
 77155  1  0  0  0
 78 83  1  0  0  0
 78156  1  0  0  0
 78157  1  0  0  0
 79 83  1  0  0  0
 79158  1  0  0  0
 79159  1  0  0  0
 80 84  1  0  0  0
 80160  1  0  0  0
 80161  1  0  0  0
 81 84  1  0  0  0
 81162  1  0  0  0
 81163  1  0  0  0
 82164  1  0  0  0
 83 87  1  0  0  0
 83165  1  0  0  0
 84166  1  0  0  0
 85167  1  0  0  0
 85168  1  0  0  0
 85169  1  0  0  0
 85 86  1  0  0  0
 86 88  1  0  0  0
 86170  1  0  0  0
 88171  1  0  0  0
M  ISO  4   1 100  68 101  84 101  88 100
M  END
> <chiral flag>
0

> <version>
0

> <s_m_source_file>
/data/baiqing/PycharmProjects/Reinvent-master-3.2/result/LINK_invent/BTK/process_docking_weight1_custom_sum_contain_oxygen_bond_distance_aromatic_linkinvent_7_9_3/rearranged_h_0148.sdf

> <i_m_source_file_index>
4

> <r_mmod_Potential_Energy-OPLS-2005>
49.9342155456543

> <r_mmod_Stretch_Energy-OPLS-2005>
65.8844833374023

> <r_mmod_Bend_Energy-OPLS-2005>
137.396392822266

> <r_mmod_Torsional_Energy-OPLS-2005>
287.146911621094

> <r_mmod_Improper_Torsional_Energy-OPLS-2005>
8.57688903808594

> <r_mmod_Van_der_Waal_Energy-OPLS-2005>
128.766464233398

> <r_mmod_Electrostatic_Energy-OPLS-2005>
-425.863098144531

> <r_mmod_Solvation_Energy-OPLS-2005>
-191.606338500977

> <b_mmod_Minimization_Converged-OPLS-2005>
0

> <r_mmod_RMS_Derivative-OPLS-2005>
0.401749819517136

$$$$
4
                    3D
 Structure written by MMmdl.
186196  0  0  1  0            999 V2000
  -30.6411  -14.7500   20.3498 C   0  0  0  0  0  0
  -30.4518  -12.4344   19.4396 C   0  0  0  0  0  0
  -29.5059  -12.4378   18.2192 C   0  0  0  0  0  0
  -28.0481  -12.2001   18.6583 C   0  0  0  0  0  0
  -27.6460  -13.1221   19.8296 C   0  0  2  0  0  0
  -28.7154  -13.1298   20.9580 C   0  0  0  0  0  0
  -25.2634  -13.7891   20.5717 C   0  0  0  0  0  0
  -24.1813  -13.0324   20.9306 C   0  0  0  0  0  0
  -24.6297  -11.6785   20.8895 C   0  0  0  0  0  0
  -23.8945  -10.4237   21.0540 C   0  0  0  0  0  0
  -24.3495   -9.4122   21.9298 C   0  0  0  0  0  0
  -23.6184   -8.2145   22.0805 C   0  0  0  0  0  0
  -22.4187   -8.0208   21.3567 C   0  0  0  0  0  0
  -21.9806   -9.0195   20.4679 C   0  0  0  0  0  0
  -22.7133  -10.2094   20.3150 C   0  0  0  0  0  0
  -21.6814   -6.0671   22.5302 C   0  0  0  0  0  0
  -21.3967   -6.5601   23.8219 C   0  0  0  0  0  0
  -21.3649   -5.6774   24.9198 C   0  0  0  0  0  0
  -21.6061   -4.3039   24.7267 C   0  0  0  0  0  0
  -21.8819   -3.8107   23.4398 C   0  0  0  0  0  0
  -21.9181   -4.6904   22.3438 C   0  0  0  0  0  0
  -22.7864  -13.5275   21.1899 C   0  0  0  0  0  0
  -22.1675   -4.2084   21.1013 F   0  0  0  0  0  0
  -21.5651   -3.4542   25.7789 F   0  0  0  0  0  0
  -29.9994  -13.5192   20.3436 N   0  0  0  0  0  0
  -26.2972  -12.8892   20.3278 N   0  0  0  0  0  0
  -25.9177  -11.6180   20.5824 N   0  0  0  0  0  0
  -22.0390  -12.8363   22.0439 N   0  0  0  0  0  0
  -25.4375  -15.1573   20.4074 N   0  0  0  0  0  0
  -31.8416  -14.8131   20.0948 O   0  0  0  0  0  0
  -21.6593   -6.8792   21.4258 O   0  0  0  0  0  0
  -22.3654  -14.5603   20.6700 O   0  0  0  0  0  0
  -24.6234  -31.8655   23.2031 C   0  0  0  0  0  0
  -25.9066  -32.4795   23.8393 C   0  0  1  0  0  0
  -27.2605  -27.3587   20.0951 C   0  0  0  0  0  0
  -25.5876  -33.8612   24.2291 N   0  0  0  0  0  0
  -23.4259  -30.4925   21.5325 C   0  0  2  0  0  0
  -24.8767  -28.9311   20.1021 C   0  0  0  0  0  0
  -22.7464  -29.4805   22.4821 C   0  0  0  0  0  0
  -18.0428  -28.1443   22.8181 C   0  0  0  0  0  0
  -24.1465  -36.7299   23.2636 C   0  0  0  0  0  0
  -25.9581  -30.7913   21.3729 C   0  0  0  0  0  0
  -26.0321  -29.4198   20.7194 C   0  0  0  0  0  0
  -27.2192  -28.6385   20.7206 C   0  0  0  0  0  0
  -26.0855  -26.9015   19.4645 C   0  0  0  0  0  0
  -24.9054  -27.6752   19.4599 C   0  0  0  0  0  0
  -23.6338  -29.7980   20.1531 C   0  0  0  0  0  0
  -25.4106  -36.3107   24.0319 C   0  0  1  0  0  0
  -20.5974  -28.3859   23.0874 C   0  0  2  0  0  0
  -20.7014  -26.9540   22.5070 C   0  0  0  0  0  0
  -19.5843  -26.5805   21.5215 C   0  0  0  0  0  0
  -18.1976  -26.7933   22.1374 C   0  0  0  0  0  0
  -19.1659  -28.8993   23.2556 C   0  0  0  0  0  0
  -18.9610  -30.1603   23.8544 C   0  0  0  0  0  0
  -17.6551  -30.6539   24.0450 C   0  0  0  0  0  0
  -25.9029  -34.9480   23.5120 C   0  0  0  0  0  0
  -16.5452  -29.8998   23.6265 C   0  0  0  0  0  0
  -16.7414  -28.6488   23.0113 C   0  0  0  0  0  0
  -26.4499  -31.6630   25.0769 C   0  0  0  0  0  0
  -25.3745  -31.3727   26.1481 C   0  0  0  0  0  0
  -27.0300  -30.3058   24.6168 C   0  0  0  0  0  0
  -27.6073  -32.4379   25.7513 C   0  0  0  0  0  0
  -27.5572  -37.1813   24.8471 C   0  0  0  0  0  0
  -21.4191  -29.3284   22.3390 N   0  0  0  0  0  0
  -26.4283  -37.3802   23.9399 N   0  0  0  0  0  0
  -24.6866  -31.0687   22.0949 N   0  0  0  0  0  0
  -23.4104  -28.8360   23.2947 O   0  0  0  0  0  0
  -28.3615  -26.5161   20.2507 O   0  0  0  0  0  0
  -26.5617  -34.8977   22.4684 O   0  0  0  0  0  0
  -23.5384  -32.1424   23.7351 O   0  0  0  0  0  0
  -25.4793  -19.5195   21.3501 C   0  0  0  0  0  0
  -27.3898  -18.4645   20.2059 C   0  0  0  0  0  0
  -26.7411  -18.9012   21.3953 C   0  0  0  0  0  0
  -24.8124  -19.6613   20.1320 C   0  0  0  0  0  0
  -26.7546  -18.7182   18.9367 C   0  0  0  0  0  0
  -25.4356  -19.2711   18.9257 C   0  0  0  0  0  0
  -30.1599  -21.3307   17.9672 C   0  0  0  0  0  0
  -28.4532  -16.1340   20.5097 C   0  0  0  0  0  0
  -28.6751  -17.6089   20.4115 C   0  0  1  0  0  0
  -30.3605  -22.1743   19.2012 C   0  0  2  0  0  0
  -30.0568  -20.6188   19.3009 C   0  0  2  0  0  0
  -29.9506  -17.2804   19.6069 C   0  0  1  0  0  0
  -27.3165  -18.6527   22.7921 C   0  0  0  0  0  0
  -23.3892  -20.2059   20.1574 C   0  0  0  0  0  0
  -24.6469  -19.3855   17.6223 C   0  0  0  0  0  0
  -27.4023  -19.4339   16.4763 C   0  0  0  0  0  0
  -29.5608  -24.3124   17.2343 C   0  0  0  0  0  0
  -27.4035  -18.3538   17.5935 C   0  0  0  0  0  0
  -31.1125  -18.2912   19.8655 C   0  0  0  0  0  0
  -29.0790  -25.8884   19.1461 C   0  0  0  0  0  0
  -28.8928  -24.3799   18.6291 C   0  0  2  0  0  0
  -29.8868  -15.9238   20.3126 N   0  0  0  0  0  0
  -29.2423  -23.1776   19.5231 N   0  3  0  0  0  0
  -31.0759  -19.5740   19.1366 O   0  0  0  0  0  0
  -31.4843  -12.5708   19.1109 H   0  0  0  0  0  0
  -30.4296  -11.4655   19.9430 H   0  0  0  0  0  0
  -29.8098  -11.6723   17.5043 H   0  0  0  0  0  0
  -29.5914  -13.3915   17.6897 H   0  0  0  0  0  0
  -27.9471  -11.1479   18.9415 H   0  0  0  0  0  0
  -27.3743  -12.3646   17.8179 H   0  0  0  0  0  0
  -27.6086  -14.0589   19.3089 H   0  0  0  0  0  0
  -28.7892  -12.1314   21.3978 H   0  0  0  0  0  0
  -28.4399  -13.7924   21.7798 H   0  0  0  0  0  0
  -25.2620   -9.5547   22.4925 H   0  0  0  0  0  0
  -23.9877   -7.4504   22.7466 H   0  0  0  0  0  0
  -21.0763   -8.8689   19.8959 H   0  0  0  0  0  0
  -22.3603  -10.9649   19.6268 H   0  0  0  0  0  0
  -21.1947   -7.6111   23.9693 H   0  0  0  0  0  0
  -21.1473   -6.0524   25.9088 H   0  0  0  0  0  0
  -22.0598   -2.7568   23.2940 H   0  0  0  0  0  0
  -22.3870  -11.9977   22.4834 H   0  0  0  0  0  0
  -21.0994  -13.1446   22.2555 H   0  0  0  0  0  0
  -24.6723  -15.8094   20.5013 H   0  0  0  0  0  0
  -26.2824  -15.5911   20.0659 H   0  0  0  0  0  0
  -26.7103  -32.5466   23.1119 H   0  0  0  0  0  0
  -25.0022  -33.9731   25.0425 H   0  0  0  0  0  0
  -22.7287  -31.3151   21.3703 H   0  0  0  0  0  0
  -23.3752  -35.9602   23.3323 H   0  0  0  0  0  0
  -24.3550  -36.8912   22.2050 H   0  0  0  0  0  0
  -23.7186  -37.6487   23.6662 H   0  0  0  0  0  0
  -26.0723  -31.5449   20.5888 H   0  0  0  0  0  0
  -26.8410  -30.8470   22.0053 H   0  0  0  0  0  0
  -28.0977  -29.0052   21.2303 H   0  0  0  0  0  0
  -26.0623  -25.9223   19.0135 H   0  0  0  0  0  0
  -24.0181  -27.3013   18.9632 H   0  0  0  0  0  0
  -23.7220  -30.5518   19.3707 H   0  0  0  0  0  0
  -22.7599  -29.2010   19.8747 H   0  0  0  0  0  0
  -25.1276  -36.1963   25.0808 H   0  0  0  0  0  0
  -21.0024  -28.3432   24.1051 H   0  0  0  0  0  0
  -20.6390  -26.2612   23.3451 H   0  0  0  0  0  0
  -21.6708  -26.7840   22.0464 H   0  0  0  0  0  0
  -19.6871  -25.5295   21.2355 H   0  0  0  0  0  0
  -19.6886  -27.1489   20.5957 H   0  0  0  0  0  0
  -17.4575  -26.6817   21.3485 H   0  0  0  0  0  0
  -17.9631  -26.0230   22.8767 H   0  0  0  0  0  0
  -19.8029  -30.7602   24.1912 H   0  0  0  0  0  0
  -17.5120  -31.6095   24.5333 H   0  0  0  0  0  0
  -15.5482  -30.2845   23.7856 H   0  0  0  0  0  0
  -15.8880  -28.0716   22.6740 H   0  0  0  0  0  0
  -24.5967  -30.7012   25.7813 H   0  0  0  0  0  0
  -24.8892  -32.2876   26.4902 H   0  0  0  0  0  0
  -25.8094  -30.8950   27.0260 H   0  0  0  0  0  0
  -26.2819  -29.6852   24.1228 H   0  0  0  0  0  0
  -27.4005  -29.7260   25.4626 H   0  0  0  0  0  0
  -27.8710  -30.4340   23.9344 H   0  0  0  0  0  0
  -27.2688  -33.3687   26.2069 H   0  0  0  0  0  0
  -28.3901  -32.6914   25.0353 H   0  0  0  0  0  0
  -28.0729  -31.8549   26.5451 H   0  0  0  0  0  0
  -28.2607  -38.0101   24.7537 H   0  0  0  0  0  0
  -28.1036  -36.2631   24.6279 H   0  0  0  0  0  0
  -27.2295  -37.1483   25.8876 H   0  0  0  0  0  0
  -20.9368  -29.8776   21.6366 H   0  0  0  0  0  0
  -26.0169  -38.2851   24.1454 H   0  0  0  0  0  0
  -24.9865  -19.8156   22.2717 H   0  0  0  0  0  0
  -31.0408  -21.1335   17.3512 H   0  0  0  0  0  0
  -29.2518  -21.4470   17.3971 H   0  0  0  0  0  0
  -27.8245  -15.9459   19.6507 H   0  0  0  0  0  0
  -28.0247  -15.8530   21.4724 H   0  0  0  0  0  0
  -29.1078  -17.9555   21.3456 H   0  0  0  0  0  0
  -31.3560  -22.5236   19.4716 H   0  0  0  0  0  0
  -29.0551  -20.2605   19.5203 H   0  0  0  0  0  0
  -29.8563  -17.0812   18.5458 H   0  0  0  0  0  0
  -26.6561  -19.0161   23.5802 H   0  0  0  0  0  0
  -28.2750  -19.1508   22.9213 H   0  0  0  0  0  0
  -27.4607  -17.5855   22.9745 H   0  0  0  0  0  0
  -23.1678  -20.6578   21.1190 H   0  0  0  0  0  0
  -22.6679  -19.3973   20.0222 H   0  0  0  0  0  0
  -23.2506  -20.9608   19.3806 H   0  0  0  0  0  0
  -23.5664  -19.3339   17.7413 H   0  0  0  0  0  0
  -24.8706  -18.5549   16.9599 H   0  0  0  0  0  0
  -24.8590  -20.3246   17.1080 H   0  0  0  0  0  0
  -28.2354  -19.2822   15.7894 H   0  0  0  0  0  0
  -27.4824  -20.4326   16.8930 H   0  0  0  0  0  0
  -26.5143  -19.4172   15.8423 H   0  0  0  0  0  0
  -29.3152  -25.1844   16.6297 H   0  0  0  0  0  0
  -29.2334  -23.4557   16.6509 H   0  0  0  0  0  0
  -30.6506  -24.2824   17.3110 H   0  0  0  0  0  0
  -26.9678  -17.4203   17.2367 H   0  0  0  0  0  0
  -28.4428  -18.1632   17.7358 H   0  0  0  0  0  0
  -32.0400  -17.8019   19.5677 H   0  0  0  0  0  0
  -31.2327  -18.5047   20.9261 H   0  0  0  0  0  0
  -28.8909  -26.5587   18.3067 H   0  0  0  0  0  0
  -30.1355  -26.0365   19.3725 H   0  0  0  0  0  0
  -27.8199  -24.2795   18.4577 H   0  0  0  0  0  0
  -29.3772  -23.5187   20.4661 H   0  0  0  0  0  0
  -28.3939  -22.6344   19.5755 H   0  0  0  0  0  0
  1 25  1  0  0  0
  1 30  2  0  0  0
  1 92  1  0  0  0
  2  3  1  0  0  0
  2 25  1  0  0  0
  2 95  1  0  0  0
  2 96  1  0  0  0
  3  4  1  0  0  0
  3 97  1  0  0  0
  3 98  1  0  0  0
  4  5  1  0  0  0
  4 99  1  0  0  0
  4100  1  0  0  0
  5  6  1  0  0  0
  5 26  1  0  0  0
  5101  1  0  0  0
  6 25  1  0  0  0
  6102  1  0  0  0
  6103  1  0  0  0
  7  8  2  0  0  0
  7 26  1  0  0  0
  7 29  1  0  0  0
  8  9  1  0  0  0
  8 22  1  0  0  0
  9 10  1  0  0  0
  9 27  2  0  0  0
 10 11  2  0  0  0
 10 15  1  0  0  0
 11 12  1  0  0  0
 11104  1  0  0  0
 12 13  2  0  0  0
 12105  1  0  0  0
 13 14  1  0  0  0
 13 31  1  0  0  0
 14 15  2  0  0  0
 14106  1  0  0  0
 15107  1  0  0  0
 16 17  2  0  0  0
 16 21  1  0  0  0
 16 31  1  0  0  0
 17 18  1  0  0  0
 17108  1  0  0  0
 18 19  2  0  0  0
 18109  1  0  0  0
 19 20  1  0  0  0
 19 24  1  0  0  0
 20 21  2  0  0  0
 20110  1  0  0  0
 21 23  1  0  0  0
 22 28  1  0  0  0
 22 32  2  0  0  0
 26 27  1  0  0  0
 28111  1  0  0  0
 28112  1  0  0  0
 29113  1  0  0  0
 29114  1  0  0  0
 33 34  1  0  0  0
 33 66  1  0  0  0
 33 70  2  0  0  0
 34 36  1  0  0  0
 34 59  1  0  0  0
 34115  1  0  0  0
 35 44  2  0  0  0
 35 45  1  0  0  0
 35 68  1  0  0  0
 36 56  1  0  0  0
 36116  1  0  0  0
 37 39  1  0  0  0
 37 47  1  0  0  0
 37 66  1  0  0  0
 37117  1  0  0  0
 38 43  2  0  0  0
 38 46  1  0  0  0
 38 47  1  0  0  0
 39 64  1  0  0  0
 39 67  2  0  0  0
 40 52  1  0  0  0
 40 53  2  0  0  0
 40 58  1  0  0  0
 41118  1  0  0  0
 41119  1  0  0  0
 41120  1  0  0  0
 41 48  1  0  0  0
 42 43  1  0  0  0
 42 66  1  0  0  0
 42121  1  0  0  0
 42122  1  0  0  0
 43 44  1  0  0  0
 44123  1  0  0  0
 45 46  2  0  0  0
 45124  1  0  0  0
 46125  1  0  0  0
 47126  1  0  0  0
 47127  1  0  0  0
 48 56  1  0  0  0
 48 65  1  0  0  0
 48128  1  0  0  0
 49 50  1  0  0  0
 49 53  1  0  0  0
 49 64  1  0  0  0
 49129  1  0  0  0
 50 51  1  0  0  0
 50130  1  0  0  0
 50131  1  0  0  0
 51 52  1  0  0  0
 51132  1  0  0  0
 51133  1  0  0  0
 52134  1  0  0  0
 52135  1  0  0  0
 53 54  1  0  0  0
 54 55  2  0  0  0
 54136  1  0  0  0
 55 57  1  0  0  0
 55137  1  0  0  0
 56 69  2  0  0  0
 57 58  2  0  0  0
 57138  1  0  0  0
 58139  1  0  0  0
 59 60  1  0  0  0
 59 61  1  0  0  0
 59 62  1  0  0  0
 60140  1  0  0  0
 60141  1  0  0  0
 60142  1  0  0  0
 61143  1  0  0  0
 61144  1  0  0  0
 61145  1  0  0  0
 62146  1  0  0  0
 62147  1  0  0  0
 62148  1  0  0  0
 63 65  1  0  0  0
 63149  1  0  0  0
 63150  1  0  0  0
 63151  1  0  0  0
 64152  1  0  0  0
 65153  1  0  0  0
 68 90  1  0  0  0
 71 73  2  0  0  0
 71 74  1  0  0  0
 71154  1  0  0  0
 72 73  1  0  0  0
 72 75  2  0  0  0
 72 79  1  0  0  0
 73 83  1  0  0  0
 74 76  2  0  0  0
 74 84  1  0  0  0
 75 76  1  0  0  0
 75 88  1  0  0  0
 76 85  1  0  0  0
 77 80  1  0  0  0
 77 81  1  0  0  0
 77155  1  0  0  0
 77156  1  0  0  0
 78 79  1  0  0  0
 78 92  1  0  0  0
 78157  1  0  0  0
 78158  1  0  0  0
 79 82  1  0  0  0
 79159  1  0  0  0
 80 81  1  0  0  0
 80 93  1  0  0  0
 80160  1  0  0  0
 81 94  1  0  0  0
 81161  1  0  0  0
 82 89  1  0  0  0
 82 92  1  0  0  0
 82162  1  0  0  0
 83163  1  0  0  0
 83164  1  0  0  0
 83165  1  0  0  0
 84166  1  0  0  0
 84167  1  0  0  0
 84168  1  0  0  0
 85169  1  0  0  0
 85170  1  0  0  0
 85171  1  0  0  0
 86 88  1  0  0  0
 86172  1  0  0  0
 86173  1  0  0  0
 86174  1  0  0  0
 87175  1  0  0  0
 87176  1  0  0  0
 87177  1  0  0  0
 87 91  1  0  0  0
 88178  1  0  0  0
 88179  1  0  0  0
 89 94  1  0  0  0
 89180  1  0  0  0
 89181  1  0  0  0
 90 91  1  0  0  0
 90182  1  0  0  0
 90183  1  0  0  0
 91 93  1  0  0  0
 91184  1  0  0  0
 93185  1  0  0  0
 93186  1  0  0  0
M  CHG  1  93   1
M  ISO  4   1 100  68 101  90 101  92 100
M  END
> <chiral flag>
0

> <version>
0

> <s_m_source_file>
/data/baiqing/PycharmProjects/Reinvent-master-3.2/result/LINK_invent/BTK/process_docking_weight1_custom_sum_contain_oxygen_bond_distance_aromatic_linkinvent_7_9_3/rearranged_h_0148.sdf

> <i_m_source_file_index>
5

> <r_mmod_Potential_Energy-OPLS-2005>
309.971130371094

> <r_mmod_Stretch_Energy-OPLS-2005>
114.945304870605

> <r_mmod_Bend_Energy-OPLS-2005>
327.932037353516

> <r_mmod_Torsional_Energy-OPLS-2005>
363.784484863281

> <r_mmod_Improper_Torsional_Energy-OPLS-2005>
11.8640041351318

> <r_mmod_Van_der_Waal_Energy-OPLS-2005>
172.951690673828

> <r_mmod_Electrostatic_Energy-OPLS-2005>
-331.362579345703

> <r_mmod_Solvation_Energy-OPLS-2005>
-431.108489990234

> <b_mmod_Minimization_Converged-OPLS-2005>
0

> <r_mmod_RMS_Derivative-OPLS-2005>
13.1068706512451

$$$$
5
                    3D
 Structure written by MMmdl.
173182  0  0  1  0            999 V2000
  -30.6741  -14.7089   20.5416 C   0  0  0  0  0  0
  -30.4653  -12.4625   19.4428 C   0  0  0  0  0  0
  -29.5144  -12.5635   18.2183 C   0  0  0  0  0  0
  -28.0313  -12.4056   18.6209 C   0  0  0  0  0  0
  -27.6647  -13.2397   19.8807 C   0  0  2  0  0  0
  -28.7282  -13.0870   20.9987 C   0  0  0  0  0  0
  -25.2508  -13.8178   20.5797 C   0  0  0  0  0  0
  -24.1811  -13.0387   20.9252 C   0  0  0  0  0  0
  -24.6450  -11.6905   20.8838 C   0  0  0  0  0  0
  -23.9096  -10.4282   21.0388 C   0  0  0  0  0  0
  -24.3603   -9.4194   21.9143 C   0  0  0  0  0  0
  -23.6243   -8.2247   22.0761 C   0  0  0  0  0  0
  -22.4238   -8.0273   21.3547 C   0  0  0  0  0  0
  -21.9878   -9.0261   20.4643 C   0  0  0  0  0  0
  -22.7262  -10.2105   20.3036 C   0  0  0  0  0  0
  -21.6817   -6.0747   22.5312 C   0  0  0  0  0  0
  -21.3965   -6.5626   23.8253 C   0  0  0  0  0  0
  -21.3658   -5.6767   24.9203 C   0  0  0  0  0  0
  -21.6055   -4.3047   24.7248 C   0  0  0  0  0  0
  -21.8776   -3.8160   23.4364 C   0  0  0  0  0  0
  -21.9162   -4.6976   22.3437 C   0  0  0  0  0  0
  -22.7802  -13.5180   21.1851 C   0  0  0  0  0  0
  -22.1622   -4.2172   21.1013 F   0  0  0  0  0  0
  -21.5636   -3.4522   25.7742 F   0  0  0  0  0  0
  -30.0423  -13.4752   20.4472 N   0  0  0  0  0  0
  -26.3066  -12.9475   20.3500 N   0  0  0  0  0  0
  -25.9405  -11.6627   20.5955 N   0  0  0  0  0  0
  -22.0388  -12.8289   22.0420 N   0  0  0  0  0  0
  -25.4001  -15.1877   20.4170 N   0  0  0  0  0  0
  -31.7383  -14.8978   19.9591 O   0  0  0  0  0  0
  -21.6584   -6.8898   21.4267 O   0  0  0  0  0  0
  -22.3494  -14.5487   20.6655 O   0  0  0  0  0  0
  -24.6370  -31.8548   23.1837 C   0  0  0  0  0  0
  -25.9168  -32.4714   23.8248 C   0  0  1  0  0  0
  -27.2381  -27.1997   20.1748 C   0  0  0  0  0  0
  -25.5924  -33.8494   24.2194 N   0  0  0  0  0  0
  -23.4391  -30.4611   21.5346 C   0  0  2  0  0  0
  -24.8942  -28.8906   20.1181 C   0  0  0  0  0  0
  -22.7547  -29.4546   22.4908 C   0  0  0  0  0  0
  -18.0369  -28.1383   22.8454 C   0  0  0  0  0  0
  -24.1505  -36.7270   23.2658 C   0  0  0  0  0  0
  -25.9922  -30.7423   21.3798 C   0  0  0  0  0  0
  -26.0659  -29.3579   20.7233 C   0  0  0  0  0  0
  -27.2419  -28.5292   20.7313 C   0  0  0  0  0  0
  -26.0411  -26.8100   19.5352 C   0  0  0  0  0  0
  -24.8856  -27.6222   19.5133 C   0  0  0  0  0  0
  -23.6594  -29.7715   20.1636 C   0  0  0  0  0  0
  -25.4176  -36.3045   24.0320 C   0  0  1  0  0  0
  -20.5982  -28.3537   23.1145 C   0  0  2  0  0  0
  -20.6798  -26.9338   22.5313 C   0  0  0  0  0  0
  -19.5824  -26.6347   21.5085 C   0  0  0  0  0  0
  -18.2002  -26.8013   22.1423 C   0  0  0  0  0  0
  -19.1636  -28.8713   23.2943 C   0  0  0  0  0  0
  -18.9656  -30.1320   23.8904 C   0  0  0  0  0  0
  -17.6714  -30.6678   24.0492 C   0  0  0  0  0  0
  -25.9137  -34.9417   23.5097 C   0  0  0  0  0  0
  -16.5539  -29.9336   23.6140 C   0  0  0  0  0  0
  -16.7451  -28.6704   23.0120 C   0  0  0  0  0  0
  -26.4469  -31.6570   25.0688 C   0  0  0  0  0  0
  -25.3600  -31.3773   26.1319 C   0  0  0  0  0  0
  -27.0358  -30.2968   24.6342 C   0  0  0  0  0  0
  -27.5998  -32.4309   25.7535 C   0  0  0  0  0  0
  -27.5607  -37.1797   24.8474 C   0  0  0  0  0  0
  -21.4236  -29.2931   22.3540 N   0  0  0  0  0  0
  -26.4343  -37.3758   23.9383 N   0  0  0  0  0  0
  -24.7048  -31.0434   22.0842 N   0  0  0  0  0  0
  -23.4243  -28.8198   23.3078 O   0  0  0  0  0  0
  -28.3317  -26.2821   20.2116 O   0  0  0  0  0  0
  -26.5687  -34.8914   22.4640 O   0  0  0  0  0  0
  -23.5497  -32.1354   23.7093 O   0  0  0  0  0  0
  -29.9203  -18.3011   20.7316 C   0  0  0  0  0  0
  -28.1376  -16.8999   21.6030 C   0  0  0  0  0  0
  -29.0070  -19.4496   20.6089 C   0  0  0  0  0  0
  -27.6404  -19.1723   20.8622 C   0  0  0  0  0  0
  -29.4612  -16.9702   21.1476 C   0  0  0  0  0  0
  -27.2520  -17.9833   21.5148 C   0  0  0  0  0  0
  -27.0008  -20.5540   18.8195 C   0  0  0  0  0  0
  -28.5292  -20.8587   18.6549 C   0  0  0  0  0  0
  -26.5397  -19.9980   20.2013 C   0  0  2  0  0  0
  -29.3071  -20.8977   19.9778 C   0  0  1  0  0  0
  -24.2537  -20.8209   21.0539 C   0  0  0  0  0  0
  -28.0465  -24.9146   22.2066 C   0  0  0  0  0  0
  -26.0204  -17.8987   23.4587 C   0  0  0  0  0  0
  -25.7904  -21.0052   21.1153 C   0  0  0  0  0  0
  -29.1673  -23.6196   20.2632 C   0  0  0  0  0  0
  -28.1424  -24.8358   20.6695 C   0  0  2  0  0  0
  -30.1462  -15.6731   21.3735 N   0  0  0  0  0  0
  -28.8609  -22.1669   20.7418 N   0  3  0  0  0  0
  -25.9991  -17.8432   22.0325 O   0  0  0  0  0  0
  -31.5012  -12.6059   19.1160 H   0  0  0  0  0  0
  -30.4401  -11.4604   19.8747 H   0  0  0  0  0  0
  -29.7862  -11.8161   17.4742 H   0  0  0  0  0  0
  -29.6405  -13.5329   17.7365 H   0  0  0  0  0  0
  -27.8596  -11.3467   18.8238 H   0  0  0  0  0  0
  -27.3768  -12.6959   17.7936 H   0  0  0  0  0  0
  -27.6766  -14.2889   19.5865 H   0  0  0  0  0  0
  -28.7478  -12.0496   21.3303 H   0  0  0  0  0  0
  -28.4785  -13.6703   21.8847 H   0  0  0  0  0  0
  -25.2752   -9.5655   22.4722 H   0  0  0  0  0  0
  -23.9960   -7.4633   22.7474 H   0  0  0  0  0  0
  -21.0824   -8.8782   19.8936 H   0  0  0  0  0  0
  -22.3734  -10.9630   19.6152 H   0  0  0  0  0  0
  -21.1904   -7.6117   23.9771 H   0  0  0  0  0  0
  -21.1533   -6.0493   25.9118 H   0  0  0  0  0  0
  -22.0551   -2.7617   23.2875 H   0  0  0  0  0  0
  -22.3938  -12.0022   22.5060 H   0  0  0  0  0  0
  -21.0917  -13.1311   22.2367 H   0  0  0  0  0  0
  -24.6261  -15.8265   20.5869 H   0  0  0  0  0  0
  -26.2544  -15.6701   20.1668 H   0  0  0  0  0  0
  -26.7251  -32.5331   23.1019 H   0  0  0  0  0  0
  -24.9824  -33.9595   25.0183 H   0  0  0  0  0  0
  -22.7375  -31.2769   21.3657 H   0  0  0  0  0  0
  -23.3753  -35.9598   23.3334 H   0  0  0  0  0  0
  -24.3593  -36.8894   22.2057 H   0  0  0  0  0  0
  -23.7240  -37.6490   23.6676 H   0  0  0  0  0  0
  -26.1630  -31.5066   20.6210 H   0  0  0  0  0  0
  -26.8569  -30.7788   22.0297 H   0  0  0  0  0  0
  -28.1488  -28.8906   21.1956 H   0  0  0  0  0  0
  -25.9779  -25.8518   19.0453 H   0  0  0  0  0  0
  -23.9860  -27.2522   19.0465 H   0  0  0  0  0  0
  -23.7537  -30.5204   19.3790 H   0  0  0  0  0  0
  -22.7865  -29.1771   19.8840 H   0  0  0  0  0  0
  -25.1345  -36.1898   25.0804 H   0  0  0  0  0  0
  -21.0186  -28.2905   24.1209 H   0  0  0  0  0  0
  -20.5637  -26.2195   23.3519 H   0  0  0  0  0  0
  -21.6736  -26.7560   22.1126 H   0  0  0  0  0  0
  -19.6896  -25.6244   21.1171 H   0  0  0  0  0  0
  -19.6694  -27.3222   20.6611 H   0  0  0  0  0  0
  -17.4498  -26.6935   21.3582 H   0  0  0  0  0  0
  -18.0078  -26.0000   22.8604 H   0  0  0  0  0  0
  -19.8258  -30.6910   24.2348 H   0  0  0  0  0  0
  -17.5371  -31.6311   24.5222 H   0  0  0  0  0  0
  -15.5631  -30.3503   23.7320 H   0  0  0  0  0  0
  -15.8931  -28.1263   22.6376 H   0  0  0  0  0  0
  -24.5808  -30.7152   25.7557 H   0  0  0  0  0  0
  -24.8719  -32.2928   26.4640 H   0  0  0  0  0  0
  -25.7730  -30.8953   27.0171 H   0  0  0  0  0  0
  -26.2992  -29.6716   24.1287 H   0  0  0  0  0  0
  -27.3876  -29.7276   25.4966 H   0  0  0  0  0  0
  -27.8923  -30.4243   23.9725 H   0  0  0  0  0  0
  -27.2617  -33.3628   26.2091 H   0  0  0  0  0  0
  -28.3841  -32.6857   25.0389 H   0  0  0  0  0  0
  -28.0640  -31.8428   26.5490 H   0  0  0  0  0  0
  -28.2642  -38.0085   24.7527 H   0  0  0  0  0  0
  -28.1082  -36.2607   24.6300 H   0  0  0  0  0  0
  -27.2282  -37.1426   25.8870 H   0  0  0  0  0  0
  -20.9509  -29.8570   21.6647 H   0  0  0  0  0  0
  -26.0211  -38.2841   24.1310 H   0  0  0  0  0  0
  -30.9583  -18.4206   20.4712 H   0  0  0  0  0  0
  -27.7679  -15.9795   22.0278 H   0  0  0  0  0  0
  -26.7752  -19.7707   18.0930 H   0  0  0  0  0  0
  -26.3715  -21.3890   18.5020 H   0  0  0  0  0  0
  -28.7200  -21.7474   18.0528 H   0  0  0  0  0  0
  -28.9470  -20.0454   18.0649 H   0  0  0  0  0  0
  -25.7895  -19.2483   19.9443 H   0  0  0  0  0  0
  -30.3867  -20.9850   19.8002 H   0  0  0  0  0  0
  -23.8840  -20.6743   20.0303 H   0  0  0  0  0  0
  -23.7307  -21.6907   21.4681 H   0  0  0  0  0  0
  -23.9645  -19.9384   21.6310 H   0  0  0  0  0  0
  -28.8316  -25.5535   22.6162 H   0  0  0  0  0  0
  -28.1434  -23.9470   22.7067 H   0  0  0  0  0  0
  -27.0967  -25.3563   22.5009 H   0  0  0  0  0  0
  -26.6638  -17.1333   23.8906 H   0  0  0  0  0  0
  -25.0235  -17.7344   23.8585 H   0  0  0  0  0  0
  -26.3840  -18.8693   23.7986 H   0  0  0  0  0  0
  -26.0791  -20.8937   22.1644 H   0  0  0  0  0  0
  -26.0429  -22.0257   20.8281 H   0  0  0  0  0  0
  -30.1583  -23.8699   20.6416 H   0  0  0  0  0  0
  -29.2900  -23.6107   19.1790 H   0  0  0  0  0  0
  -27.1776  -24.4857   20.3055 H   0  0  0  0  0  0
  -29.6575  -15.1735   22.0991 H   0  0  0  0  0  0
  -29.2400  -22.0719   21.6699 H   0  0  0  0  0  0
  -27.8597  -22.0724   20.8263 H   0  0  0  0  0  0
  1 25  1  0  0  0
  1 30  2  0  0  0
  1 87  1  0  0  0
  2  3  1  0  0  0
  2 25  1  0  0  0
  2 90  1  0  0  0
  2 91  1  0  0  0
  3  4  1  0  0  0
  3 92  1  0  0  0
  3 93  1  0  0  0
  4  5  1  0  0  0
  4 94  1  0  0  0
  4 95  1  0  0  0
  5  6  1  0  0  0
  5 26  1  0  0  0
  5 96  1  0  0  0
  6 25  1  0  0  0
  6 97  1  0  0  0
  6 98  1  0  0  0
  7  8  2  0  0  0
  7 26  1  0  0  0
  7 29  1  0  0  0
  8  9  1  0  0  0
  8 22  1  0  0  0
  9 10  1  0  0  0
  9 27  2  0  0  0
 10 11  2  0  0  0
 10 15  1  0  0  0
 11 12  1  0  0  0
 11 99  1  0  0  0
 12 13  2  0  0  0
 12100  1  0  0  0
 13 14  1  0  0  0
 13 31  1  0  0  0
 14 15  2  0  0  0
 14101  1  0  0  0
 15102  1  0  0  0
 16 17  2  0  0  0
 16 21  1  0  0  0
 16 31  1  0  0  0
 17 18  1  0  0  0
 17103  1  0  0  0
 18 19  2  0  0  0
 18104  1  0  0  0
 19 20  1  0  0  0
 19 24  1  0  0  0
 20 21  2  0  0  0
 20105  1  0  0  0
 21 23  1  0  0  0
 22 28  1  0  0  0
 22 32  2  0  0  0
 26 27  1  0  0  0
 28106  1  0  0  0
 28107  1  0  0  0
 29108  1  0  0  0
 29109  1  0  0  0
 33 34  1  0  0  0
 33 66  1  0  0  0
 33 70  2  0  0  0
 34 36  1  0  0  0
 34 59  1  0  0  0
 34110  1  0  0  0
 35 44  2  0  0  0
 35 45  1  0  0  0
 35 68  1  0  0  0
 36 56  1  0  0  0
 36111  1  0  0  0
 37 39  1  0  0  0
 37 47  1  0  0  0
 37 66  1  0  0  0
 37112  1  0  0  0
 38 43  2  0  0  0
 38 46  1  0  0  0
 38 47  1  0  0  0
 39 64  1  0  0  0
 39 67  2  0  0  0
 40 52  1  0  0  0
 40 53  2  0  0  0
 40 58  1  0  0  0
 41113  1  0  0  0
 41114  1  0  0  0
 41115  1  0  0  0
 41 48  1  0  0  0
 42 43  1  0  0  0
 42 66  1  0  0  0
 42116  1  0  0  0
 42117  1  0  0  0
 43 44  1  0  0  0
 44118  1  0  0  0
 45 46  2  0  0  0
 45119  1  0  0  0
 46120  1  0  0  0
 47121  1  0  0  0
 47122  1  0  0  0
 48 56  1  0  0  0
 48 65  1  0  0  0
 48123  1  0  0  0
 49 50  1  0  0  0
 49 53  1  0  0  0
 49 64  1  0  0  0
 49124  1  0  0  0
 50 51  1  0  0  0
 50125  1  0  0  0
 50126  1  0  0  0
 51 52  1  0  0  0
 51127  1  0  0  0
 51128  1  0  0  0
 52129  1  0  0  0
 52130  1  0  0  0
 53 54  1  0  0  0
 54 55  2  0  0  0
 54131  1  0  0  0
 55 57  1  0  0  0
 55132  1  0  0  0
 56 69  2  0  0  0
 57 58  2  0  0  0
 57133  1  0  0  0
 58134  1  0  0  0
 59 60  1  0  0  0
 59 61  1  0  0  0
 59 62  1  0  0  0
 60135  1  0  0  0
 60136  1  0  0  0
 60137  1  0  0  0
 61138  1  0  0  0
 61139  1  0  0  0
 61140  1  0  0  0
 62141  1  0  0  0
 62142  1  0  0  0
 62143  1  0  0  0
 63 65  1  0  0  0
 63144  1  0  0  0
 63145  1  0  0  0
 63146  1  0  0  0
 64147  1  0  0  0
 65148  1  0  0  0
 68 86  1  0  0  0
 71 73  2  0  0  0
 71 75  1  0  0  0
 71149  1  0  0  0
 72 75  2  0  0  0
 72 76  1  0  0  0
 72150  1  0  0  0
 73 74  1  0  0  0
 73 80  1  0  0  0
 74 76  2  0  0  0
 74 79  1  0  0  0
 75 87  1  0  0  0
 76 89  1  0  0  0
 77 78  1  0  0  0
 77 79  1  0  0  0
 77151  1  0  0  0
 77152  1  0  0  0
 78 80  1  0  0  0
 78153  1  0  0  0
 78154  1  0  0  0
 79 84  1  0  0  0
 79155  1  0  0  0
 80 88  1  0  0  0
 80156  1  0  0  0
 81 84  1  0  0  0
 81157  1  0  0  0
 81158  1  0  0  0
 81159  1  0  0  0
 82160  1  0  0  0
 82161  1  0  0  0
 82162  1  0  0  0
 82 86  1  0  0  0
 83 89  1  0  0  0
 83163  1  0  0  0
 83164  1  0  0  0
 83165  1  0  0  0
 84166  1  0  0  0
 84167  1  0  0  0
 85 86  1  0  0  0
 85 88  1  0  0  0
 85168  1  0  0  0
 85169  1  0  0  0
 86170  1  0  0  0
 87171  1  0  0  0
 88172  1  0  0  0
 88173  1  0  0  0
M  CHG  1  88   1
M  ISO  4   1 100  68 101  86 101  87 100
M  END
> <chiral flag>
0

> <version>
0

> <s_m_source_file>
/data/baiqing/PycharmProjects/Reinvent-master-3.2/result/LINK_invent/BTK/process_docking_weight1_custom_sum_contain_oxygen_bond_distance_aromatic_linkinvent_7_9_3/rearranged_h_0148.sdf

> <i_m_source_file_index>
6

> <r_mmod_Potential_Energy-OPLS-2005>
244.842178344727

> <r_mmod_Stretch_Energy-OPLS-2005>
159.263946533203

> <r_mmod_Bend_Energy-OPLS-2005>
243.849960327148

> <r_mmod_Torsional_Energy-OPLS-2005>
375.387298583984

> <r_mmod_Improper_Torsional_Energy-OPLS-2005>
10.3925466537476

> <r_mmod_Van_der_Waal_Energy-OPLS-2005>
124.597755432129

> <r_mmod_Electrostatic_Energy-OPLS-2005>
-331.727233886719

> <r_mmod_Solvation_Energy-OPLS-2005>
-431.165222167969

> <b_mmod_Minimization_Converged-OPLS-2005>
0

> <r_mmod_RMS_Derivative-OPLS-2005>
13.3268022537231

$$$$
6
                    3D
 Structure written by MMmdl.
173182  0  0  1  0            999 V2000
  -31.3666  -14.5575   20.6591 C   0  0  0  0  0  0
  -31.0912  -12.4084   19.3827 C   0  0  0  0  0  0
  -30.4032  -12.8062   18.1088 C   0  0  0  0  0  0
  -29.0664  -13.4420   18.3066 C   0  0  0  0  0  0
  -28.3981  -14.2834   19.6572 C   0  0  2  0  0  0
  -29.4692  -13.3616   20.6517 C   0  0  0  0  0  0
  -24.6169  -14.4689   21.0343 C   0  0  0  0  0  0
  -23.8112  -13.4006   21.3882 C   0  0  0  0  0  0
  -24.3381  -12.1367   21.0560 C   0  0  0  0  0  0
  -23.8135  -10.6866   21.0942 C   0  0  0  0  0  0
  -24.2896   -9.6654   21.9757 C   0  0  0  0  0  0
  -23.6600   -8.3875   22.0974 C   0  0  0  0  0  0
  -22.4911   -8.0964   21.3569 C   0  0  0  0  0  0
  -22.0265   -9.0864   20.4746 C   0  0  0  0  0  0
  -22.6839  -10.3298   20.3280 C   0  0  0  0  0  0
  -21.7451   -6.0926   22.5119 C   0  0  0  0  0  0
  -21.4489   -6.5825   23.8001 C   0  0  0  0  0  0
  -21.3724   -5.6976   24.8942 C   0  0  0  0  0  0
  -21.5991   -4.3205   24.7072 C   0  0  0  0  0  0
  -21.8812   -3.8250   23.4220 C   0  0  0  0  0  0
  -21.9431   -4.7069   22.3279 C   0  0  0  0  0  0
  -22.3845  -13.6206   21.4427 C   0  0  0  0  0  0
  -22.1911   -4.2187   21.0898 F   0  0  0  0  0  0
  -21.5446   -3.4714   25.7623 F   0  0  0  0  0  0
  -30.7761  -13.3976   20.4070 N   0  0  0  0  0  0
  -25.5387  -14.0650   20.2124 N   0  0  0  0  0  0
  -24.7952  -12.7318   19.9917 N   0  0  0  0  0  0
  -21.7158  -12.8123   22.2361 N   0  0  0  0  0  0
  -24.5409  -15.8137   21.1057 N   0  0  0  0  0  0
  -32.1815  -14.9884   19.8663 O   0  0  0  0  0  0
  -21.7686   -6.9167   21.4092 O   0  0  0  0  0  0
  -21.8875  -14.5060   20.7572 O   0  0  0  0  0  0
  -24.7389  -31.7310   23.1119 C   0  0  0  0  0  0
  -25.9721  -32.4113   23.7839 C   0  0  1  0  0  0
  -26.8517  -26.0309   20.2154 C   0  0  0  0  0  0
  -25.6048  -33.7995   24.1635 N   0  0  0  0  0  0
  -23.5648  -30.3403   21.4844 C   0  0  2  0  0  0
  -24.9401  -28.5709   20.0927 C   0  0  0  0  0  0
  -22.7933  -29.4003   22.4548 C   0  0  0  0  0  0
  -18.0349  -28.1436   22.8435 C   0  0  0  0  0  0
  -24.1496  -36.7013   23.2661 C   0  0  0  0  0  0
  -26.1553  -30.2170   21.4689 C   0  0  0  0  0  0
  -26.1303  -28.7285   20.8034 C   0  0  0  0  0  0
  -27.0737  -27.4937   20.8233 C   0  0  0  0  0  0
  -25.7161  -26.2624   19.3997 C   0  0  0  0  0  0
  -24.8154  -27.3813   19.3559 C   0  0  0  0  0  0
  -23.8177  -29.6375   20.1182 C   0  0  0  0  0  0
  -25.4169  -36.2717   24.0245 C   0  0  1  0  0  0
  -20.5984  -28.3805   23.1057 C   0  0  2  0  0  0
  -20.6772  -26.9423   22.5418 C   0  0  0  0  0  0
  -19.5756  -26.6339   21.5219 C   0  0  0  0  0  0
  -18.1941  -26.7964   22.1617 C   0  0  0  0  0  0
  -19.1622  -28.8950   23.2712 C   0  0  0  0  0  0
  -18.9535  -30.1512   23.8791 C   0  0  0  0  0  0
  -17.6519  -30.6598   24.0547 C   0  0  0  0  0  0
  -25.9195  -34.9119   23.4831 C   0  0  0  0  0  0
  -16.5400  -29.9082   23.6337 C   0  0  0  0  0  0
  -16.7331  -28.6499   23.0372 C   0  0  0  0  0  0
  -26.4677  -31.6439   25.0726 C   0  0  0  0  0  0
  -25.3591  -31.3942   26.1242 C   0  0  0  0  0  0
  -27.0693  -30.2721   24.7096 C   0  0  0  0  0  0
  -27.6027  -32.4474   25.7521 C   0  0  0  0  0  0
  -27.5582  -37.1629   24.8437 C   0  0  0  0  0  0
  -21.4533  -29.2981   22.3329 N   0  0  0  0  0  0
  -26.4233  -37.3564   23.9453 N   0  0  0  0  0  0
  -24.8575  -30.8155   22.0710 N   0  0  0  0  0  0
  -23.4176  -28.7626   23.3068 O   0  0  0  0  0  0
  -27.4546  -24.4384   20.2455 O   0  0  0  0  0  0
  -26.5932  -34.8815   22.4517 O   0  0  0  0  0  0
  -23.6318  -32.0743   23.5698 O   0  0  0  0  0  0
  -26.6148  -15.2639   18.5028 C   0  0  0  0  0  0
  -26.6708  -13.3988   18.4338 C   0  0  0  0  0  0
  -27.1513  -12.4905   20.1207 C   0  0  0  0  0  0
  -26.9100  -16.3815   19.8665 C   0  0  0  0  0  0
  -27.2700  -13.7398   21.5820 C   0  0  0  0  0  0
  -25.9196  -11.3450   16.8062 C   0  0  0  0  0  0
  -26.7165  -12.3355   15.9760 C   0  0  0  0  0  0
  -25.9935  -12.7946   17.2159 C   0  0  0  0  0  0
  -27.7895  -10.5211   21.8084 C   0  0  0  0  0  0
  -28.2043  -10.1670   19.3857 C   0  0  0  0  0  0
  -29.6425  -14.5795   23.8188 C   0  0  0  0  0  0
  -30.2420  -15.5381   22.7316 C   0  0  0  0  0  0
  -28.0881  -14.3392   23.7851 C   0  0  0  0  0  0
  -26.9389  -22.4477   20.0997 C   0  0  0  0  0  0
  -27.2952  -20.1688   20.1142 C   0  0  0  0  0  0
  -27.3168  -10.9480   20.3705 C   0  0  0  0  0  0
  -27.1789  -15.4726   21.2771 N   0  0  0  0  0  0
  -31.3752  -15.0243   21.9271 N   0  0  0  0  0  0
  -26.8073  -18.2050   19.7495 O   0  0  0  0  0  0
  -27.5727  -13.3531   22.8687 O   0  0  0  0  0  0
  -32.1677  -12.3776   19.2258 H   0  0  0  0  0  0
  -30.8601  -11.3935   19.6989 H   0  0  0  0  0  0
  -30.3742  -11.9613   17.4078 H   0  0  0  0  0  0
  -31.0637  -13.5197   17.6188 H   0  0  0  0  0  0
  -28.6378  -12.4701   18.1209 H   0  0  0  0  0  0
  -28.8987  -14.0426   17.4084 H   0  0  0  0  0  0
  -28.8721  -15.2669   19.5884 H   0  0  0  0  0  0
  -29.3207  -12.2995   20.6669 H   0  0  0  0  0  0
  -29.4927  -13.4799   21.7105 H   0  0  0  0  0  0
  -25.0825   -9.9074   22.6589 H   0  0  0  0  0  0
  -24.0413   -7.6699   22.8128 H   0  0  0  0  0  0
  -21.1187   -8.8998   19.9181 H   0  0  0  0  0  0
  -22.2487  -11.0728   19.6812 H   0  0  0  0  0  0
  -21.2845   -7.6401   23.9507 H   0  0  0  0  0  0
  -21.1351   -6.0747   25.8799 H   0  0  0  0  0  0
  -22.0422   -2.7679   23.2700 H   0  0  0  0  0  0
  -22.1967  -12.1232   22.7932 H   0  0  0  0  0  0
  -20.7178  -12.9144   22.3294 H   0  0  0  0  0  0
  -25.5263  -15.9937   21.3235 H   0  0  0  0  0  0
  -24.4361  -16.1503   20.1566 H   0  0  0  0  0  0
  -26.7892  -32.4421   23.0597 H   0  0  0  0  0  0
  -24.9983  -33.8951   24.9650 H   0  0  0  0  0  0
  -22.9258  -31.2017   21.2832 H   0  0  0  0  0  0
  -23.3846  -35.9236   23.3096 H   0  0  0  0  0  0
  -24.3580  -36.8946   22.2125 H   0  0  0  0  0  0
  -23.7123  -37.6051   23.6928 H   0  0  0  0  0  0
  -26.4630  -30.8967   20.6717 H   0  0  0  0  0  0
  -26.9855  -30.2431   22.1611 H   0  0  0  0  0  0
  -27.9616  -27.6027   21.4312 H   0  0  0  0  0  0
  -25.4077  -25.4117   18.8079 H   0  0  0  0  0  0
  -23.9414  -27.2645   18.7313 H   0  0  0  0  0  0
  -24.0837  -30.3935   19.3812 H   0  0  0  0  0  0
  -22.8927  -29.1887   19.7552 H   0  0  0  0  0  0
  -25.1375  -36.1400   25.0725 H   0  0  0  0  0  0
  -21.0073  -28.3464   24.1175 H   0  0  0  0  0  0
  -20.5560  -26.2456   23.3729 H   0  0  0  0  0  0
  -21.6638  -26.7265   22.1279 H   0  0  0  0  0  0
  -19.6914  -25.6209   21.1329 H   0  0  0  0  0  0
  -19.6720  -27.3075   20.6692 H   0  0  0  0  0  0
  -17.4221  -26.6696   21.4014 H   0  0  0  0  0  0
  -18.0319  -26.0120   22.9031 H   0  0  0  0  0  0
  -19.8001  -30.7351   24.2144 H   0  0  0  0  0  0
  -17.5060  -31.6286   24.5176 H   0  0  0  0  0  0
  -15.5390  -30.2980   23.7712 H   0  0  0  0  0  0
  -15.8720  -28.0798   22.7162 H   0  0  0  0  0  0
  -24.5827  -30.7219   25.7548 H   0  0  0  0  0  0
  -24.8714  -32.3213   26.4292 H   0  0  0  0  0  0
  -25.7645  -30.9367   27.0280 H   0  0  0  0  0  0
  -26.3443  -29.6081   24.2376 H   0  0  0  0  0  0
  -27.4109  -29.7525   25.6061 H   0  0  0  0  0  0
  -27.9456  -30.3705   24.0687 H   0  0  0  0  0  0
  -27.2496  -33.3931   26.1666 H   0  0  0  0  0  0
  -28.4003  -32.6805   25.0446 H   0  0  0  0  0  0
  -28.0517  -31.8928   26.5774 H   0  0  0  0  0  0
  -28.2406  -38.0108   24.7699 H   0  0  0  0  0  0
  -28.1269  -36.2651   24.5976 H   0  0  0  0  0  0
  -27.2350  -37.0896   25.8836 H   0  0  0  0  0  0
  -20.9923  -29.8677   21.6359 H   0  0  0  0  0  0
  -26.0007  -38.2562   24.1590 H   0  0  0  0  0  0
  -26.3266  -15.7576   17.5868 H   0  0  0  0  0  0
  -26.4660  -10.5937   17.3426 H   0  0  0  0  0  0
  -24.9732  -10.9963   16.4002 H   0  0  0  0  0  0
  -26.2961  -12.6644   15.0272 H   0  0  0  0  0  0
  -27.7922  -12.1929   15.9904 H   0  0  0  0  0  0
  -25.0565  -13.3288   17.0687 H   0  0  0  0  0  0
  -28.0831   -9.4693   21.8398 H   0  0  0  0  0  0
  -27.0202  -10.5935   22.5686 H   0  0  0  0  0  0
  -28.6759  -11.0363   22.1827 H   0  0  0  0  0  0
  -28.1755  -10.4929   18.3577 H   0  0  0  0  0  0
  -27.9247   -9.1116   19.3890 H   0  0  0  0  0  0
  -29.2411  -10.1850   19.6938 H   0  0  0  0  0  0
  -29.8378  -15.0500   24.7848 H   0  0  0  0  0  0
  -30.1922  -13.6342   23.8594 H   0  0  0  0  0  0
  -30.6479  -16.4055   23.2495 H   0  0  0  0  0  0
  -29.4767  -15.9472   22.0794 H   0  0  0  0  0  0
  -27.8213  -13.8953   24.7407 H   0  0  0  0  0  0
  -27.5388  -15.2822   23.7638 H   0  0  0  0  0  0
  -26.2280  -22.4630   20.9255 H   0  0  0  0  0  0
  -26.3018  -22.5233   19.2208 H   0  0  0  0  0  0
  -27.7490  -20.0363   21.0925 H   0  0  0  0  0  0
  -28.1544  -20.1782   19.4420 H   0  0  0  0  0  0
  -26.3214  -10.5500   20.2335 H   0  0  0  0  0  0
  -32.1867  -15.6190   22.0340 H   0  0  0  0  0  0
  1 25  1  0  0  0
  1 30  2  0  0  0
  1 88  1  0  0  0
  2  3  1  0  0  0
  2 25  1  0  0  0
  2 91  1  0  0  0
  2 92  1  0  0  0
  3  4  1  0  0  0
  3 93  1  0  0  0
  3 94  1  0  0  0
  4  5  1  0  0  0
  4 95  1  0  0  0
  4 96  1  0  0  0
  5  6  1  0  0  0
  5 26  1  0  0  0
  5 97  1  0  0  0
  6 25  1  0  0  0
  6 98  1  0  0  0
  6 99  1  0  0  0
  7  8  2  0  0  0
  7 26  1  0  0  0
  7 29  1  0  0  0
  8  9  1  0  0  0
  8 22  1  0  0  0
  9 10  1  0  0  0
  9 27  2  0  0  0
 10 11  2  0  0  0
 10 15  1  0  0  0
 11 12  1  0  0  0
 11100  1  0  0  0
 12 13  2  0  0  0
 12101  1  0  0  0
 13 14  1  0  0  0
 13 31  1  0  0  0
 14 15  2  0  0  0
 14102  1  0  0  0
 15103  1  0  0  0
 16 17  2  0  0  0
 16 21  1  0  0  0
 16 31  1  0  0  0
 17 18  1  0  0  0
 17104  1  0  0  0
 18 19  2  0  0  0
 18105  1  0  0  0
 19 20  1  0  0  0
 19 24  1  0  0  0
 20 21  2  0  0  0
 20106  1  0  0  0
 21 23  1  0  0  0
 22 28  1  0  0  0
 22 32  2  0  0  0
 26 27  1  0  0  0
 28107  1  0  0  0
 28108  1  0  0  0
 29109  1  0  0  0
 29110  1  0  0  0
 33 34  1  0  0  0
 33 66  1  0  0  0
 33 70  2  0  0  0
 34 36  1  0  0  0
 34 59  1  0  0  0
 34111  1  0  0  0
 35 44  2  0  0  0
 35 45  1  0  0  0
 35 68  1  0  0  0
 36 56  1  0  0  0
 36112  1  0  0  0
 37 39  1  0  0  0
 37 47  1  0  0  0
 37 66  1  0  0  0
 37113  1  0  0  0
 38 43  2  0  0  0
 38 46  1  0  0  0
 38 47  1  0  0  0
 39 64  1  0  0  0
 39 67  2  0  0  0
 40 52  1  0  0  0
 40 53  2  0  0  0
 40 58  1  0  0  0
 41114  1  0  0  0
 41115  1  0  0  0
 41116  1  0  0  0
 41 48  1  0  0  0
 42 43  1  0  0  0
 42 66  1  0  0  0
 42117  1  0  0  0
 42118  1  0  0  0
 43 44  1  0  0  0
 44119  1  0  0  0
 45 46  2  0  0  0
 45120  1  0  0  0
 46121  1  0  0  0
 47122  1  0  0  0
 47123  1  0  0  0
 48 56  1  0  0  0
 48 65  1  0  0  0
 48124  1  0  0  0
 49 50  1  0  0  0
 49 53  1  0  0  0
 49 64  1  0  0  0
 49125  1  0  0  0
 50 51  1  0  0  0
 50126  1  0  0  0
 50127  1  0  0  0
 51 52  1  0  0  0
 51128  1  0  0  0
 51129  1  0  0  0
 52130  1  0  0  0
 52131  1  0  0  0
 53 54  1  0  0  0
 54 55  2  0  0  0
 54132  1  0  0  0
 55 57  1  0  0  0
 55133  1  0  0  0
 56 69  2  0  0  0
 57 58  2  0  0  0
 57134  1  0  0  0
 58135  1  0  0  0
 59 60  1  0  0  0
 59 61  1  0  0  0
 59 62  1  0  0  0
 60136  1  0  0  0
 60137  1  0  0  0
 60138  1  0  0  0
 61139  1  0  0  0
 61140  1  0  0  0
 61141  1  0  0  0
 62142  1  0  0  0
 62143  1  0  0  0
 62144  1  0  0  0
 63 65  1  0  0  0
 63145  1  0  0  0
 63146  1  0  0  0
 63147  1  0  0  0
 64148  1  0  0  0
 65149  1  0  0  0
 68 84  1  0  0  0
 71 72  2  0  0  0
 71 74  1  0  0  0
 71150  1  0  0  0
 72 73  1  0  0  0
 72 78  1  0  0  0
 73 75  2  0  0  0
 73 86  1  0  0  0
 74 87  2  0  0  0
 74 89  1  0  0  0
 75 87  1  0  0  0
 75 90  1  0  0  0
 76 77  1  0  0  0
 76 78  1  0  0  0
 76151  1  0  0  0
 76152  1  0  0  0
 77 78  1  0  0  0
 77153  1  0  0  0
 77154  1  0  0  0
 78155  1  0  0  0
 79156  1  0  0  0
 79157  1  0  0  0
 79158  1  0  0  0
 79 86  1  0  0  0
 80 86  1  0  0  0
 80159  1  0  0  0
 80160  1  0  0  0
 80161  1  0  0  0
 81 82  1  0  0  0
 81 83  1  0  0  0
 81162  1  0  0  0
 81163  1  0  0  0
 82 88  1  0  0  0
 82164  1  0  0  0
 82165  1  0  0  0
 83 90  1  0  0  0
 83166  1  0  0  0
 83167  1  0  0  0
 84 85  1  0  0  0
 84168  1  0  0  0
 84169  1  0  0  0
 85 89  1  0  0  0
 85170  1  0  0  0
 85171  1  0  0  0
 86172  1  0  0  0
 88173  1  0  0  0
M  ISO  4   1 100  68 101  84 101  88 100
M  END
> <chiral flag>
0

> <version>
0

> <s_m_source_file>
/data/baiqing/PycharmProjects/Reinvent-master-3.2/result/LINK_invent/BTK/process_docking_weight1_custom_sum_contain_oxygen_bond_distance_aromatic_linkinvent_7_9_3/rearranged_h_0148.sdf

> <i_m_source_file_index>
7

> <r_mmod_Potential_Energy-OPLS-2005>
15167.7275390625

> <r_mmod_Stretch_Energy-OPLS-2005>
8316.4208984375

> <r_mmod_Bend_Energy-OPLS-2005>
1355.55712890625

> <r_mmod_Torsional_Energy-OPLS-2005>
527.067504882812

> <r_mmod_Improper_Torsional_Energy-OPLS-2005>
57.1702537536621

> <r_mmod_Van_der_Waal_Energy-OPLS-2005>
2724.62255859375

> <r_mmod_Electrostatic_Energy-OPLS-2005>
-538.301086425781

> <r_mmod_Solvation_Energy-OPLS-2005>
-220.259582519531

> <b_mmod_Minimization_Converged-OPLS-2005>
0

> <r_mmod_RMS_Derivative-OPLS-2005>
17.2353992462158

$$$$
7
                    3D
 Structure written by MMmdl.
164173  0  0  1  0            999 V2000
  -30.5150  -14.9829   20.4262 C   0  0  0  0  0  0
  -30.4405  -12.6166   19.4911 C   0  0  0  0  0  0
  -29.5198  -12.5312   18.2519 C   0  0  0  0  0  0
  -28.0549  -12.3095   18.6729 C   0  0  0  0  0  0
  -27.6240  -13.2475   19.8303 C   0  0  2  0  0  0
  -28.6659  -13.2874   20.9658 C   0  0  0  0  0  0
  -25.2440  -13.8215   20.5698 C   0  0  0  0  0  0
  -24.1765  -13.0441   20.9232 C   0  0  0  0  0  0
  -24.6381  -11.6925   20.8755 C   0  0  0  0  0  0
  -23.9064  -10.4298   21.0402 C   0  0  0  0  0  0
  -24.3619   -9.4216   21.9181 C   0  0  0  0  0  0
  -23.6299   -8.2248   22.0743 C   0  0  0  0  0  0
  -22.4282   -8.0274   21.3530 C   0  0  0  0  0  0
  -21.9912   -9.0246   20.4636 C   0  0  0  0  0  0
  -22.7236  -10.2131   20.3052 C   0  0  0  0  0  0
  -21.6857   -6.0735   22.5274 C   0  0  0  0  0  0
  -21.4021   -6.5640   23.8208 C   0  0  0  0  0  0
  -21.3661   -5.6791   24.9170 C   0  0  0  0  0  0
  -21.6050   -4.3053   24.7222 C   0  0  0  0  0  0
  -21.8820   -3.8142   23.4343 C   0  0  0  0  0  0
  -21.9196   -4.6963   22.3399 C   0  0  0  0  0  0
  -22.7783  -13.5207   21.1891 C   0  0  0  0  0  0
  -22.1662   -4.2150   21.0974 F   0  0  0  0  0  0
  -21.5632   -3.4533   25.7734 F   0  0  0  0  0  0
  -29.9304  -13.7173   20.3584 N   0  0  0  0  0  0
  -26.2853  -12.9443   20.3200 N   0  0  0  0  0  0
  -25.9307  -11.6574   20.5712 N   0  0  0  0  0  0
  -22.0436  -12.8194   22.0448 N   0  0  0  0  0  0
  -25.4098  -15.1947   20.4120 N   0  0  0  0  0  0
  -31.7316  -15.0450   20.2176 O   0  0  0  0  0  0
  -21.6639   -6.8875   21.4235 O   0  0  0  0  0  0
  -22.3466  -14.5506   20.6724 O   0  0  0  0  0  0
  -24.6447  -31.8414   23.1818 C   0  0  0  0  0  0
  -25.9204  -32.4677   23.8228 C   0  0  1  0  0  0
  -27.2263  -27.1038   20.1841 C   0  0  0  0  0  0
  -25.5935  -33.8487   24.2147 N   0  0  0  0  0  0
  -23.4498  -30.4539   21.5294 C   0  0  2  0  0  0
  -24.8981  -28.8548   20.1281 C   0  0  0  0  0  0
  -22.7566  -29.4532   22.4869 C   0  0  0  0  0  0
  -18.0299  -28.1396   22.8479 C   0  0  0  0  0  0
  -24.1486  -36.7251   23.2643 C   0  0  0  0  0  0
  -26.0042  -30.7057   21.3800 C   0  0  0  0  0  0
  -26.0745  -29.3061   20.7389 C   0  0  0  0  0  0
  -27.2396  -28.4508   20.7359 C   0  0  0  0  0  0
  -26.0193  -26.7398   19.5550 C   0  0  0  0  0  0
  -24.8830  -27.5853   19.5216 C   0  0  0  0  0  0
  -23.6790  -29.7664   20.1554 C   0  0  0  0  0  0
  -25.4122  -36.3024   24.0311 C   0  0  1  0  0  0
  -20.5911  -28.3726   23.1242 C   0  0  2  0  0  0
  -20.6787  -26.9429   22.5416 C   0  0  0  0  0  0
  -19.5761  -26.6382   21.5223 C   0  0  0  0  0  0
  -18.1940  -26.7934   22.1626 C   0  0  0  0  0  0
  -19.1555  -28.8877   23.2852 C   0  0  0  0  0  0
  -18.9477  -30.1472   23.8880 C   0  0  0  0  0  0
  -17.6474  -30.6594   24.0559 C   0  0  0  0  0  0
  -25.9078  -34.9402   23.5045 C   0  0  0  0  0  0
  -16.5363  -29.9093   23.6329 C   0  0  0  0  0  0
  -16.7284  -28.6507   23.0355 C   0  0  0  0  0  0
  -26.4521  -31.6559   25.0683 C   0  0  0  0  0  0
  -25.3700  -31.3772   26.1375 C   0  0  0  0  0  0
  -27.0388  -30.2951   24.6278 C   0  0  0  0  0  0
  -27.6038  -32.4335   25.7475 C   0  0  0  0  0  0
  -27.5572  -37.1784   24.8464 C   0  0  0  0  0  0
  -21.4256  -29.3049   22.3616 N   0  0  0  0  0  0
  -26.4282  -37.3746   23.9408 N   0  0  0  0  0  0
  -24.7200  -31.0239   22.0859 N   0  0  0  0  0  0
  -23.4198  -28.8104   23.3047 O   0  0  0  0  0  0
  -28.3623  -26.2216   20.0898 O   0  0  0  0  0  0
  -26.5682  -34.8905   22.4637 O   0  0  0  0  0  0
  -23.5561  -32.1298   23.7026 O   0  0  0  0  0  0
  -30.2847  -22.6416   23.1175 C   0  0  0  0  0  0
  -30.4226  -20.4009   22.2176 C   0  0  0  0  0  0
  -29.4669  -23.0030   22.0419 C   0  0  0  0  0  0
  -29.1220  -22.1043   20.9892 C   0  0  0  0  0  0
  -29.5480  -20.6281   21.1167 C   0  0  0  0  0  0
  -30.8030  -21.3414   23.1869 C   0  0  0  0  0  0
  -28.9575  -24.4531   21.9554 C   0  0  0  0  0  0
  -28.3691  -23.1424   19.9766 C   0  0  1  0  0  0
  -28.6358  -24.7204   20.4904 C   0  0  1  0  0  0
  -28.8035  -22.9720   18.5152 C   0  0  0  0  0  0
  -29.3226  -19.2639   18.8584 C   0  0  0  0  0  0
  -32.1508  -21.8518   25.1114 C   0  0  0  0  0  0
  -30.0581  -17.6951   20.8465 C   0  0  0  0  0  0
  -29.2480  -19.1502   20.3813 C   0  0  1  0  0  0
  -29.7225  -16.1696   20.5333 N   0  0  0  0  0  0
  -31.6637  -20.9029   24.1700 O   0  0  0  0  0  0
  -31.4690  -12.7957   19.1730 H   0  0  0  0  0  0
  -30.4553  -11.6706   20.0348 H   0  0  0  0  0  0
  -29.8462  -11.7280   17.5893 H   0  0  0  0  0  0
  -29.5987  -13.4550   17.6760 H   0  0  0  0  0  0
  -27.9571  -11.2702   18.9885 H   0  0  0  0  0  0
  -27.3907  -12.4307   17.8158 H   0  0  0  0  0  0
  -27.5815  -14.2462   19.3953 H   0  0  0  0  0  0
  -28.7662  -12.3133   21.4472 H   0  0  0  0  0  0
  -28.3590  -13.9902   21.7418 H   0  0  0  0  0  0
  -25.2766   -9.5703   22.4753 H   0  0  0  0  0  0
  -24.0017   -7.4642   22.7460 H   0  0  0  0  0  0
  -21.0842   -8.8764   19.8940 H   0  0  0  0  0  0
  -22.3688  -10.9669   19.6159 H   0  0  0  0  0  0
  -21.2007   -7.6144   23.9716 H   0  0  0  0  0  0
  -21.1486   -6.0512   25.9075 H   0  0  0  0  0  0
  -22.0595   -2.7602   23.2836 H   0  0  0  0  0  0
  -22.4064  -11.9875   22.4869 H   0  0  0  0  0  0
  -21.1039  -13.1196   22.2623 H   0  0  0  0  0  0
  -24.6367  -15.8431   20.5193 H   0  0  0  0  0  0
  -26.2442  -15.6352   20.0489 H   0  0  0  0  0  0
  -26.7275  -32.5283   23.0959 H   0  0  0  0  0  0
  -25.0039  -33.9599   25.0265 H   0  0  0  0  0  0
  -22.7541  -31.2797   21.3657 H   0  0  0  0  0  0
  -23.3755  -35.9577   23.3296 H   0  0  0  0  0  0
  -24.3560  -36.8902   22.2059 H   0  0  0  0  0  0
  -23.7239  -37.6440   23.6699 H   0  0  0  0  0  0
  -26.1553  -31.4502   20.5967 H   0  0  0  0  0  0
  -26.8763  -30.7672   22.0196 H   0  0  0  0  0  0
  -28.1524  -28.8104   21.1897 H   0  0  0  0  0  0
  -25.9561  -25.7727   19.0765 H   0  0  0  0  0  0
  -23.9839  -27.2334   19.0348 H   0  0  0  0  0  0
  -23.8229  -30.5318   19.3922 H   0  0  0  0  0  0
  -22.7924  -29.2105   19.8459 H   0  0  0  0  0  0
  -25.1315  -36.1842   25.0807 H   0  0  0  0  0  0
  -20.9995  -28.3316   24.1364 H   0  0  0  0  0  0
  -20.5686  -26.2341   23.3638 H   0  0  0  0  0  0
  -21.6656  -26.7443   22.1212 H   0  0  0  0  0  0
  -19.6929  -25.6289   21.1266 H   0  0  0  0  0  0
  -19.6693  -27.3177   20.6741 H   0  0  0  0  0  0
  -17.4215  -26.6676   21.4023 H   0  0  0  0  0  0
  -18.0332  -26.0085   22.9028 H   0  0  0  0  0  0
  -19.7958  -30.7289   24.2244 H   0  0  0  0  0  0
  -17.5032  -31.6272   24.5166 H   0  0  0  0  0  0
  -15.5363  -30.2993   23.7665 H   0  0  0  0  0  0
  -15.8682  -28.0820   22.7084 H   0  0  0  0  0  0
  -24.5866  -30.7131   25.7700 H   0  0  0  0  0  0
  -24.8902  -32.2970   26.4738 H   0  0  0  0  0  0
  -25.7970  -30.8983   27.0196 H   0  0  0  0  0  0
  -26.3010  -29.6665   24.1279 H   0  0  0  0  0  0
  -27.3989  -29.7258   25.4858 H   0  0  0  0  0  0
  -27.8919  -30.4174   23.9599 H   0  0  0  0  0  0
  -27.2614  -33.3656   26.1979 H   0  0  0  0  0  0
  -28.3888  -32.6868   25.0340 H   0  0  0  0  0  0
  -28.0657  -31.8514   26.5457 H   0  0  0  0  0  0
  -28.2588  -38.0082   24.7511 H   0  0  0  0  0  0
  -28.1069  -36.2616   24.6291 H   0  0  0  0  0  0
  -27.2291  -37.1430   25.8866 H   0  0  0  0  0  0
  -20.9477  -29.8737   21.6767 H   0  0  0  0  0  0
  -26.0142  -38.2812   24.1416 H   0  0  0  0  0  0
  -30.5277  -23.3893   23.8590 H   0  0  0  0  0  0
  -30.8651  -19.4369   22.3840 H   0  0  0  0  0  0
  -29.7079  -25.1520   22.3260 H   0  0  0  0  0  0
  -28.0662  -24.5658   22.5727 H   0  0  0  0  0  0
  -27.2999  -22.9395   20.0466 H   0  0  0  0  0  0
  -29.6521  -24.7882   20.0987 H   0  0  0  0  0  0
  -29.8850  -23.0513   18.4104 H   0  0  0  0  0  0
  -28.3518  -23.7403   17.8875 H   0  0  0  0  0  0
  -28.4953  -22.0135   18.1095 H   0  0  0  0  0  0
  -28.5489  -19.9246   18.4775 H   0  0  0  0  0  0
  -29.1632  -18.2937   18.3871 H   0  0  0  0  0  0
  -30.2949  -19.6364   18.5360 H   0  0  0  0  0  0
  -32.8748  -21.3697   25.7683 H   0  0  0  0  0  0
  -31.3488  -22.2415   25.7387 H   0  0  0  0  0  0
  -32.6594  -22.6823   24.6200 H   0  0  0  0  0  0
  -29.9906  -17.6559   21.9330 H   0  0  0  0  0  0
  -31.1183  -17.8251   20.6264 H   0  0  0  0  0  0
  -28.2002  -18.9653   20.6214 H   0  0  0  0  0  0
  -28.7351  -15.9675   20.5670 H   0  0  0  0  0  0
  1 25  1  0  0  0
  1 30  2  0  0  0
  1 85  1  0  0  0
  2  3  1  0  0  0
  2 25  1  0  0  0
  2 87  1  0  0  0
  2 88  1  0  0  0
  3  4  1  0  0  0
  3 89  1  0  0  0
  3 90  1  0  0  0
  4  5  1  0  0  0
  4 91  1  0  0  0
  4 92  1  0  0  0
  5  6  1  0  0  0
  5 26  1  0  0  0
  5 93  1  0  0  0
  6 25  1  0  0  0
  6 94  1  0  0  0
  6 95  1  0  0  0
  7  8  2  0  0  0
  7 26  1  0  0  0
  7 29  1  0  0  0
  8  9  1  0  0  0
  8 22  1  0  0  0
  9 10  1  0  0  0
  9 27  2  0  0  0
 10 11  2  0  0  0
 10 15  1  0  0  0
 11 12  1  0  0  0
 11 96  1  0  0  0
 12 13  2  0  0  0
 12 97  1  0  0  0
 13 14  1  0  0  0
 13 31  1  0  0  0
 14 15  2  0  0  0
 14 98  1  0  0  0
 15 99  1  0  0  0
 16 17  2  0  0  0
 16 21  1  0  0  0
 16 31  1  0  0  0
 17 18  1  0  0  0
 17100  1  0  0  0
 18 19  2  0  0  0
 18101  1  0  0  0
 19 20  1  0  0  0
 19 24  1  0  0  0
 20 21  2  0  0  0
 20102  1  0  0  0
 21 23  1  0  0  0
 22 28  1  0  0  0
 22 32  2  0  0  0
 26 27  1  0  0  0
 28103  1  0  0  0
 28104  1  0  0  0
 29105  1  0  0  0
 29106  1  0  0  0
 33 34  1  0  0  0
 33 66  1  0  0  0
 33 70  2  0  0  0
 34 36  1  0  0  0
 34 59  1  0  0  0
 34107  1  0  0  0
 35 44  2  0  0  0
 35 45  1  0  0  0
 35 68  1  0  0  0
 36 56  1  0  0  0
 36108  1  0  0  0
 37 39  1  0  0  0
 37 47  1  0  0  0
 37 66  1  0  0  0
 37109  1  0  0  0
 38 43  2  0  0  0
 38 46  1  0  0  0
 38 47  1  0  0  0
 39 64  1  0  0  0
 39 67  2  0  0  0
 40 52  1  0  0  0
 40 53  2  0  0  0
 40 58  1  0  0  0
 41110  1  0  0  0
 41111  1  0  0  0
 41112  1  0  0  0
 41 48  1  0  0  0
 42 43  1  0  0  0
 42 66  1  0  0  0
 42113  1  0  0  0
 42114  1  0  0  0
 43 44  1  0  0  0
 44115  1  0  0  0
 45 46  2  0  0  0
 45116  1  0  0  0
 46117  1  0  0  0
 47118  1  0  0  0
 47119  1  0  0  0
 48 56  1  0  0  0
 48 65  1  0  0  0
 48120  1  0  0  0
 49 50  1  0  0  0
 49 53  1  0  0  0
 49 64  1  0  0  0
 49121  1  0  0  0
 50 51  1  0  0  0
 50122  1  0  0  0
 50123  1  0  0  0
 51 52  1  0  0  0
 51124  1  0  0  0
 51125  1  0  0  0
 52126  1  0  0  0
 52127  1  0  0  0
 53 54  1  0  0  0
 54 55  2  0  0  0
 54128  1  0  0  0
 55 57  1  0  0  0
 55129  1  0  0  0
 56 69  2  0  0  0
 57 58  2  0  0  0
 57130  1  0  0  0
 58131  1  0  0  0
 59 60  1  0  0  0
 59 61  1  0  0  0
 59 62  1  0  0  0
 60132  1  0  0  0
 60133  1  0  0  0
 60134  1  0  0  0
 61135  1  0  0  0
 61136  1  0  0  0
 61137  1  0  0  0
 62138  1  0  0  0
 62139  1  0  0  0
 62140  1  0  0  0
 63 65  1  0  0  0
 63141  1  0  0  0
 63142  1  0  0  0
 63143  1  0  0  0
 64144  1  0  0  0
 65145  1  0  0  0
 68 79  1  0  0  0
 71 73  2  0  0  0
 71 76  1  0  0  0
 71146  1  0  0  0
 72 75  1  0  0  0
 72 76  2  0  0  0
 72147  1  0  0  0
 73 74  1  0  0  0
 73 77  1  0  0  0
 74 75  2  0  0  0
 74 78  1  0  0  0
 75 84  1  0  0  0
 76 86  1  0  0  0
 77 79  1  0  0  0
 77148  1  0  0  0
 77149  1  0  0  0
 78 79  1  0  0  0
 78 80  1  0  0  0
 78150  1  0  0  0
 79151  1  0  0  0
 80152  1  0  0  0
 80153  1  0  0  0
 80154  1  0  0  0
 81155  1  0  0  0
 81156  1  0  0  0
 81157  1  0  0  0
 81 84  1  0  0  0
 82 86  1  0  0  0
 82158  1  0  0  0
 82159  1  0  0  0
 82160  1  0  0  0
 83 84  1  0  0  0
 83 85  1  0  0  0
 83161  1  0  0  0
 83162  1  0  0  0
 84163  1  0  0  0
 85164  1  0  0  0
M  ISO  4   1 100  68 101  79 101  85 100
M  END
> <chiral flag>
0

> <version>
0

> <s_m_source_file>
/data/baiqing/PycharmProjects/Reinvent-master-3.2/result/LINK_invent/BTK/process_docking_weight1_custom_sum_contain_oxygen_bond_distance_aromatic_linkinvent_7_9_3/rearranged_h_0148.sdf

> <i_m_source_file_index>
8

> <r_mmod_Potential_Energy-OPLS-2005>
770.818725585938

> <r_mmod_Stretch_Energy-OPLS-2005>
320.938201904297

> <r_mmod_Bend_Energy-OPLS-2005>
497.167419433594

> <r_mmod_Torsional_Energy-OPLS-2005>
233.362762451172

> <r_mmod_Improper_Torsional_Energy-OPLS-2005>
5.1439003944397

> <r_mmod_Van_der_Waal_Energy-OPLS-2005>
132.068222045898

> <r_mmod_Electrostatic_Energy-OPLS-2005>
-407.628845214844

> <r_mmod_Solvation_Energy-OPLS-2005>
-215.1943359375

> <b_mmod_Minimization_Converged-OPLS-2005>
0

> <r_mmod_RMS_Derivative-OPLS-2005>
1.269451379776

$$$$
8
                    3D
 Structure written by MMmdl.
170179  0  0  1  0            999 V2000
  -30.7549  -14.4564   20.6259 C   0  0  0  0  0  0
  -30.4239  -12.3232   19.4144 C   0  0  0  0  0  0
  -29.4913  -12.5192   18.2039 C   0  0  0  0  0  0
  -28.0172  -12.3629   18.6228 C   0  0  0  0  0  0
  -27.6630  -13.2025   19.8769 C   0  0  2  0  0  0
  -28.7113  -13.0044   20.9982 C   0  0  0  0  0  0
  -25.2552  -13.8106   20.5658 C   0  0  0  0  0  0
  -24.1817  -13.0398   20.9179 C   0  0  0  0  0  0
  -24.6383  -11.6879   20.8751 C   0  0  0  0  0  0
  -23.9038  -10.4273   21.0419 C   0  0  0  0  0  0
  -24.3596   -9.4200   21.9198 C   0  0  0  0  0  0
  -23.6274   -8.2235   22.0754 C   0  0  0  0  0  0
  -22.4250   -8.0277   21.3549 C   0  0  0  0  0  0
  -21.9880   -9.0247   20.4647 C   0  0  0  0  0  0
  -22.7216  -10.2123   20.3056 C   0  0  0  0  0  0
  -21.6842   -6.0737   22.5275 C   0  0  0  0  0  0
  -21.4017   -6.5637   23.8210 C   0  0  0  0  0  0
  -21.3648   -5.6782   24.9165 C   0  0  0  0  0  0
  -21.6042   -4.3044   24.7210 C   0  0  0  0  0  0
  -21.8826   -3.8142   23.4330 C   0  0  0  0  0  0
  -21.9187   -4.6965   22.3391 C   0  0  0  0  0  0
  -22.7846  -13.5223   21.1834 C   0  0  0  0  0  0
  -22.1649   -4.2156   21.0965 F   0  0  0  0  0  0
  -21.5624   -3.4526   25.7719 F   0  0  0  0  0  0
  -30.0473  -13.3026   20.4481 N   0  0  0  0  0  0
  -26.3025  -12.9300   20.3389 N   0  0  0  0  0  0
  -25.9316  -11.6462   20.5801 N   0  0  0  0  0  0
  -22.0474  -12.8224   22.0396 N   0  0  0  0  0  0
  -25.4167  -15.1805   20.3999 N   0  0  0  0  0  0
  -31.8110  -14.6892   20.0295 O   0  0  0  0  0  0
  -21.6623   -6.8872   21.4234 O   0  0  0  0  0  0
  -22.3560  -14.5546   20.6690 O   0  0  0  0  0  0
  -24.6179  -31.8671   23.2107 C   0  0  0  0  0  0
  -25.9067  -32.4823   23.8410 C   0  0  1  0  0  0
  -27.2392  -27.4165   20.0770 C   0  0  0  0  0  0
  -25.5912  -33.8623   24.2337 N   0  0  0  0  0  0
  -23.4067  -30.4931   21.5514 C   0  0  2  0  0  0
  -24.8510  -28.9609   20.1131 C   0  0  0  0  0  0
  -22.7428  -29.4664   22.4975 C   0  0  0  0  0  0
  -18.0274  -28.1386   22.8499 C   0  0  0  0  0  0
  -24.1480  -36.7311   23.2644 C   0  0  0  0  0  0
  -25.9398  -30.8232   21.3698 C   0  0  0  0  0  0
  -26.0132  -29.4576   20.7139 C   0  0  0  0  0  0
  -27.2032  -28.6897   20.7005 C   0  0  0  0  0  0
  -26.0452  -26.9396   19.4804 C   0  0  0  0  0  0
  -24.8626  -27.7000   19.4983 C   0  0  0  0  0  0
  -23.6156  -29.8308   20.1643 C   0  0  0  0  0  0
  -25.4104  -36.3116   24.0346 C   0  0  1  0  0  0
  -20.5874  -28.3681   23.1303 C   0  0  2  0  0  0
  -20.6767  -26.9410   22.5418 C   0  0  0  0  0  0
  -19.5737  -26.6385   21.5226 C   0  0  0  0  0  0
  -18.1914  -26.7937   22.1625 C   0  0  0  0  0  0
  -19.1529  -28.8849   23.2901 C   0  0  0  0  0  0
  -18.9455  -30.1456   23.8915 C   0  0  0  0  0  0
  -17.6454  -30.6593   24.0573 C   0  0  0  0  0  0
  -25.9037  -34.9482   23.5140 C   0  0  0  0  0  0
  -16.5344  -29.9098   23.6328 C   0  0  0  0  0  0
  -16.7263  -28.6511   23.0358 C   0  0  0  0  0  0
  -26.4481  -31.6609   25.0749 C   0  0  0  0  0  0
  -25.3740  -31.3716   26.1493 C   0  0  0  0  0  0
  -27.0324  -30.3053   24.6142 C   0  0  0  0  0  0
  -27.6045  -32.4342   25.7515 C   0  0  0  0  0  0
  -27.5581  -37.1809   24.8467 C   0  0  0  0  0  0
  -21.4152  -29.3052   22.3711 N   0  0  0  0  0  0
  -26.4291  -37.3800   23.9415 N   0  0  0  0  0  0
  -24.6734  -31.0759   22.1019 N   0  0  0  0  0  0
  -23.4190  -28.8198   23.3024 O   0  0  0  0  0  0
  -28.4207  -26.6867   20.1140 O   0  0  0  0  0  0
  -26.5589  -34.8931   22.4695 O   0  0  0  0  0  0
  -23.5364  -32.1434   23.7483 O   0  0  0  0  0  0
  -29.6149  -19.8763   21.6461 C   0  0  0  0  0  0
  -28.0938  -21.4876   22.6054 C   0  0  0  0  0  0
  -28.9962  -18.8720   22.4412 C   0  0  0  0  0  0
  -29.1541  -21.2229   21.7091 C   0  0  0  0  0  0
  -27.9311  -19.2816   23.2855 C   0  0  0  0  0  0
  -30.8360  -15.5162   22.8041 C   0  0  0  0  0  0
  -29.4169  -17.3839   22.4052 C   0  0  2  0  0  0
  -30.6181  -16.9746   23.2533 C   0  0  1  0  0  0
  -29.8047  -16.7327   21.0664 C   0  0  2  0  0  0
  -27.1460  -18.3260   24.1703 C   0  0  0  0  0  0
  -30.4783  -17.1265   24.7740 C   0  0  0  0  0  0
  -28.6862  -16.7677   20.0186 C   0  0  0  0  0  0
  -29.6073  -24.4995   19.7332 C   0  0  0  0  0  0
  -28.9596  -23.4995   20.7193 C   0  0  0  0  0  0
  -28.6340  -25.5882   19.2051 C   0  0  0  0  0  0
  -27.5025  -20.5537   23.3666 N   0  0  0  0  0  0
  -30.2274  -15.3719   21.4714 N   0  0  0  0  0  0
  -29.7181  -22.2487   20.9112 N   0  0  0  0  0  0
  -31.4658  -12.4218   19.1052 H   0  0  0  0  0  0
  -30.3318  -11.3107   19.8098 H   0  0  0  0  0  0
  -29.7362  -11.7974   17.4237 H   0  0  0  0  0  0
  -29.6505  -13.5069   17.7673 H   0  0  0  0  0  0
  -27.8387  -11.3050   18.8221 H   0  0  0  0  0  0
  -27.3604  -12.6293   17.7941 H   0  0  0  0  0  0
  -27.6949  -14.2428   19.5643 H   0  0  0  0  0  0
  -28.6906  -11.9741   21.3567 H   0  0  0  0  0  0
  -28.4634  -13.6198   21.8635 H   0  0  0  0  0  0
  -25.2743   -9.5676   22.4771 H   0  0  0  0  0  0
  -23.9993   -7.4608   22.7440 H   0  0  0  0  0  0
  -21.0813   -8.8747   19.8940 H   0  0  0  0  0  0
  -22.3677  -10.9652   19.6149 H   0  0  0  0  0  0
  -21.2018   -7.6146   23.9732 H   0  0  0  0  0  0
  -21.1465   -6.0494   25.9066 H   0  0  0  0  0  0
  -22.0623   -2.7609   23.2807 H   0  0  0  0  0  0
  -22.4077  -11.9856   22.4733 H   0  0  0  0  0  0
  -21.1123  -13.1293   22.2662 H   0  0  0  0  0  0
  -24.6468  -15.8321   20.5024 H   0  0  0  0  0  0
  -26.2585  -15.6114   20.0406 H   0  0  0  0  0  0
  -26.7141  -32.5519   23.1172 H   0  0  0  0  0  0
  -25.0090  -33.9780   25.0504 H   0  0  0  0  0  0
  -22.6977  -31.3120   21.4136 H   0  0  0  0  0  0
  -23.3751  -35.9633   23.3301 H   0  0  0  0  0  0
  -24.3580  -36.8929   22.2059 H   0  0  0  0  0  0
  -23.7210  -37.6508   23.6658 H   0  0  0  0  0  0
  -26.0599  -31.5890   20.6024 H   0  0  0  0  0  0
  -26.8257  -30.8723   21.9914 H   0  0  0  0  0  0
  -28.0986  -29.0718   21.1714 H   0  0  0  0  0  0
  -25.9687  -25.9769   19.0045 H   0  0  0  0  0  0
  -23.9670  -27.3078   19.0361 H   0  0  0  0  0  0
  -23.7265  -30.6087   19.4076 H   0  0  0  0  0  0
  -22.7385  -29.2539   19.8655 H   0  0  0  0  0  0
  -25.1282  -36.1986   25.0840 H   0  0  0  0  0  0
  -20.9969  -28.3252   24.1424 H   0  0  0  0  0  0
  -20.5672  -26.2298   23.3620 H   0  0  0  0  0  0
  -21.6633  -26.7451   22.1201 H   0  0  0  0  0  0
  -19.6890  -25.6292   21.1263 H   0  0  0  0  0  0
  -19.6682  -27.3196   20.6758 H   0  0  0  0  0  0
  -17.4194  -26.6715   21.4013 H   0  0  0  0  0  0
  -18.0283  -26.0069   22.9004 H   0  0  0  0  0  0
  -19.7935  -30.7272   24.2288 H   0  0  0  0  0  0
  -17.5012  -31.6282   24.5162 H   0  0  0  0  0  0
  -15.5348  -30.3014   23.7637 H   0  0  0  0  0  0
  -15.8659  -28.0838   22.7070 H   0  0  0  0  0  0
  -24.5910  -30.7065   25.7830 H   0  0  0  0  0  0
  -24.8937  -32.2873   26.4954 H   0  0  0  0  0  0
  -25.8090  -30.8878   27.0248 H   0  0  0  0  0  0
  -26.2880  -29.6807   24.1188 H   0  0  0  0  0  0
  -27.4085  -29.7297   25.4609 H   0  0  0  0  0  0
  -27.8717  -30.4380   23.9311 H   0  0  0  0  0  0
  -27.2652  -33.3632   26.2110 H   0  0  0  0  0  0
  -28.3846  -32.6922   25.0341 H   0  0  0  0  0  0
  -28.0723  -31.8464   26.5422 H   0  0  0  0  0  0
  -28.2599  -38.0109   24.7536 H   0  0  0  0  0  0
  -28.1081  -36.2646   24.6271 H   0  0  0  0  0  0
  -27.2307  -37.1430   25.8871 H   0  0  0  0  0  0
  -20.9306  -29.8812   21.6965 H   0  0  0  0  0  0
  -26.0186  -38.2878   24.1425 H   0  0  0  0  0  0
  -30.4255  -19.6124   20.9829 H   0  0  0  0  0  0
  -27.6814  -22.4774   22.7282 H   0  0  0  0  0  0
  -30.3393  -14.8167   23.4785 H   0  0  0  0  0  0
  -31.8992  -15.2667   22.8084 H   0  0  0  0  0  0
  -28.5631  -16.8036   22.7555 H   0  0  0  0  0  0
  -31.4748  -17.5720   22.9347 H   0  0  0  0  0  0
  -30.6749  -17.2394   20.6438 H   0  0  0  0  0  0
  -26.5665  -17.6278   23.5661 H   0  0  0  0  0  0
  -26.4425  -18.8611   24.8088 H   0  0  0  0  0  0
  -27.8017  -17.7588   24.8264 H   0  0  0  0  0  0
  -29.6701  -16.5105   25.1685 H   0  0  0  0  0  0
  -30.2851  -18.1624   25.0531 H   0  0  0  0  0  0
  -31.3946  -16.8172   25.2770 H   0  0  0  0  0  0
  -27.7717  -16.3477   20.4260 H   0  0  0  0  0  0
  -28.9559  -16.2223   19.1134 H   0  0  0  0  0  0
  -28.4644  -17.7933   19.7219 H   0  0  0  0  0  0
  -29.9592  -23.9415   18.8648 H   0  0  0  0  0  0
  -30.4934  -24.9604   20.1705 H   0  0  0  0  0  0
  -27.9626  -23.2409   20.3570 H   0  0  0  0  0  0
  -28.8253  -24.0097   21.6753 H   0  0  0  0  0  0
  -27.7354  -25.0612   18.9034 H   0  0  0  0  0  0
  -29.0479  -26.0143   18.2904 H   0  0  0  0  0  0
  -30.3782  -21.9780   20.1846 H   0  0  0  0  0  0
  1 25  1  0  0  0
  1 30  2  0  0  0
  1 87  1  0  0  0
  2  3  1  0  0  0
  2 25  1  0  0  0
  2 89  1  0  0  0
  2 90  1  0  0  0
  3  4  1  0  0  0
  3 91  1  0  0  0
  3 92  1  0  0  0
  4  5  1  0  0  0
  4 93  1  0  0  0
  4 94  1  0  0  0
  5  6  1  0  0  0
  5 26  1  0  0  0
  5 95  1  0  0  0
  6 25  1  0  0  0
  6 96  1  0  0  0
  6 97  1  0  0  0
  7  8  2  0  0  0
  7 26  1  0  0  0
  7 29  1  0  0  0
  8  9  1  0  0  0
  8 22  1  0  0  0
  9 10  1  0  0  0
  9 27  2  0  0  0
 10 11  2  0  0  0
 10 15  1  0  0  0
 11 12  1  0  0  0
 11 98  1  0  0  0
 12 13  2  0  0  0
 12 99  1  0  0  0
 13 14  1  0  0  0
 13 31  1  0  0  0
 14 15  2  0  0  0
 14100  1  0  0  0
 15101  1  0  0  0
 16 17  2  0  0  0
 16 21  1  0  0  0
 16 31  1  0  0  0
 17 18  1  0  0  0
 17102  1  0  0  0
 18 19  2  0  0  0
 18103  1  0  0  0
 19 20  1  0  0  0
 19 24  1  0  0  0
 20 21  2  0  0  0
 20104  1  0  0  0
 21 23  1  0  0  0
 22 28  1  0  0  0
 22 32  2  0  0  0
 26 27  1  0  0  0
 28105  1  0  0  0
 28106  1  0  0  0
 29107  1  0  0  0
 29108  1  0  0  0
 33 34  1  0  0  0
 33 66  1  0  0  0
 33 70  2  0  0  0
 34 36  1  0  0  0
 34 59  1  0  0  0
 34109  1  0  0  0
 35 44  2  0  0  0
 35 45  1  0  0  0
 35 68  1  0  0  0
 36 56  1  0  0  0
 36110  1  0  0  0
 37 39  1  0  0  0
 37 47  1  0  0  0
 37 66  1  0  0  0
 37111  1  0  0  0
 38 43  2  0  0  0
 38 46  1  0  0  0
 38 47  1  0  0  0
 39 64  1  0  0  0
 39 67  2  0  0  0
 40 52  1  0  0  0
 40 53  2  0  0  0
 40 58  1  0  0  0
 41112  1  0  0  0
 41113  1  0  0  0
 41114  1  0  0  0
 41 48  1  0  0  0
 42 43  1  0  0  0
 42 66  1  0  0  0
 42115  1  0  0  0
 42116  1  0  0  0
 43 44  1  0  0  0
 44117  1  0  0  0
 45 46  2  0  0  0
 45118  1  0  0  0
 46119  1  0  0  0
 47120  1  0  0  0
 47121  1  0  0  0
 48 56  1  0  0  0
 48 65  1  0  0  0
 48122  1  0  0  0
 49 50  1  0  0  0
 49 53  1  0  0  0
 49 64  1  0  0  0
 49123  1  0  0  0
 50 51  1  0  0  0
 50124  1  0  0  0
 50125  1  0  0  0
 51 52  1  0  0  0
 51126  1  0  0  0
 51127  1  0  0  0
 52128  1  0  0  0
 52129  1  0  0  0
 53 54  1  0  0  0
 54 55  2  0  0  0
 54130  1  0  0  0
 55 57  1  0  0  0
 55131  1  0  0  0
 56 69  2  0  0  0
 57 58  2  0  0  0
 57132  1  0  0  0
 58133  1  0  0  0
 59 60  1  0  0  0
 59 61  1  0  0  0
 59 62  1  0  0  0
 60134  1  0  0  0
 60135  1  0  0  0
 60136  1  0  0  0
 61137  1  0  0  0
 61138  1  0  0  0
 61139  1  0  0  0
 62140  1  0  0  0
 62141  1  0  0  0
 62142  1  0  0  0
 63 65  1  0  0  0
 63143  1  0  0  0
 63144  1  0  0  0
 63145  1  0  0  0
 64146  1  0  0  0
 65147  1  0  0  0
 68 85  1  0  0  0
 71 73  2  0  0  0
 71 74  1  0  0  0
 71148  1  0  0  0
 72 74  2  0  0  0
 72 86  1  0  0  0
 72149  1  0  0  0
 73 75  1  0  0  0
 73 77  1  0  0  0
 74 88  1  0  0  0
 75 80  1  0  0  0
 75 86  2  0  0  0
 76 78  1  0  0  0
 76 87  1  0  0  0
 76150  1  0  0  0
 76151  1  0  0  0
 77 78  1  0  0  0
 77 79  1  0  0  0
 77152  1  0  0  0
 78 81  1  0  0  0
 78153  1  0  0  0
 79 82  1  0  0  0
 79 87  1  0  0  0
 79154  1  0  0  0
 80155  1  0  0  0
 80156  1  0  0  0
 80157  1  0  0  0
 81158  1  0  0  0
 81159  1  0  0  0
 81160  1  0  0  0
 82161  1  0  0  0
 82162  1  0  0  0
 82163  1  0  0  0
 83 84  1  0  0  0
 83 85  1  0  0  0
 83164  1  0  0  0
 83165  1  0  0  0
 84 88  1  0  0  0
 84166  1  0  0  0
 84167  1  0  0  0
 85168  1  0  0  0
 85169  1  0  0  0
 88170  1  0  0  0
M  ISO  4   1 100  68 101  85 101  87 100
M  END
> <chiral flag>
0

> <version>
0

> <s_m_source_file>
/data/baiqing/PycharmProjects/Reinvent-master-3.2/result/LINK_invent/BTK/process_docking_weight1_custom_sum_contain_oxygen_bond_distance_aromatic_linkinvent_7_9_3/rearranged_h_0148.sdf

> <i_m_source_file_index>
9

> <r_mmod_Potential_Energy-OPLS-2005>
97.6910858154297

> <r_mmod_Stretch_Energy-OPLS-2005>
45.3687477111816

> <r_mmod_Bend_Energy-OPLS-2005>
162.830764770508

> <r_mmod_Torsional_Energy-OPLS-2005>
320.389312744141

> <r_mmod_Improper_Torsional_Energy-OPLS-2005>
7.43925285339355

> <r_mmod_Van_der_Waal_Energy-OPLS-2005>
151.768737792969

> <r_mmod_Electrostatic_Energy-OPLS-2005>
-386.52197265625

> <r_mmod_Solvation_Energy-OPLS-2005>
-216.567642211914

> <b_mmod_Minimization_Converged-OPLS-2005>
0

> <r_mmod_RMS_Derivative-OPLS-2005>
1.62522435188293

$$$$
9
                    3D
 Structure written by MMmdl.
169178  0  0  1  0            999 V2000
  -30.6108  -14.6135   20.5116 C   0  0  0  0  0  0
  -30.4365  -12.3799   19.4337 C   0  0  0  0  0  0
  -29.5058  -12.5140   18.2098 C   0  0  0  0  0  0
  -28.0264  -12.3547   18.6207 C   0  0  0  0  0  0
  -27.6530  -13.2118   19.8621 C   0  0  2  0  0  0
  -28.6968  -13.0402   20.9860 C   0  0  0  0  0  0
  -25.2563  -13.8167   20.5689 C   0  0  0  0  0  0
  -24.1819  -13.0439   20.9175 C   0  0  0  0  0  0
  -24.6384  -11.6907   20.8720 C   0  0  0  0  0  0
  -23.9053  -10.4297   21.0366 C   0  0  0  0  0  0
  -24.3620   -9.4223   21.9149 C   0  0  0  0  0  0
  -23.6305   -8.2258   22.0739 C   0  0  0  0  0  0
  -22.4282   -8.0279   21.3533 C   0  0  0  0  0  0
  -21.9910   -9.0249   20.4637 C   0  0  0  0  0  0
  -22.7224  -10.2132   20.3018 C   0  0  0  0  0  0
  -21.6873   -6.0736   22.5277 C   0  0  0  0  0  0
  -21.4044   -6.5639   23.8209 C   0  0  0  0  0  0
  -21.3653   -5.6784   24.9166 C   0  0  0  0  0  0
  -21.6017   -4.3040   24.7208 C   0  0  0  0  0  0
  -21.8829   -3.8143   23.4339 C   0  0  0  0  0  0
  -21.9218   -4.6958   22.3395 C   0  0  0  0  0  0
  -22.7855  -13.5234   21.1842 C   0  0  0  0  0  0
  -22.1667   -4.2148   21.0971 F   0  0  0  0  0  0
  -21.5618   -3.4525   25.7718 F   0  0  0  0  0  0
  -30.0088  -13.3898   20.4182 N   0  0  0  0  0  0
  -26.2982  -12.9331   20.3304 N   0  0  0  0  0  0
  -25.9306  -11.6492   20.5733 N   0  0  0  0  0  0
  -22.0498  -12.8236   22.0411 N   0  0  0  0  0  0
  -25.4272  -15.1894   20.4142 N   0  0  0  0  0  0
  -31.7765  -14.7933   20.1458 O   0  0  0  0  0  0
  -21.6654   -6.8869   21.4228 O   0  0  0  0  0  0
  -22.3529  -14.5533   20.6668 O   0  0  0  0  0  0
  -24.6238  -31.8612   23.2001 C   0  0  0  0  0  0
  -25.9092  -32.4789   23.8330 C   0  0  1  0  0  0
  -27.2324  -27.3451   20.1182 C   0  0  0  0  0  0
  -25.5911  -33.8591   24.2252 N   0  0  0  0  0  0
  -23.4159  -30.4792   21.5441 C   0  0  2  0  0  0
  -24.8620  -28.9266   20.1161 C   0  0  0  0  0  0
  -22.7455  -29.4611   22.4968 C   0  0  0  0  0  0
  -18.0268  -28.1370   22.8474 C   0  0  0  0  0  0
  -24.1488  -36.7292   23.2636 C   0  0  0  0  0  0
  -25.9496  -30.7982   21.3647 C   0  0  0  0  0  0
  -26.0242  -29.4223   20.7185 C   0  0  0  0  0  0
  -27.2090  -28.6389   20.7153 C   0  0  0  0  0  0
  -26.0504  -26.8817   19.5049 C   0  0  0  0  0  0
  -24.8728  -27.6591   19.5056 C   0  0  0  0  0  0
  -23.6294  -29.8056   20.1612 C   0  0  0  0  0  0
  -25.4123  -36.3086   24.0313 C   0  0  1  0  0  0
  -20.5864  -28.3663   23.1301 C   0  0  2  0  0  0
  -20.6755  -26.9391   22.5426 C   0  0  0  0  0  0
  -19.5737  -26.6365   21.5223 C   0  0  0  0  0  0
  -18.1910  -26.7907   22.1622 C   0  0  0  0  0  0
  -19.1520  -28.8836   23.2871 C   0  0  0  0  0  0
  -18.9449  -30.1435   23.8895 C   0  0  0  0  0  0
  -17.6454  -30.6573   24.0564 C   0  0  0  0  0  0
  -25.9066  -34.9463   23.5085 C   0  0  0  0  0  0
  -16.5343  -29.9084   23.6320 C   0  0  0  0  0  0
  -16.7261  -28.6496   23.0346 C   0  0  0  0  0  0
  -26.4493  -31.6588   25.0692 C   0  0  0  0  0  0
  -25.3741  -31.3712   26.1424 C   0  0  0  0  0  0
  -27.0307  -30.3017   24.6094 C   0  0  0  0  0  0
  -27.6037  -32.4334   25.7485 C   0  0  0  0  0  0
  -27.5577  -37.1812   24.8459 C   0  0  0  0  0  0
  -21.4173  -29.3020   22.3709 N   0  0  0  0  0  0
  -26.4295  -37.3788   23.9396 N   0  0  0  0  0  0
  -24.6820  -31.0627   22.0947 N   0  0  0  0  0  0
  -23.4180  -28.8169   23.3059 O   0  0  0  0  0  0
  -28.4025  -26.5897   20.1060 O   0  0  0  0  0  0
  -26.5649  -34.8931   22.4662 O   0  0  0  0  0  0
  -23.5408  -32.1404   23.7341 O   0  0  0  0  0  0
  -28.6523  -24.5004   18.8407 C   0  0  0  0  0  0
  -28.5261  -24.3955   21.2485 C   0  0  0  0  0  0
  -28.9662  -23.1135   18.8352 C   0  0  0  0  0  0
  -29.0925  -22.3399   19.9919 C   0  0  0  0  0  0
  -28.8560  -22.9993   21.2311 C   0  0  0  0  0  0
  -28.4503  -25.1841   20.0648 C   0  0  0  0  0  0
  -29.3154  -22.3264   17.6088 C   0  0  0  0  0  0
  -29.6588  -20.9133   19.6685 C   0  0  2  0  0  0
  -29.6476  -20.8771   18.0889 C   0  0  0  0  0  0
  -29.0263  -22.2718   22.5485 C   0  0  0  0  0  0
  -28.5783  -19.9335   17.4997 C   0  0  0  0  0  0
  -31.0297  -20.4727   17.5288 C   0  0  0  0  0  0
  -31.2811  -17.3763   21.9203 C   0  0  0  0  0  0
  -29.1541  -19.6114   20.4498 C   0  0  0  0  0  0
  -29.6783  -18.1517   20.0466 C   0  0  0  0  0  0
  -29.9528  -17.0996   21.1978 C   0  0  1  0  0  0
  -29.7806  -15.6377   20.8795 N   0  0  0  0  0  0
  -31.4775  -12.5156   19.1328 H   0  0  0  0  0  0
  -30.3714  -11.3774   19.8596 H   0  0  0  0  0  0
  -29.7700  -11.7757   17.4518 H   0  0  0  0  0  0
  -29.6509  -13.4920   17.7468 H   0  0  0  0  0  0
  -27.8577  -11.2987   18.8383 H   0  0  0  0  0  0
  -27.3739  -12.6019   17.7827 H   0  0  0  0  0  0
  -27.6778  -14.2526   19.5398 H   0  0  0  0  0  0
  -28.7079  -12.0086   21.3398 H   0  0  0  0  0  0
  -28.4477  -13.6506   21.8559 H   0  0  0  0  0  0
  -25.2768   -9.5727   22.4715 H   0  0  0  0  0  0
  -24.0025   -7.4662   22.7468 H   0  0  0  0  0  0
  -21.0844   -8.8752   19.8967 H   0  0  0  0  0  0
  -22.3660  -10.9657   19.6124 H   0  0  0  0  0  0
  -21.2046   -7.6151   23.9716 H   0  0  0  0  0  0
  -21.1450   -6.0507   25.9069 H   0  0  0  0  0  0
  -22.0617   -2.7600   23.2837 H   0  0  0  0  0  0
  -22.4134  -11.9929   22.4828 H   0  0  0  0  0  0
  -21.1083  -13.1204   22.2558 H   0  0  0  0  0  0
  -24.6593  -15.8423   20.5336 H   0  0  0  0  0  0
  -26.2737  -15.6348   20.0847 H   0  0  0  0  0  0
  -26.7163  -32.5476   23.1082 H   0  0  0  0  0  0
  -25.0032  -33.9738   25.0379 H   0  0  0  0  0  0
  -22.7091  -31.2987   21.4011 H   0  0  0  0  0  0
  -23.3758  -35.9617   23.3299 H   0  0  0  0  0  0
  -24.3569  -36.8930   22.2050 H   0  0  0  0  0  0
  -23.7243  -37.6491   23.6672 H   0  0  0  0  0  0
  -26.0721  -31.5563   20.5897 H   0  0  0  0  0  0
  -26.8346  -30.8555   21.9868 H   0  0  0  0  0  0
  -28.1080  -29.0199   21.1806 H   0  0  0  0  0  0
  -26.0358  -25.9134   19.0245 H   0  0  0  0  0  0
  -23.9814  -27.2730   19.0328 H   0  0  0  0  0  0
  -23.7454  -30.5788   19.4011 H   0  0  0  0  0  0
  -22.7499  -29.2312   19.8667 H   0  0  0  0  0  0
  -25.1319  -36.1925   25.0810 H   0  0  0  0  0  0
  -20.9943  -28.3224   24.1426 H   0  0  0  0  0  0
  -20.5634  -26.2285   23.3624 H   0  0  0  0  0  0
  -21.6632  -26.7408   22.1246 H   0  0  0  0  0  0
  -19.6904  -25.6277   21.1243 H   0  0  0  0  0  0
  -19.6679  -27.3183   20.6756 H   0  0  0  0  0  0
  -17.4196  -26.6642   21.4012 H   0  0  0  0  0  0
  -18.0298  -26.0054   22.9019 H   0  0  0  0  0  0
  -19.7937  -30.7232   24.2268 H   0  0  0  0  0  0
  -17.5025  -31.6260   24.5154 H   0  0  0  0  0  0
  -15.5343  -30.3001   23.7639 H   0  0  0  0  0  0
  -15.8655  -28.0827   22.7067 H   0  0  0  0  0  0
  -24.5916  -30.7066   25.7749 H   0  0  0  0  0  0
  -24.8943  -32.2878   26.4866 H   0  0  0  0  0  0
  -25.8090  -30.8878   27.0178 H   0  0  0  0  0  0
  -26.2841  -29.6809   24.1128 H   0  0  0  0  0  0
  -27.4030  -29.7235   25.4556 H   0  0  0  0  0  0
  -27.8702  -30.4311   23.9263 H   0  0  0  0  0  0
  -27.2614  -33.3630   26.2045 H   0  0  0  0  0  0
  -28.3866  -32.6912   25.0341 H   0  0  0  0  0  0
  -28.0676  -31.8477   26.5431 H   0  0  0  0  0  0
  -28.2605  -38.0100   24.7518 H   0  0  0  0  0  0
  -28.1059  -36.2636   24.6279 H   0  0  0  0  0  0
  -27.2283  -37.1459   25.8858 H   0  0  0  0  0  0
  -20.9341  -29.8768   21.6949 H   0  0  0  0  0  0
  -26.0161  -38.2851   24.1427 H   0  0  0  0  0  0
  -28.6385  -25.0500   17.9095 H   0  0  0  0  0  0
  -28.4039  -24.8934   22.2005 H   0  0  0  0  0  0
  -30.1729  -22.8073   17.1351 H   0  0  0  0  0  0
  -28.4898  -22.3662   16.8979 H   0  0  0  0  0  0
  -30.7029  -21.0094   19.9690 H   0  0  0  0  0  0
  -29.0535  -22.9681   23.3881 H   0  0  0  0  0  0
  -29.9638  -21.7166   22.5599 H   0  0  0  0  0  0
  -28.2016  -21.5772   22.7115 H   0  0  0  0  0  0
  -27.6085  -20.0763   17.9754 H   0  0  0  0  0  0
  -28.8534  -18.8867   17.5869 H   0  0  0  0  0  0
  -28.4495  -20.1112   16.4305 H   0  0  0  0  0  0
  -31.8102  -21.1645   17.8482 H   0  0  0  0  0  0
  -31.0319  -20.4674   16.4390 H   0  0  0  0  0  0
  -31.3360  -19.4791   17.8472 H   0  0  0  0  0  0
  -31.3518  -18.4179   22.2346 H   0  0  0  0  0  0
  -32.1392  -17.1746   21.2802 H   0  0  0  0  0  0
  -31.3740  -16.7533   22.8105 H   0  0  0  0  0  0
  -28.0655  -19.5964   20.4103 H   0  0  0  0  0  0
  -29.3934  -19.7538   21.5013 H   0  0  0  0  0  0
  -30.5845  -18.2327   19.4511 H   0  0  0  0  0  0
  -28.9329  -17.7143   19.3854 H   0  0  0  0  0  0
  -29.1661  -17.2784   21.9319 H   0  0  0  0  0  0
  -28.8490  -15.3023   21.0752 H   0  0  0  0  0  0
  1 25  1  0  0  0
  1 30  2  0  0  0
  1 87  1  0  0  0
  2  3  1  0  0  0
  2 25  1  0  0  0
  2 88  1  0  0  0
  2 89  1  0  0  0
  3  4  1  0  0  0
  3 90  1  0  0  0
  3 91  1  0  0  0
  4  5  1  0  0  0
  4 92  1  0  0  0
  4 93  1  0  0  0
  5  6  1  0  0  0
  5 26  1  0  0  0
  5 94  1  0  0  0
  6 25  1  0  0  0
  6 95  1  0  0  0
  6 96  1  0  0  0
  7  8  2  0  0  0
  7 26  1  0  0  0
  7 29  1  0  0  0
  8  9  1  0  0  0
  8 22  1  0  0  0
  9 10  1  0  0  0
  9 27  2  0  0  0
 10 11  2  0  0  0
 10 15  1  0  0  0
 11 12  1  0  0  0
 11 97  1  0  0  0
 12 13  2  0  0  0
 12 98  1  0  0  0
 13 14  1  0  0  0
 13 31  1  0  0  0
 14 15  2  0  0  0
 14 99  1  0  0  0
 15100  1  0  0  0
 16 17  2  0  0  0
 16 21  1  0  0  0
 16 31  1  0  0  0
 17 18  1  0  0  0
 17101  1  0  0  0
 18 19  2  0  0  0
 18102  1  0  0  0
 19 20  1  0  0  0
 19 24  1  0  0  0
 20 21  2  0  0  0
 20103  1  0  0  0
 21 23  1  0  0  0
 22 28  1  0  0  0
 22 32  2  0  0  0
 26 27  1  0  0  0
 28104  1  0  0  0
 28105  1  0  0  0
 29106  1  0  0  0
 29107  1  0  0  0
 33 34  1  0  0  0
 33 66  1  0  0  0
 33 70  2  0  0  0
 34 36  1  0  0  0
 34 59  1  0  0  0
 34108  1  0  0  0
 35 44  2  0  0  0
 35 45  1  0  0  0
 35 68  1  0  0  0
 36 56  1  0  0  0
 36109  1  0  0  0
 37 39  1  0  0  0
 37 47  1  0  0  0
 37 66  1  0  0  0
 37110  1  0  0  0
 38 43  2  0  0  0
 38 46  1  0  0  0
 38 47  1  0  0  0
 39 64  1  0  0  0
 39 67  2  0  0  0
 40 52  1  0  0  0
 40 53  2  0  0  0
 40 58  1  0  0  0
 41111  1  0  0  0
 41112  1  0  0  0
 41113  1  0  0  0
 41 48  1  0  0  0
 42 43  1  0  0  0
 42 66  1  0  0  0
 42114  1  0  0  0
 42115  1  0  0  0
 43 44  1  0  0  0
 44116  1  0  0  0
 45 46  2  0  0  0
 45117  1  0  0  0
 46118  1  0  0  0
 47119  1  0  0  0
 47120  1  0  0  0
 48 56  1  0  0  0
 48 65  1  0  0  0
 48121  1  0  0  0
 49 50  1  0  0  0
 49 53  1  0  0  0
 49 64  1  0  0  0
 49122  1  0  0  0
 50 51  1  0  0  0
 50123  1  0  0  0
 50124  1  0  0  0
 51 52  1  0  0  0
 51125  1  0  0  0
 51126  1  0  0  0
 52127  1  0  0  0
 52128  1  0  0  0
 53 54  1  0  0  0
 54 55  2  0  0  0
 54129  1  0  0  0
 55 57  1  0  0  0
 55130  1  0  0  0
 56 69  2  0  0  0
 57 58  2  0  0  0
 57131  1  0  0  0
 58132  1  0  0  0
 59 60  1  0  0  0
 59 61  1  0  0  0
 59 62  1  0  0  0
 60133  1  0  0  0
 60134  1  0  0  0
 60135  1  0  0  0
 61136  1  0  0  0
 61137  1  0  0  0
 61138  1  0  0  0
 62139  1  0  0  0
 62140  1  0  0  0
 62141  1  0  0  0
 63 65  1  0  0  0
 63142  1  0  0  0
 63143  1  0  0  0
 63144  1  0  0  0
 64145  1  0  0  0
 65146  1  0  0  0
 68 76  1  0  0  0
 71 73  2  0  0  0
 71 76  1  0  0  0
 71147  1  0  0  0
 72 75  1  0  0  0
 72 76  2  0  0  0
 72148  1  0  0  0
 73 74  1  0  0  0
 73 77  1  0  0  0
 74 75  2  0  0  0
 74 78  1  0  0  0
 75 80  1  0  0  0
 77 79  1  0  0  0
 77149  1  0  0  0
 77150  1  0  0  0
 78 79  1  0  0  0
 78 84  1  0  0  0
 78151  1  0  0  0
 79 81  1  0  0  0
 79 82  1  0  0  0
 80152  1  0  0  0
 80153  1  0  0  0
 80154  1  0  0  0
 81155  1  0  0  0
 81156  1  0  0  0
 81157  1  0  0  0
 82158  1  0  0  0
 82159  1  0  0  0
 82160  1  0  0  0
 83161  1  0  0  0
 83162  1  0  0  0
 83163  1  0  0  0
 83 86  1  0  0  0
 84 85  1  0  0  0
 84164  1  0  0  0
 84165  1  0  0  0
 85 86  1  0  0  0
 85166  1  0  0  0
 85167  1  0  0  0
 86 87  1  0  0  0
 86168  1  0  0  0
 87169  1  0  0  0
M  ISO  4   1 100  68 101  76 101  87 100
M  END
> <chiral flag>
0

> <version>
0

> <s_m_source_file>
/data/baiqing/PycharmProjects/Reinvent-master-3.2/result/LINK_invent/BTK/process_docking_weight1_custom_sum_contain_oxygen_bond_distance_aromatic_linkinvent_7_9_3/rearranged_h_0148.sdf

> <i_m_source_file_index>
10

> <r_mmod_Potential_Energy-OPLS-2005>
113.53443145752

> <r_mmod_Stretch_Energy-OPLS-2005>
75.0829620361328

> <r_mmod_Bend_Energy-OPLS-2005>
192.453308105469

> <r_mmod_Torsional_Energy-OPLS-2005>
227.938385009766

> <r_mmod_Improper_Torsional_Energy-OPLS-2005>
5.99458122253418

> <r_mmod_Van_der_Waal_Energy-OPLS-2005>
136.640686035156

> <r_mmod_Electrostatic_Energy-OPLS-2005>
-365.846435546875

> <r_mmod_Solvation_Energy-OPLS-2005>
-194.871017456055

> <b_mmod_Minimization_Converged-OPLS-2005>
0

> <r_mmod_RMS_Derivative-OPLS-2005>
2.73723912239075

$$$$
10
                    3D
 Structure written by MMmdl.
182192  0  0  1  0            999 V2000
  -30.7776  -14.4007   20.6620 C   0  0  0  0  0  0
  -30.4142  -12.3022   19.4132 C   0  0  0  0  0  0
  -29.4860  -12.5159   18.2037 C   0  0  0  0  0  0
  -28.0124  -12.3714   18.6212 C   0  0  0  0  0  0
  -27.6646  -13.2087   19.8803 C   0  0  2  0  0  0
  -28.7048  -12.9881   21.0027 C   0  0  0  0  0  0
  -25.2589  -13.8172   20.5690 C   0  0  0  0  0  0
  -24.1840  -13.0444   20.9166 C   0  0  0  0  0  0
  -24.6397  -11.6911   20.8730 C   0  0  0  0  0  0
  -23.9062  -10.4297   21.0395 C   0  0  0  0  0  0
  -24.3612   -9.4215   21.9179 C   0  0  0  0  0  0
  -23.6292   -8.2248   22.0753 C   0  0  0  0  0  0
  -22.4274   -8.0277   21.3547 C   0  0  0  0  0  0
  -21.9909   -9.0246   20.4646 C   0  0  0  0  0  0
  -22.7231  -10.2130   20.3052 C   0  0  0  0  0  0
  -21.6851   -6.0728   22.5278 C   0  0  0  0  0  0
  -21.4015   -6.5636   23.8208 C   0  0  0  0  0  0
  -21.3663   -5.6792   24.9173 C   0  0  0  0  0  0
  -21.6040   -4.3053   24.7227 C   0  0  0  0  0  0
  -21.8824   -3.8143   23.4349 C   0  0  0  0  0  0
  -21.9196   -4.6959   22.3402 C   0  0  0  0  0  0
  -22.7861  -13.5236   21.1830 C   0  0  0  0  0  0
  -22.1662   -4.2143   21.0980 F   0  0  0  0  0  0
  -21.5631   -3.4541   25.7741 F   0  0  0  0  0  0
  -30.0440  -13.2726   20.4576 N   0  0  0  0  0  0
  -26.3033  -12.9347   20.3396 N   0  0  0  0  0  0
  -25.9332  -11.6501   20.5785 N   0  0  0  0  0  0
  -22.0506  -12.8219   22.0388 N   0  0  0  0  0  0
  -25.4321  -15.1887   20.4087 N   0  0  0  0  0  0
  -31.8263  -14.6305   20.0552 O   0  0  0  0  0  0
  -21.6640   -6.8870   21.4237 O   0  0  0  0  0  0
  -22.3548  -14.5542   20.6686 O   0  0  0  0  0  0
  -24.6120  -31.8705   23.2119 C   0  0  0  0  0  0
  -25.9027  -32.4836   23.8413 C   0  0  1  0  0  0
  -27.2389  -27.4516   20.1023 C   0  0  0  0  0  0
  -25.5892  -33.8629   24.2350 N   0  0  0  0  0  0
  -23.4012  -30.4932   21.5517 C   0  0  2  0  0  0
  -24.8533  -28.9704   20.1094 C   0  0  0  0  0  0
  -22.7417  -29.4654   22.4989 C   0  0  0  0  0  0
  -18.0266  -28.1369   22.8478 C   0  0  0  0  0  0
  -24.1493  -36.7329   23.2635 C   0  0  0  0  0  0
  -25.9276  -30.8406   21.3676 C   0  0  0  0  0  0
  -26.0078  -29.4746   20.7223 C   0  0  0  0  0  0
  -27.2013  -28.7163   20.7331 C   0  0  0  0  0  0
  -26.0818  -26.9918   19.4365 C   0  0  0  0  0  0
  -24.8830  -27.7242   19.4659 C   0  0  0  0  0  0
  -23.6108  -29.8300   20.1642 C   0  0  0  0  0  0
  -25.4103  -36.3116   24.0337 C   0  0  1  0  0  0
  -20.5859  -28.3648   23.1312 C   0  0  2  0  0  0
  -20.6763  -26.9386   22.5415 C   0  0  0  0  0  0
  -19.5751  -26.6377   21.5203 C   0  0  0  0  0  0
  -18.1920  -26.7913   22.1606 C   0  0  0  0  0  0
  -19.1519  -28.8824   23.2890 C   0  0  0  0  0  0
  -18.9459  -30.1426   23.8902 C   0  0  0  0  0  0
  -17.6467  -30.6584   24.0552 C   0  0  0  0  0  0
  -25.9027  -34.9482   23.5143 C   0  0  0  0  0  0
  -16.5353  -29.9091   23.6311 C   0  0  0  0  0  0
  -16.7258  -28.6505   23.0331 C   0  0  0  0  0  0
  -26.4462  -31.6590   25.0727 C   0  0  0  0  0  0
  -25.3731  -31.3689   26.1478 C   0  0  0  0  0  0
  -27.0290  -30.3039   24.6062 C   0  0  0  0  0  0
  -27.6032  -32.4296   25.7495 C   0  0  0  0  0  0
  -27.5581  -37.1811   24.8460 C   0  0  0  0  0  0
  -21.4144  -29.3023   22.3732 N   0  0  0  0  0  0
  -26.4296  -37.3794   23.9408 N   0  0  0  0  0  0
  -24.6643  -31.0830   22.1020 N   0  0  0  0  0  0
  -23.4189  -28.8180   23.3018 O   0  0  0  0  0  0
  -28.3672  -26.6575   20.0994 O   0  0  0  0  0  0
  -26.5593  -34.8938   22.4705 O   0  0  0  0  0  0
  -23.5318  -32.1437   23.7531 O   0  0  0  0  0  0
  -27.6701  -22.4402   19.1882 C   0  0  0  0  0  0
  -26.2278  -22.8701   19.0660 C   0  0  0  0  0  0
  -31.9638  -18.7462   21.5198 C   0  0  0  0  0  0
  -31.3990  -18.1158   23.9273 C   0  0  0  0  0  0
  -31.0271  -17.6214   21.0382 C   0  0  0  0  0  0
  -30.5001  -16.9795   23.3947 C   0  0  0  0  0  0
  -30.8412  -24.8862   22.0092 C   0  0  0  0  0  0
  -30.3723  -26.1981   21.3584 C   0  0  0  0  0  0
  -31.6063  -19.2839   22.9269 C   0  0  2  0  0  0
  -27.2293  -23.7769   19.7423 C   0  0  0  0  0  0
  -28.4607  -24.7233   21.8040 C   0  0  1  0  0  0
  -31.0345  -16.4574   22.0493 C   0  0  1  0  0  0
  -29.7428  -23.8830   21.6460 C   0  0  2  0  0  0
  -28.8290  -26.1899   21.3822 C   0  0  2  0  0  0
  -25.8956  -24.6969   21.7595 C   0  0  0  0  0  0
  -30.4415  -20.3038   22.9375 C   0  0  0  0  0  0
  -30.7595  -21.6493   22.2330 C   0  0  0  0  0  0
  -27.1873  -24.0311   21.2489 C   0  0  1  0  0  0
  -30.3121  -15.2648   21.5814 N   0  0  0  0  0  0
  -29.7121  -22.6617   22.4949 N   0  3  0  0  0  0
  -31.4580  -12.3912   19.1053 H   0  0  0  0  0  0
  -30.3106  -11.2870   19.8005 H   0  0  0  0  0  0
  -29.7219  -11.7984   17.4173 H   0  0  0  0  0  0
  -29.6536  -13.5058   17.7772 H   0  0  0  0  0  0
  -27.8258  -11.3148   18.8168 H   0  0  0  0  0  0
  -27.3571  -12.6462   17.7941 H   0  0  0  0  0  0
  -27.7137  -14.2583   19.5877 H   0  0  0  0  0  0
  -28.6717  -11.9562   21.3549 H   0  0  0  0  0  0
  -28.4565  -13.5982   21.8710 H   0  0  0  0  0  0
  -25.2760   -9.5687   22.4754 H   0  0  0  0  0  0
  -23.9998   -7.4641   22.7481 H   0  0  0  0  0  0
  -21.0842   -8.8766   19.8951 H   0  0  0  0  0  0
  -22.3694  -10.9665   19.6160 H   0  0  0  0  0  0
  -21.2008   -7.6147   23.9709 H   0  0  0  0  0  0
  -21.1478   -6.0524   25.9075 H   0  0  0  0  0  0
  -22.0601   -2.7607   23.2854 H   0  0  0  0  0  0
  -22.4126  -11.9873   22.4758 H   0  0  0  0  0  0
  -21.1125  -13.1245   22.2599 H   0  0  0  0  0  0
  -24.6707  -15.8489   20.5196 H   0  0  0  0  0  0
  -26.2936  -15.6254   20.1047 H   0  0  0  0  0  0
  -26.7104  -32.5577   23.1189 H   0  0  0  0  0  0
  -25.0021  -33.9780   25.0482 H   0  0  0  0  0  0
  -22.6896  -31.3097   21.4134 H   0  0  0  0  0  0
  -23.3751  -35.9670   23.3293 H   0  0  0  0  0  0
  -24.3592  -36.8940   22.2053 H   0  0  0  0  0  0
  -23.7256  -37.6535   23.6654 H   0  0  0  0  0  0
  -26.0325  -31.6029   20.5940 H   0  0  0  0  0  0
  -26.8184  -30.9022   21.9809 H   0  0  0  0  0  0
  -28.0875  -29.0953   21.2210 H   0  0  0  0  0  0
  -26.0797  -26.0485   18.9166 H   0  0  0  0  0  0
  -24.0030  -27.3330   18.9744 H   0  0  0  0  0  0
  -23.7109  -30.6064   19.4048 H   0  0  0  0  0  0
  -22.7394  -29.2431   19.8698 H   0  0  0  0  0  0
  -25.1274  -36.1973   25.0828 H   0  0  0  0  0  0
  -20.9935  -28.3228   24.1440 H   0  0  0  0  0  0
  -20.5655  -26.2272   23.3602 H   0  0  0  0  0  0
  -21.6637  -26.7427   22.1213 H   0  0  0  0  0  0
  -19.6921  -25.6294   21.1221 H   0  0  0  0  0  0
  -19.6696  -27.3202   20.6738 H   0  0  0  0  0  0
  -17.4186  -26.6643   21.4014 H   0  0  0  0  0  0
  -18.0316  -26.0069   22.9013 H   0  0  0  0  0  0
  -19.7949  -30.7210   24.2311 H   0  0  0  0  0  0
  -17.5036  -31.6265   24.5154 H   0  0  0  0  0  0
  -15.5360  -30.2995   23.7643 H   0  0  0  0  0  0
  -15.8649  -28.0830   22.7038 H   0  0  0  0  0  0
  -24.5923  -30.6999   25.7826 H   0  0  0  0  0  0
  -24.8898  -32.2842   26.4904 H   0  0  0  0  0  0
  -25.8090  -30.8889   27.0248 H   0  0  0  0  0  0
  -26.2828  -29.6817   24.1103 H   0  0  0  0  0  0
  -27.4064  -29.7241   25.4494 H   0  0  0  0  0  0
  -27.8662  -30.4373   23.9205 H   0  0  0  0  0  0
  -27.2645  -33.3585   26.2098 H   0  0  0  0  0  0
  -28.3841  -32.6864   25.0322 H   0  0  0  0  0  0
  -28.0707  -31.8403   26.5391 H   0  0  0  0  0  0
  -28.2577  -38.0130   24.7511 H   0  0  0  0  0  0
  -28.1089  -36.2652   24.6261 H   0  0  0  0  0  0
  -27.2301  -37.1427   25.8865 H   0  0  0  0  0  0
  -20.9303  -29.8786   21.6988 H   0  0  0  0  0  0
  -26.0186  -38.2869   24.1419 H   0  0  0  0  0  0
  -28.2749  -22.4503   18.2827 H   0  0  0  0  0  0
  -27.8916  -21.6339   19.8826 H   0  0  0  0  0  0
  -25.4955  -22.3669   19.6944 H   0  0  0  0  0  0
  -25.8709  -23.1664   18.0807 H   0  0  0  0  0  0
  -31.9917  -19.5486   20.7839 H   0  0  0  0  0  0
  -32.9806  -18.3519   21.5499 H   0  0  0  0  0  0
  -32.3748  -17.6922   24.1688 H   0  0  0  0  0  0
  -31.0049  -18.4884   24.8739 H   0  0  0  0  0  0
  -31.3627  -17.2826   20.0577 H   0  0  0  0  0  0
  -30.0147  -18.0033   20.9010 H   0  0  0  0  0  0
  -29.4739  -17.3353   23.2865 H   0  0  0  0  0  0
  -30.4729  -16.1720   24.1281 H   0  0  0  0  0  0
  -30.9046  -25.0126   23.0918 H   0  0  0  0  0  0
  -31.8249  -24.5789   21.6539 H   0  0  0  0  0  0
  -30.7233  -26.2224   20.3259 H   0  0  0  0  0  0
  -30.7860  -27.0758   21.8551 H   0  0  0  0  0  0
  -32.4784  -19.8339   23.2858 H   0  0  0  0  0  0
  -27.5928  -24.6081   19.1491 H   0  0  0  0  0  0
  -28.2972  -24.7954   22.8810 H   0  0  0  0  0  0
  -32.0706  -16.1489   22.2086 H   0  0  0  0  0  0
  -29.8614  -23.5980   20.5985 H   0  0  0  0  0  0
  -28.4918  -26.8620   22.1752 H   0  0  0  0  0  0
  -25.0140  -24.3472   21.2235 H   0  0  0  0  0  0
  -25.9226  -25.7810   21.6990 H   0  0  0  0  0  0
  -25.7453  -24.4657   22.8147 H   0  0  0  0  0  0
  -30.1950  -20.5202   23.9783 H   0  0  0  0  0  0
  -29.5469  -19.8526   22.5056 H   0  0  0  0  0  0
  -30.8462  -21.4884   21.1581 H   0  0  0  0  0  0
  -31.7188  -22.0415   22.5740 H   0  0  0  0  0  0
  -27.1479  -23.0391   21.6963 H   0  0  0  0  0  0
  -29.4488  -15.0217   22.0433 H   0  0  0  0  0  0
  -28.8290  -22.2087   22.3245 H   0  0  0  0  0  0
  -29.7313  -22.9175   23.4697 H   0  0  0  0  0  0
  1 25  1  0  0  0
  1 30  2  0  0  0
  1 89  1  0  0  0
  2  3  1  0  0  0
  2 25  1  0  0  0
  2 91  1  0  0  0
  2 92  1  0  0  0
  3  4  1  0  0  0
  3 93  1  0  0  0
  3 94  1  0  0  0
  4  5  1  0  0  0
  4 95  1  0  0  0
  4 96  1  0  0  0
  5  6  1  0  0  0
  5 26  1  0  0  0
  5 97  1  0  0  0
  6 25  1  0  0  0
  6 98  1  0  0  0
  6 99  1  0  0  0
  7  8  2  0  0  0
  7 26  1  0  0  0
  7 29  1  0  0  0
  8  9  1  0  0  0
  8 22  1  0  0  0
  9 10  1  0  0  0
  9 27  2  0  0  0
 10 11  2  0  0  0
 10 15  1  0  0  0
 11 12  1  0  0  0
 11100  1  0  0  0
 12 13  2  0  0  0
 12101  1  0  0  0
 13 14  1  0  0  0
 13 31  1  0  0  0
 14 15  2  0  0  0
 14102  1  0  0  0
 15103  1  0  0  0
 16 17  2  0  0  0
 16 21  1  0  0  0
 16 31  1  0  0  0
 17 18  1  0  0  0
 17104  1  0  0  0
 18 19  2  0  0  0
 18105  1  0  0  0
 19 20  1  0  0  0
 19 24  1  0  0  0
 20 21  2  0  0  0
 20106  1  0  0  0
 21 23  1  0  0  0
 22 28  1  0  0  0
 22 32  2  0  0  0
 26 27  1  0  0  0
 28107  1  0  0  0
 28108  1  0  0  0
 29109  1  0  0  0
 29110  1  0  0  0
 33 34  1  0  0  0
 33 66  1  0  0  0
 33 70  2  0  0  0
 34 36  1  0  0  0
 34 59  1  0  0  0
 34111  1  0  0  0
 35 44  2  0  0  0
 35 45  1  0  0  0
 35 68  1  0  0  0
 36 56  1  0  0  0
 36112  1  0  0  0
 37 39  1  0  0  0
 37 47  1  0  0  0
 37 66  1  0  0  0
 37113  1  0  0  0
 38 43  2  0  0  0
 38 46  1  0  0  0
 38 47  1  0  0  0
 39 64  1  0  0  0
 39 67  2  0  0  0
 40 52  1  0  0  0
 40 53  2  0  0  0
 40 58  1  0  0  0
 41114  1  0  0  0
 41115  1  0  0  0
 41116  1  0  0  0
 41 48  1  0  0  0
 42 43  1  0  0  0
 42 66  1  0  0  0
 42117  1  0  0  0
 42118  1  0  0  0
 43 44  1  0  0  0
 44119  1  0  0  0
 45 46  2  0  0  0
 45120  1  0  0  0
 46121  1  0  0  0
 47122  1  0  0  0
 47123  1  0  0  0
 48 56  1  0  0  0
 48 65  1  0  0  0
 48124  1  0  0  0
 49 50  1  0  0  0
 49 53  1  0  0  0
 49 64  1  0  0  0
 49125  1  0  0  0
 50 51  1  0  0  0
 50126  1  0  0  0
 50127  1  0  0  0
 51 52  1  0  0  0
 51128  1  0  0  0
 51129  1  0  0  0
 52130  1  0  0  0
 52131  1  0  0  0
 53 54  1  0  0  0
 54 55  2  0  0  0
 54132  1  0  0  0
 55 57  1  0  0  0
 55133  1  0  0  0
 56 69  2  0  0  0
 57 58  2  0  0  0
 57134  1  0  0  0
 58135  1  0  0  0
 59 60  1  0  0  0
 59 61  1  0  0  0
 59 62  1  0  0  0
 60136  1  0  0  0
 60137  1  0  0  0
 60138  1  0  0  0
 61139  1  0  0  0
 61140  1  0  0  0
 61141  1  0  0  0
 62142  1  0  0  0
 62143  1  0  0  0
 62144  1  0  0  0
 63 65  1  0  0  0
 63145  1  0  0  0
 63146  1  0  0  0
 63147  1  0  0  0
 64148  1  0  0  0
 65149  1  0  0  0
 68 84  1  0  0  0
 71 72  1  0  0  0
 71150  1  0  0  0
 71151  1  0  0  0
 71 80  1  0  0  0
 72 80  1  0  0  0
 72152  1  0  0  0
 72153  1  0  0  0
 73 75  1  0  0  0
 73 79  1  0  0  0
 73154  1  0  0  0
 73155  1  0  0  0
 74 76  1  0  0  0
 74 79  1  0  0  0
 74156  1  0  0  0
 74157  1  0  0  0
 75 82  1  0  0  0
 75158  1  0  0  0
 75159  1  0  0  0
 76 82  1  0  0  0
 76160  1  0  0  0
 76161  1  0  0  0
 77 78  1  0  0  0
 77 83  1  0  0  0
 77162  1  0  0  0
 77163  1  0  0  0
 78 84  1  0  0  0
 78164  1  0  0  0
 78165  1  0  0  0
 79 86  1  0  0  0
 79166  1  0  0  0
 80 88  1  0  0  0
 80167  1  0  0  0
 81 83  1  0  0  0
 81 84  1  0  0  0
 81 88  1  0  0  0
 81168  1  0  0  0
 82 89  1  0  0  0
 82169  1  0  0  0
 83 90  1  0  0  0
 83170  1  0  0  0
 84171  1  0  0  0
 85172  1  0  0  0
 85173  1  0  0  0
 85174  1  0  0  0
 85 88  1  0  0  0
 86 87  1  0  0  0
 86175  1  0  0  0
 86176  1  0  0  0
 87 90  1  0  0  0
 87177  1  0  0  0
 87178  1  0  0  0
 88179  1  0  0  0
 89180  1  0  0  0
 90181  1  0  0  0
 90182  1  0  0  0
M  CHG  1  90   1
M  ISO  4   1 100  68 101  84 101  89 100
M  END
> <chiral flag>
0

> <version>
0

> <s_m_source_file>
/data/baiqing/PycharmProjects/Reinvent-master-3.2/result/LINK_invent/BTK/process_docking_weight1_custom_sum_contain_oxygen_bond_distance_aromatic_linkinvent_7_9_3/rearranged_h_0148.sdf

> <i_m_source_file_index>
11

> <r_mmod_Potential_Energy-OPLS-2005>
-18.7245464324951

> <r_mmod_Stretch_Energy-OPLS-2005>
38.2197570800781

> <r_mmod_Bend_Energy-OPLS-2005>
145.651351928711

> <r_mmod_Torsional_Energy-OPLS-2005>
363.188568115234

> <r_mmod_Improper_Torsional_Energy-OPLS-2005>
1.68871021270752

> <r_mmod_Van_der_Waal_Energy-OPLS-2005>
126.440216064453

> <r_mmod_Electrostatic_Energy-OPLS-2005>
-268.420959472656

> <r_mmod_Solvation_Energy-OPLS-2005>
-435.474700927734

> <b_mmod_Minimization_Converged-OPLS-2005>
0

> <r_mmod_RMS_Derivative-OPLS-2005>
1.90209674835205

$$$$
11
                    3D
 Structure written by MMmdl.
169177  0  0  1  0            999 V2000
  -30.6961  -14.4546   20.5539 C   0  0  0  0  0  0
  -30.4154  -12.2911   19.4231 C   0  0  0  0  0  0
  -29.5028  -12.5388   18.2057 C   0  0  0  0  0  0
  -28.0200  -12.3913   18.6047 C   0  0  0  0  0  0
  -27.6633  -13.2075   19.8781 C   0  0  2  0  0  0
  -28.7028  -12.9771   20.9997 C   0  0  0  0  0  0
  -25.2659  -13.8116   20.5860 C   0  0  0  0  0  0
  -24.1868  -13.0379   20.9189 C   0  0  0  0  0  0
  -24.6420  -11.6846   20.8696 C   0  0  0  0  0  0
  -23.9089  -10.4239   21.0381 C   0  0  0  0  0  0
  -24.3631   -9.4168   21.9177 C   0  0  0  0  0  0
  -23.6282   -8.2200   22.0751 C   0  0  0  0  0  0
  -22.4266   -8.0247   21.3534 C   0  0  0  0  0  0
  -21.9925   -9.0229   20.4629 C   0  0  0  0  0  0
  -22.7270  -10.2097   20.3038 C   0  0  0  0  0  0
  -21.6820   -6.0731   22.5306 C   0  0  0  0  0  0
  -21.3983   -6.5643   23.8242 C   0  0  0  0  0  0
  -21.3691   -5.6802   24.9213 C   0  0  0  0  0  0
  -21.6064   -4.3073   24.7253 C   0  0  0  0  0  0
  -21.8806   -3.8146   23.4382 C   0  0  0  0  0  0
  -21.9177   -4.6963   22.3428 C   0  0  0  0  0  0
  -22.7885  -13.5186   21.1889 C   0  0  0  0  0  0
  -22.1649   -4.2149   21.1010 F   0  0  0  0  0  0
  -21.5650   -3.4542   25.7761 F   0  0  0  0  0  0
  -30.0409  -13.2690   20.4549 N   0  0  0  0  0  0
  -26.3055  -12.9298   20.3349 N   0  0  0  0  0  0
  -25.9319  -11.6432   20.5637 N   0  0  0  0  0  0
  -22.0510  -12.8159   22.0421 N   0  0  0  0  0  0
  -25.4470  -15.1852   20.4708 N   0  0  0  0  0  0
  -31.8255  -14.6472   20.0975 O   0  0  0  0  0  0
  -21.6610   -6.8858   21.4254 O   0  0  0  0  0  0
  -22.3597  -14.5519   20.6763 O   0  0  0  0  0  0
  -24.6130  -31.8689   23.2093 C   0  0  0  0  0  0
  -25.9024  -32.4839   23.8396 C   0  0  1  0  0  0
  -27.2557  -27.4577   20.0820 C   0  0  0  0  0  0
  -25.5884  -33.8633   24.2328 N   0  0  0  0  0  0
  -23.4005  -30.4915   21.5475 C   0  0  2  0  0  0
  -24.8482  -28.9524   20.1173 C   0  0  0  0  0  0
  -22.7419  -29.4674   22.4975 C   0  0  0  0  0  0
  -18.0288  -28.1399   22.8475 C   0  0  0  0  0  0
  -24.1475  -36.7326   23.2641 C   0  0  0  0  0  0
  -25.9270  -30.8392   21.3584 C   0  0  0  0  0  0
  -26.0041  -29.4729   20.7095 C   0  0  0  0  0  0
  -27.2039  -28.7318   20.6897 C   0  0  0  0  0  0
  -26.0707  -26.9311   19.5118 C   0  0  0  0  0  0
  -24.8750  -27.6790   19.5192 C   0  0  0  0  0  0
  -23.6090  -29.8188   20.1640 C   0  0  0  0  0  0
  -25.4104  -36.3128   24.0345 C   0  0  1  0  0  0
  -20.5876  -28.3687   23.1321 C   0  0  2  0  0  0
  -20.6779  -26.9413   22.5454 C   0  0  0  0  0  0
  -19.5784  -26.6382   21.5230 C   0  0  0  0  0  0
  -18.1941  -26.7960   22.1581 C   0  0  0  0  0  0
  -19.1536  -28.8857   23.2908 C   0  0  0  0  0  0
  -18.9461  -30.1452   23.8946 C   0  0  0  0  0  0
  -17.6456  -30.6588   24.0584 C   0  0  0  0  0  0
  -25.9044  -34.9495   23.5144 C   0  0  0  0  0  0
  -16.5348  -29.9102   23.6315 C   0  0  0  0  0  0
  -16.7268  -28.6522   23.0327 C   0  0  0  0  0  0
  -26.4453  -31.6621   25.0726 C   0  0  0  0  0  0
  -25.3724  -31.3755   26.1482 C   0  0  0  0  0  0
  -27.0265  -30.3058   24.6097 C   0  0  0  0  0  0
  -27.6057  -32.4336   25.7467 C   0  0  0  0  0  0
  -27.5603  -37.1793   24.8442 C   0  0  0  0  0  0
  -21.4156  -29.3026   22.3698 N   0  0  0  0  0  0
  -26.4287  -37.3817   23.9434 N   0  0  0  0  0  0
  -24.6645  -31.0816   22.0972 N   0  0  0  0  0  0
  -23.4193  -28.8240   23.3035 O   0  0  0  0  0  0
  -28.4801  -26.8178   20.0801 O   0  0  0  0  0  0
  -26.5599  -34.8945   22.4698 O   0  0  0  0  0  0
  -23.5333  -32.1422   23.7506 O   0  0  0  0  0  0
  -27.0663  -20.4324   21.1619 C   0  0  0  0  0  0
  -29.7010  -21.1327   20.5883 C   0  0  0  0  0  0
  -27.3239  -21.6396   20.4868 C   0  0  0  0  0  0
  -28.1077  -19.5647   21.5608 C   0  0  0  0  0  0
  -28.6597  -22.0171   20.2276 C   0  0  0  0  0  0
  -29.4584  -19.8966   21.2348 C   0  0  0  0  0  0
  -26.1449  -22.4921   20.0446 C   0  0  0  0  0  0
  -27.7947  -19.4049   24.5421 C   0  0  0  0  0  0
  -26.5467  -17.2582   24.0739 C   0  0  0  0  0  0
  -30.1462  -16.8909   20.6270 C   0  0  0  0  0  0
  -30.5962  -17.7605   21.8213 C   0  0  0  0  0  0
  -28.6970  -25.6022   19.3593 C   0  0  0  0  0  0
  -28.6941  -24.3917   20.3112 C   0  0  0  0  0  0
  -26.9859  -18.6121   23.5030 C   0  0  0  0  0  0
  -27.7605  -18.4149   22.2826 N   0  0  0  0  0  0
  -29.9388  -15.4786   20.9738 N   0  0  0  0  0  0
  -28.9697  -23.1919   19.5826 O   0  0  0  0  0  0
  -30.6036  -19.1605   21.5175 O   0  0  0  0  0  0
  -31.4641  -12.3708   19.1325 H   0  0  0  0  0  0
  -30.2836  -11.2736   19.7974 H   0  0  0  0  0  0
  -29.7476  -11.8529   17.3923 H   0  0  0  0  0  0
  -29.6742  -13.5467   17.8218 H   0  0  0  0  0  0
  -27.8199  -11.3326   18.7678 H   0  0  0  0  0  0
  -27.3812  -12.6961   17.7725 H   0  0  0  0  0  0
  -27.7084  -14.2600   19.5998 H   0  0  0  0  0  0
  -28.6692  -11.9445   21.3487 H   0  0  0  0  0  0
  -28.4688  -13.5923   21.8724 H   0  0  0  0  0  0
  -25.2760   -9.5621   22.4793 H   0  0  0  0  0  0
  -23.9971   -7.4604   22.7494 H   0  0  0  0  0  0
  -21.0852   -8.8772   19.8963 H   0  0  0  0  0  0
  -22.3735  -10.9661   19.6169 H   0  0  0  0  0  0
  -21.1929   -7.6148   23.9736 H   0  0  0  0  0  0
  -21.1556   -6.0538   25.9122 H   0  0  0  0  0  0
  -22.0554   -2.7603   23.2882 H   0  0  0  0  0  0
  -22.4034  -11.9723   22.4716 H   0  0  0  0  0  0
  -21.1176  -13.1235   22.2640 H   0  0  0  0  0  0
  -24.7187  -15.8371   20.7408 H   0  0  0  0  0  0
  -26.3487  -15.6308   20.3707 H   0  0  0  0  0  0
  -26.7110  -32.5555   23.1183 H   0  0  0  0  0  0
  -25.0037  -33.9803   25.0476 H   0  0  0  0  0  0
  -22.6897  -31.3080   21.4074 H   0  0  0  0  0  0
  -23.3761  -35.9627   23.3256 H   0  0  0  0  0  0
  -24.3591  -36.8987   22.2065 H   0  0  0  0  0  0
  -23.7178  -37.6498   23.6685 H   0  0  0  0  0  0
  -26.0383  -31.6019   20.5854 H   0  0  0  0  0  0
  -26.8175  -30.8966   21.9728 H   0  0  0  0  0  0
  -28.1021  -29.1413   21.1316 H   0  0  0  0  0  0
  -26.0431  -25.9511   19.0607 H   0  0  0  0  0  0
  -23.9840  -27.2692   19.0628 H   0  0  0  0  0  0
  -23.7172  -30.5903   19.3998 H   0  0  0  0  0  0
  -22.7348  -29.2345   19.8716 H   0  0  0  0  0  0
  -25.1266  -36.1991   25.0832 H   0  0  0  0  0  0
  -20.9990  -28.3274   24.1436 H   0  0  0  0  0  0
  -20.5649  -26.2314   23.3662 H   0  0  0  0  0  0
  -21.6657  -26.7436   22.1278 H   0  0  0  0  0  0
  -19.6949  -25.6291   21.1278 H   0  0  0  0  0  0
  -19.6772  -27.3182   20.6761 H   0  0  0  0  0  0
  -17.4254  -26.6769   21.3925 H   0  0  0  0  0  0
  -18.0261  -26.0076   22.8934 H   0  0  0  0  0  0
  -19.7942  -30.7244   24.2349 H   0  0  0  0  0  0
  -17.5018  -31.6267   24.5190 H   0  0  0  0  0  0
  -15.5354  -30.3028   23.7613 H   0  0  0  0  0  0
  -15.8669  -28.0854   22.7019 H   0  0  0  0  0  0
  -24.5908  -30.7077   25.7827 H   0  0  0  0  0  0
  -24.8901  -32.2926   26.4887 H   0  0  0  0  0  0
  -25.8071  -30.8967   27.0267 H   0  0  0  0  0  0
  -26.2790  -29.6835   24.1156 H   0  0  0  0  0  0
  -27.4028  -29.7279   25.4548 H   0  0  0  0  0  0
  -27.8632  -30.4362   23.9233 H   0  0  0  0  0  0
  -27.2679  -33.3602   26.2125 H   0  0  0  0  0  0
  -28.3812  -32.6956   25.0257 H   0  0  0  0  0  0
  -28.0796  -31.8420   26.5311 H   0  0  0  0  0  0
  -28.2578  -38.0133   24.7567 H   0  0  0  0  0  0
  -28.1139  -36.2680   24.6136 H   0  0  0  0  0  0
  -27.2369  -37.1291   25.8852 H   0  0  0  0  0  0
  -20.9334  -29.8688   21.6860 H   0  0  0  0  0  0
  -26.0179  -38.2881   24.1489 H   0  0  0  0  0  0
  -26.0390  -20.1715   21.3661 H   0  0  0  0  0  0
  -30.7222  -21.4080   20.3638 H   0  0  0  0  0  0
  -25.3270  -21.8650   19.6881 H   0  0  0  0  0  0
  -26.4129  -23.1667   19.2332 H   0  0  0  0  0  0
  -25.7708  -23.0862   20.8787 H   0  0  0  0  0  0
  -27.2473  -19.4981   25.4806 H   0  0  0  0  0  0
  -28.0116  -20.4165   24.2009 H   0  0  0  0  0  0
  -28.7467  -18.9186   24.7601 H   0  0  0  0  0  0
  -25.9962  -17.3971   25.0061 H   0  0  0  0  0  0
  -27.3997  -16.6141   24.2914 H   0  0  0  0  0  0
  -25.8873  -16.7260   23.3865 H   0  0  0  0  0  0
  -30.8559  -17.0047   19.8031 H   0  0  0  0  0  0
  -29.1948  -17.2533   20.2390 H   0  0  0  0  0  0
  -31.6242  -17.4929   22.0650 H   0  0  0  0  0  0
  -30.0426  -17.5501   22.7344 H   0  0  0  0  0  0
  -28.0217  -25.4654   18.5164 H   0  0  0  0  0  0
  -29.6877  -25.6819   18.9116 H   0  0  0  0  0  0
  -27.7479  -24.3592   20.8458 H   0  0  0  0  0  0
  -29.4668  -24.5198   21.0702 H   0  0  0  0  0  0
  -26.0726  -19.1643   23.2752 H   0  0  0  0  0  0
  -28.5361  -17.7742   22.4055 H   0  0  0  0  0  0
  -29.0222  -15.2290   21.3105 H   0  0  0  0  0  0
  1 25  1  0  0  0
  1 30  2  0  0  0
  1 86  1  0  0  0
  2  3  1  0  0  0
  2 25  1  0  0  0
  2 89  1  0  0  0
  2 90  1  0  0  0
  3  4  1  0  0  0
  3 91  1  0  0  0
  3 92  1  0  0  0
  4  5  1  0  0  0
  4 93  1  0  0  0
  4 94  1  0  0  0
  5  6  1  0  0  0
  5 26  1  0  0  0
  5 95  1  0  0  0
  6 25  1  0  0  0
  6 96  1  0  0  0
  6 97  1  0  0  0
  7  8  2  0  0  0
  7 26  1  0  0  0
  7 29  1  0  0  0
  8  9  1  0  0  0
  8 22  1  0  0  0
  9 10  1  0  0  0
  9 27  2  0  0  0
 10 11  2  0  0  0
 10 15  1  0  0  0
 11 12  1  0  0  0
 11 98  1  0  0  0
 12 13  2  0  0  0
 12 99  1  0  0  0
 13 14  1  0  0  0
 13 31  1  0  0  0
 14 15  2  0  0  0
 14100  1  0  0  0
 15101  1  0  0  0
 16 17  2  0  0  0
 16 21  1  0  0  0
 16 31  1  0  0  0
 17 18  1  0  0  0
 17102  1  0  0  0
 18 19  2  0  0  0
 18103  1  0  0  0
 19 20  1  0  0  0
 19 24  1  0  0  0
 20 21  2  0  0  0
 20104  1  0  0  0
 21 23  1  0  0  0
 22 28  1  0  0  0
 22 32  2  0  0  0
 26 27  1  0  0  0
 28105  1  0  0  0
 28106  1  0  0  0
 29107  1  0  0  0
 29108  1  0  0  0
 33 34  1  0  0  0
 33 66  1  0  0  0
 33 70  2  0  0  0
 34 36  1  0  0  0
 34 59  1  0  0  0
 34109  1  0  0  0
 35 44  2  0  0  0
 35 45  1  0  0  0
 35 68  1  0  0  0
 36 56  1  0  0  0
 36110  1  0  0  0
 37 39  1  0  0  0
 37 47  1  0  0  0
 37 66  1  0  0  0
 37111  1  0  0  0
 38 43  2  0  0  0
 38 46  1  0  0  0
 38 47  1  0  0  0
 39 64  1  0  0  0
 39 67  2  0  0  0
 40 52  1  0  0  0
 40 53  2  0  0  0
 40 58  1  0  0  0
 41112  1  0  0  0
 41113  1  0  0  0
 41114  1  0  0  0
 41 48  1  0  0  0
 42 43  1  0  0  0
 42 66  1  0  0  0
 42115  1  0  0  0
 42116  1  0  0  0
 43 44  1  0  0  0
 44117  1  0  0  0
 45 46  2  0  0  0
 45118  1  0  0  0
 46119  1  0  0  0
 47120  1  0  0  0
 47121  1  0  0  0
 48 56  1  0  0  0
 48 65  1  0  0  0
 48122  1  0  0  0
 49 50  1  0  0  0
 49 53  1  0  0  0
 49 64  1  0  0  0
 49123  1  0  0  0
 50 51  1  0  0  0
 50124  1  0  0  0
 50125  1  0  0  0
 51 52  1  0  0  0
 51126  1  0  0  0
 51127  1  0  0  0
 52128  1  0  0  0
 52129  1  0  0  0
 53 54  1  0  0  0
 54 55  2  0  0  0
 54130  1  0  0  0
 55 57  1  0  0  0
 55131  1  0  0  0
 56 69  2  0  0  0
 57 58  2  0  0  0
 57132  1  0  0  0
 58133  1  0  0  0
 59 60  1  0  0  0
 59 61  1  0  0  0
 59 62  1  0  0  0
 60134  1  0  0  0
 60135  1  0  0  0
 60136  1  0  0  0
 61137  1  0  0  0
 61138  1  0  0  0
 61139  1  0  0  0
 62140  1  0  0  0
 62141  1  0  0  0
 62142  1  0  0  0
 63 65  1  0  0  0
 63143  1  0  0  0
 63144  1  0  0  0
 63145  1  0  0  0
 64146  1  0  0  0
 65147  1  0  0  0
 68 82  1  0  0  0
 71 73  2  0  0  0
 71 74  1  0  0  0
 71148  1  0  0  0
 72 75  2  0  0  0
 72 76  1  0  0  0
 72149  1  0  0  0
 73 75  1  0  0  0
 73 77  1  0  0  0
 74 76  2  0  0  0
 74 85  1  0  0  0
 75 87  1  0  0  0
 76 88  1  0  0  0
 77150  1  0  0  0
 77151  1  0  0  0
 77152  1  0  0  0
 78153  1  0  0  0
 78154  1  0  0  0
 78155  1  0  0  0
 78 84  1  0  0  0
 79 84  1  0  0  0
 79156  1  0  0  0
 79157  1  0  0  0
 79158  1  0  0  0
 80 81  1  0  0  0
 80 86  1  0  0  0
 80159  1  0  0  0
 80160  1  0  0  0
 81 88  1  0  0  0
 81161  1  0  0  0
 81162  1  0  0  0
 82 83  1  0  0  0
 82163  1  0  0  0
 82164  1  0  0  0
 83 87  1  0  0  0
 83165  1  0  0  0
 83166  1  0  0  0
 84 85  1  0  0  0
 84167  1  0  0  0
 85168  1  0  0  0
 86169  1  0  0  0
M  ISO  4   1 100  68 101  82 101  86 100
M  END
> <chiral flag>
0

> <version>
0

> <s_m_source_file>
/data/baiqing/PycharmProjects/Reinvent-master-3.2/result/LINK_invent/BTK/process_docking_weight1_custom_sum_contain_oxygen_bond_distance_aromatic_linkinvent_7_9_3/rearranged_h_0148.sdf

> <i_m_source_file_index>
12

> <r_mmod_Potential_Energy-OPLS-2005>
-99.6597518920898

> <r_mmod_Stretch_Energy-OPLS-2005>
37.9718780517578

> <r_mmod_Bend_Energy-OPLS-2005>
133.447402954102

> <r_mmod_Torsional_Energy-OPLS-2005>
226.299026489258

> <r_mmod_Improper_Torsional_Energy-OPLS-2005>
11.3743524551392

> <r_mmod_Van_der_Waal_Energy-OPLS-2005>
156.150390625

> <r_mmod_Electrostatic_Energy-OPLS-2005>
-472.340789794922

> <r_mmod_Solvation_Energy-OPLS-2005>
-205.372467041016

> <b_mmod_Minimization_Converged-OPLS-2005>
0

> <r_mmod_RMS_Derivative-OPLS-2005>
4.23204517364502

$$$$
12
                    3D
 Structure written by MMmdl.
175184  0  0  1  0            999 V2000
  -30.7617  -14.4116   20.6611 C   0  0  0  0  0  0
  -30.4196  -12.3086   19.4076 C   0  0  0  0  0  0
  -29.4872  -12.5238   18.2004 C   0  0  0  0  0  0
  -28.0112  -12.3778   18.6167 C   0  0  0  0  0  0
  -27.6646  -13.2075   19.8812 C   0  0  2  0  0  0
  -28.7050  -12.9740   20.9998 C   0  0  0  0  0  0
  -25.2596  -13.8180   20.5687 C   0  0  0  0  0  0
  -24.1843  -13.0452   20.9175 C   0  0  0  0  0  0
  -24.6395  -11.6922   20.8727 C   0  0  0  0  0  0
  -23.9054  -10.4306   21.0407 C   0  0  0  0  0  0
  -24.3611   -9.4229   21.9184 C   0  0  0  0  0  0
  -23.6300   -8.2257   22.0749 C   0  0  0  0  0  0
  -22.4279   -8.0288   21.3540 C   0  0  0  0  0  0
  -21.9913   -9.0263   20.4640 C   0  0  0  0  0  0
  -22.7234  -10.2146   20.3058 C   0  0  0  0  0  0
  -21.6852   -6.0742   22.5286 C   0  0  0  0  0  0
  -21.4007   -6.5643   23.8220 C   0  0  0  0  0  0
  -21.3662   -5.6791   24.9178 C   0  0  0  0  0  0
  -21.6050   -4.3057   24.7227 C   0  0  0  0  0  0
  -21.8820   -3.8151   23.4347 C   0  0  0  0  0  0
  -21.9195   -4.6969   22.3403 C   0  0  0  0  0  0
  -22.7869  -13.5252   21.1852 C   0  0  0  0  0  0
  -22.1665   -4.2156   21.0981 F   0  0  0  0  0  0
  -21.5633   -3.4539   25.7744 F   0  0  0  0  0  0
  -30.0452  -13.2714   20.4575 N   0  0  0  0  0  0
  -26.3036  -12.9344   20.3396 N   0  0  0  0  0  0
  -25.9319  -11.6501   20.5771 N   0  0  0  0  0  0
  -22.0507  -12.8231   22.0403 N   0  0  0  0  0  0
  -25.4348  -15.1903   20.4112 N   0  0  0  0  0  0
  -31.7962  -14.6587   20.0358 O   0  0  0  0  0  0
  -21.6642   -6.8883   21.4248 O   0  0  0  0  0  0
  -22.3554  -14.5560   20.6715 O   0  0  0  0  0  0
  -24.6179  -31.8690   23.2160 C   0  0  0  0  0  0
  -25.9076  -32.4826   23.8439 C   0  0  1  0  0  0
  -27.2190  -27.4175   20.0815 C   0  0  0  0  0  0
  -25.5921  -33.8625   24.2361 N   0  0  0  0  0  0
  -23.4044  -30.5004   21.5566 C   0  0  2  0  0  0
  -24.8464  -28.9805   20.1091 C   0  0  0  0  0  0
  -22.7425  -29.4665   22.4970 C   0  0  0  0  0  0
  -18.0275  -28.1348   22.8490 C   0  0  0  0  0  0
  -24.1480  -36.7327   23.2631 C   0  0  0  0  0  0
  -25.9400  -30.8290   21.3753 C   0  0  0  0  0  0
  -26.0120  -29.4664   20.7133 C   0  0  0  0  0  0
  -27.2012  -28.6922   20.7004 C   0  0  0  0  0  0
  -26.0299  -26.9754   19.4427 C   0  0  0  0  0  0
  -24.8502  -27.7335   19.4723 C   0  0  0  0  0  0
  -23.6123  -29.8500   20.1659 C   0  0  0  0  0  0
  -25.4093  -36.3106   24.0344 C   0  0  1  0  0  0
  -20.5868  -28.3649   23.1298 C   0  0  2  0  0  0
  -20.6756  -26.9370   22.5421 C   0  0  0  0  0  0
  -19.5740  -26.6359   21.5210 C   0  0  0  0  0  0
  -18.1915  -26.7898   22.1605 C   0  0  0  0  0  0
  -19.1528  -28.8812   23.2894 C   0  0  0  0  0  0
  -18.9443  -30.1421   23.8900 C   0  0  0  0  0  0
  -17.6442  -30.6550   24.0559 C   0  0  0  0  0  0
  -25.9027  -34.9470   23.5143 C   0  0  0  0  0  0
  -16.5341  -29.9055   23.6307 C   0  0  0  0  0  0
  -16.7266  -28.6469   23.0332 C   0  0  0  0  0  0
  -26.4494  -31.6600   25.0766 C   0  0  0  0  0  0
  -25.3758  -31.3719   26.1516 C   0  0  0  0  0  0
  -27.0311  -30.3018   24.6171 C   0  0  0  0  0  0
  -27.6053  -32.4340   25.7527 C   0  0  0  0  0  0
  -27.5579  -37.1807   24.8455 C   0  0  0  0  0  0
  -21.4141  -29.3039   22.3714 N   0  0  0  0  0  0
  -26.4276  -37.3792   23.9419 N   0  0  0  0  0  0
  -24.6728  -31.0789   22.1073 N   0  0  0  0  0  0
  -23.4203  -28.8172   23.2984 O   0  0  0  0  0  0
  -28.3606  -26.6220   20.1284 O   0  0  0  0  0  0
  -26.5566  -34.8911   22.4689 O   0  0  0  0  0  0
  -23.5362  -32.1460   23.7540 O   0  0  0  0  0  0
  -29.9263  -20.7662   19.3823 C   0  0  0  0  0  0
  -29.3402  -21.0110   21.7131 C   0  0  0  0  0  0
  -30.5346  -18.9759   20.9735 C   0  0  0  0  0  0
  -29.3197  -21.5166   20.4016 C   0  0  0  0  0  0
  -30.5216  -19.5150   19.6506 C   0  0  0  0  0  0
  -29.9404  -19.7640   22.0119 C   0  0  0  0  0  0
  -32.5944  -17.7001   21.9699 C   0  0  0  0  0  0
  -31.2515  -17.6212   21.2297 C   0  0  1  0  0  0
  -32.3297  -16.3448   22.6369 C   0  0  2  0  0  0
  -30.8465  -16.4745   22.2036 C   0  0  2  0  0  0
  -31.1293  -18.7800   18.4642 C   0  0  0  0  0  0
  -29.8903  -19.3380   23.4711 C   0  0  0  0  0  0
  -32.2768  -14.7551   24.6007 C   0  0  0  0  0  0
  -34.1796  -16.3942   24.3715 C   0  0  0  0  0  0
  -28.5188  -22.7670   20.0517 C   0  0  0  0  0  0
  -29.1519  -24.1602   20.3183 C   0  0  0  0  0  0
  -28.1370  -25.2247   19.8437 C   0  0  0  0  0  0
  -32.6852  -16.1501   24.1098 C   0  0  0  0  0  0
  -30.2793  -15.2411   21.6063 N   0  0  0  0  0  0
  -31.4619  -12.4070   19.0977 H   0  0  0  0  0  0
  -30.3235  -11.2909   19.7886 H   0  0  0  0  0  0
  -29.7244  -11.8134   17.4073 H   0  0  0  0  0  0
  -29.6541  -13.5165   17.7786 H   0  0  0  0  0  0
  -27.8183  -11.3202   18.8026 H   0  0  0  0  0  0
  -27.3582  -12.6644   17.7912 H   0  0  0  0  0  0
  -27.7156  -14.2597   19.5975 H   0  0  0  0  0  0
  -28.6733  -11.9351   21.3335 H   0  0  0  0  0  0
  -28.4495  -13.5658   21.8789 H   0  0  0  0  0  0
  -25.2758   -9.5711   22.4748 H   0  0  0  0  0  0
  -24.0022   -7.4646   22.7456 H   0  0  0  0  0  0
  -21.0851   -8.8778   19.8939 H   0  0  0  0  0  0
  -22.3699  -10.9681   19.6163 H   0  0  0  0  0  0
  -21.1989   -7.6149   23.9728 H   0  0  0  0  0  0
  -21.1483   -6.0517   25.9083 H   0  0  0  0  0  0
  -22.0595   -2.7614   23.2850 H   0  0  0  0  0  0
  -22.4105  -11.9883   22.4781 H   0  0  0  0  0  0
  -21.1133  -13.1268   22.2604 H   0  0  0  0  0  0
  -24.6730  -15.8521   20.5162 H   0  0  0  0  0  0
  -26.2995  -15.6274   20.1163 H   0  0  0  0  0  0
  -26.7140  -32.5526   23.1195 H   0  0  0  0  0  0
  -25.0110  -33.9802   25.0530 H   0  0  0  0  0  0
  -22.6926  -31.3181   21.4253 H   0  0  0  0  0  0
  -23.3723  -35.9678   23.3293 H   0  0  0  0  0  0
  -24.3585  -36.8958   22.2051 H   0  0  0  0  0  0
  -23.7261  -37.6538   23.6655 H   0  0  0  0  0  0
  -26.0606  -31.5990   20.6120 H   0  0  0  0  0  0
  -26.8256  -30.8754   21.9973 H   0  0  0  0  0  0
  -28.0958  -29.0610   21.1822 H   0  0  0  0  0  0
  -25.9724  -26.0390   18.9088 H   0  0  0  0  0  0
  -23.9566  -27.3618   18.9910 H   0  0  0  0  0  0
  -23.7243  -30.6351   19.4174 H   0  0  0  0  0  0
  -22.7344  -29.2767   19.8622 H   0  0  0  0  0  0
  -25.1258  -36.1974   25.0832 H   0  0  0  0  0  0
  -20.9968  -28.3216   24.1414 H   0  0  0  0  0  0
  -20.5632  -26.2251   23.3617 H   0  0  0  0  0  0
  -21.6629  -26.7386   22.1223 H   0  0  0  0  0  0
  -19.6897  -25.6273   21.1222 H   0  0  0  0  0  0
  -19.6683  -27.3179   20.6742 H   0  0  0  0  0  0
  -17.4195  -26.6679   21.3987 H   0  0  0  0  0  0
  -18.0280  -26.0020   22.8965 H   0  0  0  0  0  0
  -19.7924  -30.7239   24.2263 H   0  0  0  0  0  0
  -17.4995  -31.6228   24.5164 H   0  0  0  0  0  0
  -15.5340  -30.2952   23.7614 H   0  0  0  0  0  0
  -15.8667  -28.0798   22.7017 H   0  0  0  0  0  0
  -24.5969  -30.7000   25.7898 H   0  0  0  0  0  0
  -24.8891  -32.2868   26.4896 H   0  0  0  0  0  0
  -25.8127  -30.8975   27.0317 H   0  0  0  0  0  0
  -26.2855  -29.6796   24.1199 H   0  0  0  0  0  0
  -27.4013  -29.7244   25.4657 H   0  0  0  0  0  0
  -27.8737  -30.4292   23.9373 H   0  0  0  0  0  0
  -27.2642  -33.3633   26.2105 H   0  0  0  0  0  0
  -28.3855  -32.6932   25.0359 H   0  0  0  0  0  0
  -28.0736  -31.8481   26.5452 H   0  0  0  0  0  0
  -28.2571  -38.0120   24.7493 H   0  0  0  0  0  0
  -28.1096  -36.2648   24.6264 H   0  0  0  0  0  0
  -27.2314  -37.1461   25.8861 H   0  0  0  0  0  0
  -20.9279  -29.8838   21.7013 H   0  0  0  0  0  0
  -26.0163  -38.2870   24.1414 H   0  0  0  0  0  0
  -29.8993  -21.1420   18.3689 H   0  0  0  0  0  0
  -28.8563  -21.5787   22.4961 H   0  0  0  0  0  0
  -32.6490  -18.5177   22.6873 H   0  0  0  0  0  0
  -33.4597  -17.7185   21.3065 H   0  0  0  0  0  0
  -31.4448  -17.1451   20.2754 H   0  0  0  0  0  0
  -32.8563  -15.6007   22.0406 H   0  0  0  0  0  0
  -30.2484  -16.8199   23.0424 H   0  0  0  0  0  0
  -31.0549  -19.3638   17.5462 H   0  0  0  0  0  0
  -30.6075  -17.8391   18.2883 H   0  0  0  0  0  0
  -32.1862  -18.5730   18.6357 H   0  0  0  0  0  0
  -29.7011  -20.1958   24.1186 H   0  0  0  0  0  0
  -30.8229  -18.8988   23.8146 H   0  0  0  0  0  0
  -29.0778  -18.6302   23.6364 H   0  0  0  0  0  0
  -31.2119  -14.5755   24.4510 H   0  0  0  0  0  0
  -32.4831  -14.6397   25.6654 H   0  0  0  0  0  0
  -32.8231  -13.9744   24.0692 H   0  0  0  0  0  0
  -34.4818  -17.3988   24.0755 H   0  0  0  0  0  0
  -34.8003  -15.6856   23.8218 H   0  0  0  0  0  0
  -34.4133  -16.2857   25.4310 H   0  0  0  0  0  0
  -27.5763  -22.6961   20.5964 H   0  0  0  0  0  0
  -28.2421  -22.7048   18.9982 H   0  0  0  0  0  0
  -30.0962  -24.2696   19.7830 H   0  0  0  0  0  0
  -29.3620  -24.2793   21.3813 H   0  0  0  0  0  0
  -27.2015  -24.9273   20.3198 H   0  0  0  0  0  0
  -28.0061  -25.1140   18.7653 H   0  0  0  0  0  0
  -32.1296  -16.8793   24.7020 H   0  0  0  0  0  0
  -29.4129  -14.9281   22.0194 H   0  0  0  0  0  0
  1 25  1  0  0  0
  1 30  2  0  0  0
  1 89  1  0  0  0
  2  3  1  0  0  0
  2 25  1  0  0  0
  2 90  1  0  0  0
  2 91  1  0  0  0
  3  4  1  0  0  0
  3 92  1  0  0  0
  3 93  1  0  0  0
  4  5  1  0  0  0
  4 94  1  0  0  0
  4 95  1  0  0  0
  5  6  1  0  0  0
  5 26  1  0  0  0
  5 96  1  0  0  0
  6 25  1  0  0  0
  6 97  1  0  0  0
  6 98  1  0  0  0
  7  8  2  0  0  0
  7 26  1  0  0  0
  7 29  1  0  0  0
  8  9  1  0  0  0
  8 22  1  0  0  0
  9 10  1  0  0  0
  9 27  2  0  0  0
 10 11  2  0  0  0
 10 15  1  0  0  0
 11 12  1  0  0  0
 11 99  1  0  0  0
 12 13  2  0  0  0
 12100  1  0  0  0
 13 14  1  0  0  0
 13 31  1  0  0  0
 14 15  2  0  0  0
 14101  1  0  0  0
 15102  1  0  0  0
 16 17  2  0  0  0
 16 21  1  0  0  0
 16 31  1  0  0  0
 17 18  1  0  0  0
 17103  1  0  0  0
 18 19  2  0  0  0
 18104  1  0  0  0
 19 20  1  0  0  0
 19 24  1  0  0  0
 20 21  2  0  0  0
 20105  1  0  0  0
 21 23  1  0  0  0
 22 28  1  0  0  0
 22 32  2  0  0  0
 26 27  1  0  0  0
 28106  1  0  0  0
 28107  1  0  0  0
 29108  1  0  0  0
 29109  1  0  0  0
 33 34  1  0  0  0
 33 66  1  0  0  0
 33 70  2  0  0  0
 34 36  1  0  0  0
 34 59  1  0  0  0
 34110  1  0  0  0
 35 44  2  0  0  0
 35 45  1  0  0  0
 35 68  1  0  0  0
 36 56  1  0  0  0
 36111  1  0  0  0
 37 39  1  0  0  0
 37 47  1  0  0  0
 37 66  1  0  0  0
 37112  1  0  0  0
 38 43  2  0  0  0
 38 46  1  0  0  0
 38 47  1  0  0  0
 39 64  1  0  0  0
 39 67  2  0  0  0
 40 52  1  0  0  0
 40 53  2  0  0  0
 40 58  1  0  0  0
 41113  1  0  0  0
 41114  1  0  0  0
 41115  1  0  0  0
 41 48  1  0  0  0
 42 43  1  0  0  0
 42 66  1  0  0  0
 42116  1  0  0  0
 42117  1  0  0  0
 43 44  1  0  0  0
 44118  1  0  0  0
 45 46  2  0  0  0
 45119  1  0  0  0
 46120  1  0  0  0
 47121  1  0  0  0
 47122  1  0  0  0
 48 56  1  0  0  0
 48 65  1  0  0  0
 48123  1  0  0  0
 49 50  1  0  0  0
 49 53  1  0  0  0
 49 64  1  0  0  0
 49124  1  0  0  0
 50 51  1  0  0  0
 50125  1  0  0  0
 50126  1  0  0  0
 51 52  1  0  0  0
 51127  1  0  0  0
 51128  1  0  0  0
 52129  1  0  0  0
 52130  1  0  0  0
 53 54  1  0  0  0
 54 55  2  0  0  0
 54131  1  0  0  0
 55 57  1  0  0  0
 55132  1  0  0  0
 56 69  2  0  0  0
 57 58  2  0  0  0
 57133  1  0  0  0
 58134  1  0  0  0
 59 60  1  0  0  0
 59 61  1  0  0  0
 59 62  1  0  0  0
 60135  1  0  0  0
 60136  1  0  0  0
 60137  1  0  0  0
 61138  1  0  0  0
 61139  1  0  0  0
 61140  1  0  0  0
 62141  1  0  0  0
 62142  1  0  0  0
 62143  1  0  0  0
 63 65  1  0  0  0
 63144  1  0  0  0
 63145  1  0  0  0
 63146  1  0  0  0
 64147  1  0  0  0
 65148  1  0  0  0
 68 87  1  0  0  0
 71 74  2  0  0  0
 71 75  1  0  0  0
 71149  1  0  0  0
 72 74  1  0  0  0
 72 76  2  0  0  0
 72150  1  0  0  0
 73 75  2  0  0  0
 73 76  1  0  0  0
 73 78  1  0  0  0
 74 85  1  0  0  0
 75 81  1  0  0  0
 76 82  1  0  0  0
 77 78  1  0  0  0
 77151  1  0  0  0
 77152  1  0  0  0
 77 79  1  0  0  0
 78 80  1  0  0  0
 78153  1  0  0  0
 79 80  1  0  0  0
 79 88  1  0  0  0
 79154  1  0  0  0
 80 89  1  0  0  0
 80155  1  0  0  0
 81156  1  0  0  0
 81157  1  0  0  0
 81158  1  0  0  0
 82159  1  0  0  0
 82160  1  0  0  0
 82161  1  0  0  0
 83162  1  0  0  0
 83163  1  0  0  0
 83164  1  0  0  0
 83 88  1  0  0  0
 84 88  1  0  0  0
 84165  1  0  0  0
 84166  1  0  0  0
 84167  1  0  0  0
 85 86  1  0  0  0
 85168  1  0  0  0
 85169  1  0  0  0
 86 87  1  0  0  0
 86170  1  0  0  0
 86171  1  0  0  0
 87172  1  0  0  0
 87173  1  0  0  0
 88174  1  0  0  0
 89175  1  0  0  0
M  ISO  4   1 100  68 101  87 101  89 100
M  END
> <chiral flag>
0

> <version>
0

> <s_m_source_file>
/data/baiqing/PycharmProjects/Reinvent-master-3.2/result/LINK_invent/BTK/process_docking_weight1_custom_sum_contain_oxygen_bond_distance_aromatic_linkinvent_7_9_3/rearranged_h_0148.sdf

> <i_m_source_file_index>
13

> <r_mmod_Potential_Energy-OPLS-2005>
8.53149700164795

> <r_mmod_Stretch_Energy-OPLS-2005>
45.9079246520996

> <r_mmod_Bend_Energy-OPLS-2005>
137.096496582031

> <r_mmod_Torsional_Energy-OPLS-2005>
239.595626831055

> <r_mmod_Improper_Torsional_Energy-OPLS-2005>
2.38320589065552

> <r_mmod_Van_der_Waal_Energy-OPLS-2005>
169.9775390625

> <r_mmod_Electrostatic_Energy-OPLS-2005>
-406.082611083984

> <r_mmod_Solvation_Energy-OPLS-2005>
-193.749633789062

> <b_mmod_Minimization_Converged-OPLS-2005>
0

> <r_mmod_RMS_Derivative-OPLS-2005>
1.86393177509308

$$$$
13
                    3D
 Structure written by MMmdl.
168177  0  0  1  0            999 V2000
  -30.6839  -14.6231   20.5133 C   0  0  0  0  0  0
  -30.4198  -12.3946   19.4520 C   0  0  0  0  0  0
  -29.5014  -12.5065   18.2183 C   0  0  0  0  0  0
  -28.0243  -12.3463   18.6289 C   0  0  0  0  0  0
  -27.6434  -13.2202   19.8557 C   0  0  2  0  0  0
  -28.6884  -13.0893   20.9835 C   0  0  0  0  0  0
  -25.2491  -13.8153   20.5648 C   0  0  0  0  0  0
  -24.1790  -13.0404   20.9187 C   0  0  0  0  0  0
  -24.6366  -11.6886   20.8720 C   0  0  0  0  0  0
  -23.9047  -10.4269   21.0400 C   0  0  0  0  0  0
  -24.3600   -9.4195   21.9177 C   0  0  0  0  0  0
  -23.6289   -8.2227   22.0740 C   0  0  0  0  0  0
  -22.4267   -8.0262   21.3545 C   0  0  0  0  0  0
  -21.9905   -9.0226   20.4642 C   0  0  0  0  0  0
  -22.7226  -10.2108   20.3054 C   0  0  0  0  0  0
  -21.6855   -6.0715   22.5273 C   0  0  0  0  0  0
  -21.4015   -6.5620   23.8202 C   0  0  0  0  0  0
  -21.3661   -5.6768   24.9164 C   0  0  0  0  0  0
  -21.6051   -4.3033   24.7225 C   0  0  0  0  0  0
  -21.8815   -3.8129   23.4341 C   0  0  0  0  0  0
  -21.9194   -4.6943   22.3397 C   0  0  0  0  0  0
  -22.7823  -13.5209   21.1875 C   0  0  0  0  0  0
  -22.1667   -4.2121   21.0980 F   0  0  0  0  0  0
  -21.5644   -3.4527   25.7745 F   0  0  0  0  0  0
  -29.9932  -13.4411   20.4072 N   0  0  0  0  0  0
  -26.2924  -12.9348   20.3257 N   0  0  0  0  0  0
  -25.9290  -11.6494   20.5710 N   0  0  0  0  0  0
  -22.0468  -12.8211   22.0430 N   0  0  0  0  0  0
  -25.4141  -15.1872   20.4051 N   0  0  0  0  0  0
  -31.8783  -14.6523   20.2027 O   0  0  0  0  0  0
  -21.6639   -6.8857   21.4236 O   0  0  0  0  0  0
  -22.3521  -14.5530   20.6725 O   0  0  0  0  0  0
  -24.6220  -31.8638   23.2070 C   0  0  0  0  0  0
  -25.9091  -32.4801   23.8379 C   0  0  1  0  0  0
  -27.2109  -27.3514   20.1209 C   0  0  0  0  0  0
  -25.5926  -33.8600   24.2310 N   0  0  0  0  0  0
  -23.4135  -30.4901   21.5484 C   0  0  2  0  0  0
  -24.8598  -28.9553   20.1066 C   0  0  0  0  0  0
  -22.7459  -29.4647   22.4947 C   0  0  0  0  0  0
  -18.0279  -28.1396   22.8494 C   0  0  0  0  0  0
  -24.1486  -36.7302   23.2630 C   0  0  0  0  0  0
  -25.9518  -30.8071   21.3726 C   0  0  0  0  0  0
  -26.0265  -29.4379   20.7154 C   0  0  0  0  0  0
  -27.2102  -28.6454   20.7155 C   0  0  0  0  0  0
  -26.0343  -26.9239   19.4693 C   0  0  0  0  0  0
  -24.8648  -27.7045   19.4710 C   0  0  0  0  0  0
  -23.6265  -29.8312   20.1604 C   0  0  0  0  0  0
  -25.4099  -36.3096   24.0336 C   0  0  1  0  0  0
  -20.5882  -28.3694   23.1299 C   0  0  2  0  0  0
  -20.6787  -26.9423   22.5417 C   0  0  0  0  0  0
  -19.5758  -26.6401   21.5226 C   0  0  0  0  0  0
  -18.1935  -26.7943   22.1630 C   0  0  0  0  0  0
  -19.1536  -28.8857   23.2898 C   0  0  0  0  0  0
  -18.9454  -30.1465   23.8911 C   0  0  0  0  0  0
  -17.6455  -30.6600   24.0561 C   0  0  0  0  0  0
  -25.9047  -34.9466   23.5124 C   0  0  0  0  0  0
  -16.5346  -29.9100   23.6327 C   0  0  0  0  0  0
  -16.7273  -28.6519   23.0352 C   0  0  0  0  0  0
  -26.4487  -31.6585   25.0728 C   0  0  0  0  0  0
  -25.3724  -31.3722   26.1455 C   0  0  0  0  0  0
  -27.0310  -30.3007   24.6157 C   0  0  0  0  0  0
  -27.6073  -32.4287   25.7486 C   0  0  0  0  0  0
  -27.5589  -37.1784   24.8443 C   0  0  0  0  0  0
  -21.4171  -29.3048   22.3693 N   0  0  0  0  0  0
  -26.4275  -37.3795   23.9438 N   0  0  0  0  0  0
  -24.6810  -31.0687   22.1002 N   0  0  0  0  0  0
  -23.4197  -28.8186   23.3006 O   0  0  0  0  0  0
  -28.3005  -26.4827   20.1652 O   0  0  0  0  0  0
  -26.5605  -34.8924   22.4683 O   0  0  0  0  0  0
  -23.5396  -32.1424   23.7425 O   0  0  0  0  0  0
  -29.6363  -24.0270   19.1649 C   0  0  0  0  0  0
  -30.3312  -21.6902   19.3906 C   0  0  0  0  0  0
  -30.3839  -22.9240   18.7091 C   0  0  0  0  0  0
  -28.8289  -23.9209   20.3116 C   0  0  0  0  0  0
  -28.7645  -22.6451   20.9872 C   0  0  0  0  0  0
  -29.5276  -21.5028   20.5364 C   0  0  0  0  0  0
  -29.0936  -17.8328   21.8359 C   0  0  0  0  0  0
  -30.6279  -18.2616   19.9697 C   0  0  0  0  0  0
  -28.9478  -16.3276   21.3888 C   0  0  0  0  0  0
  -30.3121  -16.8373   19.4242 C   0  0  0  0  0  0
  -29.4330  -18.8864   20.7288 C   0  0  0  0  0  0
  -31.2816  -23.0674   17.4970 C   0  0  0  0  0  0
  -27.8605  -22.5279   22.2097 C   0  0  0  0  0  0
  -30.5127  -20.4538   22.4381 C   0  0  0  0  0  0
  -28.0171  -25.1706   20.7753 C   0  0  0  0  0  0
  -29.9779  -15.8158   20.4511 N   0  0  0  0  0  0
  -29.6370  -20.2758   21.2773 N   0  0  0  0  0  0
  -31.4640  -12.4916   19.1503 H   0  0  0  0  0  0
  -30.3385  -11.4053   19.9054 H   0  0  0  0  0  0
  -29.7728  -11.7528   17.4778 H   0  0  0  0  0  0
  -29.6438  -13.4763   17.7361 H   0  0  0  0  0  0
  -27.8613  -11.2946   18.8652 H   0  0  0  0  0  0
  -27.3710  -12.5728   17.7858 H   0  0  0  0  0  0
  -27.6580  -14.2531   19.5110 H   0  0  0  0  0  0
  -28.7088  -12.0690   21.3687 H   0  0  0  0  0  0
  -28.4263  -13.7104   21.8362 H   0  0  0  0  0  0
  -25.2736   -9.5697   22.4745 H   0  0  0  0  0  0
  -24.0003   -7.4621   22.7458 H   0  0  0  0  0  0
  -21.0834   -8.8748   19.8958 H   0  0  0  0  0  0
  -22.3673  -10.9642   19.6166 H   0  0  0  0  0  0
  -21.2001   -7.6122   23.9698 H   0  0  0  0  0  0
  -21.1504   -6.0503   25.9067 H   0  0  0  0  0  0
  -22.0604   -2.7596   23.2847 H   0  0  0  0  0  0
  -22.4084  -11.9873   22.4820 H   0  0  0  0  0  0
  -21.1082  -13.1251   22.2624 H   0  0  0  0  0  0
  -24.6435  -15.8373   20.5118 H   0  0  0  0  0  0
  -26.2597  -15.6268   20.0681 H   0  0  0  0  0  0
  -26.7161  -32.5491   23.1132 H   0  0  0  0  0  0
  -25.0055  -33.9755   25.0446 H   0  0  0  0  0  0
  -22.7052  -31.3093   21.4116 H   0  0  0  0  0  0
  -23.3769  -35.9611   23.3240 H   0  0  0  0  0  0
  -24.3601  -36.8970   22.2057 H   0  0  0  0  0  0
  -23.7204  -37.6480   23.6671 H   0  0  0  0  0  0
  -26.0741  -31.5736   20.6050 H   0  0  0  0  0  0
  -26.8362  -30.8581   21.9965 H   0  0  0  0  0  0
  -28.1041  -29.0063   21.2055 H   0  0  0  0  0  0
  -26.0106  -25.9670   18.9665 H   0  0  0  0  0  0
  -23.9746  -27.3387   18.9780 H   0  0  0  0  0  0
  -23.7391  -30.6115   19.4068 H   0  0  0  0  0  0
  -22.7478  -29.2584   19.8590 H   0  0  0  0  0  0
  -25.1264  -36.1942   25.0824 H   0  0  0  0  0  0
  -20.9979  -28.3276   24.1419 H   0  0  0  0  0  0
  -20.5730  -26.2294   23.3614 H   0  0  0  0  0  0
  -21.6649  -26.7496   22.1182 H   0  0  0  0  0  0
  -19.6923  -25.6318   21.1251 H   0  0  0  0  0  0
  -19.6699  -27.3216   20.6761 H   0  0  0  0  0  0
  -17.4211  -26.6699   21.4022 H   0  0  0  0  0  0
  -18.0323  -26.0089   22.9026 H   0  0  0  0  0  0
  -19.7926  -30.7274   24.2297 H   0  0  0  0  0  0
  -17.5010  -31.6279   24.5157 H   0  0  0  0  0  0
  -15.5347  -30.3003   23.7652 H   0  0  0  0  0  0
  -15.8673  -28.0842   22.7060 H   0  0  0  0  0  0
  -24.5911  -30.7061   25.7782 H   0  0  0  0  0  0
  -24.8898  -32.2883   26.4861 H   0  0  0  0  0  0
  -25.8045  -30.8912   27.0237 H   0  0  0  0  0  0
  -26.2871  -29.6779   24.1176 H   0  0  0  0  0  0
  -27.4003  -29.7240   25.4650 H   0  0  0  0  0  0
  -27.8746  -30.4286   23.9368 H   0  0  0  0  0  0
  -27.2720  -33.3590   26.2078 H   0  0  0  0  0  0
  -28.3879  -32.6833   25.0303 H   0  0  0  0  0  0
  -28.0748  -31.8392   26.5385 H   0  0  0  0  0  0
  -28.2538  -38.0153   24.7603 H   0  0  0  0  0  0
  -28.1155  -36.2692   24.6109 H   0  0  0  0  0  0
  -27.2335  -37.1240   25.8849 H   0  0  0  0  0  0
  -20.9350  -29.8740   21.6882 H   0  0  0  0  0  0
  -26.0153  -38.2857   24.1511 H   0  0  0  0  0  0
  -29.6873  -24.9687   18.6350 H   0  0  0  0  0  0
  -30.9776  -20.9050   19.0412 H   0  0  0  0  0  0
  -29.8761  -17.8545   22.5950 H   0  0  0  0  0  0
  -28.1830  -18.1321   22.3573 H   0  0  0  0  0  0
  -30.8969  -18.8701   19.1122 H   0  0  0  0  0  0
  -31.5097  -18.2206   20.6076 H   0  0  0  0  0  0
  -27.9747  -16.1899   20.9198 H   0  0  0  0  0  0
  -28.9390  -15.7241   22.2965 H   0  0  0  0  0  0
  -31.1443  -16.5200   18.7921 H   0  0  0  0  0  0
  -29.4613  -16.9025   18.7440 H   0  0  0  0  0  0
  -28.5859  -18.9395   20.0411 H   0  0  0  0  0  0
  -31.2931  -24.0920   17.1246 H   0  0  0  0  0  0
  -30.9397  -22.4180   16.6907 H   0  0  0  0  0  0
  -32.3076  -22.7913   17.7460 H   0  0  0  0  0  0
  -26.8322  -22.7717   21.9411 H   0  0  0  0  0  0
  -28.1841  -23.2162   22.9895 H   0  0  0  0  0  0
  -27.8438  -21.5271   22.6401 H   0  0  0  0  0  0
  -31.0663  -21.3949   22.4044 H   0  0  0  0  0  0
  -31.2501  -19.6553   22.5216 H   0  0  0  0  0  0
  -29.9234  -20.4604   23.3562 H   0  0  0  0  0  0
  -28.1782  -25.2946   21.8466 H   0  0  0  0  0  0
  -26.9679  -24.8912   20.6783 H   0  0  0  0  0  0
  1 25  1  0  0  0
  1 30  2  0  0  0
  1 86  1  0  0  0
  2  3  1  0  0  0
  2 25  1  0  0  0
  2 88  1  0  0  0
  2 89  1  0  0  0
  3  4  1  0  0  0
  3 90  1  0  0  0
  3 91  1  0  0  0
  4  5  1  0  0  0
  4 92  1  0  0  0
  4 93  1  0  0  0
  5  6  1  0  0  0
  5 26  1  0  0  0
  5 94  1  0  0  0
  6 25  1  0  0  0
  6 95  1  0  0  0
  6 96  1  0  0  0
  7  8  2  0  0  0
  7 26  1  0  0  0
  7 29  1  0  0  0
  8  9  1  0  0  0
  8 22  1  0  0  0
  9 10  1  0  0  0
  9 27  2  0  0  0
 10 11  2  0  0  0
 10 15  1  0  0  0
 11 12  1  0  0  0
 11 97  1  0  0  0
 12 13  2  0  0  0
 12 98  1  0  0  0
 13 14  1  0  0  0
 13 31  1  0  0  0
 14 15  2  0  0  0
 14 99  1  0  0  0
 15100  1  0  0  0
 16 17  2  0  0  0
 16 21  1  0  0  0
 16 31  1  0  0  0
 17 18  1  0  0  0
 17101  1  0  0  0
 18 19  2  0  0  0
 18102  1  0  0  0
 19 20  1  0  0  0
 19 24  1  0  0  0
 20 21  2  0  0  0
 20103  1  0  0  0
 21 23  1  0  0  0
 22 28  1  0  0  0
 22 32  2  0  0  0
 26 27  1  0  0  0
 28104  1  0  0  0
 28105  1  0  0  0
 29106  1  0  0  0
 29107  1  0  0  0
 33 34  1  0  0  0
 33 66  1  0  0  0
 33 70  2  0  0  0
 34 36  1  0  0  0
 34 59  1  0  0  0
 34108  1  0  0  0
 35 44  2  0  0  0
 35 45  1  0  0  0
 35 68  1  0  0  0
 36 56  1  0  0  0
 36109  1  0  0  0
 37 39  1  0  0  0
 37 47  1  0  0  0
 37 66  1  0  0  0
 37110  1  0  0  0
 38 43  2  0  0  0
 38 46  1  0  0  0
 38 47  1  0  0  0
 39 64  1  0  0  0
 39 67  2  0  0  0
 40 52  1  0  0  0
 40 53  2  0  0  0
 40 58  1  0  0  0
 41111  1  0  0  0
 41112  1  0  0  0
 41113  1  0  0  0
 41 48  1  0  0  0
 42 43  1  0  0  0
 42 66  1  0  0  0
 42114  1  0  0  0
 42115  1  0  0  0
 43 44  1  0  0  0
 44116  1  0  0  0
 45 46  2  0  0  0
 45117  1  0  0  0
 46118  1  0  0  0
 47119  1  0  0  0
 47120  1  0  0  0
 48 56  1  0  0  0
 48 65  1  0  0  0
 48121  1  0  0  0
 49 50  1  0  0  0
 49 53  1  0  0  0
 49 64  1  0  0  0
 49122  1  0  0  0
 50 51  1  0  0  0
 50123  1  0  0  0
 50124  1  0  0  0
 51 52  1  0  0  0
 51125  1  0  0  0
 51126  1  0  0  0
 52127  1  0  0  0
 52128  1  0  0  0
 53 54  1  0  0  0
 54 55  2  0  0  0
 54129  1  0  0  0
 55 57  1  0  0  0
 55130  1  0  0  0
 56 69  2  0  0  0
 57 58  2  0  0  0
 57131  1  0  0  0
 58132  1  0  0  0
 59 60  1  0  0  0
 59 61  1  0  0  0
 59 62  1  0  0  0
 60133  1  0  0  0
 60134  1  0  0  0
 60135  1  0  0  0
 61136  1  0  0  0
 61137  1  0  0  0
 61138  1  0  0  0
 62139  1  0  0  0
 62140  1  0  0  0
 62141  1  0  0  0
 63 65  1  0  0  0
 63142  1  0  0  0
 63143  1  0  0  0
 63144  1  0  0  0
 64145  1  0  0  0
 65146  1  0  0  0
 68 85  1  0  0  0
 71 73  2  0  0  0
 71 74  1  0  0  0
 71147  1  0  0  0
 72 73  1  0  0  0
 72 76  2  0  0  0
 72148  1  0  0  0
 73 82  1  0  0  0
 74 75  2  0  0  0
 74 85  1  0  0  0
 75 76  1  0  0  0
 75 83  1  0  0  0
 76 87  1  0  0  0
 77 79  1  0  0  0
 77 81  1  0  0  0
 77149  1  0  0  0
 77150  1  0  0  0
 78 80  1  0  0  0
 78 81  1  0  0  0
 78151  1  0  0  0
 78152  1  0  0  0
 79 86  1  0  0  0
 79153  1  0  0  0
 79154  1  0  0  0
 80 86  1  0  0  0
 80155  1  0  0  0
 80156  1  0  0  0
 81 87  1  0  0  0
 81157  1  0  0  0
 82158  1  0  0  0
 82159  1  0  0  0
 82160  1  0  0  0
 83161  1  0  0  0
 83162  1  0  0  0
 83163  1  0  0  0
 84 87  1  0  0  0
 84164  1  0  0  0
 84165  1  0  0  0
 84166  1  0  0  0
 85167  1  0  0  0
 85168  1  0  0  0
M  ISO  4   1 100  68 101  85 101  86 100
M  END
> <chiral flag>
0

> <version>
0

> <s_m_source_file>
/data/baiqing/PycharmProjects/Reinvent-master-3.2/result/LINK_invent/BTK/process_docking_weight1_custom_sum_contain_oxygen_bond_distance_aromatic_linkinvent_7_9_3/rearranged_h_0148.sdf

> <i_m_source_file_index>
14

> <r_mmod_Potential_Energy-OPLS-2005>
305.828521728516

> <r_mmod_Stretch_Energy-OPLS-2005>
77.7834854125977

> <r_mmod_Bend_Energy-OPLS-2005>
150.08561706543

> <r_mmod_Torsional_Energy-OPLS-2005>
364.270843505859

> <r_mmod_Improper_Torsional_Energy-OPLS-2005>
18.8898582458496

> <r_mmod_Van_der_Waal_Energy-OPLS-2005>
156.102447509766

> <r_mmod_Electrostatic_Energy-OPLS-2005>
-312.773376464844

> <r_mmod_Solvation_Energy-OPLS-2005>
-194.713119506836

> <b_mmod_Minimization_Converged-OPLS-2005>
0

> <r_mmod_RMS_Derivative-OPLS-2005>
2.57114791870117

$$$$
14
                    3D
 Structure written by MMmdl.
164173  0  0  1  0            999 V2000
  -30.6097  -14.7188   20.4621 C   0  0  0  0  0  0
  -30.4233  -12.4359   19.4814 C   0  0  0  0  0  0
  -29.5043  -12.5051   18.2411 C   0  0  0  0  0  0
  -28.0309  -12.3308   18.6536 C   0  0  0  0  0  0
  -27.6412  -13.2297   19.8574 C   0  0  2  0  0  0
  -28.6804  -13.1531   20.9964 C   0  0  0  0  0  0
  -25.2501  -13.8193   20.5672 C   0  0  0  0  0  0
  -24.1795  -13.0430   20.9186 C   0  0  0  0  0  0
  -24.6393  -11.6910   20.8750 C   0  0  0  0  0  0
  -23.9080  -10.4279   21.0408 C   0  0  0  0  0  0
  -24.3630   -9.4193   21.9180 C   0  0  0  0  0  0
  -23.6291   -8.2237   22.0759 C   0  0  0  0  0  0
  -22.4279   -8.0283   21.3544 C   0  0  0  0  0  0
  -21.9922   -9.0258   20.4643 C   0  0  0  0  0  0
  -22.7258  -10.2127   20.3050 C   0  0  0  0  0  0
  -21.6852   -6.0730   22.5263 C   0  0  0  0  0  0
  -21.4022   -6.5632   23.8196 C   0  0  0  0  0  0
  -21.3658   -5.6789   24.9158 C   0  0  0  0  0  0
  -21.6047   -4.3048   24.7210 C   0  0  0  0  0  0
  -21.8823   -3.8141   23.4325 C   0  0  0  0  0  0
  -21.9193   -4.6959   22.3382 C   0  0  0  0  0  0
  -22.7822  -13.5212   21.1824 C   0  0  0  0  0  0
  -22.1660   -4.2142   21.0960 F   0  0  0  0  0  0
  -21.5626   -3.4531   25.7724 F   0  0  0  0  0  0
  -29.9845  -13.4947   20.4218 N   0  0  0  0  0  0
  -26.2927  -12.9399   20.3307 N   0  0  0  0  0  0
  -25.9321  -11.6541   20.5778 N   0  0  0  0  0  0
  -22.0495  -12.8207   22.0398 N   0  0  0  0  0  0
  -25.4190  -15.1919   20.4053 N   0  0  0  0  0  0
  -31.8015  -14.7908   20.1523 O   0  0  0  0  0  0
  -21.6643   -6.8883   21.4233 O   0  0  0  0  0  0
  -22.3501  -14.5511   20.6661 O   0  0  0  0  0  0
  -24.6301  -31.8599   23.1985 C   0  0  0  0  0  0
  -25.9145  -32.4775   23.8319 C   0  0  1  0  0  0
  -27.2067  -27.2789   20.1224 C   0  0  0  0  0  0
  -25.5964  -33.8568   24.2263 N   0  0  0  0  0  0
  -23.4206  -30.4835   21.5441 C   0  0  2  0  0  0
  -24.8624  -28.9336   20.1060 C   0  0  0  0  0  0
  -22.7493  -29.4616   22.4938 C   0  0  0  0  0  0
  -18.0279  -28.1342   22.8493 C   0  0  0  0  0  0
  -24.1486  -36.7287   23.2637 C   0  0  0  0  0  0
  -25.9640  -30.7766   21.3740 C   0  0  0  0  0  0
  -26.0319  -29.4014   20.7153 C   0  0  0  0  0  0
  -27.2043  -28.5857   20.7151 C   0  0  0  0  0  0
  -26.0100  -26.8695   19.4925 C   0  0  0  0  0  0
  -24.8547  -27.6758   19.4841 C   0  0  0  0  0  0
  -23.6336  -29.8199   20.1586 C   0  0  0  0  0  0
  -25.4110  -36.3087   24.0328 C   0  0  1  0  0  0
  -20.5886  -28.3655   23.1281 C   0  0  2  0  0  0
  -20.6760  -26.9374   22.5404 C   0  0  0  0  0  0
  -19.5729  -26.6358   21.5208 C   0  0  0  0  0  0
  -18.1914  -26.7889   22.1622 C   0  0  0  0  0  0
  -19.1535  -28.8818   23.2872 C   0  0  0  0  0  0
  -18.9469  -30.1413   23.8893 C   0  0  0  0  0  0
  -17.6471  -30.6560   24.0537 C   0  0  0  0  0  0
  -25.9056  -34.9458   23.5090 C   0  0  0  0  0  0
  -16.5359  -29.9051   23.6317 C   0  0  0  0  0  0
  -16.7272  -28.6454   23.0373 C   0  0  0  0  0  0
  -26.4508  -31.6592   25.0706 C   0  0  0  0  0  0
  -25.3712  -31.3738   26.1417 C   0  0  0  0  0  0
  -27.0371  -30.3021   24.6171 C   0  0  0  0  0  0
  -27.6064  -32.4338   25.7488 C   0  0  0  0  0  0
  -27.5584  -37.1793   24.8460 C   0  0  0  0  0  0
  -21.4202  -29.3031   22.3705 N   0  0  0  0  0  0
  -26.4287  -37.3787   23.9415 N   0  0  0  0  0  0
  -24.6898  -31.0577   22.0956 N   0  0  0  0  0  0
  -23.4226  -28.8147   23.2995 O   0  0  0  0  0  0
  -28.3313  -26.4337   20.2072 O   0  0  0  0  0  0
  -26.5630  -34.8936   22.4660 O   0  0  0  0  0  0
  -23.5469  -32.1439   23.7307 O   0  0  0  0  0  0
  -29.2633  -18.4106   20.6885 C   0  0  0  0  0  0
  -31.0270  -17.5613   19.2669 C   0  0  0  0  0  0
  -29.4685  -19.7738   20.2151 C   0  0  0  0  0  0
  -30.5104  -19.9639   19.2760 C   0  0  0  0  0  0
  -30.0503  -17.2700   20.2467 C   0  0  0  0  0  0
  -31.2487  -18.8686   18.7678 C   0  0  0  0  0  0
  -30.8360  -21.3670   18.7785 C   0  0  0  0  0  0
  -30.4146  -22.4636   19.7629 C   0  0  0  0  0  0
  -28.6078  -21.0501   20.6622 C   0  0  2  0  0  0
  -27.1108  -20.7561   20.4535 C   0  0  0  0  0  0
  -32.6524  -18.0492   16.9910 C   0  0  0  0  0  0
  -28.4196  -23.7275   20.6104 C   0  0  0  0  0  0
  -28.3892  -25.0401   19.6637 C   0  0  0  0  0  0
  -29.8416  -15.8597   20.6859 N   0  0  0  0  0  0
  -28.9572  -22.4048   20.0076 N   0  3  1  0  0  0
  -32.1651  -19.1376   17.7721 O   0  0  0  0  0  0
  -31.4658  -12.5506   19.1806 H   0  0  0  0  0  0
  -30.3570  -11.4563   19.9576 H   0  0  0  0  0  0
  -29.7804  -11.7360   17.5188 H   0  0  0  0  0  0
  -29.6334  -13.4641   17.7369 H   0  0  0  0  0  0
  -27.8861  -11.2809   18.9143 H   0  0  0  0  0  0
  -27.3719  -12.5250   17.8057 H   0  0  0  0  0  0
  -27.6417  -14.2534   19.4821 H   0  0  0  0  0  0
  -28.7059  -12.1531   21.4320 H   0  0  0  0  0  0
  -28.4191  -13.8327   21.8087 H   0  0  0  0  0  0
  -25.2779   -9.5649   22.4755 H   0  0  0  0  0  0
  -23.9977   -7.4638   22.7502 H   0  0  0  0  0  0
  -21.0849   -8.8791   19.8961 H   0  0  0  0  0  0
  -22.3731  -10.9667   19.6158 H   0  0  0  0  0  0
  -21.2033   -7.6144   23.9693 H   0  0  0  0  0  0
  -21.1477   -6.0522   25.9064 H   0  0  0  0  0  0
  -22.0608   -2.7603   23.2825 H   0  0  0  0  0  0
  -22.4158  -11.9874   22.4755 H   0  0  0  0  0  0
  -21.1120  -13.1215   22.2641 H   0  0  0  0  0  0
  -24.6467  -15.8428   20.5036 H   0  0  0  0  0  0
  -26.2602  -15.6261   20.0451 H   0  0  0  0  0  0
  -26.7203  -32.5434   23.1055 H   0  0  0  0  0  0
  -25.0140  -33.9679   25.0434 H   0  0  0  0  0  0
  -22.7158  -31.3058   21.4031 H   0  0  0  0  0  0
  -23.3777  -35.9591   23.3283 H   0  0  0  0  0  0
  -24.3585  -36.8930   22.2056 H   0  0  0  0  0  0
  -23.7193  -37.6453   23.6685 H   0  0  0  0  0  0
  -26.0974  -31.5395   20.6059 H   0  0  0  0  0  0
  -26.8445  -30.8263   22.0022 H   0  0  0  0  0  0
  -28.1001  -28.9380   21.2081 H   0  0  0  0  0  0
  -25.9093  -25.9071   19.0191 H   0  0  0  0  0  0
  -23.9559  -27.3106   19.0055 H   0  0  0  0  0  0
  -23.7474  -30.5999   19.4040 H   0  0  0  0  0  0
  -22.7516  -29.2508   19.8587 H   0  0  0  0  0  0
  -25.1275  -36.1948   25.0819 H   0  0  0  0  0  0
  -20.9948  -28.3234   24.1409 H   0  0  0  0  0  0
  -20.5637  -26.2276   23.3612 H   0  0  0  0  0  0
  -21.6623  -26.7386   22.1217 H   0  0  0  0  0  0
  -19.6888  -25.6264   21.1237 H   0  0  0  0  0  0
  -19.6659  -27.3168   20.6732 H   0  0  0  0  0  0
  -17.4178  -26.6657   21.4022 H   0  0  0  0  0  0
  -18.0286  -26.0001   22.8996 H   0  0  0  0  0  0
  -19.7952  -30.7195   24.2311 H   0  0  0  0  0  0
  -17.5031  -31.6260   24.5115 H   0  0  0  0  0  0
  -15.5354  -30.2952   23.7626 H   0  0  0  0  0  0
  -15.8678  -28.0752   22.7122 H   0  0  0  0  0  0
  -24.5896  -30.7082   25.7733 H   0  0  0  0  0  0
  -24.8878  -32.2898   26.4821 H   0  0  0  0  0  0
  -25.7996  -30.8930   27.0216 H   0  0  0  0  0  0
  -26.2950  -29.6751   24.1211 H   0  0  0  0  0  0
  -27.4091  -29.7298   25.4675 H   0  0  0  0  0  0
  -27.8809  -30.4314   23.9388 H   0  0  0  0  0  0
  -27.2684  -33.3668   26.2014 H   0  0  0  0  0  0
  -28.3902  -32.6853   25.0329 H   0  0  0  0  0  0
  -28.0704  -31.8489   26.5440 H   0  0  0  0  0  0
  -28.2576  -38.0122   24.7577 H   0  0  0  0  0  0
  -28.1105  -36.2656   24.6211 H   0  0  0  0  0  0
  -27.2310  -37.1344   25.8863 H   0  0  0  0  0  0
  -20.9389  -29.8831   21.6979 H   0  0  0  0  0  0
  -26.0186  -38.2858   24.1453 H   0  0  0  0  0  0
  -28.4803  -18.2365   21.4130 H   0  0  0  0  0  0
  -31.6215  -16.7577   18.8660 H   0  0  0  0  0  0
  -30.3536  -21.5176   17.8129 H   0  0  0  0  0  0
  -31.9088  -21.4619   18.6085 H   0  0  0  0  0  0
  -30.7169  -23.4268   19.3582 H   0  0  0  0  0  0
  -30.9437  -22.3523   20.7109 H   0  0  0  0  0  0
  -28.7878  -21.1657   21.7319 H   0  0  0  0  0  0
  -26.8797  -20.6284   19.3948 H   0  0  0  0  0  0
  -26.4747  -21.5512   20.8395 H   0  0  0  0  0  0
  -26.8085  -19.8444   20.9663 H   0  0  0  0  0  0
  -33.0941  -18.4335   16.0721 H   0  0  0  0  0  0
  -31.8601  -17.3603   16.6936 H   0  0  0  0  0  0
  -33.4258  -17.4974   17.5266 H   0  0  0  0  0  0
  -27.4008  -23.5752   20.9644 H   0  0  0  0  0  0
  -29.0051  -23.9500   21.5022 H   0  0  0  0  0  0
  -27.6629  -24.8750   18.8733 H   0  0  0  0  0  0
  -29.3243  -25.0596   19.1099 H   0  0  0  0  0  0
  -28.9407  -15.6691   21.0984 H   0  0  0  0  0  0
  -28.5417  -22.3392   19.0903 H   0  0  0  0  0  0
  1 25  1  0  0  0
  1 30  2  0  0  0
  1 84  1  0  0  0
  2  3  1  0  0  0
  2 25  1  0  0  0
  2 87  1  0  0  0
  2 88  1  0  0  0
  3  4  1  0  0  0
  3 89  1  0  0  0
  3 90  1  0  0  0
  4  5  1  0  0  0
  4 91  1  0  0  0
  4 92  1  0  0  0
  5  6  1  0  0  0
  5 26  1  0  0  0
  5 93  1  0  0  0
  6 25  1  0  0  0
  6 94  1  0  0  0
  6 95  1  0  0  0
  7  8  2  0  0  0
  7 26  1  0  0  0
  7 29  1  0  0  0
  8  9  1  0  0  0
  8 22  1  0  0  0
  9 10  1  0  0  0
  9 27  2  0  0  0
 10 11  2  0  0  0
 10 15  1  0  0  0
 11 12  1  0  0  0
 11 96  1  0  0  0
 12 13  2  0  0  0
 12 97  1  0  0  0
 13 14  1  0  0  0
 13 31  1  0  0  0
 14 15  2  0  0  0
 14 98  1  0  0  0
 15 99  1  0  0  0
 16 17  2  0  0  0
 16 21  1  0  0  0
 16 31  1  0  0  0
 17 18  1  0  0  0
 17100  1  0  0  0
 18 19  2  0  0  0
 18101  1  0  0  0
 19 20  1  0  0  0
 19 24  1  0  0  0
 20 21  2  0  0  0
 20102  1  0  0  0
 21 23  1  0  0  0
 22 28  1  0  0  0
 22 32  2  0  0  0
 26 27  1  0  0  0
 28103  1  0  0  0
 28104  1  0  0  0
 29105  1  0  0  0
 29106  1  0  0  0
 33 34  1  0  0  0
 33 66  1  0  0  0
 33 70  2  0  0  0
 34 36  1  0  0  0
 34 59  1  0  0  0
 34107  1  0  0  0
 35 44  2  0  0  0
 35 45  1  0  0  0
 35 68  1  0  0  0
 36 56  1  0  0  0
 36108  1  0  0  0
 37 39  1  0  0  0
 37 47  1  0  0  0
 37 66  1  0  0  0
 37109  1  0  0  0
 38 43  2  0  0  0
 38 46  1  0  0  0
 38 47  1  0  0  0
 39 64  1  0  0  0
 39 67  2  0  0  0
 40 52  1  0  0  0
 40 53  2  0  0  0
 40 58  1  0  0  0
 41110  1  0  0  0
 41111  1  0  0  0
 41112  1  0  0  0
 41 48  1  0  0  0
 42 43  1  0  0  0
 42 66  1  0  0  0
 42113  1  0  0  0
 42114  1  0  0  0
 43 44  1  0  0  0
 44115  1  0  0  0
 45 46  2  0  0  0
 45116  1  0  0  0
 46117  1  0  0  0
 47118  1  0  0  0
 47119  1  0  0  0
 48 56  1  0  0  0
 48 65  1  0  0  0
 48120  1  0  0  0
 49 50  1  0  0  0
 49 53  1  0  0  0
 49 64  1  0  0  0
 49121  1  0  0  0
 50 51  1  0  0  0
 50122  1  0  0  0
 50123  1  0  0  0
 51 52  1  0  0  0
 51124  1  0  0  0
 51125  1  0  0  0
 52126  1  0  0  0
 52127  1  0  0  0
 53 54  1  0  0  0
 54 55  2  0  0  0
 54128  1  0  0  0
 55 57  1  0  0  0
 55129  1  0  0  0
 56 69  2  0  0  0
 57 58  2  0  0  0
 57130  1  0  0  0
 58131  1  0  0  0
 59 60  1  0  0  0
 59 61  1  0  0  0
 59 62  1  0  0  0
 60132  1  0  0  0
 60133  1  0  0  0
 60134  1  0  0  0
 61135  1  0  0  0
 61136  1  0  0  0
 61137  1  0  0  0
 62138  1  0  0  0
 62139  1  0  0  0
 62140  1  0  0  0
 63 65  1  0  0  0
 63141  1  0  0  0
 63142  1  0  0  0
 63143  1  0  0  0
 64144  1  0  0  0
 65145  1  0  0  0
 68 83  1  0  0  0
 71 73  2  0  0  0
 71 75  1  0  0  0
 71146  1  0  0  0
 72 75  2  0  0  0
 72 76  1  0  0  0
 72147  1  0  0  0
 73 74  1  0  0  0
 73 79  1  0  0  0
 74 76  2  0  0  0
 74 77  1  0  0  0
 75 84  1  0  0  0
 76 86  1  0  0  0
 77 78  1  0  0  0
 77148  1  0  0  0
 77149  1  0  0  0
 78 85  1  0  0  0
 78150  1  0  0  0
 78151  1  0  0  0
 79 80  1  0  0  0
 79 85  1  0  0  0
 79152  1  0  0  0
 80153  1  0  0  0
 80154  1  0  0  0
 80155  1  0  0  0
 81 86  1  0  0  0
 81156  1  0  0  0
 81157  1  0  0  0
 81158  1  0  0  0
 82 83  1  0  0  0
 82159  1  0  0  0
 82160  1  0  0  0
 82 85  1  0  0  0
 83161  1  0  0  0
 83162  1  0  0  0
 84163  1  0  0  0
 85164  1  0  0  0
M  CHG  1  85   1
M  ISO  4   1 100  68 101  83 101  84 100
M  END
> <chiral flag>
0

> <version>
0

> <s_m_source_file>
/data/baiqing/PycharmProjects/Reinvent-master-3.2/result/LINK_invent/BTK/process_docking_weight1_custom_sum_contain_oxygen_bond_distance_aromatic_linkinvent_7_9_3/rearranged_h_0148.sdf

> <i_m_source_file_index>
15

> <r_mmod_Potential_Energy-OPLS-2005>
44.2432518005371

> <r_mmod_Stretch_Energy-OPLS-2005>
122.775001525879

> <r_mmod_Bend_Energy-OPLS-2005>
171.968765258789

> <r_mmod_Torsional_Energy-OPLS-2005>
240.190963745117

> <r_mmod_Improper_Torsional_Energy-OPLS-2005>
4.27105236053467

> <r_mmod_Van_der_Waal_Energy-OPLS-2005>
160.959381103516

> <r_mmod_Electrostatic_Energy-OPLS-2005>
-292.526031494141

> <r_mmod_Solvation_Energy-OPLS-2005>
-436.643005371094

> <b_mmod_Minimization_Converged-OPLS-2005>
0

> <r_mmod_RMS_Derivative-OPLS-2005>
2.52631711959839

$$$$
15
                    3D
 Structure written by MMmdl.
171179  0  0  1  0            999 V2000
  -29.5437  -15.6591   20.4769 C   0  0  0  0  0  0
  -30.3007  -13.2399   19.5243 C   0  0  0  0  0  0
  -29.4966  -12.6567   18.3364 C   0  0  0  0  0  0
  -28.0920  -12.2111   18.7949 C   0  0  0  0  0  0
  -27.5015  -13.2040   19.8108 C   0  0  2  0  0  0
  -28.4441  -13.4141   20.9740 C   0  0  0  0  0  0
  -25.2009  -13.7924   20.5719 C   0  0  0  0  0  0
  -24.1371  -13.0306   20.9239 C   0  0  0  0  0  0
  -24.5923  -11.6691   20.8821 C   0  0  0  0  0  0
  -23.8762  -10.4142   21.0474 C   0  0  0  0  0  0
  -24.3444   -9.4161   21.9219 C   0  0  0  0  0  0
  -23.6184   -8.2177   22.0764 C   0  0  0  0  0  0
  -22.4183   -8.0176   21.3549 C   0  0  0  0  0  0
  -21.9771   -9.0129   20.4659 C   0  0  0  0  0  0
  -22.7028  -10.2020   20.3079 C   0  0  0  0  0  0
  -21.6804   -6.0679   22.5289 C   0  0  0  0  0  0
  -21.3984   -6.5617   23.8237 C   0  0  0  0  0  0
  -21.3652   -5.6772   24.9183 C   0  0  0  0  0  0
  -21.6038   -4.3053   24.7229 C   0  0  0  0  0  0
  -21.8827   -3.8129   23.4376 C   0  0  0  0  0  0
  -21.9190   -4.6907   22.3414 C   0  0  0  0  0  0
  -22.7474  -13.5183   21.1982 C   0  0  0  0  0  0
  -22.1660   -4.2114   21.0998 F   0  0  0  0  0  0
  -21.5638   -3.4529   25.7772 F   0  0  0  0  0  0
  -29.4558  -14.2262   20.3448 N   0  0  0  0  0  0
  -26.2058  -12.8972   20.2958 N   0  0  0  0  0  0
  -25.8810  -11.6190   20.5634 N   0  0  0  0  0  0
  -22.0097  -12.8162   22.0439 N   0  0  0  0  0  0
  -25.3974  -15.1633   20.4494 N   0  0  0  0  0  0
  -30.7903  -15.8905   20.3758 O   0  0  0  0  0  0
  -21.6597   -6.8784   21.4238 O   0  0  0  0  0  0
  -22.3304  -14.5583   20.6856 O   0  0  0  0  0  0
  -24.5676  -31.8528   23.2323 C   0  0  0  0  0  0
  -25.8808  -32.4670   23.8385 C   0  0  1  0  0  0
  -27.1763  -27.4884   20.2133 C   0  0  0  0  0  0
  -25.6073  -33.8564   24.2435 N   0  0  0  0  0  0
  -23.3221  -30.4379   21.5824 C   0  0  2  0  0  0
  -24.8231  -29.0185   20.0531 C   0  0  0  0  0  0
  -22.6168  -29.4241   22.5431 C   0  0  0  0  0  0
  -17.7920  -28.3722   22.9015 C   0  0  0  0  0  0
  -24.1545  -36.7238   23.2641 C   0  0  0  0  0  0
  -25.8883  -30.8531   21.3980 C   0  0  0  0  0  0
  -25.9733  -29.5469   20.6612 C   0  0  0  0  0  0
  -27.1731  -28.8373   20.6228 C   0  0  0  0  0  0
  -26.0477  -26.9473   19.5481 C   0  0  0  0  0  0
  -24.8884  -27.7485   19.4031 C   0  0  0  0  0  0
  -23.6103  -29.9459   20.1046 C   0  0  0  0  0  0
  -25.4115  -36.3006   24.0319 C   0  0  1  0  0  0
  -20.3345  -28.2969   23.0945 C   0  0  2  0  0  0
  -20.1033  -26.9012   22.5709 C   0  0  0  0  0  0
  -18.7926  -26.2914   22.4164 C   0  0  0  0  0  0
  -17.7792  -27.1630   21.9136 C   0  0  0  0  0  0
  -19.0204  -29.0434   23.2522 C   0  0  0  0  0  0
  -19.0602  -30.3631   23.7422 C   0  0  0  0  0  0
  -17.8025  -30.9452   24.0443 C   0  0  0  0  0  0
  -25.8992  -34.9394   23.5046 C   0  0  0  0  0  0
  -16.5722  -30.2400   23.9619 C   0  0  0  0  0  0
  -16.6079  -28.9487   23.3785 C   0  0  0  0  0  0
  -26.4407  -31.6503   25.0716 C   0  0  0  0  0  0
  -25.3737  -31.3538   26.1487 C   0  0  0  0  0  0
  -27.0388  -30.3004   24.6171 C   0  0  0  0  0  0
  -27.6022  -32.4247   25.7613 C   0  0  0  0  0  0
  -27.5580  -37.1793   24.8474 C   0  0  0  0  0  0
  -21.3482  -29.0776   22.2688 N   0  0  0  0  0  0
  -26.4293  -37.3672   23.9377 N   0  0  0  0  0  0
  -24.5843  -31.0716   22.1328 N   0  0  0  0  0  0
  -23.2481  -29.0180   23.5321 O   0  0  0  0  0  0
  -28.0702  -26.6630   20.8359 O   0  0  0  0  0  0
  -26.5546  -34.8768   22.4611 O   0  0  0  0  0  0
  -23.5221  -32.1608   23.7914 O   0  0  0  0  0  0
  -22.7070  -25.4173   22.4134 C   0  0  0  0  0  0
  -23.7105  -25.7111   23.3340 C   0  0  0  0  0  0
  -25.0271  -23.9542   22.2310 C   0  0  0  0  0  0
  -22.9031  -24.5782   21.3025 C   0  0  0  0  0  0
  -23.9783  -23.4538   21.3365 C   0  0  0  0  0  0
  -24.9356  -25.0481   23.0684 C   0  0  0  0  0  0
  -21.8629  -26.7854   19.7701 C   0  0  0  0  0  0
  -20.8673  -24.6140   19.5959 C   0  0  0  0  0  0
  -24.9019  -18.7025   20.2176 C   0  0  0  0  0  0
  -25.4775  -20.9682   21.3683 C   0  0  0  0  0  0
  -27.7259  -18.2764   20.9745 C   0  0  0  0  0  0
  -27.7558  -26.7520   22.3005 C   0  0  0  0  0  0
  -27.3587  -25.4550   23.0676 C   0  0  0  0  0  0
  -22.2322  -25.2264   19.9964 C   0  0  0  0  0  0
  -26.1912  -19.4279   20.6488 C   0  0  1  0  0  0
  -24.4140  -22.1168   20.6995 N   0  0  0  0  0  0
  -28.3124  -16.6579   20.5856 N   0  0  0  0  0  0
  -26.0401  -25.3965   23.7892 O   0  0  0  0  0  0
  -31.1380  -13.8117   19.1111 H   0  0  0  0  0  0
  -30.7219  -12.4968   20.1803 H   0  0  0  0  0  0
  -30.0433  -11.8201   17.9099 H   0  0  0  0  0  0
  -29.3763  -13.3906   17.5483 H   0  0  0  0  0  0
  -28.2121  -11.2224   19.2972 H   0  0  0  0  0  0
  -27.4233  -12.0272   17.9463 H   0  0  0  0  0  0
  -27.3808  -14.1221   19.2241 H   0  0  0  0  0  0
  -28.8320  -12.5127   21.4129 H   0  0  0  0  0  0
  -27.9510  -14.0034   21.7708 H   0  0  0  0  0  0
  -25.2575   -9.5677   22.4798 H   0  0  0  0  0  0
  -23.9947   -7.4526   22.7472 H   0  0  0  0  0  0
  -21.0694   -8.8587   19.8914 H   0  0  0  0  0  0
  -22.3466  -10.9566   19.6180 H   0  0  0  0  0  0
  -21.1961   -7.6107   23.9701 H   0  0  0  0  0  0
  -21.1467   -6.0510   25.9078 H   0  0  0  0  0  0
  -22.0616   -2.7586   23.2883 H   0  0  0  0  0  0
  -22.3662  -11.9782   22.4759 H   0  0  0  0  0  0
  -21.0800  -13.1282   22.2746 H   0  0  0  0  0  0
  -24.5319  -15.6817   20.5479 H   0  0  0  0  0  0
  -26.0438  -15.4900   21.1611 H   0  0  0  0  0  0
  -26.6756  -32.5245   23.1058 H   0  0  0  0  0  0
  -25.0270  -33.9635   25.0702 H   0  0  0  0  0  0
  -22.5901  -31.2633   21.4695 H   0  0  0  0  0  0
  -23.3726  -35.9651   23.3272 H   0  0  0  0  0  0
  -24.3676  -36.8903   22.2075 H   0  0  0  0  0  0
  -23.7338  -37.6473   23.6641 H   0  0  0  0  0  0
  -25.9777  -31.6574   20.6833 H   0  0  0  0  0  0
  -26.7469  -30.8263   22.0472 H   0  0  0  0  0  0
  -28.0194  -29.2442   21.1656 H   0  0  0  0  0  0
  -26.0063  -25.9070   19.2553 H   0  0  0  0  0  0
  -24.0525  -27.3575   18.8463 H   0  0  0  0  0  0
  -23.9291  -30.8319   19.5950 H   0  0  0  0  0  0
  -22.7093  -29.6243   19.6064 H   0  0  0  0  0  0
  -25.1304  -36.1775   25.0810 H   0  0  0  0  0  0
  -20.7022  -28.1208   24.0659 H   0  0  0  0  0  0
  -20.4426  -25.9677   23.0168 H   0  0  0  0  0  0
  -19.9555  -26.8856   21.5805 H   0  0  0  0  0  0
  -18.6477  -26.2567   23.4749 H   0  0  0  0  0  0
  -18.5170  -25.1726   22.2001 H   0  0  0  0  0  0
  -17.6480  -27.2976   20.8491 H   0  0  0  0  0  0
  -16.7793  -26.7135   22.1564 H   0  0  0  0  0  0
  -20.0622  -30.9049   23.8644 H   0  0  0  0  0  0
  -17.8568  -31.9419   24.5807 H   0  0  0  0  0  0
  -15.7292  -30.5593   24.4804 H   0  0  0  0  0  0
  -15.6255  -28.4445   23.3040 H   0  0  0  0  0  0
  -24.5877  -30.6943   25.7712 H   0  0  0  0  0  0
  -24.8906  -32.2700   26.4969 H   0  0  0  0  0  0
  -25.8113  -30.8583   27.0133 H   0  0  0  0  0  0
  -26.2949  -29.6584   24.1441 H   0  0  0  0  0  0
  -27.4426  -29.7420   25.4608 H   0  0  0  0  0  0
  -27.8609  -30.4368   23.9136 H   0  0  0  0  0  0
  -27.2595  -33.3512   26.2195 H   0  0  0  0  0  0
  -28.3938  -32.6786   25.0555 H   0  0  0  0  0  0
  -28.0477  -31.8264   26.5585 H   0  0  0  0  0  0
  -28.2552  -38.0157   24.7484 H   0  0  0  0  0  0
  -28.1131  -36.2644   24.6280 H   0  0  0  0  0  0
  -27.2312  -37.1427   25.8910 H   0  0  0  0  0  0
  -21.2031  -28.9630   21.3337 H   0  0  0  0  0  0
  -26.0139  -38.2744   24.1352 H   0  0  0  0  0  0
  -21.9107  -25.2067   23.1319 H   0  0  0  0  0  0
  -23.6425  -26.3984   24.1330 H   0  0  0  0  0  0
  -25.8967  -23.2837   22.2006 H   0  0  0  0  0  0
  -22.4834  -27.6262   20.0288 H   0  0  0  0  0  0
  -20.9874  -27.2829   20.0911 H   0  0  0  0  0  0
  -21.4387  -26.7657   18.7286 H   0  0  0  0  0  0
  -20.2945  -24.2807   20.4130 H   0  0  0  0  0  0
  -21.0159  -23.9237   18.7409 H   0  0  0  0  0  0
  -20.1104  -25.3397   19.2570 H   0  0  0  0  0  0
  -24.2314  -19.3996   19.6516 H   0  0  0  0  0  0
  -24.2455  -18.4677   21.0508 H   0  0  0  0  0  0
  -25.0879  -17.8079   19.7046 H   0  0  0  0  0  0
  -25.0638  -20.6788   22.3663 H   0  0  0  0  0  0
  -26.2976  -21.5585   21.6691 H   0  0  0  0  0  0
  -27.7333  -18.3278   22.0684 H   0  0  0  0  0  0
  -28.5011  -18.9617   20.6744 H   0  0  0  0  0  0
  -28.5174  -27.3713   22.7995 H   0  0  0  0  0  0
  -26.8315  -27.3628   22.4999 H   0  0  0  0  0  0
  -28.1342  -25.3269   23.8322 H   0  0  0  0  0  0
  -27.4665  -24.6113   22.3731 H   0  0  0  0  0  0
  -23.0388  -25.1332   19.2844 H   0  0  0  0  0  0
  -26.5218  -19.8990   19.7359 H   0  0  0  0  0  0
  -23.7381  -21.7169   20.1185 H   0  0  0  0  0  0
  -27.4955  -16.1106   20.3496 H   0  0  0  0  0  0
  1 25  1  0  0  0
  1 30  2  0  0  0
  1 87  1  0  0  0
  2  3  1  0  0  0
  2 25  1  0  0  0
  2 89  1  0  0  0
  2 90  1  0  0  0
  3  4  1  0  0  0
  3 91  1  0  0  0
  3 92  1  0  0  0
  4  5  1  0  0  0
  4 93  1  0  0  0
  4 94  1  0  0  0
  5  6  1  0  0  0
  5 26  1  0  0  0
  5 95  1  0  0  0
  6 25  1  0  0  0
  6 96  1  0  0  0
  6 97  1  0  0  0
  7  8  2  0  0  0
  7 26  1  0  0  0
  7 29  1  0  0  0
  8  9  1  0  0  0
  8 22  1  0  0  0
  9 10  1  0  0  0
  9 27  2  0  0  0
 10 11  2  0  0  0
 10 15  1  0  0  0
 11 12  1  0  0  0
 11 98  1  0  0  0
 12 13  2  0  0  0
 12 99  1  0  0  0
 13 14  1  0  0  0
 13 31  1  0  0  0
 14 15  2  0  0  0
 14100  1  0  0  0
 15101  1  0  0  0
 16 17  2  0  0  0
 16 21  1  0  0  0
 16 31  1  0  0  0
 17 18  1  0  0  0
 17102  1  0  0  0
 18 19  2  0  0  0
 18103  1  0  0  0
 19 20  1  0  0  0
 19 24  1  0  0  0
 20 21  2  0  0  0
 20104  1  0  0  0
 21 23  1  0  0  0
 22 28  1  0  0  0
 22 32  2  0  0  0
 26 27  1  0  0  0
 28105  1  0  0  0
 28106  1  0  0  0
 29107  1  0  0  0
 29108  1  0  0  0
 33 34  1  0  0  0
 33 66  1  0  0  0
 33 70  2  0  0  0
 34 36  1  0  0  0
 34 59  1  0  0  0
 34109  1  0  0  0
 35 44  2  0  0  0
 35 45  1  0  0  0
 35 68  1  0  0  0
 36 56  1  0  0  0
 36110  1  0  0  0
 37 39  1  0  0  0
 37 47  1  0  0  0
 37 66  1  0  0  0
 37111  1  0  0  0
 38 43  2  0  0  0
 38 46  1  0  0  0
 38 47  1  0  0  0
 39 64  1  0  0  0
 39 67  2  0  0  0
 40 52  1  0  0  0
 40 53  2  0  0  0
 40 58  1  0  0  0
 41112  1  0  0  0
 41113  1  0  0  0
 41114  1  0  0  0
 41 48  1  0  0  0
 42 43  1  0  0  0
 42 66  1  0  0  0
 42115  1  0  0  0
 42116  1  0  0  0
 43 44  1  0  0  0
 44117  1  0  0  0
 45 46  2  0  0  0
 45118  1  0  0  0
 46119  1  0  0  0
 47120  1  0  0  0
 47121  1  0  0  0
 48 56  1  0  0  0
 48 65  1  0  0  0
 48122  1  0  0  0
 49 50  1  0  0  0
 49 53  1  0  0  0
 49 64  1  0  0  0
 49123  1  0  0  0
 50 51  1  0  0  0
 50124  1  0  0  0
 50125  1  0  0  0
 51 52  1  0  0  0
 51126  1  0  0  0
 51127  1  0  0  0
 52128  1  0  0  0
 52129  1  0  0  0
 53 54  1  0  0  0
 54 55  2  0  0  0
 54130  1  0  0  0
 55 57  1  0  0  0
 55131  1  0  0  0
 56 69  2  0  0  0
 57 58  2  0  0  0
 57132  1  0  0  0
 58133  1  0  0  0
 59 60  1  0  0  0
 59 61  1  0  0  0
 59 62  1  0  0  0
 60134  1  0  0  0
 60135  1  0  0  0
 60136  1  0  0  0
 61137  1  0  0  0
 61138  1  0  0  0
 61139  1  0  0  0
 62140  1  0  0  0
 62141  1  0  0  0
 62142  1  0  0  0
 63 65  1  0  0  0
 63143  1  0  0  0
 63144  1  0  0  0
 63145  1  0  0  0
 64146  1  0  0  0
 65147  1  0  0  0
 68 82  1  0  0  0
 71 72  2  0  0  0
 71 74  1  0  0  0
 71148  1  0  0  0
 72 76  1  0  0  0
 72149  1  0  0  0
 73 75  1  0  0  0
 73 76  2  0  0  0
 73150  1  0  0  0
 74 75  2  0  0  0
 74 84  1  0  0  0
 75 86  1  0  0  0
 76 88  1  0  0  0
 77151  1  0  0  0
 77152  1  0  0  0
 77153  1  0  0  0
 77 84  1  0  0  0
 78 84  1  0  0  0
 78154  1  0  0  0
 78155  1  0  0  0
 78156  1  0  0  0
 79157  1  0  0  0
 79158  1  0  0  0
 79159  1  0  0  0
 79 85  1  0  0  0
 80 85  1  0  0  0
 80 86  1  0  0  0
 80160  1  0  0  0
 80161  1  0  0  0
 81 85  1  0  0  0
 81 87  1  0  0  0
 81162  1  0  0  0
 81163  1  0  0  0
 82 83  1  0  0  0
 82164  1  0  0  0
 82165  1  0  0  0
 83 88  1  0  0  0
 83166  1  0  0  0
 83167  1  0  0  0
 84168  1  0  0  0
 85169  1  0  0  0
 86170  1  0  0  0
 87171  1  0  0  0
M  ISO  4   1 100  68 101  82 101  87 100
M  END
> <chiral flag>
0

> <version>
0

> <s_m_source_file>
/data/baiqing/PycharmProjects/Reinvent-master-3.2/result/LINK_invent/BTK/process_docking_weight1_custom_sum_contain_oxygen_bond_distance_aromatic_linkinvent_7_9_3/rearranged_h_0148.sdf

> <i_m_source_file_index>
16

> <r_mmod_Potential_Energy-OPLS-2005>
3528.8232421875

> <r_mmod_Stretch_Energy-OPLS-2005>
1012.34204101562

> <r_mmod_Bend_Energy-OPLS-2005>
951.742431640625

> <r_mmod_Torsional_Energy-OPLS-2005>
569.40771484375

> <r_mmod_Improper_Torsional_Energy-OPLS-2005>
28.5339527130127

> <r_mmod_Van_der_Waal_Energy-OPLS-2005>
283.876892089844

> <r_mmod_Electrostatic_Energy-OPLS-2005>
-387.950164794922

> <r_mmod_Solvation_Energy-OPLS-2005>
-221.167495727539

> <b_mmod_Minimization_Converged-OPLS-2005>
0

> <r_mmod_RMS_Derivative-OPLS-2005>
99.9990005493164

$$$$
16
                    3D
 Structure written by MMmdl.
171180  0  0  1  0            999 V2000
  -30.8069  -14.4732   20.5759 C   0  0  0  0  0  0
  -30.3913  -12.3446   19.4168 C   0  0  0  0  0  0
  -29.4718  -12.5067   18.1928 C   0  0  0  0  0  0
  -27.9986  -12.3640   18.6149 C   0  0  0  0  0  0
  -27.6508  -13.2149   19.8740 C   0  0  2  0  0  0
  -28.7061  -13.0523   20.9914 C   0  0  0  0  0  0
  -25.2569  -13.8155   20.5881 C   0  0  0  0  0  0
  -24.1815  -13.0427   20.9250 C   0  0  0  0  0  0
  -24.6368  -11.6910   20.8761 C   0  0  0  0  0  0
  -23.9079  -10.4297   21.0415 C   0  0  0  0  0  0
  -24.3668   -9.4224   21.9180 C   0  0  0  0  0  0
  -23.6347   -8.2275   22.0739 C   0  0  0  0  0  0
  -22.4337   -8.0311   21.3548 C   0  0  0  0  0  0
  -21.9987   -9.0262   20.4647 C   0  0  0  0  0  0
  -22.7281  -10.2146   20.3039 C   0  0  0  0  0  0
  -21.6854   -6.0771   22.5278 C   0  0  0  0  0  0
  -21.3989   -6.5639   23.8213 C   0  0  0  0  0  0
  -21.3656   -5.6794   24.9152 C   0  0  0  0  0  0
  -21.6041   -4.3063   24.7212 C   0  0  0  0  0  0
  -21.8829   -3.8166   23.4324 C   0  0  0  0  0  0
  -21.9207   -4.6994   22.3380 C   0  0  0  0  0  0
  -22.7874  -13.5262   21.1889 C   0  0  0  0  0  0
  -22.1696   -4.2159   21.0974 F   0  0  0  0  0  0
  -21.5641   -3.4550   25.7735 F   0  0  0  0  0  0
  -30.0103  -13.3759   20.4049 N   0  0  0  0  0  0
  -26.3001  -12.9357   20.3494 N   0  0  0  0  0  0
  -25.9281  -11.6506   20.5813 N   0  0  0  0  0  0
  -22.0467  -12.8239   22.0404 N   0  0  0  0  0  0
  -25.4240  -15.1876   20.4474 N   0  0  0  0  0  0
  -31.9702  -14.4925   20.1885 O   0  0  0  0  0  0
  -21.6665   -6.8925   21.4264 O   0  0  0  0  0  0
  -22.3608  -14.5585   20.6754 O   0  0  0  0  0  0
  -24.6207  -31.8631   23.2071 C   0  0  0  0  0  0
  -25.9073  -32.4761   23.8384 C   0  0  1  0  0  0
  -27.2262  -27.3929   20.0863 C   0  0  0  0  0  0
  -25.5905  -33.8564   24.2294 N   0  0  0  0  0  0
  -23.4106  -30.4924   21.5381 C   0  0  2  0  0  0
  -24.8543  -28.9456   20.1192 C   0  0  0  0  0  0
  -22.7338  -29.4768   22.4906 C   0  0  0  0  0  0
  -18.0175  -28.1418   22.8466 C   0  0  0  0  0  0
  -24.1493  -36.7275   23.2644 C   0  0  0  0  0  0
  -25.9459  -30.8085   21.3800 C   0  0  0  0  0  0
  -26.0147  -29.4422   20.7181 C   0  0  0  0  0  0
  -27.2024  -28.6695   20.7041 C   0  0  0  0  0  0
  -26.0325  -26.9094   19.5001 C   0  0  0  0  0  0
  -24.8574  -27.6785   19.5137 C   0  0  0  0  0  0
  -23.6233  -29.8198   20.1563 C   0  0  0  0  0  0
  -25.4124  -36.3070   24.0340 C   0  0  1  0  0  0
  -20.5748  -28.3834   23.1183 C   0  0  2  0  0  0
  -20.6670  -26.9483   22.5412 C   0  0  0  0  0  0
  -19.5572  -26.6177   21.5385 C   0  0  0  0  0  0
  -18.1787  -26.7853   22.1840 C   0  0  0  0  0  0
  -19.1409  -28.8954   23.2811 C   0  0  0  0  0  0
  -18.9345  -30.1554   23.8750 C   0  0  0  0  0  0
  -17.6318  -30.6632   24.0523 C   0  0  0  0  0  0
  -25.9044  -34.9435   23.5099 C   0  0  0  0  0  0
  -16.5210  -29.9095   23.6286 C   0  0  0  0  0  0
  -16.7150  -28.6517   23.0293 C   0  0  0  0  0  0
  -26.4482  -31.6553   25.0728 C   0  0  0  0  0  0
  -25.3741  -31.3663   26.1473 C   0  0  0  0  0  0
  -27.0350  -30.2989   24.6181 C   0  0  0  0  0  0
  -27.6035  -32.4334   25.7480 C   0  0  0  0  0  0
  -27.5582  -37.1792   24.8476 C   0  0  0  0  0  0
  -21.4045  -29.3160   22.3519 N   0  0  0  0  0  0
  -26.4304  -37.3774   23.9402 N   0  0  0  0  0  0
  -24.6748  -31.0723   22.0977 N   0  0  0  0  0  0
  -23.4041  -28.8354   23.3043 O   0  0  0  0  0  0
  -28.4025  -26.6638   20.0755 O   0  0  0  0  0  0
  -26.5636  -34.8901   22.4692 O   0  0  0  0  0  0
  -23.5385  -32.1386   23.7438 O   0  0  0  0  0  0
  -25.7572  -19.6082   20.3719 C   0  0  0  0  0  0
  -27.9988  -20.5650   20.4368 C   0  0  0  0  0  0
  -26.1273  -21.9136   19.6627 C   0  0  0  0  0  0
  -27.1290  -19.4691   20.6843 C   0  0  0  0  0  0
  -25.2601  -20.8161   19.8351 C   0  0  0  0  0  0
  -27.5001  -21.8179   19.9795 C   0  0  0  0  0  0
  -28.3209  -17.1362   20.4517 C   0  0  0  0  0  0
  -27.6124  -18.1680   21.3420 C   0  0  1  0  0  0
  -29.1894  -16.3630   21.4610 C   0  0  2  0  0  0
  -29.6632  -17.5692   22.3144 C   0  0  2  0  0  0
  -23.8042  -20.9455   19.4219 C   0  0  0  0  0  0
  -31.6510  -16.6560   23.6794 C   0  0  0  0  0  0
  -30.3297  -18.6234   24.5348 C   0  0  0  0  0  0
  -28.4581  -25.3587   19.4465 C   0  0  0  0  0  0
  -27.9698  -24.1768   20.3343 C   0  0  0  0  0  0
  -30.2535  -17.3069   23.7289 C   0  0  0  0  0  0
  -30.3284  -15.7074   20.8123 N   0  0  0  0  0  0
  -28.5099  -18.3992   22.4172 O   0  0  0  0  0  0
  -28.3668  -22.8878   19.8095 O   0  0  0  0  0  0
  -31.4301  -12.3969   19.0968 H   0  0  0  0  0  0
  -30.2758  -11.3488   19.8455 H   0  0  0  0  0  0
  -29.7251  -11.7581   17.4386 H   0  0  0  0  0  0
  -29.6195  -13.4838   17.7227 H   0  0  0  0  0  0
  -27.8112  -11.3101   18.8175 H   0  0  0  0  0  0
  -27.3411  -12.6364   17.7871 H   0  0  0  0  0  0
  -27.6797  -14.2562   19.5619 H   0  0  0  0  0  0
  -28.7197  -12.0282   21.3689 H   0  0  0  0  0  0
  -28.4662  -13.6554   21.8598 H   0  0  0  0  0  0
  -25.2813   -9.5689   22.4747 H   0  0  0  0  0  0
  -24.0030   -7.4677   22.7475 H   0  0  0  0  0  0
  -21.0901   -8.8794   19.8967 H   0  0  0  0  0  0
  -22.3758  -10.9696   19.6138 H   0  0  0  0  0  0
  -21.1952   -7.6142   23.9689 H   0  0  0  0  0  0
  -21.1469   -6.0528   25.9056 H   0  0  0  0  0  0
  -22.0613   -2.7633   23.2799 H   0  0  0  0  0  0
  -22.4128  -11.9898   22.4770 H   0  0  0  0  0  0
  -21.1014  -13.1183   22.2400 H   0  0  0  0  0  0
  -24.6557  -15.8278   20.6090 H   0  0  0  0  0  0
  -26.2762  -15.6373   20.1490 H   0  0  0  0  0  0
  -26.7148  -32.5423   23.1133 H   0  0  0  0  0  0
  -25.0024  -33.9718   25.0413 H   0  0  0  0  0  0
  -22.7068  -31.3153   21.3858 H   0  0  0  0  0  0
  -23.3755  -35.9602   23.3343 H   0  0  0  0  0  0
  -24.3548  -36.8864   22.2037 H   0  0  0  0  0  0
  -23.7261  -37.6492   23.6646 H   0  0  0  0  0  0
  -26.0969  -31.5800   20.6254 H   0  0  0  0  0  0
  -26.8165  -30.8294   22.0232 H   0  0  0  0  0  0
  -28.0976  -29.0463   21.1841 H   0  0  0  0  0  0
  -25.9714  -25.9394   19.0312 H   0  0  0  0  0  0
  -23.9546  -27.2889   19.0650 H   0  0  0  0  0  0
  -23.7477  -30.5818   19.3884 H   0  0  0  0  0  0
  -22.7517  -29.2434   19.8531 H   0  0  0  0  0  0
  -25.1305  -36.1910   25.0840 H   0  0  0  0  0  0
  -20.9825  -28.3595   24.1308 H   0  0  0  0  0  0
  -21.6465  -26.7518   22.1032 H   0  0  0  0  0  0
  -20.5771  -26.2493   23.3717 H   0  0  0  0  0  0
  -19.6727  -25.5943   21.1848 H   0  0  0  0  0  0
  -19.6479  -27.2684   20.6696 H   0  0  0  0  0  0
  -17.3939  -26.6467   21.4383 H   0  0  0  0  0  0
  -18.0281  -26.0101   22.9424 H   0  0  0  0  0  0
  -19.7854  -30.7365   24.2106 H   0  0  0  0  0  0
  -17.4865  -31.6272   24.5203 H   0  0  0  0  0  0
  -15.5220  -30.2926   23.7693 H   0  0  0  0  0  0
  -15.8525  -28.0875   22.6999 H   0  0  0  0  0  0
  -24.5917  -30.7022   25.7788 H   0  0  0  0  0  0
  -24.8944  -32.2811   26.4966 H   0  0  0  0  0  0
  -25.8093  -30.8785   27.0210 H   0  0  0  0  0  0
  -26.2895  -29.6701   24.1317 H   0  0  0  0  0  0
  -27.4146  -29.7297   25.4670 H   0  0  0  0  0  0
  -27.8735  -30.4269   23.9344 H   0  0  0  0  0  0
  -27.2610  -33.3634   26.2069 H   0  0  0  0  0  0
  -28.3820  -32.6939   25.0280 H   0  0  0  0  0  0
  -28.0753  -31.8483   26.5389 H   0  0  0  0  0  0
  -28.2620  -38.0069   24.7510 H   0  0  0  0  0  0
  -28.1062  -36.2597   24.6343 H   0  0  0  0  0  0
  -27.2279  -37.1504   25.8877 H   0  0  0  0  0  0
  -20.9298  -29.8653   21.6478 H   0  0  0  0  0  0
  -26.0178  -38.2840   24.1447 H   0  0  0  0  0  0
  -25.0867  -18.7804   20.5529 H   0  0  0  0  0  0
  -29.0508  -20.4515   20.6383 H   0  0  0  0  0  0
  -25.7303  -22.8259   19.2439 H   0  0  0  0  0  0
  -28.9738  -17.6374   19.7355 H   0  0  0  0  0  0
  -27.6370  -16.5193   19.8675 H   0  0  0  0  0  0
  -26.7446  -17.6777   21.7882 H   0  0  0  0  0  0
  -28.6009  -15.7011   22.0906 H   0  0  0  0  0  0
  -30.3876  -18.1502   21.7368 H   0  0  0  0  0  0
  -23.3723  -21.8737   19.7941 H   0  0  0  0  0  0
  -23.2061  -20.1095   19.7738 H   0  0  0  0  0  0
  -23.7165  -20.9532   18.3361 H   0  0  0  0  0  0
  -31.6213  -15.6439   23.2763 H   0  0  0  0  0  0
  -32.0907  -16.5767   24.6728 H   0  0  0  0  0  0
  -32.3373  -17.2348   23.0578 H   0  0  0  0  0  0
  -29.3437  -19.0710   24.6688 H   0  0  0  0  0  0
  -30.9579  -19.3592   24.0331 H   0  0  0  0  0  0
  -30.7389  -18.4752   25.5360 H   0  0  0  0  0  0
  -27.9817  -25.3500   18.4636 H   0  0  0  0  0  0
  -29.5140  -25.1892   19.2327 H   0  0  0  0  0  0
  -28.4583  -24.2602   21.3055 H   0  0  0  0  0  0
  -26.9043  -24.2523   20.5437 H   0  0  0  0  0  0
  -29.5952  -16.6296   24.2718 H   0  0  0  0  0  0
  -31.0976  -16.3500   20.6856 H   0  0  0  0  0  0
  1 25  1  0  0  0
  1 30  2  0  0  0
  1 87  1  0  0  0
  2  3  1  0  0  0
  2 25  1  0  0  0
  2 90  1  0  0  0
  2 91  1  0  0  0
  3  4  1  0  0  0
  3 92  1  0  0  0
  3 93  1  0  0  0
  4  5  1  0  0  0
  4 94  1  0  0  0
  4 95  1  0  0  0
  5  6  1  0  0  0
  5 26  1  0  0  0
  5 96  1  0  0  0
  6 25  1  0  0  0
  6 97  1  0  0  0
  6 98  1  0  0  0
  7  8  2  0  0  0
  7 26  1  0  0  0
  7 29  1  0  0  0
  8  9  1  0  0  0
  8 22  1  0  0  0
  9 10  1  0  0  0
  9 27  2  0  0  0
 10 11  2  0  0  0
 10 15  1  0  0  0
 11 12  1  0  0  0
 11 99  1  0  0  0
 12 13  2  0  0  0
 12100  1  0  0  0
 13 14  1  0  0  0
 13 31  1  0  0  0
 14 15  2  0  0  0
 14101  1  0  0  0
 15102  1  0  0  0
 16 17  2  0  0  0
 16 21  1  0  0  0
 16 31  1  0  0  0
 17 18  1  0  0  0
 17103  1  0  0  0
 18 19  2  0  0  0
 18104  1  0  0  0
 19 20  1  0  0  0
 19 24  1  0  0  0
 20 21  2  0  0  0
 20105  1  0  0  0
 21 23  1  0  0  0
 22 28  1  0  0  0
 22 32  2  0  0  0
 26 27  1  0  0  0
 28106  1  0  0  0
 28107  1  0  0  0
 29108  1  0  0  0
 29109  1  0  0  0
 33 34  1  0  0  0
 33 66  1  0  0  0
 33 70  2  0  0  0
 34 36  1  0  0  0
 34 59  1  0  0  0
 34110  1  0  0  0
 35 44  2  0  0  0
 35 45  1  0  0  0
 35 68  1  0  0  0
 36 56  1  0  0  0
 36111  1  0  0  0
 37 39  1  0  0  0
 37 47  1  0  0  0
 37 66  1  0  0  0
 37112  1  0  0  0
 38 43  2  0  0  0
 38 46  1  0  0  0
 38 47  1  0  0  0
 39 64  1  0  0  0
 39 67  2  0  0  0
 40 52  1  0  0  0
 40 53  2  0  0  0
 40 58  1  0  0  0
 41113  1  0  0  0
 41114  1  0  0  0
 41115  1  0  0  0
 41 48  1  0  0  0
 42 43  1  0  0  0
 42 66  1  0  0  0
 42116  1  0  0  0
 42117  1  0  0  0
 43 44  1  0  0  0
 44118  1  0  0  0
 45 46  2  0  0  0
 45119  1  0  0  0
 46120  1  0  0  0
 47121  1  0  0  0
 47122  1  0  0  0
 48 56  1  0  0  0
 48 65  1  0  0  0
 48123  1  0  0  0
 49 50  1  0  0  0
 49 53  1  0  0  0
 49 64  1  0  0  0
 49124  1  0  0  0
 50 51  1  0  0  0
 50125  1  0  0  0
 50126  1  0  0  0
 51 52  1  0  0  0
 51127  1  0  0  0
 51128  1  0  0  0
 52129  1  0  0  0
 52130  1  0  0  0
 53 54  1  0  0  0
 54 55  2  0  0  0
 54131  1  0  0  0
 55 57  1  0  0  0
 55132  1  0  0  0
 56 69  2  0  0  0
 57 58  2  0  0  0
 57133  1  0  0  0
 58134  1  0  0  0
 59 60  1  0  0  0
 59 61  1  0  0  0
 59 62  1  0  0  0
 60135  1  0  0  0
 60136  1  0  0  0
 60137  1  0  0  0
 61138  1  0  0  0
 61139  1  0  0  0
 61140  1  0  0  0
 62141  1  0  0  0
 62142  1  0  0  0
 62143  1  0  0  0
 63 65  1  0  0  0
 63144  1  0  0  0
 63145  1  0  0  0
 63146  1  0  0  0
 64147  1  0  0  0
 65148  1  0  0  0
 68 84  1  0  0  0
 71 74  2  0  0  0
 71 75  1  0  0  0
 71149  1  0  0  0
 72 74  1  0  0  0
 72 76  2  0  0  0
 72150  1  0  0  0
 73 75  2  0  0  0
 73 76  1  0  0  0
 73151  1  0  0  0
 74 78  1  0  0  0
 75 81  1  0  0  0
 76 89  1  0  0  0
 77 78  1  0  0  0
 77 79  1  0  0  0
 77152  1  0  0  0
 77153  1  0  0  0
 78 88  1  0  0  0
 78154  1  0  0  0
 79 80  1  0  0  0
 79 87  1  0  0  0
 79155  1  0  0  0
 80 86  1  0  0  0
 80 88  1  0  0  0
 80156  1  0  0  0
 81157  1  0  0  0
 81158  1  0  0  0
 81159  1  0  0  0
 82160  1  0  0  0
 82161  1  0  0  0
 82162  1  0  0  0
 82 86  1  0  0  0
 83 86  1  0  0  0
 83163  1  0  0  0
 83164  1  0  0  0
 83165  1  0  0  0
 84 85  1  0  0  0
 84166  1  0  0  0
 84167  1  0  0  0
 85 89  1  0  0  0
 85168  1  0  0  0
 85169  1  0  0  0
 86170  1  0  0  0
 87171  1  0  0  0
M  ISO  4   1 100  68 101  84 101  87 100
M  END
> <chiral flag>
0

> <version>
0

> <s_m_source_file>
/data/baiqing/PycharmProjects/Reinvent-master-3.2/result/LINK_invent/BTK/process_docking_weight1_custom_sum_contain_oxygen_bond_distance_aromatic_linkinvent_7_9_3/rearranged_h_0148.sdf

> <i_m_source_file_index>
17

> <r_mmod_Potential_Energy-OPLS-2005>
97.0551681518555

> <r_mmod_Stretch_Energy-OPLS-2005>
44.459831237793

> <r_mmod_Bend_Energy-OPLS-2005>
204.138320922852

> <r_mmod_Torsional_Energy-OPLS-2005>
297.268585205078

> <r_mmod_Improper_Torsional_Energy-OPLS-2005>
10.4118251800537

> <r_mmod_Van_der_Waal_Energy-OPLS-2005>
133.525634765625

> <r_mmod_Electrostatic_Energy-OPLS-2005>
-422.413482666016

> <r_mmod_Solvation_Energy-OPLS-2005>
-197.773254394531

> <b_mmod_Minimization_Converged-OPLS-2005>
0

> <r_mmod_RMS_Derivative-OPLS-2005>
8.77124977111816

$$$$
17
                    3D
 Structure written by MMmdl.
161171  0  0  1  0            999 V2000
  -30.5497  -14.8307   20.4367 C   0  0  0  0  0  0
  -30.4433  -12.5040   19.4887 C   0  0  0  0  0  0
  -29.5198  -12.5239   18.2469 C   0  0  0  0  0  0
  -28.0449  -12.3335   18.6546 C   0  0  0  0  0  0
  -27.6380  -13.2408   19.8454 C   0  0  2  0  0  0
  -28.6791  -13.1918   20.9812 C   0  0  0  0  0  0
  -25.2483  -13.8210   20.5704 C   0  0  0  0  0  0
  -24.1784  -13.0440   20.9220 C   0  0  0  0  0  0
  -24.6393  -11.6923   20.8741 C   0  0  0  0  0  0
  -23.9081  -10.4297   21.0407 C   0  0  0  0  0  0
  -24.3628   -9.4209   21.9186 C   0  0  0  0  0  0
  -23.6301   -8.2240   22.0752 C   0  0  0  0  0  0
  -22.4281   -8.0279   21.3544 C   0  0  0  0  0  0
  -21.9922   -9.0252   20.4645 C   0  0  0  0  0  0
  -22.7252  -10.2132   20.3058 C   0  0  0  0  0  0
  -21.6851   -6.0744   22.5286 C   0  0  0  0  0  0
  -21.4010   -6.5648   23.8219 C   0  0  0  0  0  0
  -21.3659   -5.6794   24.9180 C   0  0  0  0  0  0
  -21.6042   -4.3057   24.7226 C   0  0  0  0  0  0
  -21.8815   -3.8159   23.4346 C   0  0  0  0  0  0
  -21.9188   -4.6974   22.3408 C   0  0  0  0  0  0
  -22.7803  -13.5204   21.1896 C   0  0  0  0  0  0
  -22.1656   -4.2161   21.0982 F   0  0  0  0  0  0
  -21.5629   -3.4541   25.7739 F   0  0  0  0  0  0
  -29.9796  -13.5682   20.4149 N   0  0  0  0  0  0
  -26.2916  -12.9437   20.3254 N   0  0  0  0  0  0
  -25.9328  -11.6573   20.5722 N   0  0  0  0  0  0
  -22.0456  -12.8180   22.0444 N   0  0  0  0  0  0
  -25.4164  -15.1941   20.4152 N   0  0  0  0  0  0
  -31.7547  -14.9167   20.1709 O   0  0  0  0  0  0
  -21.6635   -6.8886   21.4246 O   0  0  0  0  0  0
  -22.3485  -14.5518   20.6760 O   0  0  0  0  0  0
  -24.6369  -31.8502   23.1931 C   0  0  0  0  0  0
  -25.9177  -32.4725   23.8305 C   0  0  1  0  0  0
  -27.2136  -27.1925   20.1484 C   0  0  0  0  0  0
  -25.5953  -33.8529   24.2222 N   0  0  0  0  0  0
  -23.4387  -30.4715   21.5378 C   0  0  2  0  0  0
  -24.8875  -28.9062   20.1158 C   0  0  0  0  0  0
  -22.7533  -29.4562   22.4865 C   0  0  0  0  0  0
  -18.0305  -28.1390   22.8473 C   0  0  0  0  0  0
  -24.1486  -36.7243   23.2638 C   0  0  0  0  0  0
  -25.9911  -30.7423   21.3843 C   0  0  0  0  0  0
  -26.0638  -29.3588   20.7255 C   0  0  0  0  0  0
  -27.2339  -28.5196   20.7204 C   0  0  0  0  0  0
  -26.0101  -26.8226   19.5124 C   0  0  0  0  0  0
  -24.8679  -27.6487   19.4954 C   0  0  0  0  0  0
  -23.6656  -29.8078   20.1556 C   0  0  0  0  0  0
  -25.4120  -36.3036   24.0314 C   0  0  1  0  0  0
  -20.5914  -28.3706   23.1250 C   0  0  2  0  0  0
  -20.6791  -26.9410   22.5413 C   0  0  0  0  0  0
  -19.5776  -26.6386   21.5206 C   0  0  0  0  0  0
  -18.1950  -26.7931   22.1600 C   0  0  0  0  0  0
  -19.1564  -28.8860   23.2853 C   0  0  0  0  0  0
  -18.9496  -30.1470   23.8877 C   0  0  0  0  0  0
  -17.6490  -30.6593   24.0572 C   0  0  0  0  0  0
  -25.9070  -34.9416   23.5056 C   0  0  0  0  0  0
  -16.5387  -29.9091   23.6341 C   0  0  0  0  0  0
  -16.7292  -28.6513   23.0348 C   0  0  0  0  0  0
  -26.4512  -31.6577   25.0730 C   0  0  0  0  0  0
  -25.3704  -31.3777   26.1436 C   0  0  0  0  0  0
  -27.0373  -30.2975   24.6281 C   0  0  0  0  0  0
  -27.6064  -32.4328   25.7504 C   0  0  0  0  0  0
  -27.5574  -37.1774   24.8456 C   0  0  0  0  0  0
  -21.4232  -29.3038   22.3619 N   0  0  0  0  0  0
  -26.4271  -37.3758   23.9425 N   0  0  0  0  0  0
  -24.7079  -31.0405   22.0944 N   0  0  0  0  0  0
  -23.4197  -28.8084   23.2980 O   0  0  0  0  0  0
  -28.2925  -26.2570   20.1699 O   0  0  0  0  0  0
  -26.5641  -34.8901   22.4631 O   0  0  0  0  0  0
  -23.5510  -32.1352   23.7188 O   0  0  0  0  0  0
  -31.6414  -18.5204   22.9050 C   0  0  0  0  0  0
  -31.1247  -17.4507   22.1629 C   0  0  0  0  0  0
  -29.9299  -21.5028   21.4128 C   0  0  0  0  0  0
  -30.3017  -20.1287   21.6331 C   0  0  0  0  0  0
  -29.7802  -19.0391   20.8463 C   0  0  0  0  0  0
  -31.2403  -19.8442   22.6592 C   0  0  0  0  0  0
  -30.1906  -17.6220   21.1180 C   0  0  0  0  0  0
  -29.0588  -21.9171   20.3820 C   0  0  0  0  0  0
  -28.8796  -19.5394   19.8479 C   0  0  0  0  0  0
  -27.5648  -23.9404   19.3338 C   0  0  0  0  0  0
  -28.8801  -23.4738   19.9223 C   0  0  1  0  0  0
  -28.0577  -24.7700   20.4948 C   0  0  1  0  0  0
  -31.8603  -20.9392   23.5189 C   0  0  0  0  0  0
  -27.3427  -19.0120   18.0536 C   0  0  0  0  0  0
  -29.6655  -16.2163   20.5002 C   0  0  0  0  0  0
  -28.5651  -20.8831   19.6218 N   0  0  0  0  0  0
  -28.3093  -18.6009   19.0120 O   0  0  0  0  0  0
  -31.4818  -12.6482   19.1848 H   0  0  0  0  0  0
  -30.4089  -11.5303   19.9798 H   0  0  0  0  0  0
  -29.8157  -11.7446   17.5439 H   0  0  0  0  0  0
  -29.6350  -13.4722   17.7189 H   0  0  0  0  0  0
  -27.9134  -11.2862   18.9294 H   0  0  0  0  0  0
  -27.3881  -12.5091   17.8014 H   0  0  0  0  0  0
  -27.6235  -14.2592   19.4565 H   0  0  0  0  0  0
  -28.7271  -12.1938   21.4182 H   0  0  0  0  0  0
  -28.3996  -13.8634   21.7940 H   0  0  0  0  0  0
  -25.2769   -9.5678   22.4765 H   0  0  0  0  0  0
  -24.0010   -7.4625   22.7468 H   0  0  0  0  0  0
  -21.0857   -8.8771   19.8947 H   0  0  0  0  0  0
  -22.3714  -10.9669   19.6168 H   0  0  0  0  0  0
  -21.2003   -7.6151   23.9729 H   0  0  0  0  0  0
  -21.1484   -6.0524   25.9080 H   0  0  0  0  0  0
  -22.0596   -2.7620   23.2843 H   0  0  0  0  0  0
  -22.4058  -11.9821   22.4806 H   0  0  0  0  0  0
  -21.1070  -13.1197   22.2660 H   0  0  0  0  0  0
  -24.6494  -15.8473   20.5330 H   0  0  0  0  0  0
  -26.2696  -15.6400   20.1035 H   0  0  0  0  0  0
  -26.7243  -32.5348   23.1040 H   0  0  0  0  0  0
  -25.0162  -33.9687   25.0406 H   0  0  0  0  0  0
  -22.7384  -31.2957   21.3854 H   0  0  0  0  0  0
  -23.3771  -35.9546   23.3274 H   0  0  0  0  0  0
  -24.3578  -36.8894   22.2059 H   0  0  0  0  0  0
  -23.7214  -37.6421   23.6687 H   0  0  0  0  0  0
  -26.1439  -31.5019   20.6166 H   0  0  0  0  0  0
  -26.8620  -30.7871   22.0267 H   0  0  0  0  0  0
  -28.1385  -28.8637   21.2024 H   0  0  0  0  0  0
  -25.9267  -25.8649   19.0245 H   0  0  0  0  0  0
  -23.9676  -27.2957   19.0108 H   0  0  0  0  0  0
  -23.8138  -30.5891   19.4083 H   0  0  0  0  0  0
  -22.7795  -29.2584   19.8347 H   0  0  0  0  0  0
  -25.1291  -36.1858   25.0801 H   0  0  0  0  0  0
  -21.0030  -28.3304   24.1363 H   0  0  0  0  0  0
  -20.5676  -26.2315   23.3625 H   0  0  0  0  0  0
  -21.6653  -26.7407   22.1219 H   0  0  0  0  0  0
  -19.6937  -25.6293   21.1252 H   0  0  0  0  0  0
  -19.6735  -27.3188   20.6738 H   0  0  0  0  0  0
  -17.4227  -26.6720   21.3997 H   0  0  0  0  0  0
  -18.0315  -26.0056   22.8975 H   0  0  0  0  0  0
  -19.7982  -30.7296   24.2211 H   0  0  0  0  0  0
  -17.5063  -31.6261   24.5197 H   0  0  0  0  0  0
  -15.5394  -30.3001   23.7680 H   0  0  0  0  0  0
  -15.8687  -28.0854   22.7043 H   0  0  0  0  0  0
  -24.5980  -30.6980   25.7822 H   0  0  0  0  0  0
  -24.8779  -32.2953   26.4665 H   0  0  0  0  0  0
  -25.8017  -30.9172   27.0332 H   0  0  0  0  0  0
  -26.3005  -29.6718   24.1246 H   0  0  0  0  0  0
  -27.3965  -29.7236   25.4832 H   0  0  0  0  0  0
  -27.8888  -30.4211   23.9590 H   0  0  0  0  0  0
  -27.2722  -33.3732   26.1888 H   0  0  0  0  0  0
  -28.3987  -32.6707   25.0395 H   0  0  0  0  0  0
  -28.0579  -31.8558   26.5587 H   0  0  0  0  0  0
  -28.2537  -38.0119   24.7545 H   0  0  0  0  0  0
  -28.1114  -36.2651   24.6204 H   0  0  0  0  0  0
  -27.2304  -37.1314   25.8857 H   0  0  0  0  0  0
  -20.9419  -29.8779   21.6835 H   0  0  0  0  0  0
  -26.0124  -38.2798   24.1510 H   0  0  0  0  0  0
  -32.3558  -18.3060   23.6892 H   0  0  0  0  0  0
  -31.4623  -16.4601   22.4391 H   0  0  0  0  0  0
  -30.3684  -22.2912   22.0067 H   0  0  0  0  0  0
  -26.6808  -23.3362   19.5269 H   0  0  0  0  0  0
  -27.6150  -24.3661   18.3339 H   0  0  0  0  0  0
  -29.7775  -23.7361   19.3673 H   0  0  0  0  0  0
  -27.5712  -24.6508   21.4615 H   0  0  0  0  0  0
  -32.5735  -20.5327   24.2359 H   0  0  0  0  0  0
  -31.0944  -21.4673   24.0871 H   0  0  0  0  0  0
  -32.3941  -21.6596   22.8982 H   0  0  0  0  0  0
  -27.0904  -18.1609   17.4211 H   0  0  0  0  0  0
  -27.7114  -19.8013   17.3980 H   0  0  0  0  0  0
  -26.4273  -19.3418   18.5459 H   0  0  0  0  0  0
  -29.3492  -16.3974   19.4761 H   0  0  0  0  0  0
  -28.7505  -15.9874   21.0432 H   0  0  0  0  0  0
  1 25  1  0  0  0
  1 30  2  0  0  0
  1 85  1  0  0  0
  2  3  1  0  0  0
  2 25  1  0  0  0
  2 88  1  0  0  0
  2 89  1  0  0  0
  3  4  1  0  0  0
  3 90  1  0  0  0
  3 91  1  0  0  0
  4  5  1  0  0  0
  4 92  1  0  0  0
  4 93  1  0  0  0
  5  6  1  0  0  0
  5 26  1  0  0  0
  5 94  1  0  0  0
  6 25  1  0  0  0
  6 95  1  0  0  0
  6 96  1  0  0  0
  7  8  2  0  0  0
  7 26  1  0  0  0
  7 29  1  0  0  0
  8  9  1  0  0  0
  8 22  1  0  0  0
  9 10  1  0  0  0
  9 27  2  0  0  0
 10 11  2  0  0  0
 10 15  1  0  0  0
 11 12  1  0  0  0
 11 97  1  0  0  0
 12 13  2  0  0  0
 12 98  1  0  0  0
 13 14  1  0  0  0
 13 31  1  0  0  0
 14 15  2  0  0  0
 14 99  1  0  0  0
 15100  1  0  0  0
 16 17  2  0  0  0
 16 21  1  0  0  0
 16 31  1  0  0  0
 17 18  1  0  0  0
 17101  1  0  0  0
 18 19  2  0  0  0
 18102  1  0  0  0
 19 20  1  0  0  0
 19 24  1  0  0  0
 20 21  2  0  0  0
 20103  1  0  0  0
 21 23  1  0  0  0
 22 28  1  0  0  0
 22 32  2  0  0  0
 26 27  1  0  0  0
 28104  1  0  0  0
 28105  1  0  0  0
 29106  1  0  0  0
 29107  1  0  0  0
 33 34  1  0  0  0
 33 66  1  0  0  0
 33 70  2  0  0  0
 34 36  1  0  0  0
 34 59  1  0  0  0
 34108  1  0  0  0
 35 44  2  0  0  0
 35 45  1  0  0  0
 35 68  1  0  0  0
 36 56  1  0  0  0
 36109  1  0  0  0
 37 39  1  0  0  0
 37 47  1  0  0  0
 37 66  1  0  0  0
 37110  1  0  0  0
 38 43  2  0  0  0
 38 46  1  0  0  0
 38 47  1  0  0  0
 39 64  1  0  0  0
 39 67  2  0  0  0
 40 52  1  0  0  0
 40 53  2  0  0  0
 40 58  1  0  0  0
 41111  1  0  0  0
 41112  1  0  0  0
 41113  1  0  0  0
 41 48  1  0  0  0
 42 43  1  0  0  0
 42 66  1  0  0  0
 42114  1  0  0  0
 42115  1  0  0  0
 43 44  1  0  0  0
 44116  1  0  0  0
 45 46  2  0  0  0
 45117  1  0  0  0
 46118  1  0  0  0
 47119  1  0  0  0
 47120  1  0  0  0
 48 56  1  0  0  0
 48 65  1  0  0  0
 48121  1  0  0  0
 49 50  1  0  0  0
 49 53  1  0  0  0
 49 64  1  0  0  0
 49122  1  0  0  0
 50 51  1  0  0  0
 50123  1  0  0  0
 50124  1  0  0  0
 51 52  1  0  0  0
 51125  1  0  0  0
 51126  1  0  0  0
 52127  1  0  0  0
 52128  1  0  0  0
 53 54  1  0  0  0
 54 55  2  0  0  0
 54129  1  0  0  0
 55 57  1  0  0  0
 55130  1  0  0  0
 56 69  2  0  0  0
 57 58  2  0  0  0
 57131  1  0  0  0
 58132  1  0  0  0
 59 60  1  0  0  0
 59 61  1  0  0  0
 59 62  1  0  0  0
 60133  1  0  0  0
 60134  1  0  0  0
 60135  1  0  0  0
 61136  1  0  0  0
 61137  1  0  0  0
 61138  1  0  0  0
 62139  1  0  0  0
 62140  1  0  0  0
 62141  1  0  0  0
 63 65  1  0  0  0
 63142  1  0  0  0
 63143  1  0  0  0
 63144  1  0  0  0
 64145  1  0  0  0
 65146  1  0  0  0
 68 82  1  0  0  0
 71 72  2  0  0  0
 71 76  1  0  0  0
 71147  1  0  0  0
 72 77  1  0  0  0
 72148  1  0  0  0
 73 74  1  0  0  0
 73 78  2  0  0  0
 73149  1  0  0  0
 74 75  1  0  0  0
 74 76  2  0  0  0
 75 77  2  0  0  0
 75 79  1  0  0  0
 76 83  1  0  0  0
 77 85  1  0  0  0
 78 86  1  0  0  0
 78 81  1  0  0  0
 79 86  2  0  0  0
 79 87  1  0  0  0
 80 81  1  0  0  0
 80 82  1  0  0  0
 80150  1  0  0  0
 80151  1  0  0  0
 81 82  1  0  0  0
 81152  1  0  0  0
 82153  1  0  0  0
 83154  1  0  0  0
 83155  1  0  0  0
 83156  1  0  0  0
 84 87  1  0  0  0
 84157  1  0  0  0
 84158  1  0  0  0
 84159  1  0  0  0
 85160  1  0  0  0
 85161  1  0  0  0
M  ISO  4   1 100  68 101  82 101  85 100
M  END
> <chiral flag>
0

> <version>
0

> <s_m_source_file>
/data/baiqing/PycharmProjects/Reinvent-master-3.2/result/LINK_invent/BTK/process_docking_weight1_custom_sum_contain_oxygen_bond_distance_aromatic_linkinvent_7_9_3/rearranged_h_0148.sdf

> <i_m_source_file_index>
18

> <r_mmod_Potential_Energy-OPLS-2005>
230.765518188477

> <r_mmod_Stretch_Energy-OPLS-2005>
193.844024658203

> <r_mmod_Bend_Energy-OPLS-2005>
232.878158569336

> <r_mmod_Torsional_Energy-OPLS-2005>
204.193435668945

> <r_mmod_Improper_Torsional_Energy-OPLS-2005>
8.09822654724121

> <r_mmod_Van_der_Waal_Energy-OPLS-2005>
160.458389282227

> <r_mmod_Electrostatic_Energy-OPLS-2005>
-484.910430908203

> <r_mmod_Solvation_Energy-OPLS-2005>
-211.394256591797

> <b_mmod_Minimization_Converged-OPLS-2005>
0

> <r_mmod_RMS_Derivative-OPLS-2005>
2.28812170028687

$$$$
18
                    3D
 Structure written by MMmdl.
170179  0  0  1  0            999 V2000
  -30.6756  -14.5921   20.3977 C   0  0  0  0  0  0
  -30.4276  -12.3362   19.4419 C   0  0  0  0  0  0
  -29.4835  -12.3760   18.2174 C   0  0  0  0  0  0
  -28.0065  -12.2971   18.6423 C   0  0  0  0  0  0
  -27.6445  -13.2142   19.8420 C   0  0  2  0  0  0
  -28.7003  -13.1297   20.9662 C   0  0  0  0  0  0
  -25.2514  -13.8168   20.5638 C   0  0  0  0  0  0
  -24.1796  -13.0447   20.9208 C   0  0  0  0  0  0
  -24.6375  -11.6921   20.8796 C   0  0  0  0  0  0
  -23.9055  -10.4306   21.0448 C   0  0  0  0  0  0
  -24.3610   -9.4215   21.9212 C   0  0  0  0  0  0
  -23.6288   -8.2251   22.0772 C   0  0  0  0  0  0
  -22.4277   -8.0284   21.3556 C   0  0  0  0  0  0
  -21.9909   -9.0263   20.4662 C   0  0  0  0  0  0
  -22.7237  -10.2143   20.3088 C   0  0  0  0  0  0
  -21.6851   -6.0734   22.5280 C   0  0  0  0  0  0
  -21.4000   -6.5645   23.8209 C   0  0  0  0  0  0
  -21.3658   -5.6799   24.9172 C   0  0  0  0  0  0
  -21.6045   -4.3062   24.7221 C   0  0  0  0  0  0
  -21.8815   -3.8144   23.4346 C   0  0  0  0  0  0
  -21.9188   -4.6959   22.3403 C   0  0  0  0  0  0
  -22.7815  -13.5249   21.1858 C   0  0  0  0  0  0
  -22.1666   -4.2145   21.0983 F   0  0  0  0  0  0
  -21.5637   -3.4548   25.7734 F   0  0  0  0  0  0
  -30.0115  -13.4025   20.3656 N   0  0  0  0  0  0
  -26.2960  -12.9364   20.3312 N   0  0  0  0  0  0
  -25.9307  -11.6536   20.5851 N   0  0  0  0  0  0
  -22.0458  -12.8240   22.0409 N   0  0  0  0  0  0
  -25.4153  -15.1854   20.3888 N   0  0  0  0  0  0
  -31.9044  -14.6464   20.3195 O   0  0  0  0  0  0
  -21.6645   -6.8875   21.4245 O   0  0  0  0  0  0
  -22.3507  -14.5558   20.6712 O   0  0  0  0  0  0
  -24.6162  -31.8667   23.2083 C   0  0  0  0  0  0
  -25.9054  -32.4814   23.8380 C   0  0  1  0  0  0
  -27.2278  -27.4022   20.1233 C   0  0  0  0  0  0
  -25.5907  -33.8613   24.2314 N   0  0  0  0  0  0
  -23.4058  -30.4878   21.5489 C   0  0  2  0  0  0
  -24.8541  -28.9450   20.1197 C   0  0  0  0  0  0
  -22.7419  -29.4649   22.4992 C   0  0  0  0  0  0
  -18.0268  -28.1372   22.8492 C   0  0  0  0  0  0
  -24.1482  -36.7310   23.2638 C   0  0  0  0  0  0
  -25.9364  -30.8215   21.3670 C   0  0  0  0  0  0
  -26.0140  -29.4505   20.7225 C   0  0  0  0  0  0
  -27.2060  -28.6852   20.7236 C   0  0  0  0  0  0
  -26.0580  -26.9182   19.5071 C   0  0  0  0  0  0
  -24.8720  -27.6789   19.5072 C   0  0  0  0  0  0
  -23.6171  -29.8162   20.1649 C   0  0  0  0  0  0
  -25.4109  -36.3106   24.0336 C   0  0  1  0  0  0
  -20.5859  -28.3662   23.1323 C   0  0  2  0  0  0
  -20.6760  -26.9400   22.5423 C   0  0  0  0  0  0
  -19.5748  -26.6379   21.5215 C   0  0  0  0  0  0
  -18.1919  -26.7922   22.1613 C   0  0  0  0  0  0
  -19.1518  -28.8833   23.2903 C   0  0  0  0  0  0
  -18.9450  -30.1438   23.8913 C   0  0  0  0  0  0
  -17.6454  -30.6581   24.0562 C   0  0  0  0  0  0
  -25.9038  -34.9477   23.5126 C   0  0  0  0  0  0
  -16.5342  -29.9082   23.6328 C   0  0  0  0  0  0
  -16.7259  -28.6496   23.0352 C   0  0  0  0  0  0
  -26.4474  -31.6596   25.0714 C   0  0  0  0  0  0
  -25.3737  -31.3709   26.1460 C   0  0  0  0  0  0
  -27.0313  -30.3037   24.6104 C   0  0  0  0  0  0
  -27.6046  -32.4319   25.7484 C   0  0  0  0  0  0
  -27.5583  -37.1812   24.8464 C   0  0  0  0  0  0
  -21.4142  -29.3028   22.3729 N   0  0  0  0  0  0
  -26.4291  -37.3798   23.9409 N   0  0  0  0  0  0
  -24.6712  -31.0739   22.0998 N   0  0  0  0  0  0
  -23.4178  -28.8204   23.3054 O   0  0  0  0  0  0
  -28.3687  -26.6261   20.0870 O   0  0  0  0  0  0
  -26.5599  -34.8933   22.4681 O   0  0  0  0  0  0
  -23.5353  -32.1438   23.7457 O   0  0  0  0  0  0
  -31.1673  -20.4422   20.4985 C   0  0  0  0  0  0
  -30.2598  -19.3960   20.7486 C   0  0  0  0  0  0
  -28.8847  -19.7068   20.9461 C   0  0  0  0  0  0
  -30.7315  -21.7771   20.3803 C   0  0  0  0  0  0
  -28.4343  -21.0681   20.8076 C   0  0  0  0  0  0
  -29.3660  -22.1188   20.5145 C   0  0  0  0  0  0
  -27.8897  -18.5550   21.2266 C   0  0  0  0  0  0
  -28.4833  -17.1160   21.3139 C   0  0  0  0  0  0
  -30.7774  -17.9439   20.7288 C   0  0  2  0  0  0
  -29.6324  -16.9808   20.3115 C   0  0  1  0  0  0
  -31.7507  -22.8596   20.0700 C   0  0  0  0  0  0
  -26.9455  -21.3888   20.8845 C   0  0  0  0  0  0
  -31.4594  -17.5988   22.0676 C   0  0  0  0  0  0
  -30.2146  -15.7118   18.3414 C   0  0  0  0  0  0
  -28.5511  -25.7068   21.1871 C   0  0  0  0  0  0
  -28.1055  -24.2234   20.9713 C   0  0  0  0  0  0
  -29.9817  -15.6098   19.8005 N   0  0  0  0  0  0
  -29.0682  -23.4549   20.2286 O   0  0  0  0  0  0
  -31.4647  -12.4491   19.1185 H   0  0  0  0  0  0
  -30.3685  -11.3691   19.9430 H   0  0  0  0  0  0
  -29.7154  -11.5414   17.5544 H   0  0  0  0  0  0
  -29.6338  -13.2635   17.6123 H   0  0  0  0  0  0
  -27.8093  -11.2572   18.9043 H   0  0  0  0  0  0
  -27.3577  -12.5187   17.7943 H   0  0  0  0  0  0
  -27.6457  -14.2340   19.4586 H   0  0  0  0  0  0
  -28.6972  -12.1450   21.4345 H   0  0  0  0  0  0
  -28.4806  -13.8532   21.7534 H   0  0  0  0  0  0
  -25.2755   -9.5686   22.4788 H   0  0  0  0  0  0
  -23.9993   -7.4635   22.7483 H   0  0  0  0  0  0
  -21.0851   -8.8790   19.8957 H   0  0  0  0  0  0
  -22.3712  -10.9691   19.6198 H   0  0  0  0  0  0
  -21.1994   -7.6152   23.9710 H   0  0  0  0  0  0
  -21.1487   -6.0532   25.9075 H   0  0  0  0  0  0
  -22.0592   -2.7603   23.2846 H   0  0  0  0  0  0
  -22.4065  -11.9886   22.4773 H   0  0  0  0  0  0
  -21.1078  -13.1261   22.2623 H   0  0  0  0  0  0
  -24.6427  -15.8357   20.4769 H   0  0  0  0  0  0
  -26.2581  -15.6134   20.0301 H   0  0  0  0  0  0
  -26.7122  -32.5512   23.1140 H   0  0  0  0  0  0
  -25.0071  -33.9773   25.0468 H   0  0  0  0  0  0
  -22.6962  -31.3057   21.4070 H   0  0  0  0  0  0
  -23.3750  -35.9635   23.3304 H   0  0  0  0  0  0
  -24.3577  -36.8920   22.2051 H   0  0  0  0  0  0
  -23.7224  -37.6512   23.6650 H   0  0  0  0  0  0
  -26.0490  -31.5814   20.5925 H   0  0  0  0  0  0
  -26.8243  -30.8795   21.9851 H   0  0  0  0  0  0
  -28.1016  -29.0710   21.1899 H   0  0  0  0  0  0
  -26.0651  -25.9483   19.0304 H   0  0  0  0  0  0
  -23.9833  -27.2852   19.0333 H   0  0  0  0  0  0
  -23.7268  -30.5894   19.4034 H   0  0  0  0  0  0
  -22.7410  -29.2358   19.8689 H   0  0  0  0  0  0
  -25.1286  -36.1970   25.0830 H   0  0  0  0  0  0
  -20.9941  -28.3215   24.1446 H   0  0  0  0  0  0
  -20.5652  -26.2272   23.3607 H   0  0  0  0  0  0
  -21.6635  -26.7440   22.1220 H   0  0  0  0  0  0
  -19.6911  -25.6291   21.1239 H   0  0  0  0  0  0
  -19.6696  -27.3194   20.6750 H   0  0  0  0  0  0
  -17.4202  -26.6683   21.4002 H   0  0  0  0  0  0
  -18.0312  -26.0049   22.8991 H   0  0  0  0  0  0
  -19.7931  -30.7244   24.2288 H   0  0  0  0  0  0
  -17.5015  -31.6270   24.5149 H   0  0  0  0  0  0
  -15.5347  -30.2991   23.7649 H   0  0  0  0  0  0
  -15.8654  -28.0819   22.7068 H   0  0  0  0  0  0
  -24.5903  -30.7065   25.7792 H   0  0  0  0  0  0
  -24.8939  -32.2868   26.4918 H   0  0  0  0  0  0
  -25.8083  -30.8865   27.0212 H   0  0  0  0  0  0
  -26.2867  -29.6794   24.1147 H   0  0  0  0  0  0
  -27.4074  -29.7273   25.4566 H   0  0  0  0  0  0
  -27.8702  -30.4357   23.9266 H   0  0  0  0  0  0
  -27.2655  -33.3603   26.2093 H   0  0  0  0  0  0
  -28.3842  -32.6904   25.0305 H   0  0  0  0  0  0
  -28.0730  -31.8424   26.5377 H   0  0  0  0  0  0
  -28.2602  -38.0108   24.7516 H   0  0  0  0  0  0
  -28.1076  -36.2645   24.6277 H   0  0  0  0  0  0
  -27.2310  -37.1442   25.8869 H   0  0  0  0  0  0
  -20.9305  -29.8752   21.6951 H   0  0  0  0  0  0
  -26.0183  -38.2874   24.1411 H   0  0  0  0  0  0
  -32.2151  -20.2093   20.3629 H   0  0  0  0  0  0
  -27.1766  -18.5502   20.4012 H   0  0  0  0  0  0
  -27.3205  -18.7719   22.1305 H   0  0  0  0  0  0
  -27.7013  -16.3859   21.1177 H   0  0  0  0  0  0
  -28.8291  -16.9063   22.3253 H   0  0  0  0  0  0
  -31.5440  -17.8900   19.9538 H   0  0  0  0  0  0
  -29.1950  -17.4599   19.4311 H   0  0  0  0  0  0
  -32.7720  -22.4949   20.1751 H   0  0  0  0  0  0
  -31.6290  -23.7026   20.7512 H   0  0  0  0  0  0
  -31.6207  -23.2229   19.0499 H   0  0  0  0  0  0
  -26.2977  -20.5204   20.8060 H   0  0  0  0  0  0
  -26.6642  -22.0401   20.0584 H   0  0  0  0  0  0
  -26.7032  -21.8863   21.8231 H   0  0  0  0  0  0
  -30.7930  -17.7459   22.9165 H   0  0  0  0  0  0
  -32.3246  -18.2397   22.2355 H   0  0  0  0  0  0
  -31.8136  -16.5713   22.0997 H   0  0  0  0  0  0
  -30.6490  -16.6686   18.0480 H   0  0  0  0  0  0
  -29.2685  -15.6035   17.8105 H   0  0  0  0  0  0
  -30.9044  -14.9626   17.9480 H   0  0  0  0  0  0
  -29.6047  -25.7208   21.4662 H   0  0  0  0  0  0
  -28.0214  -26.0949   22.0598 H   0  0  0  0  0  0
  -27.1300  -24.2003   20.4864 H   0  0  0  0  0  0
  -27.9907  -23.7749   21.9582 H   0  0  0  0  0  0
  1 25  1  0  0  0
  1 30  2  0  0  0
  1 87  1  0  0  0
  2  3  1  0  0  0
  2 25  1  0  0  0
  2 89  1  0  0  0
  2 90  1  0  0  0
  3  4  1  0  0  0
  3 91  1  0  0  0
  3 92  1  0  0  0
  4  5  1  0  0  0
  4 93  1  0  0  0
  4 94  1  0  0  0
  5  6  1  0  0  0
  5 26  1  0  0  0
  5 95  1  0  0  0
  6 25  1  0  0  0
  6 96  1  0  0  0
  6 97  1  0  0  0
  7  8  2  0  0  0
  7 26  1  0  0  0
  7 29  1  0  0  0
  8  9  1  0  0  0
  8 22  1  0  0  0
  9 10  1  0  0  0
  9 27  2  0  0  0
 10 11  2  0  0  0
 10 15  1  0  0  0
 11 12  1  0  0  0
 11 98  1  0  0  0
 12 13  2  0  0  0
 12 99  1  0  0  0
 13 14  1  0  0  0
 13 31  1  0  0  0
 14 15  2  0  0  0
 14100  1  0  0  0
 15101  1  0  0  0
 16 17  2  0  0  0
 16 21  1  0  0  0
 16 31  1  0  0  0
 17 18  1  0  0  0
 17102  1  0  0  0
 18 19  2  0  0  0
 18103  1  0  0  0
 19 20  1  0  0  0
 19 24  1  0  0  0
 20 21  2  0  0  0
 20104  1  0  0  0
 21 23  1  0  0  0
 22 28  1  0  0  0
 22 32  2  0  0  0
 26 27  1  0  0  0
 28105  1  0  0  0
 28106  1  0  0  0
 29107  1  0  0  0
 29108  1  0  0  0
 33 34  1  0  0  0
 33 66  1  0  0  0
 33 70  2  0  0  0
 34 36  1  0  0  0
 34 59  1  0  0  0
 34109  1  0  0  0
 35 44  2  0  0  0
 35 45  1  0  0  0
 35 68  1  0  0  0
 36 56  1  0  0  0
 36110  1  0  0  0
 37 39  1  0  0  0
 37 47  1  0  0  0
 37 66  1  0  0  0
 37111  1  0  0  0
 38 43  2  0  0  0
 38 46  1  0  0  0
 38 47  1  0  0  0
 39 64  1  0  0  0
 39 67  2  0  0  0
 40 52  1  0  0  0
 40 53  2  0  0  0
 40 58  1  0  0  0
 41112  1  0  0  0
 41113  1  0  0  0
 41114  1  0  0  0
 41 48  1  0  0  0
 42 43  1  0  0  0
 42 66  1  0  0  0
 42115  1  0  0  0
 42116  1  0  0  0
 43 44  1  0  0  0
 44117  1  0  0  0
 45 46  2  0  0  0
 45118  1  0  0  0
 46119  1  0  0  0
 47120  1  0  0  0
 47121  1  0  0  0
 48 56  1  0  0  0
 48 65  1  0  0  0
 48122  1  0  0  0
 49 50  1  0  0  0
 49 53  1  0  0  0
 49 64  1  0  0  0
 49123  1  0  0  0
 50 51  1  0  0  0
 50124  1  0  0  0
 50125  1  0  0  0
 51 52  1  0  0  0
 51126  1  0  0  0
 51127  1  0  0  0
 52128  1  0  0  0
 52129  1  0  0  0
 53 54  1  0  0  0
 54 55  2  0  0  0
 54130  1  0  0  0
 55 57  1  0  0  0
 55131  1  0  0  0
 56 69  2  0  0  0
 57 58  2  0  0  0
 57132  1  0  0  0
 58133  1  0  0  0
 59 60  1  0  0  0
 59 61  1  0  0  0
 59 62  1  0  0  0
 60134  1  0  0  0
 60135  1  0  0  0
 60136  1  0  0  0
 61137  1  0  0  0
 61138  1  0  0  0
 61139  1  0  0  0
 62140  1  0  0  0
 62141  1  0  0  0
 62142  1  0  0  0
 63 65  1  0  0  0
 63143  1  0  0  0
 63144  1  0  0  0
 63145  1  0  0  0
 64146  1  0  0  0
 65147  1  0  0  0
 68 85  1  0  0  0
 71 72  2  0  0  0
 71 74  1  0  0  0
 71148  1  0  0  0
 72 73  1  0  0  0
 72 79  1  0  0  0
 73 75  2  0  0  0
 73 77  1  0  0  0
 74 76  2  0  0  0
 74 81  1  0  0  0
 75 76  1  0  0  0
 75 82  1  0  0  0
 76 88  1  0  0  0
 77 78  1  0  0  0
 77149  1  0  0  0
 77150  1  0  0  0
 78 80  1  0  0  0
 78151  1  0  0  0
 78152  1  0  0  0
 79 80  1  0  0  0
 79 83  1  0  0  0
 79153  1  0  0  0
 80 87  1  0  0  0
 80154  1  0  0  0
 81155  1  0  0  0
 81156  1  0  0  0
 81157  1  0  0  0
 82158  1  0  0  0
 82159  1  0  0  0
 82160  1  0  0  0
 83161  1  0  0  0
 83162  1  0  0  0
 83163  1  0  0  0
 84 87  1  0  0  0
 84164  1  0  0  0
 84165  1  0  0  0
 84166  1  0  0  0
 85 86  1  0  0  0
 85167  1  0  0  0
 85168  1  0  0  0
 86 88  1  0  0  0
 86169  1  0  0  0
 86170  1  0  0  0
M  ISO  4   1 100  68 101  85 101  87 100
M  END
> <chiral flag>
0

> <version>
0

> <s_m_source_file>
/data/baiqing/PycharmProjects/Reinvent-master-3.2/result/LINK_invent/BTK/process_docking_weight1_custom_sum_contain_oxygen_bond_distance_aromatic_linkinvent_7_9_3/rearranged_h_0148.sdf

> <i_m_source_file_index>
19

> <r_mmod_Potential_Energy-OPLS-2005>
270.837280273438

> <r_mmod_Stretch_Energy-OPLS-2005>
57.3358917236328

> <r_mmod_Bend_Energy-OPLS-2005>
158.50749206543

> <r_mmod_Torsional_Energy-OPLS-2005>
362.03076171875

> <r_mmod_Improper_Torsional_Energy-OPLS-2005>
30.4885807037354

> <r_mmod_Van_der_Waal_Energy-OPLS-2005>
159.055816650391

> <r_mmod_Electrostatic_Energy-OPLS-2005>
-348.078948974609

> <r_mmod_Solvation_Energy-OPLS-2005>
-193.49104309082

> <b_mmod_Minimization_Converged-OPLS-2005>
0

> <r_mmod_RMS_Derivative-OPLS-2005>
1.6320812702179

$$$$
19
                    3D
 Structure written by MMmdl.
170179  0  0  1  0            999 V2000
  -30.7065  -14.4894   20.5082 C   0  0  0  0  0  0
  -30.4172  -12.3027   19.4254 C   0  0  0  0  0  0
  -29.4953  -12.4896   18.2034 C   0  0  0  0  0  0
  -28.0154  -12.3603   18.6164 C   0  0  0  0  0  0
  -27.6567  -13.2132   19.8642 C   0  0  2  0  0  0
  -28.7027  -13.0413   20.9889 C   0  0  0  0  0  0
  -25.2582  -13.8176   20.5679 C   0  0  0  0  0  0
  -24.1833  -13.0455   20.9174 C   0  0  0  0  0  0
  -24.6391  -11.6919   20.8723 C   0  0  0  0  0  0
  -23.9045  -10.4304   21.0381 C   0  0  0  0  0  0
  -24.3600   -9.4221   21.9164 C   0  0  0  0  0  0
  -23.6304   -8.2244   22.0739 C   0  0  0  0  0  0
  -22.4277   -8.0269   21.3535 C   0  0  0  0  0  0
  -21.9900   -9.0228   20.4640 C   0  0  0  0  0  0
  -22.7219  -10.2127   20.3047 C   0  0  0  0  0  0
  -21.6854   -6.0728   22.5272 C   0  0  0  0  0  0
  -21.4011   -6.5629   23.8202 C   0  0  0  0  0  0
  -21.3662   -5.6790   24.9169 C   0  0  0  0  0  0
  -21.6045   -4.3047   24.7214 C   0  0  0  0  0  0
  -21.8824   -3.8135   23.4334 C   0  0  0  0  0  0
  -21.9197   -4.6958   22.3395 C   0  0  0  0  0  0
  -22.7860  -13.5253   21.1843 C   0  0  0  0  0  0
  -22.1673   -4.2145   21.0971 F   0  0  0  0  0  0
  -21.5638   -3.4529   25.7729 F   0  0  0  0  0  0
  -30.0266  -13.3160   20.4152 N   0  0  0  0  0  0
  -26.3011  -12.9356   20.3330 N   0  0  0  0  0  0
  -25.9314  -11.6507   20.5726 N   0  0  0  0  0  0
  -22.0495  -12.8245   22.0391 N   0  0  0  0  0  0
  -25.4330  -15.1890   20.4122 N   0  0  0  0  0  0
  -31.8864  -14.6019   20.1589 O   0  0  0  0  0  0
  -21.6647   -6.8867   21.4234 O   0  0  0  0  0  0
  -22.3548  -14.5548   20.6686 O   0  0  0  0  0  0
  -24.6155  -31.8678   23.2107 C   0  0  0  0  0  0
  -25.9040  -32.4819   23.8400 C   0  0  1  0  0  0
  -27.2307  -27.4267   20.0760 C   0  0  0  0  0  0
  -25.5908  -33.8620   24.2329 N   0  0  0  0  0  0
  -23.4034  -30.4932   21.5513 C   0  0  2  0  0  0
  -24.8475  -28.9601   20.1134 C   0  0  0  0  0  0
  -22.7417  -29.4664   22.4988 C   0  0  0  0  0  0
  -18.0270  -28.1381   22.8495 C   0  0  0  0  0  0
  -24.1484  -36.7310   23.2643 C   0  0  0  0  0  0
  -25.9354  -30.8274   21.3676 C   0  0  0  0  0  0
  -26.0100  -29.4628   20.7107 C   0  0  0  0  0  0
  -27.2015  -28.6998   20.6971 C   0  0  0  0  0  0
  -26.0391  -26.9317   19.4990 C   0  0  0  0  0  0
  -24.8555  -27.6923   19.5103 C   0  0  0  0  0  0
  -23.6115  -29.8288   20.1649 C   0  0  0  0  0  0
  -25.4107  -36.3108   24.0337 C   0  0  1  0  0  0
  -20.5865  -28.3663   23.1331 C   0  0  2  0  0  0
  -20.6758  -26.9398   22.5431 C   0  0  0  0  0  0
  -19.5747  -26.6387   21.5222 C   0  0  0  0  0  0
  -18.1921  -26.7933   22.1616 C   0  0  0  0  0  0
  -19.1518  -28.8836   23.2914 C   0  0  0  0  0  0
  -18.9447  -30.1441   23.8922 C   0  0  0  0  0  0
  -17.6447  -30.6584   24.0567 C   0  0  0  0  0  0
  -25.9039  -34.9476   23.5128 C   0  0  0  0  0  0
  -16.5342  -29.9091   23.6319 C   0  0  0  0  0  0
  -16.7260  -28.6507   23.0340 C   0  0  0  0  0  0
  -26.4471  -31.6609   25.0740 C   0  0  0  0  0  0
  -25.3731  -31.3745   26.1494 C   0  0  0  0  0  0
  -27.0282  -30.3034   24.6140 C   0  0  0  0  0  0
  -27.6065  -32.4321   25.7472 C   0  0  0  0  0  0
  -27.5584  -37.1799   24.8460 C   0  0  0  0  0  0
  -21.4144  -29.3032   22.3730 N   0  0  0  0  0  0
  -26.4289  -37.3799   23.9418 N   0  0  0  0  0  0
  -24.6695  -31.0771   22.1010 N   0  0  0  0  0  0
  -23.4192  -28.8211   23.3030 O   0  0  0  0  0  0
  -28.3907  -26.6754   20.1003 O   0  0  0  0  0  0
  -26.5597  -34.8926   22.4684 O   0  0  0  0  0  0
  -23.5342  -32.1431   23.7499 O   0  0  0  0  0  0
  -28.0065  -22.9254   19.2811 C   0  0  0  0  0  0
  -29.2486  -23.4474   19.7086 C   0  0  0  0  0  0
  -27.6149  -21.6250   19.6724 C   0  0  0  0  0  0
  -30.0336  -22.6107   20.5439 C   0  0  0  0  0  0
  -28.4802  -20.8667   20.4863 C   0  0  0  0  0  0
  -28.8837  -17.6287   19.5513 C   0  0  0  0  0  0
  -29.0902  -17.5468   22.0230 C   0  0  0  0  0  0
  -29.9156  -16.4868   19.4561 C   0  0  0  0  0  0
  -30.1074  -16.3843   21.8864 C   0  0  0  0  0  0
  -29.1202  -18.4868   20.8022 C   0  0  0  0  0  0
  -26.2913  -21.0576   19.1821 C   0  0  0  0  0  0
  -31.3940  -23.0294   21.0725 C   0  0  0  0  0  0
  -30.6111  -24.5669   17.9090 C   0  0  0  0  0  0
  -28.7404  -25.9331   18.9235 C   0  0  0  0  0  0
  -29.7824  -24.8031   19.1848 C   0  0  1  0  0  0
  -29.6539  -21.3651   20.9160 N   0  0  0  0  0  0
  -29.9446  -15.6061   20.6457 N   0  0  0  0  0  0
  -28.1322  -19.5690   20.9019 N   0  0  0  0  0  0
  -31.4639  -12.3856   19.1277 H   0  0  0  0  0  0
  -30.3033  -11.3033   19.8477 H   0  0  0  0  0  0
  -29.7343  -11.7479   17.4387 H   0  0  0  0  0  0
  -29.6660  -13.4662   17.7469 H   0  0  0  0  0  0
  -27.8264  -11.3066   18.8222 H   0  0  0  0  0  0
  -27.3653  -12.6290   17.7819 H   0  0  0  0  0  0
  -27.6861  -14.2545   19.5437 H   0  0  0  0  0  0
  -28.6770  -12.0289   21.3934 H   0  0  0  0  0  0
  -28.4819  -13.7111   21.8226 H   0  0  0  0  0  0
  -25.2740   -9.5724   22.4740 H   0  0  0  0  0  0
  -24.0027   -7.4636   22.7445 H   0  0  0  0  0  0
  -21.0831   -8.8725   19.8950 H   0  0  0  0  0  0
  -22.3641  -10.9651   19.6155 H   0  0  0  0  0  0
  -21.1992   -7.6142   23.9712 H   0  0  0  0  0  0
  -21.1494   -6.0510   25.9078 H   0  0  0  0  0  0
  -22.0606   -2.7603   23.2821 H   0  0  0  0  0  0
  -22.4111  -11.9929   22.4826 H   0  0  0  0  0  0
  -21.1102  -13.1263   22.2553 H   0  0  0  0  0  0
  -24.6740  -15.8510   20.5294 H   0  0  0  0  0  0
  -26.3033  -15.6242   20.1341 H   0  0  0  0  0  0
  -26.7115  -32.5533   23.1172 H   0  0  0  0  0  0
  -25.0049  -33.9782   25.0465 H   0  0  0  0  0  0
  -22.6930  -31.3113   21.4150 H   0  0  0  0  0  0
  -23.3751  -35.9638   23.3304 H   0  0  0  0  0  0
  -24.3576  -36.8919   22.2058 H   0  0  0  0  0  0
  -23.7220  -37.6509   23.6651 H   0  0  0  0  0  0
  -26.0539  -31.5963   20.6031 H   0  0  0  0  0  0
  -26.8215  -30.8748   21.9888 H   0  0  0  0  0  0
  -28.1004  -29.0850   21.1577 H   0  0  0  0  0  0
  -25.9890  -25.9455   19.0637 H   0  0  0  0  0  0
  -23.9553  -27.2914   19.0664 H   0  0  0  0  0  0
  -23.7247  -30.6063   19.4085 H   0  0  0  0  0  0
  -22.7337  -29.2512   19.8675 H   0  0  0  0  0  0
  -25.1279  -36.1973   25.0829 H   0  0  0  0  0  0
  -20.9958  -28.3218   24.1453 H   0  0  0  0  0  0
  -20.5655  -26.2271   23.3613 H   0  0  0  0  0  0
  -21.6628  -26.7435   22.1230 H   0  0  0  0  0  0
  -19.6907  -25.6303   21.1242 H   0  0  0  0  0  0
  -19.6704  -27.3203   20.6762 H   0  0  0  0  0  0
  -17.4205  -26.6699   21.4003 H   0  0  0  0  0  0
  -18.0305  -26.0064   22.8994 H   0  0  0  0  0  0
  -19.7922  -30.7246   24.2311 H   0  0  0  0  0  0
  -17.5005  -31.6260   24.5173 H   0  0  0  0  0  0
  -15.5344  -30.2999   23.7628 H   0  0  0  0  0  0
  -15.8660  -28.0841   22.7027 H   0  0  0  0  0  0
  -24.5907  -30.7084   25.7847 H   0  0  0  0  0  0
  -24.8924  -32.2915   26.4918 H   0  0  0  0  0  0
  -25.8086  -30.8942   27.0269 H   0  0  0  0  0  0
  -26.2821  -29.6806   24.1200 H   0  0  0  0  0  0
  -27.4024  -29.7274   25.4618 H   0  0  0  0  0  0
  -27.8680  -30.4323   23.9307 H   0  0  0  0  0  0
  -27.2710  -33.3620   26.2079 H   0  0  0  0  0  0
  -28.3850  -32.6883   25.0270 H   0  0  0  0  0  0
  -28.0772  -31.8428   26.5356 H   0  0  0  0  0  0
  -28.2612  -38.0087   24.7499 H   0  0  0  0  0  0
  -28.1061  -36.2619   24.6280 H   0  0  0  0  0  0
  -27.2313  -37.1446   25.8866 H   0  0  0  0  0  0
  -20.9302  -29.8749   21.6952 H   0  0  0  0  0  0
  -26.0180  -38.2875   24.1427 H   0  0  0  0  0  0
  -27.3643  -23.4920   18.6239 H   0  0  0  0  0  0
  -27.8784  -17.2074   19.5585 H   0  0  0  0  0  0
  -28.9511  -18.2497   18.6560 H   0  0  0  0  0  0
  -29.3140  -18.1163   22.9255 H   0  0  0  0  0  0
  -28.0895  -17.1344   22.1593 H   0  0  0  0  0  0
  -30.9064  -16.9164   19.2933 H   0  0  0  0  0  0
  -29.6936  -15.8913   18.5683 H   0  0  0  0  0  0
  -30.0074  -15.7214   22.7478 H   0  0  0  0  0  0
  -31.1233  -16.7847   21.9180 H   0  0  0  0  0  0
  -30.1216  -18.9138   20.7316 H   0  0  0  0  0  0
  -25.7684  -21.7596   18.5319 H   0  0  0  0  0  0
  -25.6353  -20.8328   20.0239 H   0  0  0  0  0  0
  -26.4566  -20.1383   18.6172 H   0  0  0  0  0  0
  -32.0725  -23.2764   20.2563 H   0  0  0  0  0  0
  -31.8615  -22.2307   21.6500 H   0  0  0  0  0  0
  -31.3011  -23.8960   21.7279 H   0  0  0  0  0  0
  -31.4151  -23.8498   18.0733 H   0  0  0  0  0  0
  -31.0737  -25.4916   17.5613 H   0  0  0  0  0  0
  -29.9923  -24.1861   17.0960 H   0  0  0  0  0  0
  -27.9044  -25.5548   18.3405 H   0  0  0  0  0  0
  -29.1995  -26.6786   18.2735 H   0  0  0  0  0  0
  -30.4676  -25.2058   19.9309 H   0  0  0  0  0  0
  -27.1929  -19.2964   20.6416 H   0  0  0  0  0  0
  1 25  1  0  0  0
  1 30  2  0  0  0
  1 87  1  0  0  0
  2  3  1  0  0  0
  2 25  1  0  0  0
  2 89  1  0  0  0
  2 90  1  0  0  0
  3  4  1  0  0  0
  3 91  1  0  0  0
  3 92  1  0  0  0
  4  5  1  0  0  0
  4 93  1  0  0  0
  4 94  1  0  0  0
  5  6  1  0  0  0
  5 26  1  0  0  0
  5 95  1  0  0  0
  6 25  1  0  0  0
  6 96  1  0  0  0
  6 97  1  0  0  0
  7  8  2  0  0  0
  7 26  1  0  0  0
  7 29  1  0  0  0
  8  9  1  0  0  0
  8 22  1  0  0  0
  9 10  1  0  0  0
  9 27  2  0  0  0
 10 11  2  0  0  0
 10 15  1  0  0  0
 11 12  1  0  0  0
 11 98  1  0  0  0
 12 13  2  0  0  0
 12 99  1  0  0  0
 13 14  1  0  0  0
 13 31  1  0  0  0
 14 15  2  0  0  0
 14100  1  0  0  0
 15101  1  0  0  0
 16 17  2  0  0  0
 16 21  1  0  0  0
 16 31  1  0  0  0
 17 18  1  0  0  0
 17102  1  0  0  0
 18 19  2  0  0  0
 18103  1  0  0  0
 19 20  1  0  0  0
 19 24  1  0  0  0
 20 21  2  0  0  0
 20104  1  0  0  0
 21 23  1  0  0  0
 22 28  1  0  0  0
 22 32  2  0  0  0
 26 27  1  0  0  0
 28105  1  0  0  0
 28106  1  0  0  0
 29107  1  0  0  0
 29108  1  0  0  0
 33 34  1  0  0  0
 33 66  1  0  0  0
 33 70  2  0  0  0
 34 36  1  0  0  0
 34 59  1  0  0  0
 34109  1  0  0  0
 35 44  2  0  0  0
 35 45  1  0  0  0
 35 68  1  0  0  0
 36 56  1  0  0  0
 36110  1  0  0  0
 37 39  1  0  0  0
 37 47  1  0  0  0
 37 66  1  0  0  0
 37111  1  0  0  0
 38 43  2  0  0  0
 38 46  1  0  0  0
 38 47  1  0  0  0
 39 64  1  0  0  0
 39 67  2  0  0  0
 40 52  1  0  0  0
 40 53  2  0  0  0
 40 58  1  0  0  0
 41112  1  0  0  0
 41113  1  0  0  0
 41114  1  0  0  0
 41 48  1  0  0  0
 42 43  1  0  0  0
 42 66  1  0  0  0
 42115  1  0  0  0
 42116  1  0  0  0
 43 44  1  0  0  0
 44117  1  0  0  0
 45 46  2  0  0  0
 45118  1  0  0  0
 46119  1  0  0  0
 47120  1  0  0  0
 47121  1  0  0  0
 48 56  1  0  0  0
 48 65  1  0  0  0
 48122  1  0  0  0
 49 50  1  0  0  0
 49 53  1  0  0  0
 49 64  1  0  0  0
 49123  1  0  0  0
 50 51  1  0  0  0
 50124  1  0  0  0
 50125  1  0  0  0
 51 52  1  0  0  0
 51126  1  0  0  0
 51127  1  0  0  0
 52128  1  0  0  0
 52129  1  0  0  0
 53 54  1  0  0  0
 54 55  2  0  0  0
 54130  1  0  0  0
 55 57  1  0  0  0
 55131  1  0  0  0
 56 69  2  0  0  0
 57 58  2  0  0  0
 57132  1  0  0  0
 58133  1  0  0  0
 59 60  1  0  0  0
 59 61  1  0  0  0
 59 62  1  0  0  0
 60134  1  0  0  0
 60135  1  0  0  0
 60136  1  0  0  0
 61137  1  0  0  0
 61138  1  0  0  0
 61139  1  0  0  0
 62140  1  0  0  0
 62141  1  0  0  0
 62142  1  0  0  0
 63 65  1  0  0  0
 63143  1  0  0  0
 63144  1  0  0  0
 63145  1  0  0  0
 64146  1  0  0  0
 65147  1  0  0  0
 68 84  1  0  0  0
 71 72  2  0  0  0
 71 73  1  0  0  0
 71148  1  0  0  0
 72 74  1  0  0  0
 72 85  1  0  0  0
 73 75  2  0  0  0
 73 81  1  0  0  0
 74 82  1  0  0  0
 74 86  2  0  0  0
 75 86  1  0  0  0
 75 88  1  0  0  0
 76 78  1  0  0  0
 76 80  1  0  0  0
 76149  1  0  0  0
 76150  1  0  0  0
 77 79  1  0  0  0
 77 80  1  0  0  0
 77151  1  0  0  0
 77152  1  0  0  0
 78 87  1  0  0  0
 78153  1  0  0  0
 78154  1  0  0  0
 79 87  1  0  0  0
 79155  1  0  0  0
 79156  1  0  0  0
 80 88  1  0  0  0
 80157  1  0  0  0
 81158  1  0  0  0
 81159  1  0  0  0
 81160  1  0  0  0
 82161  1  0  0  0
 82162  1  0  0  0
 82163  1  0  0  0
 83164  1  0  0  0
 83165  1  0  0  0
 83166  1  0  0  0
 83 85  1  0  0  0
 84 85  1  0  0  0
 84167  1  0  0  0
 84168  1  0  0  0
 85169  1  0  0  0
 88170  1  0  0  0
M  ISO  4   1 100  68 101  84 101  87 100
M  END
> <chiral flag>
0

> <version>
0

> <s_m_source_file>
/data/baiqing/PycharmProjects/Reinvent-master-3.2/result/LINK_invent/BTK/process_docking_weight1_custom_sum_contain_oxygen_bond_distance_aromatic_linkinvent_7_9_3/rearranged_h_0148.sdf

> <i_m_source_file_index>
20

> <r_mmod_Potential_Energy-OPLS-2005>
-65.3761520385742

> <r_mmod_Stretch_Energy-OPLS-2005>
41.461051940918

> <r_mmod_Bend_Energy-OPLS-2005>
118.280815124512

> <r_mmod_Torsional_Energy-OPLS-2005>
332.564239501953

> <r_mmod_Improper_Torsional_Energy-OPLS-2005>
17.7966423034668

> <r_mmod_Van_der_Waal_Energy-OPLS-2005>
156.552841186523

> <r_mmod_Electrostatic_Energy-OPLS-2005>
-529.432800292969

> <r_mmod_Solvation_Energy-OPLS-2005>
-221.82975769043

> <b_mmod_Minimization_Converged-OPLS-2005>
0

> <r_mmod_RMS_Derivative-OPLS-2005>
2.01511573791504

$$$$
20
                    3D
 Structure written by MMmdl.
176186  0  0  1  0            999 V2000
  -30.7005  -14.5305   20.4965 C   0  0  0  0  0  0
  -30.4218  -12.3367   19.4212 C   0  0  0  0  0  0
  -29.4967  -12.5251   18.2006 C   0  0  0  0  0  0
  -28.0136  -12.3919   18.6032 C   0  0  0  0  0  0
  -27.6524  -13.2251   19.8632 C   0  0  2  0  0  0
  -28.7023  -13.0376   20.9796 C   0  0  0  0  0  0
  -25.2523  -13.8216   20.5699 C   0  0  0  0  0  0
  -24.1808  -13.0474   20.9210 C   0  0  0  0  0  0
  -24.6392  -11.6944   20.8732 C   0  0  0  0  0  0
  -23.9053  -10.4313   21.0368 C   0  0  0  0  0  0
  -24.3627   -9.4248   21.9154 C   0  0  0  0  0  0
  -23.6328   -8.2260   22.0743 C   0  0  0  0  0  0
  -22.4288   -8.0295   21.3537 C   0  0  0  0  0  0
  -21.9922   -9.0239   20.4619 C   0  0  0  0  0  0
  -22.7249  -10.2124   20.3014 C   0  0  0  0  0  0
  -21.6852   -6.0757   22.5283 C   0  0  0  0  0  0
  -21.3994   -6.5648   23.8223 C   0  0  0  0  0  0
  -21.3655   -5.6794   24.9172 C   0  0  0  0  0  0
  -21.6049   -4.3049   24.7212 C   0  0  0  0  0  0
  -21.8813   -3.8149   23.4323 C   0  0  0  0  0  0
  -21.9193   -4.6990   22.3392 C   0  0  0  0  0  0
  -22.7825  -13.5258   21.1855 C   0  0  0  0  0  0
  -22.1654   -4.2194   21.0967 F   0  0  0  0  0  0
  -21.5651   -3.4524   25.7707 F   0  0  0  0  0  0
  -30.0208  -13.3509   20.4117 N   0  0  0  0  0  0
  -26.2981  -12.9418   20.3319 N   0  0  0  0  0  0
  -25.9305  -11.6555   20.5691 N   0  0  0  0  0  0
  -22.0404  -12.8249   22.0370 N   0  0  0  0  0  0
  -25.4184  -15.1939   20.4099 N   0  0  0  0  0  0
  -31.8982  -14.6017   20.2052 O   0  0  0  0  0  0
  -21.6662   -6.8900   21.4238 O   0  0  0  0  0  0
  -22.3528  -14.5589   20.6744 O   0  0  0  0  0  0
  -24.6205  -31.8654   23.2090 C   0  0  0  0  0  0
  -25.9112  -32.4810   23.8380 C   0  0  1  0  0  0
  -27.2436  -27.3933   20.1093 C   0  0  0  0  0  0
  -25.6005  -33.8616   24.2350 N   0  0  0  0  0  0
  -23.4082  -30.4873   21.5522 C   0  0  2  0  0  0
  -24.8544  -28.9408   20.1268 C   0  0  0  0  0  0
  -22.7406  -29.4677   22.5028 C   0  0  0  0  0  0
  -18.0260  -28.1406   22.8461 C   0  0  0  0  0  0
  -24.1471  -36.7239   23.2607 C   0  0  0  0  0  0
  -25.9394  -30.8141   21.3687 C   0  0  0  0  0  0
  -26.0163  -29.4420   20.7252 C   0  0  0  0  0  0
  -27.2105  -28.6763   20.7142 C   0  0  0  0  0  0
  -26.0645  -26.9315   19.4818 C   0  0  0  0  0  0
  -24.8741  -27.6815   19.5060 C   0  0  0  0  0  0
  -23.6163  -29.8091   20.1722 C   0  0  0  0  0  0
  -25.4080  -36.3087   24.0361 C   0  0  1  0  0  0
  -20.5842  -28.3677   23.1311 C   0  0  2  0  0  0
  -20.6756  -26.9416   22.5423 C   0  0  0  0  0  0
  -19.5773  -26.6378   21.5197 C   0  0  0  0  0  0
  -18.1909  -26.7980   22.1526 C   0  0  0  0  0  0
  -19.1506  -28.8851   23.2874 C   0  0  0  0  0  0
  -18.9455  -30.1456   23.8882 C   0  0  0  0  0  0
  -17.6481  -30.6612   24.0536 C   0  0  0  0  0  0
  -25.9067  -34.9479   23.5137 C   0  0  0  0  0  0
  -16.5356  -29.9085   23.6364 C   0  0  0  0  0  0
  -16.7245  -28.6511   23.0370 C   0  0  0  0  0  0
  -26.4518  -31.6608   25.0722 C   0  0  0  0  0  0
  -25.3795  -31.3720   26.1482 C   0  0  0  0  0  0
  -27.0347  -30.3050   24.6118 C   0  0  0  0  0  0
  -27.6098  -32.4310   25.7486 C   0  0  0  0  0  0
  -27.5656  -37.1659   24.8368 C   0  0  0  0  0  0
  -21.4130  -29.3057   22.3742 N   0  0  0  0  0  0
  -26.4193  -37.3856   23.9587 N   0  0  0  0  0  0
  -24.6744  -31.0695   22.1025 N   0  0  0  0  0  0
  -23.4155  -28.8234   23.3101 O   0  0  0  0  0  0
  -28.4239  -26.6601   20.0629 O   0  0  0  0  0  0
  -26.5564  -34.8959   22.4660 O   0  0  0  0  0  0
  -23.5392  -32.1433   23.7472 O   0  0  0  0  0  0
  -28.0415  -22.7918   20.4571 C   0  0  0  0  0  0
  -30.1233  -23.5392   21.5878 C   0  0  0  0  0  0
  -33.0499  -19.3359   21.6113 C   0  0  0  0  0  0
  -32.9066  -20.8210   21.8235 C   0  0  0  0  0  0
  -27.8672  -24.1904   19.8171 C   0  0  0  0  0  0
  -29.9538  -24.9451   20.9333 C   0  0  0  0  0  0
  -29.7212  -17.6971   21.7894 C   0  0  0  0  0  0
  -29.1313  -16.3231   21.3563 C   0  0  0  0  0  0
  -30.1898  -16.5471   19.1620 C   0  0  0  0  0  0
  -29.5072  -22.3829   20.7467 C   0  0  1  0  0  0
  -30.9080  -17.8622   19.5694 C   0  0  2  0  0  0
  -31.7089  -19.9090   22.0433 C   0  0  0  0  0  0
  -30.0434  -18.6507   20.5989 C   0  0  2  0  0  0
  -28.4750  -25.3359   20.6678 C   0  0  1  0  0  0
  -31.2825  -18.6926   18.3231 C   0  0  0  0  0  0
  -29.5496  -20.9719   21.4525 C   0  0  0  0  0  0
  -29.9407  -15.6576   20.3178 N   0  0  0  0  0  0
  -30.6184  -19.9963   21.0152 N   0  3  1  0  0  0
  -31.4640  -12.4415   19.1134 H   0  0  0  0  0  0
  -30.3265  -11.3319   19.8335 H   0  0  0  0  0  0
  -29.7460  -11.8054   17.4209 H   0  0  0  0  0  0
  -29.6672  -13.5116   17.7626 H   0  0  0  0  0  0
  -27.8051  -11.3364   18.7780 H   0  0  0  0  0  0
  -27.3790  -12.6939   17.7687 H   0  0  0  0  0  0
  -27.6739  -14.2718   19.5585 H   0  0  0  0  0  0
  -28.6902  -12.0098   21.3427 H   0  0  0  0  0  0
  -28.4596  -13.6586   21.8395 H   0  0  0  0  0  0
  -25.2737   -9.5792   22.4740 H   0  0  0  0  0  0
  -24.0086   -7.4653   22.7445 H   0  0  0  0  0  0
  -21.0862   -8.8685   19.8901 H   0  0  0  0  0  0
  -22.3665  -10.9633   19.6116 H   0  0  0  0  0  0
  -21.1935   -7.6153   23.9751 H   0  0  0  0  0  0
  -21.1490   -6.0490   25.9096 H   0  0  0  0  0  0
  -22.0588   -2.7613   23.2756 H   0  0  0  0  0  0
  -22.3988  -11.9939   22.4820 H   0  0  0  0  0  0
  -21.0973  -13.1233   22.2401 H   0  0  0  0  0  0
  -24.6413  -15.8398   20.5033 H   0  0  0  0  0  0
  -26.2594  -15.6309   20.0585 H   0  0  0  0  0  0
  -26.7182  -32.5472   23.1131 H   0  0  0  0  0  0
  -25.0389  -33.9769   25.0652 H   0  0  0  0  0  0
  -22.7025  -31.3072   21.4081 H   0  0  0  0  0  0
  -23.3919  -35.9360   23.2927 H   0  0  0  0  0  0
  -24.3704  -36.9179   22.2103 H   0  0  0  0  0  0
  -23.6924  -37.6217   23.6813 H   0  0  0  0  0  0
  -26.0539  -31.5696   20.5920 H   0  0  0  0  0  0
  -26.8284  -30.8700   21.9860 H   0  0  0  0  0  0
  -28.1089  -29.0694   21.1684 H   0  0  0  0  0  0
  -26.0475  -26.0139   18.9204 H   0  0  0  0  0  0
  -23.9881  -27.2932   19.0214 H   0  0  0  0  0  0
  -23.7173  -30.5743   19.4025 H   0  0  0  0  0  0
  -22.7423  -29.2197   19.8885 H   0  0  0  0  0  0
  -25.1195  -36.1855   25.0823 H   0  0  0  0  0  0
  -20.9900  -28.3228   24.1448 H   0  0  0  0  0  0
  -20.5631  -26.2301   23.3618 H   0  0  0  0  0  0
  -21.6629  -26.7451   22.1238 H   0  0  0  0  0  0
  -19.6922  -25.6262   21.1280 H   0  0  0  0  0  0
  -19.6793  -27.3136   20.6698 H   0  0  0  0  0  0
  -17.4249  -26.6811   21.3852 H   0  0  0  0  0  0
  -18.0205  -26.0089   22.8856 H   0  0  0  0  0  0
  -19.7953  -30.7240   24.2245 H   0  0  0  0  0  0
  -17.5069  -31.6329   24.5065 H   0  0  0  0  0  0
  -15.5371  -30.2997   23.7770 H   0  0  0  0  0  0
  -15.8627  -28.0836   22.7126 H   0  0  0  0  0  0
  -24.6108  -30.6872   25.7901 H   0  0  0  0  0  0
  -24.8814  -32.2841   26.4775 H   0  0  0  0  0  0
  -25.8189  -30.9114   27.0340 H   0  0  0  0  0  0
  -26.2889  -29.6797   24.1213 H   0  0  0  0  0  0
  -27.4169  -29.7299   25.4557 H   0  0  0  0  0  0
  -27.8701  -30.4370   23.9245 H   0  0  0  0  0  0
  -27.2778  -33.3666   26.1994 H   0  0  0  0  0  0
  -28.3974  -32.6765   25.0354 H   0  0  0  0  0  0
  -28.0715  -31.8479   26.5460 H   0  0  0  0  0  0
  -28.2247  -38.0348   24.8147 H   0  0  0  0  0  0
  -28.1567  -36.3036   24.5255 H   0  0  0  0  0  0
  -27.2573  -37.0091   25.8720 H   0  0  0  0  0  0
  -20.9311  -29.8794   21.6964 H   0  0  0  0  0  0
  -26.0046  -38.2809   24.2040 H   0  0  0  0  0  0
  -27.5714  -22.0517   19.8088 H   0  0  0  0  0  0
  -27.4718  -22.7691   21.3885 H   0  0  0  0  0  0
  -29.6518  -23.5620   22.5723 H   0  0  0  0  0  0
  -31.1797  -23.3388   21.7701 H   0  0  0  0  0  0
  -33.6075  -18.7763   22.3627 H   0  0  0  0  0  0
  -33.2479  -19.0442   20.5830 H   0  0  0  0  0  0
  -32.9652  -21.4380   20.9297 H   0  0  0  0  0  0
  -33.4345  -21.2240   22.6878 H   0  0  0  0  0  0
  -26.7971  -24.3168   19.6970 H   0  0  0  0  0  0
  -28.3040  -24.1987   18.8173 H   0  0  0  0  0  0
  -30.5052  -24.9590   19.9910 H   0  0  0  0  0  0
  -30.4255  -25.7038   21.5616 H   0  0  0  0  0  0
  -30.6291  -17.5010   22.3603 H   0  0  0  0  0  0
  -29.0317  -18.1823   22.4812 H   0  0  0  0  0  0
  -28.1221  -16.4658   20.9697 H   0  0  0  0  0  0
  -29.0283  -15.7005   22.2462 H   0  0  0  0  0  0
  -30.7846  -16.0295   18.4031 H   0  0  0  0  0  0
  -29.2386  -16.7616   18.6724 H   0  0  0  0  0  0
  -30.0322  -22.3234   19.7904 H   0  0  0  0  0  0
  -31.8323  -17.5438   20.0453 H   0  0  0  0  0  0
  -31.3685  -19.7215   23.0613 H   0  0  0  0  0  0
  -29.1097  -18.8464   20.0685 H   0  0  0  0  0  0
  -27.9542  -25.3889   21.6256 H   0  0  0  0  0  0
  -30.4009  -19.0401   17.7839 H   0  0  0  0  0  0
  -31.8742  -18.0952   17.6267 H   0  0  0  0  0  0
  -31.8914  -19.5641   18.5709 H   0  0  0  0  0  0
  -28.5743  -20.5037   21.3106 H   0  0  0  0  0  0
  -29.5914  -21.1062   22.5344 H   0  0  0  0  0  0
  -31.0127  -20.3822   20.1705 H   0  0  0  0  0  0
  1 25  1  0  0  0
  1 30  2  0  0  0
  1 87  1  0  0  0
  2  3  1  0  0  0
  2 25  1  0  0  0
  2 89  1  0  0  0
  2 90  1  0  0  0
  3  4  1  0  0  0
  3 91  1  0  0  0
  3 92  1  0  0  0
  4  5  1  0  0  0
  4 93  1  0  0  0
  4 94  1  0  0  0
  5  6  1  0  0  0
  5 26  1  0  0  0
  5 95  1  0  0  0
  6 25  1  0  0  0
  6 96  1  0  0  0
  6 97  1  0  0  0
  7  8  2  0  0  0
  7 26  1  0  0  0
  7 29  1  0  0  0
  8  9  1  0  0  0
  8 22  1  0  0  0
  9 10  1  0  0  0
  9 27  2  0  0  0
 10 11  2  0  0  0
 10 15  1  0  0  0
 11 12  1  0  0  0
 11 98  1  0  0  0
 12 13  2  0  0  0
 12 99  1  0  0  0
 13 14  1  0  0  0
 13 31  1  0  0  0
 14 15  2  0  0  0
 14100  1  0  0  0
 15101  1  0  0  0
 16 17  2  0  0  0
 16 21  1  0  0  0
 16 31  1  0  0  0
 17 18  1  0  0  0
 17102  1  0  0  0
 18 19  2  0  0  0
 18103  1  0  0  0
 19 20  1  0  0  0
 19 24  1  0  0  0
 20 21  2  0  0  0
 20104  1  0  0  0
 21 23  1  0  0  0
 22 28  1  0  0  0
 22 32  2  0  0  0
 26 27  1  0  0  0
 28105  1  0  0  0
 28106  1  0  0  0
 29107  1  0  0  0
 29108  1  0  0  0
 33 34  1  0  0  0
 33 66  1  0  0  0
 33 70  2  0  0  0
 34 36  1  0  0  0
 34 59  1  0  0  0
 34109  1  0  0  0
 35 44  2  0  0  0
 35 45  1  0  0  0
 35 68  1  0  0  0
 36 56  1  0  0  0
 36110  1  0  0  0
 37 39  1  0  0  0
 37 47  1  0  0  0
 37 66  1  0  0  0
 37111  1  0  0  0
 38 43  2  0  0  0
 38 46  1  0  0  0
 38 47  1  0  0  0
 39 64  1  0  0  0
 39 67  2  0  0  0
 40 52  1  0  0  0
 40 53  2  0  0  0
 40 58  1  0  0  0
 41112  1  0  0  0
 41113  1  0  0  0
 41114  1  0  0  0
 41 48  1  0  0  0
 42 43  1  0  0  0
 42 66  1  0  0  0
 42115  1  0  0  0
 42116  1  0  0  0
 43 44  1  0  0  0
 44117  1  0  0  0
 45 46  2  0  0  0
 45118  1  0  0  0
 46119  1  0  0  0
 47120  1  0  0  0
 47121  1  0  0  0
 48 56  1  0  0  0
 48 65  1  0  0  0
 48122  1  0  0  0
 49 50  1  0  0  0
 49 53  1  0  0  0
 49 64  1  0  0  0
 49123  1  0  0  0
 50 51  1  0  0  0
 50124  1  0  0  0
 50125  1  0  0  0
 51 52  1  0  0  0
 51126  1  0  0  0
 51127  1  0  0  0
 52128  1  0  0  0
 52129  1  0  0  0
 53 54  1  0  0  0
 54 55  2  0  0  0
 54130  1  0  0  0
 55 57  1  0  0  0
 55131  1  0  0  0
 56 69  2  0  0  0
 57 58  2  0  0  0
 57132  1  0  0  0
 58133  1  0  0  0
 59 60  1  0  0  0
 59 61  1  0  0  0
 59 62  1  0  0  0
 60134  1  0  0  0
 60135  1  0  0  0
 60136  1  0  0  0
 61137  1  0  0  0
 61138  1  0  0  0
 61139  1  0  0  0
 62140  1  0  0  0
 62141  1  0  0  0
 62142  1  0  0  0
 63 65  1  0  0  0
 63143  1  0  0  0
 63144  1  0  0  0
 63145  1  0  0  0
 64146  1  0  0  0
 65147  1  0  0  0
 68 84  1  0  0  0
 71 75  1  0  0  0
 71 80  1  0  0  0
 71148  1  0  0  0
 71149  1  0  0  0
 72 76  1  0  0  0
 72 80  1  0  0  0
 72150  1  0  0  0
 72151  1  0  0  0
 73 74  1  0  0  0
 73152  1  0  0  0
 73153  1  0  0  0
 73 82  1  0  0  0
 74 82  1  0  0  0
 74154  1  0  0  0
 74155  1  0  0  0
 75 84  1  0  0  0
 75156  1  0  0  0
 75157  1  0  0  0
 76 84  1  0  0  0
 76158  1  0  0  0
 76159  1  0  0  0
 77 78  1  0  0  0
 77160  1  0  0  0
 77161  1  0  0  0
 77 83  1  0  0  0
 78 87  1  0  0  0
 78162  1  0  0  0
 78163  1  0  0  0
 79 81  1  0  0  0
 79 87  1  0  0  0
 79164  1  0  0  0
 79165  1  0  0  0
 80 86  1  0  0  0
 80166  1  0  0  0
 81 83  1  0  0  0
 81 85  1  0  0  0
 81167  1  0  0  0
 82 88  1  0  0  0
 82168  1  0  0  0
 83 88  1  0  0  0
 83169  1  0  0  0
 84170  1  0  0  0
 85171  1  0  0  0
 85172  1  0  0  0
 85173  1  0  0  0
 86174  1  0  0  0
 86175  1  0  0  0
 86 88  1  0  0  0
 88176  1  0  0  0
M  CHG  1  88   1
M  ISO  4   1 100  68 101  84 101  87 100
M  END
> <chiral flag>
0

> <version>
0

> <s_m_source_file>
/data/baiqing/PycharmProjects/Reinvent-master-3.2/result/LINK_invent/BTK/process_docking_weight1_custom_sum_contain_oxygen_bond_distance_aromatic_linkinvent_7_9_3/rearranged_h_0148.sdf

> <i_m_source_file_index>
21

> <r_mmod_Potential_Energy-OPLS-2005>
278.868835449219

> <r_mmod_Stretch_Energy-OPLS-2005>
58.3522567749023

> <r_mmod_Bend_Energy-OPLS-2005>
139.905548095703

> <r_mmod_Torsional_Energy-OPLS-2005>
433.600860595703

> <r_mmod_Improper_Torsional_Energy-OPLS-2005>
21.4129085540771

> <r_mmod_Van_der_Waal_Energy-OPLS-2005>
131.614318847656

> <r_mmod_Electrostatic_Energy-OPLS-2005>
-121.538818359375

> <r_mmod_Solvation_Energy-OPLS-2005>
-409.126586914062

> <b_mmod_Minimization_Converged-OPLS-2005>
0

> <r_mmod_RMS_Derivative-OPLS-2005>
4.76306486129761

$$$$
21
                    3D
 Structure written by MMmdl.
167177  0  0  1  0            999 V2000
  -30.6362  -14.6250   20.4974 C   0  0  0  0  0  0
  -30.4310  -12.3839   19.4513 C   0  0  0  0  0  0
  -29.5050  -12.5027   18.2209 C   0  0  0  0  0  0
  -28.0278  -12.3448   18.6325 C   0  0  0  0  0  0
  -27.6507  -13.2181   19.8584 C   0  0  2  0  0  0
  -28.6942  -13.0842   20.9898 C   0  0  0  0  0  0
  -25.2561  -13.8172   20.5689 C   0  0  0  0  0  0
  -24.1824  -13.0444   20.9197 C   0  0  0  0  0  0
  -24.6386  -11.6911   20.8736 C   0  0  0  0  0  0
  -23.9052  -10.4294   21.0400 C   0  0  0  0  0  0
  -24.3607   -9.4209   21.9176 C   0  0  0  0  0  0
  -23.6293   -8.2240   22.0747 C   0  0  0  0  0  0
  -22.4276   -8.0278   21.3535 C   0  0  0  0  0  0
  -21.9905   -9.0253   20.4639 C   0  0  0  0  0  0
  -22.7229  -10.2135   20.3048 C   0  0  0  0  0  0
  -21.6857   -6.0731   22.5277 C   0  0  0  0  0  0
  -21.4016   -6.5632   23.8215 C   0  0  0  0  0  0
  -21.3659   -5.6778   24.9172 C   0  0  0  0  0  0
  -21.6050   -4.3044   24.7216 C   0  0  0  0  0  0
  -21.8822   -3.8137   23.4335 C   0  0  0  0  0  0
  -21.9194   -4.6958   22.3394 C   0  0  0  0  0  0
  -22.7848  -13.5238   21.1857 C   0  0  0  0  0  0
  -22.1665   -4.2146   21.0974 F   0  0  0  0  0  0
  -21.5629   -3.4529   25.7726 F   0  0  0  0  0  0
  -30.0072  -13.4123   20.4201 N   0  0  0  0  0  0
  -26.2976  -12.9351   20.3291 N   0  0  0  0  0  0
  -25.9311  -11.6505   20.5736 N   0  0  0  0  0  0
  -22.0471  -12.8241   22.0405 N   0  0  0  0  0  0
  -25.4280  -15.1897   20.4123 N   0  0  0  0  0  0
  -31.8128  -14.7601   20.1497 O   0  0  0  0  0  0
  -21.6633   -6.8882   21.4244 O   0  0  0  0  0  0
  -22.3545  -14.5543   20.6702 O   0  0  0  0  0  0
  -24.6246  -31.8598   23.2031 C   0  0  0  0  0  0
  -25.9102  -32.4768   23.8354 C   0  0  1  0  0  0
  -27.2312  -27.3351   20.1260 C   0  0  0  0  0  0
  -25.5926  -33.8568   24.2298 N   0  0  0  0  0  0
  -23.4173  -30.4801   21.5447 C   0  0  2  0  0  0
  -24.8636  -28.9272   20.1170 C   0  0  0  0  0  0
  -22.7456  -29.4626   22.4967 C   0  0  0  0  0  0
  -18.0271  -28.1381   22.8484 C   0  0  0  0  0  0
  -24.1482  -36.7280   23.2645 C   0  0  0  0  0  0
  -25.9536  -30.7929   21.3699 C   0  0  0  0  0  0
  -26.0278  -29.4177   20.7219 C   0  0  0  0  0  0
  -27.2131  -28.6305   20.7192 C   0  0  0  0  0  0
  -26.0485  -26.8836   19.5036 C   0  0  0  0  0  0
  -24.8733  -27.6626   19.5022 C   0  0  0  0  0  0
  -23.6308  -29.8059   20.1622 C   0  0  0  0  0  0
  -25.4106  -36.3073   24.0345 C   0  0  1  0  0  0
  -20.5870  -28.3686   23.1299 C   0  0  2  0  0  0
  -20.6761  -26.9416   22.5415 C   0  0  0  0  0  0
  -19.5747  -26.6389   21.5205 C   0  0  0  0  0  0
  -18.1925  -26.7927   22.1615 C   0  0  0  0  0  0
  -19.1523  -28.8851   23.2880 C   0  0  0  0  0  0
  -18.9446  -30.1452   23.8900 C   0  0  0  0  0  0
  -17.6448  -30.6587   24.0559 C   0  0  0  0  0  0
  -25.9050  -34.9443   23.5125 C   0  0  0  0  0  0
  -16.5339  -29.9083   23.6328 C   0  0  0  0  0  0
  -16.7257  -28.6497   23.0352 C   0  0  0  0  0  0
  -26.4499  -31.6576   25.0721 C   0  0  0  0  0  0
  -25.3756  -31.3695   26.1470 C   0  0  0  0  0  0
  -27.0329  -30.2999   24.6163 C   0  0  0  0  0  0
  -27.6078  -32.4301   25.7471 C   0  0  0  0  0  0
  -27.5576  -37.1784   24.8468 C   0  0  0  0  0  0
  -21.4175  -29.3038   22.3699 N   0  0  0  0  0  0
  -26.4277  -37.3773   23.9432 N   0  0  0  0  0  0
  -24.6837  -31.0621   22.0963 N   0  0  0  0  0  0
  -23.4176  -28.8189   23.3060 O   0  0  0  0  0  0
  -28.3817  -26.5454   20.1178 O   0  0  0  0  0  0
  -26.5601  -34.8910   22.4679 O   0  0  0  0  0  0
  -23.5414  -32.1400   23.7369 O   0  0  0  0  0  0
  -28.2476  -24.4636   21.4554 C   0  0  0  0  0  0
  -28.5269  -24.3134   19.0828 C   0  0  0  0  0  0
  -28.2639  -23.0360   21.5669 C   0  0  0  0  0  0
  -28.5680  -22.8883   19.1648 C   0  0  0  0  0  0
  -28.4243  -22.2032   20.4109 C   0  0  0  0  0  0
  -28.3459  -25.1396   20.2158 C   0  0  0  0  0  0
  -26.7415  -21.8778   23.3581 C   0  0  0  0  0  0
  -27.3018  -23.0963   24.0443 C   0  0  0  0  0  0
  -29.9449  -19.1085   19.1462 C   0  0  0  0  0  0
  -30.5729  -17.6993   19.3103 C   0  0  0  0  0  0
  -29.1611  -18.2075   21.2026 C   0  0  0  0  0  0
  -28.0870  -22.4247   22.9334 C   0  0  0  0  0  0
  -29.4597  -19.5962   20.5242 C   0  0  2  0  0  0
  -30.2373  -17.1720   20.7221 C   0  0  1  0  0  0
  -28.7541  -22.1230   17.8650 C   0  0  0  0  0  0
  -28.2480  -20.6304   20.4898 C   0  0  0  0  0  0
  -29.8536  -15.7158   20.7653 N   0  0  0  0  0  0
  -31.4756  -12.4990   19.1553 H   0  0  0  0  0  0
  -30.3546  -11.3901   19.8951 H   0  0  0  0  0  0
  -29.7706  -11.7517   17.4762 H   0  0  0  0  0  0
  -29.6502  -13.4732   17.7423 H   0  0  0  0  0  0
  -27.8622  -11.2929   18.8666 H   0  0  0  0  0  0
  -27.3729  -12.5739   17.7905 H   0  0  0  0  0  0
  -27.6656  -14.2504   19.5081 H   0  0  0  0  0  0
  -28.7031  -12.0685   21.3892 H   0  0  0  0  0  0
  -28.4460  -13.7364   21.8286 H   0  0  0  0  0  0
  -25.2750   -9.5695   22.4748 H   0  0  0  0  0  0
  -24.0005   -7.4632   22.7466 H   0  0  0  0  0  0
  -21.0833   -8.8770   19.8948 H   0  0  0  0  0  0
  -22.3683  -10.9672   19.6155 H   0  0  0  0  0  0
  -21.2007   -7.6142   23.9719 H   0  0  0  0  0  0
  -21.1484   -6.0502   25.9080 H   0  0  0  0  0  0
  -22.0601   -2.7602   23.2820 H   0  0  0  0  0  0
  -22.4069  -11.9899   22.4797 H   0  0  0  0  0  0
  -21.1100  -13.1297   22.2600 H   0  0  0  0  0  0
  -24.6642  -15.8454   20.5337 H   0  0  0  0  0  0
  -26.2704  -15.6262   20.0608 H   0  0  0  0  0  0
  -26.7171  -32.5438   23.1103 H   0  0  0  0  0  0
  -25.0095  -33.9705   25.0457 H   0  0  0  0  0  0
  -22.7113  -31.2997   21.3986 H   0  0  0  0  0  0
  -23.3748  -35.9604   23.3292 H   0  0  0  0  0  0
  -24.3595  -36.8911   22.2065 H   0  0  0  0  0  0
  -23.7217  -37.6476   23.6664 H   0  0  0  0  0  0
  -26.0811  -31.5519   20.5965 H   0  0  0  0  0  0
  -26.8363  -30.8475   21.9960 H   0  0  0  0  0  0
  -28.1123  -29.0047   21.1884 H   0  0  0  0  0  0
  -26.0281  -25.9141   19.0268 H   0  0  0  0  0  0
  -23.9792  -27.2781   19.0295 H   0  0  0  0  0  0
  -23.7465  -30.5764   19.3987 H   0  0  0  0  0  0
  -22.7518  -29.2289   19.8681 H   0  0  0  0  0  0
  -25.1279  -36.1926   25.0835 H   0  0  0  0  0  0
  -20.9956  -28.3252   24.1421 H   0  0  0  0  0  0
  -20.5660  -26.2299   23.3610 H   0  0  0  0  0  0
  -21.6634  -26.7446   22.1223 H   0  0  0  0  0  0
  -19.6916  -25.6297   21.1242 H   0  0  0  0  0  0
  -19.6693  -27.3192   20.6733 H   0  0  0  0  0  0
  -17.4204  -26.6674   21.4012 H   0  0  0  0  0  0
  -18.0322  -26.0063   22.9008 H   0  0  0  0  0  0
  -19.7916  -30.7258   24.2295 H   0  0  0  0  0  0
  -17.4996  -31.6271   24.5148 H   0  0  0  0  0  0
  -15.5337  -30.2978   23.7661 H   0  0  0  0  0  0
  -15.8657  -28.0815   22.7081 H   0  0  0  0  0  0
  -24.5926  -30.7047   25.7801 H   0  0  0  0  0  0
  -24.8944  -32.2848   26.4930 H   0  0  0  0  0  0
  -25.8112  -30.8851   27.0225 H   0  0  0  0  0  0
  -26.2882  -29.6739   24.1235 H   0  0  0  0  0  0
  -27.4080  -29.7272   25.4656 H   0  0  0  0  0  0
  -27.8735  -30.4282   23.9341 H   0  0  0  0  0  0
  -27.2718  -33.3614   26.2042 H   0  0  0  0  0  0
  -28.3875  -32.6845   25.0279 H   0  0  0  0  0  0
  -28.0759  -31.8429   26.5382 H   0  0  0  0  0  0
  -28.2589  -38.0079   24.7523 H   0  0  0  0  0  0
  -28.1066  -36.2620   24.6270 H   0  0  0  0  0  0
  -27.2312  -37.1415   25.8871 H   0  0  0  0  0  0
  -20.9363  -29.8743   21.6885 H   0  0  0  0  0  0
  -26.0161  -38.2852   24.1419 H   0  0  0  0  0  0
  -28.1533  -25.0655   22.3475 H   0  0  0  0  0  0
  -28.6400  -24.7920   18.1200 H   0  0  0  0  0  0
  -25.8999  -22.0282   22.6840 H   0  0  0  0  0  0
  -26.7271  -20.9493   23.9261 H   0  0  0  0  0  0
  -27.6517  -22.9609   25.0661 H   0  0  0  0  0  0
  -26.7894  -24.0364   23.8499 H   0  0  0  0  0  0
  -29.0959  -19.0309   18.4659 H   0  0  0  0  0  0
  -30.6515  -19.8062   18.6965 H   0  0  0  0  0  0
  -31.6551  -17.7404   19.1753 H   0  0  0  0  0  0
  -30.1872  -17.0372   18.5334 H   0  0  0  0  0  0
  -28.1705  -17.8707   20.8937 H   0  0  0  0  0  0
  -29.1390  -18.2877   22.2904 H   0  0  0  0  0  0
  -28.9738  -21.8620   23.2238 H   0  0  0  0  0  0
  -30.2945  -20.0424   21.0668 H   0  0  0  0  0  0
  -31.1228  -17.2963   21.3501 H   0  0  0  0  0  0
  -28.6087  -22.7732   17.0022 H   0  0  0  0  0  0
  -28.0470  -21.3014   17.7646 H   0  0  0  0  0  0
  -29.7663  -21.7267   17.8036 H   0  0  0  0  0  0
  -27.5624  -20.3355   19.6964 H   0  0  0  0  0  0
  -27.6614  -20.4217   21.3795 H   0  0  0  0  0  0
  -28.8941  -15.5102   21.0002 H   0  0  0  0  0  0
  1 25  1  0  0  0
  1 30  2  0  0  0
  1 87  1  0  0  0
  2  3  1  0  0  0
  2 25  1  0  0  0
  2 88  1  0  0  0
  2 89  1  0  0  0
  3  4  1  0  0  0
  3 90  1  0  0  0
  3 91  1  0  0  0
  4  5  1  0  0  0
  4 92  1  0  0  0
  4 93  1  0  0  0
  5  6  1  0  0  0
  5 26  1  0  0  0
  5 94  1  0  0  0
  6 25  1  0  0  0
  6 95  1  0  0  0
  6 96  1  0  0  0
  7  8  2  0  0  0
  7 26  1  0  0  0
  7 29  1  0  0  0
  8  9  1  0  0  0
  8 22  1  0  0  0
  9 10  1  0  0  0
  9 27  2  0  0  0
 10 11  2  0  0  0
 10 15  1  0  0  0
 11 12  1  0  0  0
 11 97  1  0  0  0
 12 13  2  0  0  0
 12 98  1  0  0  0
 13 14  1  0  0  0
 13 31  1  0  0  0
 14 15  2  0  0  0
 14 99  1  0  0  0
 15100  1  0  0  0
 16 17  2  0  0  0
 16 21  1  0  0  0
 16 31  1  0  0  0
 17 18  1  0  0  0
 17101  1  0  0  0
 18 19  2  0  0  0
 18102  1  0  0  0
 19 20  1  0  0  0
 19 24  1  0  0  0
 20 21  2  0  0  0
 20103  1  0  0  0
 21 23  1  0  0  0
 22 28  1  0  0  0
 22 32  2  0  0  0
 26 27  1  0  0  0
 28104  1  0  0  0
 28105  1  0  0  0
 29106  1  0  0  0
 29107  1  0  0  0
 33 34  1  0  0  0
 33 66  1  0  0  0
 33 70  2  0  0  0
 34 36  1  0  0  0
 34 59  1  0  0  0
 34108  1  0  0  0
 35 44  2  0  0  0
 35 45  1  0  0  0
 35 68  1  0  0  0
 36 56  1  0  0  0
 36109  1  0  0  0
 37 39  1  0  0  0
 37 47  1  0  0  0
 37 66  1  0  0  0
 37110  1  0  0  0
 38 43  2  0  0  0
 38 46  1  0  0  0
 38 47  1  0  0  0
 39 64  1  0  0  0
 39 67  2  0  0  0
 40 52  1  0  0  0
 40 53  2  0  0  0
 40 58  1  0  0  0
 41111  1  0  0  0
 41112  1  0  0  0
 41113  1  0  0  0
 41 48  1  0  0  0
 42 43  1  0  0  0
 42 66  1  0  0  0
 42114  1  0  0  0
 42115  1  0  0  0
 43 44  1  0  0  0
 44116  1  0  0  0
 45 46  2  0  0  0
 45117  1  0  0  0
 46118  1  0  0  0
 47119  1  0  0  0
 47120  1  0  0  0
 48 56  1  0  0  0
 48 65  1  0  0  0
 48121  1  0  0  0
 49 50  1  0  0  0
 49 53  1  0  0  0
 49 64  1  0  0  0
 49122  1  0  0  0
 50 51  1  0  0  0
 50123  1  0  0  0
 50124  1  0  0  0
 51 52  1  0  0  0
 51125  1  0  0  0
 51126  1  0  0  0
 52127  1  0  0  0
 52128  1  0  0  0
 53 54  1  0  0  0
 54 55  2  0  0  0
 54129  1  0  0  0
 55 57  1  0  0  0
 55130  1  0  0  0
 56 69  2  0  0  0
 57 58  2  0  0  0
 57131  1  0  0  0
 58132  1  0  0  0
 59 60  1  0  0  0
 59 61  1  0  0  0
 59 62  1  0  0  0
 60133  1  0  0  0
 60134  1  0  0  0
 60135  1  0  0  0
 61136  1  0  0  0
 61137  1  0  0  0
 61138  1  0  0  0
 62139  1  0  0  0
 62140  1  0  0  0
 62141  1  0  0  0
 63 65  1  0  0  0
 63142  1  0  0  0
 63143  1  0  0  0
 63144  1  0  0  0
 64145  1  0  0  0
 65146  1  0  0  0
 68 76  1  0  0  0
 71 73  2  0  0  0
 71 76  1  0  0  0
 71147  1  0  0  0
 72 74  1  0  0  0
 72 76  2  0  0  0
 72148  1  0  0  0
 73 75  1  0  0  0
 73 82  1  0  0  0
 74 75  2  0  0  0
 74 85  1  0  0  0
 75 86  1  0  0  0
 77 78  1  0  0  0
 77 82  1  0  0  0
 77149  1  0  0  0
 77150  1  0  0  0
 78 82  1  0  0  0
 78151  1  0  0  0
 78152  1  0  0  0
 79 80  1  0  0  0
 79 83  1  0  0  0
 79153  1  0  0  0
 79154  1  0  0  0
 80 84  1  0  0  0
 80155  1  0  0  0
 80156  1  0  0  0
 81 83  1  0  0  0
 81 84  1  0  0  0
 81157  1  0  0  0
 81158  1  0  0  0
 82159  1  0  0  0
 83 86  1  0  0  0
 83160  1  0  0  0
 84 87  1  0  0  0
 84161  1  0  0  0
 85162  1  0  0  0
 85163  1  0  0  0
 85164  1  0  0  0
 86165  1  0  0  0
 86166  1  0  0  0
 87167  1  0  0  0
M  ISO  4   1 100  68 101  76 101  87 100
M  END
> <chiral flag>
0

> <version>
0

> <s_m_source_file>
/data/baiqing/PycharmProjects/Reinvent-master-3.2/result/LINK_invent/BTK/process_docking_weight1_custom_sum_contain_oxygen_bond_distance_aromatic_linkinvent_7_9_3/rearranged_h_0148.sdf

> <i_m_source_file_index>
22

> <r_mmod_Potential_Energy-OPLS-2005>
112.26636505127

> <r_mmod_Stretch_Energy-OPLS-2005>
71.5050659179688

> <r_mmod_Bend_Energy-OPLS-2005>
151.086044311523

> <r_mmod_Torsional_Energy-OPLS-2005>
283.177124023438

> <r_mmod_Improper_Torsional_Energy-OPLS-2005>
5.8225884437561

> <r_mmod_Van_der_Waal_Energy-OPLS-2005>
132.084213256836

> <r_mmod_Electrostatic_Energy-OPLS-2005>
-373.404296875

> <r_mmod_Solvation_Energy-OPLS-2005>
-198.96240234375

> <b_mmod_Minimization_Converged-OPLS-2005>
0

> <r_mmod_RMS_Derivative-OPLS-2005>
1.97553706169128

$$$$
22
                    3D
 Structure written by MMmdl.
166175  0  0  1  0            999 V2000
  -30.6564  -14.5819   20.4737 C   0  0  0  0  0  0
  -30.4262  -12.3463   19.4550 C   0  0  0  0  0  0
  -29.5108  -12.5001   18.2222 C   0  0  0  0  0  0
  -28.0313  -12.3531   18.6269 C   0  0  0  0  0  0
  -27.6573  -13.2153   19.8625 C   0  0  2  0  0  0
  -28.6989  -13.0654   20.9955 C   0  0  0  0  0  0
  -25.2583  -13.8173   20.5652 C   0  0  0  0  0  0
  -24.1848  -13.0452   20.9151 C   0  0  0  0  0  0
  -24.6411  -11.6922   20.8728 C   0  0  0  0  0  0
  -23.9089  -10.4303   21.0395 C   0  0  0  0  0  0
  -24.3650   -9.4215   21.9162 C   0  0  0  0  0  0
  -23.6306   -8.2256   22.0754 C   0  0  0  0  0  0
  -22.4285   -8.0294   21.3550 C   0  0  0  0  0  0
  -21.9917   -9.0264   20.4651 C   0  0  0  0  0  0
  -22.7262  -10.2136   20.3045 C   0  0  0  0  0  0
  -21.6867   -6.0735   22.5269 C   0  0  0  0  0  0
  -21.4033   -6.5639   23.8209 C   0  0  0  0  0  0
  -21.3665   -5.6788   24.9166 C   0  0  0  0  0  0
  -21.6041   -4.3048   24.7213 C   0  0  0  0  0  0
  -21.8829   -3.8144   23.4331 C   0  0  0  0  0  0
  -21.9201   -4.6959   22.3389 C   0  0  0  0  0  0
  -22.7865  -13.5247   21.1794 C   0  0  0  0  0  0
  -22.1664   -4.2151   21.0961 F   0  0  0  0  0  0
  -21.5621   -3.4527   25.7721 F   0  0  0  0  0  0
  -30.0220  -13.3723   20.4338 N   0  0  0  0  0  0
  -26.3014  -12.9356   20.3297 N   0  0  0  0  0  0
  -25.9348  -11.6516   20.5743 N   0  0  0  0  0  0
  -22.0498  -12.8272   22.0372 N   0  0  0  0  0  0
  -25.4268  -15.1888   20.4085 N   0  0  0  0  0  0
  -31.8147  -14.7202   20.0756 O   0  0  0  0  0  0
  -21.6658   -6.8884   21.4241 O   0  0  0  0  0  0
  -22.3554  -14.5517   20.6587 O   0  0  0  0  0  0
  -24.6213  -31.8650   23.2098 C   0  0  0  0  0  0
  -25.9106  -32.4792   23.8376 C   0  0  1  0  0  0
  -27.2085  -27.3713   20.1038 C   0  0  0  0  0  0
  -25.5946  -33.8597   24.2317 N   0  0  0  0  0  0
  -23.4080  -30.4959   21.5494 C   0  0  2  0  0  0
  -24.8490  -28.9635   20.1002 C   0  0  0  0  0  0
  -22.7433  -29.4670   22.4942 C   0  0  0  0  0  0
  -18.0280  -28.1373   22.8475 C   0  0  0  0  0  0
  -24.1488  -36.7303   23.2633 C   0  0  0  0  0  0
  -25.9458  -30.8128   21.3712 C   0  0  0  0  0  0
  -26.0146  -29.4480   20.7068 C   0  0  0  0  0  0
  -27.1995  -28.6632   20.6972 C   0  0  0  0  0  0
  -26.0298  -26.9368   19.4566 C   0  0  0  0  0  0
  -24.8579  -27.7149   19.4601 C   0  0  0  0  0  0
  -23.6159  -29.8397   20.1588 C   0  0  0  0  0  0
  -25.4111  -36.3095   24.0336 C   0  0  1  0  0  0
  -20.5871  -28.3683   23.1284 C   0  0  2  0  0  0
  -20.6759  -26.9413   22.5401 C   0  0  0  0  0  0
  -19.5745  -26.6385   21.5188 C   0  0  0  0  0  0
  -18.1926  -26.7925   22.1603 C   0  0  0  0  0  0
  -19.1525  -28.8850   23.2883 C   0  0  0  0  0  0
  -18.9446  -30.1443   23.8911 C   0  0  0  0  0  0
  -17.6444  -30.6572   24.0564 C   0  0  0  0  0  0
  -25.9049  -34.9458   23.5121 C   0  0  0  0  0  0
  -16.5341  -29.9070   23.6312 C   0  0  0  0  0  0
  -16.7265  -28.6486   23.0341 C   0  0  0  0  0  0
  -26.4515  -31.6572   25.0718 C   0  0  0  0  0  0
  -25.3776  -31.3665   26.1455 C   0  0  0  0  0  0
  -27.0341  -30.3003   24.6136 C   0  0  0  0  0  0
  -27.6088  -32.4292   25.7474 C   0  0  0  0  0  0
  -27.5591  -37.1801   24.8459 C   0  0  0  0  0  0
  -21.4156  -29.3059   22.3695 N   0  0  0  0  0  0
  -26.4298  -37.3788   23.9413 N   0  0  0  0  0  0
  -24.6771  -31.0715   22.1007 N   0  0  0  0  0  0
  -23.4195  -28.8196   23.2976 O   0  0  0  0  0  0
  -28.3350  -26.5546   20.1784 O   0  0  0  0  0  0
  -26.5592  -34.8925   22.4670 O   0  0  0  0  0  0
  -23.5404  -32.1419   23.7477 O   0  0  0  0  0  0
  -30.8966  -19.5057   22.9289 C   0  0  0  0  0  0
  -30.8654  -18.3062   22.1872 C   0  0  0  0  0  0
  -30.2084  -20.6458   22.4832 C   0  0  0  0  0  0
  -30.0584  -18.2704   21.0199 C   0  0  0  0  0  0
  -29.4990  -20.5719   21.2698 C   0  0  0  0  0  0
  -31.3156  -16.0747   23.5352 C   0  0  0  0  0  0
  -32.4033  -17.0321   23.9517 C   0  0  0  0  0  0
  -31.7634  -17.1603   22.5821 C   0  0  0  0  0  0
  -30.2474  -21.9127   23.3221 C   0  0  0  0  0  0
  -28.9484  -17.1240   18.9839 C   0  0  0  0  0  0
  -29.2036  -24.2539   20.8192 C   0  0  0  0  0  0
  -28.1570  -25.1089   20.0302 C   0  0  0  0  0  0
  -29.5877  -22.8116   20.3030 C   0  0  0  0  0  0
  -30.0249  -17.0137   20.0859 C   0  0  2  0  0  0
  -29.4053  -19.3970   20.5841 N   0  0  0  0  0  0
  -29.8686  -15.6637   20.7110 N   0  0  0  0  0  0
  -28.8085  -21.6685   20.7472 O   0  0  0  0  0  0
  -31.4748  -12.4342   19.1653 H   0  0  0  0  0  0
  -30.3188  -11.3506   19.8869 H   0  0  0  0  0  0
  -29.7680  -11.7566   17.4662 H   0  0  0  0  0  0
  -29.6712  -13.4746   17.7587 H   0  0  0  0  0  0
  -27.8551  -11.2978   18.8406 H   0  0  0  0  0  0
  -27.3854  -12.6048   17.7857 H   0  0  0  0  0  0
  -27.6816  -14.2528   19.5307 H   0  0  0  0  0  0
  -28.6887  -12.0487   21.3904 H   0  0  0  0  0  0
  -28.4605  -13.7201   21.8364 H   0  0  0  0  0  0
  -25.2813   -9.5687   22.4716 H   0  0  0  0  0  0
  -24.0014   -7.4669   22.7484 H   0  0  0  0  0  0
  -21.0838   -8.8788   19.8970 H   0  0  0  0  0  0
  -22.3720  -10.9666   19.6142 H   0  0  0  0  0  0
  -21.2041   -7.6153   23.9712 H   0  0  0  0  0  0
  -21.1470   -6.0512   25.9069 H   0  0  0  0  0  0
  -22.0602   -2.7603   23.2827 H   0  0  0  0  0  0
  -22.4143  -11.9999   22.4858 H   0  0  0  0  0  0
  -21.1088  -13.1265   22.2493 H   0  0  0  0  0  0
  -24.6523  -15.8342   20.5216 H   0  0  0  0  0  0
  -26.2674  -15.6350   20.0675 H   0  0  0  0  0  0
  -26.7164  -32.5475   23.1114 H   0  0  0  0  0  0
  -25.0127  -33.9720   25.0485 H   0  0  0  0  0  0
  -22.6989  -31.3164   21.4170 H   0  0  0  0  0  0
  -23.3762  -35.9620   23.3271 H   0  0  0  0  0  0
  -24.3594  -36.8955   22.2053 H   0  0  0  0  0  0
  -23.7226  -37.6497   23.6664 H   0  0  0  0  0  0
  -26.0791  -31.5866   20.6120 H   0  0  0  0  0  0
  -26.8267  -30.8503   22.0015 H   0  0  0  0  0  0
  -28.0975  -29.0327   21.1719 H   0  0  0  0  0  0
  -25.9918  -25.9897   18.9388 H   0  0  0  0  0  0
  -23.9702  -27.3507   18.9610 H   0  0  0  0  0  0
  -23.7279  -30.6245   19.4090 H   0  0  0  0  0  0
  -22.7336  -29.2724   19.8560 H   0  0  0  0  0  0
  -25.1288  -36.1947   25.0832 H   0  0  0  0  0  0
  -20.9976  -28.3252   24.1392 H   0  0  0  0  0  0
  -20.5622  -26.2299   23.3595 H   0  0  0  0  0  0
  -21.6635  -26.7412   22.1219 H   0  0  0  0  0  0
  -19.6902  -25.6290   21.1226 H   0  0  0  0  0  0
  -19.6693  -27.3180   20.6707 H   0  0  0  0  0  0
  -17.4196  -26.6672   21.4006 H   0  0  0  0  0  0
  -18.0338  -26.0053   22.8985 H   0  0  0  0  0  0
  -19.7924  -30.7251   24.2300 H   0  0  0  0  0  0
  -17.4995  -31.6247   24.5169 H   0  0  0  0  0  0
  -15.5343  -30.2975   23.7623 H   0  0  0  0  0  0
  -15.8666  -28.0804   22.7055 H   0  0  0  0  0  0
  -24.5961  -30.7006   25.7782 H   0  0  0  0  0  0
  -24.8943  -32.2796   26.4932 H   0  0  0  0  0  0
  -25.8128  -30.8809   27.0195 H   0  0  0  0  0  0
  -26.2872  -29.6743   24.1244 H   0  0  0  0  0  0
  -27.4134  -29.7283   25.4609 H   0  0  0  0  0  0
  -27.8707  -30.4293   23.9273 H   0  0  0  0  0  0
  -27.2730  -33.3604   26.2051 H   0  0  0  0  0  0
  -28.3897  -32.6841   25.0295 H   0  0  0  0  0  0
  -28.0757  -31.8413   26.5385 H   0  0  0  0  0  0
  -28.2595  -38.0112   24.7540 H   0  0  0  0  0  0
  -28.1108  -36.2653   24.6240 H   0  0  0  0  0  0
  -27.2316  -37.1400   25.8863 H   0  0  0  0  0  0
  -20.9310  -29.8826   21.6967 H   0  0  0  0  0  0
  -26.0187  -38.2872   24.1413 H   0  0  0  0  0  0
  -31.4849  -19.5752   23.8321 H   0  0  0  0  0  0
  -30.3483  -16.1815   24.0225 H   0  0  0  0  0  0
  -31.6250  -15.0514   23.3301 H   0  0  0  0  0  0
  -33.4128  -16.6301   23.9967 H   0  0  0  0  0  0
  -32.1484  -17.7206   24.7537 H   0  0  0  0  0  0
  -32.3995  -16.8845   21.7417 H   0  0  0  0  0  0
  -29.2880  -22.4274   23.3013 H   0  0  0  0  0  0
  -31.0246  -22.5854   22.9613 H   0  0  0  0  0  0
  -30.4678  -21.6909   24.3662 H   0  0  0  0  0  0
  -29.1173  -17.9933   18.3501 H   0  0  0  0  0  0
  -27.9467  -17.2170   19.4011 H   0  0  0  0  0  0
  -28.9615  -16.2585   18.3226 H   0  0  0  0  0  0
  -28.9205  -24.2153   21.8707 H   0  0  0  0  0  0
  -30.1262  -24.8344   20.8045 H   0  0  0  0  0  0
  -27.1743  -24.7953   20.3891 H   0  0  0  0  0  0
  -28.1940  -24.8694   18.9660 H   0  0  0  0  0  0
  -30.6326  -22.6443   20.5728 H   0  0  0  0  0  0
  -29.5916  -22.8110   19.2134 H   0  0  0  0  0  0
  -30.9888  -17.0384   19.5745 H   0  0  0  0  0  0
  -28.9607  -15.4729   21.1046 H   0  0  0  0  0  0
  1 25  1  0  0  0
  1 30  2  0  0  0
  1 86  1  0  0  0
  2  3  1  0  0  0
  2 25  1  0  0  0
  2 88  1  0  0  0
  2 89  1  0  0  0
  3  4  1  0  0  0
  3 90  1  0  0  0
  3 91  1  0  0  0
  4  5  1  0  0  0
  4 92  1  0  0  0
  4 93  1  0  0  0
  5  6  1  0  0  0
  5 26  1  0  0  0
  5 94  1  0  0  0
  6 25  1  0  0  0
  6 95  1  0  0  0
  6 96  1  0  0  0
  7  8  2  0  0  0
  7 26  1  0  0  0
  7 29  1  0  0  0
  8  9  1  0  0  0
  8 22  1  0  0  0
  9 10  1  0  0  0
  9 27  2  0  0  0
 10 11  2  0  0  0
 10 15  1  0  0  0
 11 12  1  0  0  0
 11 97  1  0  0  0
 12 13  2  0  0  0
 12 98  1  0  0  0
 13 14  1  0  0  0
 13 31  1  0  0  0
 14 15  2  0  0  0
 14 99  1  0  0  0
 15100  1  0  0  0
 16 17  2  0  0  0
 16 21  1  0  0  0
 16 31  1  0  0  0
 17 18  1  0  0  0
 17101  1  0  0  0
 18 19  2  0  0  0
 18102  1  0  0  0
 19 20  1  0  0  0
 19 24  1  0  0  0
 20 21  2  0  0  0
 20103  1  0  0  0
 21 23  1  0  0  0
 22 28  1  0  0  0
 22 32  2  0  0  0
 26 27  1  0  0  0
 28104  1  0  0  0
 28105  1  0  0  0
 29106  1  0  0  0
 29107  1  0  0  0
 33 34  1  0  0  0
 33 66  1  0  0  0
 33 70  2  0  0  0
 34 36  1  0  0  0
 34 59  1  0  0  0
 34108  1  0  0  0
 35 44  2  0  0  0
 35 45  1  0  0  0
 35 68  1  0  0  0
 36 56  1  0  0  0
 36109  1  0  0  0
 37 39  1  0  0  0
 37 47  1  0  0  0
 37 66  1  0  0  0
 37110  1  0  0  0
 38 43  2  0  0  0
 38 46  1  0  0  0
 38 47  1  0  0  0
 39 64  1  0  0  0
 39 67  2  0  0  0
 40 52  1  0  0  0
 40 53  2  0  0  0
 40 58  1  0  0  0
 41111  1  0  0  0
 41112  1  0  0  0
 41113  1  0  0  0
 41 48  1  0  0  0
 42 43  1  0  0  0
 42 66  1  0  0  0
 42114  1  0  0  0
 42115  1  0  0  0
 43 44  1  0  0  0
 44116  1  0  0  0
 45 46  2  0  0  0
 45117  1  0  0  0
 46118  1  0  0  0
 47119  1  0  0  0
 47120  1  0  0  0
 48 56  1  0  0  0
 48 65  1  0  0  0
 48121  1  0  0  0
 49 50  1  0  0  0
 49 53  1  0  0  0
 49 64  1  0  0  0
 49122  1  0  0  0
 50 51  1  0  0  0
 50123  1  0  0  0
 50124  1  0  0  0
 51 52  1  0  0  0
 51125  1  0  0  0
 51126  1  0  0  0
 52127  1  0  0  0
 52128  1  0  0  0
 53 54  1  0  0  0
 54 55  2  0  0  0
 54129  1  0  0  0
 55 57  1  0  0  0
 55130  1  0  0  0
 56 69  2  0  0  0
 57 58  2  0  0  0
 57131  1  0  0  0
 58132  1  0  0  0
 59 60  1  0  0  0
 59 61  1  0  0  0
 59 62  1  0  0  0
 60133  1  0  0  0
 60134  1  0  0  0
 60135  1  0  0  0
 61136  1  0  0  0
 61137  1  0  0  0
 61138  1  0  0  0
 62139  1  0  0  0
 62140  1  0  0  0
 62141  1  0  0  0
 63 65  1  0  0  0
 63142  1  0  0  0
 63143  1  0  0  0
 63144  1  0  0  0
 64145  1  0  0  0
 65146  1  0  0  0
 68 82  1  0  0  0
 71 72  2  0  0  0
 71 73  1  0  0  0
 71147  1  0  0  0
 72 74  1  0  0  0
 72 78  1  0  0  0
 73 75  2  0  0  0
 73 79  1  0  0  0
 74 84  1  0  0  0
 74 85  2  0  0  0
 75 85  1  0  0  0
 75 87  1  0  0  0
 76 77  1  0  0  0
 76 78  1  0  0  0
 76148  1  0  0  0
 76149  1  0  0  0
 77 78  1  0  0  0
 77150  1  0  0  0
 77151  1  0  0  0
 78152  1  0  0  0
 79153  1  0  0  0
 79154  1  0  0  0
 79155  1  0  0  0
 80156  1  0  0  0
 80157  1  0  0  0
 80158  1  0  0  0
 80 84  1  0  0  0
 81 82  1  0  0  0
 81 83  1  0  0  0
 81159  1  0  0  0
 81160  1  0  0  0
 82161  1  0  0  0
 82162  1  0  0  0
 83 87  1  0  0  0
 83163  1  0  0  0
 83164  1  0  0  0
 84 86  1  0  0  0
 84165  1  0  0  0
 86166  1  0  0  0
M  ISO  4   1 100  68 101  82 101  86 100
M  END
> <chiral flag>
0

> <version>
0

> <s_m_source_file>
/data/baiqing/PycharmProjects/Reinvent-master-3.2/result/LINK_invent/BTK/process_docking_weight1_custom_sum_contain_oxygen_bond_distance_aromatic_linkinvent_7_9_3/rearranged_h_0148.sdf

> <i_m_source_file_index>
23

> <r_mmod_Potential_Energy-OPLS-2005>
-203.142761230469

> <r_mmod_Stretch_Energy-OPLS-2005>
60.0673828125

> <r_mmod_Bend_Energy-OPLS-2005>
124.016952514648

> <r_mmod_Torsional_Energy-OPLS-2005>
281.386962890625

> <r_mmod_Improper_Torsional_Energy-OPLS-2005>
8.51535224914551

> <r_mmod_Van_der_Waal_Energy-OPLS-2005>
151.332015991211

> <r_mmod_Electrostatic_Energy-OPLS-2005>
-652.689880371094

> <r_mmod_Solvation_Energy-OPLS-2005>
-209.707580566406

> <b_mmod_Minimization_Converged-OPLS-2005>
0

> <r_mmod_RMS_Derivative-OPLS-2005>
3.37498164176941

$$$$
23
                    3D
 Structure written by MMmdl.
166175  0  0  1  0            999 V2000
  -30.5763  -14.7771   20.4482 C   0  0  0  0  0  0
  -30.4337  -12.4689   19.4821 C   0  0  0  0  0  0
  -29.5152  -12.5283   18.2398 C   0  0  0  0  0  0
  -28.0394  -12.3448   18.6447 C   0  0  0  0  0  0
  -27.6422  -13.2336   19.8533 C   0  0  2  0  0  0
  -28.6843  -13.1581   20.9921 C   0  0  0  0  0  0
  -25.2503  -13.8204   20.5677 C   0  0  0  0  0  0
  -24.1795  -13.0447   20.9185 C   0  0  0  0  0  0
  -24.6392  -11.6920   20.8733 C   0  0  0  0  0  0
  -23.9068  -10.4297   21.0410 C   0  0  0  0  0  0
  -24.3616   -9.4212   21.9175 C   0  0  0  0  0  0
  -23.6306   -8.2242   22.0751 C   0  0  0  0  0  0
  -22.4281   -8.0281   21.3549 C   0  0  0  0  0  0
  -21.9914   -9.0256   20.4659 C   0  0  0  0  0  0
  -22.7236  -10.2132   20.3066 C   0  0  0  0  0  0
  -21.6862   -6.0749   22.5281 C   0  0  0  0  0  0
  -21.4024   -6.5646   23.8213 C   0  0  0  0  0  0
  -21.3640   -5.6791   24.9170 C   0  0  0  0  0  0
  -21.6043   -4.3056   24.7223 C   0  0  0  0  0  0
  -21.8812   -3.8151   23.4339 C   0  0  0  0  0  0
  -21.9194   -4.6975   22.3398 C   0  0  0  0  0  0
  -22.7811  -13.5228   21.1834 C   0  0  0  0  0  0
  -22.1657   -4.2154   21.0981 F   0  0  0  0  0  0
  -21.5621   -3.4539   25.7729 F   0  0  0  0  0  0
  -29.9872  -13.5264   20.4245 N   0  0  0  0  0  0
  -26.2930  -12.9407   20.3264 N   0  0  0  0  0  0
  -25.9329  -11.6547   20.5724 N   0  0  0  0  0  0
  -22.0455  -12.8252   22.0416 N   0  0  0  0  0  0
  -25.4188  -15.1934   20.4127 N   0  0  0  0  0  0
  -31.7495  -14.8931   20.0752 O   0  0  0  0  0  0
  -21.6640   -6.8888   21.4243 O   0  0  0  0  0  0
  -22.3493  -14.5522   20.6652 O   0  0  0  0  0  0
  -24.6333  -31.8530   23.1964 C   0  0  0  0  0  0
  -25.9140  -32.4749   23.8333 C   0  0  1  0  0  0
  -27.2160  -27.2286   20.1360 C   0  0  0  0  0  0
  -25.5921  -33.8555   24.2252 N   0  0  0  0  0  0
  -23.4331  -30.4747   21.5404 C   0  0  2  0  0  0
  -24.8807  -28.9162   20.1148 C   0  0  0  0  0  0
  -22.7508  -29.4590   22.4890 C   0  0  0  0  0  0
  -18.0303  -28.1379   22.8480 C   0  0  0  0  0  0
  -24.1489  -36.7271   23.2640 C   0  0  0  0  0  0
  -25.9827  -30.7557   21.3841 C   0  0  0  0  0  0
  -26.0553  -29.3755   20.7252 C   0  0  0  0  0  0
  -27.2274  -28.5453   20.7219 C   0  0  0  0  0  0
  -26.0220  -26.8545   19.4815 C   0  0  0  0  0  0
  -24.8703  -27.6639   19.4834 C   0  0  0  0  0  0
  -23.6544  -29.8072   20.1586 C   0  0  0  0  0  0
  -25.4120  -36.3066   24.0322 C   0  0  1  0  0  0
  -20.5908  -28.3696   23.1244 C   0  0  2  0  0  0
  -20.6775  -26.9404   22.5401 C   0  0  0  0  0  0
  -19.5761  -26.6369   21.5194 C   0  0  0  0  0  0
  -18.1939  -26.7921   22.1606 C   0  0  0  0  0  0
  -19.1557  -28.8854   23.2858 C   0  0  0  0  0  0
  -18.9473  -30.1448   23.8882 C   0  0  0  0  0  0
  -17.6469  -30.6576   24.0555 C   0  0  0  0  0  0
  -25.9061  -34.9437   23.5097 C   0  0  0  0  0  0
  -16.5359  -29.9068   23.6326 C   0  0  0  0  0  0
  -16.7285  -28.6484   23.0352 C   0  0  0  0  0  0
  -26.4505  -31.6584   25.0733 C   0  0  0  0  0  0
  -25.3705  -31.3749   26.1433 C   0  0  0  0  0  0
  -27.0361  -30.2990   24.6259 C   0  0  0  0  0  0
  -27.6054  -32.4334   25.7503 C   0  0  0  0  0  0
  -27.5589  -37.1786   24.8460 C   0  0  0  0  0  0
  -21.4219  -29.3045   22.3633 N   0  0  0  0  0  0
  -26.4294  -37.3762   23.9413 N   0  0  0  0  0  0
  -24.7018  -31.0466   22.0965 N   0  0  0  0  0  0
  -23.4188  -28.8125   23.3004 O   0  0  0  0  0  0
  -28.2947  -26.3036   20.1671 O   0  0  0  0  0  0
  -26.5639  -34.8909   22.4668 O   0  0  0  0  0  0
  -23.5460  -32.1378   23.7223 O   0  0  0  0  0  0
  -29.0236  -16.9688   18.7803 C   0  0  0  0  0  0
  -28.6918  -18.0439   17.9440 C   0  0  0  0  0  0
  -28.9154  -19.3945   18.3596 C   0  0  0  0  0  0
  -29.5650  -17.1595   20.0560 C   0  0  0  0  0  0
  -29.3151  -19.5984   19.7255 C   0  0  0  0  0  0
  -28.1628  -17.6514   16.5680 C   0  0  0  0  0  0
  -27.7962  -18.8229   15.6719 C   0  0  0  0  0  0
  -28.8302  -19.9289   15.8418 C   0  0  0  0  0  0
  -28.8446  -20.5188   17.2778 C   0  0  0  0  0  0
  -30.1129  -21.4008   17.3070 C   0  0  0  0  0  0
  -27.5623  -21.3776   17.3909 C   0  0  0  0  0  0
  -29.0028  -23.5958   20.0921 C   0  0  0  0  0  0
  -28.0181  -24.8394   20.4843 C   0  0  0  0  0  0
  -28.6670  -22.0348   20.5135 C   0  0  0  0  0  0
  -29.6425  -18.4826   20.5155 N   0  0  0  0  0  0
  -29.8076  -15.8898   20.7961 N   0  0  0  0  0  0
  -29.6261  -20.8959   20.2625 O   0  0  0  0  0  0
  -31.4762  -12.5956   19.1849 H   0  0  0  0  0  0
  -30.3803  -11.4852   19.9521 H   0  0  0  0  0  0
  -29.8052  -11.7670   17.5155 H   0  0  0  0  0  0
  -29.6377  -13.4901   17.7373 H   0  0  0  0  0  0
  -27.8938  -11.2934   18.8959 H   0  0  0  0  0  0
  -27.3855  -12.5484   17.7947 H   0  0  0  0  0  0
  -27.6364  -14.2562   19.4783 H   0  0  0  0  0  0
  -28.7217  -12.1532   21.4152 H   0  0  0  0  0  0
  -28.4123  -13.8211   21.8137 H   0  0  0  0  0  0
  -25.2775   -9.5692   22.4739 H   0  0  0  0  0  0
  -24.0028   -7.4638   22.7467 H   0  0  0  0  0  0
  -21.0835   -8.8765   19.8988 H   0  0  0  0  0  0
  -22.3685  -10.9660   19.6170 H   0  0  0  0  0  0
  -21.2022   -7.6155   23.9721 H   0  0  0  0  0  0
  -21.1472   -6.0519   25.9066 H   0  0  0  0  0  0
  -22.0618   -2.7619   23.2830 H   0  0  0  0  0  0
  -22.4085  -11.9947   22.4858 H   0  0  0  0  0  0
  -21.1063  -13.1287   22.2590 H   0  0  0  0  0  0
  -24.6469  -15.8417   20.5242 H   0  0  0  0  0  0
  -26.2660  -15.6392   20.0854 H   0  0  0  0  0  0
  -26.7206  -32.5393   23.1070 H   0  0  0  0  0  0
  -25.0047  -33.9697   25.0385 H   0  0  0  0  0  0
  -22.7320  -31.2984   21.3910 H   0  0  0  0  0  0
  -23.3763  -35.9592   23.3287 H   0  0  0  0  0  0
  -24.3584  -36.8908   22.2059 H   0  0  0  0  0  0
  -23.7222  -37.6454   23.6681 H   0  0  0  0  0  0
  -26.1304  -31.5166   20.6163 H   0  0  0  0  0  0
  -26.8559  -30.8021   22.0233 H   0  0  0  0  0  0
  -28.1275  -28.8907   21.2114 H   0  0  0  0  0  0
  -25.9552  -25.9111   18.9592 H   0  0  0  0  0  0
  -23.9723  -27.3102   18.9956 H   0  0  0  0  0  0
  -23.7828  -30.5817   19.4014 H   0  0  0  0  0  0
  -22.7727  -29.2413   19.8527 H   0  0  0  0  0  0
  -25.1301  -36.1917   25.0811 H   0  0  0  0  0  0
  -21.0018  -28.3274   24.1356 H   0  0  0  0  0  0
  -20.5633  -26.2310   23.3611 H   0  0  0  0  0  0
  -21.6646  -26.7390   22.1228 H   0  0  0  0  0  0
  -19.6920  -25.6273   21.1234 H   0  0  0  0  0  0
  -19.6702  -27.3160   20.6708 H   0  0  0  0  0  0
  -17.4209  -26.6668   21.4002 H   0  0  0  0  0  0
  -18.0344  -26.0059   22.9002 H   0  0  0  0  0  0
  -19.7946  -30.7269   24.2238 H   0  0  0  0  0  0
  -17.5021  -31.6252   24.5158 H   0  0  0  0  0  0
  -15.5359  -30.2960   23.7655 H   0  0  0  0  0  0
  -15.8687  -28.0789   22.7079 H   0  0  0  0  0  0
  -24.5871  -30.7123   25.7743 H   0  0  0  0  0  0
  -24.8902  -32.2921   26.4848 H   0  0  0  0  0  0
  -25.7978  -30.8915   27.0226 H   0  0  0  0  0  0
  -26.2967  -29.6722   24.1257 H   0  0  0  0  0  0
  -27.3993  -29.7275   25.4815 H   0  0  0  0  0  0
  -27.8872  -30.4250   23.9560 H   0  0  0  0  0  0
  -27.2663  -33.3632   26.2085 H   0  0  0  0  0  0
  -28.3852  -32.6896   25.0320 H   0  0  0  0  0  0
  -28.0746  -31.8463   26.5406 H   0  0  0  0  0  0
  -28.2584  -38.0106   24.7521 H   0  0  0  0  0  0
  -28.1103  -36.2627   24.6262 H   0  0  0  0  0  0
  -27.2312  -37.1412   25.8864 H   0  0  0  0  0  0
  -20.9399  -29.8780   21.6853 H   0  0  0  0  0  0
  -26.0170  -38.2835   24.1413 H   0  0  0  0  0  0
  -28.8742  -15.9648   18.4065 H   0  0  0  0  0  0
  -27.3010  -16.9908   16.6783 H   0  0  0  0  0  0
  -28.9352  -17.0584   16.0769 H   0  0  0  0  0  0
  -26.8038  -19.1899   15.9330 H   0  0  0  0  0  0
  -27.7379  -18.4989   14.6316 H   0  0  0  0  0  0
  -28.6526  -20.7082   15.0997 H   0  0  0  0  0  0
  -29.8099  -19.5139   15.5958 H   0  0  0  0  0  0
  -31.0131  -20.7970   17.1793 H   0  0  0  0  0  0
  -30.2464  -21.9598   18.2248 H   0  0  0  0  0  0
  -30.1017  -22.1377   16.5036 H   0  0  0  0  0  0
  -26.6726  -20.7636   17.5304 H   0  0  0  0  0  0
  -27.4025  -21.9766   16.4922 H   0  0  0  0  0  0
  -27.5824  -22.1023   18.1895 H   0  0  0  0  0  0
  -29.9898  -23.8279   20.4924 H   0  0  0  0  0  0
  -29.1186  -23.6424   19.0113 H   0  0  0  0  0  0
  -27.9053  -24.8094   21.5685 H   0  0  0  0  0  0
  -27.0408  -24.5471   20.1078 H   0  0  0  0  0  0
  -27.6625  -21.7468   20.2133 H   0  0  0  0  0  0
  -28.5810  -22.0492   21.5997 H   0  0  0  0  0  0
  -29.0077  -15.6171   21.3434 H   0  0  0  0  0  0
  1 25  1  0  0  0
  1 30  2  0  0  0
  1 86  1  0  0  0
  2  3  1  0  0  0
  2 25  1  0  0  0
  2 88  1  0  0  0
  2 89  1  0  0  0
  3  4  1  0  0  0
  3 90  1  0  0  0
  3 91  1  0  0  0
  4  5  1  0  0  0
  4 92  1  0  0  0
  4 93  1  0  0  0
  5  6  1  0  0  0
  5 26  1  0  0  0
  5 94  1  0  0  0
  6 25  1  0  0  0
  6 95  1  0  0  0
  6 96  1  0  0  0
  7  8  2  0  0  0
  7 26  1  0  0  0
  7 29  1  0  0  0
  8  9  1  0  0  0
  8 22  1  0  0  0
  9 10  1  0  0  0
  9 27  2  0  0  0
 10 11  2  0  0  0
 10 15  1  0  0  0
 11 12  1  0  0  0
 11 97  1  0  0  0
 12 13  2  0  0  0
 12 98  1  0  0  0
 13 14  1  0  0  0
 13 31  1  0  0  0
 14 15  2  0  0  0
 14 99  1  0  0  0
 15100  1  0  0  0
 16 17  2  0  0  0
 16 21  1  0  0  0
 16 31  1  0  0  0
 17 18  1  0  0  0
 17101  1  0  0  0
 18 19  2  0  0  0
 18102  1  0  0  0
 19 20  1  0  0  0
 19 24  1  0  0  0
 20 21  2  0  0  0
 20103  1  0  0  0
 21 23  1  0  0  0
 22 28  1  0  0  0
 22 32  2  0  0  0
 26 27  1  0  0  0
 28104  1  0  0  0
 28105  1  0  0  0
 29106  1  0  0  0
 29107  1  0  0  0
 33 34  1  0  0  0
 33 66  1  0  0  0
 33 70  2  0  0  0
 34 36  1  0  0  0
 34 59  1  0  0  0
 34108  1  0  0  0
 35 44  2  0  0  0
 35 45  1  0  0  0
 35 68  1  0  0  0
 36 56  1  0  0  0
 36109  1  0  0  0
 37 39  1  0  0  0
 37 47  1  0  0  0
 37 66  1  0  0  0
 37110  1  0  0  0
 38 43  2  0  0  0
 38 46  1  0  0  0
 38 47  1  0  0  0
 39 64  1  0  0  0
 39 67  2  0  0  0
 40 52  1  0  0  0
 40 53  2  0  0  0
 40 58  1  0  0  0
 41111  1  0  0  0
 41112  1  0  0  0
 41113  1  0  0  0
 41 48  1  0  0  0
 42 43  1  0  0  0
 42 66  1  0  0  0
 42114  1  0  0  0
 42115  1  0  0  0
 43 44  1  0  0  0
 44116  1  0  0  0
 45 46  2  0  0  0
 45117  1  0  0  0
 46118  1  0  0  0
 47119  1  0  0  0
 47120  1  0  0  0
 48 56  1  0  0  0
 48 65  1  0  0  0
 48121  1  0  0  0
 49 50  1  0  0  0
 49 53  1  0  0  0
 49 64  1  0  0  0
 49122  1  0  0  0
 50 51  1  0  0  0
 50123  1  0  0  0
 50124  1  0  0  0
 51 52  1  0  0  0
 51125  1  0  0  0
 51126  1  0  0  0
 52127  1  0  0  0
 52128  1  0  0  0
 53 54  1  0  0  0
 54 55  2  0  0  0
 54129  1  0  0  0
 55 57  1  0  0  0
 55130  1  0  0  0
 56 69  2  0  0  0
 57 58  2  0  0  0
 57131  1  0  0  0
 58132  1  0  0  0
 59 60  1  0  0  0
 59 61  1  0  0  0
 59 62  1  0  0  0
 60133  1  0  0  0
 60134  1  0  0  0
 60135  1  0  0  0
 61136  1  0  0  0
 61137  1  0  0  0
 61138  1  0  0  0
 62139  1  0  0  0
 62140  1  0  0  0
 62141  1  0  0  0
 63 65  1  0  0  0
 63142  1  0  0  0
 63143  1  0  0  0
 63144  1  0  0  0
 64145  1  0  0  0
 65146  1  0  0  0
 68 83  1  0  0  0
 71 72  2  0  0  0
 71 74  1  0  0  0
 71147  1  0  0  0
 72 73  1  0  0  0
 72 76  1  0  0  0
 73 75  2  0  0  0
 73 79  1  0  0  0
 74 85  2  0  0  0
 74 86  1  0  0  0
 75 85  1  0  0  0
 75 87  1  0  0  0
 76 77  1  0  0  0
 76148  1  0  0  0
 76149  1  0  0  0
 77 78  1  0  0  0
 77150  1  0  0  0
 77151  1  0  0  0
 78 79  1  0  0  0
 78152  1  0  0  0
 78153  1  0  0  0
 79 80  1  0  0  0
 79 81  1  0  0  0
 80154  1  0  0  0
 80155  1  0  0  0
 80156  1  0  0  0
 81157  1  0  0  0
 81158  1  0  0  0
 81159  1  0  0  0
 82 83  1  0  0  0
 82 84  1  0  0  0
 82160  1  0  0  0
 82161  1  0  0  0
 83162  1  0  0  0
 83163  1  0  0  0
 84 87  1  0  0  0
 84164  1  0  0  0
 84165  1  0  0  0
 86166  1  0  0  0
M  ISO  4   1 100  68 101  83 101  86 100
M  END
> <chiral flag>
0

> <version>
0

> <s_m_source_file>
/data/baiqing/PycharmProjects/Reinvent-master-3.2/result/LINK_invent/BTK/process_docking_weight1_custom_sum_contain_oxygen_bond_distance_aromatic_linkinvent_7_9_3/rearranged_h_0148.sdf

> <i_m_source_file_index>
24

> <r_mmod_Potential_Energy-OPLS-2005>
212.354995727539

> <r_mmod_Stretch_Energy-OPLS-2005>
163.612487792969

> <r_mmod_Bend_Energy-OPLS-2005>
220.12614440918

> <r_mmod_Torsional_Energy-OPLS-2005>
306.921813964844

> <r_mmod_Improper_Torsional_Energy-OPLS-2005>
7.62287187576294

> <r_mmod_Van_der_Waal_Energy-OPLS-2005>
148.81396484375

> <r_mmod_Electrostatic_Energy-OPLS-2005>
-506.648651123047

> <r_mmod_Solvation_Energy-OPLS-2005>
-229.30322265625

> <b_mmod_Minimization_Converged-OPLS-2005>
0

> <r_mmod_RMS_Derivative-OPLS-2005>
2.498051404953

$$$$
24
                    3D
 Structure written by MMmdl.
178189  0  0  1  0            999 V2000
  -30.6185  -14.7642   20.4328 C   0  0  0  0  0  0
  -30.4008  -12.4775   19.4633 C   0  0  0  0  0  0
  -29.4845  -12.5118   18.2207 C   0  0  0  0  0  0
  -28.0085  -12.3542   18.6297 C   0  0  0  0  0  0
  -27.6209  -13.2556   19.8380 C   0  0  2  0  0  0
  -28.6620  -13.2251   20.9708 C   0  0  0  0  0  0
  -25.2358  -13.8264   20.5686 C   0  0  0  0  0  0
  -24.1690  -13.0428   20.9235 C   0  0  0  0  0  0
  -24.6342  -11.6949   20.8766 C   0  0  0  0  0  0
  -23.9044  -10.4300   21.0392 C   0  0  0  0  0  0
  -24.3621   -9.4203   21.9163 C   0  0  0  0  0  0
  -23.6317   -8.2229   22.0733 C   0  0  0  0  0  0
  -22.4305   -8.0273   21.3514 C   0  0  0  0  0  0
  -21.9898   -9.0233   20.4607 C   0  0  0  0  0  0
  -22.7213  -10.2119   20.3016 C   0  0  0  0  0  0
  -21.6856   -6.0732   22.5274 C   0  0  0  0  0  0
  -21.4007   -6.5632   23.8196 C   0  0  0  0  0  0
  -21.3673   -5.6787   24.9176 C   0  0  0  0  0  0
  -21.6068   -4.3048   24.7228 C   0  0  0  0  0  0
  -21.8817   -3.8130   23.4349 C   0  0  0  0  0  0
  -21.9191   -4.6959   22.3403 C   0  0  0  0  0  0
  -22.7713  -13.5145   21.1951 C   0  0  0  0  0  0
  -22.1668   -4.2131   21.0972 F   0  0  0  0  0  0
  -21.5653   -3.4539   25.7732 F   0  0  0  0  0  0
  -29.9580  -13.5562   20.3758 N   0  0  0  0  0  0
  -26.2793  -12.9516   20.3271 N   0  0  0  0  0  0
  -25.9238  -11.6621   20.5715 N   0  0  0  0  0  0
  -22.0440  -12.8064   22.0545 N   0  0  0  0  0  0
  -25.3957  -15.1995   20.4174 N   0  0  0  0  0  0
  -31.8184  -14.7995   20.1336 O   0  0  0  0  0  0
  -21.6656   -6.8883   21.4233 O   0  0  0  0  0  0
  -22.3357  -14.5475   20.6891 O   0  0  0  0  0  0
  -24.6265  -31.8561   23.2003 C   0  0  0  0  0  0
  -25.9140  -32.4725   23.8322 C   0  0  1  0  0  0
  -27.2481  -27.3370   20.1300 C   0  0  0  0  0  0
  -25.5929  -33.8470   24.2305 N   0  0  0  0  0  0
  -23.4138  -30.4850   21.5342 C   0  0  2  0  0  0
  -24.8686  -28.9205   20.1072 C   0  0  0  0  0  0
  -22.7400  -29.4703   22.4901 C   0  0  0  0  0  0
  -18.0271  -28.1359   22.8494 C   0  0  0  0  0  0
  -24.1477  -36.7286   23.2632 C   0  0  0  0  0  0
  -25.9380  -30.8091   21.3387 C   0  0  0  0  0  0
  -26.0300  -29.4264   20.7069 C   0  0  0  0  0  0
  -27.2184  -28.6391   20.7154 C   0  0  0  0  0  0
  -26.0675  -26.8759   19.5117 C   0  0  0  0  0  0
  -24.8872  -27.6480   19.4997 C   0  0  0  0  0  0
  -23.6303  -29.7945   20.1518 C   0  0  0  0  0  0
  -25.4056  -36.3039   24.0367 C   0  0  1  0  0  0
  -20.5849  -28.3657   23.1253 C   0  0  2  0  0  0
  -20.6724  -26.9378   22.5368 C   0  0  0  0  0  0
  -19.5680  -26.6398   21.5156 C   0  0  0  0  0  0
  -18.1892  -26.7905   22.1617 C   0  0  0  0  0  0
  -19.1526  -28.8810   23.2900 C   0  0  0  0  0  0
  -18.9470  -30.1440   23.8904 C   0  0  0  0  0  0
  -17.6491  -30.6589   24.0570 C   0  0  0  0  0  0
  -25.8998  -34.9411   23.5166 C   0  0  0  0  0  0
  -16.5377  -29.9094   23.6310 C   0  0  0  0  0  0
  -16.7276  -28.6504   23.0331 C   0  0  0  0  0  0
  -26.4592  -31.6451   25.0586 C   0  0  0  0  0  0
  -25.3974  -31.3462   26.1395 C   0  0  0  0  0  0
  -27.0448  -30.2915   24.5912 C   0  0  0  0  0  0
  -27.6146  -32.4157   25.7359 C   0  0  0  0  0  0
  -27.5558  -37.1754   24.8501 C   0  0  0  0  0  0
  -21.4093  -29.3091   22.3675 N   0  0  0  0  0  0
  -26.4250  -37.3743   23.9487 N   0  0  0  0  0  0
  -24.6785  -31.0668   22.0882 N   0  0  0  0  0  0
  -23.4115  -28.8173   23.2973 O   0  0  0  0  0  0
  -28.4046  -26.5469   20.1199 O   0  0  0  0  0  0
  -26.5528  -34.8909   22.4720 O   0  0  0  0  0  0
  -23.5449  -32.1379   23.7381 O   0  0  0  0  0  0
  -29.1257  -21.0129   22.6178 C   0  0  0  0  0  0
  -29.0423  -20.5304   21.2914 C   0  0  0  0  0  0
  -29.3661  -21.5321   20.3101 C   0  0  0  0  0  0
  -30.6078  -22.1142   20.6409 C   0  0  0  0  0  0
  -30.0088  -22.0903   22.8626 C   0  0  0  0  0  0
  -32.9793  -21.1480   20.1267 C   0  0  0  0  0  0
  -33.0883  -22.6362   19.8369 C   0  0  0  0  0  0
  -29.7659  -25.3330   17.6227 C   0  0  0  0  0  0
  -30.8458  -24.6563   18.4329 C   0  0  0  0  0  0
  -29.7751  -18.1317   22.1546 C   0  0  0  0  0  0
  -29.2176  -18.3056   19.7423 C   0  0  0  0  0  0
  -30.6538  -16.9566   21.5878 C   0  0  0  0  0  0
  -29.0846  -16.7154   19.7795 C   0  0  0  0  0  0
  -28.9291  -18.9603   21.1169 C   0  0  0  0  0  0
  -31.7673  -21.9312   19.7119 C   0  0  0  0  0  0
  -29.4668  -24.0293   18.3483 C   0  0  0  0  0  0
  -30.2048  -22.6137   24.2662 C   0  0  0  0  0  0
  -28.3838  -25.1265   20.5500 C   0  0  0  0  0  0
  -28.4529  -23.9192   19.5114 C   0  0  2  0  0  0
  -30.8510  -22.5449   21.9050 N   0  0  0  0  0  0
  -29.9475  -15.9532   20.7511 N   0  0  0  0  0  0
  -28.3478  -22.5249   20.0884 N   0  0  0  0  0  0
  -31.4409  -12.5911   19.1577 H   0  0  0  0  0  0
  -30.3352  -11.5189   19.9642 H   0  0  0  0  0  0
  -29.7615  -11.7204   17.5233 H   0  0  0  0  0  0
  -29.6123  -13.4624   17.6928 H   0  0  0  0  0  0
  -27.8359  -11.3090   18.8754 H   0  0  0  0  0  0
  -27.3580  -12.5833   17.7812 H   0  0  0  0  0  0
  -27.5950  -14.2716   19.4471 H   0  0  0  0  0  0
  -28.6973  -12.2475   21.4534 H   0  0  0  0  0  0
  -28.4021  -13.9482   21.7450 H   0  0  0  0  0  0
  -25.2774   -9.5726   22.4725 H   0  0  0  0  0  0
  -24.0070   -7.4624   22.7405 H   0  0  0  0  0  0
  -21.0861   -8.8706   19.8896 H   0  0  0  0  0  0
  -22.3661  -10.9651   19.6127 H   0  0  0  0  0  0
  -21.1972   -7.6128   23.9703 H   0  0  0  0  0  0
  -21.1515   -6.0510   25.9075 H   0  0  0  0  0  0
  -22.0586   -2.7584   23.2834 H   0  0  0  0  0  0
  -22.4138  -11.9736   22.4867 H   0  0  0  0  0  0
  -21.1033  -13.0940   22.2814 H   0  0  0  0  0  0
  -24.6242  -15.8492   20.5461 H   0  0  0  0  0  0
  -26.2523  -15.6454   20.1155 H   0  0  0  0  0  0
  -26.7140  -32.5498   23.1027 H   0  0  0  0  0  0
  -25.0116  -33.9554   25.0448 H   0  0  0  0  0  0
  -22.7167  -31.3059   21.3738 H   0  0  0  0  0  0
  -23.3725  -35.9650   23.3272 H   0  0  0  0  0  0
  -24.3584  -36.8914   22.2065 H   0  0  0  0  0  0
  -23.7261  -37.6481   23.6660 H   0  0  0  0  0  0
  -26.0007  -31.5534   20.5464 H   0  0  0  0  0  0
  -26.8448  -30.9137   21.9240 H   0  0  0  0  0  0
  -28.1043  -29.0161   21.2060 H   0  0  0  0  0  0
  -26.0786  -25.9153   19.0248 H   0  0  0  0  0  0
  -23.9995  -27.2510   19.0203 H   0  0  0  0  0  0
  -23.7350  -30.5543   19.3780 H   0  0  0  0  0  0
  -22.7599  -29.2119   19.8507 H   0  0  0  0  0  0
  -25.1237  -36.1825   25.0852 H   0  0  0  0  0  0
  -20.9997  -28.3198   24.1343 H   0  0  0  0  0  0
  -20.5466  -26.2285   23.3559 H   0  0  0  0  0  0
  -21.6599  -26.7340   22.1237 H   0  0  0  0  0  0
  -19.6827  -25.6324   21.1141 H   0  0  0  0  0  0
  -19.6570  -27.3238   20.6698 H   0  0  0  0  0  0
  -17.4128  -26.6625   21.4099 H   0  0  0  0  0  0
  -18.0375  -26.0053   22.9018 H   0  0  0  0  0  0
  -19.7975  -30.7240   24.2239 H   0  0  0  0  0  0
  -17.5060  -31.6236   24.5206 H   0  0  0  0  0  0
  -15.5373  -30.3004   23.7625 H   0  0  0  0  0  0
  -15.8659  -28.0838   22.6994 H   0  0  0  0  0  0
  -24.6047  -30.6916   25.7792 H   0  0  0  0  0  0
  -24.9319  -32.2580   26.5124 H   0  0  0  0  0  0
  -25.8436  -30.8420   26.9968 H   0  0  0  0  0  0
  -26.2949  -29.6444   24.1340 H   0  0  0  0  0  0
  -27.4658  -29.7335   25.4297 H   0  0  0  0  0  0
  -27.8580  -30.4239   23.8758 H   0  0  0  0  0  0
  -27.2734  -33.3378   26.2050 H   0  0  0  0  0  0
  -28.3908  -32.6772   25.0176 H   0  0  0  0  0  0
  -28.0888  -31.8186   26.5163 H   0  0  0  0  0  0
  -28.2563  -38.0045   24.7523 H   0  0  0  0  0  0
  -28.1026  -36.2570   24.6335 H   0  0  0  0  0  0
  -27.2280  -37.1477   25.8895 H   0  0  0  0  0  0
  -20.9147  -29.8968   21.7084 H   0  0  0  0  0  0
  -26.0102  -38.2797   24.1510 H   0  0  0  0  0  0
  -28.7176  -20.4594   23.4501 H   0  0  0  0  0  0
  -33.0595  -20.8433   21.1703 H   0  0  0  0  0  0
  -33.3584  -20.4280   19.4001 H   0  0  0  0  0  0
  -33.5199  -22.9689   18.8944 H   0  0  0  0  0  0
  -33.2362  -23.2982   20.6877 H   0  0  0  0  0  0
  -29.7872  -25.2638   16.5349 H   0  0  0  0  0  0
  -29.4197  -26.2946   17.9924 H   0  0  0  0  0  0
  -31.1388  -25.0655   19.4003 H   0  0  0  0  0  0
  -31.6575  -24.1979   17.8689 H   0  0  0  0  0  0
  -30.4794  -18.7930   22.6542 H   0  0  0  0  0  0
  -29.1251  -17.7510   22.9410 H   0  0  0  0  0  0
  -28.5292  -18.7267   19.0096 H   0  0  0  0  0  0
  -30.2141  -18.6005   19.4084 H   0  0  0  0  0  0
  -31.1478  -16.4522   22.4204 H   0  0  0  0  0  0
  -31.4652  -17.3830   20.9952 H   0  0  0  0  0  0
  -28.0509  -16.4962   20.0413 H   0  0  0  0  0  0
  -29.2127  -16.3267   18.7681 H   0  0  0  0  0  0
  -27.8843  -18.7494   21.3359 H   0  0  0  0  0  0
  -31.4028  -21.7332   18.7057 H   0  0  0  0  0  0
  -29.4212  -23.1600   17.6949 H   0  0  0  0  0  0
  -30.8721  -23.4711   24.2891 H   0  0  0  0  0  0
  -30.6121  -21.8209   24.8970 H   0  0  0  0  0  0
  -29.2440  -22.9221   24.6814 H   0  0  0  0  0  0
  -29.2623  -25.0063   21.1886 H   0  0  0  0  0  0
  -27.5435  -24.9652   21.2325 H   0  0  0  0  0  0
  -27.4934  -23.9974   19.0042 H   0  0  0  0  0  0
  -27.4612  -22.3170   20.5469 H   0  0  0  0  0  0
  1 25  1  0  0  0
  1 30  2  0  0  0
  1 91  1  0  0  0
  2  3  1  0  0  0
  2 25  1  0  0  0
  2 93  1  0  0  0
  2 94  1  0  0  0
  3  4  1  0  0  0
  3 95  1  0  0  0
  3 96  1  0  0  0
  4  5  1  0  0  0
  4 97  1  0  0  0
  4 98  1  0  0  0
  5  6  1  0  0  0
  5 26  1  0  0  0
  5 99  1  0  0  0
  6 25  1  0  0  0
  6100  1  0  0  0
  6101  1  0  0  0
  7  8  2  0  0  0
  7 26  1  0  0  0
  7 29  1  0  0  0
  8  9  1  0  0  0
  8 22  1  0  0  0
  9 10  1  0  0  0
  9 27  2  0  0  0
 10 11  2  0  0  0
 10 15  1  0  0  0
 11 12  1  0  0  0
 11102  1  0  0  0
 12 13  2  0  0  0
 12103  1  0  0  0
 13 14  1  0  0  0
 13 31  1  0  0  0
 14 15  2  0  0  0
 14104  1  0  0  0
 15105  1  0  0  0
 16 17  2  0  0  0
 16 21  1  0  0  0
 16 31  1  0  0  0
 17 18  1  0  0  0
 17106  1  0  0  0
 18 19  2  0  0  0
 18107  1  0  0  0
 19 20  1  0  0  0
 19 24  1  0  0  0
 20 21  2  0  0  0
 20108  1  0  0  0
 21 23  1  0  0  0
 22 28  1  0  0  0
 22 32  2  0  0  0
 26 27  1  0  0  0
 28109  1  0  0  0
 28110  1  0  0  0
 29111  1  0  0  0
 29112  1  0  0  0
 33 34  1  0  0  0
 33 66  1  0  0  0
 33 70  2  0  0  0
 34 36  1  0  0  0
 34 59  1  0  0  0
 34113  1  0  0  0
 35 44  2  0  0  0
 35 45  1  0  0  0
 35 68  1  0  0  0
 36 56  1  0  0  0
 36114  1  0  0  0
 37 39  1  0  0  0
 37 47  1  0  0  0
 37 66  1  0  0  0
 37115  1  0  0  0
 38 43  2  0  0  0
 38 46  1  0  0  0
 38 47  1  0  0  0
 39 64  1  0  0  0
 39 67  2  0  0  0
 40 52  1  0  0  0
 40 53  2  0  0  0
 40 58  1  0  0  0
 41116  1  0  0  0
 41117  1  0  0  0
 41118  1  0  0  0
 41 48  1  0  0  0
 42 43  1  0  0  0
 42 66  1  0  0  0
 42119  1  0  0  0
 42120  1  0  0  0
 43 44  1  0  0  0
 44121  1  0  0  0
 45 46  2  0  0  0
 45122  1  0  0  0
 46123  1  0  0  0
 47124  1  0  0  0
 47125  1  0  0  0
 48 56  1  0  0  0
 48 65  1  0  0  0
 48126  1  0  0  0
 49 50  1  0  0  0
 49 53  1  0  0  0
 49 64  1  0  0  0
 49127  1  0  0  0
 50 51  1  0  0  0
 50128  1  0  0  0
 50129  1  0  0  0
 51 52  1  0  0  0
 51130  1  0  0  0
 51131  1  0  0  0
 52132  1  0  0  0
 52133  1  0  0  0
 53 54  1  0  0  0
 54 55  2  0  0  0
 54134  1  0  0  0
 55 57  1  0  0  0
 55135  1  0  0  0
 56 69  2  0  0  0
 57 58  2  0  0  0
 57136  1  0  0  0
 58137  1  0  0  0
 59 60  1  0  0  0
 59 61  1  0  0  0
 59 62  1  0  0  0
 60138  1  0  0  0
 60139  1  0  0  0
 60140  1  0  0  0
 61141  1  0  0  0
 61142  1  0  0  0
 61143  1  0  0  0
 62144  1  0  0  0
 62145  1  0  0  0
 62146  1  0  0  0
 63 65  1  0  0  0
 63147  1  0  0  0
 63148  1  0  0  0
 63149  1  0  0  0
 64150  1  0  0  0
 65151  1  0  0  0
 68 88  1  0  0  0
 71 72  2  0  0  0
 71 75  1  0  0  0
 71152  1  0  0  0
 72 73  1  0  0  0
 72 84  1  0  0  0
 73 74  2  0  0  0
 73 92  1  0  0  0
 74 90  1  0  0  0
 74 85  1  0  0  0
 75 87  1  0  0  0
 75 90  2  0  0  0
 76 77  1  0  0  0
 76 85  1  0  0  0
 76153  1  0  0  0
 76154  1  0  0  0
 77 85  1  0  0  0
 77155  1  0  0  0
 77156  1  0  0  0
 78 79  1  0  0  0
 78157  1  0  0  0
 78158  1  0  0  0
 78 86  1  0  0  0
 79 86  1  0  0  0
 79159  1  0  0  0
 79160  1  0  0  0
 80 82  1  0  0  0
 80 84  1  0  0  0
 80161  1  0  0  0
 80162  1  0  0  0
 81 83  1  0  0  0
 81 84  1  0  0  0
 81163  1  0  0  0
 81164  1  0  0  0
 82 91  1  0  0  0
 82165  1  0  0  0
 82166  1  0  0  0
 83 91  1  0  0  0
 83167  1  0  0  0
 83168  1  0  0  0
 84169  1  0  0  0
 85170  1  0  0  0
 86 89  1  0  0  0
 86171  1  0  0  0
 87172  1  0  0  0
 87173  1  0  0  0
 87174  1  0  0  0
 88175  1  0  0  0
 88176  1  0  0  0
 88 89  1  0  0  0
 89 92  1  0  0  0
 89177  1  0  0  0
 92178  1  0  0  0
M  ISO  4   1 100  68 101  88 101  91 100
M  END
> <chiral flag>
0

> <version>
0

> <s_m_source_file>
/data/baiqing/PycharmProjects/Reinvent-master-3.2/result/LINK_invent/BTK/process_docking_weight1_custom_sum_contain_oxygen_bond_distance_aromatic_linkinvent_7_9_3/rearranged_h_0148.sdf

> <i_m_source_file_index>
25

> <r_mmod_Potential_Energy-OPLS-2005>
619.635009765625

> <r_mmod_Stretch_Energy-OPLS-2005>
102.038497924805

> <r_mmod_Bend_Energy-OPLS-2005>
240.568664550781

> <r_mmod_Torsional_Energy-OPLS-2005>
655.057983398438

> <r_mmod_Improper_Torsional_Energy-OPLS-2005>
34.5152206420898

> <r_mmod_Van_der_Waal_Energy-OPLS-2005>
145.476089477539

> <r_mmod_Electrostatic_Energy-OPLS-2005>
-417.799957275391

> <r_mmod_Solvation_Energy-OPLS-2005>
-212.852813720703

> <b_mmod_Minimization_Converged-OPLS-2005>
0

> <r_mmod_RMS_Derivative-OPLS-2005>
11.2252216339111

$$$$
25
                    3D
 Structure written by MMmdl.
180191  0  0  1  0            999 V2000
  -30.4647  -15.0697   20.4573 C   0  0  0  0  0  0
  -30.4676  -12.6880   19.4853 C   0  0  0  0  0  0
  -29.5365  -12.5933   18.2513 C   0  0  0  0  0  0
  -28.0655  -12.3529   18.6529 C   0  0  0  0  0  0
  -27.6382  -13.2475   19.8465 C   0  0  2  0  0  0
  -28.6923  -13.1963   20.9702 C   0  0  0  0  0  0
  -25.2461  -13.8188   20.5608 C   0  0  0  0  0  0
  -24.1799  -13.0429   20.9242 C   0  0  0  0  0  0
  -24.6411  -11.6914   20.8766 C   0  0  0  0  0  0
  -23.9077  -10.4298   21.0404 C   0  0  0  0  0  0
  -24.3632   -9.4224   21.9171 C   0  0  0  0  0  0
  -23.6309   -8.2260   22.0747 C   0  0  0  0  0  0
  -22.4292   -8.0289   21.3544 C   0  0  0  0  0  0
  -21.9915   -9.0246   20.4645 C   0  0  0  0  0  0
  -22.7247  -10.2136   20.3047 C   0  0  0  0  0  0
  -21.6854   -6.0744   22.5282 C   0  0  0  0  0  0
  -21.4019   -6.5637   23.8231 C   0  0  0  0  0  0
  -21.3663   -5.6784   24.9169 C   0  0  0  0  0  0
  -21.6049   -4.3038   24.7216 C   0  0  0  0  0  0
  -21.8825   -3.8150   23.4319 C   0  0  0  0  0  0
  -21.9198   -4.6963   22.3395 C   0  0  0  0  0  0
  -22.7811  -13.5210   21.1860 C   0  0  0  0  0  0
  -22.1658   -4.2168   21.0954 F   0  0  0  0  0  0
  -21.5626   -3.4510   25.7711 F   0  0  0  0  0  0
  -29.9393  -13.7533   20.4027 N   0  0  0  0  0  0
  -26.2921  -12.9424   20.3234 N   0  0  0  0  0  0
  -25.9357  -11.6555   20.5785 N   0  0  0  0  0  0
  -22.0395  -12.8263   22.0407 N   0  0  0  0  0  0
  -25.4054  -15.1899   20.3860 N   0  0  0  0  0  0
  -31.6326  -15.1717   20.0641 O   0  0  0  0  0  0
  -21.6645   -6.8876   21.4256 O   0  0  0  0  0  0
  -22.3505  -14.5466   20.6615 O   0  0  0  0  0  0
  -24.6514  -31.8297   23.1764 C   0  0  0  0  0  0
  -25.9249  -32.4608   23.8175 C   0  0  1  0  0  0
  -27.2412  -27.0287   20.1455 C   0  0  0  0  0  0
  -25.5962  -33.8422   24.2087 N   0  0  0  0  0  0
  -23.4597  -30.4419   21.5244 C   0  0  2  0  0  0
  -24.9166  -28.8426   20.1131 C   0  0  0  0  0  0
  -22.7582  -29.4461   22.4821 C   0  0  0  0  0  0
  -18.0293  -28.1388   22.8478 C   0  0  0  0  0  0
  -24.1495  -36.7220   23.2638 C   0  0  0  0  0  0
  -26.0254  -30.6636   21.3949 C   0  0  0  0  0  0
  -26.0965  -29.2629   20.7370 C   0  0  0  0  0  0
  -27.2538  -28.3764   20.7325 C   0  0  0  0  0  0
  -26.0277  -26.7347   19.4817 C   0  0  0  0  0  0
  -24.9003  -27.5934   19.4712 C   0  0  0  0  0  0
  -23.6952  -29.7530   20.1503 C   0  0  0  0  0  0
  -25.4146  -36.2972   24.0284 C   0  0  1  0  0  0
  -20.5930  -28.3734   23.1220 C   0  0  2  0  0  0
  -20.6783  -26.9422   22.5416 C   0  0  0  0  0  0
  -19.5773  -26.6363   21.5214 C   0  0  0  0  0  0
  -18.1949  -26.7921   22.1615 C   0  0  0  0  0  0
  -19.1564  -28.8881   23.2838 C   0  0  0  0  0  0
  -18.9475  -30.1470   23.8864 C   0  0  0  0  0  0
  -17.6476  -30.6598   24.0548 C   0  0  0  0  0  0
  -25.9103  -34.9351   23.5001 C   0  0  0  0  0  0
  -16.5360  -29.9081   23.6339 C   0  0  0  0  0  0
  -16.7282  -28.6495   23.0378 C   0  0  0  0  0  0
  -26.4551  -31.6512   25.0655 C   0  0  0  0  0  0
  -25.3692  -31.3773   26.1331 C   0  0  0  0  0  0
  -27.0445  -30.2864   24.6351 C   0  0  0  0  0  0
  -27.6041  -32.4308   25.7477 C   0  0  0  0  0  0
  -27.5587  -37.1767   24.8451 C   0  0  0  0  0  0
  -21.4274  -29.3032   22.3574 N   0  0  0  0  0  0
  -26.4292  -37.3710   23.9385 N   0  0  0  0  0  0
  -24.7330  -31.0029   22.0846 N   0  0  0  0  0  0
  -23.4180  -28.8014   23.3020 O   0  0  0  0  0  0
  -28.3105  -26.0187   20.1829 O   0  0  0  0  0  0
  -26.5709  -34.8871   22.4590 O   0  0  0  0  0  0
  -23.5618  -32.1259   23.6915 O   0  0  0  0  0  0
  -28.2507  -19.3976   23.8245 C   0  0  0  0  0  0
  -26.4790  -18.2403   22.6172 C   0  0  0  0  0  0
  -25.9139  -19.9438   24.2705 C   0  0  0  0  0  0
  -27.8530  -18.4509   22.8593 C   0  0  0  0  0  0
  -27.2858  -20.1506   24.5239 C   0  0  0  0  0  0
  -25.5088  -18.9756   23.3288 C   0  0  0  0  0  0
  -32.1380  -19.6741   18.8319 C   0  0  0  0  0  0
  -32.0244  -18.2071   19.1546 C   0  0  0  0  0  0
  -28.3340  -21.7590   21.1528 C   0  0  0  0  0  0
  -29.8373  -22.1130   19.3082 C   0  0  0  0  0  0
  -28.4396  -23.4147   21.2816 C   0  0  0  0  0  0
  -29.1536  -23.5916   18.9951 C   0  0  0  0  0  0
  -28.7155  -16.1570   21.8919 C   0  0  0  0  0  0
  -28.9061  -17.6514   22.1133 C   0  0  1  0  0  0
  -30.7720  -19.0450   19.0108 C   0  0  0  0  0  0
  -29.0702  -20.8803   20.0054 C   0  0  1  0  0  0
  -28.2141  -24.4108   20.0365 C   0  0  2  0  0  0
  -29.1666  -17.8123   20.6205 C   0  0  1  0  0  0
  -27.7238  -21.1834   25.5408 C   0  0  0  0  0  0
  -24.0374  -18.7144   23.0870 C   0  0  0  0  0  0
  -29.8895  -19.3230   20.2240 C   0  0  1  0  0  0
  -29.6324  -16.2301   20.7479 N   0  0  0  0  0  0
  -31.4822  -12.9136   19.1524 H   0  0  0  0  0  0
  -30.5432  -11.7215   19.9877 H   0  0  0  0  0  0
  -29.8794  -11.8071   17.5780 H   0  0  0  0  0  0
  -29.6026  -13.5282   17.6919 H   0  0  0  0  0  0
  -27.9502  -11.3028   18.9241 H   0  0  0  0  0  0
  -27.4101  -12.5246   17.7961 H   0  0  0  0  0  0
  -27.6137  -14.2715   19.4727 H   0  0  0  0  0  0
  -28.8353  -12.1642   21.2931 H   0  0  0  0  0  0
  -28.3512  -13.7039   21.8653 H   0  0  0  0  0  0
  -25.2781   -9.5703   22.4716 H   0  0  0  0  0  0
  -24.0030   -7.4649   22.7444 H   0  0  0  0  0  0
  -21.0856   -8.8767   19.8929 H   0  0  0  0  0  0
  -22.3712  -10.9662   19.6140 H   0  0  0  0  0  0
  -21.2002   -7.6143   23.9744 H   0  0  0  0  0  0
  -21.1484   -6.0490   25.9090 H   0  0  0  0  0  0
  -22.0600   -2.7608   23.2818 H   0  0  0  0  0  0
  -22.4007  -12.0021   22.4990 H   0  0  0  0  0  0
  -21.0965  -13.1303   22.2444 H   0  0  0  0  0  0
  -24.6151  -15.8205   20.4531 H   0  0  0  0  0  0
  -26.2240  -15.6152   19.9717 H   0  0  0  0  0  0
  -26.7295  -32.5166   23.0887 H   0  0  0  0  0  0
  -25.0059  -33.9519   25.0204 H   0  0  0  0  0  0
  -22.7674  -31.2696   21.3545 H   0  0  0  0  0  0
  -23.3775  -35.9533   23.3247 H   0  0  0  0  0  0
  -24.3558  -36.8911   22.2056 H   0  0  0  0  0  0
  -23.7248  -37.6380   23.6742 H   0  0  0  0  0  0
  -26.1961  -31.4107   20.6194 H   0  0  0  0  0  0
  -26.8869  -30.7148   22.0458 H   0  0  0  0  0  0
  -28.1525  -28.6981   21.2406 H   0  0  0  0  0  0
  -25.9190  -25.7910   18.9672 H   0  0  0  0  0  0
  -24.0055  -27.2633   18.9605 H   0  0  0  0  0  0
  -23.8306  -30.5167   19.3841 H   0  0  0  0  0  0
  -22.8053  -29.1913   19.8526 H   0  0  0  0  0  0
  -25.1357  -36.1753   25.0782 H   0  0  0  0  0  0
  -21.0041  -28.3318   24.1330 H   0  0  0  0  0  0
  -20.5634  -26.2356   23.3656 H   0  0  0  0  0  0
  -21.6654  -26.7385   22.1232 H   0  0  0  0  0  0
  -19.6938  -25.6256   21.1269 H   0  0  0  0  0  0
  -19.6708  -27.3145   20.6727 H   0  0  0  0  0  0
  -17.4228  -26.6663   21.3996 H   0  0  0  0  0  0
  -18.0330  -26.0052   22.9010 H   0  0  0  0  0  0
  -19.7960  -30.7288   24.2205 H   0  0  0  0  0  0
  -17.5041  -31.6272   24.5151 H   0  0  0  0  0  0
  -15.5374  -30.2989   23.7686 H   0  0  0  0  0  0
  -15.8675  -28.0797   22.7157 H   0  0  0  0  0  0
  -24.5865  -30.7137   25.7647 H   0  0  0  0  0  0
  -24.8921  -32.2990   26.4647 H   0  0  0  0  0  0
  -25.7935  -30.9006   27.0176 H   0  0  0  0  0  0
  -26.3126  -29.6513   24.1364 H   0  0  0  0  0  0
  -27.3990  -29.7238   25.4990 H   0  0  0  0  0  0
  -27.9024  -30.4009   23.9737 H   0  0  0  0  0  0
  -27.2597  -33.3637   26.1962 H   0  0  0  0  0  0
  -28.3941  -32.6810   25.0382 H   0  0  0  0  0  0
  -28.0605  -31.8481   26.5483 H   0  0  0  0  0  0
  -28.2584  -38.0086   24.7528 H   0  0  0  0  0  0
  -28.1109  -36.2613   24.6271 H   0  0  0  0  0  0
  -27.2280  -37.1392   25.8844 H   0  0  0  0  0  0
  -20.9508  -29.8715   21.6721 H   0  0  0  0  0  0
  -26.0120  -38.2748   24.1434 H   0  0  0  0  0  0
  -29.3055  -19.5648   24.0106 H   0  0  0  0  0  0
  -26.1598  -17.5020   21.8946 H   0  0  0  0  0  0
  -25.1718  -20.5251   24.8033 H   0  0  0  0  0  0
  -32.4745  -19.9265   17.8279 H   0  0  0  0  0  0
  -32.5062  -20.3267   19.6201 H   0  0  0  0  0  0
  -32.3247  -17.8975   20.1570 H   0  0  0  0  0  0
  -32.2506  -17.4923   18.3633 H   0  0  0  0  0  0
  -27.2722  -21.5050   21.1167 H   0  0  0  0  0  0
  -28.6701  -21.3656   22.1074 H   0  0  0  0  0  0
  -30.7224  -22.2958   19.9183 H   0  0  0  0  0  0
  -30.2412  -21.7458   18.3638 H   0  0  0  0  0  0
  -27.7779  -23.7332   22.0866 H   0  0  0  0  0  0
  -29.4384  -23.6337   21.6651 H   0  0  0  0  0  0
  -28.6150  -23.5034   18.0511 H   0  0  0  0  0  0
  -29.9948  -24.2468   18.7590 H   0  0  0  0  0  0
  -27.6999  -15.8761   21.6150 H   0  0  0  0  0  0
  -29.0643  -15.5804   22.7504 H   0  0  0  0  0  0
  -29.8507  -17.7996   22.6443 H   0  0  0  0  0  0
  -30.2047  -18.8805   18.0947 H   0  0  0  0  0  0
  -28.2779  -20.6305   19.2982 H   0  0  0  0  0  0
  -27.1932  -24.2147   19.7090 H   0  0  0  0  0  0
  -28.2142  -17.7986   20.0893 H   0  0  0  0  0  0
  -28.7457  -20.9917   25.8690 H   0  0  0  0  0  0
  -27.0800  -21.1599   26.4213 H   0  0  0  0  0  0
  -27.6885  -22.1822   25.1044 H   0  0  0  0  0  0
  -23.8781  -17.6777   22.7800 H   0  0  0  0  0  0
  -23.6613  -19.3642   22.2971 H   0  0  0  0  0  0
  -23.4551  -18.8937   23.9921 H   0  0  0  0  0  0
  -30.5799  -19.5360   21.0417 H   0  0  0  0  0  0
  1 25  1  0  0  0
  1 30  2  0  0  0
  1 92  1  0  0  0
  2  3  1  0  0  0
  2 25  1  0  0  0
  2 93  1  0  0  0
  2 94  1  0  0  0
  3  4  1  0  0  0
  3 95  1  0  0  0
  3 96  1  0  0  0
  4  5  1  0  0  0
  4 97  1  0  0  0
  4 98  1  0  0  0
  5  6  1  0  0  0
  5 26  1  0  0  0
  5 99  1  0  0  0
  6 25  1  0  0  0
  6100  1  0  0  0
  6101  1  0  0  0
  7  8  2  0  0  0
  7 26  1  0  0  0
  7 29  1  0  0  0
  8  9  1  0  0  0
  8 22  1  0  0  0
  9 10  1  0  0  0
  9 27  2  0  0  0
 10 11  2  0  0  0
 10 15  1  0  0  0
 11 12  1  0  0  0
 11102  1  0  0  0
 12 13  2  0  0  0
 12103  1  0  0  0
 13 14  1  0  0  0
 13 31  1  0  0  0
 14 15  2  0  0  0
 14104  1  0  0  0
 15105  1  0  0  0
 16 17  2  0  0  0
 16 21  1  0  0  0
 16 31  1  0  0  0
 17 18  1  0  0  0
 17106  1  0  0  0
 18 19  2  0  0  0
 18107  1  0  0  0
 19 20  1  0  0  0
 19 24  1  0  0  0
 20 21  2  0  0  0
 20108  1  0  0  0
 21 23  1  0  0  0
 22 28  1  0  0  0
 22 32  2  0  0  0
 26 27  1  0  0  0
 28109  1  0  0  0
 28110  1  0  0  0
 29111  1  0  0  0
 29112  1  0  0  0
 33 34  1  0  0  0
 33 66  1  0  0  0
 33 70  2  0  0  0
 34 36  1  0  0  0
 34 59  1  0  0  0
 34113  1  0  0  0
 35 44  2  0  0  0
 35 45  1  0  0  0
 35 68  1  0  0  0
 36 56  1  0  0  0
 36114  1  0  0  0
 37 39  1  0  0  0
 37 47  1  0  0  0
 37 66  1  0  0  0
 37115  1  0  0  0
 38 43  2  0  0  0
 38 46  1  0  0  0
 38 47  1  0  0  0
 39 64  1  0  0  0
 39 67  2  0  0  0
 40 52  1  0  0  0
 40 53  2  0  0  0
 40 58  1  0  0  0
 41116  1  0  0  0
 41117  1  0  0  0
 41118  1  0  0  0
 41 48  1  0  0  0
 42 43  1  0  0  0
 42 66  1  0  0  0
 42119  1  0  0  0
 42120  1  0  0  0
 43 44  1  0  0  0
 44121  1  0  0  0
 45 46  2  0  0  0
 45122  1  0  0  0
 46123  1  0  0  0
 47124  1  0  0  0
 47125  1  0  0  0
 48 56  1  0  0  0
 48 65  1  0  0  0
 48126  1  0  0  0
 49 50  1  0  0  0
 49 53  1  0  0  0
 49 64  1  0  0  0
 49127  1  0  0  0
 50 51  1  0  0  0
 50128  1  0  0  0
 50129  1  0  0  0
 51 52  1  0  0  0
 51130  1  0  0  0
 51131  1  0  0  0
 52132  1  0  0  0
 52133  1  0  0  0
 53 54  1  0  0  0
 54 55  2  0  0  0
 54134  1  0  0  0
 55 57  1  0  0  0
 55135  1  0  0  0
 56 69  2  0  0  0
 57 58  2  0  0  0
 57136  1  0  0  0
 58137  1  0  0  0
 59 60  1  0  0  0
 59 61  1  0  0  0
 59 62  1  0  0  0
 60138  1  0  0  0
 60139  1  0  0  0
 60140  1  0  0  0
 61141  1  0  0  0
 61142  1  0  0  0
 61143  1  0  0  0
 62144  1  0  0  0
 62145  1  0  0  0
 62146  1  0  0  0
 63 65  1  0  0  0
 63147  1  0  0  0
 63148  1  0  0  0
 63149  1  0  0  0
 64150  1  0  0  0
 65151  1  0  0  0
 68 87  1  0  0  0
 71 74  2  0  0  0
 71 75  1  0  0  0
 71152  1  0  0  0
 72 74  1  0  0  0
 72 76  2  0  0  0
 72153  1  0  0  0
 73 75  2  0  0  0
 73 76  1  0  0  0
 73154  1  0  0  0
 74 84  1  0  0  0
 75 89  1  0  0  0
 76 90  1  0  0  0
 77 78  1  0  0  0
 77155  1  0  0  0
 77156  1  0  0  0
 77 85  1  0  0  0
 78 85  1  0  0  0
 78157  1  0  0  0
 78158  1  0  0  0
 79 81  1  0  0  0
 79159  1  0  0  0
 79160  1  0  0  0
 79 86  1  0  0  0
 80 82  1  0  0  0
 80 86  1  0  0  0
 80161  1  0  0  0
 80162  1  0  0  0
 81 87  1  0  0  0
 81163  1  0  0  0
 81164  1  0  0  0
 82 87  1  0  0  0
 82165  1  0  0  0
 82166  1  0  0  0
 83 84  1  0  0  0
 83 92  1  0  0  0
 83167  1  0  0  0
 83168  1  0  0  0
 84 88  1  0  0  0
 84169  1  0  0  0
 85170  1  0  0  0
 85 91  1  0  0  0
 86 91  1  0  0  0
 86171  1  0  0  0
 87172  1  0  0  0
 88 91  1  0  0  0
 88 92  1  0  0  0
 88173  1  0  0  0
 89174  1  0  0  0
 89175  1  0  0  0
 89176  1  0  0  0
 90177  1  0  0  0
 90178  1  0  0  0
 90179  1  0  0  0
 91180  1  0  0  0
M  ISO  4   1 100  68 101  87 101  92 100
M  END
> <chiral flag>
0

> <version>
0

> <s_m_source_file>
/data/baiqing/PycharmProjects/Reinvent-master-3.2/result/LINK_invent/BTK/process_docking_weight1_custom_sum_contain_oxygen_bond_distance_aromatic_linkinvent_7_9_3/rearranged_h_0148.sdf

> <i_m_source_file_index>
26

> <r_mmod_Potential_Energy-OPLS-2005>
1193.359375

> <r_mmod_Stretch_Energy-OPLS-2005>
426.865264892578

> <r_mmod_Bend_Energy-OPLS-2005>
502.010559082031

> <r_mmod_Torsional_Energy-OPLS-2005>
375.869720458984

> <r_mmod_Improper_Torsional_Energy-OPLS-2005>
5.34838008880615

> <r_mmod_Van_der_Waal_Energy-OPLS-2005>
120.253753662109

> <r_mmod_Electrostatic_Energy-OPLS-2005>
-327.689575195312

> <r_mmod_Solvation_Energy-OPLS-2005>
-187.367645263672

> <b_mmod_Minimization_Converged-OPLS-2005>
0

> <r_mmod_RMS_Derivative-OPLS-2005>
5.03133201599121

$$$$
26
                    3D
 Structure written by MMmdl.
163172  0  0  1  0            999 V2000
  -30.6435  -14.5808   20.4982 C   0  0  0  0  0  0
  -30.4274  -12.3530   19.4466 C   0  0  0  0  0  0
  -29.5022  -12.4995   18.2196 C   0  0  0  0  0  0
  -28.0226  -12.3544   18.6272 C   0  0  0  0  0  0
  -27.6537  -13.2131   19.8666 C   0  0  2  0  0  0
  -28.6966  -13.0495   20.9948 C   0  0  0  0  0  0
  -25.2561  -13.8165   20.5664 C   0  0  0  0  0  0
  -24.1822  -13.0442   20.9179 C   0  0  0  0  0  0
  -24.6383  -11.6909   20.8735 C   0  0  0  0  0  0
  -23.9052  -10.4292   21.0401 C   0  0  0  0  0  0
  -24.3603   -9.4209   21.9177 C   0  0  0  0  0  0
  -23.6286   -8.2244   22.0751 C   0  0  0  0  0  0
  -22.4271   -8.0273   21.3543 C   0  0  0  0  0  0
  -21.9900   -9.0242   20.4640 C   0  0  0  0  0  0
  -22.7225  -10.2126   20.3046 C   0  0  0  0  0  0
  -21.6851   -6.0722   22.5274 C   0  0  0  0  0  0
  -21.4014   -6.5639   23.8204 C   0  0  0  0  0  0
  -21.3662   -5.6790   24.9171 C   0  0  0  0  0  0
  -21.6043   -4.3053   24.7220 C   0  0  0  0  0  0
  -21.8822   -3.8143   23.4351 C   0  0  0  0  0  0
  -21.9196   -4.6950   22.3408 C   0  0  0  0  0  0
  -22.7846  -13.5234   21.1850 C   0  0  0  0  0  0
  -22.1662   -4.2131   21.0985 F   0  0  0  0  0  0
  -21.5629   -3.4545   25.7742 F   0  0  0  0  0  0
  -30.0155  -13.3694   20.4307 N   0  0  0  0  0  0
  -26.2988  -12.9336   20.3333 N   0  0  0  0  0  0
  -25.9311  -11.6502   20.5767 N   0  0  0  0  0  0
  -22.0492  -12.8214   22.0405 N   0  0  0  0  0  0
  -25.4306  -15.1878   20.4026 N   0  0  0  0  0  0
  -31.8065  -14.7336   20.1151 O   0  0  0  0  0  0
  -21.6648   -6.8864   21.4238 O   0  0  0  0  0  0
  -22.3524  -14.5542   20.6706 O   0  0  0  0  0  0
  -24.6226  -31.8616   23.2049 C   0  0  0  0  0  0
  -25.9103  -32.4792   23.8369 C   0  0  1  0  0  0
  -27.2260  -27.3735   20.1195 C   0  0  0  0  0  0
  -25.5944  -33.8584   24.2310 N   0  0  0  0  0  0
  -23.4127  -30.4892   21.5431 C   0  0  2  0  0  0
  -24.8599  -28.9422   20.1148 C   0  0  0  0  0  0
  -22.7457  -29.4654   22.4920 C   0  0  0  0  0  0
  -18.0289  -28.1406   22.8471 C   0  0  0  0  0  0
  -24.1479  -36.7299   23.2644 C   0  0  0  0  0  0
  -25.9449  -30.8152   21.3616 C   0  0  0  0  0  0
  -26.0230  -29.4430   20.7112 C   0  0  0  0  0  0
  -27.2143  -28.6699   20.7014 C   0  0  0  0  0  0
  -26.0452  -26.8962   19.5186 C   0  0  0  0  0  0
  -24.8675  -27.6700   19.5145 C   0  0  0  0  0  0
  -23.6279  -29.8214   20.1585 C   0  0  0  0  0  0
  -25.4085  -36.3080   24.0354 C   0  0  1  0  0  0
  -20.5879  -28.3690   23.1285 C   0  0  2  0  0  0
  -20.6778  -26.9410   22.5415 C   0  0  0  0  0  0
  -19.5755  -26.6378   21.5221 C   0  0  0  0  0  0
  -18.1924  -26.7946   22.1612 C   0  0  0  0  0  0
  -19.1542  -28.8849   23.2883 C   0  0  0  0  0  0
  -18.9478  -30.1448   23.8905 C   0  0  0  0  0  0
  -17.6484  -30.6601   24.0558 C   0  0  0  0  0  0
  -25.9035  -34.9462   23.5114 C   0  0  0  0  0  0
  -16.5367  -29.9110   23.6340 C   0  0  0  0  0  0
  -16.7274  -28.6537   23.0332 C   0  0  0  0  0  0
  -26.4508  -31.6587   25.0724 C   0  0  0  0  0  0
  -25.3777  -31.3715   26.1486 C   0  0  0  0  0  0
  -27.0358  -30.3035   24.6104 C   0  0  0  0  0  0
  -27.6052  -32.4327   25.7519 C   0  0  0  0  0  0
  -27.5551  -37.1796   24.8462 C   0  0  0  0  0  0
  -21.4171  -29.3066   22.3680 N   0  0  0  0  0  0
  -26.4253  -37.3775   23.9424 N   0  0  0  0  0  0
  -24.6789  -31.0696   22.0960 N   0  0  0  0  0  0
  -23.4219  -28.8191   23.2965 O   0  0  0  0  0  0
  -28.3701  -26.5901   20.0907 O   0  0  0  0  0  0
  -26.5570  -34.8928   22.4662 O   0  0  0  0  0  0
  -23.5409  -32.1366   23.7433 O   0  0  0  0  0  0
  -29.7655  -19.1466   19.0240 C   0  0  0  0  0  0
  -30.1559  -19.4878   21.5701 C   0  0  0  0  0  0
  -29.3798  -17.6758   19.3515 C   0  0  0  0  0  0
  -29.7251  -18.0016   21.7595 C   0  0  0  0  0  0
  -29.7552  -25.0678   21.0951 C   0  0  0  0  0  0
  -29.8174  -20.1720   20.2050 C   0  0  2  0  0  0
  -29.0351  -24.0025   20.3013 C   0  0  2  0  0  0
  -30.1340  -17.0999   20.5714 C   0  0  1  0  0  0
  -28.3094  -25.3090   20.7813 C   0  0  1  0  0  0
  -27.3368  -20.7466   20.5982 C   0  0  0  0  0  0
  -29.0616  -22.6111   21.0121 C   0  0  0  0  0  0
  -28.7099  -21.3065   20.1916 C   0  0  1  0  0  0
  -29.8506  -15.6483   20.7922 N   0  0  0  0  0  0
  -31.4726  -12.4606   19.1489 H   0  0  0  0  0  0
  -30.3415  -11.3544   19.8773 H   0  0  0  0  0  0
  -29.7563  -11.7553   17.4630 H   0  0  0  0  0  0
  -29.6587  -13.4744   17.7543 H   0  0  0  0  0  0
  -27.8393  -11.3004   18.8390 H   0  0  0  0  0  0
  -27.3743  -12.6104   17.7876 H   0  0  0  0  0  0
  -27.6785  -14.2526   19.5381 H   0  0  0  0  0  0
  -28.6936  -12.0273   21.3765 H   0  0  0  0  0  0
  -28.4568  -13.6863   21.8479 H   0  0  0  0  0  0
  -25.2741   -9.5694   22.4752 H   0  0  0  0  0  0
  -23.9999   -7.4634   22.7465 H   0  0  0  0  0  0
  -21.0833   -8.8752   19.8932 H   0  0  0  0  0  0
  -22.3678  -10.9661   19.6150 H   0  0  0  0  0  0
  -21.2009   -7.6140   23.9701 H   0  0  0  0  0  0
  -21.1478   -6.0525   25.9070 H   0  0  0  0  0  0
  -22.0601   -2.7597   23.2863 H   0  0  0  0  0  0
  -22.4134  -11.9883   22.4785 H   0  0  0  0  0  0
  -21.1096  -13.1207   22.2596 H   0  0  0  0  0  0
  -24.6654  -15.8469   20.4961 H   0  0  0  0  0  0
  -26.2782  -15.6161   20.0529 H   0  0  0  0  0  0
  -26.7160  -32.5474   23.1107 H   0  0  0  0  0  0
  -25.0170  -33.9720   25.0508 H   0  0  0  0  0  0
  -22.7054  -31.3084   21.3976 H   0  0  0  0  0  0
  -23.3743  -35.9629   23.3299 H   0  0  0  0  0  0
  -24.3571  -36.8925   22.2060 H   0  0  0  0  0  0
  -23.7267  -37.6516   23.6656 H   0  0  0  0  0  0
  -26.0586  -31.5801   20.5928 H   0  0  0  0  0  0
  -26.8312  -30.8749   21.9803 H   0  0  0  0  0  0
  -28.1167  -29.0558   21.1523 H   0  0  0  0  0  0
  -26.0397  -25.9234   19.0455 H   0  0  0  0  0  0
  -23.9715  -27.2827   19.0518 H   0  0  0  0  0  0
  -23.7518  -30.5971   19.4023 H   0  0  0  0  0  0
  -22.7476  -29.2562   19.8500 H   0  0  0  0  0  0
  -25.1265  -36.1919   25.0854 H   0  0  0  0  0  0
  -20.9956  -28.3253   24.1410 H   0  0  0  0  0  0
  -20.5688  -26.2284   23.3610 H   0  0  0  0  0  0
  -21.6640  -26.7442   22.1187 H   0  0  0  0  0  0
  -19.6916  -25.6291   21.1247 H   0  0  0  0  0  0
  -19.6710  -27.3185   20.6751 H   0  0  0  0  0  0
  -17.4194  -26.6707   21.4012 H   0  0  0  0  0  0
  -18.0287  -26.0105   22.9014 H   0  0  0  0  0  0
  -19.7967  -30.7240   24.2282 H   0  0  0  0  0  0
  -17.5065  -31.6292   24.5148 H   0  0  0  0  0  0
  -15.5375  -30.3019   23.7674 H   0  0  0  0  0  0
  -15.8673  -28.0877   22.7019 H   0  0  0  0  0  0
  -24.5954  -30.7044   25.7841 H   0  0  0  0  0  0
  -24.8973  -32.2887   26.4905 H   0  0  0  0  0  0
  -25.8160  -30.8921   27.0255 H   0  0  0  0  0  0
  -26.2901  -29.6793   24.1160 H   0  0  0  0  0  0
  -27.4160  -29.7279   25.4553 H   0  0  0  0  0  0
  -27.8716  -30.4371   23.9239 H   0  0  0  0  0  0
  -27.2641  -33.3628   26.2075 H   0  0  0  0  0  0
  -28.3902  -32.6893   25.0398 H   0  0  0  0  0  0
  -28.0676  -31.8483   26.5480 H   0  0  0  0  0  0
  -28.2547  -38.0102   24.7488 H   0  0  0  0  0  0
  -28.1083  -36.2635   24.6303 H   0  0  0  0  0  0
  -27.2283  -37.1475   25.8871 H   0  0  0  0  0  0
  -20.9325  -29.8856   21.6960 H   0  0  0  0  0  0
  -26.0148  -38.2849   24.1458 H   0  0  0  0  0  0
  -29.1115  -19.5206   18.2346 H   0  0  0  0  0  0
  -30.7567  -19.1163   18.5667 H   0  0  0  0  0  0
  -31.2408  -19.5107   21.6849 H   0  0  0  0  0  0
  -29.7772  -20.0902   22.3959 H   0  0  0  0  0  0
  -29.5795  -17.0595   18.4739 H   0  0  0  0  0  0
  -28.3030  -17.6156   19.5191 H   0  0  0  0  0  0
  -28.6456  -17.9561   21.9111 H   0  0  0  0  0  0
  -30.1736  -17.6225   22.6784 H   0  0  0  0  0  0
  -30.5086  -25.6435   20.5606 H   0  0  0  0  0  0
  -29.9915  -24.8727   22.1397 H   0  0  0  0  0  0
  -30.7162  -20.7509   19.9771 H   0  0  0  0  0  0
  -29.2766  -23.9578   19.2400 H   0  0  0  0  0  0
  -31.2072  -17.2165   20.4070 H   0  0  0  0  0  0
  -27.6095  -25.2728   21.6147 H   0  0  0  0  0  0
  -27.0333  -19.9232   19.9513 H   0  0  0  0  0  0
  -26.5663  -21.5154   20.5330 H   0  0  0  0  0  0
  -27.3458  -20.3773   21.6249 H   0  0  0  0  0  0
  -28.4307  -22.6743   21.8991 H   0  0  0  0  0  0
  -30.0703  -22.4887   21.4102 H   0  0  0  0  0  0
  -28.6119  -21.6261   19.1537 H   0  0  0  0  0  0
  -28.9094  -15.4166   21.0727 H   0  0  0  0  0  0
  1 25  1  0  0  0
  1 30  2  0  0  0
  1 83  1  0  0  0
  2  3  1  0  0  0
  2 25  1  0  0  0
  2 84  1  0  0  0
  2 85  1  0  0  0
  3  4  1  0  0  0
  3 86  1  0  0  0
  3 87  1  0  0  0
  4  5  1  0  0  0
  4 88  1  0  0  0
  4 89  1  0  0  0
  5  6  1  0  0  0
  5 26  1  0  0  0
  5 90  1  0  0  0
  6 25  1  0  0  0
  6 91  1  0  0  0
  6 92  1  0  0  0
  7  8  2  0  0  0
  7 26  1  0  0  0
  7 29  1  0  0  0
  8  9  1  0  0  0
  8 22  1  0  0  0
  9 10  1  0  0  0
  9 27  2  0  0  0
 10 11  2  0  0  0
 10 15  1  0  0  0
 11 12  1  0  0  0
 11 93  1  0  0  0
 12 13  2  0  0  0
 12 94  1  0  0  0
 13 14  1  0  0  0
 13 31  1  0  0  0
 14 15  2  0  0  0
 14 95  1  0  0  0
 15 96  1  0  0  0
 16 17  2  0  0  0
 16 21  1  0  0  0
 16 31  1  0  0  0
 17 18  1  0  0  0
 17 97  1  0  0  0
 18 19  2  0  0  0
 18 98  1  0  0  0
 19 20  1  0  0  0
 19 24  1  0  0  0
 20 21  2  0  0  0
 20 99  1  0  0  0
 21 23  1  0  0  0
 22 28  1  0  0  0
 22 32  2  0  0  0
 26 27  1  0  0  0
 28100  1  0  0  0
 28101  1  0  0  0
 29102  1  0  0  0
 29103  1  0  0  0
 33 34  1  0  0  0
 33 66  1  0  0  0
 33 70  2  0  0  0
 34 36  1  0  0  0
 34 59  1  0  0  0
 34104  1  0  0  0
 35 44  2  0  0  0
 35 45  1  0  0  0
 35 68  1  0  0  0
 36 56  1  0  0  0
 36105  1  0  0  0
 37 39  1  0  0  0
 37 47  1  0  0  0
 37 66  1  0  0  0
 37106  1  0  0  0
 38 43  2  0  0  0
 38 46  1  0  0  0
 38 47  1  0  0  0
 39 64  1  0  0  0
 39 67  2  0  0  0
 40 52  1  0  0  0
 40 53  2  0  0  0
 40 58  1  0  0  0
 41107  1  0  0  0
 41108  1  0  0  0
 41109  1  0  0  0
 41 48  1  0  0  0
 42 43  1  0  0  0
 42 66  1  0  0  0
 42110  1  0  0  0
 42111  1  0  0  0
 43 44  1  0  0  0
 44112  1  0  0  0
 45 46  2  0  0  0
 45113  1  0  0  0
 46114  1  0  0  0
 47115  1  0  0  0
 47116  1  0  0  0
 48 56  1  0  0  0
 48 65  1  0  0  0
 48117  1  0  0  0
 49 50  1  0  0  0
 49 53  1  0  0  0
 49 64  1  0  0  0
 49118  1  0  0  0
 50 51  1  0  0  0
 50119  1  0  0  0
 50120  1  0  0  0
 51 52  1  0  0  0
 51121  1  0  0  0
 51122  1  0  0  0
 52123  1  0  0  0
 52124  1  0  0  0
 53 54  1  0  0  0
 54 55  2  0  0  0
 54125  1  0  0  0
 55 57  1  0  0  0
 55126  1  0  0  0
 56 69  2  0  0  0
 57 58  2  0  0  0
 57127  1  0  0  0
 58128  1  0  0  0
 59 60  1  0  0  0
 59 61  1  0  0  0
 59 62  1  0  0  0
 60129  1  0  0  0
 60130  1  0  0  0
 60131  1  0  0  0
 61132  1  0  0  0
 61133  1  0  0  0
 61134  1  0  0  0
 62135  1  0  0  0
 62136  1  0  0  0
 62137  1  0  0  0
 63 65  1  0  0  0
 63138  1  0  0  0
 63139  1  0  0  0
 63140  1  0  0  0
 64141  1  0  0  0
 65142  1  0  0  0
 68 79  1  0  0  0
 71 73  1  0  0  0
 71143  1  0  0  0
 71144  1  0  0  0
 71 76  1  0  0  0
 72 74  1  0  0  0
 72 76  1  0  0  0
 72145  1  0  0  0
 72146  1  0  0  0
 73 78  1  0  0  0
 73147  1  0  0  0
 73148  1  0  0  0
 74 78  1  0  0  0
 74149  1  0  0  0
 74150  1  0  0  0
 75 77  1  0  0  0
 75 79  1  0  0  0
 75151  1  0  0  0
 75152  1  0  0  0
 76 82  1  0  0  0
 76153  1  0  0  0
 77 79  1  0  0  0
 77 81  1  0  0  0
 77154  1  0  0  0
 78 83  1  0  0  0
 78155  1  0  0  0
 79156  1  0  0  0
 80157  1  0  0  0
 80158  1  0  0  0
 80159  1  0  0  0
 80 82  1  0  0  0
 81 82  1  0  0  0
 81160  1  0  0  0
 81161  1  0  0  0
 82162  1  0  0  0
 83163  1  0  0  0
M  ISO  4   1 100  68 101  79 101  83 100
M  END
> <chiral flag>
0

> <version>
0

> <s_m_source_file>
/data/baiqing/PycharmProjects/Reinvent-master-3.2/result/LINK_invent/BTK/process_docking_weight1_custom_sum_contain_oxygen_bond_distance_aromatic_linkinvent_7_9_3/rearranged_h_0148.sdf

> <i_m_source_file_index>
27

> <r_mmod_Potential_Energy-OPLS-2005>
116.112937927246

> <r_mmod_Stretch_Energy-OPLS-2005>
58.8279037475586

> <r_mmod_Bend_Energy-OPLS-2005>
152.531829833984

> <r_mmod_Torsional_Energy-OPLS-2005>
324.762481689453

> <r_mmod_Improper_Torsional_Energy-OPLS-2005>
5.42075347900391

> <r_mmod_Van_der_Waal_Energy-OPLS-2005>
120.966758728027

> <r_mmod_Electrostatic_Energy-OPLS-2005>
-382.681518554688

> <r_mmod_Solvation_Energy-OPLS-2005>
-192.645156860352

> <b_mmod_Minimization_Converged-OPLS-2005>
0

> <r_mmod_RMS_Derivative-OPLS-2005>
2.54796838760376

$$$$
27
                    3D
 Structure written by MMmdl.
170179  0  0  1  0            999 V2000
  -30.7261  -14.4743   20.6426 C   0  0  0  0  0  0
  -30.4223  -12.3361   19.4215 C   0  0  0  0  0  0
  -29.4897  -12.5181   18.2063 C   0  0  0  0  0  0
  -28.0144  -12.3444   18.6171 C   0  0  0  0  0  0
  -27.6594  -13.1797   19.8712 C   0  0  2  0  0  0
  -28.7043  -12.9403   20.9924 C   0  0  0  0  0  0
  -25.2595  -13.8100   20.5639 C   0  0  0  0  0  0
  -24.1832  -13.0419   20.9176 C   0  0  0  0  0  0
  -24.6355  -11.6877   20.8748 C   0  0  0  0  0  0
  -23.9023  -10.4279   21.0421 C   0  0  0  0  0  0
  -24.3591   -9.4205   21.9197 C   0  0  0  0  0  0
  -23.6279   -8.2238   22.0758 C   0  0  0  0  0  0
  -22.4265   -8.0276   21.3545 C   0  0  0  0  0  0
  -21.9894   -9.0242   20.4642 C   0  0  0  0  0  0
  -22.7207  -10.2126   20.3057 C   0  0  0  0  0  0
  -21.6846   -6.0742   22.5284 C   0  0  0  0  0  0
  -21.4006   -6.5642   23.8218 C   0  0  0  0  0  0
  -21.3657   -5.6792   24.9178 C   0  0  0  0  0  0
  -21.6048   -4.3058   24.7221 C   0  0  0  0  0  0
  -21.8821   -3.8151   23.4343 C   0  0  0  0  0  0
  -21.9188   -4.6972   22.3406 C   0  0  0  0  0  0
  -22.7863  -13.5243   21.1847 C   0  0  0  0  0  0
  -22.1655   -4.2164   21.0978 F   0  0  0  0  0  0
  -21.5630   -3.4538   25.7734 F   0  0  0  0  0  0
  -30.0269  -13.3091   20.4616 N   0  0  0  0  0  0
  -26.2996  -12.9210   20.3330 N   0  0  0  0  0  0
  -25.9269  -11.6404   20.5776 N   0  0  0  0  0  0
  -22.0482  -12.8239   22.0396 N   0  0  0  0  0  0
  -25.4317  -15.1812   20.3991 N   0  0  0  0  0  0
  -31.8047  -14.6522   20.0626 O   0  0  0  0  0  0
  -21.6631   -6.8879   21.4246 O   0  0  0  0  0  0
  -22.3565  -14.5561   20.6703 O   0  0  0  0  0  0
  -24.6128  -31.8680   23.2114 C   0  0  0  0  0  0
  -25.9025  -32.4820   23.8398 C   0  0  1  0  0  0
  -27.2432  -27.4469   20.0734 C   0  0  0  0  0  0
  -25.5878  -33.8618   24.2327 N   0  0  0  0  0  0
  -23.3997  -30.4925   21.5523 C   0  0  2  0  0  0
  -24.8455  -28.9629   20.1132 C   0  0  0  0  0  0
  -22.7394  -29.4651   22.5003 C   0  0  0  0  0  0
  -18.0266  -28.1372   22.8493 C   0  0  0  0  0  0
  -24.1477  -36.7315   23.2640 C   0  0  0  0  0  0
  -25.9281  -30.8347   21.3649 C   0  0  0  0  0  0
  -26.0043  -29.4707   20.7106 C   0  0  0  0  0  0
  -27.1991  -28.7164   20.6954 C   0  0  0  0  0  0
  -26.0543  -26.9477   19.4857 C   0  0  0  0  0  0
  -24.8647  -27.6984   19.5032 C   0  0  0  0  0  0
  -23.6063  -29.8267   20.1661 C   0  0  0  0  0  0
  -25.4102  -36.3114   24.0341 C   0  0  1  0  0  0
  -20.5854  -28.3645   23.1325 C   0  0  2  0  0  0
  -20.6753  -26.9379   22.5427 C   0  0  0  0  0  0
  -19.5739  -26.6383   21.5211 C   0  0  0  0  0  0
  -18.1910  -26.7931   22.1604 C   0  0  0  0  0  0
  -19.1515  -28.8828   23.2912 C   0  0  0  0  0  0
  -18.9445  -30.1441   23.8919 C   0  0  0  0  0  0
  -17.6444  -30.6574   24.0575 C   0  0  0  0  0  0
  -25.9027  -34.9476   23.5136 C   0  0  0  0  0  0
  -16.5338  -29.9075   23.6334 C   0  0  0  0  0  0
  -16.7256  -28.6497   23.0346 C   0  0  0  0  0  0
  -26.4460  -31.6593   25.0720 C   0  0  0  0  0  0
  -25.3733  -31.3688   26.1472 C   0  0  0  0  0  0
  -27.0286  -30.3033   24.6093 C   0  0  0  0  0  0
  -27.6032  -32.4314   25.7485 C   0  0  0  0  0  0
  -27.5583  -37.1814   24.8460 C   0  0  0  0  0  0
  -21.4124  -29.3016   22.3741 N   0  0  0  0  0  0
  -26.4290  -37.3796   23.9411 N   0  0  0  0  0  0
  -24.6651  -31.0789   22.1013 N   0  0  0  0  0  0
  -23.4172  -28.8197   23.3042 O   0  0  0  0  0  0
  -28.4400  -26.7533   20.1050 O   0  0  0  0  0  0
  -26.5595  -34.8927   22.4701 O   0  0  0  0  0  0
  -23.5324  -32.1430   23.7515 O   0  0  0  0  0  0
  -30.4863  -20.4787   20.8419 C   0  0  0  0  0  0
  -30.2842  -21.8353   20.5043 C   0  0  0  0  0  0
  -28.3155  -21.8707   21.9068 C   0  0  0  0  0  0
  -29.6063  -19.7924   21.7153 C   0  0  0  0  0  0
  -28.5018  -20.5146   22.2609 C   0  0  0  0  0  0
  -29.1759  -22.5440   21.0237 C   0  0  0  0  0  0
  -28.8613  -17.4053   21.2437 C   0  0  0  0  0  0
  -31.2449  -17.7217   21.8528 C   0  0  0  0  0  0
  -28.9492  -15.9459   21.7202 C   0  0  0  0  0  0
  -31.2905  -16.2327   22.2981 C   0  0  0  0  0  0
  -29.8243  -18.2996   22.0371 C   0  0  0  0  0  0
  -26.0403  -20.0323   22.7235 C   0  0  0  0  0  0
  -27.6430  -20.4979   24.6393 C   0  0  0  0  0  0
  -28.6995  -25.6917   19.1766 C   0  0  0  0  0  0
  -29.6064  -24.6097   19.7961 C   0  0  0  0  0  0
  -27.4860  -19.8993   23.2336 C   0  0  0  0  0  0
  -30.3104  -15.3859   21.5770 N   0  0  0  0  0  0
  -28.8435  -23.8546   20.7373 O   0  0  0  0  0  0
  -31.4638  -12.4419   19.1142 H   0  0  0  0  0  0
  -30.3444  -11.3197   19.8110 H   0  0  0  0  0  0
  -29.7472  -11.8026   17.4240 H   0  0  0  0  0  0
  -29.6363  -13.5100   17.7759 H   0  0  0  0  0  0
  -27.8430  -11.2854   18.8153 H   0  0  0  0  0  0
  -27.3569  -12.6092   17.7882 H   0  0  0  0  0  0
  -27.6998  -14.2143   19.5379 H   0  0  0  0  0  0
  -28.7068  -11.8843   21.2667 H   0  0  0  0  0  0
  -28.4552  -13.4440   21.9243 H   0  0  0  0  0  0
  -25.2740   -9.5692   22.4764 H   0  0  0  0  0  0
  -23.9999   -7.4632   22.7471 H   0  0  0  0  0  0
  -21.0833   -8.8748   19.8934 H   0  0  0  0  0  0
  -22.3674  -10.9664   19.6160 H   0  0  0  0  0  0
  -21.1990   -7.6150   23.9728 H   0  0  0  0  0  0
  -21.1475   -6.0518   25.9081 H   0  0  0  0  0  0
  -22.0601   -2.7618   23.2833 H   0  0  0  0  0  0
  -22.4067  -11.9884   22.4776 H   0  0  0  0  0  0
  -21.1097  -13.1268   22.2581 H   0  0  0  0  0  0
  -24.6624  -15.8338   20.5055 H   0  0  0  0  0  0
  -26.2786  -15.6194   20.0615 H   0  0  0  0  0  0
  -26.7097  -32.5530   23.1160 H   0  0  0  0  0  0
  -25.0020  -33.9780   25.0467 H   0  0  0  0  0  0
  -22.6879  -31.3090   21.4157 H   0  0  0  0  0  0
  -23.3742  -35.9639   23.3289 H   0  0  0  0  0  0
  -24.3585  -36.8955   22.2062 H   0  0  0  0  0  0
  -23.7218  -37.6513   23.6659 H   0  0  0  0  0  0
  -26.0420  -31.6029   20.5984 H   0  0  0  0  0  0
  -26.8157  -30.8850   21.9835 H   0  0  0  0  0  0
  -28.0947  -29.1103   21.1564 H   0  0  0  0  0  0
  -25.9932  -25.9779   19.0208 H   0  0  0  0  0  0
  -23.9703  -27.2956   19.0475 H   0  0  0  0  0  0
  -23.7089  -30.6026   19.4066 H   0  0  0  0  0  0
  -22.7315  -29.2432   19.8731 H   0  0  0  0  0  0
  -25.1281  -36.1982   25.0834 H   0  0  0  0  0  0
  -20.9948  -28.3206   24.1445 H   0  0  0  0  0  0
  -20.5631  -26.2253   23.3612 H   0  0  0  0  0  0
  -21.6628  -26.7408   22.1232 H   0  0  0  0  0  0
  -19.6888  -25.6299   21.1224 H   0  0  0  0  0  0
  -19.6699  -27.3214   20.6764 H   0  0  0  0  0  0
  -17.4195  -26.6721   21.3986 H   0  0  0  0  0  0
  -18.0275  -26.0049   22.8970 H   0  0  0  0  0  0
  -19.7920  -30.7265   24.2290 H   0  0  0  0  0  0
  -17.4991  -31.6257   24.5168 H   0  0  0  0  0  0
  -15.5338  -30.2981   23.7650 H   0  0  0  0  0  0
  -15.8655  -28.0829   22.7034 H   0  0  0  0  0  0
  -24.5923  -30.7014   25.7815 H   0  0  0  0  0  0
  -24.8900  -32.2834   26.4918 H   0  0  0  0  0  0
  -25.8099  -30.8869   27.0229 H   0  0  0  0  0  0
  -26.2827  -29.6798   24.1146 H   0  0  0  0  0  0
  -27.4063  -29.7267   25.4549 H   0  0  0  0  0  0
  -27.8657  -30.4353   23.9233 H   0  0  0  0  0  0
  -27.2636  -33.3600   26.2082 H   0  0  0  0  0  0
  -28.3827  -32.6902   25.0305 H   0  0  0  0  0  0
  -28.0700  -31.8425   26.5390 H   0  0  0  0  0  0
  -28.2595  -38.0117   24.7513 H   0  0  0  0  0  0
  -28.1093  -36.2659   24.6261 H   0  0  0  0  0  0
  -27.2311  -37.1431   25.8866 H   0  0  0  0  0  0
  -20.9272  -29.8759   21.6992 H   0  0  0  0  0  0
  -26.0182  -38.2875   24.1418 H   0  0  0  0  0  0
  -31.3329  -19.9708   20.4048 H   0  0  0  0  0  0
  -30.9920  -22.3028   19.8366 H   0  0  0  0  0  0
  -27.4809  -22.4205   22.3172 H   0  0  0  0  0  0
  -27.8336  -17.7510   21.3532 H   0  0  0  0  0  0
  -29.0838  -17.4691   20.1773 H   0  0  0  0  0  0
  -31.5616  -17.7910   20.8121 H   0  0  0  0  0  0
  -31.9610  -18.3001   22.4387 H   0  0  0  0  0  0
  -28.1955  -15.4183   21.1597 H   0  0  0  0  0  0
  -28.6468  -15.8728   22.7660 H   0  0  0  0  0  0
  -31.0743  -16.1642   23.3649 H   0  0  0  0  0  0
  -32.3084  -15.8520   22.1936 H   0  0  0  0  0  0
  -29.6245  -18.1839   23.1020 H   0  0  0  0  0  0
  -25.9318  -19.5839   21.7355 H   0  0  0  0  0  0
  -25.7151  -21.0702   22.6559 H   0  0  0  0  0  0
  -25.3457  -19.5206   23.3901 H   0  0  0  0  0  0
  -28.6470  -20.3221   25.0269 H   0  0  0  0  0  0
  -26.9376  -20.0488   25.3391 H   0  0  0  0  0  0
  -27.4710  -21.5744   24.6435 H   0  0  0  0  0  0
  -27.8255  -25.1891   18.7752 H   0  0  0  0  0  0
  -29.2095  -26.1358   18.3212 H   0  0  0  0  0  0
  -30.4793  -25.0504   20.2793 H   0  0  0  0  0  0
  -29.9603  -23.9838   18.9775 H   0  0  0  0  0  0
  -27.6466  -18.8306   23.3392 H   0  0  0  0  0  0
  1 25  1  0  0  0
  1 30  2  0  0  0
  1 87  1  0  0  0
  2  3  1  0  0  0
  2 25  1  0  0  0
  2 89  1  0  0  0
  2 90  1  0  0  0
  3  4  1  0  0  0
  3 91  1  0  0  0
  3 92  1  0  0  0
  4  5  1  0  0  0
  4 93  1  0  0  0
  4 94  1  0  0  0
  5  6  1  0  0  0
  5 26  1  0  0  0
  5 95  1  0  0  0
  6 25  1  0  0  0
  6 96  1  0  0  0
  6 97  1  0  0  0
  7  8  2  0  0  0
  7 26  1  0  0  0
  7 29  1  0  0  0
  8  9  1  0  0  0
  8 22  1  0  0  0
  9 10  1  0  0  0
  9 27  2  0  0  0
 10 11  2  0  0  0
 10 15  1  0  0  0
 11 12  1  0  0  0
 11 98  1  0  0  0
 12 13  2  0  0  0
 12 99  1  0  0  0
 13 14  1  0  0  0
 13 31  1  0  0  0
 14 15  2  0  0  0
 14100  1  0  0  0
 15101  1  0  0  0
 16 17  2  0  0  0
 16 21  1  0  0  0
 16 31  1  0  0  0
 17 18  1  0  0  0
 17102  1  0  0  0
 18 19  2  0  0  0
 18103  1  0  0  0
 19 20  1  0  0  0
 19 24  1  0  0  0
 20 21  2  0  0  0
 20104  1  0  0  0
 21 23  1  0  0  0
 22 28  1  0  0  0
 22 32  2  0  0  0
 26 27  1  0  0  0
 28105  1  0  0  0
 28106  1  0  0  0
 29107  1  0  0  0
 29108  1  0  0  0
 33 34  1  0  0  0
 33 66  1  0  0  0
 33 70  2  0  0  0
 34 36  1  0  0  0
 34 59  1  0  0  0
 34109  1  0  0  0
 35 44  2  0  0  0
 35 45  1  0  0  0
 35 68  1  0  0  0
 36 56  1  0  0  0
 36110  1  0  0  0
 37 39  1  0  0  0
 37 47  1  0  0  0
 37 66  1  0  0  0
 37111  1  0  0  0
 38 43  2  0  0  0
 38 46  1  0  0  0
 38 47  1  0  0  0
 39 64  1  0  0  0
 39 67  2  0  0  0
 40 52  1  0  0  0
 40 53  2  0  0  0
 40 58  1  0  0  0
 41112  1  0  0  0
 41113  1  0  0  0
 41114  1  0  0  0
 41 48  1  0  0  0
 42 43  1  0  0  0
 42 66  1  0  0  0
 42115  1  0  0  0
 42116  1  0  0  0
 43 44  1  0  0  0
 44117  1  0  0  0
 45 46  2  0  0  0
 45118  1  0  0  0
 46119  1  0  0  0
 47120  1  0  0  0
 47121  1  0  0  0
 48 56  1  0  0  0
 48 65  1  0  0  0
 48122  1  0  0  0
 49 50  1  0  0  0
 49 53  1  0  0  0
 49 64  1  0  0  0
 49123  1  0  0  0
 50 51  1  0  0  0
 50124  1  0  0  0
 50125  1  0  0  0
 51 52  1  0  0  0
 51126  1  0  0  0
 51127  1  0  0  0
 52128  1  0  0  0
 52129  1  0  0  0
 53 54  1  0  0  0
 54 55  2  0  0  0
 54130  1  0  0  0
 55 57  1  0  0  0
 55131  1  0  0  0
 56 69  2  0  0  0
 57 58  2  0  0  0
 57132  1  0  0  0
 58133  1  0  0  0
 59 60  1  0  0  0
 59 61  1  0  0  0
 59 62  1  0  0  0
 60134  1  0  0  0
 60135  1  0  0  0
 60136  1  0  0  0
 61137  1  0  0  0
 61138  1  0  0  0
 61139  1  0  0  0
 62140  1  0  0  0
 62141  1  0  0  0
 62142  1  0  0  0
 63 65  1  0  0  0
 63143  1  0  0  0
 63144  1  0  0  0
 63145  1  0  0  0
 64146  1  0  0  0
 65147  1  0  0  0
 68 84  1  0  0  0
 71 72  2  0  0  0
 71 74  1  0  0  0
 71148  1  0  0  0
 72 76  1  0  0  0
 72149  1  0  0  0
 73 75  1  0  0  0
 73 76  2  0  0  0
 73150  1  0  0  0
 74 75  2  0  0  0
 74 81  1  0  0  0
 75 86  1  0  0  0
 76 88  1  0  0  0
 77 79  1  0  0  0
 77 81  1  0  0  0
 77151  1  0  0  0
 77152  1  0  0  0
 78 80  1  0  0  0
 78 81  1  0  0  0
 78153  1  0  0  0
 78154  1  0  0  0
 79 87  1  0  0  0
 79155  1  0  0  0
 79156  1  0  0  0
 80 87  1  0  0  0
 80157  1  0  0  0
 80158  1  0  0  0
 81159  1  0  0  0
 82160  1  0  0  0
 82161  1  0  0  0
 82162  1  0  0  0
 82 86  1  0  0  0
 83 86  1  0  0  0
 83163  1  0  0  0
 83164  1  0  0  0
 83165  1  0  0  0
 84 85  1  0  0  0
 84166  1  0  0  0
 84167  1  0  0  0
 85 88  1  0  0  0
 85168  1  0  0  0
 85169  1  0  0  0
 86170  1  0  0  0
M  ISO  4   1 100  68 101  84 101  87 100
M  END
> <chiral flag>
0

> <version>
0

> <s_m_source_file>
/data/baiqing/PycharmProjects/Reinvent-master-3.2/result/LINK_invent/BTK/process_docking_weight1_custom_sum_contain_oxygen_bond_distance_aromatic_linkinvent_7_9_3/rearranged_h_0148.sdf

> <i_m_source_file_index>
28

> <r_mmod_Potential_Energy-OPLS-2005>
172.908325195312

> <r_mmod_Stretch_Energy-OPLS-2005>
45.8816719055176

> <r_mmod_Bend_Energy-OPLS-2005>
145.180450439453

> <r_mmod_Torsional_Energy-OPLS-2005>
287.330352783203

> <r_mmod_Improper_Torsional_Energy-OPLS-2005>
3.98970890045166

> <r_mmod_Van_der_Waal_Energy-OPLS-2005>
177.310745239258

> <r_mmod_Electrostatic_Energy-OPLS-2005>
-299.268920898438

> <r_mmod_Solvation_Energy-OPLS-2005>
-199.663681030273

> <b_mmod_Minimization_Converged-OPLS-2005>
0

> <r_mmod_RMS_Derivative-OPLS-2005>
1.10874676704407

$$$$
28
                    3D
 Structure written by MMmdl.
173183  0  0  1  0            999 V2000
  -30.6749  -14.5387   20.5685 C   0  0  0  0  0  0
  -30.4323  -12.3452   19.4380 C   0  0  0  0  0  0
  -29.5157  -12.5338   18.2124 C   0  0  0  0  0  0
  -28.0319  -12.3898   18.6121 C   0  0  0  0  0  0
  -27.6641  -13.2255   19.8720 C   0  0  2  0  0  0
  -28.7029  -13.0225   20.9979 C   0  0  0  0  0  0
  -25.2580  -13.8233   20.5628 C   0  0  0  0  0  0
  -24.1837  -13.0471   20.9132 C   0  0  0  0  0  0
  -24.6411  -11.6959   20.8679 C   0  0  0  0  0  0
  -23.9091  -10.4343   21.0387 C   0  0  0  0  0  0
  -24.3661   -9.4264   21.9182 C   0  0  0  0  0  0
  -23.6341   -8.2287   22.0746 C   0  0  0  0  0  0
  -22.4319   -8.0333   21.3549 C   0  0  0  0  0  0
  -21.9923   -9.0305   20.4648 C   0  0  0  0  0  0
  -22.7252  -10.2182   20.3049 C   0  0  0  0  0  0
  -21.6895   -6.0760   22.5279 C   0  0  0  0  0  0
  -21.4041   -6.5642   23.8209 C   0  0  0  0  0  0
  -21.3646   -5.6775   24.9159 C   0  0  0  0  0  0
  -21.6057   -4.3052   24.7191 C   0  0  0  0  0  0
  -21.8838   -3.8153   23.4323 C   0  0  0  0  0  0
  -21.9191   -4.6979   22.3386 C   0  0  0  0  0  0
  -22.7848  -13.5294   21.1799 C   0  0  0  0  0  0
  -22.1682   -4.2162   21.0976 F   0  0  0  0  0  0
  -21.5589   -3.4534   25.7710 F   0  0  0  0  0  0
  -30.0307  -13.3402   20.4478 N   0  0  0  0  0  0
  -26.3038  -12.9427   20.3312 N   0  0  0  0  0  0
  -25.9355  -11.6570   20.5691 N   0  0  0  0  0  0
  -22.0508  -12.8273   22.0365 N   0  0  0  0  0  0
  -25.4224  -15.1966   20.4055 N   0  0  0  0  0  0
  -31.7971  -14.7417   20.0984 O   0  0  0  0  0  0
  -21.6684   -6.8925   21.4249 O   0  0  0  0  0  0
  -22.3550  -14.5595   20.6640 O   0  0  0  0  0  0
  -24.6188  -31.8664   23.2087 C   0  0  0  0  0  0
  -25.9071  -32.4793   23.8396 C   0  0  1  0  0  0
  -27.1961  -27.3766   20.1122 C   0  0  0  0  0  0
  -25.5889  -33.8602   24.2290 N   0  0  0  0  0  0
  -23.4081  -30.4996   21.5465 C   0  0  2  0  0  0
  -24.8550  -28.9783   20.0895 C   0  0  0  0  0  0
  -22.7424  -29.4682   22.4887 C   0  0  0  0  0  0
  -18.0293  -28.1367   22.8501 C   0  0  0  0  0  0
  -24.1495  -36.7335   23.2639 C   0  0  0  0  0  0
  -25.9497  -30.8159   21.3814 C   0  0  0  0  0  0
  -26.0203  -29.4587   20.7015 C   0  0  0  0  0  0
  -27.2018  -28.6664   20.7043 C   0  0  0  0  0  0
  -26.0243  -26.9513   19.4474 C   0  0  0  0  0  0
  -24.8607  -27.7343   19.4441 C   0  0  0  0  0  0
  -23.6205  -29.8454   20.1557 C   0  0  0  0  0  0
  -25.4109  -36.3089   24.0322 C   0  0  1  0  0  0
  -20.5876  -28.3705   23.1274 C   0  0  2  0  0  0
  -20.6768  -26.9431   22.5388 C   0  0  0  0  0  0
  -19.5738  -26.6391   21.5185 C   0  0  0  0  0  0
  -18.1933  -26.7923   22.1611 C   0  0  0  0  0  0
  -19.1538  -28.8847   23.2893 C   0  0  0  0  0  0
  -18.9448  -30.1446   23.8913 C   0  0  0  0  0  0
  -17.6441  -30.6583   24.0574 C   0  0  0  0  0  0
  -25.9046  -34.9453   23.5113 C   0  0  0  0  0  0
  -16.5340  -29.9081   23.6318 C   0  0  0  0  0  0
  -16.7272  -28.6480   23.0371 C   0  0  0  0  0  0
  -26.4469  -31.6590   25.0773 C   0  0  0  0  0  0
  -25.3702  -31.3729   26.1515 C   0  0  0  0  0  0
  -27.0286  -30.3004   24.6222 C   0  0  0  0  0  0
  -27.6010  -32.4344   25.7530 C   0  0  0  0  0  0
  -27.5578  -37.1819   24.8439 C   0  0  0  0  0  0
  -21.4144  -29.3070   22.3637 N   0  0  0  0  0  0
  -26.4287  -37.3787   23.9405 N   0  0  0  0  0  0
  -24.6754  -31.0750   22.1019 N   0  0  0  0  0  0
  -23.4187  -28.8205   23.2919 O   0  0  0  0  0  0
  -28.2364  -26.4735   20.2695 O   0  0  0  0  0  0
  -26.5607  -34.8904   22.4684 O   0  0  0  0  0  0
  -23.5375  -32.1420   23.7441 O   0  0  0  0  0  0
  -29.2632  -21.6773   16.7928 C   0  0  0  0  0  0
  -29.2560  -19.5460   17.9313 C   0  0  0  0  0  0
  -29.6933  -22.3373   17.9637 C   0  0  0  0  0  0
  -29.0453  -20.2971   16.7670 C   0  0  0  0  0  0
  -29.8285  -21.5822   19.1834 C   0  0  0  0  0  0
  -29.6740  -20.1449   19.1486 C   0  0  0  0  0  0
  -30.3021  -24.4954   16.4665 C   0  0  0  0  0  0
  -31.4447  -24.2433   17.4169 C   0  0  0  0  0  0
  -27.3419  -24.1684   20.1651 C   0  0  0  0  0  0
  -30.0437  -23.8039   17.7969 C   0  0  0  0  0  0
  -28.4077  -23.9138   21.1944 C   0  0  2  0  0  0
  -27.7767  -25.3265   21.0587 C   0  0  1  0  0  0
  -28.6514  -19.6150   15.4675 C   0  0  0  0  0  0
  -30.9006  -24.6239   20.6827 C   0  0  0  0  0  0
  -30.3011  -16.9788   21.3027 C   0  0  0  0  0  0
  -29.8613  -17.8915   20.1130 C   0  0  0  0  0  0
  -29.8803  -23.5093   20.9840 C   0  0  2  0  0  0
  -30.1571  -22.1533   20.4398 N   0  0  0  0  0  0
  -29.9527  -15.5416   21.1197 N   0  0  0  0  0  0
  -29.9567  -19.3422   20.2697 O   0  0  0  0  0  0
  -31.4796  -12.4463   19.1443 H   0  0  0  0  0  0
  -30.3283  -11.3379   19.8425 H   0  0  0  0  0  0
  -29.7790  -11.8182   17.4338 H   0  0  0  0  0  0
  -29.6713  -13.5232   17.7840 H   0  0  0  0  0  0
  -27.8304  -11.3357   18.7939 H   0  0  0  0  0  0
  -27.3982  -12.6752   17.7701 H   0  0  0  0  0  0
  -27.7004  -14.2749   19.5823 H   0  0  0  0  0  0
  -28.6875  -11.9892   21.3524 H   0  0  0  0  0  0
  -28.4512  -13.6297   21.8666 H   0  0  0  0  0  0
  -25.2820   -9.5762   22.4713 H   0  0  0  0  0  0
  -24.0059   -7.4713   22.7492 H   0  0  0  0  0  0
  -21.0837   -8.8859   19.8980 H   0  0  0  0  0  0
  -22.3759  -10.9715   19.6134 H   0  0  0  0  0  0
  -21.2095   -7.6157   23.9722 H   0  0  0  0  0  0
  -21.1420   -6.0496   25.9052 H   0  0  0  0  0  0
  -22.0626   -2.7609   23.2799 H   0  0  0  0  0  0
  -22.4090  -11.9916   22.4757 H   0  0  0  0  0  0
  -21.1154  -13.1316   22.2600 H   0  0  0  0  0  0
  -24.6426  -15.8390   20.5124 H   0  0  0  0  0  0
  -26.2733  -15.6469   20.0895 H   0  0  0  0  0  0
  -26.7116  -32.5466   23.1118 H   0  0  0  0  0  0
  -24.9958  -33.9765   25.0379 H   0  0  0  0  0  0
  -22.6981  -31.3199   21.4077 H   0  0  0  0  0  0
  -23.3733  -35.9699   23.3293 H   0  0  0  0  0  0
  -24.3564  -36.8990   22.2049 H   0  0  0  0  0  0
  -23.7296  -37.6558   23.6689 H   0  0  0  0  0  0
  -26.0903  -31.5953   20.6293 H   0  0  0  0  0  0
  -26.8275  -30.8425   22.0187 H   0  0  0  0  0  0
  -28.0908  -29.0071   21.2146 H   0  0  0  0  0  0
  -25.9905  -25.9907   18.9575 H   0  0  0  0  0  0
  -23.9675  -27.3713   18.9510 H   0  0  0  0  0  0
  -23.7267  -30.6248   19.4007 H   0  0  0  0  0  0
  -22.7434  -29.2669   19.8586 H   0  0  0  0  0  0
  -25.1284  -36.1936   25.0816 H   0  0  0  0  0  0
  -21.0003  -28.3305   24.1376 H   0  0  0  0  0  0
  -20.5642  -26.2320   23.3592 H   0  0  0  0  0  0
  -21.6653  -26.7461   22.1175 H   0  0  0  0  0  0
  -19.6920  -25.6295   21.1236 H   0  0  0  0  0  0
  -19.6680  -27.3188   20.6697 H   0  0  0  0  0  0
  -17.4203  -26.6709   21.4021 H   0  0  0  0  0  0
  -18.0334  -26.0042   22.8974 H   0  0  0  0  0  0
  -19.7926  -30.7274   24.2296 H   0  0  0  0  0  0
  -17.5002  -31.6268   24.5176 H   0  0  0  0  0  0
  -15.5347  -30.2999   23.7609 H   0  0  0  0  0  0
  -15.8665  -28.0795   22.7092 H   0  0  0  0  0  0
  -24.5794  -30.7161   25.7863 H   0  0  0  0  0  0
  -24.8988  -32.2917   26.5026 H   0  0  0  0  0  0
  -25.8055  -30.8829   27.0237 H   0  0  0  0  0  0
  -26.2853  -29.6790   24.1224 H   0  0  0  0  0  0
  -27.3918  -29.7255   25.4742 H   0  0  0  0  0  0
  -27.8769  -30.4255   23.9491 H   0  0  0  0  0  0
  -27.2558  -33.3583   26.2186 H   0  0  0  0  0  0
  -28.3783  -32.7016   25.0360 H   0  0  0  0  0  0
  -28.0733  -31.8463   26.5391 H   0  0  0  0  0  0
  -28.2551  -38.0144   24.7471 H   0  0  0  0  0  0
  -28.1111  -36.2661   24.6278 H   0  0  0  0  0  0
  -27.2292  -37.1524   25.8841 H   0  0  0  0  0  0
  -20.9282  -29.8820   21.6900 H   0  0  0  0  0  0
  -26.0155  -38.2877   24.1411 H   0  0  0  0  0  0
  -29.1114  -22.2235   15.8744 H   0  0  0  0  0  0
  -29.1009  -18.4850   17.8311 H   0  0  0  0  0  0
  -30.3377  -23.9379   15.5329 H   0  0  0  0  0  0
  -29.9754  -25.5306   16.3685 H   0  0  0  0  0  0
  -31.8709  -25.1112   17.9160 H   0  0  0  0  0  0
  -32.1608  -23.4827   17.1115 H   0  0  0  0  0  0
  -26.3741  -23.7105   20.3640 H   0  0  0  0  0  0
  -27.5980  -24.1658   19.1150 H   0  0  0  0  0  0
  -29.4746  -24.4222   18.4665 H   0  0  0  0  0  0
  -28.0067  -23.3560   22.0439 H   0  0  0  0  0  0
  -27.1008  -25.6295   21.8623 H   0  0  0  0  0  0
  -28.0877  -20.2872   14.8192 H   0  0  0  0  0  0
  -28.0347  -18.7375   15.6505 H   0  0  0  0  0  0
  -29.5473  -19.2938   14.9302 H   0  0  0  0  0  0
  -31.0717  -25.2145   21.5842 H   0  0  0  0  0  0
  -30.5797  -25.3462   19.9381 H   0  0  0  0  0  0
  -31.8689  -24.2190   20.3810 H   0  0  0  0  0  0
  -29.7866  -17.3151   22.2082 H   0  0  0  0  0  0
  -31.3673  -17.0973   21.4966 H   0  0  0  0  0  0
  -28.8203  -17.6583   19.8945 H   0  0  0  0  0  0
  -30.4643  -17.5870   19.2577 H   0  0  0  0  0  0
  -30.1702  -23.2952   22.0155 H   0  0  0  0  0  0
  -30.2884  -21.4455   21.1584 H   0  0  0  0  0  0
  -29.0289  -15.2842   21.4335 H   0  0  0  0  0  0
  1 25  1  0  0  0
  1 30  2  0  0  0
  1 89  1  0  0  0
  2  3  1  0  0  0
  2 25  1  0  0  0
  2 91  1  0  0  0
  2 92  1  0  0  0
  3  4  1  0  0  0
  3 93  1  0  0  0
  3 94  1  0  0  0
  4  5  1  0  0  0
  4 95  1  0  0  0
  4 96  1  0  0  0
  5  6  1  0  0  0
  5 26  1  0  0  0
  5 97  1  0  0  0
  6 25  1  0  0  0
  6 98  1  0  0  0
  6 99  1  0  0  0
  7  8  2  0  0  0
  7 26  1  0  0  0
  7 29  1  0  0  0
  8  9  1  0  0  0
  8 22  1  0  0  0
  9 10  1  0  0  0
  9 27  2  0  0  0
 10 11  2  0  0  0
 10 15  1  0  0  0
 11 12  1  0  0  0
 11100  1  0  0  0
 12 13  2  0  0  0
 12101  1  0  0  0
 13 14  1  0  0  0
 13 31  1  0  0  0
 14 15  2  0  0  0
 14102  1  0  0  0
 15103  1  0  0  0
 16 17  2  0  0  0
 16 21  1  0  0  0
 16 31  1  0  0  0
 17 18  1  0  0  0
 17104  1  0  0  0
 18 19  2  0  0  0
 18105  1  0  0  0
 19 20  1  0  0  0
 19 24  1  0  0  0
 20 21  2  0  0  0
 20106  1  0  0  0
 21 23  1  0  0  0
 22 28  1  0  0  0
 22 32  2  0  0  0
 26 27  1  0  0  0
 28107  1  0  0  0
 28108  1  0  0  0
 29109  1  0  0  0
 29110  1  0  0  0
 33 34  1  0  0  0
 33 66  1  0  0  0
 33 70  2  0  0  0
 34 36  1  0  0  0
 34 59  1  0  0  0
 34111  1  0  0  0
 35 44  2  0  0  0
 35 45  1  0  0  0
 35 68  1  0  0  0
 36 56  1  0  0  0
 36112  1  0  0  0
 37 39  1  0  0  0
 37 47  1  0  0  0
 37 66  1  0  0  0
 37113  1  0  0  0
 38 43  2  0  0  0
 38 46  1  0  0  0
 38 47  1  0  0  0
 39 64  1  0  0  0
 39 67  2  0  0  0
 40 52  1  0  0  0
 40 53  2  0  0  0
 40 58  1  0  0  0
 41114  1  0  0  0
 41115  1  0  0  0
 41116  1  0  0  0
 41 48  1  0  0  0
 42 43  1  0  0  0
 42 66  1  0  0  0
 42117  1  0  0  0
 42118  1  0  0  0
 43 44  1  0  0  0
 44119  1  0  0  0
 45 46  2  0  0  0
 45120  1  0  0  0
 46121  1  0  0  0
 47122  1  0  0  0
 47123  1  0  0  0
 48 56  1  0  0  0
 48 65  1  0  0  0
 48124  1  0  0  0
 49 50  1  0  0  0
 49 53  1  0  0  0
 49 64  1  0  0  0
 49125  1  0  0  0
 50 51  1  0  0  0
 50126  1  0  0  0
 50127  1  0  0  0
 51 52  1  0  0  0
 51128  1  0  0  0
 51129  1  0  0  0
 52130  1  0  0  0
 52131  1  0  0  0
 53 54  1  0  0  0
 54 55  2  0  0  0
 54132  1  0  0  0
 55 57  1  0  0  0
 55133  1  0  0  0
 56 69  2  0  0  0
 57 58  2  0  0  0
 57134  1  0  0  0
 58135  1  0  0  0
 59 60  1  0  0  0
 59 61  1  0  0  0
 59 62  1  0  0  0
 60136  1  0  0  0
 60137  1  0  0  0
 60138  1  0  0  0
 61139  1  0  0  0
 61140  1  0  0  0
 61141  1  0  0  0
 62142  1  0  0  0
 62143  1  0  0  0
 62144  1  0  0  0
 63 65  1  0  0  0
 63145  1  0  0  0
 63146  1  0  0  0
 63147  1  0  0  0
 64148  1  0  0  0
 65149  1  0  0  0
 68 82  1  0  0  0
 71 73  2  0  0  0
 71 74  1  0  0  0
 71150  1  0  0  0
 72 74  2  0  0  0
 72 76  1  0  0  0
 72151  1  0  0  0
 73 75  1  0  0  0
 73 80  1  0  0  0
 74 83  1  0  0  0
 75 76  2  0  0  0
 75 88  1  0  0  0
 76 90  1  0  0  0
 77 78  1  0  0  0
 77 80  1  0  0  0
 77152  1  0  0  0
 77153  1  0  0  0
 78 80  1  0  0  0
 78154  1  0  0  0
 78155  1  0  0  0
 79 82  1  0  0  0
 79156  1  0  0  0
 79157  1  0  0  0
 79 81  1  0  0  0
 80158  1  0  0  0
 81 82  1  0  0  0
 81 87  1  0  0  0
 81159  1  0  0  0
 82160  1  0  0  0
 83161  1  0  0  0
 83162  1  0  0  0
 83163  1  0  0  0
 84164  1  0  0  0
 84165  1  0  0  0
 84166  1  0  0  0
 84 87  1  0  0  0
 85 86  1  0  0  0
 85 89  1  0  0  0
 85167  1  0  0  0
 85168  1  0  0  0
 86 90  1  0  0  0
 86169  1  0  0  0
 86170  1  0  0  0
 87 88  1  0  0  0
 87171  1  0  0  0
 88172  1  0  0  0
 89173  1  0  0  0
M  ISO  4   1 100  68 101  82 101  89 100
M  END
> <chiral flag>
0

> <version>
0

> <s_m_source_file>
/data/baiqing/PycharmProjects/Reinvent-master-3.2/result/LINK_invent/BTK/process_docking_weight1_custom_sum_contain_oxygen_bond_distance_aromatic_linkinvent_7_9_3/rearranged_h_0148.sdf

> <i_m_source_file_index>
29

> <r_mmod_Potential_Energy-OPLS-2005>
118.342903137207

> <r_mmod_Stretch_Energy-OPLS-2005>
66.320556640625

> <r_mmod_Bend_Energy-OPLS-2005>
208.520111083984

> <r_mmod_Torsional_Energy-OPLS-2005>
306.064392089844

> <r_mmod_Improper_Torsional_Energy-OPLS-2005>
5.21566772460938

> <r_mmod_Van_der_Waal_Energy-OPLS-2005>
162.298309326172

> <r_mmod_Electrostatic_Energy-OPLS-2005>
-449.236572265625

> <r_mmod_Solvation_Energy-OPLS-2005>
-218.215057373047

> <b_mmod_Minimization_Converged-OPLS-2005>
0

> <r_mmod_RMS_Derivative-OPLS-2005>
5.80565690994263

$$$$
29
                    3D
 Structure written by MMmdl.
160169  0  0  1  0            999 V2000
  -30.7104  -14.4534   20.5719 C   0  0  0  0  0  0
  -30.4113  -12.2936   19.4304 C   0  0  0  0  0  0
  -29.4939  -12.5104   18.2103 C   0  0  0  0  0  0
  -28.0126  -12.3763   18.6182 C   0  0  0  0  0  0
  -27.6605  -13.2103   19.8790 C   0  0  2  0  0  0
  -28.6995  -12.9919   21.0045 C   0  0  0  0  0  0
  -25.2590  -13.8153   20.5688 C   0  0  0  0  0  0
  -24.1822  -13.0443   20.9154 C   0  0  0  0  0  0
  -24.6379  -11.6907   20.8720 C   0  0  0  0  0  0
  -23.9045  -10.4300   21.0389 C   0  0  0  0  0  0
  -24.3614   -9.4232   21.9177 C   0  0  0  0  0  0
  -23.6312   -8.2246   22.0740 C   0  0  0  0  0  0
  -22.4301   -8.0263   21.3527 C   0  0  0  0  0  0
  -21.9918   -9.0231   20.4633 C   0  0  0  0  0  0
  -22.7212  -10.2135   20.3050 C   0  0  0  0  0  0
  -21.6857   -6.0754   22.5289 C   0  0  0  0  0  0
  -21.4005   -6.5656   23.8226 C   0  0  0  0  0  0
  -21.3666   -5.6802   24.9180 C   0  0  0  0  0  0
  -21.6043   -4.3062   24.7231 C   0  0  0  0  0  0
  -21.8812   -3.8161   23.4345 C   0  0  0  0  0  0
  -21.9194   -4.6977   22.3409 C   0  0  0  0  0  0
  -22.7861  -13.5253   21.1847 C   0  0  0  0  0  0
  -22.1678   -4.2167   21.0986 F   0  0  0  0  0  0
  -21.5636   -3.4544   25.7743 F   0  0  0  0  0  0
  -30.0355  -13.2794   20.4541 N   0  0  0  0  0  0
  -26.3018  -12.9332   20.3377 N   0  0  0  0  0  0
  -25.9311  -11.6492   20.5752 N   0  0  0  0  0  0
  -22.0506  -12.8257   22.0415 N   0  0  0  0  0  0
  -25.4336  -15.1865   20.4186 N   0  0  0  0  0  0
  -31.8205  -14.6503   20.0700 O   0  0  0  0  0  0
  -21.6643   -6.8879   21.4249 O   0  0  0  0  0  0
  -22.3540  -14.5569   20.6699 O   0  0  0  0  0  0
  -24.6131  -31.8711   23.2064 C   0  0  0  0  0  0
  -25.9032  -32.4835   23.8372 C   0  0  1  0  0  0
  -27.2355  -27.4300   20.0925 C   0  0  0  0  0  0
  -25.5898  -33.8627   24.2320 N   0  0  0  0  0  0
  -23.3999  -30.4940   21.5479 C   0  0  2  0  0  0
  -24.8429  -28.9527   20.1145 C   0  0  0  0  0  0
  -22.7387  -29.4714   22.4986 C   0  0  0  0  0  0
  -18.0276  -28.1412   22.8485 C   0  0  0  0  0  0
  -24.1493  -36.7314   23.2636 C   0  0  0  0  0  0
  -25.9282  -30.8288   21.3642 C   0  0  0  0  0  0
  -26.0002  -29.4611   20.7142 C   0  0  0  0  0  0
  -27.1916  -28.7032   20.7077 C   0  0  0  0  0  0
  -26.0525  -26.9272   19.5009 C   0  0  0  0  0  0
  -24.8624  -27.6836   19.5089 C   0  0  0  0  0  0
  -23.6054  -29.8208   20.1637 C   0  0  0  0  0  0
  -25.4116  -36.3120   24.0336 C   0  0  1  0  0  0
  -20.5871  -28.3698   23.1335 C   0  0  2  0  0  0
  -20.6786  -26.9435   22.5447 C   0  0  0  0  0  0
  -19.5769  -26.6387   21.5234 C   0  0  0  0  0  0
  -18.1931  -26.7959   22.1607 C   0  0  0  0  0  0
  -19.1529  -28.8856   23.2913 C   0  0  0  0  0  0
  -18.9466  -30.1471   23.8924 C   0  0  0  0  0  0
  -17.6477  -30.6613   24.0571 C   0  0  0  0  0  0
  -25.9043  -34.9489   23.5134 C   0  0  0  0  0  0
  -16.5361  -29.9121   23.6334 C   0  0  0  0  0  0
  -16.7265  -28.6544   23.0342 C   0  0  0  0  0  0
  -26.4451  -31.6594   25.0692 C   0  0  0  0  0  0
  -25.3705  -31.3682   26.1415 C   0  0  0  0  0  0
  -27.0279  -30.3039   24.6059 C   0  0  0  0  0  0
  -27.6065  -32.4282   25.7429 C   0  0  0  0  0  0
  -27.5595  -37.1806   24.8462 C   0  0  0  0  0  0
  -21.4115  -29.3074   22.3745 N   0  0  0  0  0  0
  -26.4311  -37.3803   23.9404 N   0  0  0  0  0  0
  -24.6649  -31.0819   22.0964 N   0  0  0  0  0  0
  -23.4161  -28.8250   23.3031 O   0  0  0  0  0  0
  -28.4367  -26.7483   20.1100 O   0  0  0  0  0  0
  -26.5611  -34.8945   22.4695 O   0  0  0  0  0  0
  -23.5328  -32.1481   23.7457 O   0  0  0  0  0  0
  -28.4532  -21.5747   21.2430 C   0  0  0  0  0  0
  -29.9105  -19.7498   19.8126 C   0  0  0  0  0  0
  -28.4057  -20.2225   21.6416 C   0  0  0  0  0  0
  -29.1572  -19.2697   20.9064 C   0  0  0  0  0  0
  -29.2051  -21.9461   20.1126 C   0  0  0  0  0  0
  -26.2631  -19.0495   22.6191 C   0  0  0  0  0  0
  -26.1855  -20.5117   22.9831 C   0  0  0  0  0  0
  -27.5335  -19.8493   22.8051 C   0  0  0  0  0  0
  -30.3145  -16.8866   20.8953 C   0  0  0  0  0  0
  -28.6248  -25.5490   19.3459 C   0  0  0  0  0  0
  -28.4262  -24.2419   20.1488 C   0  0  0  0  0  0
  -29.0916  -17.7682   21.2518 C   0  0  1  0  0  0
  -29.9345  -21.0468   19.4232 N   0  0  0  0  0  0
  -30.0202  -15.4635   21.1185 N   0  0  0  0  0  0
  -29.2632  -23.2218   19.5895 O   0  0  0  0  0  0
  -28.0258  -17.2532   20.6371 F   0  0  0  0  0  0
  -31.4606  -12.3696   19.1395 H   0  0  0  0  0  0
  -30.2834  -11.2861   19.8298 H   0  0  0  0  0  0
  -29.7291  -11.7920   17.4248 H   0  0  0  0  0  0
  -29.6741  -13.4989   17.7873 H   0  0  0  0  0  0
  -27.8168  -11.3201   18.8070 H   0  0  0  0  0  0
  -27.3663  -12.6577   17.7871 H   0  0  0  0  0  0
  -27.7061  -14.2589   19.5814 H   0  0  0  0  0  0
  -28.6656  -11.9619   21.3623 H   0  0  0  0  0  0
  -28.4661  -13.6058   21.8762 H   0  0  0  0  0  0
  -25.2765   -9.5728   22.4755 H   0  0  0  0  0  0
  -24.0048   -7.4644   22.7452 H   0  0  0  0  0  0
  -21.0855   -8.8721   19.8952 H   0  0  0  0  0  0
  -22.3642  -10.9670   19.6162 H   0  0  0  0  0  0
  -21.1994   -7.6169   23.9731 H   0  0  0  0  0  0
  -21.1502   -6.0534   25.9087 H   0  0  0  0  0  0
  -22.0587   -2.7628   23.2837 H   0  0  0  0  0  0
  -22.4152  -11.9967   22.4875 H   0  0  0  0  0  0
  -21.1094  -13.1235   22.2560 H   0  0  0  0  0  0
  -24.6730  -15.8425   20.5470 H   0  0  0  0  0  0
  -26.3109  -15.6418   20.1984 H   0  0  0  0  0  0
  -26.7096  -32.5540   23.1124 H   0  0  0  0  0  0
  -25.0021  -33.9782   25.0448 H   0  0  0  0  0  0
  -22.6915  -31.3115   21.4047 H   0  0  0  0  0  0
  -23.3775  -35.9633   23.3316 H   0  0  0  0  0  0
  -24.3585  -36.8902   22.2047 H   0  0  0  0  0  0
  -23.7226  -37.6516   23.6635 H   0  0  0  0  0  0
  -26.0457  -31.5912   20.5936 H   0  0  0  0  0  0
  -26.8161  -30.8807   21.9824 H   0  0  0  0  0  0
  -28.0829  -29.0956   21.1780 H   0  0  0  0  0  0
  -26.0250  -25.9513   19.0405 H   0  0  0  0  0  0
  -23.9676  -27.2836   19.0512 H   0  0  0  0  0  0
  -23.7097  -30.5914   19.3995 H   0  0  0  0  0  0
  -22.7274  -29.2403   19.8741 H   0  0  0  0  0  0
  -25.1301  -36.1997   25.0834 H   0  0  0  0  0  0
  -20.9968  -28.3283   24.1450 H   0  0  0  0  0  0
  -20.5722  -26.2338   23.3667 H   0  0  0  0  0  0
  -21.6659  -26.7488   22.1250 H   0  0  0  0  0  0
  -19.6943  -25.6284   21.1294 H   0  0  0  0  0  0
  -19.6716  -27.3160   20.6743 H   0  0  0  0  0  0
  -17.4217  -26.6689   21.3992 H   0  0  0  0  0  0
  -18.0316  -26.0123   22.9019 H   0  0  0  0  0  0
  -19.7956  -30.7274   24.2285 H   0  0  0  0  0  0
  -17.5043  -31.6295   24.5179 H   0  0  0  0  0  0
  -15.5370  -30.3036   23.7658 H   0  0  0  0  0  0
  -15.8656  -28.0879   22.7056 H   0  0  0  0  0  0
  -24.5887  -30.7048   25.7721 H   0  0  0  0  0  0
  -24.8889  -32.2818   26.4892 H   0  0  0  0  0  0
  -25.8038  -30.8809   27.0145 H   0  0  0  0  0  0
  -26.2819  -29.6786   24.1139 H   0  0  0  0  0  0
  -27.4073  -29.7298   25.4523 H   0  0  0  0  0  0
  -27.8650  -30.4378   23.9196 H   0  0  0  0  0  0
  -27.2742  -33.3588   26.2045 H   0  0  0  0  0  0
  -28.3849  -32.6818   25.0210 H   0  0  0  0  0  0
  -28.0776  -31.8358   26.5282 H   0  0  0  0  0  0
  -28.2626  -38.0098   24.7539 H   0  0  0  0  0  0
  -28.1083  -36.2632   24.6274 H   0  0  0  0  0  0
  -27.2302  -37.1433   25.8861 H   0  0  0  0  0  0
  -20.9242  -29.8780   21.6980 H   0  0  0  0  0  0
  -26.0215  -38.2890   24.1400 H   0  0  0  0  0  0
  -27.8895  -22.3097   21.7997 H   0  0  0  0  0  0
  -30.4950  -19.0789   19.2029 H   0  0  0  0  0  0
  -25.9763  -18.7752   21.6061 H   0  0  0  0  0  0
  -25.9831  -18.3388   23.3946 H   0  0  0  0  0  0
  -25.8871  -20.7640   23.9972 H   0  0  0  0  0  0
  -25.8303  -21.1863   22.2062 H   0  0  0  0  0  0
  -28.1260  -19.6714   23.7019 H   0  0  0  0  0  0
  -31.1871  -17.1890   21.4754 H   0  0  0  0  0  0
  -30.5733  -16.9992   19.8435 H   0  0  0  0  0  0
  -28.0661  -25.5382   18.4101 H   0  0  0  0  0  0
  -29.6728  -25.5871   19.0434 H   0  0  0  0  0  0
  -27.3765  -23.9438   20.1414 H   0  0  0  0  0  0
  -28.7124  -24.4079   21.1885 H   0  0  0  0  0  0
  -28.9065  -17.6542   22.3219 H   0  0  0  0  0  0
  -29.1142  -15.2448   21.5051 H   0  0  0  0  0  0
  1 25  1  0  0  0
  1 30  2  0  0  0
  1 84  1  0  0  0
  2  3  1  0  0  0
  2 25  1  0  0  0
  2 87  1  0  0  0
  2 88  1  0  0  0
  3  4  1  0  0  0
  3 89  1  0  0  0
  3 90  1  0  0  0
  4  5  1  0  0  0
  4 91  1  0  0  0
  4 92  1  0  0  0
  5  6  1  0  0  0
  5 26  1  0  0  0
  5 93  1  0  0  0
  6 25  1  0  0  0
  6 94  1  0  0  0
  6 95  1  0  0  0
  7  8  2  0  0  0
  7 26  1  0  0  0
  7 29  1  0  0  0
  8  9  1  0  0  0
  8 22  1  0  0  0
  9 10  1  0  0  0
  9 27  2  0  0  0
 10 11  2  0  0  0
 10 15  1  0  0  0
 11 12  1  0  0  0
 11 96  1  0  0  0
 12 13  2  0  0  0
 12 97  1  0  0  0
 13 14  1  0  0  0
 13 31  1  0  0  0
 14 15  2  0  0  0
 14 98  1  0  0  0
 15 99  1  0  0  0
 16 17  2  0  0  0
 16 21  1  0  0  0
 16 31  1  0  0  0
 17 18  1  0  0  0
 17100  1  0  0  0
 18 19  2  0  0  0
 18101  1  0  0  0
 19 20  1  0  0  0
 19 24  1  0  0  0
 20 21  2  0  0  0
 20102  1  0  0  0
 21 23  1  0  0  0
 22 28  1  0  0  0
 22 32  2  0  0  0
 26 27  1  0  0  0
 28103  1  0  0  0
 28104  1  0  0  0
 29105  1  0  0  0
 29106  1  0  0  0
 33 34  1  0  0  0
 33 66  1  0  0  0
 33 70  2  0  0  0
 34 36  1  0  0  0
 34 59  1  0  0  0
 34107  1  0  0  0
 35 44  2  0  0  0
 35 45  1  0  0  0
 35 68  1  0  0  0
 36 56  1  0  0  0
 36108  1  0  0  0
 37 39  1  0  0  0
 37 47  1  0  0  0
 37 66  1  0  0  0
 37109  1  0  0  0
 38 43  2  0  0  0
 38 46  1  0  0  0
 38 47  1  0  0  0
 39 64  1  0  0  0
 39 67  2  0  0  0
 40 52  1  0  0  0
 40 53  2  0  0  0
 40 58  1  0  0  0
 41110  1  0  0  0
 41111  1  0  0  0
 41112  1  0  0  0
 41 48  1  0  0  0
 42 43  1  0  0  0
 42 66  1  0  0  0
 42113  1  0  0  0
 42114  1  0  0  0
 43 44  1  0  0  0
 44115  1  0  0  0
 45 46  2  0  0  0
 45116  1  0  0  0
 46117  1  0  0  0
 47118  1  0  0  0
 47119  1  0  0  0
 48 56  1  0  0  0
 48 65  1  0  0  0
 48120  1  0  0  0
 49 50  1  0  0  0
 49 53  1  0  0  0
 49 64  1  0  0  0
 49121  1  0  0  0
 50 51  1  0  0  0
 50122  1  0  0  0
 50123  1  0  0  0
 51 52  1  0  0  0
 51124  1  0  0  0
 51125  1  0  0  0
 52126  1  0  0  0
 52127  1  0  0  0
 53 54  1  0  0  0
 54 55  2  0  0  0
 54128  1  0  0  0
 55 57  1  0  0  0
 55129  1  0  0  0
 56 69  2  0  0  0
 57 58  2  0  0  0
 57130  1  0  0  0
 58131  1  0  0  0
 59 60  1  0  0  0
 59 61  1  0  0  0
 59 62  1  0  0  0
 60132  1  0  0  0
 60133  1  0  0  0
 60134  1  0  0  0
 61135  1  0  0  0
 61136  1  0  0  0
 61137  1  0  0  0
 62138  1  0  0  0
 62139  1  0  0  0
 62140  1  0  0  0
 63 65  1  0  0  0
 63141  1  0  0  0
 63142  1  0  0  0
 63143  1  0  0  0
 64144  1  0  0  0
 65145  1  0  0  0
 68 80  1  0  0  0
 71 73  2  0  0  0
 71 75  1  0  0  0
 71146  1  0  0  0
 72 74  2  0  0  0
 72 83  1  0  0  0
 72147  1  0  0  0
 73 74  1  0  0  0
 73 78  1  0  0  0
 74 82  1  0  0  0
 75 83  2  0  0  0
 75 85  1  0  0  0
 76 77  1  0  0  0
 76 78  1  0  0  0
 76148  1  0  0  0
 76149  1  0  0  0
 77 78  1  0  0  0
 77150  1  0  0  0
 77151  1  0  0  0
 78152  1  0  0  0
 79 82  1  0  0  0
 79 84  1  0  0  0
 79153  1  0  0  0
 79154  1  0  0  0
 80 81  1  0  0  0
 80155  1  0  0  0
 80156  1  0  0  0
 81 85  1  0  0  0
 81157  1  0  0  0
 81158  1  0  0  0
 82 86  1  0  0  0
 82159  1  0  0  0
 84160  1  0  0  0
M  ISO  4   1 100  68 101  80 101  84 100
M  END
> <chiral flag>
0

> <version>
0

> <s_m_source_file>
/data/baiqing/PycharmProjects/Reinvent-master-3.2/result/LINK_invent/BTK/process_docking_weight1_custom_sum_contain_oxygen_bond_distance_aromatic_linkinvent_7_9_3/rearranged_h_0148.sdf

> <i_m_source_file_index>
30

> <r_mmod_Potential_Energy-OPLS-2005>
-294.761352539062

> <r_mmod_Stretch_Energy-OPLS-2005>
36.4551811218262

> <r_mmod_Bend_Energy-OPLS-2005>
111.332740783691

> <r_mmod_Torsional_Energy-OPLS-2005>
224.355850219727

> <r_mmod_Improper_Torsional_Energy-OPLS-2005>
4.54211235046387

> <r_mmod_Van_der_Waal_Energy-OPLS-2005>
158.387191772461

> <r_mmod_Electrostatic_Energy-OPLS-2005>
-618.759765625

> <r_mmod_Solvation_Energy-OPLS-2005>
-223.082138061523

> <b_mmod_Minimization_Converged-OPLS-2005>
0

> <r_mmod_RMS_Derivative-OPLS-2005>
3.30386424064636

$$$$
30
                    3D
 Structure written by MMmdl.
170179  0  0  1  0            999 V2000
  -30.7427  -14.4209   20.5845 C   0  0  0  0  0  0
  -30.4121  -12.2773   19.4255 C   0  0  0  0  0  0
  -29.4930  -12.4925   18.2060 C   0  0  0  0  0  0
  -28.0122  -12.3526   18.6113 C   0  0  0  0  0  0
  -27.6583  -13.1915   19.8672 C   0  0  2  0  0  0
  -28.6970  -12.9746   20.9929 C   0  0  0  0  0  0
  -25.2617  -13.8138   20.5670 C   0  0  0  0  0  0
  -24.1840  -13.0441   20.9151 C   0  0  0  0  0  0
  -24.6364  -11.6896   20.8718 C   0  0  0  0  0  0
  -23.9033  -10.4291   21.0398 C   0  0  0  0  0  0
  -24.3596   -9.4213   21.9176 C   0  0  0  0  0  0
  -23.6280   -8.2247   22.0751 C   0  0  0  0  0  0
  -22.4264   -8.0280   21.3540 C   0  0  0  0  0  0
  -21.9894   -9.0248   20.4641 C   0  0  0  0  0  0
  -22.7211  -10.2129   20.3046 C   0  0  0  0  0  0
  -21.6850   -6.0736   22.5281 C   0  0  0  0  0  0
  -21.4008   -6.5639   23.8213 C   0  0  0  0  0  0
  -21.3656   -5.6792   24.9175 C   0  0  0  0  0  0
  -21.6043   -4.3056   24.7226 C   0  0  0  0  0  0
  -21.8819   -3.8147   23.4349 C   0  0  0  0  0  0
  -21.9191   -4.6965   22.3405 C   0  0  0  0  0  0
  -22.7871  -13.5256   21.1830 C   0  0  0  0  0  0
  -22.1661   -4.2151   21.0981 F   0  0  0  0  0  0
  -21.5628   -3.4540   25.7739 F   0  0  0  0  0  0
  -30.0338  -13.2645   20.4491 N   0  0  0  0  0  0
  -26.3004  -12.9257   20.3318 N   0  0  0  0  0  0
  -25.9281  -11.6439   20.5738 N   0  0  0  0  0  0
  -22.0503  -12.8251   22.0384 N   0  0  0  0  0  0
  -25.4466  -15.1850   20.4155 N   0  0  0  0  0  0
  -31.8514  -14.5904   20.0678 O   0  0  0  0  0  0
  -21.6634   -6.8877   21.4241 O   0  0  0  0  0  0
  -22.3567  -14.5575   20.6695 O   0  0  0  0  0  0
  -24.6107  -31.8700   23.2119 C   0  0  0  0  0  0
  -25.9017  -32.4832   23.8407 C   0  0  1  0  0  0
  -27.2428  -27.4694   20.0752 C   0  0  0  0  0  0
  -25.5890  -33.8629   24.2340 N   0  0  0  0  0  0
  -23.3972  -30.4926   21.5515 C   0  0  2  0  0  0
  -24.8437  -28.9611   20.1137 C   0  0  0  0  0  0
  -22.7388  -29.4665   22.5005 C   0  0  0  0  0  0
  -18.0268  -28.1369   22.8495 C   0  0  0  0  0  0
  -24.1483  -36.7315   23.2639 C   0  0  0  0  0  0
  -25.9224  -30.8419   21.3623 C   0  0  0  0  0  0
  -25.9992  -29.4778   20.7113 C   0  0  0  0  0  0
  -27.1960  -28.7323   20.7011 C   0  0  0  0  0  0
  -26.0635  -26.9480   19.4948 C   0  0  0  0  0  0
  -24.8680  -27.6917   19.5091 C   0  0  0  0  0  0
  -23.6036  -29.8232   20.1656 C   0  0  0  0  0  0
  -25.4108  -36.3119   24.0342 C   0  0  1  0  0  0
  -20.5854  -28.3652   23.1330 C   0  0  2  0  0  0
  -20.6757  -26.9392   22.5422 C   0  0  0  0  0  0
  -19.5739  -26.6382   21.5212 C   0  0  0  0  0  0
  -18.1914  -26.7920   22.1616 C   0  0  0  0  0  0
  -19.1517  -28.8827   23.2910 C   0  0  0  0  0  0
  -18.9447  -30.1438   23.8914 C   0  0  0  0  0  0
  -17.6450  -30.6581   24.0566 C   0  0  0  0  0  0
  -25.9032  -34.9482   23.5138 C   0  0  0  0  0  0
  -16.5341  -29.9085   23.6327 C   0  0  0  0  0  0
  -16.7258  -28.6502   23.0349 C   0  0  0  0  0  0
  -26.4459  -31.6609   25.0726 C   0  0  0  0  0  0
  -25.3734  -31.3691   26.1477 C   0  0  0  0  0  0
  -27.0299  -30.3065   24.6075 C   0  0  0  0  0  0
  -27.6036  -32.4328   25.7484 C   0  0  0  0  0  0
  -27.5585  -37.1808   24.8463 C   0  0  0  0  0  0
  -21.4121  -29.3026   22.3743 N   0  0  0  0  0  0
  -26.4294  -37.3803   23.9414 N   0  0  0  0  0  0
  -24.6612  -31.0822   22.1006 N   0  0  0  0  0  0
  -23.4176  -28.8211   23.3036 O   0  0  0  0  0  0
  -28.4301  -26.7766   20.1081 O   0  0  0  0  0  0
  -26.5591  -34.8928   22.4695 O   0  0  0  0  0  0
  -23.5310  -32.1439   23.7534 O   0  0  0  0  0  0
  -28.9037  -23.4633   18.8744 C   0  0  0  0  0  0
  -31.1073  -23.3571   20.6047 C   0  0  0  0  0  0
  -29.4756  -22.2145   19.1915 C   0  0  0  0  0  0
  -29.4312  -24.6595   19.4014 C   0  0  0  0  0  0
  -30.5945  -22.1595   20.0601 C   0  0  0  0  0  0
  -30.5413  -24.6163   20.2783 C   0  0  0  0  0  0
  -30.0053  -15.6518   21.2072 C   0  0  0  0  0  0
  -32.1438  -16.7888   22.2480 C   0  0  0  0  0  0
  -32.2238  -18.1265   21.4896 C   0  0  0  0  0  0
  -30.0429  -17.8587   22.5165 C   0  0  0  0  0  0
  -30.6432  -16.4370   22.3894 C   0  0  1  0  0  0
  -30.7757  -18.6484   21.4158 C   0  0  1  0  0  0
  -28.8853  -20.9625   18.5601 C   0  0  0  0  0  0
  -32.0648  -25.7861   21.7306 C   0  0  0  0  0  0
  -31.2927  -20.8414   20.3833 C   0  0  0  0  0  0
  -28.8151  -25.9885   18.9832 C   0  0  0  0  0  0
  -30.6440  -20.1219   21.5005 N   0  3  0  0  0  0
  -28.9293  -16.0385   20.7347 O   0  0  0  0  0  0
  -31.0283  -25.8149   20.7582 O   0  0  0  0  0  0
  -31.4597  -12.3507   19.1286 H   0  0  0  0  0  0
  -30.2923  -11.2668   19.8200 H   0  0  0  0  0  0
  -29.7346  -11.7733   17.4222 H   0  0  0  0  0  0
  -29.6698  -13.4814   17.7796 H   0  0  0  0  0  0
  -27.8184  -11.2968   18.8036 H   0  0  0  0  0  0
  -27.3659  -12.6319   17.7784 H   0  0  0  0  0  0
  -27.6951  -14.2317   19.5503 H   0  0  0  0  0  0
  -28.6638  -11.9405   21.3390 H   0  0  0  0  0  0
  -28.4535  -13.5769   21.8689 H   0  0  0  0  0  0
  -25.2745   -9.5700   22.4745 H   0  0  0  0  0  0
  -23.9997   -7.4642   22.7470 H   0  0  0  0  0  0
  -21.0827   -8.8759   19.8949 H   0  0  0  0  0  0
  -22.3669  -10.9663   19.6152 H   0  0  0  0  0  0
  -21.2001   -7.6146   23.9717 H   0  0  0  0  0  0
  -21.1472   -6.0522   25.9076 H   0  0  0  0  0  0
  -22.0601   -2.7612   23.2847 H   0  0  0  0  0  0
  -22.4100  -11.9901   22.4771 H   0  0  0  0  0  0
  -21.1119  -13.1282   22.2579 H   0  0  0  0  0  0
  -24.7038  -15.8616   20.5518 H   0  0  0  0  0  0
  -26.3400  -15.6122   20.1962 H   0  0  0  0  0  0
  -26.7089  -32.5553   23.1175 H   0  0  0  0  0  0
  -25.0062  -33.9802   25.0498 H   0  0  0  0  0  0
  -22.6840  -31.3078   21.4129 H   0  0  0  0  0  0
  -23.3750  -35.9641   23.3301 H   0  0  0  0  0  0
  -24.3579  -36.8928   22.2052 H   0  0  0  0  0  0
  -23.7223  -37.6515   23.6651 H   0  0  0  0  0  0
  -26.0310  -31.6079   20.5933 H   0  0  0  0  0  0
  -26.8120  -30.8965   21.9781 H   0  0  0  0  0  0
  -28.0890  -29.1277   21.1650 H   0  0  0  0  0  0
  -26.0447  -25.9638   19.0501 H   0  0  0  0  0  0
  -23.9750  -27.2800   19.0598 H   0  0  0  0  0  0
  -23.7064  -30.5971   19.4040 H   0  0  0  0  0  0
  -22.7292  -29.2390   19.8729 H   0  0  0  0  0  0
  -25.1281  -36.1990   25.0834 H   0  0  0  0  0  0
  -20.9943  -28.3211   24.1453 H   0  0  0  0  0  0
  -20.5663  -26.2254   23.3603 H   0  0  0  0  0  0
  -21.6630  -26.7437   22.1214 H   0  0  0  0  0  0
  -19.6899  -25.6296   21.1231 H   0  0  0  0  0  0
  -19.6689  -27.3205   20.6753 H   0  0  0  0  0  0
  -17.4191  -26.6689   21.4007 H   0  0  0  0  0  0
  -18.0299  -26.0052   22.8998 H   0  0  0  0  0  0
  -19.7924  -30.7249   24.2291 H   0  0  0  0  0  0
  -17.5007  -31.6264   24.5159 H   0  0  0  0  0  0
  -15.5346  -30.2993   23.7640 H   0  0  0  0  0  0
  -15.8658  -28.0830   22.7052 H   0  0  0  0  0  0
  -24.5924  -30.7019   25.7814 H   0  0  0  0  0  0
  -24.8904  -32.2835   26.4931 H   0  0  0  0  0  0
  -25.8102  -30.8866   27.0228 H   0  0  0  0  0  0
  -26.2839  -29.6820   24.1144 H   0  0  0  0  0  0
  -27.4110  -29.7300   25.4514 H   0  0  0  0  0  0
  -27.8649  -30.4409   23.9193 H   0  0  0  0  0  0
  -27.2660  -33.3621   26.2083 H   0  0  0  0  0  0
  -28.3833  -32.6901   25.0301 H   0  0  0  0  0  0
  -28.0717  -31.8439   26.5380 H   0  0  0  0  0  0
  -28.2595  -38.0114   24.7539 H   0  0  0  0  0  0
  -28.1093  -36.2650   24.6259 H   0  0  0  0  0  0
  -27.2307  -37.1423   25.8866 H   0  0  0  0  0  0
  -20.9276  -29.8752   21.6976 H   0  0  0  0  0  0
  -26.0186  -38.2879   24.1430 H   0  0  0  0  0  0
  -28.0574  -23.5090   18.2026 H   0  0  0  0  0  0
  -31.9643  -23.2896   21.2587 H   0  0  0  0  0  0
  -32.5547  -16.9290   23.2490 H   0  0  0  0  0  0
  -32.7668  -16.0201   21.7960 H   0  0  0  0  0  0
  -32.6367  -17.9921   20.4886 H   0  0  0  0  0  0
  -32.8833  -18.8119   22.0241 H   0  0  0  0  0  0
  -30.2733  -18.2634   23.5029 H   0  0  0  0  0  0
  -28.9577  -17.8924   22.4081 H   0  0  0  0  0  0
  -30.4677  -15.8546   23.2940 H   0  0  0  0  0  0
  -30.3496  -18.3502   20.4554 H   0  0  0  0  0  0
  -27.9680  -21.1883   18.0149 H   0  0  0  0  0  0
  -28.6374  -20.2150   19.3131 H   0  0  0  0  0  0
  -29.5855  -20.5225   17.8494 H   0  0  0  0  0  0
  -32.2852  -26.8040   22.0518 H   0  0  0  0  0  0
  -32.9845  -25.3644   21.3229 H   0  0  0  0  0  0
  -31.7683  -25.2211   22.6156 H   0  0  0  0  0  0
  -32.3407  -21.0177   20.6290 H   0  0  0  0  0  0
  -31.3094  -20.2257   19.4836 H   0  0  0  0  0  0
  -28.0215  -25.8214   18.2569 H   0  0  0  0  0  0
  -29.5781  -26.5489   18.4424 H   0  0  0  0  0  0
  -31.0111  -20.4671   22.3722 H   0  0  0  0  0  0
  -29.6648  -20.3540   21.4760 H   0  0  0  0  0  0
  1 25  1  0  0  0
  1 30  2  0  0  0
  1 77  1  0  0  0
  2  3  1  0  0  0
  2 25  1  0  0  0
  2 90  1  0  0  0
  2 91  1  0  0  0
  3  4  1  0  0  0
  3 92  1  0  0  0
  3 93  1  0  0  0
  4  5  1  0  0  0
  4 94  1  0  0  0
  4 95  1  0  0  0
  5  6  1  0  0  0
  5 26  1  0  0  0
  5 96  1  0  0  0
  6 25  1  0  0  0
  6 97  1  0  0  0
  6 98  1  0  0  0
  7  8  2  0  0  0
  7 26  1  0  0  0
  7 29  1  0  0  0
  8  9  1  0  0  0
  8 22  1  0  0  0
  9 10  1  0  0  0
  9 27  2  0  0  0
 10 11  2  0  0  0
 10 15  1  0  0  0
 11 12  1  0  0  0
 11 99  1  0  0  0
 12 13  2  0  0  0
 12100  1  0  0  0
 13 14  1  0  0  0
 13 31  1  0  0  0
 14 15  2  0  0  0
 14101  1  0  0  0
 15102  1  0  0  0
 16 17  2  0  0  0
 16 21  1  0  0  0
 16 31  1  0  0  0
 17 18  1  0  0  0
 17103  1  0  0  0
 18 19  2  0  0  0
 18104  1  0  0  0
 19 20  1  0  0  0
 19 24  1  0  0  0
 20 21  2  0  0  0
 20105  1  0  0  0
 21 23  1  0  0  0
 22 28  1  0  0  0
 22 32  2  0  0  0
 26 27  1  0  0  0
 28106  1  0  0  0
 28107  1  0  0  0
 29108  1  0  0  0
 29109  1  0  0  0
 33 34  1  0  0  0
 33 66  1  0  0  0
 33 70  2  0  0  0
 34 36  1  0  0  0
 34 59  1  0  0  0
 34110  1  0  0  0
 35 44  2  0  0  0
 35 45  1  0  0  0
 35 68  1  0  0  0
 36 56  1  0  0  0
 36111  1  0  0  0
 37 39  1  0  0  0
 37 47  1  0  0  0
 37 66  1  0  0  0
 37112  1  0  0  0
 38 43  2  0  0  0
 38 46  1  0  0  0
 38 47  1  0  0  0
 39 64  1  0  0  0
 39 67  2  0  0  0
 40 52  1  0  0  0
 40 53  2  0  0  0
 40 58  1  0  0  0
 41113  1  0  0  0
 41114  1  0  0  0
 41115  1  0  0  0
 41 48  1  0  0  0
 42 43  1  0  0  0
 42 66  1  0  0  0
 42116  1  0  0  0
 42117  1  0  0  0
 43 44  1  0  0  0
 44118  1  0  0  0
 45 46  2  0  0  0
 45119  1  0  0  0
 46120  1  0  0  0
 47121  1  0  0  0
 47122  1  0  0  0
 48 56  1  0  0  0
 48 65  1  0  0  0
 48123  1  0  0  0
 49 50  1  0  0  0
 49 53  1  0  0  0
 49 64  1  0  0  0
 49124  1  0  0  0
 50 51  1  0  0  0
 50125  1  0  0  0
 50126  1  0  0  0
 51 52  1  0  0  0
 51127  1  0  0  0
 51128  1  0  0  0
 52129  1  0  0  0
 52130  1  0  0  0
 53 54  1  0  0  0
 54 55  2  0  0  0
 54131  1  0  0  0
 55 57  1  0  0  0
 55132  1  0  0  0
 56 69  2  0  0  0
 57 58  2  0  0  0
 57133  1  0  0  0
 58134  1  0  0  0
 59 60  1  0  0  0
 59 61  1  0  0  0
 59 62  1  0  0  0
 60135  1  0  0  0
 60136  1  0  0  0
 60137  1  0  0  0
 61138  1  0  0  0
 61139  1  0  0  0
 61140  1  0  0  0
 62141  1  0  0  0
 62142  1  0  0  0
 62143  1  0  0  0
 63 65  1  0  0  0
 63144  1  0  0  0
 63145  1  0  0  0
 63146  1  0  0  0
 64147  1  0  0  0
 65148  1  0  0  0
 68 86  1  0  0  0
 71 73  2  0  0  0
 71 74  1  0  0  0
 71149  1  0  0  0
 72 75  2  0  0  0
 72 76  1  0  0  0
 72150  1  0  0  0
 73 75  1  0  0  0
 73 83  1  0  0  0
 74 76  2  0  0  0
 74 86  1  0  0  0
 75 85  1  0  0  0
 76 89  1  0  0  0
 77 88  2  0  0  0
 77 81  1  0  0  0
 78 79  1  0  0  0
 78 81  1  0  0  0
 78151  1  0  0  0
 78152  1  0  0  0
 79 82  1  0  0  0
 79153  1  0  0  0
 79154  1  0  0  0
 80 81  1  0  0  0
 80 82  1  0  0  0
 80155  1  0  0  0
 80156  1  0  0  0
 81157  1  0  0  0
 82 87  1  0  0  0
 82158  1  0  0  0
 83159  1  0  0  0
 83160  1  0  0  0
 83161  1  0  0  0
 84 89  1  0  0  0
 84162  1  0  0  0
 84163  1  0  0  0
 84164  1  0  0  0
 85 87  1  0  0  0
 85165  1  0  0  0
 85166  1  0  0  0
 86167  1  0  0  0
 86168  1  0  0  0
 87169  1  0  0  0
 87170  1  0  0  0
M  CHG  1  87   1
M  ISO  4   1 100  68 101  77 100  86 101
M  END
> <chiral flag>
0

> <version>
0

> <s_m_source_file>
/data/baiqing/PycharmProjects/Reinvent-master-3.2/result/LINK_invent/BTK/process_docking_weight1_custom_sum_contain_oxygen_bond_distance_aromatic_linkinvent_7_9_3/rearranged_h_0148.sdf

> <i_m_source_file_index>
31

> <r_mmod_Potential_Energy-OPLS-2005>
3.20661044120789

> <r_mmod_Stretch_Energy-OPLS-2005>
38.0225982666016

> <r_mmod_Bend_Energy-OPLS-2005>
145.204559326172

> <r_mmod_Torsional_Energy-OPLS-2005>
234.525360107422

> <r_mmod_Improper_Torsional_Energy-OPLS-2005>
4.9186315536499

> <r_mmod_Van_der_Waal_Energy-OPLS-2005>
164.914169311523

> <r_mmod_Electrostatic_Energy-OPLS-2005>
-148.52490234375

> <r_mmod_Solvation_Energy-OPLS-2005>
-446.51318359375

> <b_mmod_Minimization_Converged-OPLS-2005>
0

> <r_mmod_RMS_Derivative-OPLS-2005>
0.81600433588028

$$$$
31
                    3D
 Structure written by MMmdl.
160169  0  0  1  0            999 V2000
  -30.4923  -15.1735   20.3798 C   0  0  0  0  0  0
  -30.4324  -12.7392   19.5325 C   0  0  0  0  0  0
  -29.5329  -12.5649   18.2846 C   0  0  0  0  0  0
  -28.0768  -12.3006   18.7053 C   0  0  0  0  0  0
  -27.6143  -13.2697   19.8240 C   0  0  2  0  0  0
  -28.6473  -13.4148   20.9629 C   0  0  0  0  0  0
  -25.2395  -13.8252   20.5709 C   0  0  0  0  0  0
  -24.1742  -13.0452   20.9247 C   0  0  0  0  0  0
  -24.6379  -11.6943   20.8743 C   0  0  0  0  0  0
  -23.9082  -10.4295   21.0393 C   0  0  0  0  0  0
  -24.3628   -9.4216   21.9172 C   0  0  0  0  0  0
  -23.6295   -8.2252   22.0745 C   0  0  0  0  0  0
  -22.4269   -8.0287   21.3545 C   0  0  0  0  0  0
  -21.9913   -9.0261   20.4646 C   0  0  0  0  0  0
  -22.7249  -10.2136   20.3055 C   0  0  0  0  0  0
  -21.6869   -6.0730   22.5280 C   0  0  0  0  0  0
  -21.4020   -6.5622   23.8217 C   0  0  0  0  0  0
  -21.3664   -5.6777   24.9179 C   0  0  0  0  0  0
  -21.6050   -4.3041   24.7232 C   0  0  0  0  0  0
  -21.8822   -3.8134   23.4348 C   0  0  0  0  0  0
  -21.9196   -4.6954   22.3409 C   0  0  0  0  0  0
  -22.7752  -13.5206   21.1916 C   0  0  0  0  0  0
  -22.1662   -4.2136   21.0984 F   0  0  0  0  0  0
  -21.5629   -3.4531   25.7748 F   0  0  0  0  0  0
  -29.8993  -13.8862   20.3504 N   0  0  0  0  0  0
  -26.2815  -12.9517   20.3195 N   0  0  0  0  0  0
  -25.9312  -11.6623   20.5697 N   0  0  0  0  0  0
  -22.0410  -12.8189   22.0471 N   0  0  0  0  0  0
  -25.4033  -15.1988   20.4122 N   0  0  0  0  0  0
  -31.7065  -15.1593   20.1366 O   0  0  0  0  0  0
  -21.6651   -6.8871   21.4240 O   0  0  0  0  0  0
  -22.3433  -14.5506   20.6769 O   0  0  0  0  0  0
  -24.6586  -31.8275   23.1747 C   0  0  0  0  0  0
  -25.9288  -32.4613   23.8192 C   0  0  1  0  0  0
  -27.2216  -26.9703   20.1733 C   0  0  0  0  0  0
  -25.5972  -33.8431   24.2094 N   0  0  0  0  0  0
  -23.4725  -30.4400   21.5239 C   0  0  2  0  0  0
  -24.9273  -28.8404   20.1109 C   0  0  0  0  0  0
  -22.7649  -29.4456   22.4811 C   0  0  0  0  0  0
  -18.0314  -28.1406   22.8473 C   0  0  0  0  0  0
  -24.1505  -36.7203   23.2646 C   0  0  0  0  0  0
  -26.0407  -30.6466   21.4024 C   0  0  0  0  0  0
  -26.1098  -29.2416   20.7441 C   0  0  0  0  0  0
  -27.2532  -28.3265   20.7545 C   0  0  0  0  0  0
  -26.0124  -26.7204   19.4844 C   0  0  0  0  0  0
  -24.9018  -27.5985   19.4606 C   0  0  0  0  0  0
  -23.7094  -29.7602   20.1491 C   0  0  0  0  0  0
  -25.4151  -36.2972   24.0296 C   0  0  1  0  0  0
  -20.5946  -28.3749   23.1211 C   0  0  2  0  0  0
  -20.6802  -26.9438   22.5415 C   0  0  0  0  0  0
  -19.5773  -26.6378   21.5228 C   0  0  0  0  0  0
  -18.1949  -26.7943   22.1623 C   0  0  0  0  0  0
  -19.1577  -28.8896   23.2828 C   0  0  0  0  0  0
  -18.9488  -30.1489   23.8859 C   0  0  0  0  0  0
  -17.6482  -30.6603   24.0553 C   0  0  0  0  0  0
  -25.9104  -34.9361   23.5013 C   0  0  0  0  0  0
  -16.5366  -29.9086   23.6346 C   0  0  0  0  0  0
  -16.7299  -28.6500   23.0373 C   0  0  0  0  0  0
  -26.4553  -31.6540   25.0713 C   0  0  0  0  0  0
  -25.3694  -31.3791   26.1378 C   0  0  0  0  0  0
  -27.0429  -30.2896   24.6438 C   0  0  0  0  0  0
  -27.6035  -32.4358   25.7509 C   0  0  0  0  0  0
  -27.5576  -37.1773   24.8467 C   0  0  0  0  0  0
  -21.4323  -29.3039   22.3558 N   0  0  0  0  0  0
  -26.4292  -37.3705   23.9395 N   0  0  0  0  0  0
  -24.7446  -30.9978   22.0866 N   0  0  0  0  0  0
  -23.4213  -28.8025   23.3043 O   0  0  0  0  0  0
  -28.2093  -25.8631   20.2620 O   0  0  0  0  0  0
  -26.5712  -34.8884   22.4607 O   0  0  0  0  0  0
  -23.5667  -32.1228   23.6866 O   0  0  0  0  0  0
  -29.8753  -22.2425   20.4244 C   0  0  0  0  0  0
  -27.7362  -21.5114   20.0396 C   0  0  0  0  0  0
  -30.3401  -20.8232   20.4510 C   0  0  0  0  0  0
  -28.5286  -22.7269   20.1951 C   0  0  0  0  0  0
  -28.1644  -20.0900   20.0671 C   0  0  0  0  0  0
  -29.5188  -19.6080   20.2662 C   0  0  0  0  0  0
  -32.8722  -21.6215   20.2487 C   0  0  0  0  0  0
  -32.7886  -20.2670   19.5989 C   0  0  0  0  0  0
  -31.8168  -20.6279   20.7030 C   0  0  0  0  0  0
  -27.0977  -19.0429   19.8100 C   0  0  0  0  0  0
  -30.3890  -17.8975   18.5198 C   0  0  0  0  0  0
  -27.8294  -24.3073   19.9837 C   0  0  0  0  0  0
  -30.1617  -17.9978   20.0394 C   0  0  2  0  0  0
  -29.7672  -16.4529   20.4522 N   0  0  0  0  0  0
  -31.4603  -12.9099   19.2124 H   0  0  0  0  0  0
  -30.4581  -11.8193   20.1204 H   0  0  0  0  0  0
  -29.8997  -11.7484   17.6615 H   0  0  0  0  0  0
  -29.5806  -13.4674   17.6717 H   0  0  0  0  0  0
  -28.0214  -11.2713   19.0661 H   0  0  0  0  0  0
  -27.4123  -12.3584   17.8424 H   0  0  0  0  0  0
  -27.5401  -14.2438   19.3389 H   0  0  0  0  0  0
  -28.7862  -12.4725   21.4960 H   0  0  0  0  0  0
  -28.2961  -14.1412   21.6977 H   0  0  0  0  0  0
  -25.2763   -9.5697   22.4761 H   0  0  0  0  0  0
  -24.0012   -7.4641   22.7462 H   0  0  0  0  0  0
  -21.0849   -8.8785   19.8944 H   0  0  0  0  0  0
  -22.3699  -10.9682   19.6178 H   0  0  0  0  0  0
  -21.2003   -7.6128   23.9718 H   0  0  0  0  0  0
  -21.1485   -6.0504   25.9086 H   0  0  0  0  0  0
  -22.0588   -2.7595   23.2866 H   0  0  0  0  0  0
  -22.4024  -11.9858   22.4878 H   0  0  0  0  0  0
  -21.1026  -13.1210   22.2669 H   0  0  0  0  0  0
  -24.6291  -15.8467   20.5133 H   0  0  0  0  0  0
  -26.2416  -15.6367   20.0562 H   0  0  0  0  0  0
  -26.7354  -32.5159   23.0910 H   0  0  0  0  0  0
  -25.0089  -33.9528   25.0219 H   0  0  0  0  0  0
  -22.7824  -31.2697   21.3577 H   0  0  0  0  0  0
  -23.3771  -35.9529   23.3309 H   0  0  0  0  0  0
  -24.3566  -36.8847   22.2053 H   0  0  0  0  0  0
  -23.7264  -37.6395   23.6704 H   0  0  0  0  0  0
  -26.2248  -31.3921   20.6278 H   0  0  0  0  0  0
  -26.8992  -30.6966   22.0603 H   0  0  0  0  0  0
  -28.1469  -28.6296   21.2809 H   0  0  0  0  0  0
  -25.8790  -25.7776   18.9769 H   0  0  0  0  0  0
  -24.0051  -27.2853   18.9444 H   0  0  0  0  0  0
  -23.8587  -30.5307   19.3927 H   0  0  0  0  0  0
  -22.8215  -29.2091   19.8330 H   0  0  0  0  0  0
  -25.1361  -36.1770   25.0785 H   0  0  0  0  0  0
  -21.0018  -28.3354   24.1342 H   0  0  0  0  0  0
  -20.5702  -26.2363   23.3651 H   0  0  0  0  0  0
  -21.6665  -26.7436   22.1210 H   0  0  0  0  0  0
  -19.6936  -25.6276   21.1285 H   0  0  0  0  0  0
  -19.6715  -27.3176   20.6747 H   0  0  0  0  0  0
  -17.4228  -26.6694   21.4017 H   0  0  0  0  0  0
  -18.0329  -26.0102   22.9026 H   0  0  0  0  0  0
  -19.7956  -30.7313   24.2211 H   0  0  0  0  0  0
  -17.5030  -31.6282   24.5153 H   0  0  0  0  0  0
  -15.5368  -30.2970   23.7702 H   0  0  0  0  0  0
  -15.8698  -28.0801   22.7130 H   0  0  0  0  0  0
  -24.5894  -30.7115   25.7696 H   0  0  0  0  0  0
  -24.8874  -32.2996   26.4679 H   0  0  0  0  0  0
  -25.7950  -30.9043   27.0233 H   0  0  0  0  0  0
  -26.3082  -29.6592   24.1423 H   0  0  0  0  0  0
  -27.3908  -29.7242   25.5095 H   0  0  0  0  0  0
  -27.9054  -30.4040   23.9877 H   0  0  0  0  0  0
  -27.2581  -33.3688   26.1978 H   0  0  0  0  0  0
  -28.3909  -32.6884   25.0393 H   0  0  0  0  0  0
  -28.0650  -31.8572   26.5526 H   0  0  0  0  0  0
  -28.2599  -38.0063   24.7488 H   0  0  0  0  0  0
  -28.1073  -36.2591   24.6340 H   0  0  0  0  0  0
  -27.2290  -37.1467   25.8870 H   0  0  0  0  0  0
  -20.9569  -29.8696   21.6664 H   0  0  0  0  0  0
  -26.0143  -38.2764   24.1388 H   0  0  0  0  0  0
  -30.6176  -23.0148   20.5730 H   0  0  0  0  0  0
  -26.6871  -21.6835   19.8435 H   0  0  0  0  0  0
  -32.5880  -22.4637   19.6213 H   0  0  0  0  0  0
  -33.7267  -21.7972   20.8994 H   0  0  0  0  0  0
  -33.5868  -19.5646   19.8327 H   0  0  0  0  0  0
  -32.4436  -20.2595   18.5685 H   0  0  0  0  0  0
  -31.9727  -20.1609   21.6746 H   0  0  0  0  0  0
  -26.0949  -19.4694   19.8565 H   0  0  0  0  0  0
  -27.1552  -18.2471   20.5530 H   0  0  0  0  0  0
  -27.2327  -18.6019   18.8224 H   0  0  0  0  0  0
  -30.8867  -18.7791   18.1260 H   0  0  0  0  0  0
  -29.4422  -17.8074   17.9882 H   0  0  0  0  0  0
  -31.0042  -17.0396   18.2448 H   0  0  0  0  0  0
  -26.8603  -24.1940   20.4721 H   0  0  0  0  0  0
  -27.5986  -24.3011   18.9180 H   0  0  0  0  0  0
  -31.1520  -18.0705   20.4909 H   0  0  0  0  0  0
  -28.7900  -16.3328   20.6724 H   0  0  0  0  0  0
  1 25  1  0  0  0
  1 30  2  0  0  0
  1 84  1  0  0  0
  2  3  1  0  0  0
  2 25  1  0  0  0
  2 85  1  0  0  0
  2 86  1  0  0  0
  3  4  1  0  0  0
  3 87  1  0  0  0
  3 88  1  0  0  0
  4  5  1  0  0  0
  4 89  1  0  0  0
  4 90  1  0  0  0
  5  6  1  0  0  0
  5 26  1  0  0  0
  5 91  1  0  0  0
  6 25  1  0  0  0
  6 92  1  0  0  0
  6 93  1  0  0  0
  7  8  2  0  0  0
  7 26  1  0  0  0
  7 29  1  0  0  0
  8  9  1  0  0  0
  8 22  1  0  0  0
  9 10  1  0  0  0
  9 27  2  0  0  0
 10 11  2  0  0  0
 10 15  1  0  0  0
 11 12  1  0  0  0
 11 94  1  0  0  0
 12 13  2  0  0  0
 12 95  1  0  0  0
 13 14  1  0  0  0
 13 31  1  0  0  0
 14 15  2  0  0  0
 14 96  1  0  0  0
 15 97  1  0  0  0
 16 17  2  0  0  0
 16 21  1  0  0  0
 16 31  1  0  0  0
 17 18  1  0  0  0
 17 98  1  0  0  0
 18 19  2  0  0  0
 18 99  1  0  0  0
 19 20  1  0  0  0
 19 24  1  0  0  0
 20 21  2  0  0  0
 20100  1  0  0  0
 21 23  1  0  0  0
 22 28  1  0  0  0
 22 32  2  0  0  0
 26 27  1  0  0  0
 28101  1  0  0  0
 28102  1  0  0  0
 29103  1  0  0  0
 29104  1  0  0  0
 33 34  1  0  0  0
 33 66  1  0  0  0
 33 70  2  0  0  0
 34 36  1  0  0  0
 34 59  1  0  0  0
 34105  1  0  0  0
 35 44  2  0  0  0
 35 45  1  0  0  0
 35 68  1  0  0  0
 36 56  1  0  0  0
 36106  1  0  0  0
 37 39  1  0  0  0
 37 47  1  0  0  0
 37 66  1  0  0  0
 37107  1  0  0  0
 38 43  2  0  0  0
 38 46  1  0  0  0
 38 47  1  0  0  0
 39 64  1  0  0  0
 39 67  2  0  0  0
 40 52  1  0  0  0
 40 53  2  0  0  0
 40 58  1  0  0  0
 41108  1  0  0  0
 41109  1  0  0  0
 41110  1  0  0  0
 41 48  1  0  0  0
 42 43  1  0  0  0
 42 66  1  0  0  0
 42111  1  0  0  0
 42112  1  0  0  0
 43 44  1  0  0  0
 44113  1  0  0  0
 45 46  2  0  0  0
 45114  1  0  0  0
 46115  1  0  0  0
 47116  1  0  0  0
 47117  1  0  0  0
 48 56  1  0  0  0
 48 65  1  0  0  0
 48118  1  0  0  0
 49 50  1  0  0  0
 49 53  1  0  0  0
 49 64  1  0  0  0
 49119  1  0  0  0
 50 51  1  0  0  0
 50120  1  0  0  0
 50121  1  0  0  0
 51 52  1  0  0  0
 51122  1  0  0  0
 51123  1  0  0  0
 52124  1  0  0  0
 52125  1  0  0  0
 53 54  1  0  0  0
 54 55  2  0  0  0
 54126  1  0  0  0
 55 57  1  0  0  0
 55127  1  0  0  0
 56 69  2  0  0  0
 57 58  2  0  0  0
 57128  1  0  0  0
 58129  1  0  0  0
 59 60  1  0  0  0
 59 61  1  0  0  0
 59 62  1  0  0  0
 60130  1  0  0  0
 60131  1  0  0  0
 60132  1  0  0  0
 61133  1  0  0  0
 61134  1  0  0  0
 61135  1  0  0  0
 62136  1  0  0  0
 62137  1  0  0  0
 62138  1  0  0  0
 63 65  1  0  0  0
 63139  1  0  0  0
 63140  1  0  0  0
 63141  1  0  0  0
 64142  1  0  0  0
 65143  1  0  0  0
 68 82  1  0  0  0
 71 73  2  0  0  0
 71 74  1  0  0  0
 71144  1  0  0  0
 72 74  2  0  0  0
 72 75  1  0  0  0
 72145  1  0  0  0
 73 76  1  0  0  0
 73 79  1  0  0  0
 74 82  1  0  0  0
 75 76  2  0  0  0
 75 80  1  0  0  0
 76 83  1  0  0  0
 77 78  1  0  0  0
 77 79  1  0  0  0
 77146  1  0  0  0
 77147  1  0  0  0
 78 79  1  0  0  0
 78148  1  0  0  0
 78149  1  0  0  0
 79150  1  0  0  0
 80151  1  0  0  0
 80152  1  0  0  0
 80153  1  0  0  0
 81154  1  0  0  0
 81155  1  0  0  0
 81156  1  0  0  0
 81 83  1  0  0  0
 82157  1  0  0  0
 82158  1  0  0  0
 83 84  1  0  0  0
 83159  1  0  0  0
 84160  1  0  0  0
M  ISO  4   1 100  68 101  82 101  84 100
M  END
> <chiral flag>
0

> <version>
0

> <s_m_source_file>
/data/baiqing/PycharmProjects/Reinvent-master-3.2/result/LINK_invent/BTK/process_docking_weight1_custom_sum_contain_oxygen_bond_distance_aromatic_linkinvent_7_9_3/rearranged_h_0148.sdf

> <i_m_source_file_index>
32

> <r_mmod_Potential_Energy-OPLS-2005>
1069.98461914062

> <r_mmod_Stretch_Energy-OPLS-2005>
464.890472412109

> <r_mmod_Bend_Energy-OPLS-2005>
436.745483398438

> <r_mmod_Torsional_Energy-OPLS-2005>
246.840789794922

> <r_mmod_Improper_Torsional_Energy-OPLS-2005>
7.13935279846191

> <r_mmod_Van_der_Waal_Energy-OPLS-2005>
128.255508422852

> <r_mmod_Electrostatic_Energy-OPLS-2005>
-388.425842285156

> <r_mmod_Solvation_Energy-OPLS-2005>
-207.639587402344

> <b_mmod_Minimization_Converged-OPLS-2005>
0

> <r_mmod_RMS_Derivative-OPLS-2005>
1.98633372783661

$$$$
32
                    3D
 Structure written by MMmdl.
164174  0  0  1  0            999 V2000
  -30.6962  -14.4812   20.5054 C   0  0  0  0  0  0
  -30.4147  -12.2943   19.4239 C   0  0  0  0  0  0
  -29.4899  -12.4779   18.2033 C   0  0  0  0  0  0
  -28.0102  -12.3527   18.6188 C   0  0  0  0  0  0
  -27.6529  -13.2065   19.8663 C   0  0  2  0  0  0
  -28.6992  -13.0293   20.9889 C   0  0  0  0  0  0
  -25.2572  -13.8157   20.5688 C   0  0  0  0  0  0
  -24.1822  -13.0434   20.9180 C   0  0  0  0  0  0
  -24.6376  -11.6902   20.8746 C   0  0  0  0  0  0
  -23.9045  -10.4293   21.0417 C   0  0  0  0  0  0
  -24.3602   -9.4210   21.9189 C   0  0  0  0  0  0
  -23.6279   -8.2245   22.0758 C   0  0  0  0  0  0
  -22.4264   -8.0280   21.3548 C   0  0  0  0  0  0
  -21.9898   -9.0254   20.4652 C   0  0  0  0  0  0
  -22.7223  -10.2134   20.3063 C   0  0  0  0  0  0
  -21.6851   -6.0731   22.5278 C   0  0  0  0  0  0
  -21.4014   -6.5636   23.8210 C   0  0  0  0  0  0
  -21.3653   -5.6791   24.9173 C   0  0  0  0  0  0
  -21.6043   -4.3053   24.7228 C   0  0  0  0  0  0
  -21.8818   -3.8144   23.4349 C   0  0  0  0  0  0
  -21.9194   -4.6960   22.3404 C   0  0  0  0  0  0
  -22.7849  -13.5242   21.1839 C   0  0  0  0  0  0
  -22.1664   -4.2141   21.0982 F   0  0  0  0  0  0
  -21.5627   -3.4541   25.7743 F   0  0  0  0  0  0
  -30.0228  -13.3052   20.4152 N   0  0  0  0  0  0
  -26.2989  -12.9316   20.3360 N   0  0  0  0  0  0
  -25.9306  -11.6482   20.5790 N   0  0  0  0  0  0
  -22.0480  -12.8246   22.0395 N   0  0  0  0  0  0
  -25.4308  -15.1872   20.4102 N   0  0  0  0  0  0
  -31.8804  -14.5997   20.1714 O   0  0  0  0  0  0
  -21.6629   -6.8876   21.4242 O   0  0  0  0  0  0
  -22.3545  -14.5552   20.6690 O   0  0  0  0  0  0
  -24.6116  -31.8680   23.2072 C   0  0  0  0  0  0
  -25.9010  -32.4813   23.8380 C   0  0  1  0  0  0
  -27.2407  -27.4377   20.1049 C   0  0  0  0  0  0
  -25.5876  -33.8618   24.2311 N   0  0  0  0  0  0
  -23.4006  -30.4866   21.5475 C   0  0  2  0  0  0
  -24.8465  -28.9414   20.1190 C   0  0  0  0  0  0
  -22.7396  -29.4649   22.5004 C   0  0  0  0  0  0
  -18.0260  -28.1370   22.8491 C   0  0  0  0  0  0
  -24.1488  -36.7316   23.2642 C   0  0  0  0  0  0
  -25.9247  -30.8348   21.3563 C   0  0  0  0  0  0
  -26.0011  -29.4656   20.7102 C   0  0  0  0  0  0
  -27.1976  -28.7208   20.6944 C   0  0  0  0  0  0
  -26.0702  -26.9130   19.5173 C   0  0  0  0  0  0
  -24.8755  -27.6658   19.5208 C   0  0  0  0  0  0
  -23.6076  -29.8076   20.1648 C   0  0  0  0  0  0
  -25.4107  -36.3104   24.0335 C   0  0  1  0  0  0
  -20.5848  -28.3660   23.1324 C   0  0  2  0  0  0
  -20.6754  -26.9399   22.5429 C   0  0  0  0  0  0
  -19.5735  -26.6386   21.5220 C   0  0  0  0  0  0
  -18.1906  -26.7915   22.1619 C   0  0  0  0  0  0
  -19.1510  -28.8829   23.2903 C   0  0  0  0  0  0
  -18.9448  -30.1432   23.8917 C   0  0  0  0  0  0
  -17.6456  -30.6584   24.0555 C   0  0  0  0  0  0
  -25.9034  -34.9472   23.5130 C   0  0  0  0  0  0
  -16.5343  -29.9088   23.6317 C   0  0  0  0  0  0
  -16.7251  -28.6498   23.0346 C   0  0  0  0  0  0
  -26.4459  -31.6588   25.0706 C   0  0  0  0  0  0
  -25.3730  -31.3702   26.1467 C   0  0  0  0  0  0
  -27.0288  -30.3025   24.6085 C   0  0  0  0  0  0
  -27.6044  -32.4306   25.7456 C   0  0  0  0  0  0
  -27.5577  -37.1809   24.8469 C   0  0  0  0  0  0
  -21.4126  -29.3027   22.3738 N   0  0  0  0  0  0
  -26.4296  -37.3781   23.9406 N   0  0  0  0  0  0
  -24.6637  -31.0786   22.0959 N   0  0  0  0  0  0
  -23.4173  -28.8190   23.3040 O   0  0  0  0  0  0
  -28.4527  -26.7881   20.1057 O   0  0  0  0  0  0
  -26.5612  -34.8927   22.4698 O   0  0  0  0  0  0
  -23.5310  -32.1443   23.7471 O   0  0  0  0  0  0
  -29.8725  -20.9807   19.9793 C   0  0  0  0  0  0
  -29.5038  -22.3381   20.0250 C   0  0  0  0  0  0
  -27.8355  -20.3887   21.1429 C   0  0  0  0  0  0
  -29.0634  -19.9904   20.5699 C   0  0  0  0  0  0
  -28.3199  -22.7675   20.6710 C   0  0  0  0  0  0
  -27.4614  -21.7581   21.1939 C   0  0  0  0  0  0
  -29.4048  -17.7694   21.8958 C   0  0  0  0  0  0
  -28.9399  -17.6622   19.4876 C   0  0  0  0  0  0
  -29.2644  -25.0884   21.2496 C   0  0  0  0  0  0
  -30.1649  -16.4185   21.8465 C   0  0  0  0  0  0
  -29.7178  -16.3357   19.3704 C   0  0  0  0  0  0
  -29.5590  -18.5366   20.5745 C   0  0  0  0  0  0
  -28.0739  -24.2669   20.8640 C   0  0  1  0  0  0
  -28.5808  -25.3738   19.9203 C   0  0  2  0  0  0
  -26.1361  -22.1158   21.8437 C   0  0  0  0  0  0
  -29.9254  -15.5928   20.6400 N   0  0  0  0  0  0
  -31.4608  -12.3832   19.1234 H   0  0  0  0  0  0
  -30.3067  -11.2937   19.8443 H   0  0  0  0  0  0
  -29.7259  -11.7364   17.4387 H   0  0  0  0  0  0
  -29.6645  -13.4517   17.7445 H   0  0  0  0  0  0
  -27.8154  -11.2999   18.8258 H   0  0  0  0  0  0
  -27.3618  -12.6197   17.7834 H   0  0  0  0  0  0
  -27.6759  -14.2465   19.5471 H   0  0  0  0  0  0
  -28.6738  -12.0138   21.3857 H   0  0  0  0  0  0
  -28.4816  -13.6915   21.8287 H   0  0  0  0  0  0
  -25.2748   -9.5683   22.4758 H   0  0  0  0  0  0
  -23.9988   -7.4635   22.7476 H   0  0  0  0  0  0
  -21.0830   -8.8776   19.8953 H   0  0  0  0  0  0
  -22.3689  -10.9673   19.6168 H   0  0  0  0  0  0
  -21.2004   -7.6142   23.9714 H   0  0  0  0  0  0
  -21.1475   -6.0519   25.9074 H   0  0  0  0  0  0
  -22.0603   -2.7605   23.2855 H   0  0  0  0  0  0
  -22.4086  -11.9905   22.4786 H   0  0  0  0  0  0
  -21.1099  -13.1292   22.2593 H   0  0  0  0  0  0
  -24.6692  -15.8472   20.5224 H   0  0  0  0  0  0
  -26.2995  -15.6244   20.1301 H   0  0  0  0  0  0
  -26.7065  -32.5535   23.1133 H   0  0  0  0  0  0
  -25.0005  -33.9801   25.0443 H   0  0  0  0  0  0
  -22.6908  -31.3037   21.4036 H   0  0  0  0  0  0
  -23.3747  -35.9652   23.3319 H   0  0  0  0  0  0
  -24.3578  -36.8933   22.2055 H   0  0  0  0  0  0
  -23.7263  -37.6531   23.6657 H   0  0  0  0  0  0
  -26.0338  -31.5965   20.5826 H   0  0  0  0  0  0
  -26.8139  -30.8911   21.9730 H   0  0  0  0  0  0
  -28.0951  -29.1288   21.1378 H   0  0  0  0  0  0
  -26.0791  -25.9383   19.0494 H   0  0  0  0  0  0
  -23.9852  -27.2584   19.0626 H   0  0  0  0  0  0
  -23.7140  -30.5768   19.3992 H   0  0  0  0  0  0
  -22.7316  -29.2241   19.8749 H   0  0  0  0  0  0
  -25.1279  -36.1968   25.0826 H   0  0  0  0  0  0
  -20.9931  -28.3226   24.1448 H   0  0  0  0  0  0
  -20.5666  -26.2269   23.3619 H   0  0  0  0  0  0
  -21.6625  -26.7454   22.1220 H   0  0  0  0  0  0
  -19.6918  -25.6308   21.1224 H   0  0  0  0  0  0
  -19.6670  -27.3222   20.6771 H   0  0  0  0  0  0
  -17.4187  -26.6665   21.4006 H   0  0  0  0  0  0
  -18.0289  -26.0051   22.9007 H   0  0  0  0  0  0
  -19.7936  -30.7222   24.2306 H   0  0  0  0  0  0
  -17.5022  -31.6268   24.5153 H   0  0  0  0  0  0
  -15.5341  -30.2993   23.7656 H   0  0  0  0  0  0
  -15.8643  -28.0828   22.7059 H   0  0  0  0  0  0
  -24.5878  -30.7074   25.7812 H   0  0  0  0  0  0
  -24.8950  -32.2862   26.4942 H   0  0  0  0  0  0
  -25.8080  -30.8848   27.0214 H   0  0  0  0  0  0
  -26.2840  -29.6777   24.1144 H   0  0  0  0  0  0
  -27.4066  -29.7258   25.4541 H   0  0  0  0  0  0
  -27.8653  -30.4342   23.9220 H   0  0  0  0  0  0
  -27.2679  -33.3603   26.2059 H   0  0  0  0  0  0
  -28.3829  -32.6882   25.0258 H   0  0  0  0  0  0
  -28.0734  -31.8419   26.5355 H   0  0  0  0  0  0
  -28.2601  -38.0095   24.7488 H   0  0  0  0  0  0
  -28.1059  -36.2629   24.6310 H   0  0  0  0  0  0
  -27.2294  -37.1481   25.8871 H   0  0  0  0  0  0
  -20.9302  -29.8735   21.6941 H   0  0  0  0  0  0
  -26.0186  -38.2859   24.1394 H   0  0  0  0  0  0
  -30.8094  -20.7095   19.5112 H   0  0  0  0  0  0
  -30.1841  -23.0584   19.5933 H   0  0  0  0  0  0
  -27.1857  -19.6379   21.5713 H   0  0  0  0  0  0
  -29.7949  -18.3669   22.7209 H   0  0  0  0  0  0
  -28.3507  -17.5944   22.1160 H   0  0  0  0  0  0
  -27.8858  -17.4771   19.6987 H   0  0  0  0  0  0
  -28.9753  -18.1800   18.5284 H   0  0  0  0  0  0
  -30.2596  -24.6524   21.2018 H   0  0  0  0  0  0
  -29.1156  -25.7708   22.0864 H   0  0  0  0  0  0
  -29.9115  -15.8324   22.7319 H   0  0  0  0  0  0
  -31.2349  -16.6267   21.9214 H   0  0  0  0  0  0
  -30.6901  -16.5551   18.9223 H   0  0  0  0  0  0
  -29.2052  -15.6945   18.6516 H   0  0  0  0  0  0
  -30.6308  -18.5945   20.3746 H   0  0  0  0  0  0
  -27.1431  -24.4732   21.3848 H   0  0  0  0  0  0
  -29.1228  -25.1159   19.0121 H   0  0  0  0  0  0
  -25.5488  -21.2237   22.0632 H   0  0  0  0  0  0
  -25.5361  -22.7422   21.1819 H   0  0  0  0  0  0
  -26.2973  -22.6483   22.7815 H   0  0  0  0  0  0
  1 25  1  0  0  0
  1 30  2  0  0  0
  1 86  1  0  0  0
  2  3  1  0  0  0
  2 25  1  0  0  0
  2 87  1  0  0  0
  2 88  1  0  0  0
  3  4  1  0  0  0
  3 89  1  0  0  0
  3 90  1  0  0  0
  4  5  1  0  0  0
  4 91  1  0  0  0
  4 92  1  0  0  0
  5  6  1  0  0  0
  5 26  1  0  0  0
  5 93  1  0  0  0
  6 25  1  0  0  0
  6 94  1  0  0  0
  6 95  1  0  0  0
  7  8  2  0  0  0
  7 26  1  0  0  0
  7 29  1  0  0  0
  8  9  1  0  0  0
  8 22  1  0  0  0
  9 10  1  0  0  0
  9 27  2  0  0  0
 10 11  2  0  0  0
 10 15  1  0  0  0
 11 12  1  0  0  0
 11 96  1  0  0  0
 12 13  2  0  0  0
 12 97  1  0  0  0
 13 14  1  0  0  0
 13 31  1  0  0  0
 14 15  2  0  0  0
 14 98  1  0  0  0
 15 99  1  0  0  0
 16 17  2  0  0  0
 16 21  1  0  0  0
 16 31  1  0  0  0
 17 18  1  0  0  0
 17100  1  0  0  0
 18 19  2  0  0  0
 18101  1  0  0  0
 19 20  1  0  0  0
 19 24  1  0  0  0
 20 21  2  0  0  0
 20102  1  0  0  0
 21 23  1  0  0  0
 22 28  1  0  0  0
 22 32  2  0  0  0
 26 27  1  0  0  0
 28103  1  0  0  0
 28104  1  0  0  0
 29105  1  0  0  0
 29106  1  0  0  0
 33 34  1  0  0  0
 33 66  1  0  0  0
 33 70  2  0  0  0
 34 36  1  0  0  0
 34 59  1  0  0  0
 34107  1  0  0  0
 35 44  2  0  0  0
 35 45  1  0  0  0
 35 68  1  0  0  0
 36 56  1  0  0  0
 36108  1  0  0  0
 37 39  1  0  0  0
 37 47  1  0  0  0
 37 66  1  0  0  0
 37109  1  0  0  0
 38 43  2  0  0  0
 38 46  1  0  0  0
 38 47  1  0  0  0
 39 64  1  0  0  0
 39 67  2  0  0  0
 40 52  1  0  0  0
 40 53  2  0  0  0
 40 58  1  0  0  0
 41110  1  0  0  0
 41111  1  0  0  0
 41112  1  0  0  0
 41 48  1  0  0  0
 42 43  1  0  0  0
 42 66  1  0  0  0
 42113  1  0  0  0
 42114  1  0  0  0
 43 44  1  0  0  0
 44115  1  0  0  0
 45 46  2  0  0  0
 45116  1  0  0  0
 46117  1  0  0  0
 47118  1  0  0  0
 47119  1  0  0  0
 48 56  1  0  0  0
 48 65  1  0  0  0
 48120  1  0  0  0
 49 50  1  0  0  0
 49 53  1  0  0  0
 49 64  1  0  0  0
 49121  1  0  0  0
 50 51  1  0  0  0
 50122  1  0  0  0
 50123  1  0  0  0
 51 52  1  0  0  0
 51124  1  0  0  0
 51125  1  0  0  0
 52126  1  0  0  0
 52127  1  0  0  0
 53 54  1  0  0  0
 54 55  2  0  0  0
 54128  1  0  0  0
 55 57  1  0  0  0
 55129  1  0  0  0
 56 69  2  0  0  0
 57 58  2  0  0  0
 57130  1  0  0  0
 58131  1  0  0  0
 59 60  1  0  0  0
 59 61  1  0  0  0
 59 62  1  0  0  0
 60132  1  0  0  0
 60133  1  0  0  0
 60134  1  0  0  0
 61135  1  0  0  0
 61136  1  0  0  0
 61137  1  0  0  0
 62138  1  0  0  0
 62139  1  0  0  0
 62140  1  0  0  0
 63 65  1  0  0  0
 63141  1  0  0  0
 63142  1  0  0  0
 63143  1  0  0  0
 64144  1  0  0  0
 65145  1  0  0  0
 68 84  1  0  0  0
 71 72  2  0  0  0
 71 74  1  0  0  0
 71146  1  0  0  0
 72 75  1  0  0  0
 72147  1  0  0  0
 73 74  2  0  0  0
 73 76  1  0  0  0
 73148  1  0  0  0
 74 82  1  0  0  0
 75 76  2  0  0  0
 75 83  1  0  0  0
 76 85  1  0  0  0
 77 80  1  0  0  0
 77 82  1  0  0  0
 77149  1  0  0  0
 77150  1  0  0  0
 78 81  1  0  0  0
 78 82  1  0  0  0
 78151  1  0  0  0
 78152  1  0  0  0
 79 83  1  0  0  0
 79 84  1  0  0  0
 79153  1  0  0  0
 79154  1  0  0  0
 80 86  1  0  0  0
 80155  1  0  0  0
 80156  1  0  0  0
 81 86  1  0  0  0
 81157  1  0  0  0
 81158  1  0  0  0
 82159  1  0  0  0
 83 84  1  0  0  0
 83160  1  0  0  0
 84161  1  0  0  0
 85162  1  0  0  0
 85163  1  0  0  0
 85164  1  0  0  0
M  ISO  4   1 100  68 101  84 101  86 100
M  END
> <chiral flag>
0

> <version>
0

> <s_m_source_file>
/data/baiqing/PycharmProjects/Reinvent-master-3.2/result/LINK_invent/BTK/process_docking_weight1_custom_sum_contain_oxygen_bond_distance_aromatic_linkinvent_7_9_3/rearranged_h_0148.sdf

> <i_m_source_file_index>
33

> <r_mmod_Potential_Energy-OPLS-2005>
248.789810180664

> <r_mmod_Stretch_Energy-OPLS-2005>
42.1951065063477

> <r_mmod_Bend_Energy-OPLS-2005>
152.877532958984

> <r_mmod_Torsional_Energy-OPLS-2005>
352.880645751953

> <r_mmod_Improper_Torsional_Energy-OPLS-2005>
12.6389560699463

> <r_mmod_Van_der_Waal_Energy-OPLS-2005>
150.885391235352

> <r_mmod_Electrostatic_Energy-OPLS-2005>
-294.7783203125

> <r_mmod_Solvation_Energy-OPLS-2005>
-186.106918334961

> <b_mmod_Minimization_Converged-OPLS-2005>
0

> <r_mmod_RMS_Derivative-OPLS-2005>
1.38656258583069

$$$$
33
                    3D
 Structure written by MMmdl.
179188  0  0  1  0            999 V2000
  -30.5668  -14.7257   20.4872 C   0  0  0  0  0  0
  -30.4464  -12.4442   19.4602 C   0  0  0  0  0  0
  -29.5145  -12.5207   18.2283 C   0  0  0  0  0  0
  -28.0361  -12.3491   18.6394 C   0  0  0  0  0  0
  -27.6476  -13.2210   19.8633 C   0  0  2  0  0  0
  -28.6954  -13.0968   20.9901 C   0  0  0  0  0  0
  -25.2524  -13.8143   20.5654 C   0  0  0  0  0  0
  -24.1809  -13.0435   20.9148 C   0  0  0  0  0  0
  -24.6410  -11.6909   20.8765 C   0  0  0  0  0  0
  -23.9101  -10.4337   21.0432 C   0  0  0  0  0  0
  -24.3644   -9.4213   21.9174 C   0  0  0  0  0  0
  -23.6279   -8.2283   22.0732 C   0  0  0  0  0  0
  -22.4240   -8.0367   21.3541 C   0  0  0  0  0  0
  -21.9898   -9.0372   20.4646 C   0  0  0  0  0  0
  -22.7293  -10.2213   20.3059 C   0  0  0  0  0  0
  -21.6830   -6.0805   22.5260 C   0  0  0  0  0  0
  -21.4018   -6.5687   23.8199 C   0  0  0  0  0  0
  -21.3656   -5.6818   24.9152 C   0  0  0  0  0  0
  -21.6029   -4.3090   24.7171 C   0  0  0  0  0  0
  -21.8809   -3.8193   23.4282 C   0  0  0  0  0  0
  -21.9171   -4.7033   22.3356 C   0  0  0  0  0  0
  -22.7847  -13.5245   21.1815 C   0  0  0  0  0  0
  -22.1624   -4.2237   21.0923 F   0  0  0  0  0  0
  -21.5582   -3.4550   25.7656 F   0  0  0  0  0  0
  -29.9969  -13.4758   20.4216 N   0  0  0  0  0  0
  -26.2982  -12.9340   20.3343 N   0  0  0  0  0  0
  -25.9357  -11.6509   20.5817 N   0  0  0  0  0  0
  -22.0568  -12.8282   22.0443 N   0  0  0  0  0  0
  -25.4279  -15.1839   20.4079 N   0  0  0  0  0  0
  -31.7463  -14.8726   20.1496 O   0  0  0  0  0  0
  -21.6599   -6.8965   21.4222 O   0  0  0  0  0  0
  -22.3487  -14.5516   20.6622 O   0  0  0  0  0  0
  -24.6311  -31.8540   23.1959 C   0  0  0  0  0  0
  -25.9154  -32.4736   23.8305 C   0  0  1  0  0  0
  -27.2191  -27.2587   20.1440 C   0  0  0  0  0  0
  -25.5951  -33.8536   24.2232 N   0  0  0  0  0  0
  -23.4275  -30.4762   21.5386 C   0  0  2  0  0  0
  -24.8753  -28.9197   20.1101 C   0  0  0  0  0  0
  -22.7504  -29.4620   22.4907 C   0  0  0  0  0  0
  -18.0289  -28.1410   22.8478 C   0  0  0  0  0  0
  -24.1488  -36.7272   23.2640 C   0  0  0  0  0  0
  -25.9726  -30.7712   21.3725 C   0  0  0  0  0  0
  -26.0463  -29.3927   20.7153 C   0  0  0  0  0  0
  -27.2226  -28.5778   20.7132 C   0  0  0  0  0  0
  -26.0277  -26.8500   19.5082 C   0  0  0  0  0  0
  -24.8725  -27.6591   19.4903 C   0  0  0  0  0  0
  -23.6458  -29.8068   20.1557 C   0  0  0  0  0  0
  -25.4117  -36.3051   24.0320 C   0  0  1  0  0  0
  -20.5891  -28.3725   23.1264 C   0  0  2  0  0  0
  -20.6786  -26.9439   22.5415 C   0  0  0  0  0  0
  -19.5758  -26.6397   21.5221 C   0  0  0  0  0  0
  -18.1934  -26.7951   22.1630 C   0  0  0  0  0  0
  -19.1540  -28.8881   23.2865 C   0  0  0  0  0  0
  -18.9470  -30.1486   23.8876 C   0  0  0  0  0  0
  -17.6466  -30.6601   24.0569 C   0  0  0  0  0  0
  -25.9060  -34.9426   23.5068 C   0  0  0  0  0  0
  -16.5357  -29.9099   23.6341 C   0  0  0  0  0  0
  -16.7280  -28.6530   23.0341 C   0  0  0  0  0  0
  -26.4513  -31.6570   25.0704 C   0  0  0  0  0  0
  -25.3729  -31.3736   26.1421 C   0  0  0  0  0  0
  -27.0370  -30.2981   24.6225 C   0  0  0  0  0  0
  -27.6062  -32.4320   25.7477 C   0  0  0  0  0  0
  -27.5574  -37.1780   24.8459 C   0  0  0  0  0  0
  -21.4210  -29.3060   22.3641 N   0  0  0  0  0  0
  -26.4281  -37.3765   23.9408 N   0  0  0  0  0  0
  -24.6962  -31.0520   22.0921 N   0  0  0  0  0  0
  -23.4204  -28.8178   23.3022 O   0  0  0  0  0  0
  -28.3258  -26.3809   20.2028 O   0  0  0  0  0  0
  -26.5638  -34.8910   22.4638 O   0  0  0  0  0  0
  -23.5467  -32.1369   23.7265 O   0  0  0  0  0  0
  -28.6655  -19.4697   21.3675 C   0  0  0  0  0  0
  -30.2865  -19.4519   19.6304 C   0  0  0  0  0  0
  -29.4022  -20.2369   20.4303 C   0  0  0  0  0  0
  -28.7713  -18.0389   21.4944 C   0  0  0  0  0  0
  -29.6824  -17.2589   20.6960 C   0  0  0  0  0  0
  -30.4396  -18.0175   19.7475 C   0  0  0  0  0  0
  -29.0920  -22.6837   21.6004 C   0  0  0  0  0  0
  -28.2572  -22.4316   19.3037 C   0  0  0  0  0  0
  -29.1535  -24.2595   21.4001 C   0  0  0  0  0  0
  -28.3121  -24.0094   19.0995 C   0  0  0  0  0  0
  -29.3078  -21.8380   20.3002 C   0  0  2  0  0  0
  -28.1423  -24.8932   20.3819 C   0  0  2  0  0  0
  -26.4042  -17.7767   22.4481 C   0  0  0  0  0  0
  -28.4191  -17.6138   23.9649 C   0  0  0  0  0  0
  -30.6620  -17.7541   16.6435 C   0  0  0  0  0  0
  -30.0497  -16.3456   16.4643 C   0  0  0  0  0  0
  -31.7728  -17.7923   17.7122 C   0  0  0  0  0  0
  -27.8847  -17.3632   22.5508 C   0  0  0  0  0  0
  -29.7140  -15.7667   20.8225 N   0  0  0  0  0  0
  -28.9771  -16.3192   15.4526 N   0  3  0  0  0  0
  -31.3121  -17.2958   18.9640 O   0  0  0  0  0  0
  -31.4872  -12.5888   19.1604 H   0  0  0  0  0  0
  -30.4073  -11.4513   19.9123 H   0  0  0  0  0  0
  -29.7894  -11.7635   17.4929 H   0  0  0  0  0  0
  -29.6427  -13.4812   17.7293 H   0  0  0  0  0  0
  -27.8694  -11.2946   18.8623 H   0  0  0  0  0  0
  -27.3843  -12.5836   17.7978 H   0  0  0  0  0  0
  -27.6521  -14.2530   19.5130 H   0  0  0  0  0  0
  -28.7333  -12.0761   21.3726 H   0  0  0  0  0  0
  -28.4343  -13.7182   21.8467 H   0  0  0  0  0  0
  -25.2850   -9.5619   22.4662 H   0  0  0  0  0  0
  -23.9982   -7.4627   22.7400 H   0  0  0  0  0  0
  -21.0847   -8.8989   19.8895 H   0  0  0  0  0  0
  -22.3876  -10.9757   19.6112 H   0  0  0  0  0  0
  -21.2038   -7.6194   23.9741 H   0  0  0  0  0  0
  -21.1468   -6.0530   25.9059 H   0  0  0  0  0  0
  -22.0589   -2.7678   23.2714 H   0  0  0  0  0  0
  -22.4240  -11.9943   22.4742 H   0  0  0  0  0  0
  -21.1145  -13.1219   22.2614 H   0  0  0  0  0  0
  -24.6667  -15.8470   20.4948 H   0  0  0  0  0  0
  -26.3149  -15.6208   20.1962 H   0  0  0  0  0  0
  -26.7223  -32.5384   23.1047 H   0  0  0  0  0  0
  -25.0073  -33.9663   25.0363 H   0  0  0  0  0  0
  -22.7231  -31.2977   21.3902 H   0  0  0  0  0  0
  -23.3751  -35.9599   23.3283 H   0  0  0  0  0  0
  -24.3585  -36.8921   22.2057 H   0  0  0  0  0  0
  -23.7236  -37.6461   23.6688 H   0  0  0  0  0  0
  -26.1097  -31.5348   20.6053 H   0  0  0  0  0  0
  -26.8484  -30.8172   22.0092 H   0  0  0  0  0  0
  -28.1205  -28.9407   21.1949 H   0  0  0  0  0  0
  -25.9742  -25.8813   19.0332 H   0  0  0  0  0  0
  -23.9769  -27.2922   19.0079 H   0  0  0  0  0  0
  -23.7667  -30.5794   19.3943 H   0  0  0  0  0  0
  -22.7636  -29.2379   19.8561 H   0  0  0  0  0  0
  -25.1297  -36.1870   25.0814 H   0  0  0  0  0  0
  -20.9983  -28.3309   24.1383 H   0  0  0  0  0  0
  -20.5685  -26.2340   23.3623 H   0  0  0  0  0  0
  -21.6654  -26.7464   22.1199 H   0  0  0  0  0  0
  -19.6916  -25.6297   21.1262 H   0  0  0  0  0  0
  -19.6691  -27.3199   20.6735 H   0  0  0  0  0  0
  -17.4207  -26.6695   21.4034 H   0  0  0  0  0  0
  -18.0334  -26.0102   22.9032 H   0  0  0  0  0  0
  -19.7948  -30.7316   24.2226 H   0  0  0  0  0  0
  -17.5023  -31.6273   24.5191 H   0  0  0  0  0  0
  -15.5357  -30.2995   23.7684 H   0  0  0  0  0  0
  -15.8688  -28.0857   22.7041 H   0  0  0  0  0  0
  -24.5890  -30.7112   25.7738 H   0  0  0  0  0  0
  -24.8944  -32.2914   26.4842 H   0  0  0  0  0  0
  -25.8025  -30.8896   27.0200 H   0  0  0  0  0  0
  -26.2972  -29.6703   24.1250 H   0  0  0  0  0  0
  -27.4033  -29.7271   25.4767 H   0  0  0  0  0  0
  -27.8848  -30.4234   23.9489 H   0  0  0  0  0  0
  -27.2673  -33.3634   26.2029 H   0  0  0  0  0  0
  -28.3885  -32.6864   25.0313 H   0  0  0  0  0  0
  -28.0728  -31.8468   26.5416 H   0  0  0  0  0  0
  -28.2562  -38.0106   24.7531 H   0  0  0  0  0  0
  -28.1094  -36.2630   24.6241 H   0  0  0  0  0  0
  -27.2298  -37.1378   25.8865 H   0  0  0  0  0  0
  -20.9404  -29.8753   21.6807 H   0  0  0  0  0  0
  -26.0139  -38.2821   24.1449 H   0  0  0  0  0  0
  -27.9949  -20.0062   22.0186 H   0  0  0  0  0  0
  -30.8829  -19.9953   18.9164 H   0  0  0  0  0  0
  -28.1350  -22.4203   22.0496 H   0  0  0  0  0  0
  -29.8472  -22.3983   22.3321 H   0  0  0  0  0  0
  -28.3948  -21.9527   18.3345 H   0  0  0  0  0  0
  -27.2569  -22.1471   19.6321 H   0  0  0  0  0  0
  -30.1633  -24.5214   21.0813 H   0  0  0  0  0  0
  -29.0155  -24.7496   22.3637 H   0  0  0  0  0  0
  -27.5567  -24.2968   18.3702 H   0  0  0  0  0  0
  -29.2685  -24.2587   18.6403 H   0  0  0  0  0  0
  -30.2880  -22.1274   19.9168 H   0  0  0  0  0  0
  -27.1423  -24.7239   20.7851 H   0  0  0  0  0  0
  -26.0049  -17.5986   21.4511 H   0  0  0  0  0  0
  -26.2500  -18.8336   22.6691 H   0  0  0  0  0  0
  -25.7937  -17.2036   23.1503 H   0  0  0  0  0  0
  -29.4619  -17.3060   24.0492 H   0  0  0  0  0  0
  -27.8459  -17.0447   24.7000 H   0  0  0  0  0  0
  -28.3605  -18.6684   24.2367 H   0  0  0  0  0  0
  -29.8839  -18.4718   16.9012 H   0  0  0  0  0  0
  -31.0709  -18.0940   15.6913 H   0  0  0  0  0  0
  -29.6283  -16.0040   17.4121 H   0  0  0  0  0  0
  -30.8234  -15.6231   16.1885 H   0  0  0  0  0  0
  -32.2323  -18.7770   17.7969 H   0  0  0  0  0  0
  -32.5811  -17.1284   17.4033 H   0  0  0  0  0  0
  -27.9038  -16.2850   22.4056 H   0  0  0  0  0  0
  -28.8605  -15.3930   21.2033 H   0  0  0  0  0  0
  -28.3565  -17.1017   15.5566 H   0  0  0  0  0  0
  -29.3608  -16.3362   14.5240 H   0  0  0  0  0  0
  -28.4357  -15.4763   15.5437 H   0  0  0  0  0  0
  1 25  1  0  0  0
  1 30  2  0  0  0
  1 89  1  0  0  0
  2  3  1  0  0  0
  2 25  1  0  0  0
  2 92  1  0  0  0
  2 93  1  0  0  0
  3  4  1  0  0  0
  3 94  1  0  0  0
  3 95  1  0  0  0
  4  5  1  0  0  0
  4 96  1  0  0  0
  4 97  1  0  0  0
  5  6  1  0  0  0
  5 26  1  0  0  0
  5 98  1  0  0  0
  6 25  1  0  0  0
  6 99  1  0  0  0
  6100  1  0  0  0
  7  8  2  0  0  0
  7 26  1  0  0  0
  7 29  1  0  0  0
  8  9  1  0  0  0
  8 22  1  0  0  0
  9 10  1  0  0  0
  9 27  2  0  0  0
 10 11  2  0  0  0
 10 15  1  0  0  0
 11 12  1  0  0  0
 11101  1  0  0  0
 12 13  2  0  0  0
 12102  1  0  0  0
 13 14  1  0  0  0
 13 31  1  0  0  0
 14 15  2  0  0  0
 14103  1  0  0  0
 15104  1  0  0  0
 16 17  2  0  0  0
 16 21  1  0  0  0
 16 31  1  0  0  0
 17 18  1  0  0  0
 17105  1  0  0  0
 18 19  2  0  0  0
 18106  1  0  0  0
 19 20  1  0  0  0
 19 24  1  0  0  0
 20 21  2  0  0  0
 20107  1  0  0  0
 21 23  1  0  0  0
 22 28  1  0  0  0
 22 32  2  0  0  0
 26 27  1  0  0  0
 28108  1  0  0  0
 28109  1  0  0  0
 29110  1  0  0  0
 29111  1  0  0  0
 33 34  1  0  0  0
 33 66  1  0  0  0
 33 70  2  0  0  0
 34 36  1  0  0  0
 34 59  1  0  0  0
 34112  1  0  0  0
 35 44  2  0  0  0
 35 45  1  0  0  0
 35 68  1  0  0  0
 36 56  1  0  0  0
 36113  1  0  0  0
 37 39  1  0  0  0
 37 47  1  0  0  0
 37 66  1  0  0  0
 37114  1  0  0  0
 38 43  2  0  0  0
 38 46  1  0  0  0
 38 47  1  0  0  0
 39 64  1  0  0  0
 39 67  2  0  0  0
 40 52  1  0  0  0
 40 53  2  0  0  0
 40 58  1  0  0  0
 41115  1  0  0  0
 41116  1  0  0  0
 41117  1  0  0  0
 41 48  1  0  0  0
 42 43  1  0  0  0
 42 66  1  0  0  0
 42118  1  0  0  0
 42119  1  0  0  0
 43 44  1  0  0  0
 44120  1  0  0  0
 45 46  2  0  0  0
 45121  1  0  0  0
 46122  1  0  0  0
 47123  1  0  0  0
 47124  1  0  0  0
 48 56  1  0  0  0
 48 65  1  0  0  0
 48125  1  0  0  0
 49 50  1  0  0  0
 49 53  1  0  0  0
 49 64  1  0  0  0
 49126  1  0  0  0
 50 51  1  0  0  0
 50127  1  0  0  0
 50128  1  0  0  0
 51 52  1  0  0  0
 51129  1  0  0  0
 51130  1  0  0  0
 52131  1  0  0  0
 52132  1  0  0  0
 53 54  1  0  0  0
 54 55  2  0  0  0
 54133  1  0  0  0
 55 57  1  0  0  0
 55134  1  0  0  0
 56 69  2  0  0  0
 57 58  2  0  0  0
 57135  1  0  0  0
 58136  1  0  0  0
 59 60  1  0  0  0
 59 61  1  0  0  0
 59 62  1  0  0  0
 60137  1  0  0  0
 60138  1  0  0  0
 60139  1  0  0  0
 61140  1  0  0  0
 61141  1  0  0  0
 61142  1  0  0  0
 62143  1  0  0  0
 62144  1  0  0  0
 62145  1  0  0  0
 63 65  1  0  0  0
 63146  1  0  0  0
 63147  1  0  0  0
 63148  1  0  0  0
 64149  1  0  0  0
 65150  1  0  0  0
 68 82  1  0  0  0
 71 73  2  0  0  0
 71 74  1  0  0  0
 71151  1  0  0  0
 72 73  1  0  0  0
 72 76  2  0  0  0
 72152  1  0  0  0
 73 81  1  0  0  0
 74 75  2  0  0  0
 74 88  1  0  0  0
 75 76  1  0  0  0
 75 89  1  0  0  0
 76 91  1  0  0  0
 77 79  1  0  0  0
 77 81  1  0  0  0
 77153  1  0  0  0
 77154  1  0  0  0
 78 80  1  0  0  0
 78 81  1  0  0  0
 78155  1  0  0  0
 78156  1  0  0  0
 79 82  1  0  0  0
 79157  1  0  0  0
 79158  1  0  0  0
 80 82  1  0  0  0
 80159  1  0  0  0
 80160  1  0  0  0
 81161  1  0  0  0
 82162  1  0  0  0
 83163  1  0  0  0
 83164  1  0  0  0
 83165  1  0  0  0
 83 88  1  0  0  0
 84 88  1  0  0  0
 84166  1  0  0  0
 84167  1  0  0  0
 84168  1  0  0  0
 85 86  1  0  0  0
 85 87  1  0  0  0
 85169  1  0  0  0
 85170  1  0  0  0
 86 90  1  0  0  0
 86171  1  0  0  0
 86172  1  0  0  0
 87 91  1  0  0  0
 87173  1  0  0  0
 87174  1  0  0  0
 88175  1  0  0  0
 89176  1  0  0  0
 90177  1  0  0  0
 90178  1  0  0  0
 90179  1  0  0  0
M  CHG  1  90   1
M  ISO  4   1 100  68 101  82 101  89 100
M  END
> <chiral flag>
0

> <version>
0

> <s_m_source_file>
/data/baiqing/PycharmProjects/Reinvent-master-3.2/result/LINK_invent/BTK/process_docking_weight1_custom_sum_contain_oxygen_bond_distance_aromatic_linkinvent_7_9_3/rearranged_h_0148.sdf

> <i_m_source_file_index>
34

> <r_mmod_Potential_Energy-OPLS-2005>
-97.4805679321289

> <r_mmod_Stretch_Energy-OPLS-2005>
119.453987121582

> <r_mmod_Bend_Energy-OPLS-2005>
191.680068969727

> <r_mmod_Torsional_Energy-OPLS-2005>
248.141708374023

> <r_mmod_Improper_Torsional_Energy-OPLS-2005>
3.15698719024658

> <r_mmod_Van_der_Waal_Energy-OPLS-2005>
129.497756958008

> <r_mmod_Electrostatic_Energy-OPLS-2005>
-375.52392578125

> <r_mmod_Solvation_Energy-OPLS-2005>
-493.375549316406

> <b_mmod_Minimization_Converged-OPLS-2005>
0

> <r_mmod_RMS_Derivative-OPLS-2005>
4.55013275146484

$$$$
34
                    3D
 Structure written by MMmdl.
181190  0  0  1  0            999 V2000
  -30.7714  -14.4321   20.2585 C   0  0  0  0  0  0
  -30.3991  -12.2196   19.4108 C   0  0  0  0  0  0
  -29.4500  -12.3363   18.2005 C   0  0  0  0  0  0
  -27.9867  -12.2532   18.6488 C   0  0  0  0  0  0
  -27.6503  -13.1913   19.8395 C   0  0  2  0  0  0
  -28.7222  -13.1131   20.9526 C   0  0  0  0  0  0
  -25.2614  -13.8152   20.5695 C   0  0  0  0  0  0
  -24.1845  -13.0473   20.9186 C   0  0  0  0  0  0
  -24.6367  -11.6920   20.8802 C   0  0  0  0  0  0
  -23.9038  -10.4311   21.0450 C   0  0  0  0  0  0
  -24.3603   -9.4212   21.9205 C   0  0  0  0  0  0
  -23.6288   -8.2245   22.0770 C   0  0  0  0  0  0
  -22.4272   -8.0288   21.3555 C   0  0  0  0  0  0
  -21.9914   -9.0255   20.4646 C   0  0  0  0  0  0
  -22.7235  -10.2142   20.3064 C   0  0  0  0  0  0
  -21.6854   -6.0731   22.5265 C   0  0  0  0  0  0
  -21.4008   -6.5632   23.8199 C   0  0  0  0  0  0
  -21.3664   -5.6795   24.9166 C   0  0  0  0  0  0
  -21.6049   -4.3060   24.7220 C   0  0  0  0  0  0
  -21.8826   -3.8150   23.4344 C   0  0  0  0  0  0
  -21.9195   -4.6959   22.3395 C   0  0  0  0  0  0
  -22.7873  -13.5269   21.1845 C   0  0  0  0  0  0
  -22.1669   -4.2154   21.0972 F   0  0  0  0  0  0
  -21.5640   -3.4539   25.7731 F   0  0  0  0  0  0
  -30.0460  -13.2942   20.3374 N   0  0  0  0  0  0
  -26.3021  -12.9296   20.3381 N   0  0  0  0  0  0
  -25.9298  -11.6486   20.5916 N   0  0  0  0  0  0
  -22.0526  -12.8221   22.0370 N   0  0  0  0  0  0
  -25.4415  -15.1869   20.4051 N   0  0  0  0  0  0
  -31.9671  -14.4924   20.5099 O   0  0  0  0  0  0
  -21.6647   -6.8879   21.4234 O   0  0  0  0  0  0
  -22.3563  -14.5596   20.6725 O   0  0  0  0  0  0
  -24.6103  -31.8716   23.2244 C   0  0  0  0  0  0
  -25.9022  -32.4839   23.8497 C   0  0  1  0  0  0
  -27.2341  -27.4786   20.0792 C   0  0  0  0  0  0
  -25.5905  -33.8650   24.2396 N   0  0  0  0  0  0
  -23.3967  -30.5007   21.5608 C   0  0  2  0  0  0
  -24.8376  -28.9692   20.1255 C   0  0  0  0  0  0
  -22.7383  -29.4688   22.5027 C   0  0  0  0  0  0
  -18.0268  -28.1369   22.8505 C   0  0  0  0  0  0
  -24.1472  -36.7322   23.2644 C   0  0  0  0  0  0
  -25.9251  -30.8379   21.3872 C   0  0  0  0  0  0
  -25.9930  -29.4803   20.7258 C   0  0  0  0  0  0
  -27.1858  -28.7335   20.7147 C   0  0  0  0  0  0
  -26.0575  -26.9675   19.4803 C   0  0  0  0  0  0
  -24.8578  -27.7032   19.5156 C   0  0  0  0  0  0
  -23.6051  -29.8407   20.1724 C   0  0  0  0  0  0
  -25.4108  -36.3143   24.0339 C   0  0  1  0  0  0
  -20.5857  -28.3663   23.1322 C   0  0  2  0  0  0
  -20.6767  -26.9401   22.5420 C   0  0  0  0  0  0
  -19.5731  -26.6389   21.5230 C   0  0  0  0  0  0
  -18.1905  -26.7924   22.1629 C   0  0  0  0  0  0
  -19.1518  -28.8832   23.2909 C   0  0  0  0  0  0
  -18.9447  -30.1446   23.8912 C   0  0  0  0  0  0
  -17.6450  -30.6580   24.0583 C   0  0  0  0  0  0
  -25.9021  -34.9485   23.5155 C   0  0  0  0  0  0
  -16.5339  -29.9085   23.6346 C   0  0  0  0  0  0
  -16.7259  -28.6501   23.0363 C   0  0  0  0  0  0
  -26.4492  -31.6625   25.0817 C   0  0  0  0  0  0
  -25.3799  -31.3667   26.1590 C   0  0  0  0  0  0
  -27.0378  -30.3071   24.6247 C   0  0  0  0  0  0
  -27.6066  -32.4394   25.7543 C   0  0  0  0  0  0
  -27.5590  -37.1809   24.8465 C   0  0  0  0  0  0
  -21.4119  -29.3034   22.3724 N   0  0  0  0  0  0
  -26.4303  -37.3828   23.9411 N   0  0  0  0  0  0
  -24.6606  -31.0850   22.1139 N   0  0  0  0  0  0
  -23.4149  -28.8217   23.3068 O   0  0  0  0  0  0
  -28.4449  -26.8298   20.0874 O   0  0  0  0  0  0
  -26.5546  -34.8914   22.4695 O   0  0  0  0  0  0
  -23.5310  -32.1467   23.7657 O   0  0  0  0  0  0
  -30.9898  -18.2697   17.3325 C   0  0  0  0  0  0
  -31.7980  -18.0000   19.6104 C   0  0  0  0  0  0
  -31.2877  -19.6413   17.3829 C   0  0  0  0  0  0
  -31.8113  -20.2110   18.5660 C   0  0  0  0  0  0
  -31.2741  -17.4319   18.4312 C   0  0  0  0  0  0
  -32.0669  -19.3824   19.6871 C   0  0  0  0  0  0
  -31.0631  -20.4891   16.1415 C   0  0  0  0  0  0
  -32.0874  -21.7063   18.6394 C   0  0  0  0  0  0
  -31.6635  -22.5223   17.3917 C   0  0  0  0  0  0
  -30.5603  -21.9099   16.4748 C   0  0  1  0  0  0
  -32.6672  -19.9466   20.9668 C   0  0  0  0  0  0
  -30.5200  -22.7360   15.1643 C   0  0  0  0  0  0
  -30.9035  -15.3966   16.8866 C   0  0  0  0  0  0
  -28.0280  -21.3195   16.1420 C   0  0  0  0  0  0
  -28.1929  -24.4249   19.7960 C   0  0  0  0  0  0
  -28.9085  -23.2216   19.1790 C   0  0  0  0  0  0
  -28.6729  -25.7564   19.1952 C   0  0  0  0  0  0
  -31.1825  -15.9147   18.3138 C   0  0  2  0  0  0
  -29.1232  -21.8076   17.1193 C   0  0  2  0  0  0
  -30.3020  -15.2713   19.3186 N   0  0  0  0  0  0
  -28.6417  -23.0677   17.7284 N   0  3  0  0  0  0
  -31.4406  -12.2808   19.0862 H   0  0  0  0  0  0
  -30.2901  -11.2487   19.8973 H   0  0  0  0  0  0
  -29.6657  -11.5472   17.4788 H   0  0  0  0  0  0
  -29.5738  -13.2701   17.6722 H   0  0  0  0  0  0
  -27.8037  -11.2147   18.9271 H   0  0  0  0  0  0
  -27.3232  -12.4589   17.8068 H   0  0  0  0  0  0
  -27.6563  -14.2048   19.4425 H   0  0  0  0  0  0
  -28.6820  -12.1495   21.4632 H   0  0  0  0  0  0
  -28.5425  -13.8777   21.7102 H   0  0  0  0  0  0
  -25.2762   -9.5691   22.4749 H   0  0  0  0  0  0
  -24.0021   -7.4640   22.7476 H   0  0  0  0  0  0
  -21.0867   -8.8756   19.8923 H   0  0  0  0  0  0
  -22.3715  -10.9673   19.6149 H   0  0  0  0  0  0
  -21.1991   -7.6136   23.9697 H   0  0  0  0  0  0
  -21.1481   -6.0524   25.9069 H   0  0  0  0  0  0
  -22.0600   -2.7612   23.2836 H   0  0  0  0  0  0
  -22.4190  -11.9872   22.4694 H   0  0  0  0  0  0
  -21.1139  -13.1209   22.2612 H   0  0  0  0  0  0
  -24.6864  -15.8545   20.5177 H   0  0  0  0  0  0
  -26.3129  -15.6203   20.1243 H   0  0  0  0  0  0
  -26.7085  -32.5550   23.1248 H   0  0  0  0  0  0
  -25.0105  -33.9853   25.0571 H   0  0  0  0  0  0
  -22.6847  -31.3189   21.4296 H   0  0  0  0  0  0
  -23.3770  -35.9623   23.3314 H   0  0  0  0  0  0
  -24.3554  -36.8940   22.2056 H   0  0  0  0  0  0
  -23.7200  -37.6512   23.6665 H   0  0  0  0  0  0
  -26.0643  -31.6155   20.6364 H   0  0  0  0  0  0
  -26.8037  -30.8636   22.0219 H   0  0  0  0  0  0
  -28.0796  -29.1249   21.1812 H   0  0  0  0  0  0
  -26.0387  -26.0130   18.9795 H   0  0  0  0  0  0
  -23.9605  -27.2958   19.0698 H   0  0  0  0  0  0
  -23.7313  -30.6243   19.4230 H   0  0  0  0  0  0
  -22.7252  -29.2710   19.8651 H   0  0  0  0  0  0
  -25.1279  -36.2030   25.0832 H   0  0  0  0  0  0
  -20.9932  -28.3245   24.1453 H   0  0  0  0  0  0
  -20.5743  -26.2252   23.3591 H   0  0  0  0  0  0
  -21.6624  -26.7476   22.1177 H   0  0  0  0  0  0
  -19.6887  -25.6316   21.1215 H   0  0  0  0  0  0
  -19.6666  -27.3246   20.6793 H   0  0  0  0  0  0
  -17.4186  -26.6720   21.4008 H   0  0  0  0  0  0
  -18.0259  -26.0057   22.9001 H   0  0  0  0  0  0
  -19.7927  -30.7274   24.2248 H   0  0  0  0  0  0
  -17.5010  -31.6253   24.5199 H   0  0  0  0  0  0
  -15.5342  -30.2986   23.7676 H   0  0  0  0  0  0
  -15.8659  -28.0837   22.7049 H   0  0  0  0  0  0
  -24.5928  -30.7063   25.7929 H   0  0  0  0  0  0
  -24.9038  -32.2779   26.5213 H   0  0  0  0  0  0
  -25.8194  -30.8707   27.0253 H   0  0  0  0  0  0
  -26.2934  -29.6745   24.1396 H   0  0  0  0  0  0
  -27.4220  -29.7409   25.4753 H   0  0  0  0  0  0
  -27.8740  -30.4396   23.9382 H   0  0  0  0  0  0
  -27.2670  -33.3683   26.2149 H   0  0  0  0  0  0
  -28.3823  -32.6992   25.0318 H   0  0  0  0  0  0
  -28.0801  -31.8526   26.5424 H   0  0  0  0  0  0
  -28.2604  -38.0115   24.7564 H   0  0  0  0  0  0
  -28.1083  -36.2644   24.6251 H   0  0  0  0  0  0
  -27.2269  -37.1420   25.8855 H   0  0  0  0  0  0
  -20.9266  -29.8744   21.6942 H   0  0  0  0  0  0
  -26.0194  -38.2892   24.1487 H   0  0  0  0  0  0
  -30.5829  -17.8687   16.4156 H   0  0  0  0  0  0
  -32.0373  -17.3554   20.4461 H   0  0  0  0  0  0
  -30.3945  -19.9773   15.4523 H   0  0  0  0  0  0
  -32.0178  -20.5422   15.6169 H   0  0  0  0  0  0
  -33.1519  -21.8605   18.8195 H   0  0  0  0  0  0
  -31.5982  -22.0796   19.5347 H   0  0  0  0  0  0
  -32.5669  -22.5817   16.7824 H   0  0  0  0  0  0
  -31.4655  -23.5614   17.6541 H   0  0  0  0  0  0
  -32.9556  -19.1557   21.6596 H   0  0  0  0  0  0
  -31.9530  -20.5921   21.4774 H   0  0  0  0  0  0
  -33.5630  -20.5304   20.7534 H   0  0  0  0  0  0
  -31.5115  -22.8326   14.7214 H   0  0  0  0  0  0
  -30.1462  -23.7466   15.3233 H   0  0  0  0  0  0
  -29.8972  -22.2703   14.4007 H   0  0  0  0  0  0
  -31.5482  -15.8776   16.1509 H   0  0  0  0  0  0
  -29.8684  -15.5515   16.5826 H   0  0  0  0  0  0
  -31.1426  -14.3380   16.8021 H   0  0  0  0  0  0
  -28.2831  -20.3813   15.6526 H   0  0  0  0  0  0
  -27.8167  -22.0483   15.3586 H   0  0  0  0  0  0
  -27.0906  -21.1381   16.6679 H   0  0  0  0  0  0
  -28.4067  -24.4288   20.8664 H   0  0  0  0  0  0
  -27.1136  -24.3038   19.7149 H   0  0  0  0  0  0
  -28.6099  -22.3176   19.7131 H   0  0  0  0  0  0
  -29.9668  -23.3612   19.3607 H   0  0  0  0  0  0
  -28.2477  -25.9438   18.2078 H   0  0  0  0  0  0
  -29.7533  -25.7228   19.0506 H   0  0  0  0  0  0
  -32.2187  -15.6125   18.4727 H   0  0  0  0  0  0
  -29.1539  -21.0622   17.9133 H   0  0  0  0  0  0
  -29.3391  -15.1416   19.0518 H   0  0  0  0  0  0
  -28.9806  -23.8548   17.1990 H   0  0  0  0  0  0
  -27.6392  -23.0512   17.6274 H   0  0  0  0  0  0
  1 25  1  0  0  0
  1 30  2  0  0  0
  1 90  1  0  0  0
  2  3  1  0  0  0
  2 25  1  0  0  0
  2 92  1  0  0  0
  2 93  1  0  0  0
  3  4  1  0  0  0
  3 94  1  0  0  0
  3 95  1  0  0  0
  4  5  1  0  0  0
  4 96  1  0  0  0
  4 97  1  0  0  0
  5  6  1  0  0  0
  5 26  1  0  0  0
  5 98  1  0  0  0
  6 25  1  0  0  0
  6 99  1  0  0  0
  6100  1  0  0  0
  7  8  2  0  0  0
  7 26  1  0  0  0
  7 29  1  0  0  0
  8  9  1  0  0  0
  8 22  1  0  0  0
  9 10  1  0  0  0
  9 27  2  0  0  0
 10 11  2  0  0  0
 10 15  1  0  0  0
 11 12  1  0  0  0
 11101  1  0  0  0
 12 13  2  0  0  0
 12102  1  0  0  0
 13 14  1  0  0  0
 13 31  1  0  0  0
 14 15  2  0  0  0
 14103  1  0  0  0
 15104  1  0  0  0
 16 17  2  0  0  0
 16 21  1  0  0  0
 16 31  1  0  0  0
 17 18  1  0  0  0
 17105  1  0  0  0
 18 19  2  0  0  0
 18106  1  0  0  0
 19 20  1  0  0  0
 19 24  1  0  0  0
 20 21  2  0  0  0
 20107  1  0  0  0
 21 23  1  0  0  0
 22 28  1  0  0  0
 22 32  2  0  0  0
 26 27  1  0  0  0
 28108  1  0  0  0
 28109  1  0  0  0
 29110  1  0  0  0
 29111  1  0  0  0
 33 34  1  0  0  0
 33 66  1  0  0  0
 33 70  2  0  0  0
 34 36  1  0  0  0
 34 59  1  0  0  0
 34112  1  0  0  0
 35 44  2  0  0  0
 35 45  1  0  0  0
 35 68  1  0  0  0
 36 56  1  0  0  0
 36113  1  0  0  0
 37 39  1  0  0  0
 37 47  1  0  0  0
 37 66  1  0  0  0
 37114  1  0  0  0
 38 43  2  0  0  0
 38 46  1  0  0  0
 38 47  1  0  0  0
 39 64  1  0  0  0
 39 67  2  0  0  0
 40 52  1  0  0  0
 40 53  2  0  0  0
 40 58  1  0  0  0
 41115  1  0  0  0
 41116  1  0  0  0
 41117  1  0  0  0
 41 48  1  0  0  0
 42 43  1  0  0  0
 42 66  1  0  0  0
 42118  1  0  0  0
 42119  1  0  0  0
 43 44  1  0  0  0
 44120  1  0  0  0
 45 46  2  0  0  0
 45121  1  0  0  0
 46122  1  0  0  0
 47123  1  0  0  0
 47124  1  0  0  0
 48 56  1  0  0  0
 48 65  1  0  0  0
 48125  1  0  0  0
 49 50  1  0  0  0
 49 53  1  0  0  0
 49 64  1  0  0  0
 49126  1  0  0  0
 50 51  1  0  0  0
 50127  1  0  0  0
 50128  1  0  0  0
 51 52  1  0  0  0
 51129  1  0  0  0
 51130  1  0  0  0
 52131  1  0  0  0
 52132  1  0  0  0
 53 54  1  0  0  0
 54 55  2  0  0  0
 54133  1  0  0  0
 55 57  1  0  0  0
 55134  1  0  0  0
 56 69  2  0  0  0
 57 58  2  0  0  0
 57135  1  0  0  0
 58136  1  0  0  0
 59 60  1  0  0  0
 59 61  1  0  0  0
 59 62  1  0  0  0
 60137  1  0  0  0
 60138  1  0  0  0
 60139  1  0  0  0
 61140  1  0  0  0
 61141  1  0  0  0
 61142  1  0  0  0
 62143  1  0  0  0
 62144  1  0  0  0
 62145  1  0  0  0
 63 65  1  0  0  0
 63146  1  0  0  0
 63147  1  0  0  0
 63148  1  0  0  0
 64149  1  0  0  0
 65150  1  0  0  0
 68 87  1  0  0  0
 71 73  2  0  0  0
 71 75  1  0  0  0
 71151  1  0  0  0
 72 75  2  0  0  0
 72 76  1  0  0  0
 72152  1  0  0  0
 73 74  1  0  0  0
 73 77  1  0  0  0
 74 76  2  0  0  0
 74 78  1  0  0  0
 75 88  1  0  0  0
 76 81  1  0  0  0
 77 80  1  0  0  0
 77153  1  0  0  0
 77154  1  0  0  0
 78 79  1  0  0  0
 78155  1  0  0  0
 78156  1  0  0  0
 79 80  1  0  0  0
 79157  1  0  0  0
 79158  1  0  0  0
 80 82  1  0  0  0
 80 89  1  0  0  0
 81159  1  0  0  0
 81160  1  0  0  0
 81161  1  0  0  0
 82162  1  0  0  0
 82163  1  0  0  0
 82164  1  0  0  0
 83165  1  0  0  0
 83166  1  0  0  0
 83167  1  0  0  0
 83 88  1  0  0  0
 84168  1  0  0  0
 84169  1  0  0  0
 84170  1  0  0  0
 84 89  1  0  0  0
 85 86  1  0  0  0
 85 87  1  0  0  0
 85171  1  0  0  0
 85172  1  0  0  0
 86 91  1  0  0  0
 86173  1  0  0  0
 86174  1  0  0  0
 87175  1  0  0  0
 87176  1  0  0  0
 88 90  1  0  0  0
 88177  1  0  0  0
 89 91  1  0  0  0
 89178  1  0  0  0
 90179  1  0  0  0
 91180  1  0  0  0
 91181  1  0  0  0
M  CHG  1  91   1
M  ISO  4   1 100  68 101  87 101  90 100
M  END
> <chiral flag>
0

> <version>
0

> <s_m_source_file>
/data/baiqing/PycharmProjects/Reinvent-master-3.2/result/LINK_invent/BTK/process_docking_weight1_custom_sum_contain_oxygen_bond_distance_aromatic_linkinvent_7_9_3/rearranged_h_0148.sdf

> <i_m_source_file_index>
35

> <r_mmod_Potential_Energy-OPLS-2005>
-60.9351615905762

> <r_mmod_Stretch_Energy-OPLS-2005>
37.3688125610352

> <r_mmod_Bend_Energy-OPLS-2005>
129.539428710938

> <r_mmod_Torsional_Energy-OPLS-2005>
303.049072265625

> <r_mmod_Improper_Torsional_Energy-OPLS-2005>
23.9958934783936

> <r_mmod_Van_der_Waal_Energy-OPLS-2005>
179.176818847656

> <r_mmod_Electrostatic_Energy-OPLS-2005>
-351.872619628906

> <r_mmod_Solvation_Energy-OPLS-2005>
-446.603393554688

> <b_mmod_Minimization_Converged-OPLS-2005>
0

> <r_mmod_RMS_Derivative-OPLS-2005>
2.99695682525635

$$$$
35
                    3D
 Structure written by MMmdl.
171181  0  0  1  0            999 V2000
  -30.6780  -14.5590   20.5336 C   0  0  0  0  0  0
  -30.4195  -12.3486   19.4521 C   0  0  0  0  0  0
  -29.4990  -12.4980   18.2228 C   0  0  0  0  0  0
  -28.0211  -12.3524   18.6316 C   0  0  0  0  0  0
  -27.6524  -13.2173   19.8666 C   0  0  2  0  0  0
  -28.6932  -13.0629   20.9998 C   0  0  0  0  0  0
  -25.2544  -13.8186   20.5684 C   0  0  0  0  0  0
  -24.1812  -13.0441   20.9194 C   0  0  0  0  0  0
  -24.6376  -11.6914   20.8733 C   0  0  0  0  0  0
  -23.9049  -10.4297   21.0399 C   0  0  0  0  0  0
  -24.3601   -9.4220   21.9181 C   0  0  0  0  0  0
  -23.6289   -8.2245   22.0752 C   0  0  0  0  0  0
  -22.4273   -8.0273   21.3539 C   0  0  0  0  0  0
  -21.9900   -9.0242   20.4638 C   0  0  0  0  0  0
  -22.7220  -10.2130   20.3056 C   0  0  0  0  0  0
  -21.6856   -6.0730   22.5274 C   0  0  0  0  0  0
  -21.4012   -6.5634   23.8206 C   0  0  0  0  0  0
  -21.3666   -5.6790   24.9170 C   0  0  0  0  0  0
  -21.6047   -4.3051   24.7222 C   0  0  0  0  0  0
  -21.8824   -3.8142   23.4341 C   0  0  0  0  0  0
  -21.9189   -4.6956   22.3397 C   0  0  0  0  0  0
  -22.7839  -13.5237   21.1860 C   0  0  0  0  0  0
  -22.1664   -4.2138   21.0977 F   0  0  0  0  0  0
  -21.5631   -3.4541   25.7738 F   0  0  0  0  0  0
  -30.0170  -13.3681   20.4385 N   0  0  0  0  0  0
  -26.2969  -12.9364   20.3328 N   0  0  0  0  0  0
  -25.9303  -11.6512   20.5753 N   0  0  0  0  0  0
  -22.0478  -12.8215   22.0405 N   0  0  0  0  0  0
  -25.4265  -15.1902   20.4088 N   0  0  0  0  0  0
  -31.8239  -14.6983   20.0991 O   0  0  0  0  0  0
  -21.6644   -6.8868   21.4236 O   0  0  0  0  0  0
  -22.3524  -14.5542   20.6718 O   0  0  0  0  0  0
  -24.6184  -31.8675   23.2085 C   0  0  0  0  0  0
  -25.9070  -32.4824   23.8391 C   0  0  1  0  0  0
  -27.2314  -27.3852   20.1148 C   0  0  0  0  0  0
  -25.5918  -33.8613   24.2326 N   0  0  0  0  0  0
  -23.4096  -30.4864   21.5520 C   0  0  2  0  0  0
  -24.8597  -28.9437   20.1223 C   0  0  0  0  0  0
  -22.7437  -29.4632   22.5014 C   0  0  0  0  0  0
  -18.0277  -28.1368   22.8489 C   0  0  0  0  0  0
  -24.1491  -36.7309   23.2631 C   0  0  0  0  0  0
  -25.9428  -30.8122   21.3749 C   0  0  0  0  0  0
  -26.0205  -29.4380   20.7323 C   0  0  0  0  0  0
  -27.2110  -28.6633   20.7328 C   0  0  0  0  0  0
  -26.0672  -26.9376   19.4660 C   0  0  0  0  0  0
  -24.8779  -27.6906   19.4866 C   0  0  0  0  0  0
  -23.6232  -29.8159   20.1689 C   0  0  0  0  0  0
  -25.4116  -36.3115   24.0329 C   0  0  1  0  0  0
  -20.5862  -28.3661   23.1312 C   0  0  2  0  0  0
  -20.6778  -26.9402   22.5411 C   0  0  0  0  0  0
  -19.5758  -26.6384   21.5209 C   0  0  0  0  0  0
  -18.1932  -26.7920   22.1618 C   0  0  0  0  0  0
  -19.1525  -28.8836   23.2893 C   0  0  0  0  0  0
  -18.9458  -30.1445   23.8898 C   0  0  0  0  0  0
  -17.6461  -30.6579   24.0559 C   0  0  0  0  0  0
  -25.9044  -34.9473   23.5124 C   0  0  0  0  0  0
  -16.5349  -29.9074   23.6328 C   0  0  0  0  0  0
  -16.7266  -28.6489   23.0350 C   0  0  0  0  0  0
  -26.4482  -31.6602   25.0729 C   0  0  0  0  0  0
  -25.3718  -31.3721   26.1454 C   0  0  0  0  0  0
  -27.0316  -30.3033   24.6138 C   0  0  0  0  0  0
  -27.6056  -32.4327   25.7489 C   0  0  0  0  0  0
  -27.5592  -37.1811   24.8463 C   0  0  0  0  0  0
  -21.4162  -29.3024   22.3736 N   0  0  0  0  0  0
  -26.4306  -37.3795   23.9400 N   0  0  0  0  0  0
  -24.6750  -31.0715   22.1028 N   0  0  0  0  0  0
  -23.4179  -28.8188   23.3097 O   0  0  0  0  0  0
  -28.3741  -26.6098   20.0214 O   0  0  0  0  0  0
  -26.5605  -34.8930   22.4688 O   0  0  0  0  0  0
  -23.5363  -32.1466   23.7444 O   0  0  0  0  0  0
  -29.7841  -21.7404   23.3434 C   0  0  0  0  0  0
  -29.8292  -20.5654   22.5819 C   0  0  0  0  0  0
  -29.2701  -22.9370   22.7958 C   0  0  0  0  0  0
  -28.8093  -22.9048   21.4450 C   0  0  0  0  0  0
  -29.3674  -20.5931   21.2621 C   0  0  0  0  0  0
  -30.2649  -25.2013   23.7286 C   0  0  0  0  0  0
  -30.0592  -24.3126   24.9252 C   0  0  0  0  0  0
  -25.4583  -23.8422   20.0917 C   0  0  0  0  0  0
  -25.7523  -22.7112   21.0338 C   0  0  0  0  0  0
  -29.1795  -24.1447   23.6961 C   0  0  0  0  0  0
  -26.5521  -24.0004   21.1328 C   0  0  0  0  0  0
  -31.4861  -17.4100   21.8391 C   0  0  0  0  0  0
  -29.1643  -18.0774   21.0241 C   0  0  0  0  0  0
  -28.5947  -25.5548   20.9967 C   0  0  0  0  0  0
  -28.0376  -24.0907   20.7595 C   0  0  1  0  0  0
  -30.3585  -17.0716   20.8476 C   0  0  2  0  0  0
  -28.8939  -21.7436   20.7118 N   0  0  0  0  0  0
  -29.3854  -19.4315   20.4601 N   0  0  0  0  0  0
  -29.9601  -15.6355   20.9546 N   0  0  0  0  0  0
  -31.4649  -12.4450   19.1551 H   0  0  0  0  0  0
  -30.3242  -11.3514   19.8849 H   0  0  0  0  0  0
  -29.7525  -11.7508   17.4698 H   0  0  0  0  0  0
  -29.6592  -13.4707   17.7545 H   0  0  0  0  0  0
  -27.8443  -11.2994   18.8518 H   0  0  0  0  0  0
  -27.3721  -12.5989   17.7905 H   0  0  0  0  0  0
  -27.6773  -14.2559   19.5340 H   0  0  0  0  0  0
  -28.6827  -12.0474   21.3988 H   0  0  0  0  0  0
  -28.4469  -13.7143   21.8397 H   0  0  0  0  0  0
  -25.2746   -9.5703   22.4754 H   0  0  0  0  0  0
  -24.0001   -7.4644   22.7475 H   0  0  0  0  0  0
  -21.0835   -8.8749   19.8941 H   0  0  0  0  0  0
  -22.3670  -10.9661   19.6161 H   0  0  0  0  0  0
  -21.2009   -7.6143   23.9703 H   0  0  0  0  0  0
  -21.1489   -6.0524   25.9073 H   0  0  0  0  0  0
  -22.0598   -2.7601   23.2846 H   0  0  0  0  0  0
  -22.4098  -11.9878   22.4787 H   0  0  0  0  0  0
  -21.1091  -13.1227   22.2609 H   0  0  0  0  0  0
  -24.6586  -15.8453   20.5133 H   0  0  0  0  0  0
  -26.2719  -15.6235   20.0609 H   0  0  0  0  0  0
  -26.7136  -32.5537   23.1141 H   0  0  0  0  0  0
  -25.0067  -33.9766   25.0470 H   0  0  0  0  0  0
  -22.6995  -31.3039   21.4096 H   0  0  0  0  0  0
  -23.3759  -35.9638   23.3305 H   0  0  0  0  0  0
  -24.3580  -36.8919   22.2046 H   0  0  0  0  0  0
  -23.7238  -37.6509   23.6648 H   0  0  0  0  0  0
  -26.0597  -31.5731   20.6013 H   0  0  0  0  0  0
  -26.8268  -30.8709   21.9977 H   0  0  0  0  0  0
  -28.1108  -29.0453   21.1965 H   0  0  0  0  0  0
  -26.0894  -26.0111   18.9153 H   0  0  0  0  0  0
  -23.9941  -27.3122   18.9901 H   0  0  0  0  0  0
  -23.7337  -30.5892   19.4075 H   0  0  0  0  0  0
  -22.7469  -29.2354   19.8730 H   0  0  0  0  0  0
  -25.1293  -36.1977   25.0819 H   0  0  0  0  0  0
  -20.9935  -28.3226   24.1441 H   0  0  0  0  0  0
  -20.5709  -26.2267   23.3602 H   0  0  0  0  0  0
  -21.6648  -26.7468   22.1200 H   0  0  0  0  0  0
  -19.6927  -25.6297   21.1239 H   0  0  0  0  0  0
  -19.6691  -27.3196   20.6741 H   0  0  0  0  0  0
  -17.4214  -26.6674   21.4007 H   0  0  0  0  0  0
  -18.0317  -26.0042   22.8988 H   0  0  0  0  0  0
  -19.7933  -30.7252   24.2266 H   0  0  0  0  0  0
  -17.5018  -31.6263   24.5165 H   0  0  0  0  0  0
  -15.5349  -30.2982   23.7661 H   0  0  0  0  0  0
  -15.8664  -28.0820   22.7061 H   0  0  0  0  0  0
  -24.5904  -30.7064   25.7769 H   0  0  0  0  0  0
  -24.8881  -32.2878   26.4873 H   0  0  0  0  0  0
  -25.8030  -30.8909   27.0234 H   0  0  0  0  0  0
  -26.2877  -29.6783   24.1185 H   0  0  0  0  0  0
  -27.4057  -29.7288   25.4618 H   0  0  0  0  0  0
  -27.8730  -30.4329   23.9320 H   0  0  0  0  0  0
  -27.2682  -33.3631   26.2061 H   0  0  0  0  0  0
  -28.3852  -32.6869   25.0294 H   0  0  0  0  0  0
  -28.0724  -31.8444   26.5394 H   0  0  0  0  0  0
  -28.2615  -38.0109   24.7528 H   0  0  0  0  0  0
  -28.1087  -36.2641   24.6278 H   0  0  0  0  0  0
  -27.2304  -37.1441   25.8865 H   0  0  0  0  0  0
  -20.9358  -29.8718   21.6911 H   0  0  0  0  0  0
  -26.0209  -38.2871   24.1411 H   0  0  0  0  0  0
  -30.1245  -21.6964   24.3669 H   0  0  0  0  0  0
  -30.2224  -19.6646   23.0294 H   0  0  0  0  0  0
  -31.1607  -25.0327   23.1319 H   0  0  0  0  0  0
  -29.9745  -26.2434   23.8476 H   0  0  0  0  0  0
  -29.6107  -24.7682   25.8066 H   0  0  0  0  0  0
  -30.8695  -23.6163   25.1307 H   0  0  0  0  0  0
  -24.5373  -24.4021   20.2469 H   0  0  0  0  0  0
  -25.7490  -23.7020   19.0524 H   0  0  0  0  0  0
  -26.2170  -21.8275   20.6034 H   0  0  0  0  0  0
  -25.0160  -22.5148   21.8110 H   0  0  0  0  0  0
  -28.1453  -24.4665   23.8032 H   0  0  0  0  0  0
  -26.3060  -24.5847   22.0182 H   0  0  0  0  0  0
  -31.8437  -18.4280   21.6810 H   0  0  0  0  0  0
  -32.3457  -16.7502   21.7213 H   0  0  0  0  0  0
  -31.1465  -17.3372   22.8728 H   0  0  0  0  0  0
  -28.8645  -18.1335   22.0719 H   0  0  0  0  0  0
  -28.2928  -17.6804   20.5009 H   0  0  0  0  0  0
  -29.6810  -25.4707   21.0313 H   0  0  0  0  0  0
  -28.2901  -25.9303   21.9721 H   0  0  0  0  0  0
  -28.1186  -23.9080   19.6877 H   0  0  0  0  0  0
  -30.7487  -17.1995   19.8363 H   0  0  0  0  0  0
  -29.0265  -19.5638   19.5216 H   0  0  0  0  0  0
  -29.0185  -15.4453   21.2636 H   0  0  0  0  0  0
  1 25  1  0  0  0
  1 30  2  0  0  0
  1 89  1  0  0  0
  2  3  1  0  0  0
  2 25  1  0  0  0
  2 90  1  0  0  0
  2 91  1  0  0  0
  3  4  1  0  0  0
  3 92  1  0  0  0
  3 93  1  0  0  0
  4  5  1  0  0  0
  4 94  1  0  0  0
  4 95  1  0  0  0
  5  6  1  0  0  0
  5 26  1  0  0  0
  5 96  1  0  0  0
  6 25  1  0  0  0
  6 97  1  0  0  0
  6 98  1  0  0  0
  7  8  2  0  0  0
  7 26  1  0  0  0
  7 29  1  0  0  0
  8  9  1  0  0  0
  8 22  1  0  0  0
  9 10  1  0  0  0
  9 27  2  0  0  0
 10 11  2  0  0  0
 10 15  1  0  0  0
 11 12  1  0  0  0
 11 99  1  0  0  0
 12 13  2  0  0  0
 12100  1  0  0  0
 13 14  1  0  0  0
 13 31  1  0  0  0
 14 15  2  0  0  0
 14101  1  0  0  0
 15102  1  0  0  0
 16 17  2  0  0  0
 16 21  1  0  0  0
 16 31  1  0  0  0
 17 18  1  0  0  0
 17103  1  0  0  0
 18 19  2  0  0  0
 18104  1  0  0  0
 19 20  1  0  0  0
 19 24  1  0  0  0
 20 21  2  0  0  0
 20105  1  0  0  0
 21 23  1  0  0  0
 22 28  1  0  0  0
 22 32  2  0  0  0
 26 27  1  0  0  0
 28106  1  0  0  0
 28107  1  0  0  0
 29108  1  0  0  0
 29109  1  0  0  0
 33 34  1  0  0  0
 33 66  1  0  0  0
 33 70  2  0  0  0
 34 36  1  0  0  0
 34 59  1  0  0  0
 34110  1  0  0  0
 35 44  2  0  0  0
 35 45  1  0  0  0
 35 68  1  0  0  0
 36 56  1  0  0  0
 36111  1  0  0  0
 37 39  1  0  0  0
 37 47  1  0  0  0
 37 66  1  0  0  0
 37112  1  0  0  0
 38 43  2  0  0  0
 38 46  1  0  0  0
 38 47  1  0  0  0
 39 64  1  0  0  0
 39 67  2  0  0  0
 40 52  1  0  0  0
 40 53  2  0  0  0
 40 58  1  0  0  0
 41113  1  0  0  0
 41114  1  0  0  0
 41115  1  0  0  0
 41 48  1  0  0  0
 42 43  1  0  0  0
 42 66  1  0  0  0
 42116  1  0  0  0
 42117  1  0  0  0
 43 44  1  0  0  0
 44118  1  0  0  0
 45 46  2  0  0  0
 45119  1  0  0  0
 46120  1  0  0  0
 47121  1  0  0  0
 47122  1  0  0  0
 48 56  1  0  0  0
 48 65  1  0  0  0
 48123  1  0  0  0
 49 50  1  0  0  0
 49 53  1  0  0  0
 49 64  1  0  0  0
 49124  1  0  0  0
 50 51  1  0  0  0
 50125  1  0  0  0
 50126  1  0  0  0
 51 52  1  0  0  0
 51127  1  0  0  0
 51128  1  0  0  0
 52129  1  0  0  0
 52130  1  0  0  0
 53 54  1  0  0  0
 54 55  2  0  0  0
 54131  1  0  0  0
 55 57  1  0  0  0
 55132  1  0  0  0
 56 69  2  0  0  0
 57 58  2  0  0  0
 57133  1  0  0  0
 58134  1  0  0  0
 59 60  1  0  0  0
 59 61  1  0  0  0
 59 62  1  0  0  0
 60135  1  0  0  0
 60136  1  0  0  0
 60137  1  0  0  0
 61138  1  0  0  0
 61139  1  0  0  0
 61140  1  0  0  0
 62141  1  0  0  0
 62142  1  0  0  0
 62143  1  0  0  0
 63 65  1  0  0  0
 63144  1  0  0  0
 63145  1  0  0  0
 63146  1  0  0  0
 64147  1  0  0  0
 65148  1  0  0  0
 68 84  1  0  0  0
 71 72  2  0  0  0
 71 73  1  0  0  0
 71149  1  0  0  0
 72 75  1  0  0  0
 72150  1  0  0  0
 73 74  2  0  0  0
 73 80  1  0  0  0
 74 85  1  0  0  0
 74 87  1  0  0  0
 75 87  2  0  0  0
 75 88  1  0  0  0
 76 77  1  0  0  0
 76 80  1  0  0  0
 76151  1  0  0  0
 76152  1  0  0  0
 77 80  1  0  0  0
 77153  1  0  0  0
 77154  1  0  0  0
 78 79  1  0  0  0
 78155  1  0  0  0
 78156  1  0  0  0
 78 81  1  0  0  0
 79 81  1  0  0  0
 79157  1  0  0  0
 79158  1  0  0  0
 80159  1  0  0  0
 81 85  1  0  0  0
 81160  1  0  0  0
 82161  1  0  0  0
 82162  1  0  0  0
 82163  1  0  0  0
 82 86  1  0  0  0
 83 86  1  0  0  0
 83 88  1  0  0  0
 83164  1  0  0  0
 83165  1  0  0  0
 84166  1  0  0  0
 84167  1  0  0  0
 84 85  1  0  0  0
 85168  1  0  0  0
 86 89  1  0  0  0
 86169  1  0  0  0
 88170  1  0  0  0
 89171  1  0  0  0
M  ISO  4   1 100  68 101  84 101  89 100
M  END
> <chiral flag>
0

> <version>
0

> <s_m_source_file>
/data/baiqing/PycharmProjects/Reinvent-master-3.2/result/LINK_invent/BTK/process_docking_weight1_custom_sum_contain_oxygen_bond_distance_aromatic_linkinvent_7_9_3/rearranged_h_0148.sdf

> <i_m_source_file_index>
36

> <r_mmod_Potential_Energy-OPLS-2005>
-147.817276000977

> <r_mmod_Stretch_Energy-OPLS-2005>
58.6756706237793

> <r_mmod_Bend_Energy-OPLS-2005>
131.581649780273

> <r_mmod_Torsional_Energy-OPLS-2005>
298.376281738281

> <r_mmod_Improper_Torsional_Energy-OPLS-2005>
7.72226047515869

> <r_mmod_Van_der_Waal_Energy-OPLS-2005>
140.462142944336

> <r_mmod_Electrostatic_Energy-OPLS-2005>
-581.846801757812

> <r_mmod_Solvation_Energy-OPLS-2005>
-226.854782104492

> <b_mmod_Minimization_Converged-OPLS-2005>
0

> <r_mmod_RMS_Derivative-OPLS-2005>
1.97606587409973

$$$$
36
                    3D
 Structure written by MMmdl.
193202  0  0  1  0            999 V2000
  -29.4937  -15.6374   20.6736 C   0  0  0  0  0  0
  -30.2999  -13.2109   19.6621 C   0  0  0  0  0  0
  -29.5404  -12.7093   18.3892 C   0  0  0  0  0  0
  -28.1211  -12.2285   18.7421 C   0  0  0  0  0  0
  -27.5192  -13.1527   19.8214 C   0  0  2  0  0  0
  -28.4088  -13.3473   21.0421 C   0  0  0  0  0  0
  -25.2219  -13.6947   20.6265 C   0  0  0  0  0  0
  -24.1433  -12.9593   20.9385 C   0  0  0  0  0  0
  -24.6020  -11.6085   20.8638 C   0  0  0  0  0  0
  -23.8790  -10.3726   21.0367 C   0  0  0  0  0  0
  -24.3394   -9.3766   21.9217 C   0  0  0  0  0  0
  -23.6016   -8.1886   22.0875 C   0  0  0  0  0  0
  -22.4003   -8.0027   21.3626 C   0  0  0  0  0  0
  -21.9573   -8.9937   20.4693 C   0  0  0  0  0  0
  -22.6977  -10.1705   20.2984 C   0  0  0  0  0  0
  -21.6692   -6.0563   22.5329 C   0  0  0  0  0  0
  -21.3916   -6.5539   23.8233 C   0  0  0  0  0  0
  -21.3598   -5.6734   24.9223 C   0  0  0  0  0  0
  -21.6033   -4.2996   24.7279 C   0  0  0  0  0  0
  -21.8822   -3.8063   23.4412 C   0  0  0  0  0  0
  -21.9110   -4.6832   22.3445 C   0  0  0  0  0  0
  -22.7482  -13.4367   21.2054 C   0  0  0  0  0  0
  -22.1627   -4.2037   21.1014 F   0  0  0  0  0  0
  -21.5599   -3.4501   25.7796 F   0  0  0  0  0  0
  -29.4239  -14.1907   20.4973 N   0  0  0  0  0  0
  -26.2133  -12.8196   20.2769 N   0  0  0  0  0  0
  -25.8812  -11.5451   20.5246 N   0  0  0  0  0  0
  -22.0559  -12.8064   22.1400 N   0  0  0  0  0  0
  -25.5041  -15.0261   20.6243 N   0  0  0  0  0  0
  -30.7230  -15.8413   20.4113 O   0  0  0  0  0  0
  -21.6394   -6.8660   21.4296 O   0  0  0  0  0  0
  -22.2653  -14.3711   20.5711 O   0  0  0  0  0  0
  -24.7047  -32.0279   23.2284 C   0  0  0  0  0  0
  -26.0011  -32.5363   23.8728 C   0  0  1  0  0  0
  -25.9831  -27.1996   20.3730 C   0  0  0  0  0  0
  -25.6930  -33.9087   24.2796 N   0  0  0  0  0  0
  -23.4586  -30.7081   21.6385 C   0  0  2  0  0  0
  -24.7682  -29.3563   19.8365 C   0  0  0  0  0  0
  -23.0981  -29.7189   22.7659 C   0  0  0  0  0  0
  -18.6271  -27.6559   22.3414 C   0  0  0  0  0  0
  -24.1562  -36.7390   23.2573 C   0  0  0  0  0  0
  -25.9867  -30.8403   21.4384 C   0  0  0  0  0  0
  -25.8537  -29.5225   20.7047 C   0  0  0  0  0  0
  -26.6383  -28.3753   20.8962 C   0  0  0  0  0  0
  -25.7900  -27.2901   19.0278 C   0  0  0  0  0  0
  -24.8505  -28.3324   18.8532 C   0  0  0  0  0  0
  -23.5397  -30.1785   20.1560 C   0  0  0  0  0  0
  -25.4177  -36.3318   24.0339 C   0  0  1  0  0  0
  -21.5775  -28.1030   23.6888 C   0  0  2  0  0  0
  -22.7923  -26.0079   22.9739 C   0  0  0  0  0  0
  -21.1054  -25.0779   21.0853 C   0  0  0  0  0  0
  -18.9446  -26.1610   21.0598 C   0  0  0  0  0  0
  -19.7166  -28.4114   23.2986 C   0  0  0  0  0  0
  -19.2179  -29.6417   23.9204 C   0  0  0  0  0  0
  -17.8937  -30.1511   23.9106 C   0  0  0  0  0  0
  -25.9315  -34.9759   23.5160 C   0  0  0  0  0  0
  -16.9115  -29.3939   23.2680 C   0  0  0  0  0  0
  -17.2737  -28.2159   22.5408 C   0  0  0  0  0  0
  -26.4791  -31.6723   25.1027 C   0  0  0  0  0  0
  -25.3747  -31.3824   26.1468 C   0  0  0  0  0  0
  -27.0582  -30.3111   24.6492 C   0  0  0  0  0  0
  -27.6317  -32.4172   25.8105 C   0  0  0  0  0  0
  -27.5627  -37.1968   24.8465 C   0  0  0  0  0  0
  -21.8675  -29.4246   23.0583 N   0  0  0  0  0  0
  -26.4311  -37.4026   23.9458 N   0  0  0  0  0  0
  -24.7369  -31.2876   22.0871 N   0  0  0  0  0  0
  -23.9540  -29.0534   23.3513 O   0  0  0  0  0  0
  -24.6256  -26.8988   20.8621 O   0  0  0  0  0  0
  -26.5481  -34.9144   22.4503 O   0  0  0  0  0  0
  -23.6294  -32.3254   23.7808 O   0  0  0  0  0  0
  -20.0508  -25.6170   22.9487 C   0  0  0  0  0  0
  -20.6924  -25.9932   23.5256 C   0  0  0  0  0  0
  -20.9123  -27.3674   21.2268 C   0  0  0  0  0  0
  -21.7624  -27.2703   21.5574 C   0  0  0  0  0  0
  -28.0053  -17.2045   19.2850 C   0  0  0  0  0  0
  -21.0610  -24.2864   23.5331 C   0  0  1  0  0  0
  -26.4530  -17.3726   19.0409 C   0  0  1  0  0  0
  -25.9216  -18.0391   20.3280 C   0  0  2  0  0  0
  -22.7787  -27.2280   20.4843 C   0  0  1  0  0  0
  -26.9666  -17.8327   21.4681 C   0  0  1  0  0  0
  -22.1475  -17.2615   21.8211 C   0  0  0  0  0  0
  -26.5735  -19.3460   17.3000 C   0  0  0  0  0  0
  -25.8102  -17.0311   16.5423 C   0  0  0  0  0  0
  -23.5005  -19.1021   19.8850 C   0  0  0  0  0  0
  -23.1657  -20.7195   23.9334 C   0  0  0  0  0  0
  -22.5586  -23.1347   22.7626 C   0  0  0  0  0  0
  -23.5130  -16.9614   21.1670 C   0  0  0  0  0  0
  -25.3223  -20.7191   22.1279 C   0  0  0  0  0  0
  -25.9147  -18.0219   17.7209 C   0  0  0  0  0  0
  -24.3641  -18.1635   20.7620 C   0  0  1  0  0  0
  -23.9187  -21.7428   23.0943 C   0  0  2  0  0  0
  -28.3102  -16.7768   20.6967 N   0  0  0  0  0  0
  -26.5505  -19.3861   22.2920 N   0  3  0  0  0  0
  -31.2141  -13.7005   19.3252 H   0  0  0  0  0  0
  -30.6688  -12.3760   20.2609 H   0  0  0  0  0  0
  -30.1113  -11.9368   17.8699 H   0  0  0  0  0  0
  -29.4527  -13.5459   17.6934 H   0  0  0  0  0  0
  -28.1723  -11.2050   19.1162 H   0  0  0  0  0  0
  -27.4977  -12.2044   17.8490 H   0  0  0  0  0  0
  -27.3918  -14.0938   19.2835 H   0  0  0  0  0  0
  -28.7726  -12.4101   21.4765 H   0  0  0  0  0  0
  -27.8882  -13.8840   21.8395 H   0  0  0  0  0  0
  -25.2617   -9.5132   22.4696 H   0  0  0  0  0  0
  -23.9643   -7.4236   22.7599 H   0  0  0  0  0  0
  -21.0470   -8.8396   19.9052 H   0  0  0  0  0  0
  -22.3607  -10.9158   19.5922 H   0  0  0  0  0  0
  -21.1971   -7.6063   23.9675 H   0  0  0  0  0  0
  -21.1428   -6.0515   25.9096 H   0  0  0  0  0  0
  -22.0689   -2.7540   23.2952 H   0  0  0  0  0  0
  -22.4687  -12.0545   22.6752 H   0  0  0  0  0  0
  -21.1090  -13.0878   22.3532 H   0  0  0  0  0  0
  -24.8250  -15.7667   20.7619 H   0  0  0  0  0  0
  -26.4062  -15.3589   20.3214 H   0  0  0  0  0  0
  -26.8216  -32.5849   23.1579 H   0  0  0  0  0  0
  -25.1399  -34.0260   25.1142 H   0  0  0  0  0  0
  -22.7026  -31.4950   21.6292 H   0  0  0  0  0  0
  -23.3878  -35.9673   23.3210 H   0  0  0  0  0  0
  -24.3669  -36.9018   22.1993 H   0  0  0  0  0  0
  -23.7217  -37.6561   23.6560 H   0  0  0  0  0  0
  -26.3081  -31.6111   20.7383 H   0  0  0  0  0  0
  -26.8095  -30.7183   22.1275 H   0  0  0  0  0  0
  -27.4074  -28.3340   21.6481 H   0  0  0  0  0  0
  -25.6672  -26.4203   18.4029 H   0  0  0  0  0  0
  -24.1341  -28.2817   18.0399 H   0  0  0  0  0  0
  -23.5641  -31.0429   19.4893 H   0  0  0  0  0  0
  -22.6121  -29.6741   19.8980 H   0  0  0  0  0  0
  -25.1287  -36.2195   25.0821 H   0  0  0  0  0  0
  -21.7641  -28.2553   24.7536 H   0  0  0  0  0  0
  -23.0598  -25.4231   23.8598 H   0  0  0  0  0  0
  -23.8383  -26.1544   22.7365 H   0  0  0  0  0  0
  -20.9634  -23.9970   21.0816 H   0  0  0  0  0  0
  -21.4993  -25.1276   20.0666 H   0  0  0  0  0  0
  -18.6903  -26.4844   20.0419 H   0  0  0  0  0  0
  -18.1296  -25.4446   21.1909 H   0  0  0  0  0  0
  -19.9147  -30.2128   24.5169 H   0  0  0  0  0  0
  -17.6394  -31.0551   24.4376 H   0  0  0  0  0  0
  -15.8806  -29.7304   23.2827 H   0  0  0  0  0  0
  -16.4560  -27.7228   22.0265 H   0  0  0  0  0  0
  -24.5930  -30.7341   25.7509 H   0  0  0  0  0  0
  -24.8977  -32.2976   26.4983 H   0  0  0  0  0  0
  -25.7818  -30.8776   27.0230 H   0  0  0  0  0  0
  -26.3269  -29.7010   24.1221 H   0  0  0  0  0  0
  -27.3871  -29.7238   25.5078 H   0  0  0  0  0  0
  -27.9313  -30.4361   24.0069 H   0  0  0  0  0  0
  -27.2988  -33.3414   26.2844 H   0  0  0  0  0  0
  -28.4276  -32.6761   25.1107 H   0  0  0  0  0  0
  -28.0790  -31.8071   26.5969 H   0  0  0  0  0  0
  -28.2588  -38.0324   24.7629 H   0  0  0  0  0  0
  -28.1208  -36.2875   24.6159 H   0  0  0  0  0  0
  -27.2370  -37.1432   25.8869 H   0  0  0  0  0  0
  -21.0961  -29.9032   22.6158 H   0  0  0  0  0  0
  -26.0184  -38.3095   24.1511 H   0  0  0  0  0  0
  -19.5126  -24.6559   22.5475 H   0  0  0  0  0  0
  -18.8515  -25.5491   23.2530 H   0  0  0  0  0  0
  -20.3073  -26.5308   24.5910 H   0  0  0  0  0  0
  -21.2748  -25.9838   24.5393 H   0  0  0  0  0  0
  -20.2978  -28.3891   20.9827 H   0  0  0  0  0  0
  -20.4889  -27.3143   20.0964 H   0  0  0  0  0  0
  -22.6141  -26.5362   21.0123 H   0  0  0  0  0  0
  -22.7559  -27.7792   21.7797 H   0  0  0  0  0  0
  -28.4959  -18.1688   19.1611 H   0  0  0  0  0  0
  -28.4254  -16.5426   18.5156 H   0  0  0  0  0  0
  -20.4267  -23.6596   24.1646 H   0  0  0  0  0  0
  -26.0574  -16.3870   18.9086 H   0  0  0  0  0  0
  -26.1290  -19.0615   20.0320 H   0  0  0  0  0  0
  -22.5710  -27.5561   19.4440 H   0  0  0  0  0  0
  -26.5457  -17.1069   22.1643 H   0  0  0  0  0  0
  -21.6403  -16.3388   22.0950 H   0  0  0  0  0  0
  -21.4613  -17.7860   21.1603 H   0  0  0  0  0  0
  -22.2493  -17.8281   22.7435 H   0  0  0  0  0  0
  -25.8760  -19.9438   16.7105 H   0  0  0  0  0  0
  -27.4530  -19.1853   16.6802 H   0  0  0  0  0  0
  -26.8712  -19.9633   18.1457 H   0  0  0  0  0  0
  -25.3028  -16.1126   16.8468 H   0  0  0  0  0  0
  -26.7937  -16.7599   16.1598 H   0  0  0  0  0  0
  -25.2169  -17.4457   15.7197 H   0  0  0  0  0  0
  -24.0760  -19.8331   19.3163 H   0  0  0  0  0  0
  -22.8196  -19.6696   20.5262 H   0  0  0  0  0  0
  -22.8811  -18.5446   19.1823 H   0  0  0  0  0  0
  -22.5307  -21.1769   24.7001 H   0  0  0  0  0  0
  -23.8367  -20.0052   24.4069 H   0  0  0  0  0  0
  -22.5120  -20.1474   23.2880 H   0  0  0  0  0  0
  -23.1149  -23.7747   22.0783 H   0  0  0  0  0  0
  -21.9732  -22.5105   22.0969 H   0  0  0  0  0  0
  -23.3487  -16.3989   20.2575 H   0  0  0  0  0  0
  -24.0322  -16.3649   21.9126 H   0  0  0  0  0  0
  -26.0644  -21.5212   22.0871 H   0  0  0  0  0  0
  -24.9998  -20.7141   21.0976 H   0  0  0  0  0  0
  -24.8730  -18.2688   17.9124 H   0  0  0  0  0  0
  -24.3527  -18.6058   21.7474 H   0  0  0  0  0  0
  -24.5397  -22.2772   23.8018 H   0  0  0  0  0  0
  -27.3915  -19.9047   22.0908 H   0  0  0  0  0  0
  -26.6291  -19.1865   23.2726 H   0  0  0  0  0  0
  1 25  1  0  0  0
  1 30  2  0  0  0
  1 92  1  0  0  0
  2  3  1  0  0  0
  2 25  1  0  0  0
  2 94  1  0  0  0
  2 95  1  0  0  0
  3  4  1  0  0  0
  3 96  1  0  0  0
  3 97  1  0  0  0
  4  5  1  0  0  0
  4 98  1  0  0  0
  4 99  1  0  0  0
  5  6  1  0  0  0
  5 26  1  0  0  0
  5100  1  0  0  0
  6 25  1  0  0  0
  6101  1  0  0  0
  6102  1  0  0  0
  7  8  2  0  0  0
  7 26  1  0  0  0
  7 29  1  0  0  0
  8  9  1  0  0  0
  8 22  1  0  0  0
  9 10  1  0  0  0
  9 27  2  0  0  0
 10 11  2  0  0  0
 10 15  1  0  0  0
 11 12  1  0  0  0
 11103  1  0  0  0
 12 13  2  0  0  0
 12104  1  0  0  0
 13 14  1  0  0  0
 13 31  1  0  0  0
 14 15  2  0  0  0
 14105  1  0  0  0
 15106  1  0  0  0
 16 17  2  0  0  0
 16 21  1  0  0  0
 16 31  1  0  0  0
 17 18  1  0  0  0
 17107  1  0  0  0
 18 19  2  0  0  0
 18108  1  0  0  0
 19 20  1  0  0  0
 19 24  1  0  0  0
 20 21  2  0  0  0
 20109  1  0  0  0
 21 23  1  0  0  0
 22 28  1  0  0  0
 22 32  2  0  0  0
 26 27  1  0  0  0
 28110  1  0  0  0
 28111  1  0  0  0
 29112  1  0  0  0
 29113  1  0  0  0
 33 34  1  0  0  0
 33 66  1  0  0  0
 33 70  2  0  0  0
 34 36  1  0  0  0
 34 59  1  0  0  0
 34114  1  0  0  0
 35 44  2  0  0  0
 35 45  1  0  0  0
 35 68  1  0  0  0
 36 56  1  0  0  0
 36115  1  0  0  0
 37 39  1  0  0  0
 37 47  1  0  0  0
 37 66  1  0  0  0
 37116  1  0  0  0
 38 43  2  0  0  0
 38 46  1  0  0  0
 38 47  1  0  0  0
 39 64  1  0  0  0
 39 67  2  0  0  0
 40 52  1  0  0  0
 40 53  2  0  0  0
 40 58  1  0  0  0
 41117  1  0  0  0
 41118  1  0  0  0
 41119  1  0  0  0
 41 48  1  0  0  0
 42 43  1  0  0  0
 42 66  1  0  0  0
 42120  1  0  0  0
 42121  1  0  0  0
 43 44  1  0  0  0
 44122  1  0  0  0
 45 46  2  0  0  0
 45123  1  0  0  0
 46124  1  0  0  0
 47125  1  0  0  0
 47126  1  0  0  0
 48 56  1  0  0  0
 48 65  1  0  0  0
 48127  1  0  0  0
 49 50  1  0  0  0
 49 53  1  0  0  0
 49 64  1  0  0  0
 49128  1  0  0  0
 50 51  1  0  0  0
 50129  1  0  0  0
 50130  1  0  0  0
 51 52  1  0  0  0
 51131  1  0  0  0
 51132  1  0  0  0
 52133  1  0  0  0
 52134  1  0  0  0
 53 54  1  0  0  0
 54 55  2  0  0  0
 54135  1  0  0  0
 55 57  1  0  0  0
 55136  1  0  0  0
 56 69  2  0  0  0
 57 58  2  0  0  0
 57137  1  0  0  0
 58138  1  0  0  0
 59 60  1  0  0  0
 59 61  1  0  0  0
 59 62  1  0  0  0
 60139  1  0  0  0
 60140  1  0  0  0
 60141  1  0  0  0
 61142  1  0  0  0
 61143  1  0  0  0
 61144  1  0  0  0
 62145  1  0  0  0
 62146  1  0  0  0
 62147  1  0  0  0
 63 65  1  0  0  0
 63148  1  0  0  0
 63149  1  0  0  0
 63150  1  0  0  0
 64151  1  0  0  0
 65152  1  0  0  0
 68 79  1  0  0  0
 71 73  1  0  0  0
 71 76  1  0  0  0
 71153  1  0  0  0
 71154  1  0  0  0
 72 74  1  0  0  0
 72 76  1  0  0  0
 72155  1  0  0  0
 72156  1  0  0  0
 73 79  1  0  0  0
 73157  1  0  0  0
 73158  1  0  0  0
 74 79  1  0  0  0
 74159  1  0  0  0
 74160  1  0  0  0
 75 92  1  0  0  0
 75161  1  0  0  0
 75162  1  0  0  0
 75 77  1  0  0  0
 76 86  1  0  0  0
 76163  1  0  0  0
 77 78  1  0  0  0
 77 89  1  0  0  0
 77164  1  0  0  0
 78 80  1  0  0  0
 78 90  1  0  0  0
 78165  1  0  0  0
 79166  1  0  0  0
 80 92  1  0  0  0
 80 93  1  0  0  0
 80167  1  0  0  0
 81 87  1  0  0  0
 81168  1  0  0  0
 81169  1  0  0  0
 81170  1  0  0  0
 82171  1  0  0  0
 82172  1  0  0  0
 82173  1  0  0  0
 82 89  1  0  0  0
 83 89  1  0  0  0
 83174  1  0  0  0
 83175  1  0  0  0
 83176  1  0  0  0
 84177  1  0  0  0
 84178  1  0  0  0
 84179  1  0  0  0
 84 90  1  0  0  0
 85180  1  0  0  0
 85181  1  0  0  0
 85182  1  0  0  0
 85 91  1  0  0  0
 86 91  1  0  0  0
 86183  1  0  0  0
 86184  1  0  0  0
 87 90  1  0  0  0
 87185  1  0  0  0
 87186  1  0  0  0
 88 91  1  0  0  0
 88 93  1  0  0  0
 88187  1  0  0  0
 88188  1  0  0  0
 89189  1  0  0  0
 90190  1  0  0  0
 91191  1  0  0  0
 93192  1  0  0  0
 93193  1  0  0  0
M  CHG  1  93   1
M  ISO  4   1 100  68 101  79 101  92 100
M  END
> <chiral flag>
0

> <version>
0

> <s_m_source_file>
/data/baiqing/PycharmProjects/Reinvent-master-3.2/result/LINK_invent/BTK/process_docking_weight1_custom_sum_contain_oxygen_bond_distance_aromatic_linkinvent_7_9_3/rearranged_h_0148.sdf

> <i_m_source_file_index>
37

> <r_mmod_Potential_Energy-OPLS-2005>
21162.322265625

> <r_mmod_Stretch_Energy-OPLS-2005>
9318.80859375

> <r_mmod_Bend_Energy-OPLS-2005>
3469.517578125

> <r_mmod_Torsional_Energy-OPLS-2005>
807.769775390625

> <r_mmod_Improper_Torsional_Energy-OPLS-2005>
49.555850982666

> <r_mmod_Van_der_Waal_Energy-OPLS-2005>
3508.80102539062

> <r_mmod_Electrostatic_Energy-OPLS-2005>
-263.398345947266

> <r_mmod_Solvation_Energy-OPLS-2005>
-429.923431396484

> <b_mmod_Minimization_Converged-OPLS-2005>
0

> <r_mmod_RMS_Derivative-OPLS-2005>
28.1758403778076

$$$$
37
                    3D
 Structure written by MMmdl.
180189  0  0  1  0            999 V2000
  -30.6476  -14.5423   20.4712 C   0  0  0  0  0  0
  -30.4214  -12.3165   19.4535 C   0  0  0  0  0  0
  -29.5014  -12.4902   18.2247 C   0  0  0  0  0  0
  -28.0211  -12.3435   18.6309 C   0  0  0  0  0  0
  -27.6544  -13.2007   19.8717 C   0  0  2  0  0  0
  -28.6970  -13.0359   21.0035 C   0  0  0  0  0  0
  -25.2576  -13.8145   20.5706 C   0  0  0  0  0  0
  -24.1825  -13.0427   20.9220 C   0  0  0  0  0  0
  -24.6375  -11.6898   20.8770 C   0  0  0  0  0  0
  -23.9038  -10.4285   21.0425 C   0  0  0  0  0  0
  -24.3599   -9.4207   21.9203 C   0  0  0  0  0  0
  -23.6284   -8.2234   22.0761 C   0  0  0  0  0  0
  -22.4262   -8.0275   21.3554 C   0  0  0  0  0  0
  -21.9898   -9.0241   20.4655 C   0  0  0  0  0  0
  -22.7214  -10.2129   20.3066 C   0  0  0  0  0  0
  -21.6852   -6.0726   22.5280 C   0  0  0  0  0  0
  -21.4014   -6.5637   23.8211 C   0  0  0  0  0  0
  -21.3660   -5.6798   24.9177 C   0  0  0  0  0  0
  -21.6040   -4.3056   24.7234 C   0  0  0  0  0  0
  -21.8817   -3.8146   23.4358 C   0  0  0  0  0  0
  -21.9188   -4.6958   22.3409 C   0  0  0  0  0  0
  -22.7859  -13.5248   21.1875 C   0  0  0  0  0  0
  -22.1660   -4.2147   21.0987 F   0  0  0  0  0  0
  -21.5623   -3.4539   25.7750 F   0  0  0  0  0  0
  -30.0260  -13.3299   20.4433 N   0  0  0  0  0  0
  -26.2980  -12.9289   20.3355 N   0  0  0  0  0  0
  -25.9293  -11.6460   20.5781 N   0  0  0  0  0  0
  -22.0491  -12.8241   22.0423 N   0  0  0  0  0  0
  -25.4328  -15.1853   20.4116 N   0  0  0  0  0  0
  -31.8038  -14.7106   20.0757 O   0  0  0  0  0  0
  -21.6635   -6.8869   21.4238 O   0  0  0  0  0  0
  -22.3567  -14.5565   20.6730 O   0  0  0  0  0  0
  -24.6144  -31.8661   23.2095 C   0  0  0  0  0  0
  -25.9016  -32.4827   23.8392 C   0  0  1  0  0  0
  -27.2318  -27.4043   20.0832 C   0  0  0  0  0  0
  -25.5885  -33.8637   24.2298 N   0  0  0  0  0  0
  -23.4029  -30.4892   21.5515 C   0  0  2  0  0  0
  -24.8482  -28.9502   20.1163 C   0  0  0  0  0  0
  -22.7411  -29.4629   22.4991 C   0  0  0  0  0  0
  -18.0265  -28.1386   22.8495 C   0  0  0  0  0  0
  -24.1458  -36.7255   23.2649 C   0  0  0  0  0  0
  -25.9386  -30.8145   21.3725 C   0  0  0  0  0  0
  -26.0112  -29.4493   20.7157 C   0  0  0  0  0  0
  -27.2026  -28.6807   20.7007 C   0  0  0  0  0  0
  -26.0411  -26.9236   19.4955 C   0  0  0  0  0  0
  -24.8587  -27.6847   19.5084 C   0  0  0  0  0  0
  -23.6118  -29.8211   20.1666 C   0  0  0  0  0  0
  -25.4093  -36.3091   24.0336 C   0  0  1  0  0  0
  -20.5857  -28.3654   23.1336 C   0  0  2  0  0  0
  -20.6730  -26.9385   22.5431 C   0  0  0  0  0  0
  -19.5704  -26.6377   21.5223 C   0  0  0  0  0  0
  -18.1884  -26.7945   22.1620 C   0  0  0  0  0  0
  -19.1518  -28.8835   23.2918 C   0  0  0  0  0  0
  -18.9446  -30.1450   23.8905 C   0  0  0  0  0  0
  -17.6441  -30.6588   24.0574 C   0  0  0  0  0  0
  -25.9039  -34.9480   23.5103 C   0  0  0  0  0  0
  -16.5340  -29.9078   23.6369 C   0  0  0  0  0  0
  -16.7261  -28.6509   23.0361 C   0  0  0  0  0  0
  -26.4478  -31.6698   25.0764 C   0  0  0  0  0  0
  -25.3784  -31.3722   26.1536 C   0  0  0  0  0  0
  -27.0365  -30.3178   24.6154 C   0  0  0  0  0  0
  -27.6018  -32.4557   25.7456 C   0  0  0  0  0  0
  -27.5555  -37.1751   24.8500 C   0  0  0  0  0  0
  -21.4129  -29.3027   22.3758 N   0  0  0  0  0  0
  -26.4269  -37.3793   23.9444 N   0  0  0  0  0  0
  -24.6704  -31.0731   22.1019 N   0  0  0  0  0  0
  -23.4189  -28.8146   23.3002 O   0  0  0  0  0  0
  -28.4060  -26.6629   20.1006 O   0  0  0  0  0  0
  -26.5596  -34.8929   22.4662 O   0  0  0  0  0  0
  -23.5334  -32.1475   23.7449 O   0  0  0  0  0  0
  -30.8260  -18.1264   23.2215 C   0  0  0  0  0  0
  -28.5030  -17.4895   22.8275 C   0  0  0  0  0  0
  -29.4257  -17.4378   25.0799 C   0  0  0  0  0  0
  -29.7493  -17.9329   22.3304 C   0  0  0  0  0  0
  -30.6746  -17.8843   24.6065 C   0  0  0  0  0  0
  -28.3404  -17.2182   24.2082 C   0  0  0  0  0  0
  -29.1462  -23.0669   21.8526 C   0  0  0  0  0  0
  -29.0294  -23.1771   20.3506 C   0  0  1  0  0  0
  -28.6273  -21.8742   21.0661 C   0  0  1  0  0  0
  -27.2551  -23.4130   18.5931 C   0  0  0  0  0  0
  -28.5920  -16.9143   19.0143 C   0  0  0  0  0  0
  -32.9593  -18.4738   25.0683 C   0  0  0  0  0  0
  -26.1516  -16.2813   23.9028 C   0  0  0  0  0  0
  -29.2201  -19.4938   20.3477 C   0  0  0  0  0  0
  -28.5614  -25.5091   19.2409 C   0  0  0  0  0  0
  -29.9619  -18.1911   20.8401 C   0  0  2  0  0  0
  -27.9831  -24.1378   19.7420 C   0  0  2  0  0  0
  -29.8179  -16.8907   19.9482 C   0  0  1  0  0  0
  -29.8119  -15.5873   20.6690 N   0  0  0  0  0  0
  -29.5970  -20.7305   21.0992 N   0  3  0  0  0  0
  -31.6807  -18.0540   25.5340 O   0  0  0  0  0  0
  -27.1769  -16.7435   24.7728 O   0  0  0  0  0  0
  -31.4711  -12.4041   19.1666 H   0  0  0  0  0  0
  -30.3086  -11.3185   19.8804 H   0  0  0  0  0  0
  -29.7524  -11.7555   17.4592 H   0  0  0  0  0  0
  -29.6625  -13.4701   17.7728 H   0  0  0  0  0  0
  -27.8415  -11.2892   18.8452 H   0  0  0  0  0  0
  -27.3722  -12.5960   17.7925 H   0  0  0  0  0  0
  -27.6737  -14.2348   19.5400 H   0  0  0  0  0  0
  -28.6774  -12.0192   21.3979 H   0  0  0  0  0  0
  -28.4606  -13.6862   21.8479 H   0  0  0  0  0  0
  -25.2736   -9.5685   22.4782 H   0  0  0  0  0  0
  -24.0000   -7.4623   22.7478 H   0  0  0  0  0  0
  -21.0832   -8.8756   19.8958 H   0  0  0  0  0  0
  -22.3677  -10.9668   19.6178 H   0  0  0  0  0  0
  -21.2013   -7.6150   23.9719 H   0  0  0  0  0  0
  -21.1474   -6.0528   25.9083 H   0  0  0  0  0  0
  -22.0588   -2.7603   23.2860 H   0  0  0  0  0  0
  -22.4086  -11.9878   22.4784 H   0  0  0  0  0  0
  -21.1119  -13.1292   22.2645 H   0  0  0  0  0  0
  -24.6492  -15.8265   20.4650 H   0  0  0  0  0  0
  -26.2567  -15.5986   19.9985 H   0  0  0  0  0  0
  -26.7055  -32.5480   23.1114 H   0  0  0  0  0  0
  -25.0126  -33.9870   25.0497 H   0  0  0  0  0  0
  -22.6917  -31.3065   21.4098 H   0  0  0  0  0  0
  -23.3779  -35.9537   23.3334 H   0  0  0  0  0  0
  -24.3516  -36.8877   22.2059 H   0  0  0  0  0  0
  -23.7186  -37.6426   23.6695 H   0  0  0  0  0  0
  -26.0707  -31.5791   20.6072 H   0  0  0  0  0  0
  -26.8212  -30.8574   21.9982 H   0  0  0  0  0  0
  -28.0998  -29.0625   21.1672 H   0  0  0  0  0  0
  -25.9970  -25.9503   19.0379 H   0  0  0  0  0  0
  -23.9625  -27.2832   19.0563 H   0  0  0  0  0  0
  -23.7158  -30.5971   19.4075 H   0  0  0  0  0  0
  -22.7348  -29.2430   19.8693 H   0  0  0  0  0  0
  -25.1287  -36.1906   25.0833 H   0  0  0  0  0  0
  -20.9966  -28.3211   24.1452 H   0  0  0  0  0  0
  -20.5590  -26.2268   23.3626 H   0  0  0  0  0  0
  -21.6597  -26.7376   22.1243 H   0  0  0  0  0  0
  -19.6834  -25.6285   21.1249 H   0  0  0  0  0  0
  -19.6653  -27.3190   20.6757 H   0  0  0  0  0  0
  -17.4165  -26.6753   21.4009 H   0  0  0  0  0  0
  -18.0232  -26.0083   22.8998 H   0  0  0  0  0  0
  -19.7916  -30.7279   24.2277 H   0  0  0  0  0  0
  -17.4994  -31.6272   24.5162 H   0  0  0  0  0  0
  -15.5335  -30.2949   23.7726 H   0  0  0  0  0  0
  -15.8670  -28.0834   22.7060 H   0  0  0  0  0  0
  -24.5862  -30.7200   25.7841 H   0  0  0  0  0  0
  -24.9060  -32.2826   26.5236 H   0  0  0  0  0  0
  -25.8166  -30.8673   27.0152 H   0  0  0  0  0  0
  -26.2869  -29.6839   24.1391 H   0  0  0  0  0  0
  -27.4366  -29.7537   25.4589 H   0  0  0  0  0  0
  -27.8614  -30.4580   23.9165 H   0  0  0  0  0  0
  -27.2575  -33.3830   26.2057 H   0  0  0  0  0  0
  -28.3703  -32.7255   25.0202 H   0  0  0  0  0  0
  -28.0852  -31.8761   26.5324 H   0  0  0  0  0  0
  -28.2627  -38.0001   24.7560 H   0  0  0  0  0  0
  -28.1001  -36.2541   24.6349 H   0  0  0  0  0  0
  -27.2258  -37.1444   25.8902 H   0  0  0  0  0  0
  -20.9280  -29.8858   21.7089 H   0  0  0  0  0  0
  -26.0138  -38.2837   24.1553 H   0  0  0  0  0  0
  -31.7721  -18.4599   22.8221 H   0  0  0  0  0  0
  -27.6878  -17.3453   22.1335 H   0  0  0  0  0  0
  -29.3000  -17.2462   26.1362 H   0  0  0  0  0  0
  -28.4299  -23.6305   22.4481 H   0  0  0  0  0  0
  -30.1543  -23.0353   22.2635 H   0  0  0  0  0  0
  -29.9614  -23.1310   19.7881 H   0  0  0  0  0  0
  -27.5816  -21.6003   21.2049 H   0  0  0  0  0  0
  -26.7553  -22.5079   18.9390 H   0  0  0  0  0  0
  -27.9496  -23.1317   17.8013 H   0  0  0  0  0  0
  -26.4848  -24.0365   18.1431 H   0  0  0  0  0  0
  -28.6350  -17.7418   18.3061 H   0  0  0  0  0  0
  -27.6579  -16.9969   19.5695 H   0  0  0  0  0  0
  -28.5433  -16.0112   18.4051 H   0  0  0  0  0  0
  -33.6504  -18.5472   25.9080 H   0  0  0  0  0  0
  -32.9114  -19.4578   24.5995 H   0  0  0  0  0  0
  -33.3833  -17.7599   24.3607 H   0  0  0  0  0  0
  -25.3477  -15.8508   24.5006 H   0  0  0  0  0  0
  -26.5141  -15.5012   23.2314 H   0  0  0  0  0  0
  -25.7255  -17.0946   23.3145 H   0  0  0  0  0  0
  -28.1429  -19.3495   20.4277 H   0  0  0  0  0  0
  -29.4318  -19.6713   19.2929 H   0  0  0  0  0  0
  -28.1543  -25.7596   18.2589 H   0  0  0  0  0  0
  -29.6274  -25.3915   19.0478 H   0  0  0  0  0  0
  -31.0204  -18.4377   20.7432 H   0  0  0  0  0  0
  -27.2290  -24.3509   20.5017 H   0  0  0  0  0  0
  -30.6780  -16.8908   19.2744 H   0  0  0  0  0  0
  -28.9256  -15.3270   21.0726 H   0  0  0  0  0  0
  -29.6779  -20.4534   22.0642 H   0  0  0  0  0  0
  -30.5094  -21.0326   20.7982 H   0  0  0  0  0  0
  1 25  1  0  0  0
  1 30  2  0  0  0
  1 89  1  0  0  0
  2  3  1  0  0  0
  2 25  1  0  0  0
  2 93  1  0  0  0
  2 94  1  0  0  0
  3  4  1  0  0  0
  3 95  1  0  0  0
  3 96  1  0  0  0
  4  5  1  0  0  0
  4 97  1  0  0  0
  4 98  1  0  0  0
  5  6  1  0  0  0
  5 26  1  0  0  0
  5 99  1  0  0  0
  6 25  1  0  0  0
  6100  1  0  0  0
  6101  1  0  0  0
  7  8  2  0  0  0
  7 26  1  0  0  0
  7 29  1  0  0  0
  8  9  1  0  0  0
  8 22  1  0  0  0
  9 10  1  0  0  0
  9 27  2  0  0  0
 10 11  2  0  0  0
 10 15  1  0  0  0
 11 12  1  0  0  0
 11102  1  0  0  0
 12 13  2  0  0  0
 12103  1  0  0  0
 13 14  1  0  0  0
 13 31  1  0  0  0
 14 15  2  0  0  0
 14104  1  0  0  0
 15105  1  0  0  0
 16 17  2  0  0  0
 16 21  1  0  0  0
 16 31  1  0  0  0
 17 18  1  0  0  0
 17106  1  0  0  0
 18 19  2  0  0  0
 18107  1  0  0  0
 19 20  1  0  0  0
 19 24  1  0  0  0
 20 21  2  0  0  0
 20108  1  0  0  0
 21 23  1  0  0  0
 22 28  1  0  0  0
 22 32  2  0  0  0
 26 27  1  0  0  0
 28109  1  0  0  0
 28110  1  0  0  0
 29111  1  0  0  0
 29112  1  0  0  0
 33 34  1  0  0  0
 33 66  1  0  0  0
 33 70  2  0  0  0
 34 36  1  0  0  0
 34 59  1  0  0  0
 34113  1  0  0  0
 35 44  2  0  0  0
 35 45  1  0  0  0
 35 68  1  0  0  0
 36 56  1  0  0  0
 36114  1  0  0  0
 37 39  1  0  0  0
 37 47  1  0  0  0
 37 66  1  0  0  0
 37115  1  0  0  0
 38 43  2  0  0  0
 38 46  1  0  0  0
 38 47  1  0  0  0
 39 64  1  0  0  0
 39 67  2  0  0  0
 40 52  1  0  0  0
 40 53  2  0  0  0
 40 58  1  0  0  0
 41116  1  0  0  0
 41117  1  0  0  0
 41118  1  0  0  0
 41 48  1  0  0  0
 42 43  1  0  0  0
 42 66  1  0  0  0
 42119  1  0  0  0
 42120  1  0  0  0
 43 44  1  0  0  0
 44121  1  0  0  0
 45 46  2  0  0  0
 45122  1  0  0  0
 46123  1  0  0  0
 47124  1  0  0  0
 47125  1  0  0  0
 48 56  1  0  0  0
 48 65  1  0  0  0
 48126  1  0  0  0
 49 50  1  0  0  0
 49 53  1  0  0  0
 49 64  1  0  0  0
 49127  1  0  0  0
 50 51  1  0  0  0
 50128  1  0  0  0
 50129  1  0  0  0
 51 52  1  0  0  0
 51130  1  0  0  0
 51131  1  0  0  0
 52132  1  0  0  0
 52133  1  0  0  0
 53 54  1  0  0  0
 54 55  2  0  0  0
 54134  1  0  0  0
 55 57  1  0  0  0
 55135  1  0  0  0
 56 69  2  0  0  0
 57 58  2  0  0  0
 57136  1  0  0  0
 58137  1  0  0  0
 59 60  1  0  0  0
 59 61  1  0  0  0
 59 62  1  0  0  0
 60138  1  0  0  0
 60139  1  0  0  0
 60140  1  0  0  0
 61141  1  0  0  0
 61142  1  0  0  0
 61143  1  0  0  0
 62144  1  0  0  0
 62145  1  0  0  0
 62146  1  0  0  0
 63 65  1  0  0  0
 63147  1  0  0  0
 63148  1  0  0  0
 63149  1  0  0  0
 64150  1  0  0  0
 65151  1  0  0  0
 68 85  1  0  0  0
 71 74  2  0  0  0
 71 75  1  0  0  0
 71152  1  0  0  0
 72 74  1  0  0  0
 72 76  2  0  0  0
 72153  1  0  0  0
 73 75  2  0  0  0
 73 76  1  0  0  0
 73154  1  0  0  0
 74 86  1  0  0  0
 75 91  1  0  0  0
 76 92  1  0  0  0
 77 79  1  0  0  0
 77155  1  0  0  0
 77156  1  0  0  0
 77 78  1  0  0  0
 78 79  1  0  0  0
 78 87  1  0  0  0
 78157  1  0  0  0
 79 90  1  0  0  0
 79158  1  0  0  0
 80159  1  0  0  0
 80160  1  0  0  0
 80161  1  0  0  0
 80 87  1  0  0  0
 81162  1  0  0  0
 81163  1  0  0  0
 81164  1  0  0  0
 81 88  1  0  0  0
 82 91  1  0  0  0
 82165  1  0  0  0
 82166  1  0  0  0
 82167  1  0  0  0
 83 92  1  0  0  0
 83168  1  0  0  0
 83169  1  0  0  0
 83170  1  0  0  0
 84 90  1  0  0  0
 84171  1  0  0  0
 84172  1  0  0  0
 84 86  1  0  0  0
 85 87  1  0  0  0
 85173  1  0  0  0
 85174  1  0  0  0
 86 88  1  0  0  0
 86175  1  0  0  0
 87176  1  0  0  0
 88 89  1  0  0  0
 88177  1  0  0  0
 89178  1  0  0  0
 90179  1  0  0  0
 90180  1  0  0  0
M  CHG  1  90   1
M  ISO  4   1 100  68 101  85 101  89 100
M  END
> <chiral flag>
0

> <version>
0

> <s_m_source_file>
/data/baiqing/PycharmProjects/Reinvent-master-3.2/result/LINK_invent/BTK/process_docking_weight1_custom_sum_contain_oxygen_bond_distance_aromatic_linkinvent_7_9_3/rearranged_h_0148.sdf

> <i_m_source_file_index>
38

> <r_mmod_Potential_Energy-OPLS-2005>
-96.2515487670898

> <r_mmod_Stretch_Energy-OPLS-2005>
52.4780082702637

> <r_mmod_Bend_Energy-OPLS-2005>
142.211669921875

> <r_mmod_Torsional_Energy-OPLS-2005>
303.398345947266

> <r_mmod_Improper_Torsional_Energy-OPLS-2005>
9.74770927429199

> <r_mmod_Van_der_Waal_Energy-OPLS-2005>
146.620071411133

> <r_mmod_Electrostatic_Energy-OPLS-2005>
-284.421630859375

> <r_mmod_Solvation_Energy-OPLS-2005>
-489.314666748047

> <b_mmod_Minimization_Converged-OPLS-2005>
0

> <r_mmod_RMS_Derivative-OPLS-2005>
2.79836821556091

$$$$
38
                    3D
 Structure written by MMmdl.
166175  0  0  1  0            999 V2000
  -30.6802  -14.5228   20.5093 C   0  0  0  0  0  0
  -30.4118  -12.3208   19.4395 C   0  0  0  0  0  0
  -29.4919  -12.4917   18.2136 C   0  0  0  0  0  0
  -28.0131  -12.3505   18.6268 C   0  0  0  0  0  0
  -27.6491  -13.2120   19.8663 C   0  0  2  0  0  0
  -28.6913  -13.0543   20.9951 C   0  0  0  0  0  0
  -25.2542  -13.8180   20.5710 C   0  0  0  0  0  0
  -24.1809  -13.0446   20.9189 C   0  0  0  0  0  0
  -24.6363  -11.6912   20.8734 C   0  0  0  0  0  0
  -23.9045  -10.4296   21.0403 C   0  0  0  0  0  0
  -24.3598   -9.4219   21.9183 C   0  0  0  0  0  0
  -23.6284   -8.2250   22.0756 C   0  0  0  0  0  0
  -22.4268   -8.0275   21.3541 C   0  0  0  0  0  0
  -21.9897   -9.0249   20.4647 C   0  0  0  0  0  0
  -22.7218  -10.2133   20.3058 C   0  0  0  0  0  0
  -21.6851   -6.0734   22.5278 C   0  0  0  0  0  0
  -21.4017   -6.5643   23.8208 C   0  0  0  0  0  0
  -21.3659   -5.6793   24.9171 C   0  0  0  0  0  0
  -21.6042   -4.3058   24.7218 C   0  0  0  0  0  0
  -21.8821   -3.8148   23.4342 C   0  0  0  0  0  0
  -21.9195   -4.6967   22.3396 C   0  0  0  0  0  0
  -22.7834  -13.5242   21.1862 C   0  0  0  0  0  0
  -22.1665   -4.2147   21.0977 F   0  0  0  0  0  0
  -21.5624   -3.4546   25.7737 F   0  0  0  0  0  0
  -30.0106  -13.3408   20.4205 N   0  0  0  0  0  0
  -26.2961  -12.9344   20.3354 N   0  0  0  0  0  0
  -25.9288  -11.6506   20.5773 N   0  0  0  0  0  0
  -22.0481  -12.8222   22.0411 N   0  0  0  0  0  0
  -25.4300  -15.1899   20.4170 N   0  0  0  0  0  0
  -31.8630  -14.6337   20.1676 O   0  0  0  0  0  0
  -21.6640   -6.8870   21.4234 O   0  0  0  0  0  0
  -22.3520  -14.5552   20.6721 O   0  0  0  0  0  0
  -24.6166  -31.8646   23.2078 C   0  0  0  0  0  0
  -25.9051  -32.4801   23.8376 C   0  0  1  0  0  0
  -27.2264  -27.3950   20.1086 C   0  0  0  0  0  0
  -25.5887  -33.8604   24.2294 N   0  0  0  0  0  0
  -23.4042  -30.4889   21.5493 C   0  0  2  0  0  0
  -24.8464  -28.9453   20.1164 C   0  0  0  0  0  0
  -22.7406  -29.4650   22.4997 C   0  0  0  0  0  0
  -18.0253  -28.1367   22.8506 C   0  0  0  0  0  0
  -24.1477  -36.7321   23.2641 C   0  0  0  0  0  0
  -25.9343  -30.8183   21.3639 C   0  0  0  0  0  0
  -26.0087  -29.4499   20.7113 C   0  0  0  0  0  0
  -27.1982  -28.6828   20.7018 C   0  0  0  0  0  0
  -26.0442  -26.9112   19.5051 C   0  0  0  0  0  0
  -24.8603  -27.6764   19.5110 C   0  0  0  0  0  0
  -23.6107  -29.8169   20.1650 C   0  0  0  0  0  0
  -25.4098  -36.3105   24.0331 C   0  0  1  0  0  0
  -20.5850  -28.3656   23.1310 C   0  0  2  0  0  0
  -20.6752  -26.9398   22.5411 C   0  0  0  0  0  0
  -19.5730  -26.6387   21.5209 C   0  0  0  0  0  0
  -18.1903  -26.7918   22.1616 C   0  0  0  0  0  0
  -19.1510  -28.8830   23.2903 C   0  0  0  0  0  0
  -18.9447  -30.1446   23.8911 C   0  0  0  0  0  0
  -17.6453  -30.6591   24.0574 C   0  0  0  0  0  0
  -25.9032  -34.9470   23.5114 C   0  0  0  0  0  0
  -16.5339  -29.9094   23.6348 C   0  0  0  0  0  0
  -16.7245  -28.6504   23.0374 C   0  0  0  0  0  0
  -26.4465  -31.6599   25.0733 C   0  0  0  0  0  0
  -25.3727  -31.3695   26.1485 C   0  0  0  0  0  0
  -27.0318  -30.3037   24.6136 C   0  0  0  0  0  0
  -27.6027  -32.4335   25.7499 C   0  0  0  0  0  0
  -27.5571  -37.1808   24.8467 C   0  0  0  0  0  0
  -21.4134  -29.3029   22.3726 N   0  0  0  0  0  0
  -26.4286  -37.3788   23.9409 N   0  0  0  0  0  0
  -24.6701  -31.0723   22.0982 N   0  0  0  0  0  0
  -23.4166  -28.8208   23.3064 O   0  0  0  0  0  0
  -28.4056  -26.6687   20.1435 O   0  0  0  0  0  0
  -26.5627  -34.8936   22.4694 O   0  0  0  0  0  0
  -23.5356  -32.1430   23.7454 O   0  0  0  0  0  0
  -28.1765  -20.5605   21.8605 C   0  0  0  0  0  0
  -28.9118  -20.0835   20.7542 C   0  0  0  0  0  0
  -27.8074  -21.9242   21.9279 C   0  0  0  0  0  0
  -28.1606  -22.7988   20.8708 C   0  0  0  0  0  0
  -29.1903  -21.0215   19.7311 C   0  0  0  0  0  0
  -29.3885  -17.7935   21.9769 C   0  0  0  0  0  0
  -28.8960  -17.7434   19.5838 C   0  0  0  0  0  0
  -30.2053  -16.4750   21.8657 C   0  0  0  0  0  0
  -29.7254  -16.4420   19.4325 C   0  0  0  0  0  0
  -29.4778  -18.6388   20.6896 C   0  0  0  0  0  0
  -27.0689  -22.4334   23.1536 C   0  0  0  0  0  0
  -30.1160  -21.5273   17.5638 C   0  0  0  0  0  0
  -27.8145  -24.3106   20.9271 C   0  0  0  0  0  0
  -28.4368  -25.2487   19.8441 C   0  0  0  0  0  0
  -28.8144  -22.3284   19.7849 N   0  0  0  0  0  0
  -29.9188  -15.6451   20.6724 N   0  0  0  0  0  0
  -29.8985  -20.6027   18.6245 O   0  0  0  0  0  0
  -31.4589  -12.4092   19.1445 H   0  0  0  0  0  0
  -30.3046  -11.3225   19.8672 H   0  0  0  0  0  0
  -29.7386  -11.7557   17.4477 H   0  0  0  0  0  0
  -29.6569  -13.4697   17.7587 H   0  0  0  0  0  0
  -27.8298  -11.2974   18.8459 H   0  0  0  0  0  0
  -27.3627  -12.6038   17.7890 H   0  0  0  0  0  0
  -27.6693  -14.2498   19.5353 H   0  0  0  0  0  0
  -28.6717  -12.0433   21.4048 H   0  0  0  0  0  0
  -28.4652  -13.7241   21.8268 H   0  0  0  0  0  0
  -25.2738   -9.5710   22.4757 H   0  0  0  0  0  0
  -23.9998   -7.4646   22.7478 H   0  0  0  0  0  0
  -21.0831   -8.8765   19.8943 H   0  0  0  0  0  0
  -22.3674  -10.9672   19.6167 H   0  0  0  0  0  0
  -21.2014   -7.6150   23.9713 H   0  0  0  0  0  0
  -21.1478   -6.0526   25.9071 H   0  0  0  0  0  0
  -22.0599   -2.7610   23.2847 H   0  0  0  0  0  0
  -22.4083  -11.9857   22.4763 H   0  0  0  0  0  0
  -21.1106  -13.1256   22.2642 H   0  0  0  0  0  0
  -24.6727  -15.8535   20.5411 H   0  0  0  0  0  0
  -26.3019  -15.6274   20.1465 H   0  0  0  0  0  0
  -26.7120  -32.5497   23.1133 H   0  0  0  0  0  0
  -25.0022  -33.9736   25.0429 H   0  0  0  0  0  0
  -22.6966  -31.3089   21.4093 H   0  0  0  0  0  0
  -23.3739  -35.9657   23.3324 H   0  0  0  0  0  0
  -24.3557  -36.8929   22.2051 H   0  0  0  0  0  0
  -23.7242  -37.6530   23.6664 H   0  0  0  0  0  0
  -26.0510  -31.5821   20.5938 H   0  0  0  0  0  0
  -26.8187  -30.8708   21.9863 H   0  0  0  0  0  0
  -28.0962  -29.0674   21.1648 H   0  0  0  0  0  0
  -26.0164  -25.9420   19.0299 H   0  0  0  0  0  0
  -23.9646  -27.2785   19.0528 H   0  0  0  0  0  0
  -23.7194  -30.5895   19.4024 H   0  0  0  0  0  0
  -22.7316  -29.2381   19.8755 H   0  0  0  0  0  0
  -25.1271  -36.1969   25.0826 H   0  0  0  0  0  0
  -20.9927  -28.3233   24.1434 H   0  0  0  0  0  0
  -20.5657  -26.2268   23.3597 H   0  0  0  0  0  0
  -21.6623  -26.7456   22.1210 H   0  0  0  0  0  0
  -19.6902  -25.6312   21.1214 H   0  0  0  0  0  0
  -19.6669  -27.3215   20.6762 H   0  0  0  0  0  0
  -17.4176  -26.6677   21.4010 H   0  0  0  0  0  0
  -18.0325  -26.0035   22.8993 H   0  0  0  0  0  0
  -19.7929  -30.7258   24.2274 H   0  0  0  0  0  0
  -17.5016  -31.6273   24.5167 H   0  0  0  0  0  0
  -15.5345  -30.3001   23.7674 H   0  0  0  0  0  0
  -15.8639  -28.0831   22.7094 H   0  0  0  0  0  0
  -24.5923  -30.6993   25.7860 H   0  0  0  0  0  0
  -24.8878  -32.2828   26.4938 H   0  0  0  0  0  0
  -25.8088  -30.8901   27.0255 H   0  0  0  0  0  0
  -26.2887  -29.6788   24.1163 H   0  0  0  0  0  0
  -27.4060  -29.7282   25.4612 H   0  0  0  0  0  0
  -27.8728  -30.4375   23.9327 H   0  0  0  0  0  0
  -27.2651  -33.3649   26.2058 H   0  0  0  0  0  0
  -28.3854  -32.6853   25.0335 H   0  0  0  0  0  0
  -28.0678  -31.8468   26.5429 H   0  0  0  0  0  0
  -28.2591  -38.0104   24.7527 H   0  0  0  0  0  0
  -28.1053  -36.2628   24.6283 H   0  0  0  0  0  0
  -27.2287  -37.1480   25.8870 H   0  0  0  0  0  0
  -20.9307  -29.8756   21.6943 H   0  0  0  0  0  0
  -26.0175  -38.2860   24.1421 H   0  0  0  0  0  0
  -27.9221  -19.8982   22.6751 H   0  0  0  0  0  0
  -29.7677  -18.3613   22.8277 H   0  0  0  0  0  0
  -28.3461  -17.5602   22.2024 H   0  0  0  0  0  0
  -27.8514  -17.5084   19.7908 H   0  0  0  0  0  0
  -28.9026  -18.2640   18.6258 H   0  0  0  0  0  0
  -30.0300  -15.8792   22.7634 H   0  0  0  0  0  0
  -31.2693  -16.7236   21.8718 H   0  0  0  0  0  0
  -30.7038  -16.7125   19.0288 H   0  0  0  0  0  0
  -29.2573  -15.8166   18.6703 H   0  0  0  0  0  0
  -30.5395  -18.7788   20.4770 H   0  0  0  0  0  0
  -26.7689  -21.6145   23.8088 H   0  0  0  0  0  0
  -26.1693  -22.9791   22.8689 H   0  0  0  0  0  0
  -27.7118  -23.1016   23.7274 H   0  0  0  0  0  0
  -30.6212  -21.0167   16.7446 H   0  0  0  0  0  0
  -30.7533  -22.3538   17.8800 H   0  0  0  0  0  0
  -29.1767  -21.9258   17.1759 H   0  0  0  0  0  0
  -28.1385  -24.6740   21.9025 H   0  0  0  0  0  0
  -26.7295  -24.4129   20.9219 H   0  0  0  0  0  0
  -29.4961  -25.0009   19.7674 H   0  0  0  0  0  0
  -28.0236  -25.0441   18.8567 H   0  0  0  0  0  0
  1 25  1  0  0  0
  1 30  2  0  0  0
  1 86  1  0  0  0
  2  3  1  0  0  0
  2 25  1  0  0  0
  2 88  1  0  0  0
  2 89  1  0  0  0
  3  4  1  0  0  0
  3 90  1  0  0  0
  3 91  1  0  0  0
  4  5  1  0  0  0
  4 92  1  0  0  0
  4 93  1  0  0  0
  5  6  1  0  0  0
  5 26  1  0  0  0
  5 94  1  0  0  0
  6 25  1  0  0  0
  6 95  1  0  0  0
  6 96  1  0  0  0
  7  8  2  0  0  0
  7 26  1  0  0  0
  7 29  1  0  0  0
  8  9  1  0  0  0
  8 22  1  0  0  0
  9 10  1  0  0  0
  9 27  2  0  0  0
 10 11  2  0  0  0
 10 15  1  0  0  0
 11 12  1  0  0  0
 11 97  1  0  0  0
 12 13  2  0  0  0
 12 98  1  0  0  0
 13 14  1  0  0  0
 13 31  1  0  0  0
 14 15  2  0  0  0
 14 99  1  0  0  0
 15100  1  0  0  0
 16 17  2  0  0  0
 16 21  1  0  0  0
 16 31  1  0  0  0
 17 18  1  0  0  0
 17101  1  0  0  0
 18 19  2  0  0  0
 18102  1  0  0  0
 19 20  1  0  0  0
 19 24  1  0  0  0
 20 21  2  0  0  0
 20103  1  0  0  0
 21 23  1  0  0  0
 22 28  1  0  0  0
 22 32  2  0  0  0
 26 27  1  0  0  0
 28104  1  0  0  0
 28105  1  0  0  0
 29106  1  0  0  0
 29107  1  0  0  0
 33 34  1  0  0  0
 33 66  1  0  0  0
 33 70  2  0  0  0
 34 36  1  0  0  0
 34 59  1  0  0  0
 34108  1  0  0  0
 35 44  2  0  0  0
 35 45  1  0  0  0
 35 68  1  0  0  0
 36 56  1  0  0  0
 36109  1  0  0  0
 37 39  1  0  0  0
 37 47  1  0  0  0
 37 66  1  0  0  0
 37110  1  0  0  0
 38 43  2  0  0  0
 38 46  1  0  0  0
 38 47  1  0  0  0
 39 64  1  0  0  0
 39 67  2  0  0  0
 40 52  1  0  0  0
 40 53  2  0  0  0
 40 58  1  0  0  0
 41111  1  0  0  0
 41112  1  0  0  0
 41113  1  0  0  0
 41 48  1  0  0  0
 42 43  1  0  0  0
 42 66  1  0  0  0
 42114  1  0  0  0
 42115  1  0  0  0
 43 44  1  0  0  0
 44116  1  0  0  0
 45 46  2  0  0  0
 45117  1  0  0  0
 46118  1  0  0  0
 47119  1  0  0  0
 47120  1  0  0  0
 48 56  1  0  0  0
 48 65  1  0  0  0
 48121  1  0  0  0
 49 50  1  0  0  0
 49 53  1  0  0  0
 49 64  1  0  0  0
 49122  1  0  0  0
 50 51  1  0  0  0
 50123  1  0  0  0
 50124  1  0  0  0
 51 52  1  0  0  0
 51125  1  0  0  0
 51126  1  0  0  0
 52127  1  0  0  0
 52128  1  0  0  0
 53 54  1  0  0  0
 54 55  2  0  0  0
 54129  1  0  0  0
 55 57  1  0  0  0
 55130  1  0  0  0
 56 69  2  0  0  0
 57 58  2  0  0  0
 57131  1  0  0  0
 58132  1  0  0  0
 59 60  1  0  0  0
 59 61  1  0  0  0
 59 62  1  0  0  0
 60133  1  0  0  0
 60134  1  0  0  0
 60135  1  0  0  0
 61136  1  0  0  0
 61137  1  0  0  0
 61138  1  0  0  0
 62139  1  0  0  0
 62140  1  0  0  0
 62141  1  0  0  0
 63 65  1  0  0  0
 63142  1  0  0  0
 63143  1  0  0  0
 63144  1  0  0  0
 64145  1  0  0  0
 65146  1  0  0  0
 68 84  1  0  0  0
 71 72  2  0  0  0
 71 73  1  0  0  0
 71147  1  0  0  0
 72 75  1  0  0  0
 72 80  1  0  0  0
 73 74  2  0  0  0
 73 81  1  0  0  0
 74 83  1  0  0  0
 74 85  1  0  0  0
 75 85  2  0  0  0
 75 87  1  0  0  0
 76 78  1  0  0  0
 76 80  1  0  0  0
 76148  1  0  0  0
 76149  1  0  0  0
 77 79  1  0  0  0
 77 80  1  0  0  0
 77150  1  0  0  0
 77151  1  0  0  0
 78 86  1  0  0  0
 78152  1  0  0  0
 78153  1  0  0  0
 79 86  1  0  0  0
 79154  1  0  0  0
 79155  1  0  0  0
 80156  1  0  0  0
 81157  1  0  0  0
 81158  1  0  0  0
 81159  1  0  0  0
 82 87  1  0  0  0
 82160  1  0  0  0
 82161  1  0  0  0
 82162  1  0  0  0
 83 84  1  0  0  0
 83163  1  0  0  0
 83164  1  0  0  0
 84165  1  0  0  0
 84166  1  0  0  0
M  ISO  4   1 100  68 101  84 101  86 100
M  END
> <chiral flag>
0

> <version>
0

> <s_m_source_file>
/data/baiqing/PycharmProjects/Reinvent-master-3.2/result/LINK_invent/BTK/process_docking_weight1_custom_sum_contain_oxygen_bond_distance_aromatic_linkinvent_7_9_3/rearranged_h_0148.sdf

> <i_m_source_file_index>
39

> <r_mmod_Potential_Energy-OPLS-2005>
38.993896484375

> <r_mmod_Stretch_Energy-OPLS-2005>
49.6132621765137

> <r_mmod_Bend_Energy-OPLS-2005>
135.001129150391

> <r_mmod_Torsional_Energy-OPLS-2005>
313.48095703125

> <r_mmod_Improper_Torsional_Energy-OPLS-2005>
12.1475267410278

> <r_mmod_Van_der_Waal_Energy-OPLS-2005>
159.985382080078

> <r_mmod_Electrostatic_Energy-OPLS-2005>
-456.724517822266

> <r_mmod_Solvation_Energy-OPLS-2005>
-197.759124755859

> <b_mmod_Minimization_Converged-OPLS-2005>
0

> <r_mmod_RMS_Derivative-OPLS-2005>
2.05731892585754

$$$$
39
                    3D
 Structure written by MMmdl.
171180  0  0  1  0            999 V2000
  -30.6306  -14.7952   20.4694 C   0  0  0  0  0  0
  -30.4310  -12.4981   19.4759 C   0  0  0  0  0  0
  -29.5100  -12.5191   18.2366 C   0  0  0  0  0  0
  -28.0368  -12.3373   18.6506 C   0  0  0  0  0  0
  -27.6370  -13.2373   19.8503 C   0  0  2  0  0  0
  -28.6868  -13.1744   20.9812 C   0  0  0  0  0  0
  -25.2457  -13.8192   20.5687 C   0  0  0  0  0  0
  -24.1766  -13.0432   20.9216 C   0  0  0  0  0  0
  -24.6373  -11.6914   20.8751 C   0  0  0  0  0  0
  -23.9051  -10.4289   21.0400 C   0  0  0  0  0  0
  -24.3604   -9.4205   21.9179 C   0  0  0  0  0  0
  -23.6285   -8.2237   22.0750 C   0  0  0  0  0  0
  -22.4266   -8.0273   21.3539 C   0  0  0  0  0  0
  -21.9893   -9.0249   20.4645 C   0  0  0  0  0  0
  -22.7221  -10.2127   20.3054 C   0  0  0  0  0  0
  -21.6850   -6.0721   22.5270 C   0  0  0  0  0  0
  -21.4018   -6.5621   23.8206 C   0  0  0  0  0  0
  -21.3671   -5.6780   24.9164 C   0  0  0  0  0  0
  -21.6049   -4.3043   24.7220 C   0  0  0  0  0  0
  -21.8821   -3.8130   23.4343 C   0  0  0  0  0  0
  -21.9192   -4.6949   22.3394 C   0  0  0  0  0  0
  -22.7786  -13.5219   21.1866 C   0  0  0  0  0  0
  -22.1660   -4.2126   21.0975 F   0  0  0  0  0  0
  -21.5629   -3.4534   25.7742 F   0  0  0  0  0  0
  -29.9715  -13.5767   20.3904 N   0  0  0  0  0  0
  -26.2905  -12.9423   20.3287 N   0  0  0  0  0  0
  -25.9309  -11.6554   20.5754 N   0  0  0  0  0  0
  -22.0425  -12.8231   22.0436 N   0  0  0  0  0  0
  -25.4059  -15.1916   20.4067 N   0  0  0  0  0  0
  -31.8237  -14.8173   20.1515 O   0  0  0  0  0  0
  -21.6636   -6.8865   21.4233 O   0  0  0  0  0  0
  -22.3478  -14.5518   20.6703 O   0  0  0  0  0  0
  -24.6348  -31.8530   23.1957 C   0  0  0  0  0  0
  -25.9148  -32.4754   23.8323 C   0  0  1  0  0  0
  -27.2180  -27.2278   20.1339 C   0  0  0  0  0  0
  -25.5933  -33.8557   24.2245 N   0  0  0  0  0  0
  -23.4343  -30.4739   21.5401 C   0  0  2  0  0  0
  -24.8814  -28.9155   20.1111 C   0  0  0  0  0  0
  -22.7528  -29.4583   22.4903 C   0  0  0  0  0  0
  -18.0299  -28.1379   22.8486 C   0  0  0  0  0  0
  -24.1488  -36.7272   23.2644 C   0  0  0  0  0  0
  -25.9833  -30.7558   21.3810 C   0  0  0  0  0  0
  -26.0548  -29.3754   20.7211 C   0  0  0  0  0  0
  -27.2268  -28.5455   20.7165 C   0  0  0  0  0  0
  -26.0198  -26.8448   19.4915 C   0  0  0  0  0  0
  -24.8710  -27.6605   19.4838 C   0  0  0  0  0  0
  -23.6546  -29.8071   20.1568 C   0  0  0  0  0  0
  -25.4120  -36.3072   24.0327 C   0  0  1  0  0  0
  -20.5906  -28.3697   23.1265 C   0  0  2  0  0  0
  -20.6781  -26.9410   22.5410 C   0  0  0  0  0  0
  -19.5754  -26.6375   21.5216 C   0  0  0  0  0  0
  -18.1936  -26.7923   22.1624 C   0  0  0  0  0  0
  -19.1553  -28.8853   23.2869 C   0  0  0  0  0  0
  -18.9472  -30.1455   23.8887 C   0  0  0  0  0  0
  -17.6469  -30.6584   24.0557 C   0  0  0  0  0  0
  -25.9061  -34.9443   23.5093 C   0  0  0  0  0  0
  -16.5359  -29.9078   23.6328 C   0  0  0  0  0  0
  -16.7285  -28.6490   23.0359 C   0  0  0  0  0  0
  -26.4499  -31.6592   25.0727 C   0  0  0  0  0  0
  -25.3706  -31.3756   26.1437 C   0  0  0  0  0  0
  -27.0357  -30.3010   24.6236 C   0  0  0  0  0  0
  -27.6050  -32.4342   25.7494 C   0  0  0  0  0  0
  -27.5583  -37.1794   24.8468 C   0  0  0  0  0  0
  -21.4230  -29.3043   22.3651 N   0  0  0  0  0  0
  -26.4296  -37.3770   23.9412 N   0  0  0  0  0  0
  -24.7032  -31.0466   22.0948 N   0  0  0  0  0  0
  -23.4214  -28.8126   23.3016 O   0  0  0  0  0  0
  -28.3015  -26.3090   20.2002 O   0  0  0  0  0  0
  -26.5637  -34.8918   22.4667 O   0  0  0  0  0  0
  -23.5482  -32.1358   23.7224 O   0  0  0  0  0  0
  -32.3677  -21.6426   22.2054 C   0  0  0  0  0  0
  -31.2875  -22.1680   21.4913 C   0  0  0  0  0  0
  -31.4560  -19.4521   21.9032 C   0  0  0  0  0  0
  -30.3758  -19.9134   21.0972 C   0  0  0  0  0  0
  -32.4495  -20.2794   22.4557 C   0  0  0  0  0  0
  -30.2093  -21.3971   20.9538 C   0  0  0  0  0  0
  -28.7701  -17.9147   21.6607 C   0  0  0  0  0  0
  -28.8532  -16.3696   21.4643 C   0  0  0  0  0  0
  -29.5629  -18.6390   20.5549 C   0  0  2  0  0  0
  -30.3992  -17.3636   19.9731 C   0  0  2  0  0  0
  -29.1127  -16.9225   17.7669 C   0  0  0  0  0  0
  -31.0029  -18.6252   17.8256 C   0  0  0  0  0  0
  -33.6038  -18.4584   23.5219 C   0  0  0  0  0  0
  -28.0638  -24.8120   20.0508 C   0  0  0  0  0  0
  -29.1938  -23.7232   20.4935 C   0  0  0  0  0  0
  -30.4487  -17.3208   18.4212 C   0  0  0  0  0  0
  -29.9298  -16.0211   20.5298 N   0  0  0  0  0  0
  -33.5106  -19.8446   23.2201 O   0  0  0  0  0  0
  -29.1444  -22.1934   20.3908 O   0  0  0  0  0  0
  -31.4697  -12.6206   19.1661 H   0  0  0  0  0  0
  -30.3898  -11.5274   19.9730 H   0  0  0  0  0  0
  -29.8023  -11.7361   17.5351 H   0  0  0  0  0  0
  -29.6299  -13.4653   17.7066 H   0  0  0  0  0  0
  -27.8978  -11.2893   18.9179 H   0  0  0  0  0  0
  -27.3798  -12.5224   17.7996 H   0  0  0  0  0  0
  -27.6262  -14.2573   19.4676 H   0  0  0  0  0  0
  -28.7486  -12.1658   21.3931 H   0  0  0  0  0  0
  -28.4065  -13.8104   21.8177 H   0  0  0  0  0  0
  -25.2744   -9.5693   22.4757 H   0  0  0  0  0  0
  -23.9995   -7.4629   22.7473 H   0  0  0  0  0  0
  -21.0818   -8.8765   19.8960 H   0  0  0  0  0  0
  -22.3665  -10.9667   19.6170 H   0  0  0  0  0  0
  -21.2012   -7.6133   23.9707 H   0  0  0  0  0  0
  -21.1494   -6.0502   25.9067 H   0  0  0  0  0  0
  -22.0592   -2.7593   23.2840 H   0  0  0  0  0  0
  -22.4034  -11.9922   22.4882 H   0  0  0  0  0  0
  -21.1039  -13.1265   22.2614 H   0  0  0  0  0  0
  -24.6326  -15.8383   20.5171 H   0  0  0  0  0  0
  -26.2474  -15.6358   20.0645 H   0  0  0  0  0  0
  -26.7214  -32.5388   23.1061 H   0  0  0  0  0  0
  -25.0088  -33.9695   25.0395 H   0  0  0  0  0  0
  -22.7326  -31.2974   21.3924 H   0  0  0  0  0  0
  -23.3765  -35.9589   23.3302 H   0  0  0  0  0  0
  -24.3581  -36.8897   22.2061 H   0  0  0  0  0  0
  -23.7214  -37.6460   23.6668 H   0  0  0  0  0  0
  -26.1307  -31.5174   20.6139 H   0  0  0  0  0  0
  -26.8575  -30.8024   22.0185 H   0  0  0  0  0  0
  -28.1255  -28.8926   21.2068 H   0  0  0  0  0  0
  -25.9434  -25.8861   19.0009 H   0  0  0  0  0  0
  -23.9735  -27.3052   18.9969 H   0  0  0  0  0  0
  -23.7845  -30.5838   19.4023 H   0  0  0  0  0  0
  -22.7714  -29.2449   19.8485 H   0  0  0  0  0  0
  -25.1302  -36.1928   25.0819 H   0  0  0  0  0  0
  -21.0001  -28.3277   24.1385 H   0  0  0  0  0  0
  -20.5680  -26.2312   23.3622 H   0  0  0  0  0  0
  -21.6649  -26.7426   22.1209 H   0  0  0  0  0  0
  -19.6916  -25.6285   21.1253 H   0  0  0  0  0  0
  -19.6687  -27.3176   20.6740 H   0  0  0  0  0  0
  -17.4210  -26.6682   21.4022 H   0  0  0  0  0  0
  -18.0322  -26.0063   22.9015 H   0  0  0  0  0  0
  -19.7948  -30.7270   24.2256 H   0  0  0  0  0  0
  -17.5023  -31.6266   24.5157 H   0  0  0  0  0  0
  -15.5357  -30.2975   23.7651 H   0  0  0  0  0  0
  -15.8689  -28.0800   22.7084 H   0  0  0  0  0  0
  -24.5870  -30.7123   25.7755 H   0  0  0  0  0  0
  -24.8904  -32.2932   26.4853 H   0  0  0  0  0  0
  -25.8000  -30.8929   27.0226 H   0  0  0  0  0  0
  -26.2953  -29.6754   24.1237 H   0  0  0  0  0  0
  -27.4013  -29.7282   25.4769 H   0  0  0  0  0  0
  -27.8840  -30.4291   23.9509 H   0  0  0  0  0  0
  -27.2658  -33.3649   26.2055 H   0  0  0  0  0  0
  -28.3856  -32.6896   25.0315 H   0  0  0  0  0  0
  -28.0723  -31.8482   26.5418 H   0  0  0  0  0  0
  -28.2604  -38.0090   24.7524 H   0  0  0  0  0  0
  -28.1073  -36.2623   24.6284 H   0  0  0  0  0  0
  -27.2307  -37.1437   25.8873 H   0  0  0  0  0  0
  -20.9425  -29.8766   21.6849 H   0  0  0  0  0  0
  -26.0178  -38.2848   24.1406 H   0  0  0  0  0  0
  -33.1274  -22.3067   22.5937 H   0  0  0  0  0  0
  -31.3559  -23.2381   21.4072 H   0  0  0  0  0  0
  -31.5228  -18.3975   22.1104 H   0  0  0  0  0  0
  -29.1910  -18.1521   22.6381 H   0  0  0  0  0  0
  -27.7365  -18.2614   21.6961 H   0  0  0  0  0  0
  -27.9126  -16.0126   21.0524 H   0  0  0  0  0  0
  -29.0015  -15.8816   22.4284 H   0  0  0  0  0  0
  -28.8543  -18.9901   19.8047 H   0  0  0  0  0  0
  -31.4407  -17.4379   20.2805 H   0  0  0  0  0  0
  -28.7914  -15.9298   18.0829 H   0  0  0  0  0  0
  -29.2049  -16.8939   16.6806 H   0  0  0  0  0  0
  -28.3128  -17.6212   18.0098 H   0  0  0  0  0  0
  -31.9406  -18.9100   18.3045 H   0  0  0  0  0  0
  -30.3060  -19.4551   17.9428 H   0  0  0  0  0  0
  -31.2062  -18.5157   16.7606 H   0  0  0  0  0  0
  -34.4686  -18.2866   24.1634 H   0  0  0  0  0  0
  -33.7381  -17.8619   22.6186 H   0  0  0  0  0  0
  -32.7231  -18.1057   24.0614 H   0  0  0  0  0  0
  -27.1552  -24.5651   20.6028 H   0  0  0  0  0  0
  -27.8395  -24.6266   19.0004 H   0  0  0  0  0  0
  -29.3632  -23.9531   21.5457 H   0  0  0  0  0  0
  -30.0833  -24.0327   19.9445 H   0  0  0  0  0  0
  -31.1641  -16.5458   18.1431 H   0  0  0  0  0  0
  1 25  1  0  0  0
  1 30  2  0  0  0
  1 87  1  0  0  0
  2  3  1  0  0  0
  2 25  1  0  0  0
  2 90  1  0  0  0
  2 91  1  0  0  0
  3  4  1  0  0  0
  3 92  1  0  0  0
  3 93  1  0  0  0
  4  5  1  0  0  0
  4 94  1  0  0  0
  4 95  1  0  0  0
  5  6  1  0  0  0
  5 26  1  0  0  0
  5 96  1  0  0  0
  6 25  1  0  0  0
  6 97  1  0  0  0
  6 98  1  0  0  0
  7  8  2  0  0  0
  7 26  1  0  0  0
  7 29  1  0  0  0
  8  9  1  0  0  0
  8 22  1  0  0  0
  9 10  1  0  0  0
  9 27  2  0  0  0
 10 11  2  0  0  0
 10 15  1  0  0  0
 11 12  1  0  0  0
 11 99  1  0  0  0
 12 13  2  0  0  0
 12100  1  0  0  0
 13 14  1  0  0  0
 13 31  1  0  0  0
 14 15  2  0  0  0
 14101  1  0  0  0
 15102  1  0  0  0
 16 17  2  0  0  0
 16 21  1  0  0  0
 16 31  1  0  0  0
 17 18  1  0  0  0
 17103  1  0  0  0
 18 19  2  0  0  0
 18104  1  0  0  0
 19 20  1  0  0  0
 19 24  1  0  0  0
 20 21  2  0  0  0
 20105  1  0  0  0
 21 23  1  0  0  0
 22 28  1  0  0  0
 22 32  2  0  0  0
 26 27  1  0  0  0
 28106  1  0  0  0
 28107  1  0  0  0
 29108  1  0  0  0
 29109  1  0  0  0
 33 34  1  0  0  0
 33 66  1  0  0  0
 33 70  2  0  0  0
 34 36  1  0  0  0
 34 59  1  0  0  0
 34110  1  0  0  0
 35 44  2  0  0  0
 35 45  1  0  0  0
 35 68  1  0  0  0
 36 56  1  0  0  0
 36111  1  0  0  0
 37 39  1  0  0  0
 37 47  1  0  0  0
 37 66  1  0  0  0
 37112  1  0  0  0
 38 43  2  0  0  0
 38 46  1  0  0  0
 38 47  1  0  0  0
 39 64  1  0  0  0
 39 67  2  0  0  0
 40 52  1  0  0  0
 40 53  2  0  0  0
 40 58  1  0  0  0
 41113  1  0  0  0
 41114  1  0  0  0
 41115  1  0  0  0
 41 48  1  0  0  0
 42 43  1  0  0  0
 42 66  1  0  0  0
 42116  1  0  0  0
 42117  1  0  0  0
 43 44  1  0  0  0
 44118  1  0  0  0
 45 46  2  0  0  0
 45119  1  0  0  0
 46120  1  0  0  0
 47121  1  0  0  0
 47122  1  0  0  0
 48 56  1  0  0  0
 48 65  1  0  0  0
 48123  1  0  0  0
 49 50  1  0  0  0
 49 53  1  0  0  0
 49 64  1  0  0  0
 49124  1  0  0  0
 50 51  1  0  0  0
 50125  1  0  0  0
 50126  1  0  0  0
 51 52  1  0  0  0
 51127  1  0  0  0
 51128  1  0  0  0
 52129  1  0  0  0
 52130  1  0  0  0
 53 54  1  0  0  0
 54 55  2  0  0  0
 54131  1  0  0  0
 55 57  1  0  0  0
 55132  1  0  0  0
 56 69  2  0  0  0
 57 58  2  0  0  0
 57133  1  0  0  0
 58134  1  0  0  0
 59 60  1  0  0  0
 59 61  1  0  0  0
 59 62  1  0  0  0
 60135  1  0  0  0
 60136  1  0  0  0
 60137  1  0  0  0
 61138  1  0  0  0
 61139  1  0  0  0
 61140  1  0  0  0
 62141  1  0  0  0
 62142  1  0  0  0
 62143  1  0  0  0
 63 65  1  0  0  0
 63144  1  0  0  0
 63145  1  0  0  0
 63146  1  0  0  0
 64147  1  0  0  0
 65148  1  0  0  0
 68 84  1  0  0  0
 71 72  2  0  0  0
 71 75  1  0  0  0
 71149  1  0  0  0
 72 76  1  0  0  0
 72150  1  0  0  0
 73 74  1  0  0  0
 73 75  2  0  0  0
 73151  1  0  0  0
 74 76  2  0  0  0
 74 79  1  0  0  0
 75 88  1  0  0  0
 76 89  1  0  0  0
 77 78  1  0  0  0
 77 79  1  0  0  0
 77152  1  0  0  0
 77153  1  0  0  0
 78 87  1  0  0  0
 78154  1  0  0  0
 78155  1  0  0  0
 79 80  1  0  0  0
 79156  1  0  0  0
 80 86  1  0  0  0
 80 87  1  0  0  0
 80157  1  0  0  0
 81158  1  0  0  0
 81159  1  0  0  0
 81160  1  0  0  0
 81 86  1  0  0  0
 82 86  1  0  0  0
 82161  1  0  0  0
 82162  1  0  0  0
 82163  1  0  0  0
 83 88  1  0  0  0
 83164  1  0  0  0
 83165  1  0  0  0
 83166  1  0  0  0
 84 85  1  0  0  0
 84167  1  0  0  0
 84168  1  0  0  0
 85 89  1  0  0  0
 85169  1  0  0  0
 85170  1  0  0  0
 86171  1  0  0  0
M  ISO  4   1 100  68 101  84 101  87 100
M  END
> <chiral flag>
0

> <version>
0

> <s_m_source_file>
/data/baiqing/PycharmProjects/Reinvent-master-3.2/result/LINK_invent/BTK/process_docking_weight1_custom_sum_contain_oxygen_bond_distance_aromatic_linkinvent_7_9_3/rearranged_h_0148.sdf

> <i_m_source_file_index>
40

> <r_mmod_Potential_Energy-OPLS-2005>
554.47314453125

> <r_mmod_Stretch_Energy-OPLS-2005>
181.471405029297

> <r_mmod_Bend_Energy-OPLS-2005>
267.081420898438

> <r_mmod_Torsional_Energy-OPLS-2005>
345.127349853516

> <r_mmod_Improper_Torsional_Energy-OPLS-2005>
10.9878454208374

> <r_mmod_Van_der_Waal_Energy-OPLS-2005>
156.619186401367

> <r_mmod_Electrostatic_Energy-OPLS-2005>
-313.049133300781

> <r_mmod_Solvation_Energy-OPLS-2005>
-199.141693115234

> <b_mmod_Minimization_Converged-OPLS-2005>
0

> <r_mmod_RMS_Derivative-OPLS-2005>
1.68334352970123

$$$$
40
                    3D
 Structure written by MMmdl.
169179  0  0  1  0            999 V2000
  -30.5993  -14.5145   20.5885 C   0  0  0  0  0  0
  -30.4608  -12.3497   19.4027 C   0  0  0  0  0  0
  -29.5086  -12.5201   18.1980 C   0  0  0  0  0  0
  -28.0246  -12.3689   18.6063 C   0  0  0  0  0  0
  -27.6654  -13.1861   19.8754 C   0  0  2  0  0  0
  -28.7065  -12.9136   20.9829 C   0  0  0  0  0  0
  -25.2631  -13.8119   20.5633 C   0  0  0  0  0  0
  -24.1868  -13.0426   20.9156 C   0  0  0  0  0  0
  -24.6410  -11.6874   20.8725 C   0  0  0  0  0  0
  -23.9067  -10.4276   21.0394 C   0  0  0  0  0  0
  -24.3643   -9.4188   21.9162 C   0  0  0  0  0  0
  -23.6304   -8.2232   22.0748 C   0  0  0  0  0  0
  -22.4276   -8.0279   21.3542 C   0  0  0  0  0  0
  -21.9894   -9.0252   20.4640 C   0  0  0  0  0  0
  -22.7235  -10.2121   20.3037 C   0  0  0  0  0  0
  -21.6847   -6.0724   22.5269 C   0  0  0  0  0  0
  -21.4025   -6.5628   23.8217 C   0  0  0  0  0  0
  -21.3658   -5.6778   24.9168 C   0  0  0  0  0  0
  -21.6046   -4.3047   24.7218 C   0  0  0  0  0  0
  -21.8834   -3.8137   23.4331 C   0  0  0  0  0  0
  -21.9205   -4.6958   22.3391 C   0  0  0  0  0  0
  -22.7889  -13.5233   21.1803 C   0  0  0  0  0  0
  -22.1651   -4.2143   21.0960 F   0  0  0  0  0  0
  -21.5636   -3.4530   25.7727 F   0  0  0  0  0  0
  -30.0310  -13.2858   20.4495 N   0  0  0  0  0  0
  -26.3043  -12.9228   20.3314 N   0  0  0  0  0  0
  -25.9324  -11.6423   20.5727 N   0  0  0  0  0  0
  -22.0492  -12.8288   22.0377 N   0  0  0  0  0  0
  -25.4448  -15.1827   20.4042 N   0  0  0  0  0  0
  -31.7107  -14.8122   20.1378 O   0  0  0  0  0  0
  -21.6650   -6.8864   21.4227 O   0  0  0  0  0  0
  -22.3584  -14.5519   20.6605 O   0  0  0  0  0  0
  -24.6155  -31.8635   23.2064 C   0  0  0  0  0  0
  -25.9045  -32.4795   23.8369 C   0  0  1  0  0  0
  -27.2419  -27.3938   20.0878 C   0  0  0  0  0  0
  -25.5894  -33.8598   24.2296 N   0  0  0  0  0  0
  -23.4086  -30.4845   21.5470 C   0  0  2  0  0  0
  -24.8579  -28.9458   20.1113 C   0  0  0  0  0  0
  -22.7423  -29.4630   22.4979 C   0  0  0  0  0  0
  -18.0261  -28.1361   22.8486 C   0  0  0  0  0  0
  -24.1488  -36.7297   23.2640 C   0  0  0  0  0  0
  -25.9437  -30.8091   21.3731 C   0  0  0  0  0  0
  -26.0186  -29.4424   20.7161 C   0  0  0  0  0  0
  -27.2083  -28.6703   20.7096 C   0  0  0  0  0  0
  -26.0510  -26.9170   19.4904 C   0  0  0  0  0  0
  -24.8714  -27.6836   19.4960 C   0  0  0  0  0  0
  -23.6194  -29.8121   20.1634 C   0  0  0  0  0  0
  -25.4112  -36.3097   24.0339 C   0  0  1  0  0  0
  -20.5857  -28.3642   23.1311 C   0  0  2  0  0  0
  -20.6741  -26.9369   22.5417 C   0  0  0  0  0  0
  -19.5725  -26.6356   21.5209 C   0  0  0  0  0  0
  -18.1906  -26.7909   22.1609 C   0  0  0  0  0  0
  -19.1516  -28.8821   23.2893 C   0  0  0  0  0  0
  -18.9448  -30.1436   23.8897 C   0  0  0  0  0  0
  -17.6451  -30.6575   24.0553 C   0  0  0  0  0  0
  -25.9040  -34.9466   23.5115 C   0  0  0  0  0  0
  -16.5336  -29.9072   23.6324 C   0  0  0  0  0  0
  -16.7254  -28.6484   23.0349 C   0  0  0  0  0  0
  -26.4457  -31.6597   25.0726 C   0  0  0  0  0  0
  -25.3719  -31.3735   26.1481 C   0  0  0  0  0  0
  -27.0282  -30.3016   24.6165 C   0  0  0  0  0  0
  -27.6028  -32.4333   25.7475 C   0  0  0  0  0  0
  -27.5598  -37.1789   24.8455 C   0  0  0  0  0  0
  -21.4146  -29.3015   22.3722 N   0  0  0  0  0  0
  -26.4295  -37.3790   23.9427 N   0  0  0  0  0  0
  -24.6739  -31.0700   22.0978 N   0  0  0  0  0  0
  -23.4181  -28.8171   23.3034 O   0  0  0  0  0  0
  -28.4027  -26.6304   20.1229 O   0  0  0  0  0  0
  -26.5610  -34.8924   22.4684 O   0  0  0  0  0  0
  -23.5348  -32.1418   23.7433 O   0  0  0  0  0  0
  -28.3196  -23.2608   18.4698 C   0  0  0  0  0  0
  -30.2014  -22.5399   20.3032 C   0  0  0  0  0  0
  -28.7494  -21.9130   18.4813 C   0  0  0  0  0  0
  -29.7508  -21.5300   19.4168 C   0  0  0  0  0  0
  -28.8943  -24.2169   19.3280 C   0  0  0  0  0  0
  -28.9486  -20.4666   16.2784 C   0  0  0  0  0  0
  -27.8129  -21.4318   16.0625 C   0  0  0  0  0  0
  -30.5703  -17.5985   22.1543 C   0  0  0  0  0  0
  -30.4506  -19.0858   21.7362 C   0  0  0  0  0  0
  -29.8515  -17.7004   19.8828 C   0  0  0  0  0  0
  -28.1567  -20.9700   17.4660 C   0  0  0  0  0  0
  -29.6537  -16.8851   21.1722 C   0  0  1  0  0  0
  -31.9614  -20.1856   19.3232 C   0  0  0  0  0  0
  -28.6828  -25.7230   19.0290 C   0  0  0  0  0  0
  -30.4183  -20.1199   19.3800 C   0  0  1  0  0  0
  -29.8057  -23.8422   20.2600 N   0  0  0  0  0  0
  -29.7357  -15.4134   21.1090 N   0  0  0  0  0  0
  -29.8818  -19.1138   20.3579 N   0  3  2  0  0  0
  -31.4898  -12.5351   19.0896 H   0  0  0  0  0  0
  -30.4420  -11.3275   19.7801 H   0  0  0  0  0  0
  -29.7574  -11.7898   17.4276 H   0  0  0  0  0  0
  -29.6643  -13.5028   17.7509 H   0  0  0  0  0  0
  -27.8352  -11.3104   18.7781 H   0  0  0  0  0  0
  -27.3816  -12.6622   17.7766 H   0  0  0  0  0  0
  -27.7168  -14.2383   19.6002 H   0  0  0  0  0  0
  -28.7046  -11.8539   21.2493 H   0  0  0  0  0  0
  -28.4515  -13.4354   21.9063 H   0  0  0  0  0  0
  -25.2790   -9.5677   22.4732 H   0  0  0  0  0  0
  -24.0012   -7.4634   22.7473 H   0  0  0  0  0  0
  -21.0807   -8.8775   19.8959 H   0  0  0  0  0  0
  -22.3672  -10.9681   19.6166 H   0  0  0  0  0  0
  -21.1992   -7.6131   23.9716 H   0  0  0  0  0  0
  -21.1462   -6.0495   25.9077 H   0  0  0  0  0  0
  -22.0607   -2.7600   23.2845 H   0  0  0  0  0  0
  -22.4092  -11.9992   22.4862 H   0  0  0  0  0  0
  -21.1106  -13.1349   22.2504 H   0  0  0  0  0  0
  -24.6864  -15.8470   20.5108 H   0  0  0  0  0  0
  -26.2953  -15.6084   20.0642 H   0  0  0  0  0  0
  -26.7110  -32.5483   23.1122 H   0  0  0  0  0  0
  -25.0054  -33.9755   25.0448 H   0  0  0  0  0  0
  -22.6986  -31.3015   21.4022 H   0  0  0  0  0  0
  -23.3775  -35.9601   23.3272 H   0  0  0  0  0  0
  -24.3594  -36.8945   22.2062 H   0  0  0  0  0  0
  -23.7206  -37.6476   23.6675 H   0  0  0  0  0  0
  -26.0774  -31.5765   20.6099 H   0  0  0  0  0  0
  -26.8215  -30.8497   22.0059 H   0  0  0  0  0  0
  -28.1026  -29.0504   21.1829 H   0  0  0  0  0  0
  -26.0068  -25.9405   19.0303 H   0  0  0  0  0  0
  -23.9784  -27.2909   19.0289 H   0  0  0  0  0  0
  -23.7224  -30.5815   19.3975 H   0  0  0  0  0  0
  -22.7446  -29.2259   19.8742 H   0  0  0  0  0  0
  -25.1286  -36.1948   25.0834 H   0  0  0  0  0  0
  -20.9943  -28.3194   24.1435 H   0  0  0  0  0  0
  -20.5593  -26.2257   23.3611 H   0  0  0  0  0  0
  -21.6618  -26.7372   22.1238 H   0  0  0  0  0  0
  -19.6875  -25.6265   21.1242 H   0  0  0  0  0  0
  -19.6680  -27.3161   20.6738 H   0  0  0  0  0  0
  -17.4179  -26.6673   21.4010 H   0  0  0  0  0  0
  -18.0288  -26.0041   22.8988 H   0  0  0  0  0  0
  -19.7937  -30.7248   24.2258 H   0  0  0  0  0  0
  -17.5013  -31.6266   24.5129 H   0  0  0  0  0  0
  -15.5340  -30.2973   23.7658 H   0  0  0  0  0  0
  -15.8651  -28.0809   22.7063 H   0  0  0  0  0  0
  -24.5914  -30.7034   25.7858 H   0  0  0  0  0  0
  -24.8884  -32.2896   26.4882 H   0  0  0  0  0  0
  -25.8083  -30.8972   27.0269 H   0  0  0  0  0  0
  -26.2839  -29.6789   24.1182 H   0  0  0  0  0  0
  -27.3966  -29.7249   25.4659 H   0  0  0  0  0  0
  -27.8718  -30.4300   23.9379 H   0  0  0  0  0  0
  -27.2632  -33.3625   26.2057 H   0  0  0  0  0  0
  -28.3812  -32.6904   25.0282 H   0  0  0  0  0  0
  -28.0712  -31.8460   26.5382 H   0  0  0  0  0  0
  -28.2574  -38.0121   24.7562 H   0  0  0  0  0  0
  -28.1128  -36.2668   24.6186 H   0  0  0  0  0  0
  -27.2340  -37.1317   25.8855 H   0  0  0  0  0  0
  -20.9296  -29.8790   21.6992 H   0  0  0  0  0  0
  -26.0182  -38.2858   24.1461 H   0  0  0  0  0  0
  -27.6024  -23.5851   17.7298 H   0  0  0  0  0  0
  -30.9580  -22.3126   21.0411 H   0  0  0  0  0  0
  -29.9601  -20.8444   16.1425 H   0  0  0  0  0  0
  -28.7902  -19.4332   15.9739 H   0  0  0  0  0  0
  -26.9098  -21.0348   15.6044 H   0  0  0  0  0  0
  -28.0931  -22.4354   15.7469 H   0  0  0  0  0  0
  -30.2968  -17.4243   23.1962 H   0  0  0  0  0  0
  -31.5940  -17.2532   22.0147 H   0  0  0  0  0  0
  -31.4239  -19.5623   21.8304 H   0  0  0  0  0  0
  -29.7707  -19.6249   22.3943 H   0  0  0  0  0  0
  -29.0491  -17.5411   19.1621 H   0  0  0  0  0  0
  -30.7929  -17.4364   19.3985 H   0  0  0  0  0  0
  -27.4598  -20.2798   17.9384 H   0  0  0  0  0  0
  -28.6315  -17.0770   21.5091 H   0  0  0  0  0  0
  -32.2791  -20.8109   18.4890 H   0  0  0  0  0  0
  -32.3994  -19.2001   19.1648 H   0  0  0  0  0  0
  -32.4188  -20.6035   20.2195 H   0  0  0  0  0  0
  -27.9870  -25.8326   18.1992 H   0  0  0  0  0  0
  -29.6241  -26.0668   18.6047 H   0  0  0  0  0  0
  -30.1569  -19.6956   18.4134 H   0  0  0  0  0  0
  -28.8854  -14.9638   21.4142 H   0  0  0  0  0  0
  -28.9088  -19.3543   20.4812 H   0  0  0  0  0  0
  1 25  1  0  0  0
  1 30  2  0  0  0
  1 87  1  0  0  0
  2  3  1  0  0  0
  2 25  1  0  0  0
  2 89  1  0  0  0
  2 90  1  0  0  0
  3  4  1  0  0  0
  3 91  1  0  0  0
  3 92  1  0  0  0
  4  5  1  0  0  0
  4 93  1  0  0  0
  4 94  1  0  0  0
  5  6  1  0  0  0
  5 26  1  0  0  0
  5 95  1  0  0  0
  6 25  1  0  0  0
  6 96  1  0  0  0
  6 97  1  0  0  0
  7  8  2  0  0  0
  7 26  1  0  0  0
  7 29  1  0  0  0
  8  9  1  0  0  0
  8 22  1  0  0  0
  9 10  1  0  0  0
  9 27  2  0  0  0
 10 11  2  0  0  0
 10 15  1  0  0  0
 11 12  1  0  0  0
 11 98  1  0  0  0
 12 13  2  0  0  0
 12 99  1  0  0  0
 13 14  1  0  0  0
 13 31  1  0  0  0
 14 15  2  0  0  0
 14100  1  0  0  0
 15101  1  0  0  0
 16 17  2  0  0  0
 16 21  1  0  0  0
 16 31  1  0  0  0
 17 18  1  0  0  0
 17102  1  0  0  0
 18 19  2  0  0  0
 18103  1  0  0  0
 19 20  1  0  0  0
 19 24  1  0  0  0
 20 21  2  0  0  0
 20104  1  0  0  0
 21 23  1  0  0  0
 22 28  1  0  0  0
 22 32  2  0  0  0
 26 27  1  0  0  0
 28105  1  0  0  0
 28106  1  0  0  0
 29107  1  0  0  0
 29108  1  0  0  0
 33 34  1  0  0  0
 33 66  1  0  0  0
 33 70  2  0  0  0
 34 36  1  0  0  0
 34 59  1  0  0  0
 34109  1  0  0  0
 35 44  2  0  0  0
 35 45  1  0  0  0
 35 68  1  0  0  0
 36 56  1  0  0  0
 36110  1  0  0  0
 37 39  1  0  0  0
 37 47  1  0  0  0
 37 66  1  0  0  0
 37111  1  0  0  0
 38 43  2  0  0  0
 38 46  1  0  0  0
 38 47  1  0  0  0
 39 64  1  0  0  0
 39 67  2  0  0  0
 40 52  1  0  0  0
 40 53  2  0  0  0
 40 58  1  0  0  0
 41112  1  0  0  0
 41113  1  0  0  0
 41114  1  0  0  0
 41 48  1  0  0  0
 42 43  1  0  0  0
 42 66  1  0  0  0
 42115  1  0  0  0
 42116  1  0  0  0
 43 44  1  0  0  0
 44117  1  0  0  0
 45 46  2  0  0  0
 45118  1  0  0  0
 46119  1  0  0  0
 47120  1  0  0  0
 47121  1  0  0  0
 48 56  1  0  0  0
 48 65  1  0  0  0
 48122  1  0  0  0
 49 50  1  0  0  0
 49 53  1  0  0  0
 49 64  1  0  0  0
 49123  1  0  0  0
 50 51  1  0  0  0
 50124  1  0  0  0
 50125  1  0  0  0
 51 52  1  0  0  0
 51126  1  0  0  0
 51127  1  0  0  0
 52128  1  0  0  0
 52129  1  0  0  0
 53 54  1  0  0  0
 54 55  2  0  0  0
 54130  1  0  0  0
 55 57  1  0  0  0
 55131  1  0  0  0
 56 69  2  0  0  0
 57 58  2  0  0  0
 57132  1  0  0  0
 58133  1  0  0  0
 59 60  1  0  0  0
 59 61  1  0  0  0
 59 62  1  0  0  0
 60134  1  0  0  0
 60135  1  0  0  0
 60136  1  0  0  0
 61137  1  0  0  0
 61138  1  0  0  0
 61139  1  0  0  0
 62140  1  0  0  0
 62141  1  0  0  0
 62142  1  0  0  0
 63 65  1  0  0  0
 63143  1  0  0  0
 63144  1  0  0  0
 63145  1  0  0  0
 64146  1  0  0  0
 65147  1  0  0  0
 68 84  1  0  0  0
 71 73  2  0  0  0
 71 75  1  0  0  0
 71148  1  0  0  0
 72 74  2  0  0  0
 72 86  1  0  0  0
 72149  1  0  0  0
 73 74  1  0  0  0
 73 81  1  0  0  0
 74 85  1  0  0  0
 75 84  1  0  0  0
 75 86  2  0  0  0
 76 77  1  0  0  0
 76 81  1  0  0  0
 76150  1  0  0  0
 76151  1  0  0  0
 77 81  1  0  0  0
 77152  1  0  0  0
 77153  1  0  0  0
 78 79  1  0  0  0
 78 82  1  0  0  0
 78154  1  0  0  0
 78155  1  0  0  0
 79156  1  0  0  0
 79157  1  0  0  0
 79 88  1  0  0  0
 80 82  1  0  0  0
 80 88  1  0  0  0
 80158  1  0  0  0
 80159  1  0  0  0
 81160  1  0  0  0
 82 87  1  0  0  0
 82161  1  0  0  0
 83162  1  0  0  0
 83163  1  0  0  0
 83164  1  0  0  0
 83 85  1  0  0  0
 84165  1  0  0  0
 84166  1  0  0  0
 85 88  1  0  0  0
 85167  1  0  0  0
 87168  1  0  0  0
 88169  1  0  0  0
M  CHG  1  88   1
M  ISO  4   1 100  68 101  84 101  87 100
M  END
> <chiral flag>
0

> <version>
0

> <s_m_source_file>
/data/baiqing/PycharmProjects/Reinvent-master-3.2/result/LINK_invent/BTK/process_docking_weight1_custom_sum_contain_oxygen_bond_distance_aromatic_linkinvent_7_9_3/rearranged_h_0148.sdf

> <i_m_source_file_index>
41

> <r_mmod_Potential_Energy-OPLS-2005>
-140.260757446289

> <r_mmod_Stretch_Energy-OPLS-2005>
49.2515716552734

> <r_mmod_Bend_Energy-OPLS-2005>
172.58903503418

> <r_mmod_Torsional_Energy-OPLS-2005>
294.871643066406

> <r_mmod_Improper_Torsional_Energy-OPLS-2005>
6.39863204956055

> <r_mmod_Van_der_Waal_Energy-OPLS-2005>
149.373229980469

> <r_mmod_Electrostatic_Energy-OPLS-2005>
-375.57373046875

> <r_mmod_Solvation_Energy-OPLS-2005>
-460.447235107422

> <b_mmod_Minimization_Converged-OPLS-2005>
0

> <r_mmod_RMS_Derivative-OPLS-2005>
3.62938356399536

$$$$
41
                    3D
 Structure written by MMmdl.
177187  0  0  1  0            999 V2000
  -30.6939  -14.4340   20.5828 C   0  0  0  0  0  0
  -30.4296  -12.2847   19.4116 C   0  0  0  0  0  0
  -29.4938  -12.5033   18.2024 C   0  0  0  0  0  0
  -28.0154  -12.3666   18.6178 C   0  0  0  0  0  0
  -27.6684  -13.1961   19.8828 C   0  0  2  0  0  0
  -28.7104  -12.9389   20.9974 C   0  0  0  0  0  0
  -25.2616  -13.8119   20.5706 C   0  0  0  0  0  0
  -24.1848  -13.0417   20.9164 C   0  0  0  0  0  0
  -24.6395  -11.6884   20.8723 C   0  0  0  0  0  0
  -23.9057  -10.4277   21.0404 C   0  0  0  0  0  0
  -24.3603   -9.4190   21.9185 C   0  0  0  0  0  0
  -23.6276   -8.2230   22.0757 C   0  0  0  0  0  0
  -22.4261   -8.0273   21.3548 C   0  0  0  0  0  0
  -21.9898   -9.0243   20.4645 C   0  0  0  0  0  0
  -22.7231  -10.2119   20.3052 C   0  0  0  0  0  0
  -21.6846   -6.0719   22.5277 C   0  0  0  0  0  0
  -21.4012   -6.5628   23.8207 C   0  0  0  0  0  0
  -21.3658   -5.6785   24.9172 C   0  0  0  0  0  0
  -21.6042   -4.3048   24.7227 C   0  0  0  0  0  0
  -21.8821   -3.8138   23.4353 C   0  0  0  0  0  0
  -21.9191   -4.6948   22.3407 C   0  0  0  0  0  0
  -22.7870  -13.5227   21.1821 C   0  0  0  0  0  0
  -22.1659   -4.2136   21.0986 F   0  0  0  0  0  0
  -21.5629   -3.4540   25.7744 F   0  0  0  0  0  0
  -30.0469  -13.2457   20.4552 N   0  0  0  0  0  0
  -26.3059  -12.9280   20.3407 N   0  0  0  0  0  0
  -25.9324  -11.6446   20.5773 N   0  0  0  0  0  0
  -22.0500  -12.8227   22.0369 N   0  0  0  0  0  0
  -25.4351  -15.1828   20.4175 N   0  0  0  0  0  0
  -31.7948  -14.6711   20.0768 O   0  0  0  0  0  0
  -21.6632   -6.8865   21.4241 O   0  0  0  0  0  0
  -22.3561  -14.5535   20.6665 O   0  0  0  0  0  0
  -24.6094  -31.8705   23.2115 C   0  0  0  0  0  0
  -25.9014  -32.4830   23.8405 C   0  0  1  0  0  0
  -27.2411  -27.4685   20.0925 C   0  0  0  0  0  0
  -25.5902  -33.8622   24.2346 N   0  0  0  0  0  0
  -23.3988  -30.4915   21.5507 C   0  0  2  0  0  0
  -24.8482  -28.9601   20.1167 C   0  0  0  0  0  0
  -22.7410  -29.4642   22.5008 C   0  0  0  0  0  0
  -18.0275  -28.1378   22.8471 C   0  0  0  0  0  0
  -24.1484  -36.7310   23.2647 C   0  0  0  0  0  0
  -25.9225  -30.8445   21.3624 C   0  0  0  0  0  0
  -26.0027  -29.4774   20.7181 C   0  0  0  0  0  0
  -27.2028  -28.7354   20.7115 C   0  0  0  0  0  0
  -26.0773  -26.9571   19.4860 C   0  0  0  0  0  0
  -24.8769  -27.6951   19.5015 C   0  0  0  0  0  0
  -23.6077  -29.8228   20.1644 C   0  0  0  0  0  0
  -25.4096  -36.3106   24.0355 C   0  0  1  0  0  0
  -20.5863  -28.3642   23.1331 C   0  0  2  0  0  0
  -20.6759  -26.9384   22.5415 C   0  0  0  0  0  0
  -19.5749  -26.6394   21.5197 C   0  0  0  0  0  0
  -18.1919  -26.7918   22.1610 C   0  0  0  0  0  0
  -19.1529  -28.8832   23.2888 C   0  0  0  0  0  0
  -18.9460  -30.1437   23.8898 C   0  0  0  0  0  0
  -17.6463  -30.6575   24.0572 C   0  0  0  0  0  0
  -25.9034  -34.9472   23.5147 C   0  0  0  0  0  0
  -16.5348  -29.9086   23.6331 C   0  0  0  0  0  0
  -16.7266  -28.6517   23.0322 C   0  0  0  0  0  0
  -26.4453  -31.6598   25.0716 C   0  0  0  0  0  0
  -25.3715  -31.3729   26.1475 C   0  0  0  0  0  0
  -27.0272  -30.3050   24.6048 C   0  0  0  0  0  0
  -27.6040  -32.4311   25.7472 C   0  0  0  0  0  0
  -27.5584  -37.1795   24.8467 C   0  0  0  0  0  0
  -21.4145  -29.3019   22.3755 N   0  0  0  0  0  0
  -26.4282  -37.3790   23.9434 N   0  0  0  0  0  0
  -24.6609  -31.0832   22.0999 N   0  0  0  0  0  0
  -23.4199  -28.8188   23.3040 O   0  0  0  0  0  0
  -28.4019  -26.7364   20.0402 O   0  0  0  0  0  0
  -26.5583  -34.8934   22.4696 O   0  0  0  0  0  0
  -23.5300  -32.1444   23.7525 O   0  0  0  0  0  0
  -31.0661  -21.3355   21.2539 C   0  0  0  0  0  0
  -29.4563  -21.0876   23.0432 C   0  0  0  0  0  0
  -30.1601  -21.9311   22.1584 C   0  0  0  0  0  0
  -31.2626  -19.9367   21.2315 C   0  0  0  0  0  0
  -30.5163  -19.0951   22.1001 C   0  0  0  0  0  0
  -29.5931  -19.6787   23.0040 C   0  0  0  0  0  0
  -28.4773  -23.8733   22.4914 C   0  0  0  0  0  0
  -30.5927  -24.2790   21.0947 C   0  0  0  0  0  0
  -28.5531  -18.5229   19.4839 C   0  0  0  0  0  0
  -28.1256  -17.1246   19.1082 C   0  0  0  0  0  0
  -27.9104  -24.8278   21.4328 C   0  0  0  0  0  0
  -30.2783  -25.7824   21.2436 C   0  0  0  0  0  0
  -29.9595  -23.4551   22.2469 C   0  0  2  0  0  0
  -28.6906  -17.3977   20.4850 C   0  0  0  0  0  0
  -28.7650  -26.0992   21.2647 C   0  0  1  0  0  0
  -32.2816  -19.3764   20.2497 C   0  0  0  0  0  0
  -27.7983  -19.3933   24.5862 C   0  0  0  0  0  0
  -30.6931  -17.5682   22.0883 C   0  0  0  0  0  0
  -30.0476  -16.8336   20.8871 C   0  0  1  0  0  0
  -29.9552  -15.3959   21.1503 N   0  0  0  0  0  0
  -28.8616  -18.8388   23.8199 O   0  0  0  0  0  0
  -31.4730  -12.3926   19.1083 H   0  0  0  0  0  0
  -30.3352  -11.2665   19.7910 H   0  0  0  0  0  0
  -29.7267  -11.7855   17.4147 H   0  0  0  0  0  0
  -29.6655  -13.4923   17.7739 H   0  0  0  0  0  0
  -27.8259  -11.3097   18.8104 H   0  0  0  0  0  0
  -27.3626  -12.6462   17.7917 H   0  0  0  0  0  0
  -27.7227  -14.2474   19.6012 H   0  0  0  0  0  0
  -28.6799  -11.8929   21.3050 H   0  0  0  0  0  0
  -28.4742  -13.5079   21.8977 H   0  0  0  0  0  0
  -25.2746   -9.5656   22.4763 H   0  0  0  0  0  0
  -23.9974   -7.4620   22.7484 H   0  0  0  0  0  0
  -21.0824   -8.8759   19.8956 H   0  0  0  0  0  0
  -22.3691  -10.9652   19.6155 H   0  0  0  0  0  0
  -21.2006   -7.6140   23.9704 H   0  0  0  0  0  0
  -21.1477   -6.0523   25.9073 H   0  0  0  0  0  0
  -22.0605   -2.7606   23.2862 H   0  0  0  0  0  0
  -22.4102  -11.9882   22.4761 H   0  0  0  0  0  0
  -21.1122  -13.1259   22.2569 H   0  0  0  0  0  0
  -24.6744  -15.8425   20.5362 H   0  0  0  0  0  0
  -26.3000  -15.6192   20.1285 H   0  0  0  0  0  0
  -26.7089  -32.5571   23.1182 H   0  0  0  0  0  0
  -25.0046  -33.9782   25.0489 H   0  0  0  0  0  0
  -22.6834  -31.3043   21.4113 H   0  0  0  0  0  0
  -23.3745  -35.9645   23.3304 H   0  0  0  0  0  0
  -24.3596  -36.8924   22.2068 H   0  0  0  0  0  0
  -23.7232  -37.6514   23.6651 H   0  0  0  0  0  0
  -26.0254  -31.6063   20.5876 H   0  0  0  0  0  0
  -26.8145  -30.9045   21.9746 H   0  0  0  0  0  0
  -28.0974  -29.1346   21.1683 H   0  0  0  0  0  0
  -26.1008  -25.9869   19.0093 H   0  0  0  0  0  0
  -23.9910  -27.2898   19.0330 H   0  0  0  0  0  0
  -23.7143  -30.5981   19.4041 H   0  0  0  0  0  0
  -22.7353  -29.2389   19.8701 H   0  0  0  0  0  0
  -25.1256  -36.1983   25.0847 H   0  0  0  0  0  0
  -20.9933  -28.3193   24.1468 H   0  0  0  0  0  0
  -20.5671  -26.2241   23.3589 H   0  0  0  0  0  0
  -21.6626  -26.7427   22.1209 H   0  0  0  0  0  0
  -19.6908  -25.6320   21.1202 H   0  0  0  0  0  0
  -19.6711  -27.3232   20.6747 H   0  0  0  0  0  0
  -17.4190  -26.6691   21.4004 H   0  0  0  0  0  0
  -18.0307  -26.0047   22.9003 H   0  0  0  0  0  0
  -19.7951  -30.7236   24.2283 H   0  0  0  0  0  0
  -17.5035  -31.6264   24.5170 H   0  0  0  0  0  0
  -15.5354  -30.2991   23.7664 H   0  0  0  0  0  0
  -15.8666  -28.0857   22.7005 H   0  0  0  0  0  0
  -24.5870  -30.7093   25.7825 H   0  0  0  0  0  0
  -24.8919  -32.2904   26.4901 H   0  0  0  0  0  0
  -25.8053  -30.8914   27.0246 H   0  0  0  0  0  0
  -26.2808  -29.6853   24.1062 H   0  0  0  0  0  0
  -27.4038  -29.7246   25.4477 H   0  0  0  0  0  0
  -27.8638  -30.4403   23.9189 H   0  0  0  0  0  0
  -27.2661  -33.3609   26.2068 H   0  0  0  0  0  0
  -28.3827  -32.6883   25.0277 H   0  0  0  0  0  0
  -28.0718  -31.8411   26.5371 H   0  0  0  0  0  0
  -28.2566  -38.0118   24.7519 H   0  0  0  0  0  0
  -28.1102  -36.2645   24.6250 H   0  0  0  0  0  0
  -27.2316  -37.1401   25.8872 H   0  0  0  0  0  0
  -20.9302  -29.8764   21.6990 H   0  0  0  0  0  0
  -26.0178  -38.2872   24.1438 H   0  0  0  0  0  0
  -31.6411  -21.9475   20.5739 H   0  0  0  0  0  0
  -28.7980  -21.5473   23.7643 H   0  0  0  0  0  0
  -27.8066  -23.0162   22.5237 H   0  0  0  0  0  0
  -28.3994  -24.3448   23.4733 H   0  0  0  0  0  0
  -31.6757  -24.1467   21.0845 H   0  0  0  0  0  0
  -30.2235  -23.9300   20.1289 H   0  0  0  0  0  0
  -27.7721  -19.2588   19.6647 H   0  0  0  0  0  0
  -29.4528  -18.9098   19.0119 H   0  0  0  0  0  0
  -28.7507  -16.5767   18.4056 H   0  0  0  0  0  0
  -27.0563  -16.9511   19.0087 H   0  0  0  0  0  0
  -26.8832  -25.0923   21.6860 H   0  0  0  0  0  0
  -27.8556  -24.2962   20.4811 H   0  0  0  0  0  0
  -30.7750  -26.3550   20.4599 H   0  0  0  0  0  0
  -30.7193  -26.1271   22.1802 H   0  0  0  0  0  0
  -30.5079  -23.7413   23.1460 H   0  0  0  0  0  0
  -27.9633  -17.3960   21.2967 H   0  0  0  0  0  0
  -28.5796  -26.7718   22.1055 H   0  0  0  0  0  0
  -33.0084  -20.1384   19.9680 H   0  0  0  0  0  0
  -31.7915  -19.0367   19.3375 H   0  0  0  0  0  0
  -32.8480  -18.5470   20.6690 H   0  0  0  0  0  0
  -27.2549  -18.5935   25.0865 H   0  0  0  0  0  0
  -27.0855  -19.9251   23.9542 H   0  0  0  0  0  0
  -28.1695  -20.0703   25.3573 H   0  0  0  0  0  0
  -30.2901  -17.1524   23.0105 H   0  0  0  0  0  0
  -31.7541  -17.3265   22.1440 H   0  0  0  0  0  0
  -30.7028  -16.9907   20.0285 H   0  0  0  0  0  0
  -29.0944  -15.0782   21.5689 H   0  0  0  0  0  0
  1 25  1  0  0  0
  1 30  2  0  0  0
  1 90  1  0  0  0
  2  3  1  0  0  0
  2 25  1  0  0  0
  2 92  1  0  0  0
  2 93  1  0  0  0
  3  4  1  0  0  0
  3 94  1  0  0  0
  3 95  1  0  0  0
  4  5  1  0  0  0
  4 96  1  0  0  0
  4 97  1  0  0  0
  5  6  1  0  0  0
  5 26  1  0  0  0
  5 98  1  0  0  0
  6 25  1  0  0  0
  6 99  1  0  0  0
  6100  1  0  0  0
  7  8  2  0  0  0
  7 26  1  0  0  0
  7 29  1  0  0  0
  8  9  1  0  0  0
  8 22  1  0  0  0
  9 10  1  0  0  0
  9 27  2  0  0  0
 10 11  2  0  0  0
 10 15  1  0  0  0
 11 12  1  0  0  0
 11101  1  0  0  0
 12 13  2  0  0  0
 12102  1  0  0  0
 13 14  1  0  0  0
 13 31  1  0  0  0
 14 15  2  0  0  0
 14103  1  0  0  0
 15104  1  0  0  0
 16 17  2  0  0  0
 16 21  1  0  0  0
 16 31  1  0  0  0
 17 18  1  0  0  0
 17105  1  0  0  0
 18 19  2  0  0  0
 18106  1  0  0  0
 19 20  1  0  0  0
 19 24  1  0  0  0
 20 21  2  0  0  0
 20107  1  0  0  0
 21 23  1  0  0  0
 22 28  1  0  0  0
 22 32  2  0  0  0
 26 27  1  0  0  0
 28108  1  0  0  0
 28109  1  0  0  0
 29110  1  0  0  0
 29111  1  0  0  0
 33 34  1  0  0  0
 33 66  1  0  0  0
 33 70  2  0  0  0
 34 36  1  0  0  0
 34 59  1  0  0  0
 34112  1  0  0  0
 35 44  2  0  0  0
 35 45  1  0  0  0
 35 68  1  0  0  0
 36 56  1  0  0  0
 36113  1  0  0  0
 37 39  1  0  0  0
 37 47  1  0  0  0
 37 66  1  0  0  0
 37114  1  0  0  0
 38 43  2  0  0  0
 38 46  1  0  0  0
 38 47  1  0  0  0
 39 64  1  0  0  0
 39 67  2  0  0  0
 40 52  1  0  0  0
 40 53  2  0  0  0
 40 58  1  0  0  0
 41115  1  0  0  0
 41116  1  0  0  0
 41117  1  0  0  0
 41 48  1  0  0  0
 42 43  1  0  0  0
 42 66  1  0  0  0
 42118  1  0  0  0
 42119  1  0  0  0
 43 44  1  0  0  0
 44120  1  0  0  0
 45 46  2  0  0  0
 45121  1  0  0  0
 46122  1  0  0  0
 47123  1  0  0  0
 47124  1  0  0  0
 48 56  1  0  0  0
 48 65  1  0  0  0
 48125  1  0  0  0
 49 50  1  0  0  0
 49 53  1  0  0  0
 49 64  1  0  0  0
 49126  1  0  0  0
 50 51  1  0  0  0
 50127  1  0  0  0
 50128  1  0  0  0
 51 52  1  0  0  0
 51129  1  0  0  0
 51130  1  0  0  0
 52131  1  0  0  0
 52132  1  0  0  0
 53 54  1  0  0  0
 54 55  2  0  0  0
 54133  1  0  0  0
 55 57  1  0  0  0
 55134  1  0  0  0
 56 69  2  0  0  0
 57 58  2  0  0  0
 57135  1  0  0  0
 58136  1  0  0  0
 59 60  1  0  0  0
 59 61  1  0  0  0
 59 62  1  0  0  0
 60137  1  0  0  0
 60138  1  0  0  0
 60139  1  0  0  0
 61140  1  0  0  0
 61141  1  0  0  0
 61142  1  0  0  0
 62143  1  0  0  0
 62144  1  0  0  0
 62145  1  0  0  0
 63 65  1  0  0  0
 63146  1  0  0  0
 63147  1  0  0  0
 63148  1  0  0  0
 64149  1  0  0  0
 65150  1  0  0  0
 68 85  1  0  0  0
 71 73  2  0  0  0
 71 74  1  0  0  0
 71151  1  0  0  0
 72 73  1  0  0  0
 72 76  2  0  0  0
 72152  1  0  0  0
 73 83  1  0  0  0
 74 75  2  0  0  0
 74 86  1  0  0  0
 75 76  1  0  0  0
 75 88  1  0  0  0
 76 91  1  0  0  0
 77 81  1  0  0  0
 77 83  1  0  0  0
 77153  1  0  0  0
 77154  1  0  0  0
 78 82  1  0  0  0
 78 83  1  0  0  0
 78155  1  0  0  0
 78156  1  0  0  0
 79 80  1  0  0  0
 79157  1  0  0  0
 79158  1  0  0  0
 79 84  1  0  0  0
 80 84  1  0  0  0
 80159  1  0  0  0
 80160  1  0  0  0
 81 85  1  0  0  0
 81161  1  0  0  0
 81162  1  0  0  0
 82 85  1  0  0  0
 82163  1  0  0  0
 82164  1  0  0  0
 83165  1  0  0  0
 84 89  1  0  0  0
 84166  1  0  0  0
 85167  1  0  0  0
 86168  1  0  0  0
 86169  1  0  0  0
 86170  1  0  0  0
 87 91  1  0  0  0
 87171  1  0  0  0
 87172  1  0  0  0
 87173  1  0  0  0
 88174  1  0  0  0
 88175  1  0  0  0
 88 89  1  0  0  0
 89 90  1  0  0  0
 89176  1  0  0  0
 90177  1  0  0  0
M  ISO  4   1 100  68 101  85 101  90 100
M  END
> <chiral flag>
0

> <version>
0

> <s_m_source_file>
/data/baiqing/PycharmProjects/Reinvent-master-3.2/result/LINK_invent/BTK/process_docking_weight1_custom_sum_contain_oxygen_bond_distance_aromatic_linkinvent_7_9_3/rearranged_h_0148.sdf

> <i_m_source_file_index>
42

> <r_mmod_Potential_Energy-OPLS-2005>
11.5222721099854

> <r_mmod_Stretch_Energy-OPLS-2005>
38.3839492797852

> <r_mmod_Bend_Energy-OPLS-2005>
103.565994262695

> <r_mmod_Torsional_Energy-OPLS-2005>
321.554779052734

> <r_mmod_Improper_Torsional_Energy-OPLS-2005>
5.01183128356934

> <r_mmod_Van_der_Waal_Energy-OPLS-2005>
163.272903442383

> <r_mmod_Electrostatic_Energy-OPLS-2005>
-432.103637695312

> <r_mmod_Solvation_Energy-OPLS-2005>
-196.534698486328

> <b_mmod_Minimization_Converged-OPLS-2005>
0

> <r_mmod_RMS_Derivative-OPLS-2005>
2.32082080841064

$$$$
42
                    3D
 Structure written by MMmdl.
160169  0  0  1  0            999 V2000
  -30.6295  -14.8045   20.4562 C   0  0  0  0  0  0
  -30.4375  -12.4971   19.4784 C   0  0  0  0  0  0
  -29.5151  -12.5308   18.2378 C   0  0  0  0  0  0
  -28.0385  -12.3560   18.6485 C   0  0  0  0  0  0
  -27.6460  -13.2488   19.8581 C   0  0  2  0  0  0
  -28.7014  -13.1995   20.9878 C   0  0  0  0  0  0
  -25.2503  -13.8245   20.5772 C   0  0  0  0  0  0
  -24.1815  -13.0453   20.9253 C   0  0  0  0  0  0
  -24.6425  -11.6920   20.8759 C   0  0  0  0  0  0
  -23.9099  -10.4282   21.0400 C   0  0  0  0  0  0
  -24.3625   -9.4196   21.9187 C   0  0  0  0  0  0
  -23.6298   -8.2236   22.0761 C   0  0  0  0  0  0
  -22.4290   -8.0271   21.3541 C   0  0  0  0  0  0
  -21.9913   -9.0267   20.4659 C   0  0  0  0  0  0
  -22.7253  -10.2140   20.3062 C   0  0  0  0  0  0
  -21.6836   -6.0723   22.5283 C   0  0  0  0  0  0
  -21.4013   -6.5635   23.8207 C   0  0  0  0  0  0
  -21.3674   -5.6795   24.9176 C   0  0  0  0  0  0
  -21.6021   -4.3059   24.7228 C   0  0  0  0  0  0
  -21.8823   -3.8144   23.4361 C   0  0  0  0  0  0
  -21.9193   -4.6955   22.3399 C   0  0  0  0  0  0
  -22.7825  -13.5193   21.1889 C   0  0  0  0  0  0
  -22.1657   -4.2143   21.0976 F   0  0  0  0  0  0
  -21.5644   -3.4530   25.7738 F   0  0  0  0  0  0
  -29.9939  -13.5744   20.3999 N   0  0  0  0  0  0
  -26.2976  -12.9484   20.3365 N   0  0  0  0  0  0
  -25.9372  -11.6607   20.5785 N   0  0  0  0  0  0
  -22.0456  -12.8195   22.0442 N   0  0  0  0  0  0
  -25.4176  -15.1978   20.4211 N   0  0  0  0  0  0
  -31.8098  -14.8898   20.1096 O   0  0  0  0  0  0
  -21.6638   -6.8888   21.4251 O   0  0  0  0  0  0
  -22.3490  -14.5471   20.6705 O   0  0  0  0  0  0
  -24.6342  -31.8521   23.1936 C   0  0  0  0  0  0
  -25.9153  -32.4725   23.8298 C   0  0  1  0  0  0
  -27.2337  -27.2314   20.1500 C   0  0  0  0  0  0
  -25.5949  -33.8534   24.2219 N   0  0  0  0  0  0
  -23.4323  -30.4706   21.5381 C   0  0  2  0  0  0
  -24.8835  -28.9046   20.1082 C   0  0  0  0  0  0
  -22.7538  -29.4588   22.4926 C   0  0  0  0  0  0
  -18.0294  -28.1382   22.8499 C   0  0  0  0  0  0
  -24.1488  -36.7248   23.2651 C   0  0  0  0  0  0
  -25.9779  -30.7559   21.3795 C   0  0  0  0  0  0
  -26.0508  -29.3756   20.7198 C   0  0  0  0  0  0
  -27.2229  -28.5493   20.7278 C   0  0  0  0  0  0
  -26.0431  -26.8297   19.5047 C   0  0  0  0  0  0
  -24.8871  -27.6424   19.4880 C   0  0  0  0  0  0
  -23.6508  -29.7939   20.1573 C   0  0  0  0  0  0
  -25.4127  -36.3058   24.0330 C   0  0  1  0  0  0
  -20.5915  -28.3702   23.1273 C   0  0  2  0  0  0
  -20.6775  -26.9420   22.5409 C   0  0  0  0  0  0
  -19.5744  -26.6387   21.5220 C   0  0  0  0  0  0
  -18.1930  -26.7922   22.1641 C   0  0  0  0  0  0
  -19.1553  -28.8866   23.2872 C   0  0  0  0  0  0
  -18.9467  -30.1470   23.8879 C   0  0  0  0  0  0
  -17.6458  -30.6589   24.0561 C   0  0  0  0  0  0
  -25.9065  -34.9430   23.5090 C   0  0  0  0  0  0
  -16.5355  -29.9072   23.6334 C   0  0  0  0  0  0
  -16.7276  -28.6489   23.0363 C   0  0  0  0  0  0
  -26.4475  -31.6584   25.0738 C   0  0  0  0  0  0
  -25.3669  -31.3777   26.1454 C   0  0  0  0  0  0
  -27.0329  -30.2988   24.6290 C   0  0  0  0  0  0
  -27.6016  -32.4354   25.7503 C   0  0  0  0  0  0
  -27.5572  -37.1805   24.8481 C   0  0  0  0  0  0
  -21.4240  -29.3038   22.3665 N   0  0  0  0  0  0
  -26.4291  -37.3773   23.9419 N   0  0  0  0  0  0
  -24.6984  -31.0483   22.0912 N   0  0  0  0  0  0
  -23.4209  -28.8160   23.3064 O   0  0  0  0  0  0
  -28.3325  -26.3410   20.2828 O   0  0  0  0  0  0
  -26.5646  -34.8919   22.4660 O   0  0  0  0  0  0
  -23.5491  -32.1327   23.7257 O   0  0  0  0  0  0
  -30.3557  -21.0509   22.4160 C   0  0  0  0  0  0
  -29.3519  -23.5713   22.2307 C   0  0  0  0  0  0
  -29.0706  -22.7009   21.1575 C   0  0  0  0  0  0
  -29.5422  -21.2920   21.2815 C   0  0  0  0  0  0
  -30.5914  -22.0268   23.4016 C   0  0  0  0  0  0
  -32.8458  -21.1964   24.4581 C   0  0  0  0  0  0
  -31.7587  -20.4338   25.1802 C   0  0  0  0  0  0
  -31.4679  -21.8021   24.6070 C   0  0  0  0  0  0
  -28.1919  -23.4583   20.0718 C   0  0  0  0  0  0
  -30.2762  -17.4564   20.4305 C   0  0  0  0  0  0
  -28.4915  -25.0085   19.5829 C   0  0  0  0  0  0
  -29.3277  -18.7072   20.9449 C   0  0  0  0  0  0
  -30.0744  -23.2598   23.3155 N   0  0  0  0  0  0
  -29.8945  -15.9697   20.6845 N   0  0  0  0  0  0
  -29.3705  -20.1485   20.4267 O   0  0  0  0  0  0
  -31.4807  -12.6131   19.1792 H   0  0  0  0  0  0
  -30.3775  -11.5281   19.9762 H   0  0  0  0  0  0
  -29.7987  -11.7502   17.5301 H   0  0  0  0  0  0
  -29.6422  -13.4803   17.7156 H   0  0  0  0  0  0
  -27.8845  -11.3066   18.8998 H   0  0  0  0  0  0
  -27.3842  -12.5597   17.7983 H   0  0  0  0  0  0
  -27.6277  -14.2699   19.4758 H   0  0  0  0  0  0
  -28.7609  -12.1986   21.4150 H   0  0  0  0  0  0
  -28.4377  -13.8630   21.8119 H   0  0  0  0  0  0
  -25.2786   -9.5645   22.4743 H   0  0  0  0  0  0
  -23.9997   -7.4617   22.7459 H   0  0  0  0  0  0
  -21.0853   -8.8787   19.8961 H   0  0  0  0  0  0
  -22.3731  -10.9671   19.6152 H   0  0  0  0  0  0
  -21.2002   -7.6137   23.9708 H   0  0  0  0  0  0
  -21.1493   -6.0518   25.9067 H   0  0  0  0  0  0
  -22.0593   -2.7606   23.2849 H   0  0  0  0  0  0
  -22.4092  -11.9867   22.4838 H   0  0  0  0  0  0
  -21.1062  -13.1211   22.2614 H   0  0  0  0  0  0
  -24.6559  -15.8524   20.5588 H   0  0  0  0  0  0
  -26.2584  -15.6419   20.0756 H   0  0  0  0  0  0
  -26.7236  -32.5337   23.1042 H   0  0  0  0  0  0
  -25.0110  -33.9644   25.0378 H   0  0  0  0  0  0
  -22.7272  -31.2919   21.3878 H   0  0  0  0  0  0
  -23.3765  -35.9568   23.3335 H   0  0  0  0  0  0
  -24.3555  -36.8843   22.2057 H   0  0  0  0  0  0
  -23.7214  -37.6455   23.6633 H   0  0  0  0  0  0
  -26.1399  -31.5237   20.6221 H   0  0  0  0  0  0
  -26.8471  -30.7966   22.0228 H   0  0  0  0  0  0
  -28.1134  -28.9061   21.2286 H   0  0  0  0  0  0
  -25.9702  -25.8533   19.0535 H   0  0  0  0  0  0
  -23.9916  -27.2684   19.0121 H   0  0  0  0  0  0
  -23.7728  -30.5666   19.3971 H   0  0  0  0  0  0
  -22.7683  -29.2267   19.8543 H   0  0  0  0  0  0
  -25.1311  -36.1914   25.0821 H   0  0  0  0  0  0
  -20.9985  -28.3268   24.1408 H   0  0  0  0  0  0
  -20.5697  -26.2311   23.3616 H   0  0  0  0  0  0
  -21.6633  -26.7450   22.1196 H   0  0  0  0  0  0
  -19.6904  -25.6303   21.1241 H   0  0  0  0  0  0
  -19.6657  -27.3205   20.6754 H   0  0  0  0  0  0
  -17.4198  -26.6690   21.4037 H   0  0  0  0  0  0
  -18.0322  -26.0057   22.9029 H   0  0  0  0  0  0
  -19.7950  -30.7301   24.2224 H   0  0  0  0  0  0
  -17.5015  -31.6263   24.5175 H   0  0  0  0  0  0
  -15.5361  -30.2958   23.7679 H   0  0  0  0  0  0
  -15.8677  -28.0792   22.7088 H   0  0  0  0  0  0
  -24.5859  -30.7095   25.7793 H   0  0  0  0  0  0
  -24.8831  -32.2967   26.4796 H   0  0  0  0  0  0
  -25.7980  -30.9024   27.0284 H   0  0  0  0  0  0
  -26.2942  -29.6755   24.1239 H   0  0  0  0  0  0
  -27.3891  -29.7251   25.4857 H   0  0  0  0  0  0
  -27.8868  -30.4238   23.9627 H   0  0  0  0  0  0
  -27.2604  -33.3684   26.2010 H   0  0  0  0  0  0
  -28.3844  -32.6895   25.0332 H   0  0  0  0  0  0
  -28.0657  -31.8533   26.5478 H   0  0  0  0  0  0
  -28.2642  -38.0054   24.7494 H   0  0  0  0  0  0
  -28.1024  -36.2599   24.6357 H   0  0  0  0  0  0
  -27.2285  -37.1504   25.8883 H   0  0  0  0  0  0
  -20.9443  -29.8724   21.6827 H   0  0  0  0  0  0
  -26.0178  -38.2869   24.1361 H   0  0  0  0  0  0
  -30.8415  -20.0986   22.5410 H   0  0  0  0  0  0
  -28.9563  -24.5769   22.2393 H   0  0  0  0  0  0
  -33.1345  -20.8186   23.4786 H   0  0  0  0  0  0
  -33.6556  -21.5925   25.0721 H   0  0  0  0  0  0
  -31.8584  -20.3495   26.2600 H   0  0  0  0  0  0
  -31.3364  -19.5664   24.6790 H   0  0  0  0  0  0
  -31.3812  -22.6283   25.3111 H   0  0  0  0  0  0
  -27.1618  -23.4163   20.4239 H   0  0  0  0  0  0
  -28.2020  -22.8320   19.1803 H   0  0  0  0  0  0
  -31.2850  -17.6073   20.8192 H   0  0  0  0  0  0
  -30.3839  -17.5538   19.3503 H   0  0  0  0  0  0
  -27.9924  -25.1246   18.6198 H   0  0  0  0  0  0
  -29.5454  -25.0059   19.3055 H   0  0  0  0  0  0
  -29.3314  -18.7109   22.0356 H   0  0  0  0  0  0
  -28.3088  -18.3963   20.7183 H   0  0  0  0  0  0
  -28.9322  -15.8121   20.9375 H   0  0  0  0  0  0
  1 25  1  0  0  0
  1 30  2  0  0  0
  1 84  1  0  0  0
  2  3  1  0  0  0
  2 25  1  0  0  0
  2 86  1  0  0  0
  2 87  1  0  0  0
  3  4  1  0  0  0
  3 88  1  0  0  0
  3 89  1  0  0  0
  4  5  1  0  0  0
  4 90  1  0  0  0
  4 91  1  0  0  0
  5  6  1  0  0  0
  5 26  1  0  0  0
  5 92  1  0  0  0
  6 25  1  0  0  0
  6 93  1  0  0  0
  6 94  1  0  0  0
  7  8  2  0  0  0
  7 26  1  0  0  0
  7 29  1  0  0  0
  8  9  1  0  0  0
  8 22  1  0  0  0
  9 10  1  0  0  0
  9 27  2  0  0  0
 10 11  2  0  0  0
 10 15  1  0  0  0
 11 12  1  0  0  0
 11 95  1  0  0  0
 12 13  2  0  0  0
 12 96  1  0  0  0
 13 14  1  0  0  0
 13 31  1  0  0  0
 14 15  2  0  0  0
 14 97  1  0  0  0
 15 98  1  0  0  0
 16 17  2  0  0  0
 16 21  1  0  0  0
 16 31  1  0  0  0
 17 18  1  0  0  0
 17 99  1  0  0  0
 18 19  2  0  0  0
 18100  1  0  0  0
 19 20  1  0  0  0
 19 24  1  0  0  0
 20 21  2  0  0  0
 20101  1  0  0  0
 21 23  1  0  0  0
 22 28  1  0  0  0
 22 32  2  0  0  0
 26 27  1  0  0  0
 28102  1  0  0  0
 28103  1  0  0  0
 29104  1  0  0  0
 29105  1  0  0  0
 33 34  1  0  0  0
 33 66  1  0  0  0
 33 70  2  0  0  0
 34 36  1  0  0  0
 34 59  1  0  0  0
 34106  1  0  0  0
 35 44  2  0  0  0
 35 45  1  0  0  0
 35 68  1  0  0  0
 36 56  1  0  0  0
 36107  1  0  0  0
 37 39  1  0  0  0
 37 47  1  0  0  0
 37 66  1  0  0  0
 37108  1  0  0  0
 38 43  2  0  0  0
 38 46  1  0  0  0
 38 47  1  0  0  0
 39 64  1  0  0  0
 39 67  2  0  0  0
 40 52  1  0  0  0
 40 53  2  0  0  0
 40 58  1  0  0  0
 41109  1  0  0  0
 41110  1  0  0  0
 41111  1  0  0  0
 41 48  1  0  0  0
 42 43  1  0  0  0
 42 66  1  0  0  0
 42112  1  0  0  0
 42113  1  0  0  0
 43 44  1  0  0  0
 44114  1  0  0  0
 45 46  2  0  0  0
 45115  1  0  0  0
 46116  1  0  0  0
 47117  1  0  0  0
 47118  1  0  0  0
 48 56  1  0  0  0
 48 65  1  0  0  0
 48119  1  0  0  0
 49 50  1  0  0  0
 49 53  1  0  0  0
 49 64  1  0  0  0
 49120  1  0  0  0
 50 51  1  0  0  0
 50121  1  0  0  0
 50122  1  0  0  0
 51 52  1  0  0  0
 51123  1  0  0  0
 51124  1  0  0  0
 52125  1  0  0  0
 52126  1  0  0  0
 53 54  1  0  0  0
 54 55  2  0  0  0
 54127  1  0  0  0
 55 57  1  0  0  0
 55128  1  0  0  0
 56 69  2  0  0  0
 57 58  2  0  0  0
 57129  1  0  0  0
 58130  1  0  0  0
 59 60  1  0  0  0
 59 61  1  0  0  0
 59 62  1  0  0  0
 60131  1  0  0  0
 60132  1  0  0  0
 60133  1  0  0  0
 61134  1  0  0  0
 61135  1  0  0  0
 61136  1  0  0  0
 62137  1  0  0  0
 62138  1  0  0  0
 62139  1  0  0  0
 63 65  1  0  0  0
 63140  1  0  0  0
 63141  1  0  0  0
 63142  1  0  0  0
 64143  1  0  0  0
 65144  1  0  0  0
 68 81  1  0  0  0
 71 74  2  0  0  0
 71 75  1  0  0  0
 71145  1  0  0  0
 72 73  2  0  0  0
 72 83  1  0  0  0
 72146  1  0  0  0
 73 74  1  0  0  0
 73 79  1  0  0  0
 74 85  1  0  0  0
 75 83  2  0  0  0
 75 78  1  0  0  0
 76 77  1  0  0  0
 76 78  1  0  0  0
 76147  1  0  0  0
 76148  1  0  0  0
 77 78  1  0  0  0
 77149  1  0  0  0
 77150  1  0  0  0
 78151  1  0  0  0
 79 81  1  0  0  0
 79152  1  0  0  0
 79153  1  0  0  0
 80 82  1  0  0  0
 80 84  1  0  0  0
 80154  1  0  0  0
 80155  1  0  0  0
 81156  1  0  0  0
 81157  1  0  0  0
 82 85  1  0  0  0
 82158  1  0  0  0
 82159  1  0  0  0
 84160  1  0  0  0
M  ISO  4   1 100  68 101  81 101  84 100
M  END
> <chiral flag>
0

> <version>
0

> <s_m_source_file>
/data/baiqing/PycharmProjects/Reinvent-master-3.2/result/LINK_invent/BTK/process_docking_weight1_custom_sum_contain_oxygen_bond_distance_aromatic_linkinvent_7_9_3/rearranged_h_0148.sdf

> <i_m_source_file_index>
43

> <r_mmod_Potential_Energy-OPLS-2005>
91.3513870239258

> <r_mmod_Stretch_Energy-OPLS-2005>
176.16960144043

> <r_mmod_Bend_Energy-OPLS-2005>
272.083312988281

> <r_mmod_Torsional_Energy-OPLS-2005>
234.311172485352

> <r_mmod_Improper_Torsional_Energy-OPLS-2005>
5.38026332855225

> <r_mmod_Van_der_Waal_Energy-OPLS-2005>
142.45524597168

> <r_mmod_Electrostatic_Energy-OPLS-2005>
-614.275451660156

> <r_mmod_Solvation_Energy-OPLS-2005>
-234.244079589844

> <b_mmod_Minimization_Converged-OPLS-2005>
0

> <r_mmod_RMS_Derivative-OPLS-2005>
5.22600030899048

$$$$
43
                    3D
 Structure written by MMmdl.
170179  0  0  1  0            999 V2000
  -30.6363  -14.5682   20.4968 C   0  0  0  0  0  0
  -30.4283  -12.3575   19.4000 C   0  0  0  0  0  0
  -29.4624  -12.4817   18.1964 C   0  0  0  0  0  0
  -27.9998  -12.3071   18.6431 C   0  0  0  0  0  0
  -27.6463  -13.1970   19.8629 C   0  0  2  0  0  0
  -28.6995  -13.0341   20.9865 C   0  0  0  0  0  0
  -25.2550  -13.8187   20.5672 C   0  0  0  0  0  0
  -24.1824  -13.0479   20.9241 C   0  0  0  0  0  0
  -24.6352  -11.6929   20.8792 C   0  0  0  0  0  0
  -23.9081  -10.4277   21.0414 C   0  0  0  0  0  0
  -24.3658   -9.4182   21.9154 C   0  0  0  0  0  0
  -23.6332   -8.2223   22.0748 C   0  0  0  0  0  0
  -22.4308   -8.0275   21.3542 C   0  0  0  0  0  0
  -21.9961   -9.0245   20.4636 C   0  0  0  0  0  0
  -22.7296  -10.2114   20.3022 C   0  0  0  0  0  0
  -21.6828   -6.0748   22.5285 C   0  0  0  0  0  0
  -21.3988   -6.5645   23.8217 C   0  0  0  0  0  0
  -21.3661   -5.6792   24.9171 C   0  0  0  0  0  0
  -21.6033   -4.3057   24.7188 C   0  0  0  0  0  0
  -21.8833   -3.8172   23.4305 C   0  0  0  0  0  0
  -21.9182   -4.6991   22.3373 C   0  0  0  0  0  0
  -22.7838  -13.5265   21.1925 C   0  0  0  0  0  0
  -22.1669   -4.2194   21.0942 F   0  0  0  0  0  0
  -21.5641   -3.4541   25.7691 F   0  0  0  0  0  0
  -30.0161  -13.3551   20.4104 N   0  0  0  0  0  0
  -26.2935  -12.9318   20.3343 N   0  0  0  0  0  0
  -25.9261  -11.6505   20.5817 N   0  0  0  0  0  0
  -22.0536  -12.8185   22.0464 N   0  0  0  0  0  0
  -25.4360  -15.1897   20.3988 N   0  0  0  0  0  0
  -31.7943  -14.7513   20.1256 O   0  0  0  0  0  0
  -21.6624   -6.8913   21.4262 O   0  0  0  0  0  0
  -22.3522  -14.5541   20.6759 O   0  0  0  0  0  0
  -24.6268  -31.8590   23.1973 C   0  0  0  0  0  0
  -25.9118  -32.4755   23.8321 C   0  0  1  0  0  0
  -27.2391  -27.3483   20.1165 C   0  0  0  0  0  0
  -25.5966  -33.8562   24.2250 N   0  0  0  0  0  0
  -23.4211  -30.4749   21.5429 C   0  0  2  0  0  0
  -24.8688  -28.9183   20.1318 C   0  0  0  0  0  0
  -22.7483  -29.4591   22.4931 C   0  0  0  0  0  0
  -18.0302  -28.1411   22.8346 C   0  0  0  0  0  0
  -24.1501  -36.7296   23.2638 C   0  0  0  0  0  0
  -25.9590  -30.7927   21.3706 C   0  0  0  0  0  0
  -26.0341  -29.4186   20.7287 C   0  0  0  0  0  0
  -27.2272  -28.6405   20.7204 C   0  0  0  0  0  0
  -26.0545  -26.8803   19.5144 C   0  0  0  0  0  0
  -24.8761  -27.6495   19.5286 C   0  0  0  0  0  0
  -23.6418  -29.8007   20.1631 C   0  0  0  0  0  0
  -25.4127  -36.3068   24.0315 C   0  0  1  0  0  0
  -20.5865  -28.3667   23.1159 C   0  0  2  0  0  0
  -20.6822  -26.9456   22.5152 C   0  0  0  0  0  0
  -19.5826  -26.6579   21.4943 C   0  0  0  0  0  0
  -18.1990  -26.8053   22.1360 C   0  0  0  0  0  0
  -19.1542  -28.8846   23.2761 C   0  0  0  0  0  0
  -18.9505  -30.1413   23.8884 C   0  0  0  0  0  0
  -17.6483  -30.6522   24.0629 C   0  0  0  0  0  0
  -25.9067  -34.9440   23.5077 C   0  0  0  0  0  0
  -16.5383  -29.9047   23.6333 C   0  0  0  0  0  0
  -16.7306  -28.6532   23.0225 C   0  0  0  0  0  0
  -26.4507  -31.6573   25.0674 C   0  0  0  0  0  0
  -25.3757  -31.3726   26.1409 C   0  0  0  0  0  0
  -27.0360  -30.2993   24.6133 C   0  0  0  0  0  0
  -27.6039  -32.4333   25.7470 C   0  0  0  0  0  0
  -27.5576  -37.1797   24.8458 C   0  0  0  0  0  0
  -21.4178  -29.3110   22.3694 N   0  0  0  0  0  0
  -26.4299  -37.3767   23.9383 N   0  0  0  0  0  0
  -24.6876  -31.0602   22.0935 N   0  0  0  0  0  0
  -23.4194  -28.8112   23.3024 O   0  0  0  0  0  0
  -28.3840  -26.5911   19.9245 O   0  0  0  0  0  0
  -26.5621  -34.8907   22.4629 O   0  0  0  0  0  0
  -23.5426  -32.1410   23.7293 O   0  0  0  0  0  0
  -26.9066  -24.2775   21.8835 C   0  0  0  0  0  0
  -26.6035  -21.8736   21.7564 C   0  0  0  0  0  0
  -28.0039  -24.2193   21.0075 C   0  0  0  0  0  0
  -27.6979  -21.7143   20.8657 C   0  0  0  0  0  0
  -28.3701  -22.9310   20.4533 C   0  0  0  0  0  0
  -26.1849  -23.1340   22.2385 C   0  0  0  0  0  0
  -30.6141  -17.6830   19.5178 C   0  0  0  0  0  0
  -30.0770  -19.1490   19.4307 C   0  0  0  0  0  0
  -28.8048  -17.9732   21.0403 C   0  0  0  0  0  0
  -30.0663  -17.0798   20.8208 C   0  0  1  0  0  0
  -29.4277  -22.8906   19.3681 C   0  0  0  0  0  0
  -27.2580  -20.1230   18.8826 C   0  0  0  0  0  0
  -24.1517  -22.2971   23.2303 C   0  0  0  0  0  0
  -28.7982  -25.5601   20.8595 C   0  0  0  0  0  0
  -27.8750  -20.2420   20.2892 C   0  0  1  0  0  0
  -29.8123  -15.6037   20.8181 N   0  0  0  0  0  0
  -29.1066  -19.3651   20.5510 N   0  3  2  0  0  0
  -25.1114  -23.3378   23.0744 O   0  0  0  0  0  0
  -31.4546  -12.5099   19.0566 H   0  0  0  0  0  0
  -30.3997  -11.3484   19.8159 H   0  0  0  0  0  0
  -29.7078  -11.7432   17.4286 H   0  0  0  0  0  0
  -29.5726  -13.4607   17.7270 H   0  0  0  0  0  0
  -27.8564  -11.2557   18.9033 H   0  0  0  0  0  0
  -27.3104  -12.5141   17.8207 H   0  0  0  0  0  0
  -27.6697  -14.2260   19.5078 H   0  0  0  0  0  0
  -28.7014  -12.0152   21.3754 H   0  0  0  0  0  0
  -28.4576  -13.6643   21.8459 H   0  0  0  0  0  0
  -25.2829   -9.5629   22.4699 H   0  0  0  0  0  0
  -24.0031   -7.4617   22.7481 H   0  0  0  0  0  0
  -21.0891   -8.8765   19.8956 H   0  0  0  0  0  0
  -22.3805  -10.9639   19.6092 H   0  0  0  0  0  0
  -21.1975   -7.6154   23.9726 H   0  0  0  0  0  0
  -21.1481   -6.0506   25.9062 H   0  0  0  0  0  0
  -22.0614   -2.7643   23.2760 H   0  0  0  0  0  0
  -22.4288  -11.9839   22.4771 H   0  0  0  0  0  0
  -21.1102  -13.1050   22.2636 H   0  0  0  0  0  0
  -24.6793  -15.8590   20.5107 H   0  0  0  0  0  0
  -26.2617  -15.5998   19.9841 H   0  0  0  0  0  0
  -26.7187  -32.5391   23.1083 H   0  0  0  0  0  0
  -25.0093  -33.9749   25.0372 H   0  0  0  0  0  0
  -22.7123  -31.2908   21.3900 H   0  0  0  0  0  0
  -23.3744  -35.9654   23.3315 H   0  0  0  0  0  0
  -24.3580  -36.8916   22.2051 H   0  0  0  0  0  0
  -23.7292  -37.6507   23.6660 H   0  0  0  0  0  0
  -26.0822  -31.5567   20.6020 H   0  0  0  0  0  0
  -26.8402  -30.8431   21.9949 H   0  0  0  0  0  0
  -28.1374  -29.0395   21.1516 H   0  0  0  0  0  0
  -26.0562  -25.9219   19.0145 H   0  0  0  0  0  0
  -23.9825  -27.2526   19.0638 H   0  0  0  0  0  0
  -23.7699  -30.5626   19.3964 H   0  0  0  0  0  0
  -22.7639  -29.2241   19.8687 H   0  0  0  0  0  0
  -25.1313  -36.1912   25.0813 H   0  0  0  0  0  0
  -20.9891  -28.3069   24.1253 H   0  0  0  0  0  0
  -21.6636  -26.7618   22.0814 H   0  0  0  0  0  0
  -20.5807  -26.2152   23.3200 H   0  0  0  0  0  0
  -19.7010  -25.6607   21.0731 H   0  0  0  0  0  0
  -19.6821  -27.3559   20.6607 H   0  0  0  0  0  0
  -17.4330  -26.6906   21.3700 H   0  0  0  0  0  0
  -18.0425  -26.0058   22.8603 H   0  0  0  0  0  0
  -19.7988  -30.7212   24.2207 H   0  0  0  0  0  0
  -17.5014  -31.6158   24.5372 H   0  0  0  0  0  0
  -15.5401  -30.2970   23.7682 H   0  0  0  0  0  0
  -15.8732  -28.0952   22.6770 H   0  0  0  0  0  0
  -24.5878  -30.7154   25.7711 H   0  0  0  0  0  0
  -24.9033  -32.2921   26.4879 H   0  0  0  0  0  0
  -25.8102  -30.8819   27.0141 H   0  0  0  0  0  0
  -26.2934  -29.6700   24.1213 H   0  0  0  0  0  0
  -27.4111  -29.7278   25.4636 H   0  0  0  0  0  0
  -27.8771  -30.4233   23.9308 H   0  0  0  0  0  0
  -27.2587  -33.3595   26.2096 H   0  0  0  0  0  0
  -28.3845  -32.7015   25.0327 H   0  0  0  0  0  0
  -28.0734  -31.8453   26.5375 H   0  0  0  0  0  0
  -28.2592  -38.0095   24.7475 H   0  0  0  0  0  0
  -28.1085  -36.2617   24.6334 H   0  0  0  0  0  0
  -27.2267  -37.1481   25.8858 H   0  0  0  0  0  0
  -20.9397  -29.8983   21.7021 H   0  0  0  0  0  0
  -26.0169  -38.2836   24.1393 H   0  0  0  0  0  0
  -26.6089  -25.2280   22.3067 H   0  0  0  0  0  0
  -26.0354  -21.0022   22.0405 H   0  0  0  0  0  0
  -31.7051  -17.6341   19.4875 H   0  0  0  0  0  0
  -30.2512  -17.1103   18.6642 H   0  0  0  0  0  0
  -29.6226  -19.2831   18.4466 H   0  0  0  0  0  0
  -30.8861  -19.8809   19.4788 H   0  0  0  0  0  0
  -28.4677  -17.9625   22.0764 H   0  0  0  0  0  0
  -27.9863  -17.5624   20.4503 H   0  0  0  0  0  0
  -30.7764  -17.2639   21.6240 H   0  0  0  0  0  0
  -29.0977  -23.5079   18.5309 H   0  0  0  0  0  0
  -29.5889  -21.8832   18.9943 H   0  0  0  0  0  0
  -30.3766  -23.2827   19.7246 H   0  0  0  0  0  0
  -26.2053  -20.4016   18.9359 H   0  0  0  0  0  0
  -27.2825  -19.1002   18.5032 H   0  0  0  0  0  0
  -27.7322  -20.7835   18.1547 H   0  0  0  0  0  0
  -24.5814  -21.3832   23.6422 H   0  0  0  0  0  0
  -23.6714  -22.0591   22.2789 H   0  0  0  0  0  0
  -23.3832  -22.6312   23.9296 H   0  0  0  0  0  0
  -29.8389  -25.3339   20.6230 H   0  0  0  0  0  0
  -28.8482  -26.0235   21.8455 H   0  0  0  0  0  0
  -27.1490  -19.6828   20.8827 H   0  0  0  0  0  0
  -28.8917  -15.2987   21.0904 H   0  0  0  0  0  0
  -29.6273  -19.8004   21.3003 H   0  0  0  0  0  0
  1 25  1  0  0  0
  1 30  2  0  0  0
  1 86  1  0  0  0
  2  3  1  0  0  0
  2 25  1  0  0  0
  2 89  1  0  0  0
  2 90  1  0  0  0
  3  4  1  0  0  0
  3 91  1  0  0  0
  3 92  1  0  0  0
  4  5  1  0  0  0
  4 93  1  0  0  0
  4 94  1  0  0  0
  5  6  1  0  0  0
  5 26  1  0  0  0
  5 95  1  0  0  0
  6 25  1  0  0  0
  6 96  1  0  0  0
  6 97  1  0  0  0
  7  8  2  0  0  0
  7 26  1  0  0  0
  7 29  1  0  0  0
  8  9  1  0  0  0
  8 22  1  0  0  0
  9 10  1  0  0  0
  9 27  2  0  0  0
 10 11  2  0  0  0
 10 15  1  0  0  0
 11 12  1  0  0  0
 11 98  1  0  0  0
 12 13  2  0  0  0
 12 99  1  0  0  0
 13 14  1  0  0  0
 13 31  1  0  0  0
 14 15  2  0  0  0
 14100  1  0  0  0
 15101  1  0  0  0
 16 17  2  0  0  0
 16 21  1  0  0  0
 16 31  1  0  0  0
 17 18  1  0  0  0
 17102  1  0  0  0
 18 19  2  0  0  0
 18103  1  0  0  0
 19 20  1  0  0  0
 19 24  1  0  0  0
 20 21  2  0  0  0
 20104  1  0  0  0
 21 23  1  0  0  0
 22 28  1  0  0  0
 22 32  2  0  0  0
 26 27  1  0  0  0
 28105  1  0  0  0
 28106  1  0  0  0
 29107  1  0  0  0
 29108  1  0  0  0
 33 34  1  0  0  0
 33 66  1  0  0  0
 33 70  2  0  0  0
 34 36  1  0  0  0
 34 59  1  0  0  0
 34109  1  0  0  0
 35 44  2  0  0  0
 35 45  1  0  0  0
 35 68  1  0  0  0
 36 56  1  0  0  0
 36110  1  0  0  0
 37 39  1  0  0  0
 37 47  1  0  0  0
 37 66  1  0  0  0
 37111  1  0  0  0
 38 43  2  0  0  0
 38 46  1  0  0  0
 38 47  1  0  0  0
 39 64  1  0  0  0
 39 67  2  0  0  0
 40 52  1  0  0  0
 40 53  2  0  0  0
 40 58  1  0  0  0
 41112  1  0  0  0
 41113  1  0  0  0
 41114  1  0  0  0
 41 48  1  0  0  0
 42 43  1  0  0  0
 42 66  1  0  0  0
 42115  1  0  0  0
 42116  1  0  0  0
 43 44  1  0  0  0
 44117  1  0  0  0
 45 46  2  0  0  0
 45118  1  0  0  0
 46119  1  0  0  0
 47120  1  0  0  0
 47121  1  0  0  0
 48 56  1  0  0  0
 48 65  1  0  0  0
 48122  1  0  0  0
 49 50  1  0  0  0
 49 53  1  0  0  0
 49 64  1  0  0  0
 49123  1  0  0  0
 50 51  1  0  0  0
 50124  1  0  0  0
 50125  1  0  0  0
 51 52  1  0  0  0
 51126  1  0  0  0
 51127  1  0  0  0
 52128  1  0  0  0
 52129  1  0  0  0
 53 54  1  0  0  0
 54 55  2  0  0  0
 54130  1  0  0  0
 55 57  1  0  0  0
 55131  1  0  0  0
 56 69  2  0  0  0
 57 58  2  0  0  0
 57132  1  0  0  0
 58133  1  0  0  0
 59 60  1  0  0  0
 59 61  1  0  0  0
 59 62  1  0  0  0
 60134  1  0  0  0
 60135  1  0  0  0
 60136  1  0  0  0
 61137  1  0  0  0
 61138  1  0  0  0
 61139  1  0  0  0
 62140  1  0  0  0
 62141  1  0  0  0
 62142  1  0  0  0
 63 65  1  0  0  0
 63143  1  0  0  0
 63144  1  0  0  0
 63145  1  0  0  0
 64146  1  0  0  0
 65147  1  0  0  0
 68 84  1  0  0  0
 71 73  2  0  0  0
 71 76  1  0  0  0
 71148  1  0  0  0
 72 74  1  0  0  0
 72 76  2  0  0  0
 72149  1  0  0  0
 73 75  1  0  0  0
 73 84  1  0  0  0
 74 75  2  0  0  0
 74 85  1  0  0  0
 75 81  1  0  0  0
 76 88  1  0  0  0
 77 78  1  0  0  0
 77 80  1  0  0  0
 77150  1  0  0  0
 77151  1  0  0  0
 78152  1  0  0  0
 78153  1  0  0  0
 78 87  1  0  0  0
 79 80  1  0  0  0
 79 87  1  0  0  0
 79154  1  0  0  0
 79155  1  0  0  0
 80 86  1  0  0  0
 80156  1  0  0  0
 81157  1  0  0  0
 81158  1  0  0  0
 81159  1  0  0  0
 82160  1  0  0  0
 82161  1  0  0  0
 82162  1  0  0  0
 82 85  1  0  0  0
 83 88  1  0  0  0
 83163  1  0  0  0
 83164  1  0  0  0
 83165  1  0  0  0
 84166  1  0  0  0
 84167  1  0  0  0
 85 87  1  0  0  0
 85168  1  0  0  0
 86169  1  0  0  0
 87170  1  0  0  0
M  CHG  1  87   1
M  ISO  4   1 100  68 101  84 101  86 100
M  END
> <chiral flag>
0

> <version>
0

> <s_m_source_file>
/data/baiqing/PycharmProjects/Reinvent-master-3.2/result/LINK_invent/BTK/process_docking_weight1_custom_sum_contain_oxygen_bond_distance_aromatic_linkinvent_7_9_3/rearranged_h_0148.sdf

> <i_m_source_file_index>
44

> <r_mmod_Potential_Energy-OPLS-2005>
15.3093757629395

> <r_mmod_Stretch_Energy-OPLS-2005>
76.4225769042969

> <r_mmod_Bend_Energy-OPLS-2005>
204.287124633789

> <r_mmod_Torsional_Energy-OPLS-2005>
308.775512695312

> <r_mmod_Improper_Torsional_Energy-OPLS-2005>
7.42174673080444

> <r_mmod_Van_der_Waal_Energy-OPLS-2005>
138.835861206055

> <r_mmod_Electrostatic_Energy-OPLS-2005>
-283.781158447266

> <r_mmod_Solvation_Energy-OPLS-2005>
-468.983093261719

> <b_mmod_Minimization_Converged-OPLS-2005>
0

> <r_mmod_RMS_Derivative-OPLS-2005>
8.43277931213379

$$$$
44
                    3D
 Structure written by MMmdl.
160169  0  0  1  0            999 V2000
  -30.6763  -14.4907   20.5666 C   0  0  0  0  0  0
  -30.4297  -12.3131   19.4247 C   0  0  0  0  0  0
  -29.4992  -12.5065   18.2081 C   0  0  0  0  0  0
  -28.0193  -12.3642   18.6180 C   0  0  0  0  0  0
  -27.6626  -13.2027   19.8745 C   0  0  2  0  0  0
  -28.7032  -12.9755   20.9950 C   0  0  0  0  0  0
  -25.2601  -13.8148   20.5674 C   0  0  0  0  0  0
  -24.1848  -13.0436   20.9183 C   0  0  0  0  0  0
  -24.6389  -11.6899   20.8730 C   0  0  0  0  0  0
  -23.9048  -10.4291   21.0398 C   0  0  0  0  0  0
  -24.3603   -9.4210   21.9176 C   0  0  0  0  0  0
  -23.6285   -8.2244   22.0747 C   0  0  0  0  0  0
  -22.4266   -8.0278   21.3540 C   0  0  0  0  0  0
  -21.9896   -9.0251   20.4648 C   0  0  0  0  0  0
  -22.7220  -10.2133   20.3054 C   0  0  0  0  0  0
  -21.6855   -6.0730   22.5279 C   0  0  0  0  0  0
  -21.4012   -6.5633   23.8211 C   0  0  0  0  0  0
  -21.3659   -5.6787   24.9174 C   0  0  0  0  0  0
  -21.6047   -4.3050   24.7226 C   0  0  0  0  0  0
  -21.8819   -3.8142   23.4349 C   0  0  0  0  0  0
  -21.9194   -4.6958   22.3404 C   0  0  0  0  0  0
  -22.7875  -13.5247   21.1845 C   0  0  0  0  0  0
  -22.1664   -4.2146   21.0982 F   0  0  0  0  0  0
  -21.5629   -3.4534   25.7739 F   0  0  0  0  0  0
  -30.0351  -13.2933   20.4489 N   0  0  0  0  0  0
  -26.3026  -12.9306   20.3346 N   0  0  0  0  0  0
  -25.9312  -11.6473   20.5743 N   0  0  0  0  0  0
  -22.0505  -12.8251   22.0402 N   0  0  0  0  0  0
  -25.4328  -15.1865   20.4066 N   0  0  0  0  0  0
  -31.8111  -14.6724   20.1097 O   0  0  0  0  0  0
  -21.6636   -6.8871   21.4239 O   0  0  0  0  0  0
  -22.3569  -14.5557   20.6695 O   0  0  0  0  0  0
  -24.6142  -31.8677   23.2096 C   0  0  0  0  0  0
  -25.9038  -32.4821   23.8393 C   0  0  1  0  0  0
  -27.2363  -27.4335   20.1040 C   0  0  0  0  0  0
  -25.5893  -33.8619   24.2328 N   0  0  0  0  0  0
  -23.4037  -30.4891   21.5494 C   0  0  2  0  0  0
  -24.8534  -28.9522   20.1166 C   0  0  0  0  0  0
  -22.7411  -29.4652   22.4987 C   0  0  0  0  0  0
  -18.0272  -28.1377   22.8490 C   0  0  0  0  0  0
  -24.1484  -36.7311   23.2638 C   0  0  0  0  0  0
  -25.9315  -30.8318   21.3646 C   0  0  0  0  0  0
  -26.0111  -29.4637   20.7177 C   0  0  0  0  0  0
  -27.2074  -28.7095   20.7136 C   0  0  0  0  0  0
  -26.0684  -26.9364   19.4939 C   0  0  0  0  0  0
  -24.8757  -27.6862   19.5036 C   0  0  0  0  0  0
  -23.6146  -29.8192   20.1646 C   0  0  0  0  0  0
  -25.4105  -36.3110   24.0340 C   0  0  1  0  0  0
  -20.5862  -28.3665   23.1319 C   0  0  2  0  0  0
  -20.6760  -26.9400   22.5426 C   0  0  0  0  0  0
  -19.5746  -26.6386   21.5214 C   0  0  0  0  0  0
  -18.1921  -26.7923   22.1621 C   0  0  0  0  0  0
  -19.1520  -28.8838   23.2903 C   0  0  0  0  0  0
  -18.9449  -30.1440   23.8917 C   0  0  0  0  0  0
  -17.6455  -30.6582   24.0569 C   0  0  0  0  0  0
  -25.9031  -34.9476   23.5132 C   0  0  0  0  0  0
  -16.5345  -29.9089   23.6321 C   0  0  0  0  0  0
  -16.7261  -28.6504   23.0343 C   0  0  0  0  0  0
  -26.4471  -31.6596   25.0719 C   0  0  0  0  0  0
  -25.3747  -31.3724   26.1483 C   0  0  0  0  0  0
  -27.0277  -30.3027   24.6093 C   0  0  0  0  0  0
  -27.6068  -32.4300   25.7462 C   0  0  0  0  0  0
  -27.5580  -37.1806   24.8464 C   0  0  0  0  0  0
  -21.4139  -29.3029   22.3722 N   0  0  0  0  0  0
  -26.4290  -37.3793   23.9411 N   0  0  0  0  0  0
  -24.6679  -31.0774   22.1000 N   0  0  0  0  0  0
  -23.4177  -28.8197   23.3036 O   0  0  0  0  0  0
  -28.3807  -26.6688   20.0753 O   0  0  0  0  0  0
  -26.5594  -34.8927   22.4694 O   0  0  0  0  0  0
  -23.5334  -32.1434   23.7484 O   0  0  0  0  0  0
  -28.8022  -19.0150   21.1952 C   0  0  0  0  0  0
  -28.8330  -17.6083   21.3049 C   0  0  0  0  0  0
  -29.9600  -19.7078   20.7706 C   0  0  0  0  0  0
  -31.0953  -18.9136   20.4814 C   0  0  0  0  0  0
  -30.0062  -16.8910   20.9878 C   0  0  0  0  0  0
  -32.4734  -20.4486   18.8555 C   0  0  0  0  0  0
  -33.0858  -19.0753   18.7754 C   0  0  0  0  0  0
  -32.3992  -19.5200   20.0501 C   0  0  0  0  0  0
  -28.1804  -24.4078   21.1574 C   0  0  0  0  0  0
  -29.2973  -23.4090   20.7526 C   0  0  0  0  0  0
  -28.6143  -25.8973   21.2621 C   0  0  0  0  0  0
  -28.9186  -21.9142   20.9301 C   0  0  0  0  0  0
  -31.1145  -17.5621   20.5967 N   0  0  0  0  0  0
  -29.9207  -15.4706   21.1111 N   0  0  0  0  0  0
  -30.0498  -21.0868   20.6308 O   0  0  0  0  0  0
  -31.4734  -12.4195   19.1234 H   0  0  0  0  0  0
  -30.3374  -11.3006   19.8204 H   0  0  0  0  0  0
  -29.7423  -11.7815   17.4303 H   0  0  0  0  0  0
  -29.6660  -13.4918   17.7692 H   0  0  0  0  0  0
  -27.8312  -11.3078   18.8133 H   0  0  0  0  0  0
  -27.3703  -12.6385   17.7853 H   0  0  0  0  0  0
  -27.7079  -14.2510   19.5785 H   0  0  0  0  0  0
  -28.6834  -11.9345   21.3218 H   0  0  0  0  0  0
  -28.4581  -13.5576   21.8844 H   0  0  0  0  0  0
  -25.2748   -9.5692   22.4748 H   0  0  0  0  0  0
  -24.0002   -7.4635   22.7462 H   0  0  0  0  0  0
  -21.0828   -8.8769   19.8956 H   0  0  0  0  0  0
  -22.3674  -10.9670   19.6164 H   0  0  0  0  0  0
  -21.1997   -7.6139   23.9712 H   0  0  0  0  0  0
  -21.1482   -6.0517   25.9077 H   0  0  0  0  0  0
  -22.0599   -2.7605   23.2850 H   0  0  0  0  0  0
  -22.4107  -11.9911   22.4803 H   0  0  0  0  0  0
  -21.1123  -13.1286   22.2596 H   0  0  0  0  0  0
  -24.6591  -15.8357   20.4985 H   0  0  0  0  0  0
  -26.2714  -15.6207   20.0427 H   0  0  0  0  0  0
  -26.7109  -32.5543   23.1160 H   0  0  0  0  0  0
  -25.0054  -33.9785   25.0480 H   0  0  0  0  0  0
  -22.6921  -31.3053   21.4086 H   0  0  0  0  0  0
  -23.3748  -35.9641   23.3304 H   0  0  0  0  0  0
  -24.3583  -36.8920   22.2052 H   0  0  0  0  0  0
  -23.7233  -37.6515   23.6651 H   0  0  0  0  0  0
  -26.0424  -31.5952   20.5931 H   0  0  0  0  0  0
  -26.8196  -30.8891   21.9817 H   0  0  0  0  0  0
  -28.1032  -29.1003   21.1763 H   0  0  0  0  0  0
  -26.0828  -25.9659   19.0178 H   0  0  0  0  0  0
  -23.9863  -27.2862   19.0366 H   0  0  0  0  0  0
  -23.7229  -30.5934   19.4039 H   0  0  0  0  0  0
  -22.7393  -29.2379   19.8690 H   0  0  0  0  0  0
  -25.1280  -36.1975   25.0832 H   0  0  0  0  0  0
  -20.9959  -28.3235   24.1439 H   0  0  0  0  0  0
  -20.5658  -26.2272   23.3614 H   0  0  0  0  0  0
  -21.6632  -26.7441   22.1224 H   0  0  0  0  0  0
  -19.6910  -25.6302   21.1230 H   0  0  0  0  0  0
  -19.6688  -27.3207   20.6752 H   0  0  0  0  0  0
  -17.4197  -26.6676   21.4017 H   0  0  0  0  0  0
  -18.0320  -26.0061   22.9013 H   0  0  0  0  0  0
  -19.7930  -30.7244   24.2300 H   0  0  0  0  0  0
  -17.5014  -31.6261   24.5176 H   0  0  0  0  0  0
  -15.5347  -30.2998   23.7636 H   0  0  0  0  0  0
  -15.8661  -28.0830   22.7048 H   0  0  0  0  0  0
  -24.5879  -30.7116   25.7828 H   0  0  0  0  0  0
  -24.8991  -32.2897   26.4969 H   0  0  0  0  0  0
  -25.8099  -30.8854   27.0218 H   0  0  0  0  0  0
  -26.2801  -29.6799   24.1164 H   0  0  0  0  0  0
  -27.4051  -29.7259   25.4547 H   0  0  0  0  0  0
  -27.8645  -30.4328   23.9226 H   0  0  0  0  0  0
  -27.2715  -33.3601   26.2063 H   0  0  0  0  0  0
  -28.3858  -32.6851   25.0265 H   0  0  0  0  0  0
  -28.0755  -31.8403   26.5352 H   0  0  0  0  0  0
  -28.2615  -38.0086   24.7498 H   0  0  0  0  0  0
  -28.1055  -36.2620   24.6294 H   0  0  0  0  0  0
  -27.2303  -37.1474   25.8869 H   0  0  0  0  0  0
  -20.9304  -29.8737   21.6929 H   0  0  0  0  0  0
  -26.0182  -38.2872   24.1413 H   0  0  0  0  0  0
  -27.8891  -19.5374   21.4392 H   0  0  0  0  0  0
  -27.9384  -17.0932   21.6264 H   0  0  0  0  0  0
  -31.5584  -20.6238   18.2934 H   0  0  0  0  0  0
  -33.1574  -21.2929   18.9133 H   0  0  0  0  0  0
  -34.1720  -19.0167   18.7818 H   0  0  0  0  0  0
  -32.5790  -18.3345   18.1597 H   0  0  0  0  0  0
  -33.0217  -19.7573   20.9106 H   0  0  0  0  0  0
  -27.8239  -24.1086   22.1440 H   0  0  0  0  0  0
  -27.3184  -24.3086   20.4971 H   0  0  0  0  0  0
  -30.1815  -23.6062   21.3605 H   0  0  0  0  0  0
  -29.5931  -23.5930   19.7192 H   0  0  0  0  0  0
  -29.6743  -25.9599   21.5087 H   0  0  0  0  0  0
  -28.1003  -26.3542   22.1106 H   0  0  0  0  0  0
  -28.0843  -21.6610   20.2742 H   0  0  0  0  0  0
  -28.5994  -21.7401   21.9590 H   0  0  0  0  0  0
  -29.0478  -15.1335   21.4815 H   0  0  0  0  0  0
  1 25  1  0  0  0
  1 30  2  0  0  0
  1 84  1  0  0  0
  2  3  1  0  0  0
  2 25  1  0  0  0
  2 86  1  0  0  0
  2 87  1  0  0  0
  3  4  1  0  0  0
  3 88  1  0  0  0
  3 89  1  0  0  0
  4  5  1  0  0  0
  4 90  1  0  0  0
  4 91  1  0  0  0
  5  6  1  0  0  0
  5 26  1  0  0  0
  5 92  1  0  0  0
  6 25  1  0  0  0
  6 93  1  0  0  0
  6 94  1  0  0  0
  7  8  2  0  0  0
  7 26  1  0  0  0
  7 29  1  0  0  0
  8  9  1  0  0  0
  8 22  1  0  0  0
  9 10  1  0  0  0
  9 27  2  0  0  0
 10 11  2  0  0  0
 10 15  1  0  0  0
 11 12  1  0  0  0
 11 95  1  0  0  0
 12 13  2  0  0  0
 12 96  1  0  0  0
 13 14  1  0  0  0
 13 31  1  0  0  0
 14 15  2  0  0  0
 14 97  1  0  0  0
 15 98  1  0  0  0
 16 17  2  0  0  0
 16 21  1  0  0  0
 16 31  1  0  0  0
 17 18  1  0  0  0
 17 99  1  0  0  0
 18 19  2  0  0  0
 18100  1  0  0  0
 19 20  1  0  0  0
 19 24  1  0  0  0
 20 21  2  0  0  0
 20101  1  0  0  0
 21 23  1  0  0  0
 22 28  1  0  0  0
 22 32  2  0  0  0
 26 27  1  0  0  0
 28102  1  0  0  0
 28103  1  0  0  0
 29104  1  0  0  0
 29105  1  0  0  0
 33 34  1  0  0  0
 33 66  1  0  0  0
 33 70  2  0  0  0
 34 36  1  0  0  0
 34 59  1  0  0  0
 34106  1  0  0  0
 35 44  2  0  0  0
 35 45  1  0  0  0
 35 68  1  0  0  0
 36 56  1  0  0  0
 36107  1  0  0  0
 37 39  1  0  0  0
 37 47  1  0  0  0
 37 66  1  0  0  0
 37108  1  0  0  0
 38 43  2  0  0  0
 38 46  1  0  0  0
 38 47  1  0  0  0
 39 64  1  0  0  0
 39 67  2  0  0  0
 40 52  1  0  0  0
 40 53  2  0  0  0
 40 58  1  0  0  0
 41109  1  0  0  0
 41110  1  0  0  0
 41111  1  0  0  0
 41 48  1  0  0  0
 42 43  1  0  0  0
 42 66  1  0  0  0
 42112  1  0  0  0
 42113  1  0  0  0
 43 44  1  0  0  0
 44114  1  0  0  0
 45 46  2  0  0  0
 45115  1  0  0  0
 46116  1  0  0  0
 47117  1  0  0  0
 47118  1  0  0  0
 48 56  1  0  0  0
 48 65  1  0  0  0
 48119  1  0  0  0
 49 50  1  0  0  0
 49 53  1  0  0  0
 49 64  1  0  0  0
 49120  1  0  0  0
 50 51  1  0  0  0
 50121  1  0  0  0
 50122  1  0  0  0
 51 52  1  0  0  0
 51123  1  0  0  0
 51124  1  0  0  0
 52125  1  0  0  0
 52126  1  0  0  0
 53 54  1  0  0  0
 54 55  2  0  0  0
 54127  1  0  0  0
 55 57  1  0  0  0
 55128  1  0  0  0
 56 69  2  0  0  0
 57 58  2  0  0  0
 57129  1  0  0  0
 58130  1  0  0  0
 59 60  1  0  0  0
 59 61  1  0  0  0
 59 62  1  0  0  0
 60131  1  0  0  0
 60132  1  0  0  0
 60133  1  0  0  0
 61134  1  0  0  0
 61135  1  0  0  0
 61136  1  0  0  0
 62137  1  0  0  0
 62138  1  0  0  0
 62139  1  0  0  0
 63 65  1  0  0  0
 63140  1  0  0  0
 63141  1  0  0  0
 63142  1  0  0  0
 64143  1  0  0  0
 65144  1  0  0  0
 68 81  1  0  0  0
 71 72  2  0  0  0
 71 73  1  0  0  0
 71145  1  0  0  0
 72 75  1  0  0  0
 72146  1  0  0  0
 73 74  2  0  0  0
 73 85  1  0  0  0
 74 83  1  0  0  0
 74 78  1  0  0  0
 75 83  2  0  0  0
 75 84  1  0  0  0
 76 77  1  0  0  0
 76 78  1  0  0  0
 76147  1  0  0  0
 76148  1  0  0  0
 77 78  1  0  0  0
 77149  1  0  0  0
 77150  1  0  0  0
 78151  1  0  0  0
 79 80  1  0  0  0
 79 81  1  0  0  0
 79152  1  0  0  0
 79153  1  0  0  0
 80 82  1  0  0  0
 80154  1  0  0  0
 80155  1  0  0  0
 81156  1  0  0  0
 81157  1  0  0  0
 82 85  1  0  0  0
 82158  1  0  0  0
 82159  1  0  0  0
 84160  1  0  0  0
M  ISO  4   1 100  68 101  81 101  84 100
M  END
> <chiral flag>
0

> <version>
0

> <s_m_source_file>
/data/baiqing/PycharmProjects/Reinvent-master-3.2/result/LINK_invent/BTK/process_docking_weight1_custom_sum_contain_oxygen_bond_distance_aromatic_linkinvent_7_9_3/rearranged_h_0148.sdf

> <i_m_source_file_index>
45

> <r_mmod_Potential_Energy-OPLS-2005>
-149.18244934082

> <r_mmod_Stretch_Energy-OPLS-2005>
38.693603515625

> <r_mmod_Bend_Energy-OPLS-2005>
107.131286621094

> <r_mmod_Torsional_Energy-OPLS-2005>
254.831237792969

> <r_mmod_Improper_Torsional_Energy-OPLS-2005>
3.73155641555786

> <r_mmod_Van_der_Waal_Energy-OPLS-2005>
146.742828369141

> <r_mmod_Electrostatic_Energy-OPLS-2005>
-481.099639892578

> <r_mmod_Solvation_Energy-OPLS-2005>
-232.475814819336

> <b_mmod_Minimization_Converged-OPLS-2005>
0

> <r_mmod_RMS_Derivative-OPLS-2005>
0.655208349227905

$$$$
45
                    3D
 Structure written by MMmdl.
169177  0  0  1  0            999 V2000
  -30.5973  -14.7864   20.4008 C   0  0  0  0  0  0
  -30.4319  -12.4774   19.4802 C   0  0  0  0  0  0
  -29.5063  -12.5043   18.2445 C   0  0  0  0  0  0
  -28.0339  -12.3261   18.6528 C   0  0  0  0  0  0
  -27.6396  -13.2340   19.8449 C   0  0  2  0  0  0
  -28.6873  -13.2056   20.9826 C   0  0  0  0  0  0
  -25.2568  -13.8207   20.5758 C   0  0  0  0  0  0
  -24.1830  -13.0473   20.9276 C   0  0  0  0  0  0
  -24.6397  -11.6943   20.8781 C   0  0  0  0  0  0
  -23.9054  -10.4327   21.0372 C   0  0  0  0  0  0
  -24.3612   -9.4231   21.9134 C   0  0  0  0  0  0
  -23.6320   -8.2248   22.0683 C   0  0  0  0  0  0
  -22.4309   -8.0280   21.3467 C   0  0  0  0  0  0
  -21.9958   -9.0245   20.4585 C   0  0  0  0  0  0
  -22.7258  -10.2145   20.2984 C   0  0  0  0  0  0
  -21.6895   -6.0740   22.5251 C   0  0  0  0  0  0
  -21.4047   -6.5639   23.8185 C   0  0  0  0  0  0
  -21.3652   -5.6773   24.9148 C   0  0  0  0  0  0
  -21.6050   -4.3033   24.7198 C   0  0  0  0  0  0
  -21.8821   -3.8143   23.4312 C   0  0  0  0  0  0
  -21.9229   -4.6972   22.3374 C   0  0  0  0  0  0
  -22.7859  -13.5264   21.1862 C   0  0  0  0  0  0
  -22.1678   -4.2146   21.0956 F   0  0  0  0  0  0
  -21.5596   -3.4510   25.7694 F   0  0  0  0  0  0
  -29.9884  -13.5511   20.3949 N   0  0  0  0  0  0
  -26.2949  -12.9415   20.3264 N   0  0  0  0  0  0
  -25.9329  -11.6568   20.5827 N   0  0  0  0  0  0
  -22.0454  -12.8219   22.0407 N   0  0  0  0  0  0
  -25.4434  -15.1951   20.4196 N   0  0  0  0  0  0
  -31.7859  -14.8857   20.0901 O   0  0  0  0  0  0
  -21.6659   -6.8886   21.4214 O   0  0  0  0  0  0
  -22.3562  -14.5574   20.6733 O   0  0  0  0  0  0
  -24.6368  -31.8496   23.1887 C   0  0  0  0  0  0
  -25.9155  -32.4723   23.8272 C   0  0  1  0  0  0
  -27.2622  -27.2106   20.1489 C   0  0  0  0  0  0
  -25.5908  -33.8521   24.2209 N   0  0  0  0  0  0
  -23.4368  -30.4631   21.5330 C   0  0  2  0  0  0
  -24.8937  -28.8783   20.1297 C   0  0  0  0  0  0
  -22.7533  -29.4570   22.4913 C   0  0  0  0  0  0
  -18.0312  -28.1367   22.8542 C   0  0  0  0  0  0
  -24.1490  -36.7258   23.2642 C   0  0  0  0  0  0
  -25.9856  -30.7422   21.3769 C   0  0  0  0  0  0
  -26.0650  -29.3536   20.7343 C   0  0  0  0  0  0
  -27.2473  -28.5316   20.7335 C   0  0  0  0  0  0
  -26.0563  -26.7987   19.5421 C   0  0  0  0  0  0
  -24.8926  -27.6074   19.5322 C   0  0  0  0  0  0
  -23.6630  -29.7707   20.1586 C   0  0  0  0  0  0
  -25.4110  -36.3045   24.0334 C   0  0  1  0  0  0
  -20.5922  -28.3656   23.1284 C   0  0  2  0  0  0
  -20.6797  -26.9362   22.5421 C   0  0  0  0  0  0
  -19.5754  -26.6372   21.5235 C   0  0  0  0  0  0
  -18.1941  -26.7921   22.1645 C   0  0  0  0  0  0
  -19.1575  -28.8824   23.2905 C   0  0  0  0  0  0
  -18.9475  -30.1439   23.8892 C   0  0  0  0  0  0
  -17.6471  -30.6563   24.0548 C   0  0  0  0  0  0
  -25.9056  -34.9414   23.5075 C   0  0  0  0  0  0
  -16.5362  -29.9052   23.6347 C   0  0  0  0  0  0
  -16.7300  -28.6457   23.0400 C   0  0  0  0  0  0
  -26.4529  -31.6575   25.0688 C   0  0  0  0  0  0
  -25.3726  -31.3758   26.1384 C   0  0  0  0  0  0
  -27.0371  -30.2978   24.6222 C   0  0  0  0  0  0
  -27.6077  -32.4316   25.7470 C   0  0  0  0  0  0
  -27.5580  -37.1783   24.8464 C   0  0  0  0  0  0
  -21.4224  -29.3014   22.3665 N   0  0  0  0  0  0
  -26.4295  -37.3749   23.9417 N   0  0  0  0  0  0
  -24.7044  -31.0404   22.0889 N   0  0  0  0  0  0
  -23.4216  -28.8140   23.3041 O   0  0  0  0  0  0
  -28.4052  -26.3484   20.1010 O   0  0  0  0  0  0
  -26.5631  -34.8916   22.4653 O   0  0  0  0  0  0
  -23.5481  -32.1328   23.7182 O   0  0  0  0  0  0
  -31.2459  -23.3317   20.8400 C   0  0  0  0  0  0
  -30.1464  -22.5974   20.3408 C   0  0  0  0  0  0
  -32.4918  -22.7186   21.1048 C   0  0  0  0  0  0
  -32.6349  -21.3467   20.8177 C   0  0  0  0  0  0
  -30.3473  -21.1221   20.2858 C   0  0  0  0  0  0
  -27.9026  -22.7040   19.1310 C   0  0  0  0  0  0
  -34.5847  -20.6063   19.3650 C   0  0  0  0  0  0
  -33.9358  -19.1837   21.3122 C   0  0  0  0  0  0
  -33.2106  -23.8209   22.9984 C   0  0  0  0  0  0
  -29.9708  -17.3156   19.8553 C   0  0  0  0  0  0
  -29.6173  -18.6808   20.6672 C   0  0  0  0  0  0
  -28.3767  -24.8865   20.5521 C   0  0  0  0  0  0
  -28.9991  -23.5622   19.7551 C   0  0  1  0  0  0
  -33.9971  -20.6337   20.7907 C   0  0  0  0  0  0
  -31.5805  -20.6004   20.4543 N   0  0  0  0  0  0
  -29.7946  -15.9157   20.4865 N   0  0  0  0  0  0
  -33.5150  -23.4347   21.6585 O   0  0  0  0  0  0
  -29.4340  -20.0592   20.0377 O   0  0  0  0  0  0
  -31.4680  -12.6135   19.1677 H   0  0  0  0  0  0
  -30.3900  -11.5123   19.9797 H   0  0  0  0  0  0
  -29.8016  -11.7240   17.5411 H   0  0  0  0  0  0
  -29.6206  -13.4525   17.7235 H   0  0  0  0  0  0
  -27.8924  -11.2836   18.9229 H   0  0  0  0  0  0
  -27.3787  -12.5012   17.8026 H   0  0  0  0  0  0
  -27.6212  -14.2475   19.4453 H   0  0  0  0  0  0
  -28.7282  -12.2292   21.4638 H   0  0  0  0  0  0
  -28.4184  -13.9218   21.7626 H   0  0  0  0  0  0
  -25.2703   -9.5776   22.4764 H   0  0  0  0  0  0
  -24.0032   -7.4680   22.7402 H   0  0  0  0  0  0
  -21.0862   -8.8780   19.8935 H   0  0  0  0  0  0
  -22.3655  -10.9684   19.6123 H   0  0  0  0  0  0
  -21.2037   -7.6144   23.9705 H   0  0  0  0  0  0
  -21.1471   -6.0476   25.9048 H   0  0  0  0  0  0
  -22.0631   -2.7613   23.2782 H   0  0  0  0  0  0
  -22.4104  -11.9914   22.4814 H   0  0  0  0  0  0
  -21.1039  -13.1211   22.2485 H   0  0  0  0  0  0
  -24.6984  -15.8740   20.5303 H   0  0  0  0  0  0
  -26.3015  -15.6063   20.0751 H   0  0  0  0  0  0
  -26.7208  -32.5396   23.1003 H   0  0  0  0  0  0
  -25.0056  -33.9641   25.0348 H   0  0  0  0  0  0
  -22.7348  -31.2855   21.3722 H   0  0  0  0  0  0
  -23.3760  -35.9589   23.3301 H   0  0  0  0  0  0
  -24.3571  -36.8868   22.2051 H   0  0  0  0  0  0
  -23.7225  -37.6460   23.6655 H   0  0  0  0  0  0
  -26.1198  -31.4948   20.5981 H   0  0  0  0  0  0
  -26.8604  -30.8099   22.0115 H   0  0  0  0  0  0
  -28.1413  -28.8953   21.2222 H   0  0  0  0  0  0
  -26.0068  -25.8283   19.0680 H   0  0  0  0  0  0
  -23.9933  -27.2290   19.0683 H   0  0  0  0  0  0
  -23.7854  -30.5313   19.3876 H   0  0  0  0  0  0
  -22.7843  -29.1977   19.8583 H   0  0  0  0  0  0
  -25.1309  -36.1893   25.0834 H   0  0  0  0  0  0
  -21.0053  -28.3209   24.1389 H   0  0  0  0  0  0
  -20.5705  -26.2242   23.3618 H   0  0  0  0  0  0
  -21.6653  -26.7391   22.1175 H   0  0  0  0  0  0
  -19.6874  -25.6291   21.1229 H   0  0  0  0  0  0
  -19.6672  -27.3222   20.6781 H   0  0  0  0  0  0
  -17.4230  -26.6737   21.4026 H   0  0  0  0  0  0
  -18.0268  -26.0036   22.8988 H   0  0  0  0  0  0
  -19.7940  -30.7284   24.2242 H   0  0  0  0  0  0
  -17.5004  -31.6255   24.5123 H   0  0  0  0  0  0
  -15.5352  -30.2930   23.7645 H   0  0  0  0  0  0
  -15.8719  -28.0737   22.7132 H   0  0  0  0  0  0
  -24.5885  -30.7147   25.7691 H   0  0  0  0  0  0
  -24.8956  -32.2953   26.4794 H   0  0  0  0  0  0
  -25.8021  -30.8920   27.0163 H   0  0  0  0  0  0
  -26.2951  -29.6713   24.1266 H   0  0  0  0  0  0
  -27.4025  -29.7286   25.4778 H   0  0  0  0  0  0
  -27.8863  -30.4224   23.9490 H   0  0  0  0  0  0
  -27.2693  -33.3645   26.2001 H   0  0  0  0  0  0
  -28.3939  -32.6812   25.0329 H   0  0  0  0  0  0
  -28.0689  -31.8447   26.5426 H   0  0  0  0  0  0
  -28.2613  -38.0073   24.7517 H   0  0  0  0  0  0
  -28.1066  -36.2599   24.6302 H   0  0  0  0  0  0
  -27.2294  -37.1437   25.8869 H   0  0  0  0  0  0
  -20.9407  -29.8684   21.6832 H   0  0  0  0  0  0
  -26.0170  -38.2846   24.1393 H   0  0  0  0  0  0
  -31.1556  -24.4019   20.9604 H   0  0  0  0  0  0
  -28.3022  -22.0998   18.3141 H   0  0  0  0  0  0
  -27.0915  -23.3213   18.7409 H   0  0  0  0  0  0
  -27.4999  -22.0237   19.8750 H   0  0  0  0  0  0
  -34.6862  -21.6072   18.9392 H   0  0  0  0  0  0
  -33.9370  -20.0274   18.7095 H   0  0  0  0  0  0
  -35.5696  -20.1342   19.3453 H   0  0  0  0  0  0
  -33.5820  -19.1252   22.3416 H   0  0  0  0  0  0
  -34.9211  -18.7137   21.2798 H   0  0  0  0  0  0
  -33.2792  -18.5782   20.6833 H   0  0  0  0  0  0
  -34.1218  -23.8518   23.5969 H   0  0  0  0  0  0
  -32.5323  -23.1122   23.4877 H   0  0  0  0  0  0
  -32.7338  -24.8024   23.0450 H   0  0  0  0  0  0
  -30.9687  -17.3863   19.4237 H   0  0  0  0  0  0
  -29.3026  -17.3151   18.9952 H   0  0  0  0  0  0
  -30.2858  -18.7470   21.5270 H   0  0  0  0  0  0
  -28.6501  -18.4828   21.1254 H   0  0  0  0  0  0
  -28.8310  -24.8867   21.5423 H   0  0  0  0  0  0
  -27.3345  -24.6542   20.7586 H   0  0  0  0  0  0
  -29.5263  -24.0119   18.9131 H   0  0  0  0  0  0
  -34.6863  -21.1772   21.4413 H   0  0  0  0  0  0
  -28.8503  -15.7026   20.7721 H   0  0  0  0  0  0
  1 25  1  0  0  0
  1 30  2  0  0  0
  1 86  1  0  0  0
  2  3  1  0  0  0
  2 25  1  0  0  0
  2 89  1  0  0  0
  2 90  1  0  0  0
  3  4  1  0  0  0
  3 91  1  0  0  0
  3 92  1  0  0  0
  4  5  1  0  0  0
  4 93  1  0  0  0
  4 94  1  0  0  0
  5  6  1  0  0  0
  5 26  1  0  0  0
  5 95  1  0  0  0
  6 25  1  0  0  0
  6 96  1  0  0  0
  6 97  1  0  0  0
  7  8  2  0  0  0
  7 26  1  0  0  0
  7 29  1  0  0  0
  8  9  1  0  0  0
  8 22  1  0  0  0
  9 10  1  0  0  0
  9 27  2  0  0  0
 10 11  2  0  0  0
 10 15  1  0  0  0
 11 12  1  0  0  0
 11 98  1  0  0  0
 12 13  2  0  0  0
 12 99  1  0  0  0
 13 14  1  0  0  0
 13 31  1  0  0  0
 14 15  2  0  0  0
 14100  1  0  0  0
 15101  1  0  0  0
 16 17  2  0  0  0
 16 21  1  0  0  0
 16 31  1  0  0  0
 17 18  1  0  0  0
 17102  1  0  0  0
 18 19  2  0  0  0
 18103  1  0  0  0
 19 20  1  0  0  0
 19 24  1  0  0  0
 20 21  2  0  0  0
 20104  1  0  0  0
 21 23  1  0  0  0
 22 28  1  0  0  0
 22 32  2  0  0  0
 26 27  1  0  0  0
 28105  1  0  0  0
 28106  1  0  0  0
 29107  1  0  0  0
 29108  1  0  0  0
 33 34  1  0  0  0
 33 66  1  0  0  0
 33 70  2  0  0  0
 34 36  1  0  0  0
 34 59  1  0  0  0
 34109  1  0  0  0
 35 44  2  0  0  0
 35 45  1  0  0  0
 35 68  1  0  0  0
 36 56  1  0  0  0
 36110  1  0  0  0
 37 39  1  0  0  0
 37 47  1  0  0  0
 37 66  1  0  0  0
 37111  1  0  0  0
 38 43  2  0  0  0
 38 46  1  0  0  0
 38 47  1  0  0  0
 39 64  1  0  0  0
 39 67  2  0  0  0
 40 52  1  0  0  0
 40 53  2  0  0  0
 40 58  1  0  0  0
 41112  1  0  0  0
 41113  1  0  0  0
 41114  1  0  0  0
 41 48  1  0  0  0
 42 43  1  0  0  0
 42 66  1  0  0  0
 42115  1  0  0  0
 42116  1  0  0  0
 43 44  1  0  0  0
 44117  1  0  0  0
 45 46  2  0  0  0
 45118  1  0  0  0
 46119  1  0  0  0
 47120  1  0  0  0
 47121  1  0  0  0
 48 56  1  0  0  0
 48 65  1  0  0  0
 48122  1  0  0  0
 49 50  1  0  0  0
 49 53  1  0  0  0
 49 64  1  0  0  0
 49123  1  0  0  0
 50 51  1  0  0  0
 50124  1  0  0  0
 50125  1  0  0  0
 51 52  1  0  0  0
 51126  1  0  0  0
 51127  1  0  0  0
 52128  1  0  0  0
 52129  1  0  0  0
 53 54  1  0  0  0
 54 55  2  0  0  0
 54130  1  0  0  0
 55 57  1  0  0  0
 55131  1  0  0  0
 56 69  2  0  0  0
 57 58  2  0  0  0
 57132  1  0  0  0
 58133  1  0  0  0
 59 60  1  0  0  0
 59 61  1  0  0  0
 59 62  1  0  0  0
 60134  1  0  0  0
 60135  1  0  0  0
 60136  1  0  0  0
 61137  1  0  0  0
 61138  1  0  0  0
 61139  1  0  0  0
 62140  1  0  0  0
 62141  1  0  0  0
 62142  1  0  0  0
 63 65  1  0  0  0
 63143  1  0  0  0
 63144  1  0  0  0
 63145  1  0  0  0
 64146  1  0  0  0
 65147  1  0  0  0
 68 82  1  0  0  0
 71 72  2  0  0  0
 71 73  1  0  0  0
 71148  1  0  0  0
 72 75  1  0  0  0
 72 83  1  0  0  0
 73 74  2  0  0  0
 73 87  1  0  0  0
 74 84  1  0  0  0
 74 85  1  0  0  0
 75 85  2  0  0  0
 75 88  1  0  0  0
 76149  1  0  0  0
 76150  1  0  0  0
 76151  1  0  0  0
 76 83  1  0  0  0
 77152  1  0  0  0
 77153  1  0  0  0
 77154  1  0  0  0
 77 84  1  0  0  0
 78 84  1  0  0  0
 78155  1  0  0  0
 78156  1  0  0  0
 78157  1  0  0  0
 79 87  1  0  0  0
 79158  1  0  0  0
 79159  1  0  0  0
 79160  1  0  0  0
 80 81  1  0  0  0
 80 86  1  0  0  0
 80161  1  0  0  0
 80162  1  0  0  0
 81 88  1  0  0  0
 81163  1  0  0  0
 81164  1  0  0  0
 82 83  1  0  0  0
 82165  1  0  0  0
 82166  1  0  0  0
 83167  1  0  0  0
 84168  1  0  0  0
 86169  1  0  0  0
M  ISO  4   1 100  68 101  82 101  86 100
M  END
> <chiral flag>
0

> <version>
0

> <s_m_source_file>
/data/baiqing/PycharmProjects/Reinvent-master-3.2/result/LINK_invent/BTK/process_docking_weight1_custom_sum_contain_oxygen_bond_distance_aromatic_linkinvent_7_9_3/rearranged_h_0148.sdf

> <i_m_source_file_index>
46

> <r_mmod_Potential_Energy-OPLS-2005>
168.681564331055

> <r_mmod_Stretch_Energy-OPLS-2005>
177.838607788086

> <r_mmod_Bend_Energy-OPLS-2005>
253.21012878418

> <r_mmod_Torsional_Energy-OPLS-2005>
283.890472412109

> <r_mmod_Improper_Torsional_Energy-OPLS-2005>
8.90208911895752

> <r_mmod_Van_der_Waal_Energy-OPLS-2005>
140.684112548828

> <r_mmod_Electrostatic_Energy-OPLS-2005>
-585.779113769531

> <r_mmod_Solvation_Energy-OPLS-2005>
-217.347747802734

> <b_mmod_Minimization_Converged-OPLS-2005>
0

> <r_mmod_RMS_Derivative-OPLS-2005>
8.13210105895996

$$$$
46
                    3D
 Structure written by MMmdl.
162172  0  0  1  0            999 V2000
  -30.6090  -14.7544   20.4709 C   0  0  0  0  0  0
  -30.4197  -12.4615   19.4723 C   0  0  0  0  0  0
  -29.5004  -12.5137   18.2339 C   0  0  0  0  0  0
  -28.0309  -12.3264   18.6511 C   0  0  0  0  0  0
  -27.6377  -13.2331   19.8461 C   0  0  2  0  0  0
  -28.6767  -13.1818   20.9853 C   0  0  0  0  0  0
  -25.2528  -13.8193   20.5738 C   0  0  0  0  0  0
  -24.1822  -13.0429   20.9202 C   0  0  0  0  0  0
  -24.6408  -11.6918   20.8719 C   0  0  0  0  0  0
  -23.9057  -10.4307   21.0380 C   0  0  0  0  0  0
  -24.3612   -9.4218   21.9141 C   0  0  0  0  0  0
  -23.6287   -8.2267   22.0732 C   0  0  0  0  0  0
  -22.4262   -8.0293   21.3528 C   0  0  0  0  0  0
  -21.9890   -9.0257   20.4622 C   0  0  0  0  0  0
  -22.7227  -10.2130   20.3012 C   0  0  0  0  0  0
  -21.6874   -6.0721   22.5271 C   0  0  0  0  0  0
  -21.4037   -6.5633   23.8203 C   0  0  0  0  0  0
  -21.3654   -5.6777   24.9150 C   0  0  0  0  0  0
  -21.6052   -4.3041   24.7232 C   0  0  0  0  0  0
  -21.8825   -3.8119   23.4352 C   0  0  0  0  0  0
  -21.9211   -4.6945   22.3408 C   0  0  0  0  0  0
  -22.7852  -13.5182   21.1874 C   0  0  0  0  0  0
  -22.1669   -4.2109   21.0983 F   0  0  0  0  0  0
  -21.5641   -3.4534   25.7751 F   0  0  0  0  0  0
  -29.9777  -13.5280   20.4050 N   0  0  0  0  0  0
  -26.2928  -12.9390   20.3255 N   0  0  0  0  0  0
  -25.9330  -11.6536   20.5697 N   0  0  0  0  0  0
  -22.0540  -12.8144   22.0435 N   0  0  0  0  0  0
  -25.4253  -15.1926   20.4282 N   0  0  0  0  0  0
  -31.7931  -14.8446   20.1383 O   0  0  0  0  0  0
  -21.6667   -6.8866   21.4230 O   0  0  0  0  0  0
  -22.3517  -14.5487   20.6723 O   0  0  0  0  0  0
  -24.6303  -31.8505   23.1987 C   0  0  0  0  0  0
  -25.9123  -32.4716   23.8325 C   0  0  1  0  0  0
  -27.2246  -27.2436   20.1518 C   0  0  0  0  0  0
  -25.5935  -33.8516   24.2243 N   0  0  0  0  0  0
  -23.4300  -30.4729   21.5377 C   0  0  2  0  0  0
  -24.8852  -28.9196   20.1090 C   0  0  0  0  0  0
  -22.7494  -29.4547   22.4857 C   0  0  0  0  0  0
  -18.0281  -28.1359   22.8501 C   0  0  0  0  0  0
  -24.1519  -36.7276   23.2642 C   0  0  0  0  0  0
  -25.9786  -30.7609   21.3858 C   0  0  0  0  0  0
  -26.0547  -29.3845   20.7246 C   0  0  0  0  0  0
  -27.2279  -28.5596   20.7321 C   0  0  0  0  0  0
  -26.0337  -26.8554   19.4969 C   0  0  0  0  0  0
  -24.8820  -27.6673   19.4799 C   0  0  0  0  0  0
  -23.6570  -29.8090   20.1523 C   0  0  0  0  0  0
  -25.4134  -36.3032   24.0324 C   0  0  1  0  0  0
  -20.5891  -28.3680   23.1250 C   0  0  2  0  0  0
  -20.6734  -26.9381   22.5420 C   0  0  0  0  0  0
  -19.5717  -26.6338   21.5217 C   0  0  0  0  0  0
  -18.1916  -26.7898   22.1659 C   0  0  0  0  0  0
  -19.1536  -28.8848   23.2870 C   0  0  0  0  0  0
  -18.9457  -30.1441   23.8891 C   0  0  0  0  0  0
  -17.6450  -30.6569   24.0573 C   0  0  0  0  0  0
  -25.9061  -34.9405   23.5084 C   0  0  0  0  0  0
  -16.5360  -29.9074   23.6328 C   0  0  0  0  0  0
  -16.7263  -28.6495   23.0349 C   0  0  0  0  0  0
  -26.4532  -31.6539   25.0714 C   0  0  0  0  0  0
  -25.3787  -31.3662   26.1458 C   0  0  0  0  0  0
  -27.0396  -30.2944   24.6225 C   0  0  0  0  0  0
  -27.6065  -32.4304   25.7496 C   0  0  0  0  0  0
  -27.5587  -37.1795   24.8462 C   0  0  0  0  0  0
  -21.4191  -29.3023   22.3644 N   0  0  0  0  0  0
  -26.4296  -37.3736   23.9400 N   0  0  0  0  0  0
  -24.6973  -31.0467   22.0963 N   0  0  0  0  0  0
  -23.4200  -28.8053   23.2931 O   0  0  0  0  0  0
  -28.2998  -26.3218   20.2331 O   0  0  0  0  0  0
  -26.5641  -34.8862   22.4653 O   0  0  0  0  0  0
  -23.5445  -32.1343   23.7274 O   0  0  0  0  0  0
  -27.5614  -21.9133   21.7185 C   0  0  0  0  0  0
  -27.9387  -19.5062   21.9350 C   0  0  0  0  0  0
  -28.6402  -22.0662   20.8256 C   0  0  0  0  0  0
  -29.0371  -19.5122   21.0424 C   0  0  0  0  0  0
  -29.3625  -20.8325   20.4781 C   0  0  0  0  0  0
  -27.2005  -20.6600   22.2592 C   0  0  0  0  0  0
  -28.3042  -24.0970   19.0961 C   0  0  0  0  0  0
  -29.8221  -17.1134   19.6458 C   0  0  0  0  0  0
  -29.5455  -16.7919   21.6965 C   0  0  0  0  0  0
  -28.9467  -23.5660   20.3534 C   0  0  1  0  0  0
  -29.8048  -18.0969   20.8546 C   0  0  0  0  0  0
  -27.9659  -24.8497   20.3675 C   0  0  2  0  0  0
  -30.4981  -20.9639   19.4826 C   0  0  0  0  0  0
  -24.9570  -21.2123   22.8439 C   0  0  0  0  0  0
  -29.8128  -15.9020   20.5347 N   0  0  0  0  0  0
  -26.1623  -20.5160   23.1496 O   0  0  0  0  0  0
  -31.4614  -12.5777   19.1709 H   0  0  0  0  0  0
  -30.3503  -11.4866   19.9560 H   0  0  0  0  0  0
  -29.7840  -11.7422   17.5166 H   0  0  0  0  0  0
  -29.6191  -13.4675   17.7175 H   0  0  0  0  0  0
  -27.8977  -11.2770   18.9226 H   0  0  0  0  0  0
  -27.3675  -12.5050   17.8026 H   0  0  0  0  0  0
  -27.6261  -14.2536   19.4584 H   0  0  0  0  0  0
  -28.7050  -12.1933   21.4501 H   0  0  0  0  0  0
  -28.4044  -13.8868   21.7702 H   0  0  0  0  0  0
  -25.2761   -9.5725   22.4679 H   0  0  0  0  0  0
  -24.0020   -7.4658   22.7436 H   0  0  0  0  0  0
  -21.0829   -8.8767   19.8896 H   0  0  0  0  0  0
  -22.3676  -10.9667   19.6107 H   0  0  0  0  0  0
  -21.2038   -7.6124   23.9695 H   0  0  0  0  0  0
  -21.1445   -6.0503   25.9054 H   0  0  0  0  0  0
  -22.0600   -2.7581   23.2878 H   0  0  0  0  0  0
  -22.4219  -11.9816   22.4785 H   0  0  0  0  0  0
  -21.1130  -13.1105   22.2622 H   0  0  0  0  0  0
  -24.6645  -15.8497   20.5756 H   0  0  0  0  0  0
  -26.2903  -15.6370   20.1523 H   0  0  0  0  0  0
  -26.7166  -32.5362   23.1036 H   0  0  0  0  0  0
  -25.0047  -33.9659   25.0360 H   0  0  0  0  0  0
  -22.7281  -31.2956   21.3884 H   0  0  0  0  0  0
  -23.3764  -35.9632   23.3289 H   0  0  0  0  0  0
  -24.3606  -36.8925   22.2064 H   0  0  0  0  0  0
  -23.7312  -37.6480   23.6686 H   0  0  0  0  0  0
  -26.1312  -31.5291   20.6259 H   0  0  0  0  0  0
  -26.8475  -30.8008   22.0310 H   0  0  0  0  0  0
  -28.1213  -28.9054   21.2327 H   0  0  0  0  0  0
  -25.9720  -25.8907   19.0122 H   0  0  0  0  0  0
  -23.9890  -27.3078   18.9870 H   0  0  0  0  0  0
  -23.7902  -30.5867   19.3976 H   0  0  0  0  0  0
  -22.7751  -29.2468   19.8388 H   0  0  0  0  0  0
  -25.1331  -36.1864   25.0823 H   0  0  0  0  0  0
  -20.9996  -28.3234   24.1357 H   0  0  0  0  0  0
  -21.6572  -26.7333   22.1214 H   0  0  0  0  0  0
  -20.5565  -26.2308   23.3640 H   0  0  0  0  0  0
  -19.6819  -25.6228   21.1268 H   0  0  0  0  0  0
  -19.6668  -27.3159   20.6747 H   0  0  0  0  0  0
  -17.4152  -26.6701   21.4089 H   0  0  0  0  0  0
  -18.0292  -26.0006   22.9020 H   0  0  0  0  0  0
  -19.7922  -30.7271   24.2307 H   0  0  0  0  0  0
  -17.5007  -31.6220   24.5194 H   0  0  0  0  0  0
  -15.5355  -30.2971   23.7651 H   0  0  0  0  0  0
  -15.8663  -28.0806   22.7077 H   0  0  0  0  0  0
  -24.5945  -30.7033   25.7793 H   0  0  0  0  0  0
  -24.9022  -32.2825   26.4942 H   0  0  0  0  0  0
  -25.8153  -30.8793   27.0188 H   0  0  0  0  0  0
  -26.2985  -29.6661   24.1272 H   0  0  0  0  0  0
  -27.4089  -29.7231   25.4753 H   0  0  0  0  0  0
  -27.8863  -30.4195   23.9470 H   0  0  0  0  0  0
  -27.2625  -33.3580   26.2070 H   0  0  0  0  0  0
  -28.3874  -32.6895   25.0341 H   0  0  0  0  0  0
  -28.0728  -31.8439   26.5424 H   0  0  0  0  0  0
  -28.2579  -38.0115   24.7480 H   0  0  0  0  0  0
  -28.1108  -36.2625   24.6317 H   0  0  0  0  0  0
  -27.2281  -37.1476   25.8860 H   0  0  0  0  0  0
  -20.9335  -29.8842   21.6956 H   0  0  0  0  0  0
  -26.0166  -38.2803   24.1401 H   0  0  0  0  0  0
  -27.0197  -22.7941   22.0216 H   0  0  0  0  0  0
  -27.6300  -18.5862   22.4036 H   0  0  0  0  0  0
  -27.5197  -23.4824   18.6570 H   0  0  0  0  0  0
  -28.9604  -24.5833   18.3779 H   0  0  0  0  0  0
  -28.9251  -17.1904   19.0327 H   0  0  0  0  0  0
  -30.7114  -17.2208   19.0234 H   0  0  0  0  0  0
  -30.2357  -16.6700   22.5340 H   0  0  0  0  0  0
  -28.5186  -16.6774   22.0432 H   0  0  0  0  0  0
  -29.9976  -23.7852   20.5286 H   0  0  0  0  0  0
  -30.8525  -18.3585   21.0376 H   0  0  0  0  0  0
  -26.9916  -24.7048   20.8273 H   0  0  0  0  0  0
  -31.2330  -21.6942   19.8248 H   0  0  0  0  0  0
  -30.1024  -21.3094   18.5289 H   0  0  0  0  0  0
  -31.0131  -20.0210   19.3074 H   0  0  0  0  0  0
  -24.2054  -20.9729   23.5949 H   0  0  0  0  0  0
  -24.5763  -20.8885   21.8765 H   0  0  0  0  0  0
  -25.0613  -22.2981   22.8306 H   0  0  0  0  0  0
  1 25  1  0  0  0
  1 30  2  0  0  0
  1 85  1  0  0  0
  2  3  1  0  0  0
  2 25  1  0  0  0
  2 87  1  0  0  0
  2 88  1  0  0  0
  3  4  1  0  0  0
  3 89  1  0  0  0
  3 90  1  0  0  0
  4  5  1  0  0  0
  4 91  1  0  0  0
  4 92  1  0  0  0
  5  6  1  0  0  0
  5 26  1  0  0  0
  5 93  1  0  0  0
  6 25  1  0  0  0
  6 94  1  0  0  0
  6 95  1  0  0  0
  7  8  2  0  0  0
  7 26  1  0  0  0
  7 29  1  0  0  0
  8  9  1  0  0  0
  8 22  1  0  0  0
  9 10  1  0  0  0
  9 27  2  0  0  0
 10 11  2  0  0  0
 10 15  1  0  0  0
 11 12  1  0  0  0
 11 96  1  0  0  0
 12 13  2  0  0  0
 12 97  1  0  0  0
 13 14  1  0  0  0
 13 31  1  0  0  0
 14 15  2  0  0  0
 14 98  1  0  0  0
 15 99  1  0  0  0
 16 17  2  0  0  0
 16 21  1  0  0  0
 16 31  1  0  0  0
 17 18  1  0  0  0
 17100  1  0  0  0
 18 19  2  0  0  0
 18101  1  0  0  0
 19 20  1  0  0  0
 19 24  1  0  0  0
 20 21  2  0  0  0
 20102  1  0  0  0
 21 23  1  0  0  0
 22 28  1  0  0  0
 22 32  2  0  0  0
 26 27  1  0  0  0
 28103  1  0  0  0
 28104  1  0  0  0
 29105  1  0  0  0
 29106  1  0  0  0
 33 34  1  0  0  0
 33 66  1  0  0  0
 33 70  2  0  0  0
 34 36  1  0  0  0
 34 59  1  0  0  0
 34107  1  0  0  0
 35 44  2  0  0  0
 35 45  1  0  0  0
 35 68  1  0  0  0
 36 56  1  0  0  0
 36108  1  0  0  0
 37 39  1  0  0  0
 37 47  1  0  0  0
 37 66  1  0  0  0
 37109  1  0  0  0
 38 43  2  0  0  0
 38 46  1  0  0  0
 38 47  1  0  0  0
 39 64  1  0  0  0
 39 67  2  0  0  0
 40 52  1  0  0  0
 40 53  2  0  0  0
 40 58  1  0  0  0
 41110  1  0  0  0
 41111  1  0  0  0
 41112  1  0  0  0
 41 48  1  0  0  0
 42 43  1  0  0  0
 42 66  1  0  0  0
 42113  1  0  0  0
 42114  1  0  0  0
 43 44  1  0  0  0
 44115  1  0  0  0
 45 46  2  0  0  0
 45116  1  0  0  0
 46117  1  0  0  0
 47118  1  0  0  0
 47119  1  0  0  0
 48 56  1  0  0  0
 48 65  1  0  0  0
 48120  1  0  0  0
 49 50  1  0  0  0
 49 53  1  0  0  0
 49 64  1  0  0  0
 49121  1  0  0  0
 50 51  1  0  0  0
 50122  1  0  0  0
 50123  1  0  0  0
 51 52  1  0  0  0
 51124  1  0  0  0
 51125  1  0  0  0
 52126  1  0  0  0
 52127  1  0  0  0
 53 54  1  0  0  0
 54 55  2  0  0  0
 54128  1  0  0  0
 55 57  1  0  0  0
 55129  1  0  0  0
 56 69  2  0  0  0
 57 58  2  0  0  0
 57130  1  0  0  0
 58131  1  0  0  0
 59 60  1  0  0  0
 59 61  1  0  0  0
 59 62  1  0  0  0
 60132  1  0  0  0
 60133  1  0  0  0
 60134  1  0  0  0
 61135  1  0  0  0
 61136  1  0  0  0
 61137  1  0  0  0
 62138  1  0  0  0
 62139  1  0  0  0
 62140  1  0  0  0
 63 65  1  0  0  0
 63141  1  0  0  0
 63142  1  0  0  0
 63143  1  0  0  0
 64144  1  0  0  0
 65145  1  0  0  0
 68 82  1  0  0  0
 71 73  2  0  0  0
 71 76  1  0  0  0
 71146  1  0  0  0
 72 74  1  0  0  0
 72 76  2  0  0  0
 72147  1  0  0  0
 73 75  1  0  0  0
 73 80  1  0  0  0
 74 75  2  0  0  0
 74 81  1  0  0  0
 75 83  1  0  0  0
 76 86  1  0  0  0
 77 80  1  0  0  0
 77 82  1  0  0  0
 77148  1  0  0  0
 77149  1  0  0  0
 78 81  1  0  0  0
 78 85  1  0  0  0
 78150  1  0  0  0
 78151  1  0  0  0
 79 81  1  0  0  0
 79 85  1  0  0  0
 79152  1  0  0  0
 79153  1  0  0  0
 80 82  1  0  0  0
 80154  1  0  0  0
 81155  1  0  0  0
 82156  1  0  0  0
 83157  1  0  0  0
 83158  1  0  0  0
 83159  1  0  0  0
 84 86  1  0  0  0
 84160  1  0  0  0
 84161  1  0  0  0
 84162  1  0  0  0
M  ISO  4   1 100  68 101  82 101  85 100
M  END
> <chiral flag>
0

> <version>
0

> <s_m_source_file>
/data/baiqing/PycharmProjects/Reinvent-master-3.2/result/LINK_invent/BTK/process_docking_weight1_custom_sum_contain_oxygen_bond_distance_aromatic_linkinvent_7_9_3/rearranged_h_0148.sdf

> <i_m_source_file_index>
47

> <r_mmod_Potential_Energy-OPLS-2005>
350.452758789062

> <r_mmod_Stretch_Energy-OPLS-2005>
142.856018066406

> <r_mmod_Bend_Energy-OPLS-2005>
192.127227783203

> <r_mmod_Torsional_Energy-OPLS-2005>
330.122589111328

> <r_mmod_Improper_Torsional_Energy-OPLS-2005>
15.6421480178833

> <r_mmod_Van_der_Waal_Energy-OPLS-2005>
130.663345336914

> <r_mmod_Electrostatic_Energy-OPLS-2005>
-354.212463378906

> <r_mmod_Solvation_Energy-OPLS-2005>
-202.323455810547

> <b_mmod_Minimization_Converged-OPLS-2005>
0

> <r_mmod_RMS_Derivative-OPLS-2005>
4.98938035964966

$$$$
47
                    3D
 Structure written by MMmdl.
169177  0  0  1  0            999 V2000
  -30.7003  -14.4283   20.5611 C   0  0  0  0  0  0
  -30.4277  -12.2721   19.4211 C   0  0  0  0  0  0
  -29.5045  -12.5058   18.2068 C   0  0  0  0  0  0
  -28.0211  -12.3743   18.6105 C   0  0  0  0  0  0
  -27.6690  -13.2005   19.8787 C   0  0  2  0  0  0
  -28.7091  -12.9483   20.9961 C   0  0  0  0  0  0
  -25.2590  -13.8118   20.5666 C   0  0  0  0  0  0
  -24.1846  -13.0429   20.9135 C   0  0  0  0  0  0
  -24.6382  -11.6888   20.8697 C   0  0  0  0  0  0
  -23.9055  -10.4285   21.0398 C   0  0  0  0  0  0
  -24.3605   -9.4219   21.9182 C   0  0  0  0  0  0
  -23.6289   -8.2255   22.0757 C   0  0  0  0  0  0
  -22.4282   -8.0275   21.3543 C   0  0  0  0  0  0
  -21.9901   -9.0245   20.4652 C   0  0  0  0  0  0
  -22.7217  -10.2125   20.3058 C   0  0  0  0  0  0
  -21.6845   -6.0743   22.5286 C   0  0  0  0  0  0
  -21.4015   -6.5640   23.8218 C   0  0  0  0  0  0
  -21.3662   -5.6785   24.9178 C   0  0  0  0  0  0
  -21.6056   -4.3053   24.7232 C   0  0  0  0  0  0
  -21.8819   -3.8148   23.4344 C   0  0  0  0  0  0
  -21.9189   -4.6964   22.3404 C   0  0  0  0  0  0
  -22.7856  -13.5239   21.1803 C   0  0  0  0  0  0
  -22.1661   -4.2156   21.0973 F   0  0  0  0  0  0
  -21.5628   -3.4546   25.7727 F   0  0  0  0  0  0
  -30.0518  -13.2410   20.4574 N   0  0  0  0  0  0
  -26.3040  -12.9310   20.3349 N   0  0  0  0  0  0
  -25.9312  -11.6455   20.5730 N   0  0  0  0  0  0
  -22.0480  -12.8268   22.0364 N   0  0  0  0  0  0
  -25.4331  -15.1848   20.4149 N   0  0  0  0  0  0
  -31.7900  -14.6612   20.0324 O   0  0  0  0  0  0
  -21.6639   -6.8887   21.4230 O   0  0  0  0  0  0
  -22.3573  -14.5551   20.6630 O   0  0  0  0  0  0
  -24.6095  -31.8713   23.2145 C   0  0  0  0  0  0
  -25.9009  -32.4833   23.8427 C   0  0  1  0  0  0
  -27.2421  -27.4831   20.0872 C   0  0  0  0  0  0
  -25.5878  -33.8634   24.2364 N   0  0  0  0  0  0
  -23.3976  -30.4943   21.5524 C   0  0  2  0  0  0
  -24.8458  -28.9633   20.1198 C   0  0  0  0  0  0
  -22.7383  -29.4665   22.4999 C   0  0  0  0  0  0
  -18.0270  -28.1373   22.8499 C   0  0  0  0  0  0
  -24.1482  -36.7336   23.2636 C   0  0  0  0  0  0
  -25.9225  -30.8448   21.3672 C   0  0  0  0  0  0
  -25.9992  -29.4812   20.7217 C   0  0  0  0  0  0
  -27.1997  -28.7427   20.7118 C   0  0  0  0  0  0
  -26.0841  -26.9799   19.4591 C   0  0  0  0  0  0
  -24.8788  -27.7061   19.4910 C   0  0  0  0  0  0
  -23.6066  -29.8270   20.1656 C   0  0  0  0  0  0
  -25.4104  -36.3134   24.0340 C   0  0  1  0  0  0
  -20.5854  -28.3664   23.1325 C   0  0  2  0  0  0
  -20.6763  -26.9402   22.5420 C   0  0  0  0  0  0
  -19.5737  -26.6382   21.5226 C   0  0  0  0  0  0
  -18.1913  -26.7920   22.1630 C   0  0  0  0  0  0
  -19.1512  -28.8835   23.2912 C   0  0  0  0  0  0
  -18.9440  -30.1441   23.8921 C   0  0  0  0  0  0
  -17.6435  -30.6575   24.0571 C   0  0  0  0  0  0
  -25.9020  -34.9486   23.5153 C   0  0  0  0  0  0
  -16.5335  -29.9079   23.6316 C   0  0  0  0  0  0
  -16.7254  -28.6499   23.0336 C   0  0  0  0  0  0
  -26.4466  -31.6595   25.0737 C   0  0  0  0  0  0
  -25.3750  -31.3675   26.1495 C   0  0  0  0  0  0
  -27.0283  -30.3041   24.6076 C   0  0  0  0  0  0
  -27.6045  -32.4307   25.7484 C   0  0  0  0  0  0
  -27.5586  -37.1825   24.8469 C   0  0  0  0  0  0
  -21.4116  -29.3037   22.3743 N   0  0  0  0  0  0
  -26.4305  -37.3812   23.9409 N   0  0  0  0  0  0
  -24.6610  -31.0830   22.1033 N   0  0  0  0  0  0
  -23.4162  -28.8186   23.3017 O   0  0  0  0  0  0
  -28.4258  -26.7952   20.0349 O   0  0  0  0  0  0
  -26.5579  -34.8926   22.4720 O   0  0  0  0  0  0
  -23.5297  -32.1453   23.7550 O   0  0  0  0  0  0
  -28.0138  -21.1927   21.2504 C   0  0  0  0  0  0
  -28.4974  -19.9519   21.6947 C   0  0  0  0  0  0
  -27.6468  -18.9130   19.6389 C   0  0  0  0  0  0
  -28.2906  -18.7888   20.9049 C   0  0  0  0  0  0
  -27.1957  -20.1815   19.1933 C   0  0  0  0  0  0
  -27.3403  -21.3235   20.0153 C   0  0  0  0  0  0
  -29.1944  -19.9379   23.0511 C   0  0  0  0  0  0
  -27.3864  -17.7021   18.7377 C   0  0  0  0  0  0
  -26.5511  -20.3117   17.8150 C   0  0  0  0  0  0
  -31.2692  -17.5265   21.3264 C   0  0  0  0  0  0
  -28.7004  -17.4127   21.4351 C   0  0  0  0  0  0
  -28.2835  -24.3540   20.0987 C   0  0  0  0  0  0
  -28.5116  -25.6549   20.8843 C   0  0  0  0  0  0
  -26.9253  -23.6859   20.3705 C   0  0  0  0  0  0
  -29.9931  -16.8237   20.8291 C   0  0  1  0  0  0
  -29.9767  -15.3903   21.1370 N   0  0  0  0  0  0
  -26.7987  -22.5113   19.5727 O   0  0  0  0  0  0
  -30.3151  -11.2582   19.8043 H   0  0  0  0  0  0
  -31.4771  -12.3615   19.1292 H   0  0  0  0  0  0
  -29.7443  -11.7953   17.4129 H   0  0  0  0  0  0
  -29.6825  -13.5030   17.7963 H   0  0  0  0  0  0
  -27.8220  -11.3188   18.7883 H   0  0  0  0  0  0
  -27.3816  -12.6742   17.7784 H   0  0  0  0  0  0
  -27.7205  -14.2527   19.5973 H   0  0  0  0  0  0
  -28.6717  -11.9072   21.3156 H   0  0  0  0  0  0
  -28.4783  -13.5261   21.8909 H   0  0  0  0  0  0
  -25.2746   -9.5703   22.4749 H   0  0  0  0  0  0
  -23.9990   -7.4663   22.7481 H   0  0  0  0  0  0
  -21.0827   -8.8754   19.8977 H   0  0  0  0  0  0
  -22.3660  -10.9655   19.6168 H   0  0  0  0  0  0
  -21.2010   -7.6150   23.9716 H   0  0  0  0  0  0
  -21.1487   -6.0522   25.9067 H   0  0  0  0  0  0
  -22.0601   -2.7618   23.2830 H   0  0  0  0  0  0
  -22.4027  -11.9951   22.4837 H   0  0  0  0  0  0
  -21.1113  -13.1351   22.2537 H   0  0  0  0  0  0
  -24.6652  -15.8351   20.5291 H   0  0  0  0  0  0
  -26.2892  -15.6222   20.1057 H   0  0  0  0  0  0
  -26.7081  -32.5563   23.1197 H   0  0  0  0  0  0
  -25.0073  -33.9828   25.0529 H   0  0  0  0  0  0
  -22.6858  -31.3116   21.4119 H   0  0  0  0  0  0
  -23.3739  -35.9677   23.3329 H   0  0  0  0  0  0
  -24.3582  -36.8920   22.2046 H   0  0  0  0  0  0
  -23.7237  -37.6554   23.6626 H   0  0  0  0  0  0
  -26.0351  -31.6085   20.5971 H   0  0  0  0  0  0
  -26.8100  -30.8974   21.9848 H   0  0  0  0  0  0
  -28.0937  -29.1387   21.1731 H   0  0  0  0  0  0
  -26.1208  -26.0555   18.9050 H   0  0  0  0  0  0
  -23.9996  -27.3107   19.0003 H   0  0  0  0  0  0
  -23.7158  -30.6028   19.4055 H   0  0  0  0  0  0
  -22.7324  -29.2451   19.8681 H   0  0  0  0  0  0
  -25.1275  -36.2032   25.0830 H   0  0  0  0  0  0
  -20.9951  -28.3236   24.1444 H   0  0  0  0  0  0
  -20.5678  -26.2276   23.3610 H   0  0  0  0  0  0
  -21.6636  -26.7451   22.1210 H   0  0  0  0  0  0
  -19.6904  -25.6303   21.1239 H   0  0  0  0  0  0
  -19.6670  -27.3208   20.6774 H   0  0  0  0  0  0
  -17.4190  -26.6677   21.4023 H   0  0  0  0  0  0
  -18.0296  -26.0053   22.9016 H   0  0  0  0  0  0
  -19.7909  -30.7263   24.2290 H   0  0  0  0  0  0
  -17.4985  -31.6257   24.5173 H   0  0  0  0  0  0
  -15.5334  -30.2985   23.7622 H   0  0  0  0  0  0
  -15.8662  -28.0833   22.7016 H   0  0  0  0  0  0
  -24.5931  -30.7006   25.7866 H   0  0  0  0  0  0
  -24.8919  -32.2798   26.4988 H   0  0  0  0  0  0
  -25.8121  -30.8841   27.0234 H   0  0  0  0  0  0
  -26.2807  -29.6809   24.1147 H   0  0  0  0  0  0
  -27.4097  -29.7274   25.4517 H   0  0  0  0  0  0
  -27.8630  -30.4396   23.9192 H   0  0  0  0  0  0
  -27.2679  -33.3599   26.2102 H   0  0  0  0  0  0
  -28.3819  -32.6879   25.0278 H   0  0  0  0  0  0
  -28.0744  -31.8400   26.5358 H   0  0  0  0  0  0
  -28.2621  -38.0108   24.7512 H   0  0  0  0  0  0
  -28.1057  -36.2636   24.6297 H   0  0  0  0  0  0
  -27.2299  -37.1501   25.8872 H   0  0  0  0  0  0
  -20.9272  -29.8797   21.7004 H   0  0  0  0  0  0
  -26.0201  -38.2898   24.1397 H   0  0  0  0  0  0
  -28.1675  -22.0403   21.9027 H   0  0  0  0  0  0
  -29.7458  -20.8680   23.2010 H   0  0  0  0  0  0
  -28.4600  -19.8517   23.8537 H   0  0  0  0  0  0
  -29.9231  -19.1369   23.1631 H   0  0  0  0  0  0
  -27.8296  -16.7687   19.0726 H   0  0  0  0  0  0
  -27.7666  -17.8772   17.7316 H   0  0  0  0  0  0
  -26.3136  -17.5308   18.6612 H   0  0  0  0  0  0
  -27.2966  -20.1141   17.0422 H   0  0  0  0  0  0
  -26.1377  -21.3012   17.6247 H   0  0  0  0  0  0
  -25.7383  -19.5949   17.6948 H   0  0  0  0  0  0
  -31.2447  -18.5900   21.0958 H   0  0  0  0  0  0
  -32.1664  -17.1274   20.8577 H   0  0  0  0  0  0
  -31.3814  -17.4258   22.4035 H   0  0  0  0  0  0
  -27.8570  -16.7427   21.2631 H   0  0  0  0  0  0
  -28.7788  -17.4253   22.5200 H   0  0  0  0  0  0
  -29.0788  -23.6539   20.3536 H   0  0  0  0  0  0
  -28.3978  -24.5441   19.0306 H   0  0  0  0  0  0
  -29.5263  -25.6435   21.2832 H   0  0  0  0  0  0
  -27.8549  -25.7302   21.7544 H   0  0  0  0  0  0
  -26.1083  -24.3429   20.0919 H   0  0  0  0  0  0
  -26.7580  -23.5041   21.4321 H   0  0  0  0  0  0
  -29.9555  -16.9261   19.7433 H   0  0  0  0  0  0
  -29.1399  -15.0574   21.5867 H   0  0  0  0  0  0
  1 25  1  0  0  0
  1 30  2  0  0  0
  1 86  1  0  0  0
  2  3  1  0  0  0
  2 25  1  0  0  0
  2 88  1  0  0  0
  2 89  1  0  0  0
  3  4  1  0  0  0
  3 90  1  0  0  0
  3 91  1  0  0  0
  4  5  1  0  0  0
  4 92  1  0  0  0
  4 93  1  0  0  0
  5  6  1  0  0  0
  5 26  1  0  0  0
  5 94  1  0  0  0
  6 25  1  0  0  0
  6 95  1  0  0  0
  6 96  1  0  0  0
  7  8  2  0  0  0
  7 26  1  0  0  0
  7 29  1  0  0  0
  8  9  1  0  0  0
  8 22  1  0  0  0
  9 10  1  0  0  0
  9 27  2  0  0  0
 10 11  2  0  0  0
 10 15  1  0  0  0
 11 12  1  0  0  0
 11 97  1  0  0  0
 12 13  2  0  0  0
 12 98  1  0  0  0
 13 14  1  0  0  0
 13 31  1  0  0  0
 14 15  2  0  0  0
 14 99  1  0  0  0
 15100  1  0  0  0
 16 17  2  0  0  0
 16 21  1  0  0  0
 16 31  1  0  0  0
 17 18  1  0  0  0
 17101  1  0  0  0
 18 19  2  0  0  0
 18102  1  0  0  0
 19 20  1  0  0  0
 19 24  1  0  0  0
 20 21  2  0  0  0
 20103  1  0  0  0
 21 23  1  0  0  0
 22 28  1  0  0  0
 22 32  2  0  0  0
 26 27  1  0  0  0
 28104  1  0  0  0
 28105  1  0  0  0
 29106  1  0  0  0
 29107  1  0  0  0
 33 34  1  0  0  0
 33 66  1  0  0  0
 33 70  2  0  0  0
 34 36  1  0  0  0
 34 59  1  0  0  0
 34108  1  0  0  0
 35 44  2  0  0  0
 35 45  1  0  0  0
 35 68  1  0  0  0
 36 56  1  0  0  0
 36109  1  0  0  0
 37 39  1  0  0  0
 37 47  1  0  0  0
 37 66  1  0  0  0
 37110  1  0  0  0
 38 43  2  0  0  0
 38 46  1  0  0  0
 38 47  1  0  0  0
 39 64  1  0  0  0
 39 67  2  0  0  0
 40 52  1  0  0  0
 40 53  2  0  0  0
 40 58  1  0  0  0
 41111  1  0  0  0
 41112  1  0  0  0
 41113  1  0  0  0
 41 48  1  0  0  0
 42 43  1  0  0  0
 42 66  1  0  0  0
 42114  1  0  0  0
 42115  1  0  0  0
 43 44  1  0  0  0
 44116  1  0  0  0
 45 46  2  0  0  0
 45117  1  0  0  0
 46118  1  0  0  0
 47119  1  0  0  0
 47120  1  0  0  0
 48 56  1  0  0  0
 48 65  1  0  0  0
 48121  1  0  0  0
 49 50  1  0  0  0
 49 53  1  0  0  0
 49 64  1  0  0  0
 49122  1  0  0  0
 50 51  1  0  0  0
 50123  1  0  0  0
 50124  1  0  0  0
 51 52  1  0  0  0
 51125  1  0  0  0
 51126  1  0  0  0
 52127  1  0  0  0
 52128  1  0  0  0
 53 54  1  0  0  0
 54 55  2  0  0  0
 54129  1  0  0  0
 55 57  1  0  0  0
 55130  1  0  0  0
 56 69  2  0  0  0
 57 58  2  0  0  0
 57131  1  0  0  0
 58132  1  0  0  0
 59 60  1  0  0  0
 59 61  1  0  0  0
 59 62  1  0  0  0
 60133  1  0  0  0
 60134  1  0  0  0
 60135  1  0  0  0
 61136  1  0  0  0
 61137  1  0  0  0
 61138  1  0  0  0
 62139  1  0  0  0
 62140  1  0  0  0
 62141  1  0  0  0
 63 65  1  0  0  0
 63142  1  0  0  0
 63143  1  0  0  0
 63144  1  0  0  0
 64145  1  0  0  0
 65146  1  0  0  0
 68 83  1  0  0  0
 71 72  2  0  0  0
 71 76  1  0  0  0
 71147  1  0  0  0
 72 74  1  0  0  0
 72 77  1  0  0  0
 73 74  2  0  0  0
 73 75  1  0  0  0
 73 78  1  0  0  0
 74 81  1  0  0  0
 75 76  2  0  0  0
 75 79  1  0  0  0
 76 87  1  0  0  0
 77148  1  0  0  0
 77149  1  0  0  0
 77150  1  0  0  0
 78151  1  0  0  0
 78152  1  0  0  0
 78153  1  0  0  0
 79154  1  0  0  0
 79155  1  0  0  0
 79156  1  0  0  0
 80157  1  0  0  0
 80158  1  0  0  0
 80159  1  0  0  0
 80 85  1  0  0  0
 81 85  1  0  0  0
 81160  1  0  0  0
 81161  1  0  0  0
 82 83  1  0  0  0
 82 84  1  0  0  0
 82162  1  0  0  0
 82163  1  0  0  0
 83164  1  0  0  0
 83165  1  0  0  0
 84 87  1  0  0  0
 84166  1  0  0  0
 84167  1  0  0  0
 85 86  1  0  0  0
 85168  1  0  0  0
 86169  1  0  0  0
M  ISO  4   1 100  68 101  83 101  86 100
M  END
> <chiral flag>
0

> <version>
0

> <s_m_source_file>
/data/baiqing/PycharmProjects/Reinvent-master-3.2/result/LINK_invent/BTK/process_docking_weight1_custom_sum_contain_oxygen_bond_distance_aromatic_linkinvent_7_9_3/rearranged_h_0148.sdf

> <i_m_source_file_index>
48

> <r_mmod_Potential_Energy-OPLS-2005>
-52.0445022583008

> <r_mmod_Stretch_Energy-OPLS-2005>
35.9069557189941

> <r_mmod_Bend_Energy-OPLS-2005>
106.614669799805

> <r_mmod_Torsional_Energy-OPLS-2005>
235.205581665039

> <r_mmod_Improper_Torsional_Energy-OPLS-2005>
5.51508378982544

> <r_mmod_Van_der_Waal_Energy-OPLS-2005>
165.829284667969

> <r_mmod_Electrostatic_Energy-OPLS-2005>
-403.3486328125

> <r_mmod_Solvation_Energy-OPLS-2005>
-206.746475219727

> <b_mmod_Minimization_Converged-OPLS-2005>
0

> <r_mmod_RMS_Derivative-OPLS-2005>
4.52411365509033

$$$$
48
                    3D
 Structure written by MMmdl.
168177  0  0  1  0            999 V2000
  -30.7048  -14.4468   20.5828 C   0  0  0  0  0  0
  -30.4200  -12.2931   19.4125 C   0  0  0  0  0  0
  -29.4919  -12.5079   18.1989 C   0  0  0  0  0  0
  -28.0116  -12.3735   18.6102 C   0  0  0  0  0  0
  -27.6624  -13.2018   19.8756 C   0  0  2  0  0  0
  -28.7048  -12.9593   20.9923 C   0  0  0  0  0  0
  -25.2601  -13.8143   20.5685 C   0  0  0  0  0  0
  -24.1841  -13.0427   20.9169 C   0  0  0  0  0  0
  -24.6374  -11.6886   20.8702 C   0  0  0  0  0  0
  -23.9025  -10.4286   21.0373 C   0  0  0  0  0  0
  -24.3579   -9.4211   21.9159 C   0  0  0  0  0  0
  -23.6273   -8.2234   22.0743 C   0  0  0  0  0  0
  -22.4259   -8.0256   21.3533 C   0  0  0  0  0  0
  -21.9876   -9.0216   20.4633 C   0  0  0  0  0  0
  -22.7189  -10.2106   20.3026 C   0  0  0  0  0  0
  -21.6843   -6.0708   22.5281 C   0  0  0  0  0  0
  -21.4002   -6.5623   23.8208 C   0  0  0  0  0  0
  -21.3662   -5.6779   24.9173 C   0  0  0  0  0  0
  -21.6052   -4.3038   24.7225 C   0  0  0  0  0  0
  -21.8826   -3.8120   23.4351 C   0  0  0  0  0  0
  -21.9196   -4.6939   22.3402 C   0  0  0  0  0  0
  -22.7876  -13.5235   21.1823 C   0  0  0  0  0  0
  -22.1668   -4.2121   21.0982 F   0  0  0  0  0  0
  -21.5630   -3.4523   25.7740 F   0  0  0  0  0  0
  -30.0380  -13.2678   20.4473 N   0  0  0  0  0  0
  -26.3025  -12.9296   20.3355 N   0  0  0  0  0  0
  -25.9299  -11.6462   20.5733 N   0  0  0  0  0  0
  -22.0481  -12.8228   22.0348 N   0  0  0  0  0  0
  -25.4371  -15.1859   20.4138 N   0  0  0  0  0  0
  -31.8291  -14.6178   20.0967 O   0  0  0  0  0  0
  -21.6630   -6.8848   21.4236 O   0  0  0  0  0  0
  -22.3584  -14.5560   20.6684 O   0  0  0  0  0  0
  -24.6149  -31.8703   23.2104 C   0  0  0  0  0  0
  -25.9035  -32.4846   23.8409 C   0  0  1  0  0  0
  -27.2385  -27.4481   20.0773 C   0  0  0  0  0  0
  -25.5904  -33.8642   24.2347 N   0  0  0  0  0  0
  -23.4016  -30.4947   21.5516 C   0  0  2  0  0  0
  -24.8461  -28.9593   20.1190 C   0  0  0  0  0  0
  -22.7412  -29.4678   22.4998 C   0  0  0  0  0  0
  -18.0274  -28.1373   22.8498 C   0  0  0  0  0  0
  -24.1489  -36.7327   23.2628 C   0  0  0  0  0  0
  -25.9295  -30.8375   21.3602 C   0  0  0  0  0  0
  -26.0057  -29.4694   20.7142 C   0  0  0  0  0  0
  -27.2006  -28.7151   20.7027 C   0  0  0  0  0  0
  -26.0491  -26.9401   19.5003 C   0  0  0  0  0  0
  -24.8599  -27.6896   19.5178 C   0  0  0  0  0  0
  -23.6091  -29.8256   20.1671 C   0  0  0  0  0  0
  -25.4102  -36.3133   24.0346 C   0  0  1  0  0  0
  -20.5869  -28.3658   23.1328 C   0  0  2  0  0  0
  -20.6766  -26.9400   22.5410 C   0  0  0  0  0  0
  -19.5741  -26.6394   21.5209 C   0  0  0  0  0  0
  -18.1925  -26.7918   22.1622 C   0  0  0  0  0  0
  -19.1522  -28.8828   23.2913 C   0  0  0  0  0  0
  -18.9446  -30.1435   23.8917 C   0  0  0  0  0  0
  -17.6446  -30.6578   24.0566 C   0  0  0  0  0  0
  -25.9030  -34.9499   23.5140 C   0  0  0  0  0  0
  -16.5340  -29.9074   23.6336 C   0  0  0  0  0  0
  -16.7265  -28.6496   23.0351 C   0  0  0  0  0  0
  -26.4447  -31.6618   25.0733 C   0  0  0  0  0  0
  -25.3731  -31.3782   26.1523 C   0  0  0  0  0  0
  -27.0188  -30.3040   24.6073 C   0  0  0  0  0  0
  -27.6080  -32.4276   25.7469 C   0  0  0  0  0  0
  -27.5601  -37.1823   24.8446 C   0  0  0  0  0  0
  -21.4140  -29.3033   22.3741 N   0  0  0  0  0  0
  -26.4288  -37.3819   23.9423 N   0  0  0  0  0  0
  -24.6675  -31.0816   22.0999 N   0  0  0  0  0  0
  -23.4199  -28.8229   23.3035 O   0  0  0  0  0  0
  -28.4184  -26.7329   20.0729 O   0  0  0  0  0  0
  -26.5577  -34.8945   22.4694 O   0  0  0  0  0  0
  -23.5344  -32.1443   23.7502 O   0  0  0  0  0  0
  -29.1702  -19.0514   21.0219 C   0  0  0  0  0  0
  -29.0553  -17.6555   21.1911 C   0  0  0  0  0  0
  -30.4372  -19.6188   20.7656 C   0  0  0  0  0  0
  -31.5416  -18.7326   20.7360 C   0  0  0  0  0  0
  -30.1994  -16.8379   21.0907 C   0  0  0  0  0  0
  -30.4012  -21.4029   18.9583 C   0  0  0  0  0  0
  -29.7031  -22.0861   21.2574 C   0  0  0  0  0  0
  -30.7321  -22.8693   18.6318 C   0  0  0  0  0  0
  -30.0060  -23.5619   20.8882 C   0  0  0  0  0  0
  -30.6022  -21.1180   20.4547 C   0  0  1  0  0  0
  -32.9628  -19.1959   20.4647 C   0  0  0  0  0  0
  -31.1685  -26.0194   19.7534 C   0  0  0  0  0  0
  -28.7264  -26.0024   18.8823 C   0  0  0  0  0  0
  -30.0720  -25.2438   18.9898 C   0  0  2  0  0  0
  -31.4150  -17.4005   20.9052 N   0  0  0  0  0  0
  -29.9981  -15.4309   21.1769 N   0  0  0  0  0  0
  -29.8938  -23.8153   19.4213 N   0  3  1  0  0  0
  -31.4655  -12.3851   19.1125 H   0  0  0  0  0  0
  -30.3112  -11.2772   19.7965 H   0  0  0  0  0  0
  -29.7266  -11.7870   17.4144 H   0  0  0  0  0  0
  -29.6668  -13.4953   17.7674 H   0  0  0  0  0  0
  -27.8157  -11.3161   18.7932 H   0  0  0  0  0  0
  -27.3613  -12.6594   17.7827 H   0  0  0  0  0  0
  -27.7132  -14.2532   19.5908 H   0  0  0  0  0  0
  -28.6787  -11.9137   21.3040 H   0  0  0  0  0  0
  -28.4684  -13.5323   21.8893 H   0  0  0  0  0  0
  -25.2718   -9.5706   22.4737 H   0  0  0  0  0  0
  -23.9981   -7.4628   22.7469 H   0  0  0  0  0  0
  -21.0791   -8.8706   19.8959 H   0  0  0  0  0  0
  -22.3615  -10.9614   19.6124 H   0  0  0  0  0  0
  -21.1984   -7.6130   23.9699 H   0  0  0  0  0  0
  -21.1485   -6.0507   25.9075 H   0  0  0  0  0  0
  -22.0605   -2.7581   23.2846 H   0  0  0  0  0  0
  -22.4043  -11.9860   22.4722 H   0  0  0  0  0  0
  -21.1091  -13.1272   22.2504 H   0  0  0  0  0  0
  -24.6710  -15.8432   20.5215 H   0  0  0  0  0  0
  -26.2886  -15.6192   20.0803 H   0  0  0  0  0  0
  -26.7117  -32.5558   23.1192 H   0  0  0  0  0  0
  -25.0080  -33.9787   25.0514 H   0  0  0  0  0  0
  -22.6916  -31.3134   21.4138 H   0  0  0  0  0  0
  -23.3790  -35.9611   23.3186 H   0  0  0  0  0  0
  -24.3634  -36.9037   22.2071 H   0  0  0  0  0  0
  -23.7164  -37.6479   23.6679 H   0  0  0  0  0  0
  -26.0315  -31.5978   20.5848 H   0  0  0  0  0  0
  -26.8233  -30.8997   21.9704 H   0  0  0  0  0  0
  -28.0974  -29.1088   21.1605 H   0  0  0  0  0  0
  -26.0051  -25.9593   19.0529 H   0  0  0  0  0  0
  -23.9609  -27.2827   19.0754 H   0  0  0  0  0  0
  -23.7208  -30.5980   19.4059 H   0  0  0  0  0  0
  -22.7323  -29.2451   19.8735 H   0  0  0  0  0  0
  -25.1266  -36.2000   25.0839 H   0  0  0  0  0  0
  -20.9964  -28.3194   24.1444 H   0  0  0  0  0  0
  -20.5686  -26.2256   23.3585 H   0  0  0  0  0  0
  -21.6631  -26.7454   22.1191 H   0  0  0  0  0  0
  -19.6900  -25.6312   21.1225 H   0  0  0  0  0  0
  -19.6679  -27.3218   20.6750 H   0  0  0  0  0  0
  -17.4200  -26.6682   21.4021 H   0  0  0  0  0  0
  -18.0320  -26.0052   22.9013 H   0  0  0  0  0  0
  -19.7920  -30.7254   24.2301 H   0  0  0  0  0  0
  -17.5000  -31.6262   24.5157 H   0  0  0  0  0  0
  -15.5334  -30.2970   23.7673 H   0  0  0  0  0  0
  -15.8666  -28.0829   22.7028 H   0  0  0  0  0  0
  -24.5714  -30.7371   25.7845 H   0  0  0  0  0  0
  -24.9168  -32.2983   26.5181 H   0  0  0  0  0  0
  -25.8055  -30.8713   27.0158 H   0  0  0  0  0  0
  -26.2668  -29.6881   24.1122 H   0  0  0  0  0  0
  -27.3928  -29.7218   25.4505 H   0  0  0  0  0  0
  -27.8549  -30.4328   23.9195 H   0  0  0  0  0  0
  -27.2804  -33.3672   26.1929 H   0  0  0  0  0  0
  -28.3959  -32.6648   25.0306 H   0  0  0  0  0  0
  -28.0630  -31.8421   26.5469 H   0  0  0  0  0  0
  -28.2569  -38.0174   24.7555 H   0  0  0  0  0  0
  -28.1139  -36.2706   24.6152 H   0  0  0  0  0  0
  -27.2344  -37.1340   25.8853 H   0  0  0  0  0  0
  -20.9297  -29.8760   21.6975 H   0  0  0  0  0  0
  -26.0179  -38.2903   24.1414 H   0  0  0  0  0  0
  -28.2797  -19.6625   21.0531 H   0  0  0  0  0  0
  -28.0758  -17.2267   21.3549 H   0  0  0  0  0  0
  -31.0451  -20.7544   18.3623 H   0  0  0  0  0  0
  -29.3767  -21.1727   18.6604 H   0  0  0  0  0  0
  -28.6467  -21.8844   21.0814 H   0  0  0  0  0  0
  -29.8711  -21.9474   22.3259 H   0  0  0  0  0  0
  -30.5849  -23.0306   17.5626 H   0  0  0  0  0  0
  -31.7871  -23.0619   18.8319 H   0  0  0  0  0  0
  -31.0147  -23.8021   21.2276 H   0  0  0  0  0  0
  -29.3291  -24.2255   21.4283 H   0  0  0  0  0  0
  -31.6252  -21.3964   20.7075 H   0  0  0  0  0  0
  -33.0514  -19.5908   19.4522 H   0  0  0  0  0  0
  -33.6716  -18.3733   20.5627 H   0  0  0  0  0  0
  -33.2726  -19.9668   21.1701 H   0  0  0  0  0  0
  -31.3396  -26.9942   19.2959 H   0  0  0  0  0  0
  -32.1201  -25.4875   19.7424 H   0  0  0  0  0  0
  -30.9009  -26.1999   20.7962 H   0  0  0  0  0  0
  -27.9470  -25.2936   18.6086 H   0  0  0  0  0  0
  -28.7900  -26.7224   18.0632 H   0  0  0  0  0  0
  -30.4141  -25.2006   17.9557 H   0  0  0  0  0  0
  -29.0972  -15.1423   21.5222 H   0  0  0  0  0  0
  -28.9426  -23.5830   19.1711 H   0  0  0  0  0  0
  1 25  1  0  0  0
  1 30  2  0  0  0
  1 86  1  0  0  0
  2  3  1  0  0  0
  2 25  1  0  0  0
  2 88  1  0  0  0
  2 89  1  0  0  0
  3  4  1  0  0  0
  3 90  1  0  0  0
  3 91  1  0  0  0
  4  5  1  0  0  0
  4 92  1  0  0  0
  4 93  1  0  0  0
  5  6  1  0  0  0
  5 26  1  0  0  0
  5 94  1  0  0  0
  6 25  1  0  0  0
  6 95  1  0  0  0
  6 96  1  0  0  0
  7  8  2  0  0  0
  7 26  1  0  0  0
  7 29  1  0  0  0
  8  9  1  0  0  0
  8 22  1  0  0  0
  9 10  1  0  0  0
  9 27  2  0  0  0
 10 11  2  0  0  0
 10 15  1  0  0  0
 11 12  1  0  0  0
 11 97  1  0  0  0
 12 13  2  0  0  0
 12 98  1  0  0  0
 13 14  1  0  0  0
 13 31  1  0  0  0
 14 15  2  0  0  0
 14 99  1  0  0  0
 15100  1  0  0  0
 16 17  2  0  0  0
 16 21  1  0  0  0
 16 31  1  0  0  0
 17 18  1  0  0  0
 17101  1  0  0  0
 18 19  2  0  0  0
 18102  1  0  0  0
 19 20  1  0  0  0
 19 24  1  0  0  0
 20 21  2  0  0  0
 20103  1  0  0  0
 21 23  1  0  0  0
 22 28  1  0  0  0
 22 32  2  0  0  0
 26 27  1  0  0  0
 28104  1  0  0  0
 28105  1  0  0  0
 29106  1  0  0  0
 29107  1  0  0  0
 33 34  1  0  0  0
 33 66  1  0  0  0
 33 70  2  0  0  0
 34 36  1  0  0  0
 34 59  1  0  0  0
 34108  1  0  0  0
 35 44  2  0  0  0
 35 45  1  0  0  0
 35 68  1  0  0  0
 36 56  1  0  0  0
 36109  1  0  0  0
 37 39  1  0  0  0
 37 47  1  0  0  0
 37 66  1  0  0  0
 37110  1  0  0  0
 38 43  2  0  0  0
 38 46  1  0  0  0
 38 47  1  0  0  0
 39 64  1  0  0  0
 39 67  2  0  0  0
 40 52  1  0  0  0
 40 53  2  0  0  0
 40 58  1  0  0  0
 41111  1  0  0  0
 41112  1  0  0  0
 41113  1  0  0  0
 41 48  1  0  0  0
 42 43  1  0  0  0
 42 66  1  0  0  0
 42114  1  0  0  0
 42115  1  0  0  0
 43 44  1  0  0  0
 44116  1  0  0  0
 45 46  2  0  0  0
 45117  1  0  0  0
 46118  1  0  0  0
 47119  1  0  0  0
 47120  1  0  0  0
 48 56  1  0  0  0
 48 65  1  0  0  0
 48121  1  0  0  0
 49 50  1  0  0  0
 49 53  1  0  0  0
 49 64  1  0  0  0
 49122  1  0  0  0
 50 51  1  0  0  0
 50123  1  0  0  0
 50124  1  0  0  0
 51 52  1  0  0  0
 51125  1  0  0  0
 51126  1  0  0  0
 52127  1  0  0  0
 52128  1  0  0  0
 53 54  1  0  0  0
 54 55  2  0  0  0
 54129  1  0  0  0
 55 57  1  0  0  0
 55130  1  0  0  0
 56 69  2  0  0  0
 57 58  2  0  0  0
 57131  1  0  0  0
 58132  1  0  0  0
 59 60  1  0  0  0
 59 61  1  0  0  0
 59 62  1  0  0  0
 60133  1  0  0  0
 60134  1  0  0  0
 60135  1  0  0  0
 61136  1  0  0  0
 61137  1  0  0  0
 61138  1  0  0  0
 62139  1  0  0  0
 62140  1  0  0  0
 62141  1  0  0  0
 63 65  1  0  0  0
 63142  1  0  0  0
 63143  1  0  0  0
 63144  1  0  0  0
 64145  1  0  0  0
 65146  1  0  0  0
 68 83  1  0  0  0
 71 72  2  0  0  0
 71 73  1  0  0  0
 71147  1  0  0  0
 72 75  1  0  0  0
 72148  1  0  0  0
 73 74  2  0  0  0
 73 80  1  0  0  0
 74 81  1  0  0  0
 74 85  1  0  0  0
 75 85  2  0  0  0
 75 86  1  0  0  0
 76 78  1  0  0  0
 76 80  1  0  0  0
 76149  1  0  0  0
 76150  1  0  0  0
 77 79  1  0  0  0
 77 80  1  0  0  0
 77151  1  0  0  0
 77152  1  0  0  0
 78153  1  0  0  0
 78154  1  0  0  0
 78 87  1  0  0  0
 79 87  1  0  0  0
 79155  1  0  0  0
 79156  1  0  0  0
 80157  1  0  0  0
 81158  1  0  0  0
 81159  1  0  0  0
 81160  1  0  0  0
 82161  1  0  0  0
 82162  1  0  0  0
 82163  1  0  0  0
 82 84  1  0  0  0
 83 84  1  0  0  0
 83164  1  0  0  0
 83165  1  0  0  0
 84 87  1  0  0  0
 84166  1  0  0  0
 86167  1  0  0  0
 87168  1  0  0  0
M  CHG  1  87   1
M  ISO  4   1 100  68 101  83 101  86 100
M  END
> <chiral flag>
0

> <version>
0

> <s_m_source_file>
/data/baiqing/PycharmProjects/Reinvent-master-3.2/result/LINK_invent/BTK/process_docking_weight1_custom_sum_contain_oxygen_bond_distance_aromatic_linkinvent_7_9_3/rearranged_h_0148.sdf

> <i_m_source_file_index>
49

> <r_mmod_Potential_Energy-OPLS-2005>
-209.961120605469

> <r_mmod_Stretch_Energy-OPLS-2005>
39.1481628417969

> <r_mmod_Bend_Energy-OPLS-2005>
109.909385681152

> <r_mmod_Torsional_Energy-OPLS-2005>
260.045623779297

> <r_mmod_Improper_Torsional_Energy-OPLS-2005>
3.77490139007568

> <r_mmod_Van_der_Waal_Energy-OPLS-2005>
167.028350830078

> <r_mmod_Electrostatic_Energy-OPLS-2005>
-346.743438720703

> <r_mmod_Solvation_Energy-OPLS-2005>
-453.799896240234

> <b_mmod_Minimization_Converged-OPLS-2005>
0

> <r_mmod_RMS_Derivative-OPLS-2005>
2.31220078468323

$$$$
49
                    3D
 Structure written by MMmdl.
164173  0  0  1  0            999 V2000
  -30.6780  -14.4979   20.4738 C   0  0  0  0  0  0
  -30.4160  -12.2920   19.4403 C   0  0  0  0  0  0
  -29.5002  -12.4690   18.2107 C   0  0  0  0  0  0
  -28.0177  -12.3357   18.6203 C   0  0  0  0  0  0
  -27.6538  -13.2025   19.8575 C   0  0  2  0  0  0
  -28.6968  -13.0440   20.9892 C   0  0  0  0  0  0
  -25.2628  -13.8166   20.5671 C   0  0  0  0  0  0
  -24.1854  -13.0444   20.9173 C   0  0  0  0  0  0
  -24.6396  -11.6916   20.8734 C   0  0  0  0  0  0
  -23.9057  -10.4296   21.0414 C   0  0  0  0  0  0
  -24.3617   -9.4214   21.9202 C   0  0  0  0  0  0
  -23.6289   -8.2241   22.0765 C   0  0  0  0  0  0
  -22.4271   -8.0298   21.3551 C   0  0  0  0  0  0
  -21.9892   -9.0275   20.4662 C   0  0  0  0  0  0
  -22.7220  -10.2155   20.3067 C   0  0  0  0  0  0
  -21.6867   -6.0747   22.5286 C   0  0  0  0  0  0
  -21.4016   -6.5653   23.8216 C   0  0  0  0  0  0
  -21.3641   -5.6798   24.9180 C   0  0  0  0  0  0
  -21.6030   -4.3059   24.7229 C   0  0  0  0  0  0
  -21.8814   -3.8154   23.4353 C   0  0  0  0  0  0
  -21.9196   -4.6973   22.3412 C   0  0  0  0  0  0
  -22.7883  -13.5271   21.1807 C   0  0  0  0  0  0
  -22.1669   -4.2162   21.0985 F   0  0  0  0  0  0
  -21.5613   -3.4539   25.7738 F   0  0  0  0  0  0
  -30.0217  -13.3121   20.4198 N   0  0  0  0  0  0
  -26.3006  -12.9297   20.3297 N   0  0  0  0  0  0
  -25.9321  -11.6474   20.5752 N   0  0  0  0  0  0
  -22.0485  -12.8295   22.0377 N   0  0  0  0  0  0
  -25.4428  -15.1863   20.4086 N   0  0  0  0  0  0
  -31.8682  -14.6207   20.1908 O   0  0  0  0  0  0
  -21.6645   -6.8891   21.4246 O   0  0  0  0  0  0
  -22.3582  -14.5564   20.6640 O   0  0  0  0  0  0
  -24.6139  -31.8695   23.2127 C   0  0  0  0  0  0
  -25.9044  -32.4839   23.8413 C   0  0  1  0  0  0
  -27.2386  -27.4429   20.1005 C   0  0  0  0  0  0
  -25.5894  -33.8638   24.2353 N   0  0  0  0  0  0
  -23.3991  -30.4889   21.5543 C   0  0  2  0  0  0
  -24.8444  -28.9524   20.1161 C   0  0  0  0  0  0
  -22.7404  -29.4662   22.5061 C   0  0  0  0  0  0
  -18.0273  -28.1375   22.8510 C   0  0  0  0  0  0
  -24.1474  -36.7313   23.2641 C   0  0  0  0  0  0
  -25.9243  -30.8397   21.3584 C   0  0  0  0  0  0
  -26.0022  -29.4726   20.7070 C   0  0  0  0  0  0
  -27.1993  -28.7258   20.6926 C   0  0  0  0  0  0
  -26.0651  -26.9326   19.5020 C   0  0  0  0  0  0
  -24.8717  -27.6830   19.5096 C   0  0  0  0  0  0
  -23.6028  -29.8155   20.1701 C   0  0  0  0  0  0
  -25.4093  -36.3124   24.0356 C   0  0  1  0  0  0
  -20.5861  -28.3653   23.1365 C   0  0  2  0  0  0
  -20.6767  -26.9386   22.5457 C   0  0  0  0  0  0
  -19.5738  -26.6388   21.5251 C   0  0  0  0  0  0
  -18.1910  -26.7928   22.1643 C   0  0  0  0  0  0
  -19.1520  -28.8834   23.2925 C   0  0  0  0  0  0
  -18.9442  -30.1449   23.8911 C   0  0  0  0  0  0
  -17.6441  -30.6577   24.0565 C   0  0  0  0  0  0
  -25.9034  -34.9492   23.5157 C   0  0  0  0  0  0
  -16.5333  -29.9078   23.6326 C   0  0  0  0  0  0
  -16.7262  -28.6496   23.0355 C   0  0  0  0  0  0
  -26.4457  -31.6616   25.0735 C   0  0  0  0  0  0
  -25.3741  -31.3717   26.1507 C   0  0  0  0  0  0
  -27.0267  -30.3062   24.6083 C   0  0  0  0  0  0
  -27.6045  -32.4329   25.7485 C   0  0  0  0  0  0
  -27.5575  -37.1806   24.8465 C   0  0  0  0  0  0
  -21.4143  -29.3011   22.3782 N   0  0  0  0  0  0
  -26.4279  -37.3806   23.9417 N   0  0  0  0  0  0
  -24.6640  -31.0811   22.1003 N   0  0  0  0  0  0
  -23.4203  -28.8242   23.3111 O   0  0  0  0  0  0
  -28.4331  -26.7539   20.1247 O   0  0  0  0  0  0
  -26.5569  -34.8932   22.4708 O   0  0  0  0  0  0
  -23.5343  -32.1455   23.7531 O   0  0  0  0  0  0
  -29.9295  -22.2664   22.5885 C   0  0  0  0  0  0
  -29.0684  -21.1491   20.6369 C   0  0  0  0  0  0
  -29.6917  -22.2898   21.1972 C   0  0  0  0  0  0
  -29.5674  -21.1293   23.3347 C   0  0  0  0  0  0
  -28.7883  -20.0332   21.4550 C   0  0  0  0  0  0
  -30.6564  -23.1631   18.9117 C   0  0  0  0  0  0
  -31.6922  -23.3541   19.9820 C   0  0  0  0  0  0
  -30.2154  -23.4280   20.3401 C   0  0  0  0  0  0
  -29.8207  -21.0430   24.8231 C   0  0  0  0  0  0
  -29.6905  -24.8144   20.7445 C   0  0  0  0  0  0
  -29.3837  -17.9000   20.5678 C   0  0  0  0  0  0
  -29.1992  -16.4503   21.0878 C   0  0  0  0  0  0
  -28.4426  -25.3270   19.9941 C   0  0  0  0  0  0
  -29.0348  -20.0258   22.7753 N   0  0  0  0  0  0
  -28.3126  -18.8252   20.9358 N   0  0  0  0  0  0
  -29.8982  -15.5471   20.1754 N   0  0  0  0  0  0
  -31.4641  -12.3674   19.1490 H   0  0  0  0  0  0
  -30.3001  -11.2965   19.8702 H   0  0  0  0  0  0
  -29.7451  -11.7261   17.4499 H   0  0  0  0  0  0
  -29.6765  -13.4436   17.7534 H   0  0  0  0  0  0
  -27.8324  -11.2830   18.8359 H   0  0  0  0  0  0
  -27.3694  -12.5851   17.7803 H   0  0  0  0  0  0
  -27.6692  -14.2357   19.5135 H   0  0  0  0  0  0
  -28.6714  -12.0345   21.4055 H   0  0  0  0  0  0
  -28.4803  -13.7278   21.8117 H   0  0  0  0  0  0
  -25.2774   -9.5687   22.4772 H   0  0  0  0  0  0
  -24.0003   -7.4623   22.7481 H   0  0  0  0  0  0
  -21.0816   -8.8785   19.8972 H   0  0  0  0  0  0
  -22.3685  -10.9691   19.6159 H   0  0  0  0  0  0
  -21.2019   -7.6162   23.9731 H   0  0  0  0  0  0
  -21.1458   -6.0529   25.9082 H   0  0  0  0  0  0
  -22.0610   -2.7622   23.2849 H   0  0  0  0  0  0
  -22.4062  -11.9969   22.4804 H   0  0  0  0  0  0
  -21.1114  -13.1366   22.2554 H   0  0  0  0  0  0
  -24.6944  -15.8583   20.5375 H   0  0  0  0  0  0
  -26.3176  -15.6085   20.1205 H   0  0  0  0  0  0
  -26.7112  -32.5539   23.1176 H   0  0  0  0  0  0
  -25.0062  -33.9803   25.0517 H   0  0  0  0  0  0
  -22.6839  -31.3038   21.4182 H   0  0  0  0  0  0
  -23.3747  -35.9639   23.3317 H   0  0  0  0  0  0
  -24.3562  -36.8908   22.2049 H   0  0  0  0  0  0
  -23.7223  -37.6527   23.6637 H   0  0  0  0  0  0
  -26.0316  -31.6055   20.5897 H   0  0  0  0  0  0
  -26.8163  -30.8998   21.9703 H   0  0  0  0  0  0
  -28.0948  -29.1254   21.1500 H   0  0  0  0  0  0
  -26.0636  -25.9625   19.0255 H   0  0  0  0  0  0
  -23.9827  -27.2789   19.0444 H   0  0  0  0  0  0
  -23.6979  -30.5901   19.4065 H   0  0  0  0  0  0
  -22.7254  -29.2311   19.8851 H   0  0  0  0  0  0
  -25.1271  -36.1987   25.0849 H   0  0  0  0  0  0
  -20.9941  -28.3205   24.1499 H   0  0  0  0  0  0
  -20.5709  -26.2240   23.3643 H   0  0  0  0  0  0
  -21.6633  -26.7466   22.1214 H   0  0  0  0  0  0
  -19.6894  -25.6317   21.1247 H   0  0  0  0  0  0
  -19.6673  -27.3237   20.6810 H   0  0  0  0  0  0
  -17.4204  -26.6722   21.4017 H   0  0  0  0  0  0
  -18.0247  -26.0060   22.9017 H   0  0  0  0  0  0
  -19.7911  -30.7271   24.2280 H   0  0  0  0  0  0
  -17.4990  -31.6261   24.5165 H   0  0  0  0  0  0
  -15.5331  -30.2978   23.7657 H   0  0  0  0  0  0
  -15.8663  -28.0825   22.7061 H   0  0  0  0  0  0
  -24.5915  -30.7037   25.7883 H   0  0  0  0  0  0
  -24.8919  -32.2862   26.4961 H   0  0  0  0  0  0
  -25.8127  -30.8912   27.0260 H   0  0  0  0  0  0
  -26.2796  -29.6844   24.1127 H   0  0  0  0  0  0
  -27.4039  -29.7266   25.4518 H   0  0  0  0  0  0
  -27.8632  -30.4393   23.9221 H   0  0  0  0  0  0
  -27.2673  -33.3622   26.2081 H   0  0  0  0  0  0
  -28.3832  -32.6898   25.0297 H   0  0  0  0  0  0
  -28.0728  -31.8442   26.5378 H   0  0  0  0  0  0
  -28.2619  -38.0078   24.7507 H   0  0  0  0  0  0
  -28.1042  -36.2619   24.6294 H   0  0  0  0  0  0
  -27.2291  -37.1468   25.8866 H   0  0  0  0  0  0
  -20.9327  -29.8643   21.6914 H   0  0  0  0  0  0
  -26.0177  -38.2891   24.1416 H   0  0  0  0  0  0
  -30.4265  -23.0933   23.0761 H   0  0  0  0  0  0
  -28.8784  -21.1159   19.5733 H   0  0  0  0  0  0
  -30.5594  -22.1593   18.5057 H   0  0  0  0  0  0
  -30.5382  -23.9660   18.1883 H   0  0  0  0  0  0
  -32.2743  -24.2738   19.9360 H   0  0  0  0  0  0
  -32.2519  -22.4741   20.2914 H   0  0  0  0  0  0
  -30.8047  -20.6159   25.0129 H   0  0  0  0  0  0
  -29.0773  -20.4065   25.3071 H   0  0  0  0  0  0
  -29.7729  -22.0268   25.2885 H   0  0  0  0  0  0
  -30.4906  -25.5275   20.5442 H   0  0  0  0  0  0
  -29.5417  -24.8708   21.8216 H   0  0  0  0  0  0
  -29.4044  -17.8995   19.4758 H   0  0  0  0  0  0
  -30.3596  -18.2824   20.8751 H   0  0  0  0  0  0
  -29.5682  -16.3574   22.1099 H   0  0  0  0  0  0
  -28.1450  -16.1719   21.1020 H   0  0  0  0  0  0
  -27.5517  -24.8543   20.4112 H   0  0  0  0  0  0
  -28.4907  -25.0751   18.9341 H   0  0  0  0  0  0
  -27.6983  -18.9712   20.1412 H   0  0  0  0  0  0
  -30.3376  -16.0757   19.4383 H   0  0  0  0  0  0
  1 25  1  0  0  0
  1 30  2  0  0  0
  1 86  1  0  0  0
  2  3  1  0  0  0
  2 25  1  0  0  0
  2 87  1  0  0  0
  2 88  1  0  0  0
  3  4  1  0  0  0
  3 89  1  0  0  0
  3 90  1  0  0  0
  4  5  1  0  0  0
  4 91  1  0  0  0
  4 92  1  0  0  0
  5  6  1  0  0  0
  5 26  1  0  0  0
  5 93  1  0  0  0
  6 25  1  0  0  0
  6 94  1  0  0  0
  6 95  1  0  0  0
  7  8  2  0  0  0
  7 26  1  0  0  0
  7 29  1  0  0  0
  8  9  1  0  0  0
  8 22  1  0  0  0
  9 10  1  0  0  0
  9 27  2  0  0  0
 10 11  2  0  0  0
 10 15  1  0  0  0
 11 12  1  0  0  0
 11 96  1  0  0  0
 12 13  2  0  0  0
 12 97  1  0  0  0
 13 14  1  0  0  0
 13 31  1  0  0  0
 14 15  2  0  0  0
 14 98  1  0  0  0
 15 99  1  0  0  0
 16 17  2  0  0  0
 16 21  1  0  0  0
 16 31  1  0  0  0
 17 18  1  0  0  0
 17100  1  0  0  0
 18 19  2  0  0  0
 18101  1  0  0  0
 19 20  1  0  0  0
 19 24  1  0  0  0
 20 21  2  0  0  0
 20102  1  0  0  0
 21 23  1  0  0  0
 22 28  1  0  0  0
 22 32  2  0  0  0
 26 27  1  0  0  0
 28103  1  0  0  0
 28104  1  0  0  0
 29105  1  0  0  0
 29106  1  0  0  0
 33 34  1  0  0  0
 33 66  1  0  0  0
 33 70  2  0  0  0
 34 36  1  0  0  0
 34 59  1  0  0  0
 34107  1  0  0  0
 35 44  2  0  0  0
 35 45  1  0  0  0
 35 68  1  0  0  0
 36 56  1  0  0  0
 36108  1  0  0  0
 37 39  1  0  0  0
 37 47  1  0  0  0
 37 66  1  0  0  0
 37109  1  0  0  0
 38 43  2  0  0  0
 38 46  1  0  0  0
 38 47  1  0  0  0
 39 64  1  0  0  0
 39 67  2  0  0  0
 40 52  1  0  0  0
 40 53  2  0  0  0
 40 58  1  0  0  0
 41110  1  0  0  0
 41111  1  0  0  0
 41112  1  0  0  0
 41 48  1  0  0  0
 42 43  1  0  0  0
 42 66  1  0  0  0
 42113  1  0  0  0
 42114  1  0  0  0
 43 44  1  0  0  0
 44115  1  0  0  0
 45 46  2  0  0  0
 45116  1  0  0  0
 46117  1  0  0  0
 47118  1  0  0  0
 47119  1  0  0  0
 48 56  1  0  0  0
 48 65  1  0  0  0
 48120  1  0  0  0
 49 50  1  0  0  0
 49 53  1  0  0  0
 49 64  1  0  0  0
 49121  1  0  0  0
 50 51  1  0  0  0
 50122  1  0  0  0
 50123  1  0  0  0
 51 52  1  0  0  0
 51124  1  0  0  0
 51125  1  0  0  0
 52126  1  0  0  0
 52127  1  0  0  0
 53 54  1  0  0  0
 54 55  2  0  0  0
 54128  1  0  0  0
 55 57  1  0  0  0
 55129  1  0  0  0
 56 69  2  0  0  0
 57 58  2  0  0  0
 57130  1  0  0  0
 58131  1  0  0  0
 59 60  1  0  0  0
 59 61  1  0  0  0
 59 62  1  0  0  0
 60132  1  0  0  0
 60133  1  0  0  0
 60134  1  0  0  0
 61135  1  0  0  0
 61136  1  0  0  0
 61137  1  0  0  0
 62138  1  0  0  0
 62139  1  0  0  0
 62140  1  0  0  0
 63 65  1  0  0  0
 63141  1  0  0  0
 63142  1  0  0  0
 63143  1  0  0  0
 64144  1  0  0  0
 65145  1  0  0  0
 68 83  1  0  0  0
 71 73  2  0  0  0
 71 74  1  0  0  0
 71146  1  0  0  0
 72 73  1  0  0  0
 72 75  2  0  0  0
 72147  1  0  0  0
 73 78  1  0  0  0
 74 79  1  0  0  0
 74 84  2  0  0  0
 75 84  1  0  0  0
 75 85  1  0  0  0
 76 77  1  0  0  0
 76 78  1  0  0  0
 76148  1  0  0  0
 76149  1  0  0  0
 77 78  1  0  0  0
 77150  1  0  0  0
 77151  1  0  0  0
 78 80  1  0  0  0
 79152  1  0  0  0
 79153  1  0  0  0
 79154  1  0  0  0
 80 83  1  0  0  0
 80155  1  0  0  0
 80156  1  0  0  0
 81 82  1  0  0  0
 81 85  1  0  0  0
 81157  1  0  0  0
 81158  1  0  0  0
 82 86  1  0  0  0
 82159  1  0  0  0
 82160  1  0  0  0
 83161  1  0  0  0
 83162  1  0  0  0
 85163  1  0  0  0
 86164  1  0  0  0
M  ISO  4   1 100  68 101  83 101  86 100
M  END
> <chiral flag>
0

> <version>
0

> <s_m_source_file>
/data/baiqing/PycharmProjects/Reinvent-master-3.2/result/LINK_invent/BTK/process_docking_weight1_custom_sum_contain_oxygen_bond_distance_aromatic_linkinvent_7_9_3/rearranged_h_0148.sdf

> <i_m_source_file_index>
50

> <r_mmod_Potential_Energy-OPLS-2005>
-244.825408935547

> <r_mmod_Stretch_Energy-OPLS-2005>
34.3000526428223

> <r_mmod_Bend_Energy-OPLS-2005>
116.465934753418

> <r_mmod_Torsional_Energy-OPLS-2005>
337.057586669922

> <r_mmod_Improper_Torsional_Energy-OPLS-2005>
34.290355682373

> <r_mmod_Van_der_Waal_Energy-OPLS-2005>
146.901779174805

> <r_mmod_Electrostatic_Energy-OPLS-2005>
-699.480773925781

> <r_mmod_Solvation_Energy-OPLS-2005>
-235.131637573242

> <b_mmod_Minimization_Converged-OPLS-2005>
0

> <r_mmod_RMS_Derivative-OPLS-2005>
3.62731909751892

$$$$
50
                    3D
 Structure written by MMmdl.
164174  0  0  1  0            999 V2000
  -30.7528  -14.5652   20.5343 C   0  0  0  0  0  0
  -30.4049  -12.3758   19.4356 C   0  0  0  0  0  0
  -29.4769  -12.4992   18.2114 C   0  0  0  0  0  0
  -28.0070  -12.3439   18.6434 C   0  0  0  0  0  0
  -27.6461  -13.2255   19.8718 C   0  0  2  0  0  0
  -28.7017  -13.0871   20.9922 C   0  0  0  0  0  0
  -25.2526  -13.8189   20.5766 C   0  0  0  0  0  0
  -24.1808  -13.0451   20.9227 C   0  0  0  0  0  0
  -24.6395  -11.6915   20.8787 C   0  0  0  0  0  0
  -23.9093  -10.4282   21.0421 C   0  0  0  0  0  0
  -24.3621   -9.4173   21.9200 C   0  0  0  0  0  0
  -23.6269   -8.2226   22.0759 C   0  0  0  0  0  0
  -22.4253   -8.0272   21.3551 C   0  0  0  0  0  0
  -21.9915   -9.0263   20.4654 C   0  0  0  0  0  0
  -22.7267  -10.2126   20.3076 C   0  0  0  0  0  0
  -21.6835   -6.0727   22.5291 C   0  0  0  0  0  0
  -21.4011   -6.5649   23.8216 C   0  0  0  0  0  0
  -21.3654   -5.6806   24.9192 C   0  0  0  0  0  0
  -21.6032   -4.3066   24.7230 C   0  0  0  0  0  0
  -21.8810   -3.8148   23.4359 C   0  0  0  0  0  0
  -21.9175   -4.6961   22.3405 C   0  0  0  0  0  0
  -22.7837  -13.5211   21.1859 C   0  0  0  0  0  0
  -22.1657   -4.2148   21.0986 F   0  0  0  0  0  0
  -21.5613   -3.4550   25.7741 F   0  0  0  0  0  0
  -29.9998  -13.4285   20.3945 N   0  0  0  0  0  0
  -26.2970  -12.9409   20.3471 N   0  0  0  0  0  0
  -25.9326  -11.6555   20.5875 N   0  0  0  0  0  0
  -22.0491  -12.8210   22.0409 N   0  0  0  0  0  0
  -25.4208  -15.1913   20.4137 N   0  0  0  0  0  0
  -31.9486  -14.5143   20.2293 O   0  0  0  0  0  0
  -21.6625   -6.8867   21.4238 O   0  0  0  0  0  0
  -22.3537  -14.5538   20.6706 O   0  0  0  0  0  0
  -24.6162  -31.8708   23.2201 C   0  0  0  0  0  0
  -25.9066  -32.4831   23.8452 C   0  0  1  0  0  0
  -27.1824  -27.3530   20.0699 C   0  0  0  0  0  0
  -25.5951  -33.8637   24.2384 N   0  0  0  0  0  0
  -23.4033  -30.5030   21.5679 C   0  0  2  0  0  0
  -24.8416  -28.9794   20.1204 C   0  0  0  0  0  0
  -22.7377  -29.4676   22.5046 C   0  0  0  0  0  0
  -18.0255  -28.1307   22.8480 C   0  0  0  0  0  0
  -24.1494  -36.7314   23.2622 C   0  0  0  0  0  0
  -25.9482  -30.7822   21.4132 C   0  0  0  0  0  0
  -26.0061  -29.4122   20.7677 C   0  0  0  0  0  0
  -27.1710  -28.5840   20.7877 C   0  0  0  0  0  0
  -26.0629  -27.0969   19.2792 C   0  0  0  0  0  0
  -24.8643  -27.8044   19.3721 C   0  0  0  0  0  0
  -23.6094  -29.8517   20.1807 C   0  0  0  0  0  0
  -25.4114  -36.3127   24.0333 C   0  0  1  0  0  0
  -20.5846  -28.3620   23.1280 C   0  0  2  0  0  0
  -20.6726  -26.9356   22.5364 C   0  0  0  0  0  0
  -19.5725  -26.6347   21.5137 C   0  0  0  0  0  0
  -18.1911  -26.7856   22.1587 C   0  0  0  0  0  0
  -19.1507  -28.8776   23.2889 C   0  0  0  0  0  0
  -18.9436  -30.1374   23.8911 C   0  0  0  0  0  0
  -17.6443  -30.6541   24.0534 C   0  0  0  0  0  0
  -25.9045  -34.9488   23.5151 C   0  0  0  0  0  0
  -16.5327  -29.9036   23.6310 C   0  0  0  0  0  0
  -16.7243  -28.6429   23.0368 C   0  0  0  0  0  0
  -26.4461  -31.6584   25.0780 C   0  0  0  0  0  0
  -25.3741  -31.3649   26.1547 C   0  0  0  0  0  0
  -27.0298  -30.3021   24.6180 C   0  0  0  0  0  0
  -27.6053  -32.4285   25.7503 C   0  0  0  0  0  0
  -27.5597  -37.1806   24.8476 C   0  0  0  0  0  0
  -21.4107  -29.3047   22.3737 N   0  0  0  0  0  0
  -26.4310  -37.3801   23.9410 N   0  0  0  0  0  0
  -24.6740  -31.0684   22.1210 N   0  0  0  0  0  0
  -23.4110  -28.8165   23.3068 O   0  0  0  0  0  0
  -28.2662  -26.4756   20.0039 O   0  0  0  0  0  0
  -26.5600  -34.8926   22.4709 O   0  0  0  0  0  0
  -23.5347  -32.1562   23.7542 O   0  0  0  0  0  0
  -27.5458  -22.7027   20.0152 C   0  0  0  0  0  0
  -29.5083  -23.3188   21.1748 C   0  0  0  0  0  0
  -27.2885  -24.0563   19.7034 C   0  0  0  0  0  0
  -28.6625  -22.2771   20.7288 C   0  0  0  0  0  0
  -28.2058  -25.0655   20.2098 C   0  0  0  0  0  0
  -25.4889  -23.0736   17.9617 C   0  0  0  0  0  0
  -26.0241  -24.3390   17.3693 C   0  0  0  0  0  0
  -30.4376  -18.3480   19.9321 C   0  0  0  0  0  0
  -28.8463  -17.8183   21.6707 C   0  0  0  0  0  0
  -30.9778  -16.9019   19.9214 C   0  0  0  0  0  0
  -29.1680  -16.2798   21.5815 C   0  0  0  0  0  0
  -26.0183  -24.1791   18.8807 C   0  0  0  0  0  0
  -30.0370  -18.7444   21.3507 C   0  0  0  0  0  0
  -29.8768  -20.2987   21.5914 C   0  0  0  0  0  0
  -29.2907  -24.6434   20.9191 N   0  0  0  0  0  0
  -30.1608  -15.8201   20.5637 N   0  0  0  0  0  0
  -28.7951  -20.8929   20.8667 O   0  0  0  0  0  0
  -31.4470  -12.4539   19.1193 H   0  0  0  0  0  0
  -30.3104  -11.3896   19.8919 H   0  0  0  0  0  0
  -29.7288  -11.7394   17.4691 H   0  0  0  0  0  0
  -29.6230  -13.4676   17.7293 H   0  0  0  0  0  0
  -27.8609  -11.2941   18.8999 H   0  0  0  0  0  0
  -27.3314  -12.5424   17.8091 H   0  0  0  0  0  0
  -27.6621  -14.2619   19.5348 H   0  0  0  0  0  0
  -28.7250  -12.0641   21.3697 H   0  0  0  0  0  0
  -28.4676  -13.6935   21.8664 H   0  0  0  0  0  0
  -25.2753   -9.5632   22.4798 H   0  0  0  0  0  0
  -23.9945   -7.4615   22.7498 H   0  0  0  0  0  0
  -21.0845   -8.8813   19.8960 H   0  0  0  0  0  0
  -22.3746  -10.9681   19.6201 H   0  0  0  0  0  0
  -21.2047   -7.6163   23.9737 H   0  0  0  0  0  0
  -21.1482   -6.0540   25.9094 H   0  0  0  0  0  0
  -22.0590   -2.7612   23.2874 H   0  0  0  0  0  0
  -22.4093  -11.9830   22.4751 H   0  0  0  0  0  0
  -21.1132  -13.1273   22.2647 H   0  0  0  0  0  0
  -24.6561  -15.8471   20.5241 H   0  0  0  0  0  0
  -26.2795  -15.6290   20.1059 H   0  0  0  0  0  0
  -26.7106  -32.5501   23.1171 H   0  0  0  0  0  0
  -25.0080  -33.9776   25.0519 H   0  0  0  0  0  0
  -22.6999  -31.3293   21.4370 H   0  0  0  0  0  0
  -23.3751  -35.9654   23.3289 H   0  0  0  0  0  0
  -24.3598  -36.8913   22.2034 H   0  0  0  0  0  0
  -23.7235  -37.6512   23.6638 H   0  0  0  0  0  0
  -26.0930  -31.5343   20.6363 H   0  0  0  0  0  0
  -26.8242  -30.8293   22.0445 H   0  0  0  0  0  0
  -28.0522  -28.8869   21.3349 H   0  0  0  0  0  0
  -26.1529  -26.4229   18.4675 H   0  0  0  0  0  0
  -24.0205  -27.5176   18.7613 H   0  0  0  0  0  0
  -23.7194  -30.6332   19.4307 H   0  0  0  0  0  0
  -22.7239  -29.2876   19.8779 H   0  0  0  0  0  0
  -25.1282  -36.1998   25.0820 H   0  0  0  0  0  0
  -20.9931  -28.3136   24.1404 H   0  0  0  0  0  0
  -20.5503  -26.2230   23.3539 H   0  0  0  0  0  0
  -21.6614  -26.7321   22.1242 H   0  0  0  0  0  0
  -19.6888  -25.6258   21.1162 H   0  0  0  0  0  0
  -19.6661  -27.3146   20.6655 H   0  0  0  0  0  0
  -17.4155  -26.6556   21.4015 H   0  0  0  0  0  0
  -18.0384  -25.9967   22.8971 H   0  0  0  0  0  0
  -19.7917  -30.7162   24.2295 H   0  0  0  0  0  0
  -17.5014  -31.6239   24.5099 H   0  0  0  0  0  0
  -15.5336  -30.2954   23.7624 H   0  0  0  0  0  0
  -15.8628  -28.0738   22.7133 H   0  0  0  0  0  0
  -24.5935  -30.6961   25.7898 H   0  0  0  0  0  0
  -24.8895  -32.2759   26.5062 H   0  0  0  0  0  0
  -25.8122  -30.8802   27.0287 H   0  0  0  0  0  0
  -26.2862  -29.6774   24.1218 H   0  0  0  0  0  0
  -27.4028  -29.7252   25.4644 H   0  0  0  0  0  0
  -27.8735  -30.4290   23.9394 H   0  0  0  0  0  0
  -27.2693  -33.3587   26.2083 H   0  0  0  0  0  0
  -28.3823  -32.6807   25.0284 H   0  0  0  0  0  0
  -28.0770  -31.8415   26.5388 H   0  0  0  0  0  0
  -28.2620  -38.0099   24.7551 H   0  0  0  0  0  0
  -28.1087  -36.2631   24.6297 H   0  0  0  0  0  0
  -27.2327  -37.1463   25.8883 H   0  0  0  0  0  0
  -20.9247  -29.8833   21.7038 H   0  0  0  0  0  0
  -26.0214  -38.2884   24.1423 H   0  0  0  0  0  0
  -26.8831  -21.9214   19.6833 H   0  0  0  0  0  0
  -30.4015  -23.0889   21.7307 H   0  0  0  0  0  0
  -26.0724  -22.1916   17.7027 H   0  0  0  0  0  0
  -24.4075  -22.9323   17.9345 H   0  0  0  0  0  0
  -25.2727  -24.9796   16.9156 H   0  0  0  0  0  0
  -26.9893  -24.3119   16.8665 H   0  0  0  0  0  0
  -29.5925  -18.4387   19.2493 H   0  0  0  0  0  0
  -31.2010  -19.0274   19.5466 H   0  0  0  0  0  0
  -28.0319  -18.0557   20.9822 H   0  0  0  0  0  0
  -28.4554  -18.0475   22.6625 H   0  0  0  0  0  0
  -31.2042  -16.6258   18.8902 H   0  0  0  0  0  0
  -31.9429  -16.9470   20.4342 H   0  0  0  0  0  0
  -29.5315  -15.9666   22.5602 H   0  0  0  0  0  0
  -28.2214  -15.7649   21.4246 H   0  0  0  0  0  0
  -25.2412  -24.6604   19.4684 H   0  0  0  0  0  0
  -30.8557  -18.4369   22.0059 H   0  0  0  0  0  0
  -30.8138  -20.7944   21.3255 H   0  0  0  0  0  0
  -29.7244  -20.4973   22.6556 H   0  0  0  0  0  0
  1 25  1  0  0  0
  1 30  2  0  0  0
  1 86  1  0  0  0
  2  3  1  0  0  0
  2 25  1  0  0  0
  2 88  1  0  0  0
  2 89  1  0  0  0
  3  4  1  0  0  0
  3 90  1  0  0  0
  3 91  1  0  0  0
  4  5  1  0  0  0
  4 92  1  0  0  0
  4 93  1  0  0  0
  5  6  1  0  0  0
  5 26  1  0  0  0
  5 94  1  0  0  0
  6 25  1  0  0  0
  6 95  1  0  0  0
  6 96  1  0  0  0
  7  8  2  0  0  0
  7 26  1  0  0  0
  7 29  1  0  0  0
  8  9  1  0  0  0
  8 22  1  0  0  0
  9 10  1  0  0  0
  9 27  2  0  0  0
 10 11  2  0  0  0
 10 15  1  0  0  0
 11 12  1  0  0  0
 11 97  1  0  0  0
 12 13  2  0  0  0
 12 98  1  0  0  0
 13 14  1  0  0  0
 13 31  1  0  0  0
 14 15  2  0  0  0
 14 99  1  0  0  0
 15100  1  0  0  0
 16 17  2  0  0  0
 16 21  1  0  0  0
 16 31  1  0  0  0
 17 18  1  0  0  0
 17101  1  0  0  0
 18 19  2  0  0  0
 18102  1  0  0  0
 19 20  1  0  0  0
 19 24  1  0  0  0
 20 21  2  0  0  0
 20103  1  0  0  0
 21 23  1  0  0  0
 22 28  1  0  0  0
 22 32  2  0  0  0
 26 27  1  0  0  0
 28104  1  0  0  0
 28105  1  0  0  0
 29106  1  0  0  0
 29107  1  0  0  0
 33 34  1  0  0  0
 33 66  1  0  0  0
 33 70  2  0  0  0
 34 36  1  0  0  0
 34 59  1  0  0  0
 34108  1  0  0  0
 35 44  2  0  0  0
 35 45  1  0  0  0
 35 68  1  0  0  0
 36 56  1  0  0  0
 36109  1  0  0  0
 37 39  1  0  0  0
 37 47  1  0  0  0
 37 66  1  0  0  0
 37110  1  0  0  0
 38 43  2  0  0  0
 38 46  1  0  0  0
 38 47  1  0  0  0
 39 64  1  0  0  0
 39 67  2  0  0  0
 40 52  1  0  0  0
 40 53  2  0  0  0
 40 58  1  0  0  0
 41111  1  0  0  0
 41112  1  0  0  0
 41113  1  0  0  0
 41 48  1  0  0  0
 42 43  1  0  0  0
 42 66  1  0  0  0
 42114  1  0  0  0
 42115  1  0  0  0
 43 44  1  0  0  0
 44116  1  0  0  0
 45 46  2  0  0  0
 45117  1  0  0  0
 46118  1  0  0  0
 47119  1  0  0  0
 47120  1  0  0  0
 48 56  1  0  0  0
 48 65  1  0  0  0
 48121  1  0  0  0
 49 50  1  0  0  0
 49 53  1  0  0  0
 49 64  1  0  0  0
 49122  1  0  0  0
 50 51  1  0  0  0
 50123  1  0  0  0
 50124  1  0  0  0
 51 52  1  0  0  0
 51125  1  0  0  0
 51126  1  0  0  0
 52127  1  0  0  0
 52128  1  0  0  0
 53 54  1  0  0  0
 54 55  2  0  0  0
 54129  1  0  0  0
 55 57  1  0  0  0
 55130  1  0  0  0
 56 69  2  0  0  0
 57 58  2  0  0  0
 57131  1  0  0  0
 58132  1  0  0  0
 59 60  1  0  0  0
 59 61  1  0  0  0
 59 62  1  0  0  0
 60133  1  0  0  0
 60134  1  0  0  0
 60135  1  0  0  0
 61136  1  0  0  0
 61137  1  0  0  0
 61138  1  0  0  0
 62139  1  0  0  0
 62140  1  0  0  0
 62141  1  0  0  0
 63 65  1  0  0  0
 63142  1  0  0  0
 63143  1  0  0  0
 63144  1  0  0  0
 64145  1  0  0  0
 65146  1  0  0  0
 68 75  1  0  0  0
 71 73  2  0  0  0
 71 74  1  0  0  0
 71147  1  0  0  0
 72 74  2  0  0  0
 72 85  1  0  0  0
 72148  1  0  0  0
 73 75  1  0  0  0
 73 82  1  0  0  0
 74 87  1  0  0  0
 75 85  2  0  0  0
 76 77  1  0  0  0
 76 82  1  0  0  0
 76149  1  0  0  0
 76150  1  0  0  0
 77 82  1  0  0  0
 77151  1  0  0  0
 77152  1  0  0  0
 78 80  1  0  0  0
 78 83  1  0  0  0
 78153  1  0  0  0
 78154  1  0  0  0
 79 81  1  0  0  0
 79 83  1  0  0  0
 79155  1  0  0  0
 79156  1  0  0  0
 80 86  1  0  0  0
 80157  1  0  0  0
 80158  1  0  0  0
 81 86  1  0  0  0
 81159  1  0  0  0
 81160  1  0  0  0
 82161  1  0  0  0
 83 84  1  0  0  0
 83162  1  0  0  0
 84 87  1  0  0  0
 84163  1  0  0  0
 84164  1  0  0  0
M  ISO  4   1 100  68 101  75 101  86 100
M  END
> <chiral flag>
0

> <version>
0

> <s_m_source_file>
/data/baiqing/PycharmProjects/Reinvent-master-3.2/result/LINK_invent/BTK/process_docking_weight1_custom_sum_contain_oxygen_bond_distance_aromatic_linkinvent_7_9_3/rearranged_h_0148.sdf

> <i_m_source_file_index>
51

> <r_mmod_Potential_Energy-OPLS-2005>
351.320709228516

> <r_mmod_Stretch_Energy-OPLS-2005>
74.2974319458008

> <r_mmod_Bend_Energy-OPLS-2005>
218.835296630859

> <r_mmod_Torsional_Energy-OPLS-2005>
360.071411132812

> <r_mmod_Improper_Torsional_Energy-OPLS-2005>
16.1939144134521

> <r_mmod_Van_der_Waal_Energy-OPLS-2005>
189.111953735352

> <r_mmod_Electrostatic_Energy-OPLS-2005>
-358.445159912109

> <r_mmod_Solvation_Energy-OPLS-2005>
-206.494232177734

> <b_mmod_Minimization_Converged-OPLS-2005>
0

> <r_mmod_RMS_Derivative-OPLS-2005>
5.33858966827393

$$$$
51
                    3D
 Structure written by MMmdl.
175184  0  0  1  0            999 V2000
  -30.6661  -14.5814   20.5116 C   0  0  0  0  0  0
  -30.4304  -12.3609   19.4397 C   0  0  0  0  0  0
  -29.5012  -12.4985   18.2157 C   0  0  0  0  0  0
  -28.0231  -12.3473   18.6293 C   0  0  0  0  0  0
  -27.6528  -13.2157   19.8625 C   0  0  2  0  0  0
  -28.7006  -13.0621   20.9887 C   0  0  0  0  0  0
  -25.2542  -13.8174   20.5691 C   0  0  0  0  0  0
  -24.1817  -13.0432   20.9190 C   0  0  0  0  0  0
  -24.6394  -11.6904   20.8733 C   0  0  0  0  0  0
  -23.9066  -10.4286   21.0408 C   0  0  0  0  0  0
  -24.3619   -9.4201   21.9181 C   0  0  0  0  0  0
  -23.6299   -8.2232   22.0753 C   0  0  0  0  0  0
  -22.4279   -8.0274   21.3548 C   0  0  0  0  0  0
  -21.9909   -9.0242   20.4645 C   0  0  0  0  0  0
  -22.7236  -10.2122   20.3062 C   0  0  0  0  0  0
  -21.6849   -6.0735   22.5283 C   0  0  0  0  0  0
  -21.4012   -6.5643   23.8215 C   0  0  0  0  0  0
  -21.3658   -5.6795   24.9177 C   0  0  0  0  0  0
  -21.6039   -4.3056   24.7233 C   0  0  0  0  0  0
  -21.8813   -3.8146   23.4352 C   0  0  0  0  0  0
  -21.9195   -4.6961   22.3406 C   0  0  0  0  0  0
  -22.7834  -13.5215   21.1851 C   0  0  0  0  0  0
  -22.1665   -4.2146   21.0983 F   0  0  0  0  0  0
  -21.5630   -3.4545   25.7750 F   0  0  0  0  0  0
  -30.0194  -13.3815   20.4199 N   0  0  0  0  0  0
  -26.2985  -12.9360   20.3329 N   0  0  0  0  0  0
  -25.9324  -11.6519   20.5758 N   0  0  0  0  0  0
  -22.0485  -12.8212   22.0415 N   0  0  0  0  0  0
  -25.4214  -15.1896   20.4092 N   0  0  0  0  0  0
  -31.8314  -14.7294   20.1363 O   0  0  0  0  0  0
  -21.6633   -6.8876   21.4248 O   0  0  0  0  0  0
  -22.3520  -14.5521   20.6700 O   0  0  0  0  0  0
  -24.6222  -31.8622   23.2052 C   0  0  0  0  0  0
  -25.9081  -32.4790   23.8371 C   0  0  1  0  0  0
  -27.2325  -27.3569   20.1043 C   0  0  0  0  0  0
  -25.5909  -33.8591   24.2297 N   0  0  0  0  0  0
  -23.4146  -30.4860   21.5470 C   0  0  2  0  0  0
  -24.8612  -28.9450   20.1132 C   0  0  0  0  0  0
  -22.7451  -29.4634   22.4948 C   0  0  0  0  0  0
  -18.0281  -28.1381   22.8488 C   0  0  0  0  0  0
  -24.1486  -36.7302   23.2642 C   0  0  0  0  0  0
  -25.9523  -30.8039   21.3717 C   0  0  0  0  0  0
  -26.0282  -29.4341   20.7134 C   0  0  0  0  0  0
  -27.2157  -28.6514   20.7000 C   0  0  0  0  0  0
  -26.0398  -26.9089   19.4874 C   0  0  0  0  0  0
  -24.8667  -27.6856   19.4943 C   0  0  0  0  0  0
  -23.6279  -29.8213   20.1623 C   0  0  0  0  0  0
  -25.4109  -36.3095   24.0335 C   0  0  1  0  0  0
  -20.5876  -28.3679   23.1292 C   0  0  2  0  0  0
  -20.6763  -26.9406   22.5411 C   0  0  0  0  0  0
  -19.5743  -26.6385   21.5209 C   0  0  0  0  0  0
  -18.1925  -26.7924   22.1620 C   0  0  0  0  0  0
  -19.1530  -28.8847   23.2887 C   0  0  0  0  0  0
  -18.9458  -30.1451   23.8905 C   0  0  0  0  0  0
  -17.6459  -30.6586   24.0565 C   0  0  0  0  0  0
  -25.9044  -34.9459   23.5119 C   0  0  0  0  0  0
  -16.5352  -29.9089   23.6326 C   0  0  0  0  0  0
  -16.7270  -28.6503   23.0351 C   0  0  0  0  0  0
  -26.4486  -31.6589   25.0725 C   0  0  0  0  0  0
  -25.3737  -31.3706   26.1462 C   0  0  0  0  0  0
  -27.0327  -30.3021   24.6153 C   0  0  0  0  0  0
  -27.6053  -32.4318   25.7486 C   0  0  0  0  0  0
  -27.5580  -37.1807   24.8468 C   0  0  0  0  0  0
  -21.4168  -29.3039   22.3695 N   0  0  0  0  0  0
  -26.4292  -37.3784   23.9411 N   0  0  0  0  0  0
  -24.6816  -31.0663   22.0988 N   0  0  0  0  0  0
  -23.4188  -28.8174   23.3017 O   0  0  0  0  0  0
  -28.3752  -26.5522   20.1416 O   0  0  0  0  0  0
  -26.5618  -34.8917   22.4687 O   0  0  0  0  0  0
  -23.5392  -32.1408   23.7396 O   0  0  0  0  0  0
  -30.8614  -19.8065   18.6731 C   0  0  0  0  0  0
  -28.5097  -20.4987   19.4723 C   0  0  0  0  0  0
  -30.2976  -20.3962   21.0898 C   0  0  0  0  0  0
  -30.3568  -19.3428   17.2860 C   0  0  0  0  0  0
  -28.7080  -22.0427   19.3148 C   0  0  0  0  0  0
  -29.5619  -17.3642   18.5342 C   0  0  0  0  0  0
  -29.4788  -18.0737   19.9307 C   0  0  2  0  0  0
  -30.4740  -21.9628   21.0142 C   0  0  2  0  0  0
  -29.8017  -19.6687   19.8029 C   0  0  2  0  0  0
  -30.9670  -22.4687   22.3852 C   0  0  0  0  0  0
  -30.0826  -17.4754   22.4287 C   0  0  0  0  0  0
  -29.4497  -24.2153   20.3931 C   0  0  0  0  0  0
  -28.2042  -25.0993   20.0048 C   0  0  0  0  0  0
  -30.2675  -17.1110   20.9427 C   0  0  1  0  0  0
  -29.8940  -15.6564   20.8354 N   0  0  0  0  0  0
  -29.3570  -18.2566   17.3794 N   0  3  0  0  0  0
  -29.2501  -22.7067   20.5359 N   0  3  1  0  0  0
  -31.4736  -12.4712   19.1373 H   0  0  0  0  0  0
  -30.3501  -11.3645   19.8748 H   0  0  0  0  0  0
  -29.7561  -11.7512   17.4627 H   0  0  0  0  0  0
  -29.6529  -13.4704   17.7441 H   0  0  0  0  0  0
  -27.8507  -11.2937   18.8535 H   0  0  0  0  0  0
  -27.3713  -12.5872   17.7884 H   0  0  0  0  0  0
  -27.6727  -14.2517   19.5259 H   0  0  0  0  0  0
  -28.6977  -12.0419   21.3755 H   0  0  0  0  0  0
  -28.4585  -13.7034   21.8380 H   0  0  0  0  0  0
  -25.2770   -9.5671   22.4748 H   0  0  0  0  0  0
  -24.0003   -7.4620   22.7480 H   0  0  0  0  0  0
  -21.0835   -8.8762   19.8954 H   0  0  0  0  0  0
  -22.3700  -10.9658   19.6164 H   0  0  0  0  0  0
  -21.2002   -7.6151   23.9721 H   0  0  0  0  0  0
  -21.1487   -6.0527   25.9081 H   0  0  0  0  0  0
  -22.0597   -2.7611   23.2856 H   0  0  0  0  0  0
  -22.4117  -11.9878   22.4807 H   0  0  0  0  0  0
  -21.1099  -13.1217   22.2626 H   0  0  0  0  0  0
  -24.6449  -15.8339   20.5123 H   0  0  0  0  0  0
  -26.2633  -15.6371   20.0726 H   0  0  0  0  0  0
  -26.7150  -32.5474   23.1124 H   0  0  0  0  0  0
  -25.0038  -33.9744   25.0429 H   0  0  0  0  0  0
  -22.7070  -31.3053   21.4049 H   0  0  0  0  0  0
  -23.3745  -35.9638   23.3308 H   0  0  0  0  0  0
  -24.3582  -36.8918   22.2057 H   0  0  0  0  0  0
  -23.7236  -37.6505   23.6659 H   0  0  0  0  0  0
  -26.0804  -31.5699   20.6057 H   0  0  0  0  0  0
  -26.8339  -30.8509   21.9998 H   0  0  0  0  0  0
  -28.1126  -29.0250   21.1741 H   0  0  0  0  0  0
  -25.9839  -25.9510   18.9924 H   0  0  0  0  0  0
  -23.9714  -27.3047   19.0214 H   0  0  0  0  0  0
  -23.7459  -30.5975   19.4053 H   0  0  0  0  0  0
  -22.7487  -29.2491   19.8601 H   0  0  0  0  0  0
  -25.1286  -36.1958   25.0829 H   0  0  0  0  0  0
  -20.9968  -28.3253   24.1413 H   0  0  0  0  0  0
  -20.5653  -26.2294   23.3612 H   0  0  0  0  0  0
  -21.6637  -26.7433   22.1216 H   0  0  0  0  0  0
  -19.6907  -25.6300   21.1236 H   0  0  0  0  0  0
  -19.6679  -27.3198   20.6741 H   0  0  0  0  0  0
  -17.4192  -26.6671   21.4029 H   0  0  0  0  0  0
  -18.0330  -26.0068   22.9017 H   0  0  0  0  0  0
  -19.7939  -30.7262   24.2275 H   0  0  0  0  0  0
  -17.5020  -31.6266   24.5169 H   0  0  0  0  0  0
  -15.5354  -30.2997   23.7644 H   0  0  0  0  0  0
  -15.8669  -28.0829   22.7062 H   0  0  0  0  0  0
  -24.5910  -30.7057   25.7794 H   0  0  0  0  0  0
  -24.8931  -32.2860   26.4917 H   0  0  0  0  0  0
  -25.8079  -30.8866   27.0218 H   0  0  0  0  0  0
  -26.2892  -29.6767   24.1198 H   0  0  0  0  0  0
  -27.4063  -29.7275   25.4640 H   0  0  0  0  0  0
  -27.8742  -30.4318   23.9344 H   0  0  0  0  0  0
  -27.2669  -33.3608   26.2080 H   0  0  0  0  0  0
  -28.3845  -32.6892   25.0302 H   0  0  0  0  0  0
  -28.0740  -31.8435   26.5384 H   0  0  0  0  0  0
  -28.2602  -38.0101   24.7514 H   0  0  0  0  0  0
  -28.1072  -36.2633   24.6291 H   0  0  0  0  0  0
  -27.2303  -37.1453   25.8873 H   0  0  0  0  0  0
  -20.9342  -29.8775   21.6919 H   0  0  0  0  0  0
  -26.0179  -38.2862   24.1409 H   0  0  0  0  0  0
  -31.2429  -20.8202   18.5703 H   0  0  0  0  0  0
  -31.7320  -19.2084   18.9468 H   0  0  0  0  0  0
  -28.0222  -20.1329   18.5714 H   0  0  0  0  0  0
  -27.7709  -20.3315   20.2574 H   0  0  0  0  0  0
  -29.6072  -20.1786   21.9052 H   0  0  0  0  0  0
  -31.2593  -19.9690   21.3749 H   0  0  0  0  0  0
  -31.2032  -19.0103   16.6828 H   0  0  0  0  0  0
  -29.9067  -20.1761   16.7445 H   0  0  0  0  0  0
  -27.7437  -22.4874   19.0706 H   0  0  0  0  0  0
  -29.3613  -22.2544   18.4676 H   0  0  0  0  0  0
  -28.8416  -16.5467   18.4801 H   0  0  0  0  0  0
  -30.5447  -16.9074   18.4025 H   0  0  0  0  0  0
  -28.4346  -18.0179   20.2406 H   0  0  0  0  0  0
  -31.2737  -22.1743   20.3038 H   0  0  0  0  0  0
  -30.1728  -22.4513   23.1309 H   0  0  0  0  0  0
  -31.3676  -23.4809   22.3344 H   0  0  0  0  0  0
  -31.7775  -21.8438   22.7609 H   0  0  0  0  0  0
  -30.6567  -18.3491   22.7254 H   0  0  0  0  0  0
  -30.4366  -16.6717   23.0769 H   0  0  0  0  0  0
  -29.0340  -17.6563   22.6700 H   0  0  0  0  0  0
  -29.7916  -24.6089   21.3480 H   0  0  0  0  0  0
  -30.2565  -24.4056   19.6851 H   0  0  0  0  0  0
  -27.3630  -24.7883   20.6259 H   0  0  0  0  0  0
  -27.9384  -24.8817   18.9701 H   0  0  0  0  0  0
  -31.3330  -17.1983   20.7192 H   0  0  0  0  0  0
  -28.9435  -15.4242   21.0844 H   0  0  0  0  0  0
  -29.3829  -17.7194   16.5270 H   0  0  0  0  0  0
  -28.4339  -18.6539   17.4400 H   0  0  0  0  0  0
  -28.5483  -22.5817   21.2524 H   0  0  0  0  0  0
  1 25  1  0  0  0
  1 30  2  0  0  0
  1 85  1  0  0  0
  2  3  1  0  0  0
  2 25  1  0  0  0
  2 88  1  0  0  0
  2 89  1  0  0  0
  3  4  1  0  0  0
  3 90  1  0  0  0
  3 91  1  0  0  0
  4  5  1  0  0  0
  4 92  1  0  0  0
  4 93  1  0  0  0
  5  6  1  0  0  0
  5 26  1  0  0  0
  5 94  1  0  0  0
  6 25  1  0  0  0
  6 95  1  0  0  0
  6 96  1  0  0  0
  7  8  2  0  0  0
  7 26  1  0  0  0
  7 29  1  0  0  0
  8  9  1  0  0  0
  8 22  1  0  0  0
  9 10  1  0  0  0
  9 27  2  0  0  0
 10 11  2  0  0  0
 10 15  1  0  0  0
 11 12  1  0  0  0
 11 97  1  0  0  0
 12 13  2  0  0  0
 12 98  1  0  0  0
 13 14  1  0  0  0
 13 31  1  0  0  0
 14 15  2  0  0  0
 14 99  1  0  0  0
 15100  1  0  0  0
 16 17  2  0  0  0
 16 21  1  0  0  0
 16 31  1  0  0  0
 17 18  1  0  0  0
 17101  1  0  0  0
 18 19  2  0  0  0
 18102  1  0  0  0
 19 20  1  0  0  0
 19 24  1  0  0  0
 20 21  2  0  0  0
 20103  1  0  0  0
 21 23  1  0  0  0
 22 28  1  0  0  0
 22 32  2  0  0  0
 26 27  1  0  0  0
 28104  1  0  0  0
 28105  1  0  0  0
 29106  1  0  0  0
 29107  1  0  0  0
 33 34  1  0  0  0
 33 66  1  0  0  0
 33 70  2  0  0  0
 34 36  1  0  0  0
 34 59  1  0  0  0
 34108  1  0  0  0
 35 44  2  0  0  0
 35 45  1  0  0  0
 35 68  1  0  0  0
 36 56  1  0  0  0
 36109  1  0  0  0
 37 39  1  0  0  0
 37 47  1  0  0  0
 37 66  1  0  0  0
 37110  1  0  0  0
 38 43  2  0  0  0
 38 46  1  0  0  0
 38 47  1  0  0  0
 39 64  1  0  0  0
 39 67  2  0  0  0
 40 52  1  0  0  0
 40 53  2  0  0  0
 40 58  1  0  0  0
 41111  1  0  0  0
 41112  1  0  0  0
 41113  1  0  0  0
 41 48  1  0  0  0
 42 43  1  0  0  0
 42 66  1  0  0  0
 42114  1  0  0  0
 42115  1  0  0  0
 43 44  1  0  0  0
 44116  1  0  0  0
 45 46  2  0  0  0
 45117  1  0  0  0
 46118  1  0  0  0
 47119  1  0  0  0
 47120  1  0  0  0
 48 56  1  0  0  0
 48 65  1  0  0  0
 48121  1  0  0  0
 49 50  1  0  0  0
 49 53  1  0  0  0
 49 64  1  0  0  0
 49122  1  0  0  0
 50 51  1  0  0  0
 50123  1  0  0  0
 50124  1  0  0  0
 51 52  1  0  0  0
 51125  1  0  0  0
 51126  1  0  0  0
 52127  1  0  0  0
 52128  1  0  0  0
 53 54  1  0  0  0
 54 55  2  0  0  0
 54129  1  0  0  0
 55 57  1  0  0  0
 55130  1  0  0  0
 56 69  2  0  0  0
 57 58  2  0  0  0
 57131  1  0  0  0
 58132  1  0  0  0
 59 60  1  0  0  0
 59 61  1  0  0  0
 59 62  1  0  0  0
 60133  1  0  0  0
 60134  1  0  0  0
 60135  1  0  0  0
 61136  1  0  0  0
 61137  1  0  0  0
 61138  1  0  0  0
 62139  1  0  0  0
 62140  1  0  0  0
 62141  1  0  0  0
 63 65  1  0  0  0
 63142  1  0  0  0
 63143  1  0  0  0
 63144  1  0  0  0
 64145  1  0  0  0
 65146  1  0  0  0
 68 83  1  0  0  0
 71 74  1  0  0  0
 71147  1  0  0  0
 71148  1  0  0  0
 71 79  1  0  0  0
 72 75  1  0  0  0
 72 79  1  0  0  0
 72149  1  0  0  0
 72150  1  0  0  0
 73 78  1  0  0  0
 73 79  1  0  0  0
 73151  1  0  0  0
 73152  1  0  0  0
 74 86  1  0  0  0
 74153  1  0  0  0
 74154  1  0  0  0
 75 87  1  0  0  0
 75155  1  0  0  0
 75156  1  0  0  0
 76 86  1  0  0  0
 76157  1  0  0  0
 76158  1  0  0  0
 76 77  1  0  0  0
 77 79  1  0  0  0
 77 84  1  0  0  0
 77159  1  0  0  0
 78 80  1  0  0  0
 78 87  1  0  0  0
 78160  1  0  0  0
 80161  1  0  0  0
 80162  1  0  0  0
 80163  1  0  0  0
 81164  1  0  0  0
 81165  1  0  0  0
 81166  1  0  0  0
 81 84  1  0  0  0
 82 83  1  0  0  0
 82167  1  0  0  0
 82168  1  0  0  0
 82 87  1  0  0  0
 83169  1  0  0  0
 83170  1  0  0  0
 84 85  1  0  0  0
 84171  1  0  0  0
 85172  1  0  0  0
 86173  1  0  0  0
 86174  1  0  0  0
 87175  1  0  0  0
M  CHG  2  86   1  87   1
M  ISO  4   1 100  68 101  83 101  85 100
M  END
> <chiral flag>
0

> <version>
0

> <s_m_source_file>
/data/baiqing/PycharmProjects/Reinvent-master-3.2/result/LINK_invent/BTK/process_docking_weight1_custom_sum_contain_oxygen_bond_distance_aromatic_linkinvent_7_9_3/rearranged_h_0148.sdf

> <i_m_source_file_index>
52

> <r_mmod_Potential_Energy-OPLS-2005>
-40.8602561950684

> <r_mmod_Stretch_Energy-OPLS-2005>
84.5770721435547

> <r_mmod_Bend_Energy-OPLS-2005>
154.413864135742

> <r_mmod_Torsional_Energy-OPLS-2005>
316.759399414062

> <r_mmod_Improper_Torsional_Energy-OPLS-2005>
4.65886211395264

> <r_mmod_Van_der_Waal_Energy-OPLS-2005>
147.36848449707

> <r_mmod_Electrostatic_Energy-OPLS-2005>
141.713302612305

> <r_mmod_Solvation_Energy-OPLS-2005>
-923.225769042969

> <b_mmod_Minimization_Converged-OPLS-2005>
0

> <r_mmod_RMS_Derivative-OPLS-2005>
1.35300350189209

$$$$
52
                    3D
 Structure written by MMmdl.
175184  0  0  1  0            999 V2000
  -30.6900  -14.5728   20.5092 C   0  0  0  0  0  0
  -30.4273  -12.3346   19.4791 C   0  0  0  0  0  0
  -29.5205  -12.4449   18.2394 C   0  0  0  0  0  0
  -28.0316  -12.3539   18.6354 C   0  0  0  0  0  0
  -27.6551  -13.2117   19.8848 C   0  0  2  0  0  0
  -28.7038  -13.0600   21.0073 C   0  0  0  0  0  0
  -25.2566  -13.8149   20.5739 C   0  0  0  0  0  0
  -24.1834  -13.0405   20.9217 C   0  0  0  0  0  0
  -24.6439  -11.6888   20.8783 C   0  0  0  0  0  0
  -23.9117  -10.4258   21.0374 C   0  0  0  0  0  0
  -24.3646   -9.4138   21.9118 C   0  0  0  0  0  0
  -23.6317   -8.2175   22.0721 C   0  0  0  0  0  0
  -22.4303   -8.0224   21.3502 C   0  0  0  0  0  0
  -21.9942   -9.0222   20.4622 C   0  0  0  0  0  0
  -22.7289  -10.2099   20.3028 C   0  0  0  0  0  0
  -21.6823   -6.0734   22.5287 C   0  0  0  0  0  0
  -21.3969   -6.5621   23.8226 C   0  0  0  0  0  0
  -21.3688   -5.6770   24.9201 C   0  0  0  0  0  0
  -21.6073   -4.3033   24.7203 C   0  0  0  0  0  0
  -21.8828   -3.8133   23.4316 C   0  0  0  0  0  0
  -21.9167   -4.6968   22.3389 C   0  0  0  0  0  0
  -22.7855  -13.5184   21.1812 C   0  0  0  0  0  0
  -22.1598   -4.2184   21.0947 F   0  0  0  0  0  0
  -21.5690   -3.4472   25.7670 F   0  0  0  0  0  0
  -30.0152  -13.3826   20.4268 N   0  0  0  0  0  0
  -26.3015  -12.9311   20.3452 N   0  0  0  0  0  0
  -25.9377  -11.6484   20.5926 N   0  0  0  0  0  0
  -22.0455  -12.8254   22.0370 N   0  0  0  0  0  0
  -25.4353  -15.1870   20.4117 N   0  0  0  0  0  0
  -31.8588  -14.6690   20.1130 O   0  0  0  0  0  0
  -21.6644   -6.8856   21.4231 O   0  0  0  0  0  0
  -22.3552  -14.5447   20.6616 O   0  0  0  0  0  0
  -24.6194  -31.8625   23.2041 C   0  0  0  0  0  0
  -25.9042  -32.4805   23.8384 C   0  0  1  0  0  0
  -27.2215  -27.3763   20.1002 C   0  0  0  0  0  0
  -25.5878  -33.8613   24.2333 N   0  0  0  0  0  0
  -23.4115  -30.4784   21.5514 C   0  0  2  0  0  0
  -24.8520  -28.9253   20.1242 C   0  0  0  0  0  0
  -22.7434  -29.4607   22.5029 C   0  0  0  0  0  0
  -18.0258  -28.1350   22.8496 C   0  0  0  0  0  0
  -24.1465  -36.7333   23.2649 C   0  0  0  0  0  0
  -25.9445  -30.8025   21.3658 C   0  0  0  0  0  0
  -26.0166  -29.4290   20.7186 C   0  0  0  0  0  0
  -27.2099  -28.6609   20.7014 C   0  0  0  0  0  0
  -26.0443  -26.8909   19.5074 C   0  0  0  0  0  0
  -24.8630  -27.6592   19.5086 C   0  0  0  0  0  0
  -23.6176  -29.8004   20.1705 C   0  0  0  0  0  0
  -25.4092  -36.3126   24.0354 C   0  0  1  0  0  0
  -20.5847  -28.3640   23.1348 C   0  0  2  0  0  0
  -20.6734  -26.9373   22.5432 C   0  0  0  0  0  0
  -19.5740  -26.6348   21.5199 C   0  0  0  0  0  0
  -18.1909  -26.7911   22.1588 C   0  0  0  0  0  0
  -19.1509  -28.8802   23.2911 C   0  0  0  0  0  0
  -18.9433  -30.1414   23.8924 C   0  0  0  0  0  0
  -17.6441  -30.6560   24.0542 C   0  0  0  0  0  0
  -25.9006  -34.9469   23.5163 C   0  0  0  0  0  0
  -16.5324  -29.9067   23.6303 C   0  0  0  0  0  0
  -16.7253  -28.6457   23.0363 C   0  0  0  0  0  0
  -26.4450  -31.6606   25.0736 C   0  0  0  0  0  0
  -25.3761  -31.3673   26.1546 C   0  0  0  0  0  0
  -27.0310  -30.3088   24.6082 C   0  0  0  0  0  0
  -27.6045  -32.4343   25.7463 C   0  0  0  0  0  0
  -27.5593  -37.1823   24.8464 C   0  0  0  0  0  0
  -21.4143  -29.3019   22.3782 N   0  0  0  0  0  0
  -26.4300  -37.3796   23.9417 N   0  0  0  0  0  0
  -24.6783  -31.0654   22.0969 N   0  0  0  0  0  0
  -23.4170  -28.8168   23.3100 O   0  0  0  0  0  0
  -28.3670  -26.6074   20.0318 O   0  0  0  0  0  0
  -26.5597  -34.8931   22.4722 O   0  0  0  0  0  0
  -23.5377  -32.1418   23.7374 O   0  0  0  0  0  0
  -29.8904  -19.1975   20.8245 C   0  0  0  0  0  0
  -29.3777  -18.8408   22.1047 C   0  0  0  0  0  0
  -29.8859  -20.5795   20.4070 C   0  0  0  0  0  0
  -28.5983  -19.8098   22.8090 C   0  0  0  0  0  0
  -28.5556  -21.1650   22.3722 C   0  0  0  0  0  0
  -29.2791  -21.5901   21.2270 C   0  0  0  0  0  0
  -30.4495  -18.0762   19.9236 C   0  0  0  0  0  0
  -30.4934  -16.3167   22.1182 C   0  0  0  0  0  0
  -29.7115  -17.4865   22.8174 C   0  0  1  0  0  0
  -29.6009  -16.7566   19.8780 C   0  0  1  0  0  0
  -30.5973  -20.9838   19.1083 C   0  0  0  0  0  0
  -27.8312  -19.4516   24.0970 C   0  0  0  0  0  0
  -27.7684  -22.1638   23.2161 C   0  0  0  0  0  0
  -30.5731  -17.8104   24.0749 C   0  0  0  0  0  0
  -29.5185  -16.2510   18.4136 C   0  0  0  0  0  0
  -29.5153  -23.1194   21.0082 C   0  0  0  0  0  0
  -28.4003  -24.0387   20.3884 C   0  0  0  0  0  0
  -28.4679  -25.5035   20.9565 C   0  0  0  0  0  0
  -30.0012  -15.7039   20.8664 N   0  0  0  0  0  0
  -31.4782  -12.4101   19.1961 H   0  0  0  0  0  0
  -30.3206  -11.3517   19.9400 H   0  0  0  0  0  0
  -29.7708  -11.6405   17.5416 H   0  0  0  0  0  0
  -29.7256  -13.3759   17.7139 H   0  0  0  0  0  0
  -27.8241  -11.3042   18.8456 H   0  0  0  0  0  0
  -27.4062  -12.6126   17.7808 H   0  0  0  0  0  0
  -27.6706  -14.2610   19.6042 H   0  0  0  0  0  0
  -28.7113  -12.0414   21.3979 H   0  0  0  0  0  0
  -28.4673  -13.6967   21.8604 H   0  0  0  0  0  0
  -25.2794   -9.5611   22.4704 H   0  0  0  0  0  0
  -24.0033   -7.4597   22.7475 H   0  0  0  0  0  0
  -21.0875   -8.8810   19.8948 H   0  0  0  0  0  0
  -22.3770  -10.9664   19.6172 H   0  0  0  0  0  0
  -21.1902   -7.6108   23.9746 H   0  0  0  0  0  0
  -21.1513   -6.0452   25.9119 H   0  0  0  0  0  0
  -22.0588   -2.7587   23.2781 H   0  0  0  0  0  0
  -22.4054  -11.9972   22.4889 H   0  0  0  0  0  0
  -21.1039  -13.1332   22.2482 H   0  0  0  0  0  0
  -24.6816  -15.8532   20.5371 H   0  0  0  0  0  0
  -26.3036  -15.6119   20.1112 H   0  0  0  0  0  0
  -26.7123  -32.5489   23.1148 H   0  0  0  0  0  0
  -24.9985  -33.9733   25.0476 H   0  0  0  0  0  0
  -22.7044  -31.2977   21.4055 H   0  0  0  0  0  0
  -23.3716  -35.9670   23.3295 H   0  0  0  0  0  0
  -24.3555  -36.8964   22.2061 H   0  0  0  0  0  0
  -23.7214  -37.6542   23.6664 H   0  0  0  0  0  0
  -26.0617  -31.5497   20.5820 H   0  0  0  0  0  0
  -26.8335  -30.8633   21.9819 H   0  0  0  0  0  0
  -28.1174  -29.0344   21.1511 H   0  0  0  0  0  0
  -26.0436  -25.9130   19.0438 H   0  0  0  0  0  0
  -23.9766  -27.2611   19.0338 H   0  0  0  0  0  0
  -23.7260  -30.5706   19.4056 H   0  0  0  0  0  0
  -22.7414  -29.2182   19.8793 H   0  0  0  0  0  0
  -25.1261  -36.1988   25.0852 H   0  0  0  0  0  0
  -20.9911  -28.3125   24.1483 H   0  0  0  0  0  0
  -20.5533  -26.2237   23.3601 H   0  0  0  0  0  0
  -21.6619  -26.7358   22.1284 H   0  0  0  0  0  0
  -19.6879  -25.6239   21.1271 H   0  0  0  0  0  0
  -19.6714  -27.3113   20.6699 H   0  0  0  0  0  0
  -17.4198  -26.6693   21.3955 H   0  0  0  0  0  0
  -18.0279  -26.0016   22.8943 H   0  0  0  0  0  0
  -19.7922  -30.7194   24.2303 H   0  0  0  0  0  0
  -17.5008  -31.6259   24.5122 H   0  0  0  0  0  0
  -15.5329  -30.2967   23.7605 H   0  0  0  0  0  0
  -15.8663  -28.0750   22.7122 H   0  0  0  0  0  0
  -24.5862  -30.7090   25.7913 H   0  0  0  0  0  0
  -24.9019  -32.2797   26.5184 H   0  0  0  0  0  0
  -25.8155  -30.8724   27.0225 H   0  0  0  0  0  0
  -26.2839  -29.6827   24.1201 H   0  0  0  0  0  0
  -27.4220  -29.7327   25.4473 H   0  0  0  0  0  0
  -27.8596  -30.4484   23.9140 H   0  0  0  0  0  0
  -27.2685  -33.3627   26.2102 H   0  0  0  0  0  0
  -28.3782  -32.6967   25.0230 H   0  0  0  0  0  0
  -28.0822  -31.8471   26.5322 H   0  0  0  0  0  0
  -28.2625  -38.0110   24.7504 H   0  0  0  0  0  0
  -28.1085  -36.2650   24.6280 H   0  0  0  0  0  0
  -27.2334  -37.1470   25.8878 H   0  0  0  0  0  0
  -20.9282  -29.8823   21.7094 H   0  0  0  0  0  0
  -26.0193  -38.2887   24.1403 H   0  0  0  0  0  0
  -31.4909  -17.8858   20.1738 H   0  0  0  0  0  0
  -30.4835  -18.4395   18.9002 H   0  0  0  0  0  0
  -30.5059  -15.5044   22.8484 H   0  0  0  0  0  0
  -31.5395  -16.5925   21.9852 H   0  0  0  0  0  0
  -28.7697  -17.0268   23.1102 H   0  0  0  0  0  0
  -28.5692  -17.0192   20.1232 H   0  0  0  0  0  0
  -31.6717  -20.8168   19.2078 H   0  0  0  0  0  0
  -30.4599  -22.0255   18.8323 H   0  0  0  0  0  0
  -30.2279  -20.4245   18.2453 H   0  0  0  0  0  0
  -27.8330  -18.3949   24.3501 H   0  0  0  0  0  0
  -26.7743  -19.7076   24.0347 H   0  0  0  0  0  0
  -28.2530  -19.9861   24.9493 H   0  0  0  0  0  0
  -28.1552  -22.1650   24.2385 H   0  0  0  0  0  0
  -26.7112  -21.8948   23.2239 H   0  0  0  0  0  0
  -27.8099  -23.1933   22.8781 H   0  0  0  0  0  0
  -31.5651  -18.1773   23.8028 H   0  0  0  0  0  0
  -30.7345  -16.9326   24.6949 H   0  0  0  0  0  0
  -30.1454  -18.5785   24.7205 H   0  0  0  0  0  0
  -30.5044  -16.0100   18.0135 H   0  0  0  0  0  0
  -29.0744  -17.0061   17.7584 H   0  0  0  0  0  0
  -28.8941  -15.3686   18.3129 H   0  0  0  0  0  0
  -30.4436  -23.3032   20.4705 H   0  0  0  0  0  0
  -29.7626  -23.5222   21.9943 H   0  0  0  0  0  0
  -27.4062  -23.6394   20.5947 H   0  0  0  0  0  0
  -28.5000  -24.0350   19.3006 H   0  0  0  0  0  0
  -29.4567  -25.6426   21.3850 H   0  0  0  0  0  0
  -27.7851  -25.6180   21.8013 H   0  0  0  0  0  0
  1 25  1  0  0  0
  1 30  2  0  0  0
  1 89  1  0  0  0
  2  3  1  0  0  0
  2 25  1  0  0  0
  2 90  1  0  0  0
  2 91  1  0  0  0
  3  4  1  0  0  0
  3 92  1  0  0  0
  3 93  1  0  0  0
  4  5  1  0  0  0
  4 94  1  0  0  0
  4 95  1  0  0  0
  5  6  1  0  0  0
  5 26  1  0  0  0
  5 96  1  0  0  0
  6 25  1  0  0  0
  6 97  1  0  0  0
  6 98  1  0  0  0
  7  8  2  0  0  0
  7 26  1  0  0  0
  7 29  1  0  0  0
  8  9  1  0  0  0
  8 22  1  0  0  0
  9 10  1  0  0  0
  9 27  2  0  0  0
 10 11  2  0  0  0
 10 15  1  0  0  0
 11 12  1  0  0  0
 11 99  1  0  0  0
 12 13  2  0  0  0
 12100  1  0  0  0
 13 14  1  0  0  0
 13 31  1  0  0  0
 14 15  2  0  0  0
 14101  1  0  0  0
 15102  1  0  0  0
 16 17  2  0  0  0
 16 21  1  0  0  0
 16 31  1  0  0  0
 17 18  1  0  0  0
 17103  1  0  0  0
 18 19  2  0  0  0
 18104  1  0  0  0
 19 20  1  0  0  0
 19 24  1  0  0  0
 20 21  2  0  0  0
 20105  1  0  0  0
 21 23  1  0  0  0
 22 28  1  0  0  0
 22 32  2  0  0  0
 26 27  1  0  0  0
 28106  1  0  0  0
 28107  1  0  0  0
 29108  1  0  0  0
 29109  1  0  0  0
 33 34  1  0  0  0
 33 66  1  0  0  0
 33 70  2  0  0  0
 34 36  1  0  0  0
 34 59  1  0  0  0
 34110  1  0  0  0
 35 44  2  0  0  0
 35 45  1  0  0  0
 35 68  1  0  0  0
 36 56  1  0  0  0
 36111  1  0  0  0
 37 39  1  0  0  0
 37 47  1  0  0  0
 37 66  1  0  0  0
 37112  1  0  0  0
 38 43  2  0  0  0
 38 46  1  0  0  0
 38 47  1  0  0  0
 39 64  1  0  0  0
 39 67  2  0  0  0
 40 52  1  0  0  0
 40 53  2  0  0  0
 40 58  1  0  0  0
 41113  1  0  0  0
 41114  1  0  0  0
 41115  1  0  0  0
 41 48  1  0  0  0
 42 43  1  0  0  0
 42 66  1  0  0  0
 42116  1  0  0  0
 42117  1  0  0  0
 43 44  1  0  0  0
 44118  1  0  0  0
 45 46  2  0  0  0
 45119  1  0  0  0
 46120  1  0  0  0
 47121  1  0  0  0
 47122  1  0  0  0
 48 56  1  0  0  0
 48 65  1  0  0  0
 48123  1  0  0  0
 49 50  1  0  0  0
 49 53  1  0  0  0
 49 64  1  0  0  0
 49124  1  0  0  0
 50 51  1  0  0  0
 50125  1  0  0  0
 50126  1  0  0  0
 51 52  1  0  0  0
 51127  1  0  0  0
 51128  1  0  0  0
 52129  1  0  0  0
 52130  1  0  0  0
 53 54  1  0  0  0
 54 55  2  0  0  0
 54131  1  0  0  0
 55 57  1  0  0  0
 55132  1  0  0  0
 56 69  2  0  0  0
 57 58  2  0  0  0
 57133  1  0  0  0
 58134  1  0  0  0
 59 60  1  0  0  0
 59 61  1  0  0  0
 59 62  1  0  0  0
 60135  1  0  0  0
 60136  1  0  0  0
 60137  1  0  0  0
 61138  1  0  0  0
 61139  1  0  0  0
 61140  1  0  0  0
 62141  1  0  0  0
 62142  1  0  0  0
 62143  1  0  0  0
 63 65  1  0  0  0
 63144  1  0  0  0
 63145  1  0  0  0
 63146  1  0  0  0
 64147  1  0  0  0
 65148  1  0  0  0
 68 88  1  0  0  0
 71 72  1  0  0  0
 71 73  2  0  0  0
 71 77  1  0  0  0
 72 74  2  0  0  0
 72 79  1  0  0  0
 73 76  1  0  0  0
 73 81  1  0  0  0
 74 75  1  0  0  0
 74 82  1  0  0  0
 75 76  2  0  0  0
 75 83  1  0  0  0
 76 86  1  0  0  0
 77 80  1  0  0  0
 77149  1  0  0  0
 77150  1  0  0  0
 78 79  1  0  0  0
 78 89  1  0  0  0
 78151  1  0  0  0
 78152  1  0  0  0
 79 84  1  0  0  0
 79153  1  0  0  0
 80 85  1  0  0  0
 80 89  1  0  0  0
 80154  1  0  0  0
 81155  1  0  0  0
 81156  1  0  0  0
 81157  1  0  0  0
 82158  1  0  0  0
 82159  1  0  0  0
 82160  1  0  0  0
 83161  1  0  0  0
 83162  1  0  0  0
 83163  1  0  0  0
 84164  1  0  0  0
 84165  1  0  0  0
 84166  1  0  0  0
 85167  1  0  0  0
 85168  1  0  0  0
 85169  1  0  0  0
 86 87  1  0  0  0
 86170  1  0  0  0
 86171  1  0  0  0
 87 88  1  0  0  0
 87172  1  0  0  0
 87173  1  0  0  0
 88174  1  0  0  0
 88175  1  0  0  0
M  ISO  4   1 100  68 101  88 101  89 100
M  END
> <chiral flag>
0

> <version>
0

> <s_m_source_file>
/data/baiqing/PycharmProjects/Reinvent-master-3.2/result/LINK_invent/BTK/process_docking_weight1_custom_sum_contain_oxygen_bond_distance_aromatic_linkinvent_7_9_3/rearranged_h_0148.sdf

> <i_m_source_file_index>
53

> <r_mmod_Potential_Energy-OPLS-2005>
314.276428222656

> <r_mmod_Stretch_Energy-OPLS-2005>
74.3558807373047

> <r_mmod_Bend_Energy-OPLS-2005>
174.451568603516

> <r_mmod_Torsional_Energy-OPLS-2005>
388.881958007812

> <r_mmod_Improper_Torsional_Energy-OPLS-2005>
8.45112323760986

> <r_mmod_Van_der_Waal_Energy-OPLS-2005>
182.820358276367

> <r_mmod_Electrostatic_Energy-OPLS-2005>
-358.391174316406

> <r_mmod_Solvation_Energy-OPLS-2005>
-184.990478515625

> <b_mmod_Minimization_Converged-OPLS-2005>
0

> <r_mmod_RMS_Derivative-OPLS-2005>
8.46494102478027

$$$$
53
                    3D
 Structure written by MMmdl.
168177  0  0  1  0            999 V2000
  -30.5835  -14.9387   20.3984 C   0  0  0  0  0  0
  -30.4357  -12.5836   19.4862 C   0  0  0  0  0  0
  -29.5152  -12.5461   18.2473 C   0  0  0  0  0  0
  -28.0459  -12.3480   18.6600 C   0  0  0  0  0  0
  -27.6311  -13.2572   19.8430 C   0  0  2  0  0  0
  -28.6816  -13.2711   20.9713 C   0  0  0  0  0  0
  -25.2430  -13.8220   20.5763 C   0  0  0  0  0  0
  -24.1730  -13.0439   20.9234 C   0  0  0  0  0  0
  -24.6383  -11.6934   20.8768 C   0  0  0  0  0  0
  -23.9097  -10.4266   21.0368 C   0  0  0  0  0  0
  -24.3596   -9.4179   21.9166 C   0  0  0  0  0  0
  -23.6260   -8.2219   22.0740 C   0  0  0  0  0  0
  -22.4248   -8.0270   21.3528 C   0  0  0  0  0  0
  -21.9895   -9.0250   20.4639 C   0  0  0  0  0  0
  -22.7237  -10.2119   20.3051 C   0  0  0  0  0  0
  -21.6840   -6.0735   22.5267 C   0  0  0  0  0  0
  -21.4016   -6.5605   23.8216 C   0  0  0  0  0  0
  -21.3673   -5.6737   24.9158 C   0  0  0  0  0  0
  -21.6037   -4.3025   24.7203 C   0  0  0  0  0  0
  -21.8803   -3.8146   23.4318 C   0  0  0  0  0  0
  -21.9188   -4.6965   22.3373 C   0  0  0  0  0  0
  -22.7734  -13.5239   21.1843 C   0  0  0  0  0  0
  -22.1671   -4.2168   21.0965 F   0  0  0  0  0  0
  -21.5627   -3.4490   25.7707 F   0  0  0  0  0  0
  -29.9598  -13.6906   20.3615 N   0  0  0  0  0  0
  -26.2890  -12.9490   20.3284 N   0  0  0  0  0  0
  -25.9331  -11.6624   20.5755 N   0  0  0  0  0  0
  -22.0372  -12.8251   22.0407 N   0  0  0  0  0  0
  -25.4154  -15.1936   20.4208 N   0  0  0  0  0  0
  -31.7964  -14.9723   20.1510 O   0  0  0  0  0  0
  -21.6608   -6.8867   21.4244 O   0  0  0  0  0  0
  -22.3447  -14.5582   20.6746 O   0  0  0  0  0  0
  -24.6403  -31.8382   23.1870 C   0  0  0  0  0  0
  -25.9186  -32.4635   23.8262 C   0  0  1  0  0  0
  -27.2323  -27.1303   20.1548 C   0  0  0  0  0  0
  -25.5926  -33.8464   24.2136 N   0  0  0  0  0  0
  -23.4470  -30.4511   21.5328 C   0  0  2  0  0  0
  -24.9033  -28.8729   20.1008 C   0  0  0  0  0  0
  -22.7583  -29.4472   22.4876 C   0  0  0  0  0  0
  -18.0312  -28.1402   22.8475 C   0  0  0  0  0  0
  -24.1488  -36.7241   23.2635 C   0  0  0  0  0  0
  -26.0015  -30.7037   21.3960 C   0  0  0  0  0  0
  -26.0710  -29.3173   20.7306 C   0  0  0  0  0  0
  -27.2274  -28.4602   20.7429 C   0  0  0  0  0  0
  -26.0386  -26.7744   19.4932 C   0  0  0  0  0  0
  -24.8971  -27.6174   19.4684 C   0  0  0  0  0  0
  -23.6761  -29.7737   20.1514 C   0  0  0  0  0  0
  -25.4126  -36.2988   24.0289 C   0  0  1  0  0  0
  -20.5925  -28.3710   23.1267 C   0  0  2  0  0  0
  -20.6794  -26.9401   22.5438 C   0  0  0  0  0  0
  -19.5782  -26.6365   21.5240 C   0  0  0  0  0  0
  -18.1956  -26.7934   22.1622 C   0  0  0  0  0  0
  -19.1561  -28.8891   23.2853 C   0  0  0  0  0  0
  -18.9467  -30.1493   23.8853 C   0  0  0  0  0  0
  -17.6451  -30.6593   24.0561 C   0  0  0  0  0  0
  -25.9072  -34.9352   23.5025 C   0  0  0  0  0  0
  -16.5346  -29.9061   23.6339 C   0  0  0  0  0  0
  -16.7295  -28.6493   23.0350 C   0  0  0  0  0  0
  -26.4505  -31.6567   25.0747 C   0  0  0  0  0  0
  -25.3660  -31.3813   26.1440 C   0  0  0  0  0  0
  -27.0389  -30.2935   24.6422 C   0  0  0  0  0  0
  -27.6002  -32.4391   25.7535 C   0  0  0  0  0  0
  -27.5581  -37.1766   24.8443 C   0  0  0  0  0  0
  -21.4281  -29.2994   22.3616 N   0  0  0  0  0  0
  -26.4291  -37.3695   23.9383 N   0  0  0  0  0  0
  -24.7148  -31.0205   22.0908 N   0  0  0  0  0  0
  -23.4215  -28.8006   23.3056 O   0  0  0  0  0  0
  -28.3204  -26.1996   20.2930 O   0  0  0  0  0  0
  -26.5669  -34.8855   22.4604 O   0  0  0  0  0  0
  -23.5532  -32.1269   23.7072 O   0  0  0  0  0  0
  -31.0561  -20.4475   17.1106 C   0  0  0  0  0  0
  -29.4309  -18.9597   19.7908 C   0  0  2  0  0  0
  -29.6384  -20.1333   17.5900 C   0  0  1  0  0  0
  -29.7209  -18.7621   18.2764 C   0  0  1  0  0  0
  -31.9404  -19.4108   17.8022 C   0  0  2  0  0  0
  -29.6349  -20.6481   19.8630 C   0  0  2  0  0  0
  -34.0840  -17.9805   17.6229 C   0  0  0  0  0  0
  -30.0806  -22.3154   21.8107 C   0  0  0  0  0  0
  -30.2221  -17.6881   20.5852 C   0  0  0  0  0  0
  -33.1954  -19.0524   16.9812 C   0  0  0  0  0  0
  -28.0900  -23.2504   20.4066 C   0  0  0  0  0  0
  -28.4868  -24.7472   19.7561 C   0  0  0  0  0  0
  -28.9921  -21.8713   20.8181 C   0  0  1  0  0  0
  -29.8402  -16.1427   20.5008 N   0  0  0  0  0  0
  -29.2200  -21.0639   18.5704 O   0  0  0  0  0  0
  -31.0540  -18.3087   17.9664 O   0  0  0  0  0  0
  -31.4706  -12.7193   19.1695 H   0  0  0  0  0  0
  -30.4183  -11.6299   20.0125 H   0  0  0  0  0  0
  -29.8307  -11.7558   17.5683 H   0  0  0  0  0  0
  -29.6084  -13.4804   17.6862 H   0  0  0  0  0  0
  -27.9036  -11.3029   18.9334 H   0  0  0  0  0  0
  -27.3958  -12.5318   17.8045 H   0  0  0  0  0  0
  -27.6013  -14.2640   19.4283 H   0  0  0  0  0  0
  -28.7543  -12.2836   21.4324 H   0  0  0  0  0  0
  -28.3840  -13.9594   21.7644 H   0  0  0  0  0  0
  -25.2743   -9.5645   22.4753 H   0  0  0  0  0  0
  -23.9951   -7.4587   22.7445 H   0  0  0  0  0  0
  -21.0832   -8.8793   19.8924 H   0  0  0  0  0  0
  -22.3715  -10.9651   19.6153 H   0  0  0  0  0  0
  -21.2016   -7.6099   23.9723 H   0  0  0  0  0  0
  -21.1538   -6.0460   25.9052 H   0  0  0  0  0  0
  -22.0600   -2.7628   23.2793 H   0  0  0  0  0  0
  -22.4003  -11.9929   22.4833 H   0  0  0  0  0  0
  -21.1009  -13.1370   22.2643 H   0  0  0  0  0  0
  -24.6560  -15.8574   20.5228 H   0  0  0  0  0  0
  -26.2660  -15.6189   20.0787 H   0  0  0  0  0  0
  -26.7239  -32.5215   23.0976 H   0  0  0  0  0  0
  -25.0039  -33.9556   25.0267 H   0  0  0  0  0  0
  -22.7472  -31.2757   21.3771 H   0  0  0  0  0  0
  -23.3733  -35.9591   23.3285 H   0  0  0  0  0  0
  -24.3571  -36.8915   22.2056 H   0  0  0  0  0  0
  -23.7289  -37.6437   23.6719 H   0  0  0  0  0  0
  -26.1741  -31.4656   20.6343 H   0  0  0  0  0  0
  -26.8610  -30.7374   22.0549 H   0  0  0  0  0  0
  -28.1153  -28.7876   21.2632 H   0  0  0  0  0  0
  -25.9555  -25.8014   19.0358 H   0  0  0  0  0  0
  -24.0012  -27.2694   18.9761 H   0  0  0  0  0  0
  -23.8063  -30.5462   19.3940 H   0  0  0  0  0  0
  -22.7919  -29.2120   19.8449 H   0  0  0  0  0  0
  -25.1323  -36.1780   25.0781 H   0  0  0  0  0  0
  -20.9988  -28.3289   24.1412 H   0  0  0  0  0  0
  -20.5750  -26.2271   23.3639 H   0  0  0  0  0  0
  -21.6652  -26.7451   22.1202 H   0  0  0  0  0  0
  -19.6920  -25.6258   21.1311 H   0  0  0  0  0  0
  -19.6743  -27.3142   20.6752 H   0  0  0  0  0  0
  -17.4224  -26.6732   21.4010 H   0  0  0  0  0  0
  -18.0318  -26.0104   22.9041 H   0  0  0  0  0  0
  -19.7929  -30.7385   24.2150 H   0  0  0  0  0  0
  -17.4975  -31.6250   24.5180 H   0  0  0  0  0  0
  -15.5335  -30.2922   23.7710 H   0  0  0  0  0  0
  -15.8712  -28.0812   22.7043 H   0  0  0  0  0  0
  -24.5739  -30.7288   25.7736 H   0  0  0  0  0  0
  -24.8972  -32.3040   26.4872 H   0  0  0  0  0  0
  -25.7883  -30.8918   27.0222 H   0  0  0  0  0  0
  -26.3025  -29.6650   24.1385 H   0  0  0  0  0  0
  -27.3893  -29.7269   25.5067 H   0  0  0  0  0  0
  -27.8991  -30.4145   23.9829 H   0  0  0  0  0  0
  -27.2516  -33.3671   26.2094 H   0  0  0  0  0  0
  -28.3798  -32.7024   25.0365 H   0  0  0  0  0  0
  -28.0696  -31.8574   26.5480 H   0  0  0  0  0  0
  -28.2536  -38.0110   24.7473 H   0  0  0  0  0  0
  -28.1130  -36.2624   24.6264 H   0  0  0  0  0  0
  -27.2294  -37.1405   25.8844 H   0  0  0  0  0  0
  -20.9474  -29.8652   21.6749 H   0  0  0  0  0  0
  -26.0136  -38.2753   24.1393 H   0  0  0  0  0  0
  -31.3822  -21.4670   17.3258 H   0  0  0  0  0  0
  -31.0915  -20.3314   16.0262 H   0  0  0  0  0  0
  -28.3599  -18.8136   19.9565 H   0  0  0  0  0  0
  -28.9472  -20.1334   16.7439 H   0  0  0  0  0  0
  -28.9970  -18.0604   17.8652 H   0  0  0  0  0  0
  -32.2582  -19.7542   18.7898 H   0  0  0  0  0  0
  -30.7129  -20.8017   19.8969 H   0  0  0  0  0  0
  -35.0657  -17.9752   17.1487 H   0  0  0  0  0  0
  -33.6664  -16.9787   17.5041 H   0  0  0  0  0  0
  -34.2329  -18.1682   18.6877 H   0  0  0  0  0  0
  -30.5807  -21.4604   22.2674 H   0  0  0  0  0  0
  -29.6822  -22.9143   22.6296 H   0  0  0  0  0  0
  -30.8293  -22.9144   21.2894 H   0  0  0  0  0  0
  -30.1803  -17.9365   21.6449 H   0  0  0  0  0  0
  -31.2859  -17.7467   20.3489 H   0  0  0  0  0  0
  -33.7981  -19.9559   16.8584 H   0  0  0  0  0  0
  -32.9171  -18.7472   15.9696 H   0  0  0  0  0  0
  -27.2774  -22.8698   19.7857 H   0  0  0  0  0  0
  -27.5728  -23.5173   21.3314 H   0  0  0  0  0  0
  -28.0679  -24.7531   18.7485 H   0  0  0  0  0  0
  -29.5606  -24.6735   19.5733 H   0  0  0  0  0  0
  -28.2736  -21.3118   21.4167 H   0  0  0  0  0  0
  -28.8586  -15.9653   20.6587 H   0  0  0  0  0  0
  1 25  1  0  0  0
  1 30  2  0  0  0
  1 84  1  0  0  0
  2  3  1  0  0  0
  2 25  1  0  0  0
  2 87  1  0  0  0
  2 88  1  0  0  0
  3  4  1  0  0  0
  3 89  1  0  0  0
  3 90  1  0  0  0
  4  5  1  0  0  0
  4 91  1  0  0  0
  4 92  1  0  0  0
  5  6  1  0  0  0
  5 26  1  0  0  0
  5 93  1  0  0  0
  6 25  1  0  0  0
  6 94  1  0  0  0
  6 95  1  0  0  0
  7  8  2  0  0  0
  7 26  1  0  0  0
  7 29  1  0  0  0
  8  9  1  0  0  0
  8 22  1  0  0  0
  9 10  1  0  0  0
  9 27  2  0  0  0
 10 11  2  0  0  0
 10 15  1  0  0  0
 11 12  1  0  0  0
 11 96  1  0  0  0
 12 13  2  0  0  0
 12 97  1  0  0  0
 13 14  1  0  0  0
 13 31  1  0  0  0
 14 15  2  0  0  0
 14 98  1  0  0  0
 15 99  1  0  0  0
 16 17  2  0  0  0
 16 21  1  0  0  0
 16 31  1  0  0  0
 17 18  1  0  0  0
 17100  1  0  0  0
 18 19  2  0  0  0
 18101  1  0  0  0
 19 20  1  0  0  0
 19 24  1  0  0  0
 20 21  2  0  0  0
 20102  1  0  0  0
 21 23  1  0  0  0
 22 28  1  0  0  0
 22 32  2  0  0  0
 26 27  1  0  0  0
 28103  1  0  0  0
 28104  1  0  0  0
 29105  1  0  0  0
 29106  1  0  0  0
 33 34  1  0  0  0
 33 66  1  0  0  0
 33 70  2  0  0  0
 34 36  1  0  0  0
 34 59  1  0  0  0
 34107  1  0  0  0
 35 44  2  0  0  0
 35 45  1  0  0  0
 35 68  1  0  0  0
 36 56  1  0  0  0
 36108  1  0  0  0
 37 39  1  0  0  0
 37 47  1  0  0  0
 37 66  1  0  0  0
 37109  1  0  0  0
 38 43  2  0  0  0
 38 46  1  0  0  0
 38 47  1  0  0  0
 39 64  1  0  0  0
 39 67  2  0  0  0
 40 52  1  0  0  0
 40 53  2  0  0  0
 40 58  1  0  0  0
 41110  1  0  0  0
 41111  1  0  0  0
 41112  1  0  0  0
 41 48  1  0  0  0
 42 43  1  0  0  0
 42 66  1  0  0  0
 42113  1  0  0  0
 42114  1  0  0  0
 43 44  1  0  0  0
 44115  1  0  0  0
 45 46  2  0  0  0
 45116  1  0  0  0
 46117  1  0  0  0
 47118  1  0  0  0
 47119  1  0  0  0
 48 56  1  0  0  0
 48 65  1  0  0  0
 48120  1  0  0  0
 49 50  1  0  0  0
 49 53  1  0  0  0
 49 64  1  0  0  0
 49121  1  0  0  0
 50 51  1  0  0  0
 50122  1  0  0  0
 50123  1  0  0  0
 51 52  1  0  0  0
 51124  1  0  0  0
 51125  1  0  0  0
 52126  1  0  0  0
 52127  1  0  0  0
 53 54  1  0  0  0
 54 55  2  0  0  0
 54128  1  0  0  0
 55 57  1  0  0  0
 55129  1  0  0  0
 56 69  2  0  0  0
 57 58  2  0  0  0
 57130  1  0  0  0
 58131  1  0  0  0
 59 60  1  0  0  0
 59 61  1  0  0  0
 59 62  1  0  0  0
 60132  1  0  0  0
 60133  1  0  0  0
 60134  1  0  0  0
 61135  1  0  0  0
 61136  1  0  0  0
 61137  1  0  0  0
 62138  1  0  0  0
 62139  1  0  0  0
 62140  1  0  0  0
 63 65  1  0  0  0
 63141  1  0  0  0
 63142  1  0  0  0
 63143  1  0  0  0
 64144  1  0  0  0
 65145  1  0  0  0
 68 82  1  0  0  0
 71 75  1  0  0  0
 71146  1  0  0  0
 71147  1  0  0  0
 71 73  1  0  0  0
 72 74  1  0  0  0
 72 76  1  0  0  0
 72 79  1  0  0  0
 72148  1  0  0  0
 73 74  1  0  0  0
 73 85  1  0  0  0
 73149  1  0  0  0
 74 86  1  0  0  0
 74150  1  0  0  0
 75 80  1  0  0  0
 75 86  1  0  0  0
 75151  1  0  0  0
 76 83  1  0  0  0
 76 85  1  0  0  0
 76152  1  0  0  0
 77 80  1  0  0  0
 77153  1  0  0  0
 77154  1  0  0  0
 77155  1  0  0  0
 78156  1  0  0  0
 78157  1  0  0  0
 78158  1  0  0  0
 78 83  1  0  0  0
 79 84  1  0  0  0
 79159  1  0  0  0
 79160  1  0  0  0
 80161  1  0  0  0
 80162  1  0  0  0
 81 82  1  0  0  0
 81 83  1  0  0  0
 81163  1  0  0  0
 81164  1  0  0  0
 82165  1  0  0  0
 82166  1  0  0  0
 83167  1  0  0  0
 84168  1  0  0  0
M  ISO  4   1 100  68 101  82 101  84 100
M  END
> <chiral flag>
0

> <version>
0

> <s_m_source_file>
/data/baiqing/PycharmProjects/Reinvent-master-3.2/result/LINK_invent/BTK/process_docking_weight1_custom_sum_contain_oxygen_bond_distance_aromatic_linkinvent_7_9_3/rearranged_h_0148.sdf

> <i_m_source_file_index>
54

> <r_mmod_Potential_Energy-OPLS-2005>
749.495849609375

> <r_mmod_Stretch_Energy-OPLS-2005>
284.621185302734

> <r_mmod_Bend_Energy-OPLS-2005>
418.675476074219

> <r_mmod_Torsional_Energy-OPLS-2005>
328.552429199219

> <r_mmod_Improper_Torsional_Energy-OPLS-2005>
4.74877119064331

> <r_mmod_Van_der_Waal_Energy-OPLS-2005>
100.11009979248

> <r_mmod_Electrostatic_Energy-OPLS-2005>
-356.812744140625

> <r_mmod_Solvation_Energy-OPLS-2005>
-218.275909423828

> <b_mmod_Minimization_Converged-OPLS-2005>
0

> <r_mmod_RMS_Derivative-OPLS-2005>
7.32043266296387

$$$$
54
                    3D
 Structure written by MMmdl.
167177  0  0  1  0            999 V2000
  -30.6970  -14.6126   20.5309 C   0  0  0  0  0  0
  -30.4149  -12.3878   19.4523 C   0  0  0  0  0  0
  -29.4995  -12.5169   18.2188 C   0  0  0  0  0  0
  -28.0204  -12.3612   18.6228 C   0  0  0  0  0  0
  -27.6437  -13.2254   19.8546 C   0  0  2  0  0  0
  -28.6892  -13.1200   20.9873 C   0  0  0  0  0  0
  -25.2508  -13.8187   20.5676 C   0  0  0  0  0  0
  -24.1795  -13.0446   20.9189 C   0  0  0  0  0  0
  -24.6383  -11.6920   20.8746 C   0  0  0  0  0  0
  -23.9065  -10.4310   21.0422 C   0  0  0  0  0  0
  -24.3630   -9.4230   21.9195 C   0  0  0  0  0  0
  -23.6310   -8.2263   22.0752 C   0  0  0  0  0  0
  -22.4297   -8.0295   21.3539 C   0  0  0  0  0  0
  -21.9925   -9.0262   20.4633 C   0  0  0  0  0  0
  -22.7243  -10.2141   20.3063 C   0  0  0  0  0  0
  -21.6867   -6.0757   22.5286 C   0  0  0  0  0  0
  -21.4014   -6.5643   23.8224 C   0  0  0  0  0  0
  -21.3661   -5.6798   24.9182 C   0  0  0  0  0  0
  -21.6053   -4.3066   24.7225 C   0  0  0  0  0  0
  -21.8827   -3.8153   23.4350 C   0  0  0  0  0  0
  -21.9189   -4.6982   22.3407 C   0  0  0  0  0  0
  -22.7810  -13.5223   21.1853 C   0  0  0  0  0  0
  -22.1670   -4.2164   21.0988 F   0  0  0  0  0  0
  -21.5620   -3.4546   25.7737 F   0  0  0  0  0  0
  -30.0047  -13.4331   20.4140 N   0  0  0  0  0  0
  -26.2941  -12.9382   20.3288 N   0  0  0  0  0  0
  -25.9314  -11.6533   20.5757 N   0  0  0  0  0  0
  -22.0454  -12.8222   22.0406 N   0  0  0  0  0  0
  -25.4165  -15.1912   20.4063 N   0  0  0  0  0  0
  -31.8690  -14.6955   20.1548 O   0  0  0  0  0  0
  -21.6652   -6.8896   21.4249 O   0  0  0  0  0  0
  -22.3482  -14.5529   20.6703 O   0  0  0  0  0  0
  -24.6215  -31.8604   23.2034 C   0  0  0  0  0  0
  -25.9057  -32.4793   23.8396 C   0  0  1  0  0  0
  -27.2298  -27.3362   20.1400 C   0  0  0  0  0  0
  -25.5891  -33.8600   24.2299 N   0  0  0  0  0  0
  -23.4199  -30.4777   21.5448 C   0  0  2  0  0  0
  -24.8718  -28.9330   20.1177 C   0  0  0  0  0  0
  -22.7470  -29.4585   22.4935 C   0  0  0  0  0  0
  -18.0266  -28.1385   22.8471 C   0  0  0  0  0  0
  -24.1486  -36.7296   23.2641 C   0  0  0  0  0  0
  -25.9599  -30.7943   21.3794 C   0  0  0  0  0  0
  -26.0372  -29.4245   20.7207 C   0  0  0  0  0  0
  -27.2244  -28.6373   20.7192 C   0  0  0  0  0  0
  -26.0498  -26.8882   19.5099 C   0  0  0  0  0  0
  -24.8780  -27.6686   19.5051 C   0  0  0  0  0  0
  -23.6393  -29.8098   20.1608 C   0  0  0  0  0  0
  -25.4116  -36.3093   24.0327 C   0  0  1  0  0  0
  -20.5872  -28.3671   23.1280 C   0  0  2  0  0  0
  -20.6751  -26.9393   22.5400 C   0  0  0  0  0  0
  -19.5744  -26.6367   21.5189 C   0  0  0  0  0  0
  -18.1919  -26.7926   22.1603 C   0  0  0  0  0  0
  -19.1527  -28.8840   23.2866 C   0  0  0  0  0  0
  -18.9457  -30.1440   23.8883 C   0  0  0  0  0  0
  -17.6462  -30.6589   24.0545 C   0  0  0  0  0  0
  -25.9052  -34.9457   23.5120 C   0  0  0  0  0  0
  -16.5343  -29.9088   23.6337 C   0  0  0  0  0  0
  -16.7253  -28.6509   23.0353 C   0  0  0  0  0  0
  -26.4442  -31.6607   25.0781 C   0  0  0  0  0  0
  -25.3665  -31.3775   26.1506 C   0  0  0  0  0  0
  -27.0281  -30.3020   24.6262 C   0  0  0  0  0  0
  -27.6011  -32.4339   25.7549 C   0  0  0  0  0  0
  -27.5588  -37.1801   24.8454 C   0  0  0  0  0  0
  -21.4181  -29.3021   22.3686 N   0  0  0  0  0  0
  -26.4291  -37.3790   23.9403 N   0  0  0  0  0  0
  -24.6850  -31.0622   22.0990 N   0  0  0  0  0  0
  -23.4187  -28.8136   23.3029 O   0  0  0  0  0  0
  -28.3388  -26.4895   20.1739 O   0  0  0  0  0  0
  -26.5628  -34.8915   22.4694 O   0  0  0  0  0  0
  -23.5378  -32.1389   23.7353 O   0  0  0  0  0  0
  -29.1128  -21.2823   20.9393 C   0  0  0  0  0  0
  -28.6385  -20.4296   23.1659 C   0  0  0  0  0  0
  -28.3714  -22.8032   22.6888 C   0  0  0  0  0  0
  -29.0359  -20.1597   21.8411 C   0  0  0  0  0  0
  -28.7836  -22.6392   21.3436 C   0  0  0  0  0  0
  -28.3030  -21.7251   23.5891 C   0  0  0  0  0  0
  -29.0523  -23.7546   18.9234 C   0  0  0  0  0  0
  -30.2623  -24.0846   19.7481 C   0  0  0  0  0  0
  -29.1472  -18.0535   20.1368 C   0  0  0  0  0  0
  -30.6180  -18.0517   22.0846 C   0  0  0  0  0  0
  -29.0640  -16.4800   20.1648 C   0  0  0  0  0  0
  -30.6152  -16.4865   22.1589 C   0  0  0  0  0  0
  -29.2962  -18.6345   21.5492 C   0  0  0  0  0  0
  -28.9172  -23.9145   20.4286 C   0  0  0  0  0  0
  -27.8650  -21.9537   25.0229 C   0  0  0  0  0  0
  -28.1653  -25.2204   20.9087 C   0  0  0  0  0  0
  -30.0510  -15.7355   21.0046 N   0  0  0  0  0  0
  -31.4626  -12.4769   19.1536 H   0  0  0  0  0  0
  -30.3166  -11.3979   19.9015 H   0  0  0  0  0  0
  -29.7601  -11.7719   17.4658 H   0  0  0  0  0  0
  -29.6541  -13.4908   17.7515 H   0  0  0  0  0  0
  -27.8368  -11.3076   18.8293 H   0  0  0  0  0  0
  -27.3773  -12.6237   17.7823 H   0  0  0  0  0  0
  -27.6432  -14.2514   19.4953 H   0  0  0  0  0  0
  -28.6943  -12.1184   21.4193 H   0  0  0  0  0  0
  -28.4385  -13.7996   21.8037 H   0  0  0  0  0  0
  -25.2786   -9.5712   22.4757 H   0  0  0  0  0  0
  -24.0035   -7.4653   22.7483 H   0  0  0  0  0  0
  -21.0860   -8.8785   19.8932 H   0  0  0  0  0  0
  -22.3720  -10.9686   19.6173 H   0  0  0  0  0  0
  -21.2020   -7.6150   23.9727 H   0  0  0  0  0  0
  -21.1465   -6.0525   25.9086 H   0  0  0  0  0  0
  -22.0600   -2.7616   23.2843 H   0  0  0  0  0  0
  -22.4083  -11.9906   22.4826 H   0  0  0  0  0  0
  -21.1060  -13.1226   22.2597 H   0  0  0  0  0  0
  -24.6467  -15.8424   20.5150 H   0  0  0  0  0  0
  -26.2624  -15.6326   20.0694 H   0  0  0  0  0  0
  -26.7140  -32.5452   23.1165 H   0  0  0  0  0  0
  -24.9999  -33.9774   25.0412 H   0  0  0  0  0  0
  -22.7133  -31.2953   21.3965 H   0  0  0  0  0  0
  -23.3769  -35.9609   23.3293 H   0  0  0  0  0  0
  -24.3578  -36.8937   22.2060 H   0  0  0  0  0  0
  -23.7202  -37.6481   23.6676 H   0  0  0  0  0  0
  -26.0994  -31.5635   20.6197 H   0  0  0  0  0  0
  -26.8361  -30.8347   22.0162 H   0  0  0  0  0  0
  -28.1225  -29.0041   21.1976 H   0  0  0  0  0  0
  -26.0314  -25.9134   19.0405 H   0  0  0  0  0  0
  -23.9840  -27.2811   19.0395 H   0  0  0  0  0  0
  -23.7640  -30.5852   19.4036 H   0  0  0  0  0  0
  -22.7614  -29.2362   19.8550 H   0  0  0  0  0  0
  -25.1289  -36.1979   25.0820 H   0  0  0  0  0  0
  -20.9935  -28.3224   24.1410 H   0  0  0  0  0  0
  -20.5632  -26.2269   23.3588 H   0  0  0  0  0  0
  -21.6626  -26.7405   22.1212 H   0  0  0  0  0  0
  -19.6911  -25.6272   21.1233 H   0  0  0  0  0  0
  -19.6710  -27.3157   20.6711 H   0  0  0  0  0  0
  -17.4176  -26.6631   21.4012 H   0  0  0  0  0  0
  -18.0352  -26.0074   22.9021 H   0  0  0  0  0  0
  -19.7933  -30.7245   24.2264 H   0  0  0  0  0  0
  -17.5026  -31.6279   24.5135 H   0  0  0  0  0  0
  -15.5359  -30.2996   23.7678 H   0  0  0  0  0  0
  -15.8642  -28.0826   22.7105 H   0  0  0  0  0  0
  -24.5783  -30.7206   25.7819 H   0  0  0  0  0  0
  -24.8923  -32.2957   26.4979 H   0  0  0  0  0  0
  -25.7957  -30.8885   27.0254 H   0  0  0  0  0  0
  -26.2887  -29.6830   24.1171 H   0  0  0  0  0  0
  -27.3819  -29.7247   25.4814 H   0  0  0  0  0  0
  -27.8825  -30.4314   23.9617 H   0  0  0  0  0  0
  -27.2614  -33.3602   26.2194 H   0  0  0  0  0  0
  -28.3780  -32.6958   25.0357 H   0  0  0  0  0  0
  -28.0718  -31.8421   26.5409 H   0  0  0  0  0  0
  -28.2577  -38.0130   24.7532 H   0  0  0  0  0  0
  -28.1109  -36.2653   24.6237 H   0  0  0  0  0  0
  -27.2303  -37.1396   25.8857 H   0  0  0  0  0  0
  -20.9367  -29.8772   21.6914 H   0  0  0  0  0  0
  -26.0184  -38.2864   24.1445 H   0  0  0  0  0  0
  -29.4396  -21.0958   19.9272 H   0  0  0  0  0  0
  -28.5767  -19.6157   23.8779 H   0  0  0  0  0  0
  -28.1101  -23.7741   23.0782 H   0  0  0  0  0  0
  -28.9704  -22.7584   18.4998 H   0  0  0  0  0  0
  -28.6716  -24.5547   18.2897 H   0  0  0  0  0  0
  -30.6693  -25.0900   19.6649 H   0  0  0  0  0  0
  -31.0012  -23.2966   19.8788 H   0  0  0  0  0  0
  -28.2404  -18.4482   19.6788 H   0  0  0  0  0  0
  -29.9737  -18.3837   19.5045 H   0  0  0  0  0  0
  -31.4490  -18.3996   21.4672 H   0  0  0  0  0  0
  -30.8171  -18.4380   23.0850 H   0  0  0  0  0  0
  -29.0929  -16.1120   19.1382 H   0  0  0  0  0  0
  -28.0825  -16.2137   20.5544 H   0  0  0  0  0  0
  -30.0242  -16.1868   23.0255 H   0  0  0  0  0  0
  -31.6330  -16.1497   22.3743 H   0  0  0  0  0  0
  -28.5036  -18.1451   22.1214 H   0  0  0  0  0  0
  -27.6130  -21.0112   25.5113 H   0  0  0  0  0  0
  -26.9861  -22.5950   25.0693 H   0  0  0  0  0  0
  -28.6639  -22.4234   25.5971 H   0  0  0  0  0  0
  -28.5089  -25.4589   21.9138 H   0  0  0  0  0  0
  -27.1097  -24.9682   21.0071 H   0  0  0  0  0  0
  1 25  1  0  0  0
  1 30  2  0  0  0
  1 87  1  0  0  0
  2  3  1  0  0  0
  2 25  1  0  0  0
  2 88  1  0  0  0
  2 89  1  0  0  0
  3  4  1  0  0  0
  3 90  1  0  0  0
  3 91  1  0  0  0
  4  5  1  0  0  0
  4 92  1  0  0  0
  4 93  1  0  0  0
  5  6  1  0  0  0
  5 26  1  0  0  0
  5 94  1  0  0  0
  6 25  1  0  0  0
  6 95  1  0  0  0
  6 96  1  0  0  0
  7  8  2  0  0  0
  7 26  1  0  0  0
  7 29  1  0  0  0
  8  9  1  0  0  0
  8 22  1  0  0  0
  9 10  1  0  0  0
  9 27  2  0  0  0
 10 11  2  0  0  0
 10 15  1  0  0  0
 11 12  1  0  0  0
 11 97  1  0  0  0
 12 13  2  0  0  0
 12 98  1  0  0  0
 13 14  1  0  0  0
 13 31  1  0  0  0
 14 15  2  0  0  0
 14 99  1  0  0  0
 15100  1  0  0  0
 16 17  2  0  0  0
 16 21  1  0  0  0
 16 31  1  0  0  0
 17 18  1  0  0  0
 17101  1  0  0  0
 18 19  2  0  0  0
 18102  1  0  0  0
 19 20  1  0  0  0
 19 24  1  0  0  0
 20 21  2  0  0  0
 20103  1  0  0  0
 21 23  1  0  0  0
 22 28  1  0  0  0
 22 32  2  0  0  0
 26 27  1  0  0  0
 28104  1  0  0  0
 28105  1  0  0  0
 29106  1  0  0  0
 29107  1  0  0  0
 33 34  1  0  0  0
 33 66  1  0  0  0
 33 70  2  0  0  0
 34 36  1  0  0  0
 34 59  1  0  0  0
 34108  1  0  0  0
 35 44  2  0  0  0
 35 45  1  0  0  0
 35 68  1  0  0  0
 36 56  1  0  0  0
 36109  1  0  0  0
 37 39  1  0  0  0
 37 47  1  0  0  0
 37 66  1  0  0  0
 37110  1  0  0  0
 38 43  2  0  0  0
 38 46  1  0  0  0
 38 47  1  0  0  0
 39 64  1  0  0  0
 39 67  2  0  0  0
 40 52  1  0  0  0
 40 53  2  0  0  0
 40 58  1  0  0  0
 41111  1  0  0  0
 41112  1  0  0  0
 41113  1  0  0  0
 41 48  1  0  0  0
 42 43  1  0  0  0
 42 66  1  0  0  0
 42114  1  0  0  0
 42115  1  0  0  0
 43 44  1  0  0  0
 44116  1  0  0  0
 45 46  2  0  0  0
 45117  1  0  0  0
 46118  1  0  0  0
 47119  1  0  0  0
 47120  1  0  0  0
 48 56  1  0  0  0
 48 65  1  0  0  0
 48121  1  0  0  0
 49 50  1  0  0  0
 49 53  1  0  0  0
 49 64  1  0  0  0
 49122  1  0  0  0
 50 51  1  0  0  0
 50123  1  0  0  0
 50124  1  0  0  0
 51 52  1  0  0  0
 51125  1  0  0  0
 51126  1  0  0  0
 52127  1  0  0  0
 52128  1  0  0  0
 53 54  1  0  0  0
 54 55  2  0  0  0
 54129  1  0  0  0
 55 57  1  0  0  0
 55130  1  0  0  0
 56 69  2  0  0  0
 57 58  2  0  0  0
 57131  1  0  0  0
 58132  1  0  0  0
 59 60  1  0  0  0
 59 61  1  0  0  0
 59 62  1  0  0  0
 60133  1  0  0  0
 60134  1  0  0  0
 60135  1  0  0  0
 61136  1  0  0  0
 61137  1  0  0  0
 61138  1  0  0  0
 62139  1  0  0  0
 62140  1  0  0  0
 62141  1  0  0  0
 63 65  1  0  0  0
 63142  1  0  0  0
 63143  1  0  0  0
 63144  1  0  0  0
 64145  1  0  0  0
 65146  1  0  0  0
 68 86  1  0  0  0
 71 74  2  0  0  0
 71 75  1  0  0  0
 71147  1  0  0  0
 72 74  1  0  0  0
 72 76  2  0  0  0
 72148  1  0  0  0
 73 75  2  0  0  0
 73 76  1  0  0  0
 73149  1  0  0  0
 74 83  1  0  0  0
 75 84  1  0  0  0
 76 85  1  0  0  0
 77 78  1  0  0  0
 77 84  1  0  0  0
 77150  1  0  0  0
 77151  1  0  0  0
 78 84  1  0  0  0
 78152  1  0  0  0
 78153  1  0  0  0
 79 81  1  0  0  0
 79 83  1  0  0  0
 79154  1  0  0  0
 79155  1  0  0  0
 80 82  1  0  0  0
 80 83  1  0  0  0
 80156  1  0  0  0
 80157  1  0  0  0
 81 87  1  0  0  0
 81158  1  0  0  0
 81159  1  0  0  0
 82 87  1  0  0  0
 82160  1  0  0  0
 82161  1  0  0  0
 83162  1  0  0  0
 84 86  1  0  0  0
 85163  1  0  0  0
 85164  1  0  0  0
 85165  1  0  0  0
 86166  1  0  0  0
 86167  1  0  0  0
M  ISO  4   1 100  68 101  86 101  87 100
M  END
> <chiral flag>
0

> <version>
0

> <s_m_source_file>
/data/baiqing/PycharmProjects/Reinvent-master-3.2/result/LINK_invent/BTK/process_docking_weight1_custom_sum_contain_oxygen_bond_distance_aromatic_linkinvent_7_9_3/rearranged_h_0148.sdf

> <i_m_source_file_index>
55

> <r_mmod_Potential_Energy-OPLS-2005>
342.691375732422

> <r_mmod_Stretch_Energy-OPLS-2005>
84.919563293457

> <r_mmod_Bend_Energy-OPLS-2005>
154.574478149414

> <r_mmod_Torsional_Energy-OPLS-2005>
386.248199462891

> <r_mmod_Improper_Torsional_Energy-OPLS-2005>
3.0480740070343

> <r_mmod_Van_der_Waal_Energy-OPLS-2005>
142.016555786133

> <r_mmod_Electrostatic_Energy-OPLS-2005>
-284.193267822266

> <r_mmod_Solvation_Energy-OPLS-2005>
-188.286148071289

> <b_mmod_Minimization_Converged-OPLS-2005>
0

> <r_mmod_RMS_Derivative-OPLS-2005>
2.88933897018433

$$$$
55
                    3D
 Structure written by MMmdl.
168177  0  0  1  0            999 V2000
  -30.7207  -14.4913   20.5305 C   0  0  0  0  0  0
  -30.4125  -12.3085   19.4372 C   0  0  0  0  0  0
  -29.4945  -12.4922   18.2121 C   0  0  0  0  0  0
  -28.0167  -12.3541   18.6246 C   0  0  0  0  0  0
  -27.6565  -13.2145   19.8663 C   0  0  2  0  0  0
  -28.6995  -13.0464   20.9952 C   0  0  0  0  0  0
  -25.2572  -13.8177   20.5684 C   0  0  0  0  0  0
  -24.1833  -13.0448   20.9192 C   0  0  0  0  0  0
  -24.6396  -11.6918   20.8742 C   0  0  0  0  0  0
  -23.9062  -10.4302   21.0405 C   0  0  0  0  0  0
  -24.3616   -9.4218   21.9180 C   0  0  0  0  0  0
  -23.6300   -8.2247   22.0748 C   0  0  0  0  0  0
  -22.4280   -8.0283   21.3542 C   0  0  0  0  0  0
  -21.9915   -9.0256   20.4641 C   0  0  0  0  0  0
  -22.7237  -10.2140   20.3052 C   0  0  0  0  0  0
  -21.6855   -6.0740   22.5283 C   0  0  0  0  0  0
  -21.4011   -6.5643   23.8218 C   0  0  0  0  0  0
  -21.3659   -5.6794   24.9177 C   0  0  0  0  0  0
  -21.6045   -4.3056   24.7227 C   0  0  0  0  0  0
  -21.8820   -3.8151   23.4348 C   0  0  0  0  0  0
  -21.9193   -4.6969   22.3404 C   0  0  0  0  0  0
  -22.7854  -13.5241   21.1852 C   0  0  0  0  0  0
  -22.1664   -4.2155   21.0982 F   0  0  0  0  0  0
  -21.5630   -3.4539   25.7740 F   0  0  0  0  0  0
  -30.0265  -13.3253   20.4298 N   0  0  0  0  0  0
  -26.3005  -12.9365   20.3340 N   0  0  0  0  0  0
  -25.9324  -11.6518   20.5767 N   0  0  0  0  0  0
  -22.0487  -12.8231   22.0402 N   0  0  0  0  0  0
  -25.4290  -15.1894   20.4084 N   0  0  0  0  0  0
  -31.8802  -14.6020   20.1264 O   0  0  0  0  0  0
  -21.6641   -6.8882   21.4244 O   0  0  0  0  0  0
  -22.3547  -14.5551   20.6705 O   0  0  0  0  0  0
  -24.6172  -31.8675   23.2100 C   0  0  0  0  0  0
  -25.9062  -32.4818   23.8395 C   0  0  1  0  0  0
  -27.2187  -27.4053   20.1012 C   0  0  0  0  0  0
  -25.5920  -33.8617   24.2326 N   0  0  0  0  0  0
  -23.4055  -30.4936   21.5512 C   0  0  2  0  0  0
  -24.8497  -28.9654   20.1079 C   0  0  0  0  0  0
  -22.7424  -29.4657   22.4973 C   0  0  0  0  0  0
  -18.0277  -28.1379   22.8488 C   0  0  0  0  0  0
  -24.1491  -36.7306   23.2635 C   0  0  0  0  0  0
  -25.9389  -30.8247   21.3687 C   0  0  0  0  0  0
  -26.0136  -29.4602   20.7102 C   0  0  0  0  0  0
  -27.2029  -28.6888   20.7022 C   0  0  0  0  0  0
  -26.0416  -26.9528   19.4596 C   0  0  0  0  0  0
  -24.8609  -27.7131   19.4754 C   0  0  0  0  0  0
  -23.6136  -29.8335   20.1633 C   0  0  0  0  0  0
  -25.4111  -36.3105   24.0337 C   0  0  1  0  0  0
  -20.5868  -28.3667   23.1313 C   0  0  2  0  0  0
  -20.6764  -26.9402   22.5414 C   0  0  0  0  0  0
  -19.5743  -26.6386   21.5210 C   0  0  0  0  0  0
  -18.1922  -26.7927   22.1618 C   0  0  0  0  0  0
  -19.1526  -28.8838   23.2898 C   0  0  0  0  0  0
  -18.9451  -30.1444   23.8904 C   0  0  0  0  0  0
  -17.6456  -30.6584   24.0561 C   0  0  0  0  0  0
  -25.9040  -34.9472   23.5123 C   0  0  0  0  0  0
  -16.5346  -29.9084   23.6331 C   0  0  0  0  0  0
  -16.7265  -28.6503   23.0347 C   0  0  0  0  0  0
  -26.4480  -31.6599   25.0727 C   0  0  0  0  0  0
  -25.3743  -31.3718   26.1475 C   0  0  0  0  0  0
  -27.0302  -30.3036   24.6112 C   0  0  0  0  0  0
  -27.6060  -32.4311   25.7490 C   0  0  0  0  0  0
  -27.5583  -37.1805   24.8461 C   0  0  0  0  0  0
  -21.4147  -29.3038   22.3720 N   0  0  0  0  0  0
  -26.4293  -37.3793   23.9411 N   0  0  0  0  0  0
  -24.6723  -31.0763   22.1012 N   0  0  0  0  0  0
  -23.4192  -28.8188   23.3009 O   0  0  0  0  0  0
  -28.3502  -26.6044   20.1625 O   0  0  0  0  0  0
  -26.5588  -34.8927   22.4677 O   0  0  0  0  0  0
  -23.5360  -32.1434   23.7486 O   0  0  0  0  0  0
  -27.8448  -20.3785   23.2355 C   0  0  0  0  0  0
  -29.2444  -18.0317   23.1270 C   0  0  0  0  0  0
  -28.3450  -19.9847   21.9746 C   0  0  0  0  0  0
  -29.0462  -18.7361   21.9178 C   0  0  0  0  0  0
  -28.0929  -19.5950   24.3726 C   0  0  0  0  0  0
  -28.4728  -24.3362   19.1264 C   0  0  0  0  0  0
  -28.9009  -24.5830   21.5281 C   0  0  0  0  0  0
  -28.0638  -22.8540   19.3356 C   0  0  0  0  0  0
  -28.4618  -23.1113   21.7758 C   0  0  0  0  0  0
  -28.1152  -25.1827   20.3560 C   0  0  1  0  0  0
  -27.5630  -20.0014   25.7311 C   0  0  0  0  0  0
  -29.5419  -18.1199   20.6015 C   0  0  0  0  0  0
  -27.9746  -20.8436   20.7427 C   0  0  0  0  0  0
  -30.5752  -16.9587   20.6948 C   0  0  0  0  0  0
  -28.7939  -18.4500   24.3242 N   0  0  0  0  0  0
  -30.0284  -15.5953   20.8866 N   0  0  0  0  0  0
  -28.5906  -22.2115   20.5845 N   0  3  1  0  0  0
  -31.4599  -12.3832   19.1391 H   0  0  0  0  0  0
  -30.2947  -11.3090   19.8590 H   0  0  0  0  0  0
  -29.7380  -11.7564   17.4446 H   0  0  0  0  0  0
  -29.6641  -13.4722   17.7625 H   0  0  0  0  0  0
  -27.8326  -11.3006   18.8389 H   0  0  0  0  0  0
  -27.3656  -12.6092   17.7876 H   0  0  0  0  0  0
  -27.6866  -14.2545   19.5403 H   0  0  0  0  0  0
  -28.6765  -12.0304   21.3920 H   0  0  0  0  0  0
  -28.4704  -13.7020   21.8366 H   0  0  0  0  0  0
  -25.2759   -9.5702   22.4753 H   0  0  0  0  0  0
  -24.0016   -7.4637   22.7465 H   0  0  0  0  0  0
  -21.0846   -8.8775   19.8946 H   0  0  0  0  0  0
  -22.3693  -10.9679   19.6161 H   0  0  0  0  0  0
  -21.2000   -7.6149   23.9725 H   0  0  0  0  0  0
  -21.1479   -6.0519   25.9082 H   0  0  0  0  0  0
  -22.0597   -2.7613   23.2843 H   0  0  0  0  0  0
  -22.4086  -11.9889   22.4796 H   0  0  0  0  0  0
  -21.1102  -13.1259   22.2592 H   0  0  0  0  0  0
  -24.6610  -15.8432   20.5129 H   0  0  0  0  0  0
  -26.2790  -15.6276   20.0783 H   0  0  0  0  0  0
  -26.7130  -32.5518   23.1154 H   0  0  0  0  0  0
  -25.0112  -33.9780   25.0499 H   0  0  0  0  0  0
  -22.6950  -31.3116   21.4151 H   0  0  0  0  0  0
  -23.3756  -35.9636   23.3300 H   0  0  0  0  0  0
  -24.3591  -36.8912   22.2048 H   0  0  0  0  0  0
  -23.7238  -37.6512   23.6643 H   0  0  0  0  0  0
  -26.0577  -31.5925   20.6028 H   0  0  0  0  0  0
  -26.8249  -30.8732   21.9900 H   0  0  0  0  0  0
  -28.0962  -29.0592   21.1857 H   0  0  0  0  0  0
  -26.0160  -26.0010   18.9497 H   0  0  0  0  0  0
  -23.9709  -27.3328   18.9929 H   0  0  0  0  0  0
  -23.7222  -30.6115   19.4067 H   0  0  0  0  0  0
  -22.7368  -29.2556   19.8656 H   0  0  0  0  0  0
  -25.1288  -36.1968   25.0831 H   0  0  0  0  0  0
  -20.9964  -28.3227   24.1433 H   0  0  0  0  0  0
  -20.5667  -26.2270   23.3599 H   0  0  0  0  0  0
  -21.6634  -26.7442   22.1205 H   0  0  0  0  0  0
  -19.6902  -25.6300   21.1231 H   0  0  0  0  0  0
  -19.6692  -27.3202   20.6746 H   0  0  0  0  0  0
  -17.4197  -26.6682   21.4015 H   0  0  0  0  0  0
  -18.0321  -26.0069   22.9012 H   0  0  0  0  0  0
  -19.7930  -30.7255   24.2279 H   0  0  0  0  0  0
  -17.5014  -31.6269   24.5152 H   0  0  0  0  0  0
  -15.5345  -30.2985   23.7660 H   0  0  0  0  0  0
  -15.8667  -28.0830   22.7052 H   0  0  0  0  0  0
  -24.5923  -30.7050   25.7824 H   0  0  0  0  0  0
  -24.8930  -32.2878   26.4912 H   0  0  0  0  0  0
  -25.8100  -30.8905   27.0239 H   0  0  0  0  0  0
  -26.2845  -29.6807   24.1154 H   0  0  0  0  0  0
  -27.4050  -29.7262   25.4573 H   0  0  0  0  0  0
  -27.8699  -30.4346   23.9282 H   0  0  0  0  0  0
  -27.2689  -33.3609   26.2083 H   0  0  0  0  0  0
  -28.3868  -32.6861   25.0313 H   0  0  0  0  0  0
  -28.0728  -31.8419   26.5392 H   0  0  0  0  0  0
  -28.2594  -38.0109   24.7521 H   0  0  0  0  0  0
  -28.1085  -36.2640   24.6270 H   0  0  0  0  0  0
  -27.2306  -37.1435   25.8864 H   0  0  0  0  0  0
  -20.9300  -29.8782   21.6966 H   0  0  0  0  0  0
  -26.0181  -38.2870   24.1419 H   0  0  0  0  0  0
  -27.2378  -21.2655   23.3441 H   0  0  0  0  0  0
  -29.7612  -17.0852   23.1565 H   0  0  0  0  0  0
  -27.9644  -24.7270   18.2447 H   0  0  0  0  0  0
  -29.5405  -24.4077   18.9158 H   0  0  0  0  0  0
  -29.9742  -24.6397   21.3413 H   0  0  0  0  0  0
  -28.7162  -25.1690   22.4290 H   0  0  0  0  0  0
  -28.3771  -22.2699   18.4691 H   0  0  0  0  0  0
  -26.9735  -22.8070   19.3491 H   0  0  0  0  0  0
  -27.4204  -23.1188   22.1006 H   0  0  0  0  0  0
  -29.0502  -22.7103   22.6012 H   0  0  0  0  0  0
  -27.0700  -25.0018   20.6107 H   0  0  0  0  0  0
  -26.6898  -20.6465   25.6330 H   0  0  0  0  0  0
  -28.3276  -20.5437   26.2871 H   0  0  0  0  0  0
  -27.2684  -19.1278   26.3135 H   0  0  0  0  0  0
  -30.0262  -18.9225   20.0435 H   0  0  0  0  0  0
  -28.6857  -17.8097   20.0008 H   0  0  0  0  0  0
  -26.8900  -20.9586   20.7706 H   0  0  0  0  0  0
  -28.1661  -20.2742   19.8343 H   0  0  0  0  0  0
  -31.3453  -17.1715   21.4383 H   0  0  0  0  0  0
  -31.1020  -16.9606   19.7377 H   0  0  0  0  0  0
  -29.0651  -15.4881   21.1665 H   0  0  0  0  0  0
  -29.5781  -22.0539   20.4486 H   0  0  0  0  0  0
  1 25  1  0  0  0
  1 30  2  0  0  0
  1 86  1  0  0  0
  2  3  1  0  0  0
  2 25  1  0  0  0
  2 88  1  0  0  0
  2 89  1  0  0  0
  3  4  1  0  0  0
  3 90  1  0  0  0
  3 91  1  0  0  0
  4  5  1  0  0  0
  4 92  1  0  0  0
  4 93  1  0  0  0
  5  6  1  0  0  0
  5 26  1  0  0  0
  5 94  1  0  0  0
  6 25  1  0  0  0
  6 95  1  0  0  0
  6 96  1  0  0  0
  7  8  2  0  0  0
  7 26  1  0  0  0
  7 29  1  0  0  0
  8  9  1  0  0  0
  8 22  1  0  0  0
  9 10  1  0  0  0
  9 27  2  0  0  0
 10 11  2  0  0  0
 10 15  1  0  0  0
 11 12  1  0  0  0
 11 97  1  0  0  0
 12 13  2  0  0  0
 12 98  1  0  0  0
 13 14  1  0  0  0
 13 31  1  0  0  0
 14 15  2  0  0  0
 14 99  1  0  0  0
 15100  1  0  0  0
 16 17  2  0  0  0
 16 21  1  0  0  0
 16 31  1  0  0  0
 17 18  1  0  0  0
 17101  1  0  0  0
 18 19  2  0  0  0
 18102  1  0  0  0
 19 20  1  0  0  0
 19 24  1  0  0  0
 20 21  2  0  0  0
 20103  1  0  0  0
 21 23  1  0  0  0
 22 28  1  0  0  0
 22 32  2  0  0  0
 26 27  1  0  0  0
 28104  1  0  0  0
 28105  1  0  0  0
 29106  1  0  0  0
 29107  1  0  0  0
 33 34  1  0  0  0
 33 66  1  0  0  0
 33 70  2  0  0  0
 34 36  1  0  0  0
 34 59  1  0  0  0
 34108  1  0  0  0
 35 44  2  0  0  0
 35 45  1  0  0  0
 35 68  1  0  0  0
 36 56  1  0  0  0
 36109  1  0  0  0
 37 39  1  0  0  0
 37 47  1  0  0  0
 37 66  1  0  0  0
 37110  1  0  0  0
 38 43  2  0  0  0
 38 46  1  0  0  0
 38 47  1  0  0  0
 39 64  1  0  0  0
 39 67  2  0  0  0
 40 52  1  0  0  0
 40 53  2  0  0  0
 40 58  1  0  0  0
 41111  1  0  0  0
 41112  1  0  0  0
 41113  1  0  0  0
 41 48  1  0  0  0
 42 43  1  0  0  0
 42 66  1  0  0  0
 42114  1  0  0  0
 42115  1  0  0  0
 43 44  1  0  0  0
 44116  1  0  0  0
 45 46  2  0  0  0
 45117  1  0  0  0
 46118  1  0  0  0
 47119  1  0  0  0
 47120  1  0  0  0
 48 56  1  0  0  0
 48 65  1  0  0  0
 48121  1  0  0  0
 49 50  1  0  0  0
 49 53  1  0  0  0
 49 64  1  0  0  0
 49122  1  0  0  0
 50 51  1  0  0  0
 50123  1  0  0  0
 50124  1  0  0  0
 51 52  1  0  0  0
 51125  1  0  0  0
 51126  1  0  0  0
 52127  1  0  0  0
 52128  1  0  0  0
 53 54  1  0  0  0
 54 55  2  0  0  0
 54129  1  0  0  0
 55 57  1  0  0  0
 55130  1  0  0  0
 56 69  2  0  0  0
 57 58  2  0  0  0
 57131  1  0  0  0
 58132  1  0  0  0
 59 60  1  0  0  0
 59 61  1  0  0  0
 59 62  1  0  0  0
 60133  1  0  0  0
 60134  1  0  0  0
 60135  1  0  0  0
 61136  1  0  0  0
 61137  1  0  0  0
 61138  1  0  0  0
 62139  1  0  0  0
 62140  1  0  0  0
 62141  1  0  0  0
 63 65  1  0  0  0
 63142  1  0  0  0
 63143  1  0  0  0
 63144  1  0  0  0
 64145  1  0  0  0
 65146  1  0  0  0
 68 80  1  0  0  0
 71 73  2  0  0  0
 71 75  1  0  0  0
 71147  1  0  0  0
 72 74  2  0  0  0
 72 85  1  0  0  0
 72148  1  0  0  0
 73 74  1  0  0  0
 73 83  1  0  0  0
 74 82  1  0  0  0
 75 81  1  0  0  0
 75 85  2  0  0  0
 76 78  1  0  0  0
 76 80  1  0  0  0
 76149  1  0  0  0
 76150  1  0  0  0
 77 79  1  0  0  0
 77 80  1  0  0  0
 77151  1  0  0  0
 77152  1  0  0  0
 78 87  1  0  0  0
 78153  1  0  0  0
 78154  1  0  0  0
 79 87  1  0  0  0
 79155  1  0  0  0
 79156  1  0  0  0
 80157  1  0  0  0
 81158  1  0  0  0
 81159  1  0  0  0
 81160  1  0  0  0
 82 84  1  0  0  0
 82161  1  0  0  0
 82162  1  0  0  0
 83163  1  0  0  0
 83164  1  0  0  0
 83 87  1  0  0  0
 84 86  1  0  0  0
 84165  1  0  0  0
 84166  1  0  0  0
 86167  1  0  0  0
 87168  1  0  0  0
M  CHG  1  87   1
M  ISO  4   1 100  68 101  80 101  86 100
M  END
> <chiral flag>
0

> <version>
0

> <s_m_source_file>
/data/baiqing/PycharmProjects/Reinvent-master-3.2/result/LINK_invent/BTK/process_docking_weight1_custom_sum_contain_oxygen_bond_distance_aromatic_linkinvent_7_9_3/rearranged_h_0148.sdf

> <i_m_source_file_index>
56

> <r_mmod_Potential_Energy-OPLS-2005>
-371.998687744141

> <r_mmod_Stretch_Energy-OPLS-2005>
47.7636184692383

> <r_mmod_Bend_Energy-OPLS-2005>
120.217132568359

> <r_mmod_Torsional_Energy-OPLS-2005>
242.401977539062

> <r_mmod_Improper_Torsional_Energy-OPLS-2005>
5.48130178451538

> <r_mmod_Van_der_Waal_Energy-OPLS-2005>
169.720901489258

> <r_mmod_Electrostatic_Energy-OPLS-2005>
-496.093444824219

> <r_mmod_Solvation_Energy-OPLS-2005>
-483.644653320312

> <b_mmod_Minimization_Converged-OPLS-2005>
0

> <r_mmod_RMS_Derivative-OPLS-2005>
0.685648024082184

$$$$
56
                    3D
 Structure written by MMmdl.
162171  0  0  1  0            999 V2000
  -30.5722  -14.8841   20.4379 C   0  0  0  0  0  0
  -30.4449  -12.5514   19.4731 C   0  0  0  0  0  0
  -29.5154  -12.5056   18.2394 C   0  0  0  0  0  0
  -28.0537  -12.2984   18.6729 C   0  0  0  0  0  0
  -27.6375  -13.2361   19.8388 C   0  0  2  0  0  0
  -28.6848  -13.2422   20.9734 C   0  0  0  0  0  0
  -25.2524  -13.8251   20.5753 C   0  0  0  0  0  0
  -24.1787  -13.0505   20.9239 C   0  0  0  0  0  0
  -24.6390  -11.6993   20.8799 C   0  0  0  0  0  0
  -23.9075  -10.4348   21.0458 C   0  0  0  0  0  0
  -24.3631   -9.4269   21.9236 C   0  0  0  0  0  0
  -23.6321   -8.2292   22.0787 C   0  0  0  0  0  0
  -22.4311   -8.0319   21.3569 C   0  0  0  0  0  0
  -21.9932   -9.0302   20.4679 C   0  0  0  0  0  0
  -22.7247  -10.2197   20.3113 C   0  0  0  0  0  0
  -21.6882   -6.0752   22.5273 C   0  0  0  0  0  0
  -21.3997   -6.5657   23.8186 C   0  0  0  0  0  0
  -21.3682   -5.6821   24.9162 C   0  0  0  0  0  0
  -21.6075   -4.3090   24.7223 C   0  0  0  0  0  0
  -21.8829   -3.8170   23.4352 C   0  0  0  0  0  0
  -21.9209   -4.6974   22.3397 C   0  0  0  0  0  0
  -22.7799  -13.5305   21.1853 C   0  0  0  0  0  0
  -22.1655   -4.2154   21.0972 F   0  0  0  0  0  0
  -21.5641   -3.4581   25.7739 F   0  0  0  0  0  0
  -29.9613  -13.6403   20.3677 N   0  0  0  0  0  0
  -26.2927  -12.9447   20.3264 N   0  0  0  0  0  0
  -25.9320  -11.6604   20.5786 N   0  0  0  0  0  0
  -22.0376  -12.8312   22.0384 N   0  0  0  0  0  0
  -25.4210  -15.1970   20.4181 N   0  0  0  0  0  0
  -31.7799  -14.9439   20.1810 O   0  0  0  0  0  0
  -21.6704   -6.8908   21.4231 O   0  0  0  0  0  0
  -22.3524  -14.5612   20.6692 O   0  0  0  0  0  0
  -24.6395  -31.8469   23.1895 C   0  0  0  0  0  0
  -25.9177  -32.4708   23.8273 C   0  0  1  0  0  0
  -27.2141  -27.1482   20.1946 C   0  0  0  0  0  0
  -25.5963  -33.8510   24.2214 N   0  0  0  0  0  0
  -23.4423  -30.4615   21.5353 C   0  0  2  0  0  0
  -24.8882  -28.8683   20.1297 C   0  0  0  0  0  0
  -22.7539  -29.4596   22.4953 C   0  0  0  0  0  0
  -18.0295  -28.1377   22.8458 C   0  0  0  0  0  0
  -24.1493  -36.7252   23.2651 C   0  0  0  0  0  0
  -25.9914  -30.7229   21.3822 C   0  0  0  0  0  0
  -26.0603  -29.3254   20.7470 C   0  0  0  0  0  0
  -27.2230  -28.4800   20.7605 C   0  0  0  0  0  0
  -26.0245  -26.7801   19.5365 C   0  0  0  0  0  0
  -24.8794  -27.6077   19.5114 C   0  0  0  0  0  0
  -23.6659  -29.7692   20.1616 C   0  0  0  0  0  0
  -25.4128  -36.3040   24.0325 C   0  0  1  0  0  0
  -20.5895  -28.3695   23.1256 C   0  0  2  0  0  0
  -20.6789  -26.9412   22.5393 C   0  0  0  0  0  0
  -19.5778  -26.6373   21.5188 C   0  0  0  0  0  0
  -18.1959  -26.7917   22.1599 C   0  0  0  0  0  0
  -19.1548  -28.8862   23.2839 C   0  0  0  0  0  0
  -18.9475  -30.1465   23.8842 C   0  0  0  0  0  0
  -17.6477  -30.6584   24.0539 C   0  0  0  0  0  0
  -25.9075  -34.9409   23.5076 C   0  0  0  0  0  0
  -16.5365  -29.9065   23.6334 C   0  0  0  0  0  0
  -16.7281  -28.6488   23.0340 C   0  0  0  0  0  0
  -26.4522  -31.6579   25.0706 C   0  0  0  0  0  0
  -25.3741  -31.3750   26.1425 C   0  0  0  0  0  0
  -27.0403  -30.2996   24.6274 C   0  0  0  0  0  0
  -27.6060  -32.4343   25.7490 C   0  0  0  0  0  0
  -27.5580  -37.1774   24.8470 C   0  0  0  0  0  0
  -21.4248  -29.3045   22.3651 N   0  0  0  0  0  0
  -26.4298  -37.3747   23.9404 N   0  0  0  0  0  0
  -24.7109  -31.0349   22.0901 N   0  0  0  0  0  0
  -23.4192  -28.8176   23.3118 O   0  0  0  0  0  0
  -28.3269  -26.2521   20.1482 O   0  0  0  0  0  0
  -26.5639  -34.8900   22.4641 O   0  0  0  0  0  0
  -23.5521  -32.1330   23.7150 O   0  0  0  0  0  0
  -29.2363  -19.9074   21.5792 C   0  0  0  0  0  0
  -29.5551  -18.9947   20.5155 C   0  0  0  0  0  0
  -29.4053  -19.6451   19.2474 C   0  0  0  0  0  0
  -28.9960  -21.0423   19.1301 C   0  0  0  0  0  0
  -28.6819  -21.8728   20.2702 C   0  0  0  0  0  0
  -25.2924  -23.3524   19.7179 C   0  0  0  0  0  0
  -25.6342  -21.9556   20.1749 C   0  0  0  0  0  0
  -26.4776  -23.1295   20.6317 C   0  0  0  0  0  0
  -29.7021  -18.8403   17.9880 C   0  0  0  0  0  0
  -28.8627  -21.6602   17.7386 C   0  0  0  0  0  0
  -30.2992  -17.5440   20.7840 C   0  0  0  0  0  0
  -28.4328  -24.8195   20.7386 C   0  0  0  0  0  0
  -27.9169  -23.3435   20.1557 C   0  0  1  0  0  0
  -28.8190  -21.2296   21.4734 N   0  0  0  0  0  0
  -29.8154  -16.0684   20.6007 N   0  0  0  0  0  0
  -31.4738  -12.7056   19.1451 H   0  0  0  0  0  0
  -30.4460  -11.5928   19.9973 H   0  0  0  0  0  0
  -29.8252  -11.7055   17.5652 H   0  0  0  0  0  0
  -29.6024  -13.4318   17.6672 H   0  0  0  0  0  0
  -27.9633  -11.2577   18.9878 H   0  0  0  0  0  0
  -27.3853  -12.4181   17.8186 H   0  0  0  0  0  0
  -27.6178  -14.2425   19.4211 H   0  0  0  0  0  0
  -28.7619  -12.2604   21.4434 H   0  0  0  0  0  0
  -28.4082  -13.9388   21.7649 H   0  0  0  0  0  0
  -25.2741   -9.5772   22.4860 H   0  0  0  0  0  0
  -24.0074   -7.4691   22.7492 H   0  0  0  0  0  0
  -21.0898   -8.8810   19.8950 H   0  0  0  0  0  0
  -22.3671  -10.9762   19.6266 H   0  0  0  0  0  0
  -21.1915   -7.6150   23.9684 H   0  0  0  0  0  0
  -21.1507   -6.0561   25.9064 H   0  0  0  0  0  0
  -22.0573   -2.7633   23.2847 H   0  0  0  0  0  0
  -22.4035  -12.0044   22.4860 H   0  0  0  0  0  0
  -21.0945  -13.1297   22.2489 H   0  0  0  0  0  0
  -24.6474  -15.8464   20.5180 H   0  0  0  0  0  0
  -26.2577  -15.6336   20.0539 H   0  0  0  0  0  0
  -26.7227  -32.5310   23.0983 H   0  0  0  0  0  0
  -25.0088  -33.9620   25.0344 H   0  0  0  0  0  0
  -22.7459  -31.2859   21.3710 H   0  0  0  0  0  0
  -23.3781  -35.9560   23.3290 H   0  0  0  0  0  0
  -24.3581  -36.8903   22.2072 H   0  0  0  0  0  0
  -23.7200  -37.6423   23.6694 H   0  0  0  0  0  0
  -26.1354  -31.4625   20.5945 H   0  0  0  0  0  0
  -26.8719  -30.7952   22.0088 H   0  0  0  0  0  0
  -28.1223  -28.8310   21.2444 H   0  0  0  0  0  0
  -25.9727  -25.8264   19.0348 H   0  0  0  0  0  0
  -23.9820  -27.2511   19.0237 H   0  0  0  0  0  0
  -23.8023  -30.5279   19.3907 H   0  0  0  0  0  0
  -22.7850  -29.2006   19.8594 H   0  0  0  0  0  0
  -25.1316  -36.1884   25.0821 H   0  0  0  0  0  0
  -20.9942  -28.3249   24.1393 H   0  0  0  0  0  0
  -20.5690  -26.2297   23.3586 H   0  0  0  0  0  0
  -21.6658  -26.7435   22.1194 H   0  0  0  0  0  0
  -19.6948  -25.6287   21.1221 H   0  0  0  0  0  0
  -19.6713  -27.3164   20.6707 H   0  0  0  0  0  0
  -17.4215  -26.6616   21.4015 H   0  0  0  0  0  0
  -18.0405  -26.0066   22.9014 H   0  0  0  0  0  0
  -19.7960  -30.7291   24.2177 H   0  0  0  0  0  0
  -17.5027  -31.6249   24.5160 H   0  0  0  0  0  0
  -15.5362  -30.2930   23.7720 H   0  0  0  0  0  0
  -15.8678  -28.0786   22.7081 H   0  0  0  0  0  0
  -24.5898  -30.7135   25.7737 H   0  0  0  0  0  0
  -24.8961  -32.2930   26.4864 H   0  0  0  0  0  0
  -25.8039  -30.8892   27.0198 H   0  0  0  0  0  0
  -26.3027  -29.6717   24.1273 H   0  0  0  0  0  0
  -27.4027  -29.7310   25.4852 H   0  0  0  0  0  0
  -27.8916  -30.4279   23.9586 H   0  0  0  0  0  0
  -27.2673  -33.3652   26.2058 H   0  0  0  0  0  0
  -28.3874  -32.6906   25.0323 H   0  0  0  0  0  0
  -28.0733  -31.8479   26.5416 H   0  0  0  0  0  0
  -28.2615  -38.0058   24.7529 H   0  0  0  0  0  0
  -28.1070  -36.2595   24.6306 H   0  0  0  0  0  0
  -27.2289  -37.1420   25.8870 H   0  0  0  0  0  0
  -20.9495  -29.8692   21.6750 H   0  0  0  0  0  0
  -26.0184  -38.2834   24.1362 H   0  0  0  0  0  0
  -29.3521  -19.5646   22.5970 H   0  0  0  0  0  0
  -24.4200  -23.8356   20.1519 H   0  0  0  0  0  0
  -25.4892  -23.6026   18.6790 H   0  0  0  0  0  0
  -26.0598  -21.2658   19.4463 H   0  0  0  0  0  0
  -24.9760  -21.4994   20.9122 H   0  0  0  0  0  0
  -26.3356  -23.3662   21.6864 H   0  0  0  0  0  0
  -30.5923  -19.2204   17.4846 H   0  0  0  0  0  0
  -28.8593  -18.8993   17.2980 H   0  0  0  0  0  0
  -29.8653  -17.7856   18.1941 H   0  0  0  0  0  0
  -29.2369  -22.6823   17.7218 H   0  0  0  0  0  0
  -27.8173  -21.6742   17.4313 H   0  0  0  0  0  0
  -29.4347  -21.1398   16.9736 H   0  0  0  0  0  0
  -31.2467  -17.6082   20.2490 H   0  0  0  0  0  0
  -30.5952  -17.5842   21.8339 H   0  0  0  0  0  0
  -29.5144  -24.6948   20.8055 H   0  0  0  0  0  0
  -28.1333  -24.8913   21.7841 H   0  0  0  0  0  0
  -27.8364  -23.5282   19.0906 H   0  0  0  0  0  0
  -28.8266  -15.9201   20.7277 H   0  0  0  0  0  0
  1 25  1  0  0  0
  1 30  2  0  0  0
  1 85  1  0  0  0
  2  3  1  0  0  0
  2 25  1  0  0  0
  2 86  1  0  0  0
  2 87  1  0  0  0
  3  4  1  0  0  0
  3 88  1  0  0  0
  3 89  1  0  0  0
  4  5  1  0  0  0
  4 90  1  0  0  0
  4 91  1  0  0  0
  5  6  1  0  0  0
  5 26  1  0  0  0
  5 92  1  0  0  0
  6 25  1  0  0  0
  6 93  1  0  0  0
  6 94  1  0  0  0
  7  8  2  0  0  0
  7 26  1  0  0  0
  7 29  1  0  0  0
  8  9  1  0  0  0
  8 22  1  0  0  0
  9 10  1  0  0  0
  9 27  2  0  0  0
 10 11  2  0  0  0
 10 15  1  0  0  0
 11 12  1  0  0  0
 11 95  1  0  0  0
 12 13  2  0  0  0
 12 96  1  0  0  0
 13 14  1  0  0  0
 13 31  1  0  0  0
 14 15  2  0  0  0
 14 97  1  0  0  0
 15 98  1  0  0  0
 16 17  2  0  0  0
 16 21  1  0  0  0
 16 31  1  0  0  0
 17 18  1  0  0  0
 17 99  1  0  0  0
 18 19  2  0  0  0
 18100  1  0  0  0
 19 20  1  0  0  0
 19 24  1  0  0  0
 20 21  2  0  0  0
 20101  1  0  0  0
 21 23  1  0  0  0
 22 28  1  0  0  0
 22 32  2  0  0  0
 26 27  1  0  0  0
 28102  1  0  0  0
 28103  1  0  0  0
 29104  1  0  0  0
 29105  1  0  0  0
 33 34  1  0  0  0
 33 66  1  0  0  0
 33 70  2  0  0  0
 34 36  1  0  0  0
 34 59  1  0  0  0
 34106  1  0  0  0
 35 44  2  0  0  0
 35 45  1  0  0  0
 35 68  1  0  0  0
 36 56  1  0  0  0
 36107  1  0  0  0
 37 39  1  0  0  0
 37 47  1  0  0  0
 37 66  1  0  0  0
 37108  1  0  0  0
 38 43  2  0  0  0
 38 46  1  0  0  0
 38 47  1  0  0  0
 39 64  1  0  0  0
 39 67  2  0  0  0
 40 52  1  0  0  0
 40 53  2  0  0  0
 40 58  1  0  0  0
 41109  1  0  0  0
 41110  1  0  0  0
 41111  1  0  0  0
 41 48  1  0  0  0
 42 43  1  0  0  0
 42 66  1  0  0  0
 42112  1  0  0  0
 42113  1  0  0  0
 43 44  1  0  0  0
 44114  1  0  0  0
 45 46  2  0  0  0
 45115  1  0  0  0
 46116  1  0  0  0
 47117  1  0  0  0
 47118  1  0  0  0
 48 56  1  0  0  0
 48 65  1  0  0  0
 48119  1  0  0  0
 49 50  1  0  0  0
 49 53  1  0  0  0
 49 64  1  0  0  0
 49120  1  0  0  0
 50 51  1  0  0  0
 50121  1  0  0  0
 50122  1  0  0  0
 51 52  1  0  0  0
 51123  1  0  0  0
 51124  1  0  0  0
 52125  1  0  0  0
 52126  1  0  0  0
 53 54  1  0  0  0
 54 55  2  0  0  0
 54127  1  0  0  0
 55 57  1  0  0  0
 55128  1  0  0  0
 56 69  2  0  0  0
 57 58  2  0  0  0
 57129  1  0  0  0
 58130  1  0  0  0
 59 60  1  0  0  0
 59 61  1  0  0  0
 59 62  1  0  0  0
 60131  1  0  0  0
 60132  1  0  0  0
 60133  1  0  0  0
 61134  1  0  0  0
 61135  1  0  0  0
 61136  1  0  0  0
 62137  1  0  0  0
 62138  1  0  0  0
 62139  1  0  0  0
 63 65  1  0  0  0
 63140  1  0  0  0
 63141  1  0  0  0
 63142  1  0  0  0
 64143  1  0  0  0
 65144  1  0  0  0
 68 82  1  0  0  0
 71 72  2  0  0  0
 71 84  1  0  0  0
 71145  1  0  0  0
 72 73  1  0  0  0
 72 81  1  0  0  0
 73 74  2  0  0  0
 73 79  1  0  0  0
 74 75  1  0  0  0
 74 80  1  0  0  0
 75 83  1  0  0  0
 75 84  2  0  0  0
 76 77  1  0  0  0
 76146  1  0  0  0
 76147  1  0  0  0
 76 78  1  0  0  0
 77 78  1  0  0  0
 77148  1  0  0  0
 77149  1  0  0  0
 78 83  1  0  0  0
 78150  1  0  0  0
 79151  1  0  0  0
 79152  1  0  0  0
 79153  1  0  0  0
 80154  1  0  0  0
 80155  1  0  0  0
 80156  1  0  0  0
 81 85  1  0  0  0
 81157  1  0  0  0
 81158  1  0  0  0
 82159  1  0  0  0
 82160  1  0  0  0
 82 83  1  0  0  0
 83161  1  0  0  0
 85162  1  0  0  0
M  ISO  4   1 100  68 101  82 101  85 100
M  END
> <chiral flag>
0

> <version>
0

> <s_m_source_file>
/data/baiqing/PycharmProjects/Reinvent-master-3.2/result/LINK_invent/BTK/process_docking_weight1_custom_sum_contain_oxygen_bond_distance_aromatic_linkinvent_7_9_3/rearranged_h_0148.sdf

> <i_m_source_file_index>
57

> <r_mmod_Potential_Energy-OPLS-2005>
401.377410888672

> <r_mmod_Stretch_Energy-OPLS-2005>
216.420715332031

> <r_mmod_Bend_Energy-OPLS-2005>
283.784301757812

> <r_mmod_Torsional_Energy-OPLS-2005>
271.098846435547

> <r_mmod_Improper_Torsional_Energy-OPLS-2005>
8.19390392303467

> <r_mmod_Van_der_Waal_Energy-OPLS-2005>
132.028823852539

> <r_mmod_Electrostatic_Energy-OPLS-2005>
-442.068298339844

> <r_mmod_Solvation_Energy-OPLS-2005>
-223.087631225586

> <b_mmod_Minimization_Converged-OPLS-2005>
0

> <r_mmod_RMS_Derivative-OPLS-2005>
4.75156450271606

$$$$
57
                    3D
 Structure written by MMmdl.
161170  0  0  1  0            999 V2000
  -30.5327  -14.8553   20.4576 C   0  0  0  0  0  0
  -30.4576  -12.5276   19.4845 C   0  0  0  0  0  0
  -29.5280  -12.5321   18.2436 C   0  0  0  0  0  0
  -28.0529  -12.3225   18.6480 C   0  0  0  0  0  0
  -27.6413  -13.2264   19.8395 C   0  0  2  0  0  0
  -28.6824  -13.1743   20.9791 C   0  0  0  0  0  0
  -25.2511  -13.8146   20.5646 C   0  0  0  0  0  0
  -24.1817  -13.0407   20.9241 C   0  0  0  0  0  0
  -24.6412  -11.6892   20.8752 C   0  0  0  0  0  0
  -23.9074  -10.4277   21.0384 C   0  0  0  0  0  0
  -24.3616   -9.4196   21.9180 C   0  0  0  0  0  0
  -23.6276   -8.2236   22.0766 C   0  0  0  0  0  0
  -22.4255   -8.0279   21.3544 C   0  0  0  0  0  0
  -21.9886   -9.0259   20.4651 C   0  0  0  0  0  0
  -22.7232  -10.2129   20.3045 C   0  0  0  0  0  0
  -21.6833   -6.0733   22.5288 C   0  0  0  0  0  0
  -21.4022   -6.5634   23.8237 C   0  0  0  0  0  0
  -21.3667   -5.6777   24.9195 C   0  0  0  0  0  0
  -21.6045   -4.3045   24.7217 C   0  0  0  0  0  0
  -21.8818   -3.8141   23.4338 C   0  0  0  0  0  0
  -21.9189   -4.6964   22.3401 C   0  0  0  0  0  0
  -22.7836  -13.5219   21.1861 C   0  0  0  0  0  0
  -22.1650   -4.2159   21.0975 F   0  0  0  0  0  0
  -21.5640   -3.4547   25.7730 F   0  0  0  0  0  0
  -29.9786  -13.5832   20.4111 N   0  0  0  0  0  0
  -26.2931  -12.9353   20.3182 N   0  0  0  0  0  0
  -25.9323  -11.6507   20.5698 N   0  0  0  0  0  0
  -22.0434  -12.8227   22.0399 N   0  0  0  0  0  0
  -25.4134  -15.1861   20.3982 N   0  0  0  0  0  0
  -31.7199  -15.0048   20.1427 O   0  0  0  0  0  0
  -21.6601   -6.8881   21.4252 O   0  0  0  0  0  0
  -22.3524  -14.5515   20.6690 O   0  0  0  0  0  0
  -24.6382  -31.8502   23.1866 C   0  0  0  0  0  0
  -25.9192  -32.4698   23.8249 C   0  0  1  0  0  0
  -27.2232  -27.1863   20.1579 C   0  0  0  0  0  0
  -25.5979  -33.8509   24.2198 N   0  0  0  0  0  0
  -23.4409  -30.4637   21.5316 C   0  0  2  0  0  0
  -24.8917  -28.8898   20.1125 C   0  0  0  0  0  0
  -22.7562  -29.4552   22.4865 C   0  0  0  0  0  0
  -18.0324  -28.1401   22.8479 C   0  0  0  0  0  0
  -24.1495  -36.7269   23.2630 C   0  0  0  0  0  0
  -25.9918  -30.7378   21.3760 C   0  0  0  0  0  0
  -26.0655  -29.3505   20.7243 C   0  0  0  0  0  0
  -27.2375  -28.5146   20.7271 C   0  0  0  0  0  0
  -26.0297  -26.8102   19.5081 C   0  0  0  0  0  0
  -24.8832  -27.6322   19.4865 C   0  0  0  0  0  0
  -23.6678  -29.7880   20.1514 C   0  0  0  0  0  0
  -25.4109  -36.3030   24.0302 C   0  0  1  0  0  0
  -20.5926  -28.3692   23.1236 C   0  0  2  0  0  0
  -20.6807  -26.9419   22.5372 C   0  0  0  0  0  0
  -19.5748  -26.6352   21.5220 C   0  0  0  0  0  0
  -18.1924  -26.7948   22.1594 C   0  0  0  0  0  0
  -19.1587  -28.8850   23.2863 C   0  0  0  0  0  0
  -18.9514  -30.1452   23.8884 C   0  0  0  0  0  0
  -17.6519  -30.6605   24.0563 C   0  0  0  0  0  0
  -25.9070  -34.9414   23.5046 C   0  0  0  0  0  0
  -16.5404  -29.9105   23.6321 C   0  0  0  0  0  0
  -16.7314  -28.6532   23.0335 C   0  0  0  0  0  0
  -26.4528  -31.6534   25.0659 C   0  0  0  0  0  0
  -25.3723  -31.3727   26.1361 C   0  0  0  0  0  0
  -27.0376  -30.2936   24.6175 C   0  0  0  0  0  0
  -27.6069  -32.4285   25.7449 C   0  0  0  0  0  0
  -27.5574  -37.1771   24.8455 C   0  0  0  0  0  0
  -21.4262  -29.3025   22.3631 N   0  0  0  0  0  0
  -26.4288  -37.3727   23.9398 N   0  0  0  0  0  0
  -24.7088  -31.0372   22.0891 N   0  0  0  0  0  0
  -23.4209  -28.8120   23.3039 O   0  0  0  0  0  0
  -28.2962  -26.2452   20.1739 O   0  0  0  0  0  0
  -26.5648  -34.8905   22.4619 O   0  0  0  0  0  0
  -23.5525  -32.1374   23.7111 O   0  0  0  0  0  0
  -30.3253  -19.8587   20.7177 C   0  0  0  0  0  0
  -30.6025  -18.4276   20.6790 C   0  0  0  0  0  0
  -28.2828  -18.0294   20.4978 C   0  0  0  0  0  0
  -29.0098  -20.4465   20.6668 C   0  0  0  0  0  0
  -29.5749  -17.4326   20.5922 C   0  0  0  0  0  0
  -27.9857  -19.4487   20.5449 C   0  0  0  0  0  0
  -23.1731  -19.3361   21.8003 C   0  0  0  0  0  0
  -23.7206  -20.7425   21.7740 C   0  0  0  0  0  0
  -24.3092  -19.6887   20.8630 C   0  0  0  0  0  0
  -28.6601  -22.0084   21.0417 C   0  0  0  0  0  0
  -25.6751  -19.0816   21.1028 C   0  0  0  0  0  0
  -28.6864  -23.3860   20.1181 C   0  0  0  0  0  0
  -28.0934  -24.8227   20.7159 C   0  0  0  0  0  0
  -29.6490  -15.9193   20.6831 N   0  0  0  0  0  0
  -26.6809  -19.9011   20.5041 O   0  0  0  0  0  0
  -31.4934  -12.6903   19.1867 H   0  0  0  0  0  0
  -30.4434  -11.5562   19.9776 H   0  0  0  0  0  0
  -29.8389  -11.7620   17.5350 H   0  0  0  0  0  0
  -29.6288  -13.4838   17.7145 H   0  0  0  0  0  0
  -27.9261  -11.2729   18.9187 H   0  0  0  0  0  0
  -27.3989  -12.4976   17.7928 H   0  0  0  0  0  0
  -27.6267  -14.2433   19.4455 H   0  0  0  0  0  0
  -28.7431  -12.1681   21.3957 H   0  0  0  0  0  0
  -28.3866  -13.8218   21.8079 H   0  0  0  0  0  0
  -25.2774   -9.5651   22.4758 H   0  0  0  0  0  0
  -23.9980   -7.4625   22.7481 H   0  0  0  0  0  0
  -21.0834   -8.8795   19.8936 H   0  0  0  0  0  0
  -22.3731  -10.9674   19.6154 H   0  0  0  0  0  0
  -21.2018   -7.6148   23.9760 H   0  0  0  0  0  0
  -21.1483   -6.0498   25.9107 H   0  0  0  0  0  0
  -22.0572   -2.7604   23.2843 H   0  0  0  0  0  0
  -22.3976  -11.9908   22.4886 H   0  0  0  0  0  0
  -21.1084  -13.1359   22.2539 H   0  0  0  0  0  0
  -24.6181  -15.8093   20.4667 H   0  0  0  0  0  0
  -26.2062  -15.6071   19.9325 H   0  0  0  0  0  0
  -26.7259  -32.5305   23.0992 H   0  0  0  0  0  0
  -25.0115  -33.9616   25.0340 H   0  0  0  0  0  0
  -22.7388  -31.2852   21.3703 H   0  0  0  0  0  0
  -23.3740  -35.9629   23.3281 H   0  0  0  0  0  0
  -24.3592  -36.8922   22.2053 H   0  0  0  0  0  0
  -23.7284  -37.6466   23.6692 H   0  0  0  0  0  0
  -26.1275  -31.4876   20.5950 H   0  0  0  0  0  0
  -26.8700  -30.7971   22.0084 H   0  0  0  0  0  0
  -28.1386  -28.8589   21.2139 H   0  0  0  0  0  0
  -25.9752  -25.8459   19.0235 H   0  0  0  0  0  0
  -23.9924  -27.2765   18.9887 H   0  0  0  0  0  0
  -23.8082  -30.5578   19.3927 H   0  0  0  0  0  0
  -22.7859  -29.2271   19.8383 H   0  0  0  0  0  0
  -25.1302  -36.1843   25.0796 H   0  0  0  0  0  0
  -21.0005  -28.3273   24.1350 H   0  0  0  0  0  0
  -20.5767  -26.2324   23.3601 H   0  0  0  0  0  0
  -21.6659  -26.7469   22.1091 H   0  0  0  0  0  0
  -19.6931  -25.6242   21.1317 H   0  0  0  0  0  0
  -19.6714  -27.3108   20.6714 H   0  0  0  0  0  0
  -17.4208  -26.6702   21.3983 H   0  0  0  0  0  0
  -18.0294  -26.0106   22.8995 H   0  0  0  0  0  0
  -19.8011  -30.7260   24.2248 H   0  0  0  0  0  0
  -17.5050  -31.6269   24.5200 H   0  0  0  0  0  0
  -15.5392  -30.2980   23.7635 H   0  0  0  0  0  0
  -15.8708  -28.0893   22.7013 H   0  0  0  0  0  0
  -24.5918  -30.7053   25.7687 H   0  0  0  0  0  0
  -24.8890  -32.2919   26.4697 H   0  0  0  0  0  0
  -25.8023  -30.8969   27.0183 H   0  0  0  0  0  0
  -26.2977  -29.6637   24.1214 H   0  0  0  0  0  0
  -27.4071  -29.7234   25.4701 H   0  0  0  0  0  0
  -27.8865  -30.4181   23.9440 H   0  0  0  0  0  0
  -27.2680  -33.3610   26.1980 H   0  0  0  0  0  0
  -28.3922  -32.6788   25.0302 H   0  0  0  0  0  0
  -28.0691  -31.8418   26.5395 H   0  0  0  0  0  0
  -28.2549  -38.0098   24.7492 H   0  0  0  0  0  0
  -28.1110  -36.2616   24.6299 H   0  0  0  0  0  0
  -27.2304  -37.1456   25.8864 H   0  0  0  0  0  0
  -20.9439  -29.8767   21.6871 H   0  0  0  0  0  0
  -26.0144  -38.2799   24.1402 H   0  0  0  0  0  0
  -31.1686  -20.5215   20.8543 H   0  0  0  0  0  0
  -31.6308  -18.1036   20.7781 H   0  0  0  0  0  0
  -27.4745  -17.3268   20.3891 H   0  0  0  0  0  0
  -22.1920  -19.1621   21.3616 H   0  0  0  0  0  0
  -23.4059  -18.7245   22.6707 H   0  0  0  0  0  0
  -24.3183  -21.0659   22.6254 H   0  0  0  0  0  0
  -23.1007  -21.5125   21.3180 H   0  0  0  0  0  0
  -24.0430  -19.7571   19.8083 H   0  0  0  0  0  0
  -29.2863  -22.2251   21.9076 H   0  0  0  0  0  0
  -27.6588  -21.9799   21.4732 H   0  0  0  0  0  0
  -25.6195  -18.0792   20.6825 H   0  0  0  0  0  0
  -25.8662  -18.9852   22.1752 H   0  0  0  0  0  0
  -28.1431  -23.1829   19.1943 H   0  0  0  0  0  0
  -29.7203  -23.5495   19.8125 H   0  0  0  0  0  0
  -28.5131  -24.8902   21.7220 H   0  0  0  0  0  0
  -27.0259  -24.6792   20.8934 H   0  0  0  0  0  0
  -28.7465  -15.5255   20.8996 H   0  0  0  0  0  0
  1 25  1  0  0  0
  1 30  2  0  0  0
  1 84  1  0  0  0
  2  3  1  0  0  0
  2 25  1  0  0  0
  2 86  1  0  0  0
  2 87  1  0  0  0
  3  4  1  0  0  0
  3 88  1  0  0  0
  3 89  1  0  0  0
  4  5  1  0  0  0
  4 90  1  0  0  0
  4 91  1  0  0  0
  5  6  1  0  0  0
  5 26  1  0  0  0
  5 92  1  0  0  0
  6 25  1  0  0  0
  6 93  1  0  0  0
  6 94  1  0  0  0
  7  8  2  0  0  0
  7 26  1  0  0  0
  7 29  1  0  0  0
  8  9  1  0  0  0
  8 22  1  0  0  0
  9 10  1  0  0  0
  9 27  2  0  0  0
 10 11  2  0  0  0
 10 15  1  0  0  0
 11 12  1  0  0  0
 11 95  1  0  0  0
 12 13  2  0  0  0
 12 96  1  0  0  0
 13 14  1  0  0  0
 13 31  1  0  0  0
 14 15  2  0  0  0
 14 97  1  0  0  0
 15 98  1  0  0  0
 16 17  2  0  0  0
 16 21  1  0  0  0
 16 31  1  0  0  0
 17 18  1  0  0  0
 17 99  1  0  0  0
 18 19  2  0  0  0
 18100  1  0  0  0
 19 20  1  0  0  0
 19 24  1  0  0  0
 20 21  2  0  0  0
 20101  1  0  0  0
 21 23  1  0  0  0
 22 28  1  0  0  0
 22 32  2  0  0  0
 26 27  1  0  0  0
 28102  1  0  0  0
 28103  1  0  0  0
 29104  1  0  0  0
 29105  1  0  0  0
 33 34  1  0  0  0
 33 66  1  0  0  0
 33 70  2  0  0  0
 34 36  1  0  0  0
 34 59  1  0  0  0
 34106  1  0  0  0
 35 44  2  0  0  0
 35 45  1  0  0  0
 35 68  1  0  0  0
 36 56  1  0  0  0
 36107  1  0  0  0
 37 39  1  0  0  0
 37 47  1  0  0  0
 37 66  1  0  0  0
 37108  1  0  0  0
 38 43  2  0  0  0
 38 46  1  0  0  0
 38 47  1  0  0  0
 39 64  1  0  0  0
 39 67  2  0  0  0
 40 52  1  0  0  0
 40 53  2  0  0  0
 40 58  1  0  0  0
 41109  1  0  0  0
 41110  1  0  0  0
 41111  1  0  0  0
 41 48  1  0  0  0
 42 43  1  0  0  0
 42 66  1  0  0  0
 42112  1  0  0  0
 42113  1  0  0  0
 43 44  1  0  0  0
 44114  1  0  0  0
 45 46  2  0  0  0
 45115  1  0  0  0
 46116  1  0  0  0
 47117  1  0  0  0
 47118  1  0  0  0
 48 56  1  0  0  0
 48 65  1  0  0  0
 48119  1  0  0  0
 49 50  1  0  0  0
 49 53  1  0  0  0
 49 64  1  0  0  0
 49120  1  0  0  0
 50 51  1  0  0  0
 50121  1  0  0  0
 50122  1  0  0  0
 51 52  1  0  0  0
 51123  1  0  0  0
 51124  1  0  0  0
 52125  1  0  0  0
 52126  1  0  0  0
 53 54  1  0  0  0
 54 55  2  0  0  0
 54127  1  0  0  0
 55 57  1  0  0  0
 55128  1  0  0  0
 56 69  2  0  0  0
 57 58  2  0  0  0
 57129  1  0  0  0
 58130  1  0  0  0
 59 60  1  0  0  0
 59 61  1  0  0  0
 59 62  1  0  0  0
 60131  1  0  0  0
 60132  1  0  0  0
 60133  1  0  0  0
 61134  1  0  0  0
 61135  1  0  0  0
 61136  1  0  0  0
 62137  1  0  0  0
 62138  1  0  0  0
 62139  1  0  0  0
 63 65  1  0  0  0
 63140  1  0  0  0
 63141  1  0  0  0
 63142  1  0  0  0
 64143  1  0  0  0
 65144  1  0  0  0
 68 83  1  0  0  0
 71 72  2  0  0  0
 71 74  1  0  0  0
 71145  1  0  0  0
 72 75  1  0  0  0
 72146  1  0  0  0
 73 75  2  0  0  0
 73 76  1  0  0  0
 73147  1  0  0  0
 74 76  2  0  0  0
 74 80  1  0  0  0
 75 84  1  0  0  0
 76 85  1  0  0  0
 77 78  1  0  0  0
 77 79  1  0  0  0
 77148  1  0  0  0
 77149  1  0  0  0
 78 79  1  0  0  0
 78150  1  0  0  0
 78151  1  0  0  0
 79 81  1  0  0  0
 79152  1  0  0  0
 80 82  1  0  0  0
 80153  1  0  0  0
 80154  1  0  0  0
 81 85  1  0  0  0
 81155  1  0  0  0
 81156  1  0  0  0
 82 83  1  0  0  0
 82157  1  0  0  0
 82158  1  0  0  0
 83159  1  0  0  0
 83160  1  0  0  0
 84161  1  0  0  0
M  ISO  4   1 100  68 101  83 101  84 100
M  END
> <chiral flag>
0

> <version>
0

> <s_m_source_file>
/data/baiqing/PycharmProjects/Reinvent-master-3.2/result/LINK_invent/BTK/process_docking_weight1_custom_sum_contain_oxygen_bond_distance_aromatic_linkinvent_7_9_3/rearranged_h_0148.sdf

> <i_m_source_file_index>
58

> <r_mmod_Potential_Energy-OPLS-2005>
436.907867431641

> <r_mmod_Stretch_Energy-OPLS-2005>
188.133590698242

> <r_mmod_Bend_Energy-OPLS-2005>
255.647186279297

> <r_mmod_Torsional_Energy-OPLS-2005>
288.169189453125

> <r_mmod_Improper_Torsional_Energy-OPLS-2005>
7.58615732192993

> <r_mmod_Van_der_Waal_Energy-OPLS-2005>
127.039215087891

> <r_mmod_Electrostatic_Energy-OPLS-2005>
-359.426239013672

> <r_mmod_Solvation_Energy-OPLS-2005>
-209.619598388672

> <b_mmod_Minimization_Converged-OPLS-2005>
0

> <r_mmod_RMS_Derivative-OPLS-2005>
4.20007562637329

$$$$
58
                    3D
 Structure written by MMmdl.
177187  0  0  1  0            999 V2000
  -30.7423  -14.4424   20.5725 C   0  0  0  0  0  0
  -30.4146  -12.2869   19.4294 C   0  0  0  0  0  0
  -29.4942  -12.4959   18.2112 C   0  0  0  0  0  0
  -28.0156  -12.3631   18.6257 C   0  0  0  0  0  0
  -27.6634  -13.2060   19.8813 C   0  0  2  0  0  0
  -28.7087  -13.0050   21.0035 C   0  0  0  0  0  0
  -25.2606  -13.8153   20.5714 C   0  0  0  0  0  0
  -24.1846  -13.0442   20.9182 C   0  0  0  0  0  0
  -24.6381  -11.6894   20.8749 C   0  0  0  0  0  0
  -23.9045  -10.4287   21.0411 C   0  0  0  0  0  0
  -24.3600   -9.4200   21.9185 C   0  0  0  0  0  0
  -23.6273   -8.2244   22.0760 C   0  0  0  0  0  0
  -22.4262   -8.0277   21.3544 C   0  0  0  0  0  0
  -21.9901   -9.0250   20.4651 C   0  0  0  0  0  0
  -22.7228  -10.2124   20.3054 C   0  0  0  0  0  0
  -21.6848   -6.0732   22.5274 C   0  0  0  0  0  0
  -21.4011   -6.5635   23.8204 C   0  0  0  0  0  0
  -21.3664   -5.6787   24.9171 C   0  0  0  0  0  0
  -21.6048   -4.3048   24.7223 C   0  0  0  0  0  0
  -21.8817   -3.8140   23.4344 C   0  0  0  0  0  0
  -21.9190   -4.6962   22.3398 C   0  0  0  0  0  0
  -22.7872  -13.5241   21.1833 C   0  0  0  0  0  0
  -22.1663   -4.2147   21.0978 F   0  0  0  0  0  0
  -21.5632   -3.4530   25.7734 F   0  0  0  0  0  0
  -30.0392  -13.2855   20.4408 N   0  0  0  0  0  0
  -26.3045  -12.9322   20.3434 N   0  0  0  0  0  0
  -25.9319  -11.6482   20.5824 N   0  0  0  0  0  0
  -22.0510  -12.8225   22.0379 N   0  0  0  0  0  0
  -25.4339  -15.1884   20.4150 N   0  0  0  0  0  0
  -31.8777  -14.5882   20.1091 O   0  0  0  0  0  0
  -21.6633   -6.8876   21.4234 O   0  0  0  0  0  0
  -22.3567  -14.5561   20.6694 O   0  0  0  0  0  0
  -24.6143  -31.8689   23.2116 C   0  0  0  0  0  0
  -25.9052  -32.4823   23.8410 C   0  0  1  0  0  0
  -27.2386  -27.4493   20.1067 C   0  0  0  0  0  0
  -25.5919  -33.8619   24.2346 N   0  0  0  0  0  0
  -23.4018  -30.4917   21.5506 C   0  0  2  0  0  0
  -24.8508  -28.9540   20.1208 C   0  0  0  0  0  0
  -22.7406  -29.4665   22.5003 C   0  0  0  0  0  0
  -18.0272  -28.1378   22.8509 C   0  0  0  0  0  0
  -24.1484  -36.7313   23.2637 C   0  0  0  0  0  0
  -25.9280  -30.8391   21.3629 C   0  0  0  0  0  0
  -26.0077  -29.4710   20.7187 C   0  0  0  0  0  0
  -27.2064  -28.7240   20.7125 C   0  0  0  0  0  0
  -26.0734  -26.9463   19.4919 C   0  0  0  0  0  0
  -24.8767  -27.6883   19.5066 C   0  0  0  0  0  0
  -23.6117  -29.8200   20.1665 C   0  0  0  0  0  0
  -25.4108  -36.3114   24.0330 C   0  0  1  0  0  0
  -20.5863  -28.3673   23.1328 C   0  0  2  0  0  0
  -20.6763  -26.9408   22.5423 C   0  0  0  0  0  0
  -19.5732  -26.6390   21.5228 C   0  0  0  0  0  0
  -18.1912  -26.7929   22.1633 C   0  0  0  0  0  0
  -19.1523  -28.8845   23.2909 C   0  0  0  0  0  0
  -18.9453  -30.1457   23.8913 C   0  0  0  0  0  0
  -17.6454  -30.6590   24.0575 C   0  0  0  0  0  0
  -25.9034  -34.9472   23.5128 C   0  0  0  0  0  0
  -16.5347  -29.9091   23.6328 C   0  0  0  0  0  0
  -16.7266  -28.6507   23.0353 C   0  0  0  0  0  0
  -26.4484  -31.6597   25.0734 C   0  0  0  0  0  0
  -25.3772  -31.3684   26.1503 C   0  0  0  0  0  0
  -27.0326  -30.3059   24.6083 C   0  0  0  0  0  0
  -27.6068  -32.4310   25.7500 C   0  0  0  0  0  0
  -27.5581  -37.1796   24.8455 C   0  0  0  0  0  0
  -21.4134  -29.3042   22.3738 N   0  0  0  0  0  0
  -26.4288  -37.3805   23.9419 N   0  0  0  0  0  0
  -24.6659  -31.0808   22.1005 N   0  0  0  0  0  0
  -23.4177  -28.8211   23.3049 O   0  0  0  0  0  0
  -28.4118  -26.7364   20.0572 O   0  0  0  0  0  0
  -26.5589  -34.8915   22.4684 O   0  0  0  0  0  0
  -23.5341  -32.1435   23.7531 O   0  0  0  0  0  0
  -32.3990  -21.4788   20.7928 C   0  0  0  0  0  0
  -33.1439  -20.5092   20.0838 C   0  0  0  0  0  0
  -31.2951  -20.8849   21.3348 C   0  0  0  0  0  0
  -32.4803  -19.3212   20.2194 C   0  0  0  0  0  0
  -28.2242  -23.1399   21.3497 C   0  0  0  0  0  0
  -30.3964  -24.1766   22.0133 C   0  0  0  0  0  0
  -27.8597  -24.3726   20.5016 C   0  0  0  0  0  0
  -30.0662  -25.4390   21.1879 C   0  0  0  0  0  0
  -31.1072  -17.3166   22.3938 C   0  0  0  0  0  0
  -29.4485  -17.9691   20.5291 C   0  0  0  0  0  0
  -30.2533  -16.0256   22.3635 C   0  0  0  0  0  0
  -29.7287  -16.5519   19.9753 C   0  0  0  0  0  0
  -29.7496  -22.9241   21.3815 C   0  0  1  0  0  0
  -30.4546  -18.4704   21.5899 C   0  0  0  0  0  0
  -28.5505  -25.6651   20.9974 C   0  0  2  0  0  0
  -34.4019  -20.7653   19.2951 C   0  0  0  0  0  0
  -32.8259  -18.0416   19.5177 C   0  0  0  0  0  0
  -30.1591  -21.5807   22.0521 C   0  0  0  0  0  0
  -31.3900  -19.5047   21.0860 N   0  0  0  0  0  0
  -30.0455  -15.5237   20.9936 N   0  0  0  0  0  0
  -31.4618  -12.3635   19.1289 H   0  0  0  0  0  0
  -30.2934  -11.2825   19.8371 H   0  0  0  0  0  0
  -29.7309  -11.7685   17.4333 H   0  0  0  0  0  0
  -29.6693  -13.4820   17.7771 H   0  0  0  0  0  0
  -27.8222  -11.3086   18.8233 H   0  0  0  0  0  0
  -27.3680  -12.6404   17.7951 H   0  0  0  0  0  0
  -27.6991  -14.2517   19.5794 H   0  0  0  0  0  0
  -28.6789  -11.9795   21.3752 H   0  0  0  0  0  0
  -28.4846  -13.6385   21.8617 H   0  0  0  0  0  0
  -25.2738   -9.5690   22.4760 H   0  0  0  0  0  0
  -23.9986   -7.4639   22.7478 H   0  0  0  0  0  0
  -21.0844   -8.8764   19.8945 H   0  0  0  0  0  0
  -22.3688  -10.9666   19.6163 H   0  0  0  0  0  0
  -21.1992   -7.6142   23.9709 H   0  0  0  0  0  0
  -21.1497   -6.0521   25.9075 H   0  0  0  0  0  0
  -22.0590   -2.7600   23.2844 H   0  0  0  0  0  0
  -22.4125  -11.9872   22.4741 H   0  0  0  0  0  0
  -21.1137  -13.1265   22.2599 H   0  0  0  0  0  0
  -24.6747  -15.8502   20.5345 H   0  0  0  0  0  0
  -26.2995  -15.6261   20.1262 H   0  0  0  0  0  0
  -26.7130  -32.5561   23.1184 H   0  0  0  0  0  0
  -25.0109  -33.9778   25.0521 H   0  0  0  0  0  0
  -22.6916  -31.3084   21.4077 H   0  0  0  0  0  0
  -23.3740  -35.9645   23.3288 H   0  0  0  0  0  0
  -24.3593  -36.8957   22.2053 H   0  0  0  0  0  0
  -23.7213  -37.6500   23.6670 H   0  0  0  0  0  0
  -26.0352  -31.5999   20.5886 H   0  0  0  0  0  0
  -26.8173  -30.9011   21.9777 H   0  0  0  0  0  0
  -28.1048  -29.1212   21.1662 H   0  0  0  0  0  0
  -26.0928  -25.9916   18.9854 H   0  0  0  0  0  0
  -23.9913  -27.2875   19.0330 H   0  0  0  0  0  0
  -23.7202  -30.5917   19.4035 H   0  0  0  0  0  0
  -22.7368  -29.2371   19.8738 H   0  0  0  0  0  0
  -25.1264  -36.1974   25.0816 H   0  0  0  0  0  0
  -20.9959  -28.3237   24.1446 H   0  0  0  0  0  0
  -20.5689  -26.2275   23.3606 H   0  0  0  0  0  0
  -21.6627  -26.7451   22.1209 H   0  0  0  0  0  0
  -19.6891  -25.6305   21.1244 H   0  0  0  0  0  0
  -19.6671  -27.3213   20.6765 H   0  0  0  0  0  0
  -17.4185  -26.6720   21.4022 H   0  0  0  0  0  0
  -18.0278  -26.0058   22.9010 H   0  0  0  0  0  0
  -19.7927  -30.7278   24.2275 H   0  0  0  0  0  0
  -17.5008  -31.6265   24.5187 H   0  0  0  0  0  0
  -15.5351  -30.3005   23.7629 H   0  0  0  0  0  0
  -15.8665  -28.0834   22.7045 H   0  0  0  0  0  0
  -24.5936  -30.7035   25.7849 H   0  0  0  0  0  0
  -24.8969  -32.2830   26.4990 H   0  0  0  0  0  0
  -25.8150  -30.8832   27.0240 H   0  0  0  0  0  0
  -26.2855  -29.6802   24.1186 H   0  0  0  0  0  0
  -27.4181  -29.7309   25.4512 H   0  0  0  0  0  0
  -27.8650  -30.4407   23.9174 H   0  0  0  0  0  0
  -27.2704  -33.3616   26.2089 H   0  0  0  0  0  0
  -28.3885  -32.6864   25.0329 H   0  0  0  0  0  0
  -28.0734  -31.8423   26.5416 H   0  0  0  0  0  0
  -28.2560  -38.0129   24.7574 H   0  0  0  0  0  0
  -28.1108  -36.2668   24.6190 H   0  0  0  0  0  0
  -27.2317  -37.1339   25.8858 H   0  0  0  0  0  0
  -20.9295  -29.8796   21.6985 H   0  0  0  0  0  0
  -26.0168  -38.2864   24.1471 H   0  0  0  0  0  0
  -32.6285  -22.5336   20.8491 H   0  0  0  0  0  0
  -27.7243  -22.2634   20.9329 H   0  0  0  0  0  0
  -27.8429  -23.2641   22.3649 H   0  0  0  0  0  0
  -30.0486  -24.3038   23.0394 H   0  0  0  0  0  0
  -31.4783  -24.0618   22.0813 H   0  0  0  0  0  0
  -26.7777  -24.4915   20.5205 H   0  0  0  0  0  0
  -28.1321  -24.1830   19.4613 H   0  0  0  0  0  0
  -30.5445  -25.3557   20.2106 H   0  0  0  0  0  0
  -30.5077  -26.3173   21.6628 H   0  0  0  0  0  0
  -32.1165  -17.0875   22.0636 H   0  0  0  0  0  0
  -31.2396  -17.6408   23.4273 H   0  0  0  0  0  0
  -28.4587  -17.9492   20.9881 H   0  0  0  0  0  0
  -29.3664  -18.6879   19.7125 H   0  0  0  0  0  0
  -30.7179  -15.2624   22.9928 H   0  0  0  0  0  0
  -29.2776  -16.2191   22.8095 H   0  0  0  0  0  0
  -30.5350  -16.6179   19.2461 H   0  0  0  0  0  0
  -28.8664  -16.2162   19.4010 H   0  0  0  0  0  0
  -30.0605  -22.8667   20.3368 H   0  0  0  0  0  0
  -29.8426  -18.9564   22.3451 H   0  0  0  0  0  0
  -28.1227  -25.9546   21.9595 H   0  0  0  0  0  0
  -34.6389  -21.8292   19.2773 H   0  0  0  0  0  0
  -34.2862  -20.4249   18.2657 H   0  0  0  0  0  0
  -35.2452  -20.2365   19.7400 H   0  0  0  0  0  0
  -33.8949  -17.9862   19.3113 H   0  0  0  0  0  0
  -32.3092  -17.9888   18.5590 H   0  0  0  0  0  0
  -32.5757  -17.1474   20.0709 H   0  0  0  0  0  0
  -30.4176  -21.7389   23.1003 H   0  0  0  0  0  0
  -29.2781  -20.9418   22.0600 H   0  0  0  0  0  0
  1 25  1  0  0  0
  1 30  2  0  0  0
  1 90  1  0  0  0
  2  3  1  0  0  0
  2 25  1  0  0  0
  2 91  1  0  0  0
  2 92  1  0  0  0
  3  4  1  0  0  0
  3 93  1  0  0  0
  3 94  1  0  0  0
  4  5  1  0  0  0
  4 95  1  0  0  0
  4 96  1  0  0  0
  5  6  1  0  0  0
  5 26  1  0  0  0
  5 97  1  0  0  0
  6 25  1  0  0  0
  6 98  1  0  0  0
  6 99  1  0  0  0
  7  8  2  0  0  0
  7 26  1  0  0  0
  7 29  1  0  0  0
  8  9  1  0  0  0
  8 22  1  0  0  0
  9 10  1  0  0  0
  9 27  2  0  0  0
 10 11  2  0  0  0
 10 15  1  0  0  0
 11 12  1  0  0  0
 11100  1  0  0  0
 12 13  2  0  0  0
 12101  1  0  0  0
 13 14  1  0  0  0
 13 31  1  0  0  0
 14 15  2  0  0  0
 14102  1  0  0  0
 15103  1  0  0  0
 16 17  2  0  0  0
 16 21  1  0  0  0
 16 31  1  0  0  0
 17 18  1  0  0  0
 17104  1  0  0  0
 18 19  2  0  0  0
 18105  1  0  0  0
 19 20  1  0  0  0
 19 24  1  0  0  0
 20 21  2  0  0  0
 20106  1  0  0  0
 21 23  1  0  0  0
 22 28  1  0  0  0
 22 32  2  0  0  0
 26 27  1  0  0  0
 28107  1  0  0  0
 28108  1  0  0  0
 29109  1  0  0  0
 29110  1  0  0  0
 33 34  1  0  0  0
 33 66  1  0  0  0
 33 70  2  0  0  0
 34 36  1  0  0  0
 34 59  1  0  0  0
 34111  1  0  0  0
 35 44  2  0  0  0
 35 45  1  0  0  0
 35 68  1  0  0  0
 36 56  1  0  0  0
 36112  1  0  0  0
 37 39  1  0  0  0
 37 47  1  0  0  0
 37 66  1  0  0  0
 37113  1  0  0  0
 38 43  2  0  0  0
 38 46  1  0  0  0
 38 47  1  0  0  0
 39 64  1  0  0  0
 39 67  2  0  0  0
 40 52  1  0  0  0
 40 53  2  0  0  0
 40 58  1  0  0  0
 41114  1  0  0  0
 41115  1  0  0  0
 41116  1  0  0  0
 41 48  1  0  0  0
 42 43  1  0  0  0
 42 66  1  0  0  0
 42117  1  0  0  0
 42118  1  0  0  0
 43 44  1  0  0  0
 44119  1  0  0  0
 45 46  2  0  0  0
 45120  1  0  0  0
 46121  1  0  0  0
 47122  1  0  0  0
 47123  1  0  0  0
 48 56  1  0  0  0
 48 65  1  0  0  0
 48124  1  0  0  0
 49 50  1  0  0  0
 49 53  1  0  0  0
 49 64  1  0  0  0
 49125  1  0  0  0
 50 51  1  0  0  0
 50126  1  0  0  0
 50127  1  0  0  0
 51 52  1  0  0  0
 51128  1  0  0  0
 51129  1  0  0  0
 52130  1  0  0  0
 52131  1  0  0  0
 53 54  1  0  0  0
 54 55  2  0  0  0
 54132  1  0  0  0
 55 57  1  0  0  0
 55133  1  0  0  0
 56 69  2  0  0  0
 57 58  2  0  0  0
 57134  1  0  0  0
 58135  1  0  0  0
 59 60  1  0  0  0
 59 61  1  0  0  0
 59 62  1  0  0  0
 60136  1  0  0  0
 60137  1  0  0  0
 60138  1  0  0  0
 61139  1  0  0  0
 61140  1  0  0  0
 61141  1  0  0  0
 62142  1  0  0  0
 62143  1  0  0  0
 62144  1  0  0  0
 63 65  1  0  0  0
 63145  1  0  0  0
 63146  1  0  0  0
 63147  1  0  0  0
 64148  1  0  0  0
 65149  1  0  0  0
 68 85  1  0  0  0
 71 72  1  0  0  0
 71 73  2  0  0  0
 71150  1  0  0  0
 72 74  2  0  0  0
 72 86  1  0  0  0
 73 88  1  0  0  0
 73 89  1  0  0  0
 74 87  1  0  0  0
 74 89  1  0  0  0
 75 77  1  0  0  0
 75 83  1  0  0  0
 75151  1  0  0  0
 75152  1  0  0  0
 76 78  1  0  0  0
 76 83  1  0  0  0
 76153  1  0  0  0
 76154  1  0  0  0
 77 85  1  0  0  0
 77155  1  0  0  0
 77156  1  0  0  0
 78 85  1  0  0  0
 78157  1  0  0  0
 78158  1  0  0  0
 79 81  1  0  0  0
 79 84  1  0  0  0
 79159  1  0  0  0
 79160  1  0  0  0
 80 82  1  0  0  0
 80 84  1  0  0  0
 80161  1  0  0  0
 80162  1  0  0  0
 81 90  1  0  0  0
 81163  1  0  0  0
 81164  1  0  0  0
 82 90  1  0  0  0
 82165  1  0  0  0
 82166  1  0  0  0
 83 88  1  0  0  0
 83167  1  0  0  0
 84 89  1  0  0  0
 84168  1  0  0  0
 85169  1  0  0  0
 86170  1  0  0  0
 86171  1  0  0  0
 86172  1  0  0  0
 87173  1  0  0  0
 87174  1  0  0  0
 87175  1  0  0  0
 88176  1  0  0  0
 88177  1  0  0  0
M  ISO  4   1 100  68 101  85 101  90 100
M  END
> <chiral flag>
0

> <version>
0

> <s_m_source_file>
/data/baiqing/PycharmProjects/Reinvent-master-3.2/result/LINK_invent/BTK/process_docking_weight1_custom_sum_contain_oxygen_bond_distance_aromatic_linkinvent_7_9_3/rearranged_h_0148.sdf

> <i_m_source_file_index>
59

> <r_mmod_Potential_Energy-OPLS-2005>
243.388458251953

> <r_mmod_Stretch_Energy-OPLS-2005>
41.9630279541016

> <r_mmod_Bend_Energy-OPLS-2005>
119.25740814209

> <r_mmod_Torsional_Energy-OPLS-2005>
423.357238769531

> <r_mmod_Improper_Torsional_Energy-OPLS-2005>
8.86246585845947

> <r_mmod_Van_der_Waal_Energy-OPLS-2005>
136.228179931641

> <r_mmod_Electrostatic_Energy-OPLS-2005>
-310.223571777344

> <r_mmod_Solvation_Energy-OPLS-2005>
-187.435394287109

> <b_mmod_Minimization_Converged-OPLS-2005>
0

> <r_mmod_RMS_Derivative-OPLS-2005>
2.20560169219971

$$$$
59
                    3D
 Structure written by MMmdl.
179188  0  0  1  0            999 V2000
  -30.7466  -14.4025   20.6582 C   0  0  0  0  0  0
  -30.4162  -12.2988   19.4070 C   0  0  0  0  0  0
  -29.4893  -12.5332   18.1988 C   0  0  0  0  0  0
  -28.0119  -12.3905   18.6105 C   0  0  0  0  0  0
  -27.6661  -13.2047   19.8856 C   0  0  2  0  0  0
  -28.7044  -12.9516   21.0013 C   0  0  0  0  0  0
  -25.2556  -13.8030   20.5552 C   0  0  0  0  0  0
  -24.1826  -13.0354   20.9141 C   0  0  0  0  0  0
  -24.6410  -11.6840   20.8741 C   0  0  0  0  0  0
  -23.9065  -10.4249   21.0402 C   0  0  0  0  0  0
  -24.3616   -9.4177   21.9188 C   0  0  0  0  0  0
  -23.6285   -8.2221   22.0758 C   0  0  0  0  0  0
  -22.4265   -8.0271   21.3549 C   0  0  0  0  0  0
  -21.9903   -9.0243   20.4647 C   0  0  0  0  0  0
  -22.7238  -10.2112   20.3053 C   0  0  0  0  0  0
  -21.6845   -6.0732   22.5280 C   0  0  0  0  0  0
  -21.4007   -6.5635   23.8213 C   0  0  0  0  0  0
  -21.3657   -5.6791   24.9175 C   0  0  0  0  0  0
  -21.6040   -4.3053   24.7227 C   0  0  0  0  0  0
  -21.8824   -3.8146   23.4347 C   0  0  0  0  0  0
  -21.9192   -4.6962   22.3402 C   0  0  0  0  0  0
  -22.7861  -13.5194   21.1819 C   0  0  0  0  0  0
  -22.1664   -4.2153   21.0976 F   0  0  0  0  0  0
  -21.5625   -3.4534   25.7737 F   0  0  0  0  0  0
  -30.0411  -13.2555   20.4601 N   0  0  0  0  0  0
  -26.3053  -12.9262   20.3400 N   0  0  0  0  0  0
  -25.9355  -11.6423   20.5808 N   0  0  0  0  0  0
  -22.0503  -12.8208   22.0390 N   0  0  0  0  0  0
  -25.4222  -15.1668   20.3750 N   0  0  0  0  0  0
  -31.8101  -14.6325   20.0728 O   0  0  0  0  0  0
  -21.6625   -6.8876   21.4242 O   0  0  0  0  0  0
  -22.3569  -14.5525   20.6695 O   0  0  0  0  0  0
  -24.6095  -31.8709   23.2143 C   0  0  0  0  0  0
  -25.9017  -32.4844   23.8408 C   0  0  1  0  0  0
  -27.2419  -27.4782   20.1025 C   0  0  0  0  0  0
  -25.5909  -33.8635   24.2359 N   0  0  0  0  0  0
  -23.3945  -30.4930   21.5523 C   0  0  2  0  0  0
  -24.8453  -28.9650   20.1139 C   0  0  0  0  0  0
  -22.7396  -29.4669   22.5024 C   0  0  0  0  0  0
  -18.0262  -28.1354   22.8452 C   0  0  0  0  0  0
  -24.1495  -36.7321   23.2632 C   0  0  0  0  0  0
  -25.9160  -30.8532   21.3587 C   0  0  0  0  0  0
  -25.9975  -29.4877   20.7138 C   0  0  0  0  0  0
  -27.1989  -28.7511   20.7120 C   0  0  0  0  0  0
  -26.0827  -26.9670   19.4871 C   0  0  0  0  0  0
  -24.8797  -27.7022   19.4963 C   0  0  0  0  0  0
  -23.6029  -29.8241   20.1651 C   0  0  0  0  0  0
  -25.4107  -36.3123   24.0343 C   0  0  1  0  0  0
  -20.5840  -28.3625   23.1331 C   0  0  2  0  0  0
  -20.6755  -26.9372   22.5418 C   0  0  0  0  0  0
  -19.5756  -26.6370   21.5188 C   0  0  0  0  0  0
  -18.1926  -26.7888   22.1590 C   0  0  0  0  0  0
  -19.1516  -28.8809   23.2876 C   0  0  0  0  0  0
  -18.9454  -30.1413   23.8880 C   0  0  0  0  0  0
  -17.6464  -30.6562   24.0545 C   0  0  0  0  0  0
  -25.9034  -34.9490   23.5156 C   0  0  0  0  0  0
  -16.5352  -29.9059   23.6302 C   0  0  0  0  0  0
  -16.7254  -28.6485   23.0297 C   0  0  0  0  0  0
  -26.4455  -31.6581   25.0701 C   0  0  0  0  0  0
  -25.3727  -31.3682   26.1460 C   0  0  0  0  0  0
  -27.0272  -30.3049   24.5994 C   0  0  0  0  0  0
  -27.6051  -32.4254   25.7464 C   0  0  0  0  0  0
  -27.5591  -37.1822   24.8465 C   0  0  0  0  0  0
  -21.4128  -29.3010   22.3770 N   0  0  0  0  0  0
  -26.4297  -37.3796   23.9406 N   0  0  0  0  0  0
  -24.6576  -31.0862   22.1013 N   0  0  0  0  0  0
  -23.4210  -28.8223   23.3032 O   0  0  0  0  0  0
  -28.3868  -26.7223   20.0410 O   0  0  0  0  0  0
  -26.5573  -34.8938   22.4702 O   0  0  0  0  0  0
  -23.5310  -32.1432   23.7587 O   0  0  0  0  0  0
  -30.2023  -18.9668   22.1149 C   0  0  0  0  0  0
  -32.0276  -16.8630   22.0502 C   0  0  0  0  0  0
  -31.5669  -19.2448   22.3420 C   0  0  0  0  0  0
  -32.4904  -18.1700   22.3216 C   0  0  0  0  0  0
  -30.6591  -16.6029   21.7912 C   0  0  0  0  0  0
  -29.7236  -17.6608   21.8556 C   0  0  0  0  0  0
  -31.7191  -21.5183   21.2635 C   0  0  0  0  0  0
  -31.2331  -21.3244   23.7846 C   0  0  0  0  0  0
  -31.7876  -23.0371   21.4757 C   0  0  0  0  0  0
  -31.2863  -22.8642   23.8458 C   0  0  0  0  0  0
  -31.9709  -20.7101   22.5603 C   0  0  1  0  0  0
  -33.9760  -18.3832   22.5664 C   0  0  0  0  0  0
  -26.0184  -18.0139   21.6409 C   0  0  0  0  0  0
  -28.0134  -24.5491   22.0752 C   0  0  0  0  0  0
  -30.4994  -24.8740   22.5598 C   0  0  0  0  0  0
  -27.4628  -18.4692   21.8117 C   0  0  0  0  0  0
  -29.1833  -26.6398   21.2231 C   0  0  0  0  0  0
  -29.3427  -25.1463   21.5646 C   0  0  2  0  0  0
  -30.1899  -15.2901   21.5002 N   0  0  0  0  0  0
  -30.8449  -23.4300   22.5493 N   0  3  1  0  0  0
  -28.3825  -17.3869   21.6407 O   0  0  0  0  0  0
  -31.4614  -12.3913   19.1056 H   0  0  0  0  0  0
  -30.3079  -11.2778   19.7754 H   0  0  0  0  0  0
  -29.7247  -11.8321   17.3973 H   0  0  0  0  0  0
  -29.6635  -13.5314   17.7920 H   0  0  0  0  0  0
  -27.8132  -11.3322   18.7804 H   0  0  0  0  0  0
  -27.3641  -12.6928   17.7872 H   0  0  0  0  0  0
  -27.7211  -14.2608   19.6195 H   0  0  0  0  0  0
  -28.6721  -11.9065   21.3123 H   0  0  0  0  0  0
  -28.4569  -13.5237   21.8962 H   0  0  0  0  0  0
  -25.2769   -9.5643   22.4757 H   0  0  0  0  0  0
  -23.9989   -7.4607   22.7478 H   0  0  0  0  0  0
  -21.0840   -8.8777   19.8948 H   0  0  0  0  0  0
  -22.3725  -10.9657   19.6155 H   0  0  0  0  0  0
  -21.1999   -7.6144   23.9717 H   0  0  0  0  0  0
  -21.1470   -6.0518   25.9079 H   0  0  0  0  0  0
  -22.0605   -2.7607   23.2844 H   0  0  0  0  0  0
  -22.4108  -11.9854   22.4768 H   0  0  0  0  0  0
  -21.1131  -13.1249   22.2610 H   0  0  0  0  0  0
  -24.6573  -15.8216   20.4883 H   0  0  0  0  0  0
  -26.2932  -15.6086   20.1113 H   0  0  0  0  0  0
  -26.7111  -32.5592   23.1198 H   0  0  0  0  0  0
  -25.0070  -33.9768   25.0517 H   0  0  0  0  0  0
  -22.6789  -31.3058   21.4167 H   0  0  0  0  0  0
  -23.3756  -35.9665   23.3300 H   0  0  0  0  0  0
  -24.3610  -36.8920   22.2053 H   0  0  0  0  0  0
  -23.7256  -37.6532   23.6631 H   0  0  0  0  0  0
  -26.0074  -31.6192   20.5865 H   0  0  0  0  0  0
  -26.8108  -30.9165   21.9661 H   0  0  0  0  0  0
  -28.0870  -29.1712   21.1635 H   0  0  0  0  0  0
  -26.1140  -26.0001   19.0037 H   0  0  0  0  0  0
  -23.9943  -27.2991   19.0225 H   0  0  0  0  0  0
  -23.7066  -30.5989   19.4051 H   0  0  0  0  0  0
  -22.7284  -29.2390   19.8719 H   0  0  0  0  0  0
  -25.1283  -36.1991   25.0837 H   0  0  0  0  0  0
  -20.9905  -28.3188   24.1460 H   0  0  0  0  0  0
  -20.5668  -26.2233   23.3590 H   0  0  0  0  0  0
  -21.6629  -26.7414   22.1226 H   0  0  0  0  0  0
  -19.6950  -25.6286   21.1202 H   0  0  0  0  0  0
  -19.6724  -27.3186   20.6713 H   0  0  0  0  0  0
  -17.4200  -26.6605   21.3995 H   0  0  0  0  0  0
  -18.0331  -26.0030   22.8991 H   0  0  0  0  0  0
  -19.7960  -30.7186   24.2278 H   0  0  0  0  0  0
  -17.5040  -31.6240   24.5139 H   0  0  0  0  0  0
  -15.5360  -30.2961   23.7643 H   0  0  0  0  0  0
  -15.8646  -28.0828   22.6988 H   0  0  0  0  0  0
  -24.5896  -30.7014   25.7819 H   0  0  0  0  0  0
  -24.8904  -32.2836   26.4906 H   0  0  0  0  0  0
  -25.8101  -30.8868   27.0219 H   0  0  0  0  0  0
  -26.2806  -29.6830   24.1039 H   0  0  0  0  0  0
  -27.4078  -29.7238   25.4403 H   0  0  0  0  0  0
  -27.8616  -30.4387   23.9099 H   0  0  0  0  0  0
  -27.2688  -33.3530   26.2089 H   0  0  0  0  0  0
  -28.3862  -32.6830   25.0297 H   0  0  0  0  0  0
  -28.0697  -31.8317   26.5340 H   0  0  0  0  0  0
  -28.2605  -38.0119   24.7509 H   0  0  0  0  0  0
  -28.1093  -36.2663   24.6287 H   0  0  0  0  0  0
  -27.2310  -37.1449   25.8864 H   0  0  0  0  0  0
  -20.9301  -29.8733   21.6998 H   0  0  0  0  0  0
  -26.0212  -38.2884   24.1421 H   0  0  0  0  0  0
  -29.5221  -19.8027   22.1261 H   0  0  0  0  0  0
  -32.7383  -16.0485   22.0299 H   0  0  0  0  0  0
  -32.4367  -21.2195   20.4983 H   0  0  0  0  0  0
  -30.7360  -21.2877   20.8499 H   0  0  0  0  0  0
  -30.1800  -21.0474   23.7847 H   0  0  0  0  0  0
  -31.6391  -20.9030   24.7044 H   0  0  0  0  0  0
  -31.5411  -23.5375   20.5392 H   0  0  0  0  0  0
  -32.8022  -23.3463   21.7352 H   0  0  0  0  0  0
  -32.2916  -23.2154   24.0826 H   0  0  0  0  0  0
  -30.6348  -23.2032   24.6520 H   0  0  0  0  0  0
  -33.0372  -20.7806   22.7712 H   0  0  0  0  0  0
  -34.5247  -17.4405   22.5343 H   0  0  0  0  0  0
  -34.1459  -18.8306   23.5467 H   0  0  0  0  0  0
  -34.4041  -19.0358   21.8042 H   0  0  0  0  0  0
  -25.3254  -18.8099   21.9140 H   0  0  0  0  0  0
  -25.8003  -17.1530   22.2723 H   0  0  0  0  0  0
  -25.8175  -17.7573   20.6024 H   0  0  0  0  0  0
  -28.0822  -23.4752   22.2509 H   0  0  0  0  0  0
  -27.2094  -24.6975   21.3543 H   0  0  0  0  0  0
  -27.6999  -25.0208   23.0078 H   0  0  0  0  0  0
  -30.1884  -25.1934   23.5559 H   0  0  0  0  0  0
  -31.3873  -25.4620   22.3184 H   0  0  0  0  0  0
  -27.5684  -18.8956   22.8105 H   0  0  0  0  0  0
  -27.6622  -19.2533   21.0790 H   0  0  0  0  0  0
  -30.1522  -27.0910   21.0076 H   0  0  0  0  0  0
  -28.7663  -27.1734   22.0769 H   0  0  0  0  0  0
  -29.5852  -24.6575   20.6212 H   0  0  0  0  0  0
  -29.2611  -15.0692   21.8261 H   0  0  0  0  0  0
  -29.9685  -22.9749   22.3464 H   0  0  0  0  0  0
  1 25  1  0  0  0
  1 30  2  0  0  0
  1 89  1  0  0  0
  2  3  1  0  0  0
  2 25  1  0  0  0
  2 92  1  0  0  0
  2 93  1  0  0  0
  3  4  1  0  0  0
  3 94  1  0  0  0
  3 95  1  0  0  0
  4  5  1  0  0  0
  4 96  1  0  0  0
  4 97  1  0  0  0
  5  6  1  0  0  0
  5 26  1  0  0  0
  5 98  1  0  0  0
  6 25  1  0  0  0
  6 99  1  0  0  0
  6100  1  0  0  0
  7  8  2  0  0  0
  7 26  1  0  0  0
  7 29  1  0  0  0
  8  9  1  0  0  0
  8 22  1  0  0  0
  9 10  1  0  0  0
  9 27  2  0  0  0
 10 11  2  0  0  0
 10 15  1  0  0  0
 11 12  1  0  0  0
 11101  1  0  0  0
 12 13  2  0  0  0
 12102  1  0  0  0
 13 14  1  0  0  0
 13 31  1  0  0  0
 14 15  2  0  0  0
 14103  1  0  0  0
 15104  1  0  0  0
 16 17  2  0  0  0
 16 21  1  0  0  0
 16 31  1  0  0  0
 17 18  1  0  0  0
 17105  1  0  0  0
 18 19  2  0  0  0
 18106  1  0  0  0
 19 20  1  0  0  0
 19 24  1  0  0  0
 20 21  2  0  0  0
 20107  1  0  0  0
 21 23  1  0  0  0
 22 28  1  0  0  0
 22 32  2  0  0  0
 26 27  1  0  0  0
 28108  1  0  0  0
 28109  1  0  0  0
 29110  1  0  0  0
 29111  1  0  0  0
 33 34  1  0  0  0
 33 66  1  0  0  0
 33 70  2  0  0  0
 34 36  1  0  0  0
 34 59  1  0  0  0
 34112  1  0  0  0
 35 44  2  0  0  0
 35 45  1  0  0  0
 35 68  1  0  0  0
 36 56  1  0  0  0
 36113  1  0  0  0
 37 39  1  0  0  0
 37 47  1  0  0  0
 37 66  1  0  0  0
 37114  1  0  0  0
 38 43  2  0  0  0
 38 46  1  0  0  0
 38 47  1  0  0  0
 39 64  1  0  0  0
 39 67  2  0  0  0
 40 52  1  0  0  0
 40 53  2  0  0  0
 40 58  1  0  0  0
 41115  1  0  0  0
 41116  1  0  0  0
 41117  1  0  0  0
 41 48  1  0  0  0
 42 43  1  0  0  0
 42 66  1  0  0  0
 42118  1  0  0  0
 42119  1  0  0  0
 43 44  1  0  0  0
 44120  1  0  0  0
 45 46  2  0  0  0
 45121  1  0  0  0
 46122  1  0  0  0
 47123  1  0  0  0
 47124  1  0  0  0
 48 56  1  0  0  0
 48 65  1  0  0  0
 48125  1  0  0  0
 49 50  1  0  0  0
 49 53  1  0  0  0
 49 64  1  0  0  0
 49126  1  0  0  0
 50 51  1  0  0  0
 50127  1  0  0  0
 50128  1  0  0  0
 51 52  1  0  0  0
 51129  1  0  0  0
 51130  1  0  0  0
 52131  1  0  0  0
 52132  1  0  0  0
 53 54  1  0  0  0
 54 55  2  0  0  0
 54133  1  0  0  0
 55 57  1  0  0  0
 55134  1  0  0  0
 56 69  2  0  0  0
 57 58  2  0  0  0
 57135  1  0  0  0
 58136  1  0  0  0
 59 60  1  0  0  0
 59 61  1  0  0  0
 59 62  1  0  0  0
 60137  1  0  0  0
 60138  1  0  0  0
 60139  1  0  0  0
 61140  1  0  0  0
 61141  1  0  0  0
 61142  1  0  0  0
 62143  1  0  0  0
 62144  1  0  0  0
 62145  1  0  0  0
 63 65  1  0  0  0
 63146  1  0  0  0
 63147  1  0  0  0
 63148  1  0  0  0
 64149  1  0  0  0
 65150  1  0  0  0
 68 87  1  0  0  0
 71 73  2  0  0  0
 71 76  1  0  0  0
 71151  1  0  0  0
 72 74  2  0  0  0
 72 75  1  0  0  0
 72152  1  0  0  0
 73 74  1  0  0  0
 73 81  1  0  0  0
 74 82  1  0  0  0
 75 76  2  0  0  0
 75 89  1  0  0  0
 76 91  1  0  0  0
 77 79  1  0  0  0
 77 81  1  0  0  0
 77153  1  0  0  0
 77154  1  0  0  0
 78 80  1  0  0  0
 78 81  1  0  0  0
 78155  1  0  0  0
 78156  1  0  0  0
 79 90  1  0  0  0
 79157  1  0  0  0
 79158  1  0  0  0
 80 90  1  0  0  0
 80159  1  0  0  0
 80160  1  0  0  0
 81161  1  0  0  0
 82162  1  0  0  0
 82163  1  0  0  0
 82164  1  0  0  0
 83 86  1  0  0  0
 83165  1  0  0  0
 83166  1  0  0  0
 83167  1  0  0  0
 84168  1  0  0  0
 84169  1  0  0  0
 84170  1  0  0  0
 84 88  1  0  0  0
 85 88  1  0  0  0
 85171  1  0  0  0
 85172  1  0  0  0
 85 90  1  0  0  0
 86 91  1  0  0  0
 86173  1  0  0  0
 86174  1  0  0  0
 87 88  1  0  0  0
 87175  1  0  0  0
 87176  1  0  0  0
 88177  1  0  0  0
 89178  1  0  0  0
 90179  1  0  0  0
M  CHG  1  90   1
M  ISO  4   1 100  68 101  87 101  89 100
M  END
> <chiral flag>
0

> <version>
0

> <s_m_source_file>
/data/baiqing/PycharmProjects/Reinvent-master-3.2/result/LINK_invent/BTK/process_docking_weight1_custom_sum_contain_oxygen_bond_distance_aromatic_linkinvent_7_9_3/rearranged_h_0148.sdf

> <i_m_source_file_index>
60

> <r_mmod_Potential_Energy-OPLS-2005>
-151.677276611328

> <r_mmod_Stretch_Energy-OPLS-2005>
37.4634895324707

> <r_mmod_Bend_Energy-OPLS-2005>
108.494750976562

> <r_mmod_Torsional_Energy-OPLS-2005>
274.708679199219

> <r_mmod_Improper_Torsional_Energy-OPLS-2005>
2.3078556060791

> <r_mmod_Van_der_Waal_Energy-OPLS-2005>
173.381301879883

> <r_mmod_Electrostatic_Energy-OPLS-2005>
-319.662445068359

> <r_mmod_Solvation_Energy-OPLS-2005>
-434.987213134766

> <b_mmod_Minimization_Converged-OPLS-2005>
0

> <r_mmod_RMS_Derivative-OPLS-2005>
2.85309219360352

$$$$
60
                    3D
 Structure written by MMmdl.
173182  0  0  1  0            999 V2000
  -30.7476  -14.3959   20.4974 C   0  0  0  0  0  0
  -30.4140  -12.2287   19.4443 C   0  0  0  0  0  0
  -29.5036  -12.4865   18.2251 C   0  0  0  0  0  0
  -28.0218  -12.3759   18.6365 C   0  0  0  0  0  0
  -27.6744  -13.2053   19.8952 C   0  0  2  0  0  0
  -28.7222  -12.9939   21.0166 C   0  0  0  0  0  0
  -25.2606  -13.8105   20.5650 C   0  0  0  0  0  0
  -24.1817  -13.0394   20.9170 C   0  0  0  0  0  0
  -24.6448  -11.6892   20.8786 C   0  0  0  0  0  0
  -23.9097  -10.4276   21.0420 C   0  0  0  0  0  0
  -24.3654   -9.4152   21.9170 C   0  0  0  0  0  0
  -23.6310   -8.2223   22.0758 C   0  0  0  0  0  0
  -22.4278   -8.0275   21.3558 C   0  0  0  0  0  0
  -21.9917   -9.0257   20.4675 C   0  0  0  0  0  0
  -22.7291  -10.2134   20.3056 C   0  0  0  0  0  0
  -21.6835   -6.0734   22.5273 C   0  0  0  0  0  0
  -21.4013   -6.5614   23.8225 C   0  0  0  0  0  0
  -21.3675   -5.6754   24.9161 C   0  0  0  0  0  0
  -21.6054   -4.3015   24.7193 C   0  0  0  0  0  0
  -21.8811   -3.8118   23.4296 C   0  0  0  0  0  0
  -21.9198   -4.6973   22.3371 C   0  0  0  0  0  0
  -22.7850  -13.5192   21.1804 C   0  0  0  0  0  0
  -22.1681   -4.2163   21.0934 F   0  0  0  0  0  0
  -21.5645   -3.4467   25.7690 F   0  0  0  0  0  0
  -30.0698  -13.2308   20.4593 N   0  0  0  0  0  0
  -26.3135  -12.9312   20.3486 N   0  0  0  0  0  0
  -25.9400  -11.6493   20.5886 N   0  0  0  0  0  0
  -22.0486  -12.8201   22.0316 N   0  0  0  0  0  0
  -25.4269  -15.1799   20.3806 N   0  0  0  0  0  0
  -31.9155  -14.5297   20.1305 O   0  0  0  0  0  0
  -21.6632   -6.8895   21.4261 O   0  0  0  0  0  0
  -22.3582  -14.5524   20.6688 O   0  0  0  0  0  0
  -24.6118  -31.8696   23.2121 C   0  0  0  0  0  0
  -25.9009  -32.4837   23.8425 C   0  0  1  0  0  0
  -27.2358  -27.4562   20.1419 C   0  0  0  0  0  0
  -25.5864  -33.8641   24.2356 N   0  0  0  0  0  0
  -23.4001  -30.4914   21.5495 C   0  0  2  0  0  0
  -24.8550  -28.9625   20.1113 C   0  0  0  0  0  0
  -22.7402  -29.4649   22.4974 C   0  0  0  0  0  0
  -18.0252  -28.1369   22.8493 C   0  0  0  0  0  0
  -24.1477  -36.7332   23.2637 C   0  0  0  0  0  0
  -25.9234  -30.8516   21.3572 C   0  0  0  0  0  0
  -26.0056  -29.4838   20.7139 C   0  0  0  0  0  0
  -27.2036  -28.7373   20.7289 C   0  0  0  0  0  0
  -26.0831  -26.9466   19.5133 C   0  0  0  0  0  0
  -24.8880  -27.6932   19.4997 C   0  0  0  0  0  0
  -23.6106  -29.8238   20.1622 C   0  0  0  0  0  0
  -25.4094  -36.3126   24.0348 C   0  0  1  0  0  0
  -20.5851  -28.3651   23.1303 C   0  0  2  0  0  0
  -20.6742  -26.9371   22.5416 C   0  0  0  0  0  0
  -19.5740  -26.6378   21.5208 C   0  0  0  0  0  0
  -18.1922  -26.7901   22.1616 C   0  0  0  0  0  0
  -19.1512  -28.8831   23.2900 C   0  0  0  0  0  0
  -18.9433  -30.1432   23.8926 C   0  0  0  0  0  0
  -17.6456  -30.6578   24.0554 C   0  0  0  0  0  0
  -25.9025  -34.9483   23.5147 C   0  0  0  0  0  0
  -16.5336  -29.9105   23.6316 C   0  0  0  0  0  0
  -16.7250  -28.6508   23.0346 C   0  0  0  0  0  0
  -26.4462  -31.6602   25.0736 C   0  0  0  0  0  0
  -25.3754  -31.3679   26.1494 C   0  0  0  0  0  0
  -27.0291  -30.3055   24.6074 C   0  0  0  0  0  0
  -27.6049  -32.4315   25.7469 C   0  0  0  0  0  0
  -27.5582  -37.1814   24.8464 C   0  0  0  0  0  0
  -21.4133  -29.3042   22.3738 N   0  0  0  0  0  0
  -26.4294  -37.3807   23.9401 N   0  0  0  0  0  0
  -24.6619  -31.0838   22.0993 N   0  0  0  0  0  0
  -23.4152  -28.8193   23.3030 O   0  0  0  0  0  0
  -28.3365  -26.6478   20.2686 O   0  0  0  0  0  0
  -26.5607  -34.8925   22.4717 O   0  0  0  0  0  0
  -23.5319  -32.1414   23.7518 O   0  0  0  0  0  0
  -30.2976  -22.3974   23.6478 C   0  0  0  0  0  0
  -28.5051  -21.6529   22.1938 C   0  0  0  0  0  0
  -30.7418  -21.0679   23.8381 C   0  0  0  0  0  0
  -28.9190  -20.3106   22.3466 C   0  0  0  0  0  0
  -29.1743  -22.6969   22.8502 C   0  0  0  0  0  0
  -30.0083  -20.0092   23.2152 C   0  0  0  0  0  0
  -32.9788  -19.7732   24.5092 C   0  0  0  0  0  0
  -32.1468  -19.8340   25.7716 C   0  0  0  0  0  0
  -31.9785  -20.8887   24.7057 C   0  0  0  0  0  0
  -29.4194  -18.1261   24.4615 C   0  0  0  0  0  0
  -28.6169  -18.0177   21.2205 C   0  0  0  0  0  0
  -30.0690  -16.5872   19.6884 C   0  0  0  0  0  0
  -28.4335  -26.1035   21.5990 C   0  0  0  0  0  0
  -29.1597  -24.7409   21.6506 C   0  0  0  0  0  0
  -29.8683  -17.9768   20.3310 C   0  0  2  0  0  0
  -28.1762  -19.3614   21.6159 N   0  0  0  0  0  0
  -29.9550  -15.4596   20.6263 N   0  0  0  0  0  0
  -29.7741  -19.0201   19.3000 N   0  3  0  0  0  0
  -30.3118  -18.7015   23.5061 O   0  0  0  0  0  0
  -28.6968  -23.9849   22.7698 O   0  0  0  0  0  0
  -31.4680  -12.2583   19.1654 H   0  0  0  0  0  0
  -30.2311  -11.2265   19.8386 H   0  0  0  0  0  0
  -29.7258  -11.7751   17.4255 H   0  0  0  0  0  0
  -29.7093  -13.4783   17.8230 H   0  0  0  0  0  0
  -27.8139  -11.3236   18.8288 H   0  0  0  0  0  0
  -27.3743  -12.6679   17.8056 H   0  0  0  0  0  0
  -27.7079  -14.2542   19.5969 H   0  0  0  0  0  0
  -28.5259  -13.6485   21.8656 H   0  0  0  0  0  0
  -28.6738  -11.9840   21.4185 H   0  0  0  0  0  0
  -25.2829   -9.5612   22.4710 H   0  0  0  0  0  0
  -24.0010   -7.4646   22.7506 H   0  0  0  0  0  0
  -21.0796   -8.8870   19.9021 H   0  0  0  0  0  0
  -22.3768  -10.9723   19.6178 H   0  0  0  0  0  0
  -21.2031   -7.6116   23.9723 H   0  0  0  0  0  0
  -21.1515   -6.0453   25.9069 H   0  0  0  0  0  0
  -22.0601   -2.7574   23.2791 H   0  0  0  0  0  0
  -22.3995  -11.9756   22.4572 H   0  0  0  0  0  0
  -21.1044  -13.1142   22.2327 H   0  0  0  0  0  0
  -24.6324  -15.8122   20.3891 H   0  0  0  0  0  0
  -26.2504  -15.5910   19.9593 H   0  0  0  0  0  0
  -26.7088  -32.5561   23.1205 H   0  0  0  0  0  0
  -24.9984  -33.9827   25.0479 H   0  0  0  0  0  0
  -22.6891  -31.3069   21.4108 H   0  0  0  0  0  0
  -23.3741  -35.9666   23.3312 H   0  0  0  0  0  0
  -24.3578  -36.8942   22.2050 H   0  0  0  0  0  0
  -23.7243  -37.6544   23.6650 H   0  0  0  0  0  0
  -26.0273  -31.6128   20.5804 H   0  0  0  0  0  0
  -26.8156  -30.9126   21.9705 H   0  0  0  0  0  0
  -28.0800  -29.1291   21.2264 H   0  0  0  0  0  0
  -26.0998  -25.9559   19.0817 H   0  0  0  0  0  0
  -24.0022  -27.2827   19.0339 H   0  0  0  0  0  0
  -23.7111  -30.5993   19.4016 H   0  0  0  0  0  0
  -22.7385  -29.2364   19.8682 H   0  0  0  0  0  0
  -25.1274  -36.2000   25.0856 H   0  0  0  0  0  0
  -20.9942  -28.3230   24.1425 H   0  0  0  0  0  0
  -20.5613  -26.2286   23.3629 H   0  0  0  0  0  0
  -21.6620  -26.7424   22.1235 H   0  0  0  0  0  0
  -19.6890  -25.6312   21.1234 H   0  0  0  0  0  0
  -19.6650  -27.3194   20.6751 H   0  0  0  0  0  0
  -17.4172  -26.6634   21.4029 H   0  0  0  0  0  0
  -18.0304  -26.0059   22.9033 H   0  0  0  0  0  0
  -19.7919  -30.7216   24.2305 H   0  0  0  0  0  0
  -17.5012  -31.6236   24.5152 H   0  0  0  0  0  0
  -15.5339  -30.2995   23.7622 H   0  0  0  0  0  0
  -15.8643  -28.0819   22.7055 H   0  0  0  0  0  0
  -24.5883  -30.7101   25.7813 H   0  0  0  0  0  0
  -24.9002  -32.2823   26.5032 H   0  0  0  0  0  0
  -25.8103  -30.8753   27.0193 H   0  0  0  0  0  0
  -26.2826  -29.6808   24.1164 H   0  0  0  0  0  0
  -27.4129  -29.7289   25.4500 H   0  0  0  0  0  0
  -27.8621  -30.4402   23.9171 H   0  0  0  0  0  0
  -27.2674  -33.3568   26.2130 H   0  0  0  0  0  0
  -28.3776  -32.6955   25.0248 H   0  0  0  0  0  0
  -28.0812  -31.8412   26.5300 H   0  0  0  0  0  0
  -28.2612  -38.0105   24.7510 H   0  0  0  0  0  0
  -28.1076  -36.2638   24.6282 H   0  0  0  0  0  0
  -27.2311  -37.1454   25.8878 H   0  0  0  0  0  0
  -20.9284  -29.8774   21.6979 H   0  0  0  0  0  0
  -26.0189  -38.2895   24.1400 H   0  0  0  0  0  0
  -30.8114  -23.2099   24.1481 H   0  0  0  0  0  0
  -27.6531  -21.8844   21.5711 H   0  0  0  0  0  0
  -32.7542  -18.9822   23.7977 H   0  0  0  0  0  0
  -34.0358  -20.0272   24.5951 H   0  0  0  0  0  0
  -32.6799  -20.1067   26.6810 H   0  0  0  0  0  0
  -31.3709  -19.0909   25.9087 H   0  0  0  0  0  0
  -32.4003  -21.8608   24.9581 H   0  0  0  0  0  0
  -29.9015  -17.2677   24.9319 H   0  0  0  0  0  0
  -28.4889  -17.7755   24.0226 H   0  0  0  0  0  0
  -29.1452  -18.8366   25.2486 H   0  0  0  0  0  0
  -27.7926  -17.5846   20.6492 H   0  0  0  0  0  0
  -28.7426  -17.3422   22.0590 H   0  0  0  0  0  0
  -31.0156  -16.5797   19.1466 H   0  0  0  0  0  0
  -29.2763  -16.3961   18.9625 H   0  0  0  0  0  0
  -28.9121  -26.8174   22.2703 H   0  0  0  0  0  0
  -27.4270  -25.9514   21.9987 H   0  0  0  0  0  0
  -30.2371  -24.8889   21.7352 H   0  0  0  0  0  0
  -28.9601  -24.1843   20.7345 H   0  0  0  0  0  0
  -30.7369  -18.2396   20.9384 H   0  0  0  0  0  0
  -27.1903  -19.5617   21.4593 H   0  0  0  0  0  0
  -29.0188  -15.2265   20.9289 H   0  0  0  0  0  0
  -28.9745  -18.8705   18.7092 H   0  0  0  0  0  0
  -30.6003  -19.0676   18.7263 H   0  0  0  0  0  0
  -29.6401  -19.8969   19.7722 H   0  0  0  0  0  0
  1 25  1  0  0  0
  1 30  2  0  0  0
  1 87  1  0  0  0
  2  3  1  0  0  0
  2 25  1  0  0  0
  2 91  1  0  0  0
  2 92  1  0  0  0
  3  4  1  0  0  0
  3 93  1  0  0  0
  3 94  1  0  0  0
  4  5  1  0  0  0
  4 95  1  0  0  0
  4 96  1  0  0  0
  5  6  1  0  0  0
  5 26  1  0  0  0
  5 97  1  0  0  0
  6 25  1  0  0  0
  6 98  1  0  0  0
  6 99  1  0  0  0
  7  8  2  0  0  0
  7 26  1  0  0  0
  7 29  1  0  0  0
  8  9  1  0  0  0
  8 22  1  0  0  0
  9 10  1  0  0  0
  9 27  2  0  0  0
 10 11  2  0  0  0
 10 15  1  0  0  0
 11 12  1  0  0  0
 11100  1  0  0  0
 12 13  2  0  0  0
 12101  1  0  0  0
 13 14  1  0  0  0
 13 31  1  0  0  0
 14 15  2  0  0  0
 14102  1  0  0  0
 15103  1  0  0  0
 16 17  2  0  0  0
 16 21  1  0  0  0
 16 31  1  0  0  0
 17 18  1  0  0  0
 17104  1  0  0  0
 18 19  2  0  0  0
 18105  1  0  0  0
 19 20  1  0  0  0
 19 24  1  0  0  0
 20 21  2  0  0  0
 20106  1  0  0  0
 21 23  1  0  0  0
 22 28  1  0  0  0
 22 32  2  0  0  0
 26 27  1  0  0  0
 28107  1  0  0  0
 28108  1  0  0  0
 29109  1  0  0  0
 29110  1  0  0  0
 33 34  1  0  0  0
 33 66  1  0  0  0
 33 70  2  0  0  0
 34 36  1  0  0  0
 34 59  1  0  0  0
 34111  1  0  0  0
 35 44  2  0  0  0
 35 45  1  0  0  0
 35 68  1  0  0  0
 36 56  1  0  0  0
 36112  1  0  0  0
 37 39  1  0  0  0
 37 47  1  0  0  0
 37 66  1  0  0  0
 37113  1  0  0  0
 38 43  2  0  0  0
 38 46  1  0  0  0
 38 47  1  0  0  0
 39 64  1  0  0  0
 39 67  2  0  0  0
 40 52  1  0  0  0
 40 53  2  0  0  0
 40 58  1  0  0  0
 41114  1  0  0  0
 41115  1  0  0  0
 41116  1  0  0  0
 41 48  1  0  0  0
 42 43  1  0  0  0
 42 66  1  0  0  0
 42117  1  0  0  0
 42118  1  0  0  0
 43 44  1  0  0  0
 44119  1  0  0  0
 45 46  2  0  0  0
 45120  1  0  0  0
 46121  1  0  0  0
 47122  1  0  0  0
 47123  1  0  0  0
 48 56  1  0  0  0
 48 65  1  0  0  0
 48124  1  0  0  0
 49 50  1  0  0  0
 49 53  1  0  0  0
 49 64  1  0  0  0
 49125  1  0  0  0
 50 51  1  0  0  0
 50126  1  0  0  0
 50127  1  0  0  0
 51 52  1  0  0  0
 51128  1  0  0  0
 51129  1  0  0  0
 52130  1  0  0  0
 52131  1  0  0  0
 53 54  1  0  0  0
 54 55  2  0  0  0
 54132  1  0  0  0
 55 57  1  0  0  0
 55133  1  0  0  0
 56 69  2  0  0  0
 57 58  2  0  0  0
 57134  1  0  0  0
 58135  1  0  0  0
 59 60  1  0  0  0
 59 61  1  0  0  0
 59 62  1  0  0  0
 60136  1  0  0  0
 60137  1  0  0  0
 60138  1  0  0  0
 61139  1  0  0  0
 61140  1  0  0  0
 61141  1  0  0  0
 62142  1  0  0  0
 62143  1  0  0  0
 62144  1  0  0  0
 63 65  1  0  0  0
 63145  1  0  0  0
 63146  1  0  0  0
 63147  1  0  0  0
 64148  1  0  0  0
 65149  1  0  0  0
 68 83  1  0  0  0
 71 73  2  0  0  0
 71 75  1  0  0  0
 71150  1  0  0  0
 72 74  1  0  0  0
 72 75  2  0  0  0
 72151  1  0  0  0
 73 76  1  0  0  0
 73 79  1  0  0  0
 74 76  2  0  0  0
 74 86  1  0  0  0
 75 90  1  0  0  0
 76 89  1  0  0  0
 77 78  1  0  0  0
 77 79  1  0  0  0
 77152  1  0  0  0
 77153  1  0  0  0
 78 79  1  0  0  0
 78154  1  0  0  0
 78155  1  0  0  0
 79156  1  0  0  0
 80 89  1  0  0  0
 80157  1  0  0  0
 80158  1  0  0  0
 80159  1  0  0  0
 81 85  1  0  0  0
 81 86  1  0  0  0
 81160  1  0  0  0
 81161  1  0  0  0
 82 85  1  0  0  0
 82 87  1  0  0  0
 82162  1  0  0  0
 82163  1  0  0  0
 83 84  1  0  0  0
 83164  1  0  0  0
 83165  1  0  0  0
 84 90  1  0  0  0
 84166  1  0  0  0
 84167  1  0  0  0
 85 88  1  0  0  0
 85168  1  0  0  0
 86169  1  0  0  0
 87170  1  0  0  0
 88171  1  0  0  0
 88172  1  0  0  0
 88173  1  0  0  0
M  CHG  1  88   1
M  ISO  4   1 100  68 101  83 101  87 100
M  END
> <chiral flag>
0

> <version>
0

> <s_m_source_file>
/data/baiqing/PycharmProjects/Reinvent-master-3.2/result/LINK_invent/BTK/process_docking_weight1_custom_sum_contain_oxygen_bond_distance_aromatic_linkinvent_7_9_3/rearranged_h_0148.sdf

> <i_m_source_file_index>
61

> <r_mmod_Potential_Energy-OPLS-2005>
-190.548385620117

> <r_mmod_Stretch_Energy-OPLS-2005>
38.8541412353516

> <r_mmod_Bend_Energy-OPLS-2005>
122.797554016113

> <r_mmod_Torsional_Energy-OPLS-2005>
374.523803710938

> <r_mmod_Improper_Torsional_Energy-OPLS-2005>
13.8873920440674

> <r_mmod_Van_der_Waal_Energy-OPLS-2005>
159.085510253906

> <r_mmod_Electrostatic_Energy-OPLS-2005>
-436.396789550781

> <r_mmod_Solvation_Energy-OPLS-2005>
-485.242553710938

> <b_mmod_Minimization_Converged-OPLS-2005>
0

> <r_mmod_RMS_Derivative-OPLS-2005>
9.42097568511963

$$$$
61
                    3D
 Structure written by MMmdl.
172181  0  0  1  0            999 V2000
  -30.5386  -14.9785   20.4024 C   0  0  0  0  0  0
  -30.4307  -12.6084   19.4896 C   0  0  0  0  0  0
  -29.5114  -12.5403   18.2504 C   0  0  0  0  0  0
  -28.0492  -12.3105   18.6746 C   0  0  0  0  0  0
  -27.6196  -13.2474   19.8326 C   0  0  2  0  0  0
  -28.6679  -13.2978   20.9629 C   0  0  0  0  0  0
  -25.2416  -13.8215   20.5766 C   0  0  0  0  0  0
  -24.1716  -13.0446   20.9235 C   0  0  0  0  0  0
  -24.6312  -11.6919   20.8737 C   0  0  0  0  0  0
  -23.9017  -10.4292   21.0384 C   0  0  0  0  0  0
  -24.3571   -9.4213   21.9168 C   0  0  0  0  0  0
  -23.6259   -8.2227   22.0741 C   0  0  0  0  0  0
  -22.4233   -8.0249   21.3540 C   0  0  0  0  0  0
  -21.9857   -9.0211   20.4642 C   0  0  0  0  0  0
  -22.7181  -10.2106   20.3043 C   0  0  0  0  0  0
  -21.6851   -6.0696   22.5261 C   0  0  0  0  0  0
  -21.4028   -6.5600   23.8191 C   0  0  0  0  0  0
  -21.3686   -5.6761   24.9156 C   0  0  0  0  0  0
  -21.6030   -4.3017   24.7207 C   0  0  0  0  0  0
  -21.8828   -3.8115   23.4333 C   0  0  0  0  0  0
  -21.9205   -4.6933   22.3390 C   0  0  0  0  0  0
  -22.7738  -13.5225   21.1883 C   0  0  0  0  0  0
  -22.1671   -4.2115   21.0973 F   0  0  0  0  0  0
  -21.5648   -3.4511   25.7732 F   0  0  0  0  0  0
  -29.9346  -13.7189   20.3499 N   0  0  0  0  0  0
  -26.2809  -12.9425   20.3236 N   0  0  0  0  0  0
  -25.9234  -11.6553   20.5712 N   0  0  0  0  0  0
  -22.0397  -12.8196   22.0431 N   0  0  0  0  0  0
  -25.4085  -15.1937   20.4241 N   0  0  0  0  0  0
  -31.7552  -15.0193   20.1959 O   0  0  0  0  0  0
  -21.6621   -6.8838   21.4219 O   0  0  0  0  0  0
  -22.3422  -14.5570   20.6803 O   0  0  0  0  0  0
  -24.6464  -31.8416   23.1850 C   0  0  0  0  0  0
  -25.9239  -32.4682   23.8214 C   0  0  1  0  0  0
  -27.2137  -27.1088   20.1458 C   0  0  0  0  0  0
  -25.5983  -33.8490   24.2140 N   0  0  0  0  0  0
  -23.4484  -30.4632   21.5333 C   0  0  2  0  0  0
  -24.8953  -28.8821   20.1075 C   0  0  0  0  0  0
  -22.7563  -29.4552   22.4847 C   0  0  0  0  0  0
  -18.0325  -28.1418   22.8494 C   0  0  0  0  0  0
  -24.1502  -36.7257   23.2635 C   0  0  0  0  0  0
  -26.0072  -30.7048   21.3860 C   0  0  0  0  0  0
  -26.0747  -29.3138   20.7258 C   0  0  0  0  0  0
  -27.2330  -28.4457   20.7242 C   0  0  0  0  0  0
  -26.0066  -26.7809   19.4877 C   0  0  0  0  0  0
  -24.8768  -27.6309   19.4720 C   0  0  0  0  0  0
  -23.6732  -29.7898   20.1525 C   0  0  0  0  0  0
  -25.4132  -36.3023   24.0299 C   0  0  1  0  0  0
  -20.5933  -28.3738   23.1259 C   0  0  2  0  0  0
  -20.6815  -26.9439   22.5432 C   0  0  0  0  0  0
  -19.5782  -26.6405   21.5244 C   0  0  0  0  0  0
  -18.1960  -26.7965   22.1648 C   0  0  0  0  0  0
  -19.1588  -28.8900   23.2863 C   0  0  0  0  0  0
  -18.9482  -30.1502   23.8882 C   0  0  0  0  0  0
  -17.6475  -30.6596   24.0591 C   0  0  0  0  0  0
  -25.9086  -34.9402   23.5025 C   0  0  0  0  0  0
  -16.5359  -29.9089   23.6353 C   0  0  0  0  0  0
  -16.7315  -28.6520   23.0346 C   0  0  0  0  0  0
  -26.4502  -31.6579   25.0693 C   0  0  0  0  0  0
  -25.3657  -31.3812   26.1385 C   0  0  0  0  0  0
  -27.0333  -30.2962   24.6290 C   0  0  0  0  0  0
  -27.6020  -32.4329   25.7479 C   0  0  0  0  0  0
  -27.5591  -37.1772   24.8438 C   0  0  0  0  0  0
  -21.4270  -29.3036   22.3598 N   0  0  0  0  0  0
  -26.4276  -37.3758   23.9421 N   0  0  0  0  0  0
  -24.7217  -31.0225   22.0906 N   0  0  0  0  0  0
  -23.4212  -28.8108   23.3013 O   0  0  0  0  0  0
  -28.2717  -26.1224   20.2114 O   0  0  0  0  0  0
  -26.5667  -34.8903   22.4594 O   0  0  0  0  0  0
  -23.5586  -32.1325   23.7053 O   0  0  0  0  0  0
  -29.4137  -20.4756   20.6064 C   0  0  0  0  0  0
  -29.1323  -19.0131   18.6804 C   0  0  0  0  0  0
  -29.0644  -21.7204   19.8564 C   0  0  0  0  0  0
  -29.4851  -19.0852   20.0445 C   0  0  0  0  0  0
  -28.9016  -21.4835   18.4743 C   0  0  0  0  0  0
  -28.8744  -20.1832   17.9061 C   0  0  0  0  0  0
  -30.3255  -23.7715   19.3117 C   0  0  0  0  0  0
  -29.1941  -23.3376   20.2533 C   0  0  1  0  0  0
  -29.8775  -23.6494   17.8269 C   0  0  1  0  0  0
  -28.0227  -19.3552   14.4502 C   0  0  0  0  0  0
  -31.9537  -22.3446   16.9741 C   0  0  0  0  0  0
  -30.5679  -23.7334   15.3712 C   0  0  0  0  0  0
  -30.0968  -17.7090   20.7526 C   0  0  0  0  0  0
  -28.0330  -24.5745   20.0745 C   0  0  0  0  0  0
  -28.3053  -18.9575   15.8999 C   0  0  0  0  0  0
  -31.0579  -23.5882   16.8205 C   0  0  0  0  0  0
  -28.9001  -22.5738   17.5889 N   0  0  0  0  0  0
  -29.7605  -16.1737   20.4888 N   0  0  0  0  0  0
  -28.6946  -20.1614   16.5388 O   0  0  0  0  0  0
  -31.4698  -12.7521   19.1853 H   0  0  0  0  0  0
  -30.4074  -11.6657   20.0385 H   0  0  0  0  0  0
  -29.8370  -11.7450   17.5781 H   0  0  0  0  0  0
  -29.5800  -13.4769   17.6908 H   0  0  0  0  0  0
  -27.9569  -11.2718   18.9914 H   0  0  0  0  0  0
  -27.3815  -12.4303   17.8189 H   0  0  0  0  0  0
  -27.5800  -14.2414   19.3861 H   0  0  0  0  0  0
  -28.7656  -12.3298   21.4572 H   0  0  0  0  0  0
  -28.3604  -14.0072   21.7333 H   0  0  0  0  0  0
  -25.2702   -9.5702   22.4745 H   0  0  0  0  0  0
  -23.9981   -7.4622   22.7432 H   0  0  0  0  0  0
  -21.0800   -8.8685   19.8943 H   0  0  0  0  0  0
  -22.3598  -10.9612   19.6146 H   0  0  0  0  0  0
  -21.2006   -7.6101   23.9683 H   0  0  0  0  0  0
  -21.1520   -6.0487   25.9067 H   0  0  0  0  0  0
  -22.0594   -2.7570   23.2827 H   0  0  0  0  0  0
  -22.4053  -11.9878   22.4827 H   0  0  0  0  0  0
  -21.1036  -13.1220   22.2726 H   0  0  0  0  0  0
  -24.6435  -15.8477   20.5606 H   0  0  0  0  0  0
  -26.2474  -15.6352   20.0733 H   0  0  0  0  0  0
  -26.7306  -32.5240   23.0930 H   0  0  0  0  0  0
  -25.0110  -33.9579   25.0278 H   0  0  0  0  0  0
  -22.7543  -31.2922   21.3803 H   0  0  0  0  0  0
  -23.3768  -35.9585   23.3257 H   0  0  0  0  0  0
  -24.3595  -36.8937   22.2062 H   0  0  0  0  0  0
  -23.7244  -37.6427   23.6706 H   0  0  0  0  0  0
  -26.1670  -31.4580   20.6133 H   0  0  0  0  0  0
  -26.8759  -30.7524   22.0300 H   0  0  0  0  0  0
  -28.1301  -28.7702   21.2309 H   0  0  0  0  0  0
  -25.9030  -25.8251   18.9940 H   0  0  0  0  0  0
  -23.9767  -27.3007   18.9691 H   0  0  0  0  0  0
  -23.8073  -30.5639   19.3976 H   0  0  0  0  0  0
  -22.7843  -29.2369   19.8436 H   0  0  0  0  0  0
  -25.1327  -36.1821   25.0788 H   0  0  0  0  0  0
  -21.0059  -28.3340   24.1374 H   0  0  0  0  0  0
  -20.5763  -26.2319   23.3639 H   0  0  0  0  0  0
  -21.6668  -26.7463   22.1199 H   0  0  0  0  0  0
  -19.6923  -25.6309   21.1297 H   0  0  0  0  0  0
  -19.6735  -27.3199   20.6765 H   0  0  0  0  0  0
  -17.4241  -26.6749   21.4035 H   0  0  0  0  0  0
  -18.0323  -26.0094   22.9032 H   0  0  0  0  0  0
  -19.7936  -30.7359   24.2210 H   0  0  0  0  0  0
  -17.5009  -31.6278   24.5196 H   0  0  0  0  0  0
  -15.5361  -30.2984   23.7690 H   0  0  0  0  0  0
  -15.8719  -28.0859   22.7029 H   0  0  0  0  0  0
  -24.5815  -30.7178   25.7725 H   0  0  0  0  0  0
  -24.8860  -32.3021   26.4720 H   0  0  0  0  0  0
  -25.7938  -30.9051   27.0223 H   0  0  0  0  0  0
  -26.2944  -29.6709   24.1287 H   0  0  0  0  0  0
  -27.3910  -29.7245   25.4859 H   0  0  0  0  0  0
  -27.8876  -30.4171   23.9624 H   0  0  0  0  0  0
  -27.2618  -33.3639   26.2019 H   0  0  0  0  0  0
  -28.3875  -32.6888   25.0358 H   0  0  0  0  0  0
  -28.0649  -31.8477   26.5432 H   0  0  0  0  0  0
  -28.2550  -38.0124   24.7565 H   0  0  0  0  0  0
  -28.1137  -36.2658   24.6162 H   0  0  0  0  0  0
  -27.2318  -37.1310   25.8833 H   0  0  0  0  0  0
  -20.9463  -29.8687   21.6733 H   0  0  0  0  0  0
  -26.0126  -38.2809   24.1457 H   0  0  0  0  0  0
  -29.7173  -20.6020   21.6366 H   0  0  0  0  0  0
  -29.1779  -18.0434   18.2056 H   0  0  0  0  0  0
  -31.1876  -23.1342   19.5080 H   0  0  0  0  0  0
  -30.6492  -24.7919   19.5283 H   0  0  0  0  0  0
  -29.5582  -23.3763   21.2786 H   0  0  0  0  0  0
  -29.3389  -24.5696   17.5960 H   0  0  0  0  0  0
  -27.6941  -18.4961   13.8639 H   0  0  0  0  0  0
  -28.9266  -19.7597   13.9884 H   0  0  0  0  0  0
  -27.2444  -20.1216   14.3945 H   0  0  0  0  0  0
  -32.5208  -22.3597   17.9033 H   0  0  0  0  0  0
  -32.6814  -22.2797   16.1638 H   0  0  0  0  0  0
  -31.3727  -21.4237   16.9567 H   0  0  0  0  0  0
  -29.9480  -24.6209   15.2509 H   0  0  0  0  0  0
  -29.9829  -22.8709   15.0555 H   0  0  0  0  0  0
  -31.4063  -23.8255   14.6788 H   0  0  0  0  0  0
  -29.9533  -17.8527   21.8242 H   0  0  0  0  0  0
  -31.1767  -17.7904   20.6176 H   0  0  0  0  0  0
  -27.2078  -24.3288   20.7429 H   0  0  0  0  0  0
  -27.6035  -24.4522   19.0811 H   0  0  0  0  0  0
  -29.1003  -18.2090   15.9299 H   0  0  0  0  0  0
  -27.4065  -18.5396   16.3595 H   0  0  0  0  0  0
  -31.6837  -24.4609   17.0143 H   0  0  0  0  0  0
  -28.8464  -22.2687   16.6220 H   0  0  0  0  0  0
  -28.7733  -15.9727   20.5484 H   0  0  0  0  0  0
  1 25  1  0  0  0
  1 30  2  0  0  0
  1 88  1  0  0  0
  2  3  1  0  0  0
  2 25  1  0  0  0
  2 90  1  0  0  0
  2 91  1  0  0  0
  3  4  1  0  0  0
  3 92  1  0  0  0
  3 93  1  0  0  0
  4  5  1  0  0  0
  4 94  1  0  0  0
  4 95  1  0  0  0
  5  6  1  0  0  0
  5 26  1  0  0  0
  5 96  1  0  0  0
  6 25  1  0  0  0
  6 97  1  0  0  0
  6 98  1  0  0  0
  7  8  2  0  0  0
  7 26  1  0  0  0
  7 29  1  0  0  0
  8  9  1  0  0  0
  8 22  1  0  0  0
  9 10  1  0  0  0
  9 27  2  0  0  0
 10 11  2  0  0  0
 10 15  1  0  0  0
 11 12  1  0  0  0
 11 99  1  0  0  0
 12 13  2  0  0  0
 12100  1  0  0  0
 13 14  1  0  0  0
 13 31  1  0  0  0
 14 15  2  0  0  0
 14101  1  0  0  0
 15102  1  0  0  0
 16 17  2  0  0  0
 16 21  1  0  0  0
 16 31  1  0  0  0
 17 18  1  0  0  0
 17103  1  0  0  0
 18 19  2  0  0  0
 18104  1  0  0  0
 19 20  1  0  0  0
 19 24  1  0  0  0
 20 21  2  0  0  0
 20105  1  0  0  0
 21 23  1  0  0  0
 22 28  1  0  0  0
 22 32  2  0  0  0
 26 27  1  0  0  0
 28106  1  0  0  0
 28107  1  0  0  0
 29108  1  0  0  0
 29109  1  0  0  0
 33 34  1  0  0  0
 33 66  1  0  0  0
 33 70  2  0  0  0
 34 36  1  0  0  0
 34 59  1  0  0  0
 34110  1  0  0  0
 35 44  2  0  0  0
 35 45  1  0  0  0
 35 68  1  0  0  0
 36 56  1  0  0  0
 36111  1  0  0  0
 37 39  1  0  0  0
 37 47  1  0  0  0
 37 66  1  0  0  0
 37112  1  0  0  0
 38 43  2  0  0  0
 38 46  1  0  0  0
 38 47  1  0  0  0
 39 64  1  0  0  0
 39 67  2  0  0  0
 40 52  1  0  0  0
 40 53  2  0  0  0
 40 58  1  0  0  0
 41113  1  0  0  0
 41114  1  0  0  0
 41115  1  0  0  0
 41 48  1  0  0  0
 42 43  1  0  0  0
 42 66  1  0  0  0
 42116  1  0  0  0
 42117  1  0  0  0
 43 44  1  0  0  0
 44118  1  0  0  0
 45 46  2  0  0  0
 45119  1  0  0  0
 46120  1  0  0  0
 47121  1  0  0  0
 47122  1  0  0  0
 48 56  1  0  0  0
 48 65  1  0  0  0
 48123  1  0  0  0
 49 50  1  0  0  0
 49 53  1  0  0  0
 49 64  1  0  0  0
 49124  1  0  0  0
 50 51  1  0  0  0
 50125  1  0  0  0
 50126  1  0  0  0
 51 52  1  0  0  0
 51127  1  0  0  0
 51128  1  0  0  0
 52129  1  0  0  0
 52130  1  0  0  0
 53 54  1  0  0  0
 54 55  2  0  0  0
 54131  1  0  0  0
 55 57  1  0  0  0
 55132  1  0  0  0
 56 69  2  0  0  0
 57 58  2  0  0  0
 57133  1  0  0  0
 58134  1  0  0  0
 59 60  1  0  0  0
 59 61  1  0  0  0
 59 62  1  0  0  0
 60135  1  0  0  0
 60136  1  0  0  0
 60137  1  0  0  0
 61138  1  0  0  0
 61139  1  0  0  0
 61140  1  0  0  0
 62141  1  0  0  0
 62142  1  0  0  0
 62143  1  0  0  0
 63 65  1  0  0  0
 63144  1  0  0  0
 63145  1  0  0  0
 63146  1  0  0  0
 64147  1  0  0  0
 65148  1  0  0  0
 68 84  1  0  0  0
 71 73  2  0  0  0
 71 74  1  0  0  0
 71149  1  0  0  0
 72 74  2  0  0  0
 72 76  1  0  0  0
 72150  1  0  0  0
 73 75  1  0  0  0
 73 78  1  0  0  0
 74 83  1  0  0  0
 75 76  2  0  0  0
 75 87  1  0  0  0
 76 89  1  0  0  0
 77 78  1  0  0  0
 77151  1  0  0  0
 77152  1  0  0  0
 77 79  1  0  0  0
 78 84  1  0  0  0
 78153  1  0  0  0
 79 86  1  0  0  0
 79 87  1  0  0  0
 79154  1  0  0  0
 80 85  1  0  0  0
 80155  1  0  0  0
 80156  1  0  0  0
 80157  1  0  0  0
 81158  1  0  0  0
 81159  1  0  0  0
 81160  1  0  0  0
 81 86  1  0  0  0
 82 86  1  0  0  0
 82161  1  0  0  0
 82162  1  0  0  0
 82163  1  0  0  0
 83 88  1  0  0  0
 83164  1  0  0  0
 83165  1  0  0  0
 84166  1  0  0  0
 84167  1  0  0  0
 85 89  1  0  0  0
 85168  1  0  0  0
 85169  1  0  0  0
 86170  1  0  0  0
 87171  1  0  0  0
 88172  1  0  0  0
M  ISO  4   1 100  68 101  84 101  88 100
M  END
> <chiral flag>
0

> <version>
0

> <s_m_source_file>
/data/baiqing/PycharmProjects/Reinvent-master-3.2/result/LINK_invent/BTK/process_docking_weight1_custom_sum_contain_oxygen_bond_distance_aromatic_linkinvent_7_9_3/rearranged_h_0148.sdf

> <i_m_source_file_index>
62

> <r_mmod_Potential_Energy-OPLS-2005>
497.252868652344

> <r_mmod_Stretch_Energy-OPLS-2005>
292.625762939453

> <r_mmod_Bend_Energy-OPLS-2005>
303.187072753906

> <r_mmod_Torsional_Energy-OPLS-2005>
265.418029785156

> <r_mmod_Improper_Torsional_Energy-OPLS-2005>
13.2588977813721

> <r_mmod_Van_der_Waal_Energy-OPLS-2005>
143.917175292969

> <r_mmod_Electrostatic_Energy-OPLS-2005>
-524.095092773438

> <r_mmod_Solvation_Energy-OPLS-2005>
-212.143249511719

> <b_mmod_Minimization_Converged-OPLS-2005>
0

> <r_mmod_RMS_Derivative-OPLS-2005>
4.92981863021851

$$$$
62
                    3D
 Structure written by MMmdl.
161170  0  0  1  0            999 V2000
  -30.6284  -14.6837   20.4865 C   0  0  0  0  0  0
  -30.4324  -12.4224   19.4552 C   0  0  0  0  0  0
  -29.5051  -12.5027   18.2234 C   0  0  0  0  0  0
  -28.0300  -12.3373   18.6398 C   0  0  0  0  0  0
  -27.6453  -13.2255   19.8535 C   0  0  2  0  0  0
  -28.6916  -13.1261   20.9840 C   0  0  0  0  0  0
  -25.2527  -13.8189   20.5687 C   0  0  0  0  0  0
  -24.1811  -13.0440   20.9203 C   0  0  0  0  0  0
  -24.6397  -11.6915   20.8747 C   0  0  0  0  0  0
  -23.9072  -10.4294   21.0410 C   0  0  0  0  0  0
  -24.3623   -9.4208   21.9186 C   0  0  0  0  0  0
  -23.6298   -8.2242   22.0753 C   0  0  0  0  0  0
  -22.4277   -8.0283   21.3546 C   0  0  0  0  0  0
  -21.9917   -9.0256   20.4645 C   0  0  0  0  0  0
  -22.7246  -10.2135   20.3057 C   0  0  0  0  0  0
  -21.6856   -6.0737   22.5277 C   0  0  0  0  0  0
  -21.4014   -6.5639   23.8210 C   0  0  0  0  0  0
  -21.3660   -5.6792   24.9174 C   0  0  0  0  0  0
  -21.6044   -4.3054   24.7223 C   0  0  0  0  0  0
  -21.8821   -3.8147   23.4344 C   0  0  0  0  0  0
  -21.9193   -4.6965   22.3402 C   0  0  0  0  0  0
  -22.7833  -13.5222   21.1868 C   0  0  0  0  0  0
  -22.1662   -4.2149   21.0979 F   0  0  0  0  0  0
  -21.5630   -3.4539   25.7737 F   0  0  0  0  0  0
  -29.9953  -13.4694   20.4019 N   0  0  0  0  0  0
  -26.2954  -12.9386   20.3295 N   0  0  0  0  0  0
  -25.9325  -11.6532   20.5754 N   0  0  0  0  0  0
  -22.0484  -12.8203   22.0420 N   0  0  0  0  0  0
  -25.4223  -15.1912   20.4094 N   0  0  0  0  0  0
  -31.8141  -14.8001   20.1691 O   0  0  0  0  0  0
  -21.6640   -6.8880   21.4240 O   0  0  0  0  0  0
  -22.3517  -14.5532   20.6723 O   0  0  0  0  0  0
  -24.6271  -31.8580   23.2008 C   0  0  0  0  0  0
  -25.9113  -32.4771   23.8342 C   0  0  1  0  0  0
  -27.2240  -27.3037   20.1293 C   0  0  0  0  0  0
  -25.5928  -33.8571   24.2275 N   0  0  0  0  0  0
  -23.4227  -30.4794   21.5430 C   0  0  2  0  0  0
  -24.8718  -28.9260   20.1160 C   0  0  0  0  0  0
  -22.7481  -29.4612   22.4932 C   0  0  0  0  0  0
  -18.0287  -28.1389   22.8490 C   0  0  0  0  0  0
  -24.1483  -36.7279   23.2642 C   0  0  0  0  0  0
  -25.9639  -30.7846   21.3733 C   0  0  0  0  0  0
  -26.0412  -29.4070   20.7217 C   0  0  0  0  0  0
  -27.2245  -28.6071   20.7186 C   0  0  0  0  0  0
  -26.0367  -26.8713   19.5078 C   0  0  0  0  0  0
  -24.8710  -27.6633   19.5000 C   0  0  0  0  0  0
  -23.6402  -29.8096   20.1601 C   0  0  0  0  0  0
  -25.4112  -36.3078   24.0333 C   0  0  1  0  0  0
  -20.5888  -28.3690   23.1286 C   0  0  2  0  0  0
  -20.6774  -26.9412   22.5415 C   0  0  0  0  0  0
  -19.5751  -26.6390   21.5214 C   0  0  0  0  0  0
  -18.1930  -26.7932   22.1625 C   0  0  0  0  0  0
  -19.1540  -28.8857   23.2884 C   0  0  0  0  0  0
  -18.9464  -30.1460   23.8897 C   0  0  0  0  0  0
  -17.6464  -30.6593   24.0564 C   0  0  0  0  0  0
  -25.9054  -34.9447   23.5106 C   0  0  0  0  0  0
  -16.5355  -29.9091   23.6335 C   0  0  0  0  0  0
  -16.7274  -28.6506   23.0360 C   0  0  0  0  0  0
  -26.4497  -31.6582   25.0713 C   0  0  0  0  0  0
  -25.3732  -31.3720   26.1440 C   0  0  0  0  0  0
  -27.0341  -30.3007   24.6161 C   0  0  0  0  0  0
  -27.6058  -32.4315   25.7482 C   0  0  0  0  0  0
  -27.5575  -37.1798   24.8470 C   0  0  0  0  0  0
  -21.4192  -29.3038   22.3673 N   0  0  0  0  0  0
  -26.4287  -37.3777   23.9416 N   0  0  0  0  0  0
  -24.6899  -31.0582   22.0958 N   0  0  0  0  0  0
  -23.4194  -28.8156   23.3025 O   0  0  0  0  0  0
  -28.3130  -26.4217   20.1141 O   0  0  0  0  0  0
  -26.5619  -34.8916   22.4670 O   0  0  0  0  0  0
  -23.5433  -32.1381   23.7334 O   0  0  0  0  0  0
  -29.5660  -23.1456   20.2227 C   0  0  0  0  0  0
  -29.7304  -21.7136   20.2207 C   0  0  0  0  0  0
  -27.4343  -22.8926   21.2749 C   0  0  0  0  0  0
  -27.5994  -21.4723   21.3084 C   0  0  0  0  0  0
  -28.4170  -23.7851   20.7745 C   0  0  0  0  0  0
  -28.7677  -20.8315   20.7986 C   0  0  0  0  0  0
  -25.3711  -19.8578   23.5754 C   0  0  0  0  0  0
  -26.7770  -19.5952   23.0289 C   0  0  0  0  0  0
  -25.4408  -21.2207   22.8815 C   0  0  0  0  0  0
  -26.4873  -20.6240   21.9209 C   0  0  0  0  0  0
  -28.2918  -25.3342   21.1149 C   0  0  0  0  0  0
  -30.3065  -17.2212   21.0323 C   0  0  0  0  0  0
  -29.7122  -18.4844   20.2288 C   0  0  0  0  0  0
  -29.8612  -15.7957   20.7537 N   0  0  0  0  0  0
  -28.8917  -19.4287   21.0002 O   0  0  0  0  0  0
  -31.4734  -12.5468   19.1518 H   0  0  0  0  0  0
  -30.3720  -11.4383   19.9222 H   0  0  0  0  0  0
  -29.7756  -11.7367   17.4953 H   0  0  0  0  0  0
  -29.6404  -13.4626   17.7219 H   0  0  0  0  0  0
  -27.8757  -11.2870   18.8890 H   0  0  0  0  0  0
  -27.3730  -12.5479   17.7951 H   0  0  0  0  0  0
  -27.6495  -14.2531   19.4902 H   0  0  0  0  0  0
  -28.7167  -12.1191   21.4028 H   0  0  0  0  0  0
  -28.4375  -13.7924   21.8102 H   0  0  0  0  0  0
  -25.2770   -9.5680   22.4759 H   0  0  0  0  0  0
  -24.0006   -7.4631   22.7471 H   0  0  0  0  0  0
  -21.0849   -8.8778   19.8949 H   0  0  0  0  0  0
  -22.3710  -10.9674   19.6162 H   0  0  0  0  0  0
  -21.2007   -7.6148   23.9715 H   0  0  0  0  0  0
  -21.1481   -6.0521   25.9076 H   0  0  0  0  0  0
  -22.0600   -2.7610   23.2843 H   0  0  0  0  0  0
  -22.4105  -11.9857   22.4788 H   0  0  0  0  0  0
  -21.1104  -13.1224   22.2641 H   0  0  0  0  0  0
  -24.6545  -15.8442   20.5202 H   0  0  0  0  0  0
  -26.2678  -15.6306   20.0683 H   0  0  0  0  0  0
  -26.7176  -32.5442   23.1090 H   0  0  0  0  0  0
  -25.0082  -33.9708   25.0423 H   0  0  0  0  0  0
  -22.7172  -31.3000   21.3969 H   0  0  0  0  0  0
  -23.3750  -35.9606   23.3312 H   0  0  0  0  0  0
  -24.3574  -36.8890   22.2055 H   0  0  0  0  0  0
  -23.7223  -37.6481   23.6653 H   0  0  0  0  0  0
  -26.0955  -31.5444   20.6017 H   0  0  0  0  0  0
  -26.8446  -30.8384   22.0016 H   0  0  0  0  0  0
  -28.1249  -28.9727   21.1927 H   0  0  0  0  0  0
  -26.0096  -25.8976   19.0387 H   0  0  0  0  0  0
  -23.9745  -27.2890   19.0246 H   0  0  0  0  0  0
  -23.7620  -30.5837   19.4012 H   0  0  0  0  0  0
  -22.7598  -29.2398   19.8577 H   0  0  0  0  0  0
  -25.1292  -36.1930   25.0825 H   0  0  0  0  0  0
  -20.9986  -28.3263   24.1404 H   0  0  0  0  0  0
  -20.5673  -26.2296   23.3611 H   0  0  0  0  0  0
  -21.6641  -26.7438   22.1209 H   0  0  0  0  0  0
  -19.6906  -25.6301   21.1243 H   0  0  0  0  0  0
  -19.6690  -27.3198   20.6740 H   0  0  0  0  0  0
  -17.4201  -26.6689   21.4025 H   0  0  0  0  0  0
  -18.0328  -26.0073   22.9020 H   0  0  0  0  0  0
  -19.7941  -30.7281   24.2261 H   0  0  0  0  0  0
  -17.5021  -31.6272   24.5169 H   0  0  0  0  0  0
  -15.5358  -30.2997   23.7658 H   0  0  0  0  0  0
  -15.8674  -28.0828   22.7079 H   0  0  0  0  0  0
  -24.5922  -30.7044   25.7780 H   0  0  0  0  0  0
  -24.8898  -32.2880   26.4845 H   0  0  0  0  0  0
  -25.8069  -30.8927   27.0224 H   0  0  0  0  0  0
  -26.2909  -29.6756   24.1193 H   0  0  0  0  0  0
  -27.4055  -29.7265   25.4659 H   0  0  0  0  0  0
  -27.8773  -30.4304   23.9371 H   0  0  0  0  0  0
  -27.2676  -33.3626   26.2039 H   0  0  0  0  0  0
  -28.3878  -32.6854   25.0315 H   0  0  0  0  0  0
  -28.0704  -31.8443   26.5413 H   0  0  0  0  0  0
  -28.2606  -38.0084   24.7517 H   0  0  0  0  0  0
  -28.1059  -36.2618   24.6301 H   0  0  0  0  0  0
  -27.2296  -37.1455   25.8875 H   0  0  0  0  0  0
  -20.9374  -29.8751   21.6874 H   0  0  0  0  0  0
  -26.0168  -38.2851   24.1422 H   0  0  0  0  0  0
  -30.3716  -23.7619   19.8490 H   0  0  0  0  0  0
  -30.6504  -21.3069   19.8262 H   0  0  0  0  0  0
  -26.5453  -23.3217   21.7150 H   0  0  0  0  0  0
  -25.3018  -19.8983   24.6633 H   0  0  0  0  0  0
  -24.6163  -19.1975   23.1441 H   0  0  0  0  0  0
  -26.9574  -18.5791   22.6751 H   0  0  0  0  0  0
  -27.5581  -19.9239   23.7170 H   0  0  0  0  0  0
  -25.8492  -21.9862   23.5440 H   0  0  0  0  0  0
  -24.5176  -21.5547   22.4063 H   0  0  0  0  0  0
  -25.9716  -20.1256   21.0967 H   0  0  0  0  0  0
  -29.1255  -25.5483   21.7843 H   0  0  0  0  0  0
  -27.4100  -25.4586   21.7463 H   0  0  0  0  0  0
  -30.1515  -17.3992   22.0969 H   0  0  0  0  0  0
  -31.3908  -17.2537   20.9149 H   0  0  0  0  0  0
  -29.1203  -18.1320   19.3839 H   0  0  0  0  0  0
  -30.5480  -19.0310   19.7930 H   0  0  0  0  0  0
  -28.8830  -15.6081   20.9150 H   0  0  0  0  0  0
  1 25  1  0  0  0
  1 30  2  0  0  0
  1 84  1  0  0  0
  2  3  1  0  0  0
  2 25  1  0  0  0
  2 86  1  0  0  0
  2 87  1  0  0  0
  3  4  1  0  0  0
  3 88  1  0  0  0
  3 89  1  0  0  0
  4  5  1  0  0  0
  4 90  1  0  0  0
  4 91  1  0  0  0
  5  6  1  0  0  0
  5 26  1  0  0  0
  5 92  1  0  0  0
  6 25  1  0  0  0
  6 93  1  0  0  0
  6 94  1  0  0  0
  7  8  2  0  0  0
  7 26  1  0  0  0
  7 29  1  0  0  0
  8  9  1  0  0  0
  8 22  1  0  0  0
  9 10  1  0  0  0
  9 27  2  0  0  0
 10 11  2  0  0  0
 10 15  1  0  0  0
 11 12  1  0  0  0
 11 95  1  0  0  0
 12 13  2  0  0  0
 12 96  1  0  0  0
 13 14  1  0  0  0
 13 31  1  0  0  0
 14 15  2  0  0  0
 14 97  1  0  0  0
 15 98  1  0  0  0
 16 17  2  0  0  0
 16 21  1  0  0  0
 16 31  1  0  0  0
 17 18  1  0  0  0
 17 99  1  0  0  0
 18 19  2  0  0  0
 18100  1  0  0  0
 19 20  1  0  0  0
 19 24  1  0  0  0
 20 21  2  0  0  0
 20101  1  0  0  0
 21 23  1  0  0  0
 22 28  1  0  0  0
 22 32  2  0  0  0
 26 27  1  0  0  0
 28102  1  0  0  0
 28103  1  0  0  0
 29104  1  0  0  0
 29105  1  0  0  0
 33 34  1  0  0  0
 33 66  1  0  0  0
 33 70  2  0  0  0
 34 36  1  0  0  0
 34 59  1  0  0  0
 34106  1  0  0  0
 35 44  2  0  0  0
 35 45  1  0  0  0
 35 68  1  0  0  0
 36 56  1  0  0  0
 36107  1  0  0  0
 37 39  1  0  0  0
 37 47  1  0  0  0
 37 66  1  0  0  0
 37108  1  0  0  0
 38 43  2  0  0  0
 38 46  1  0  0  0
 38 47  1  0  0  0
 39 64  1  0  0  0
 39 67  2  0  0  0
 40 52  1  0  0  0
 40 53  2  0  0  0
 40 58  1  0  0  0
 41109  1  0  0  0
 41110  1  0  0  0
 41111  1  0  0  0
 41 48  1  0  0  0
 42 43  1  0  0  0
 42 66  1  0  0  0
 42112  1  0  0  0
 42113  1  0  0  0
 43 44  1  0  0  0
 44114  1  0  0  0
 45 46  2  0  0  0
 45115  1  0  0  0
 46116  1  0  0  0
 47117  1  0  0  0
 47118  1  0  0  0
 48 56  1  0  0  0
 48 65  1  0  0  0
 48119  1  0  0  0
 49 50  1  0  0  0
 49 53  1  0  0  0
 49 64  1  0  0  0
 49120  1  0  0  0
 50 51  1  0  0  0
 50121  1  0  0  0
 50122  1  0  0  0
 51 52  1  0  0  0
 51123  1  0  0  0
 51124  1  0  0  0
 52125  1  0  0  0
 52126  1  0  0  0
 53 54  1  0  0  0
 54 55  2  0  0  0
 54127  1  0  0  0
 55 57  1  0  0  0
 55128  1  0  0  0
 56 69  2  0  0  0
 57 58  2  0  0  0
 57129  1  0  0  0
 58130  1  0  0  0
 59 60  1  0  0  0
 59 61  1  0  0  0
 59 62  1  0  0  0
 60131  1  0  0  0
 60132  1  0  0  0
 60133  1  0  0  0
 61134  1  0  0  0
 61135  1  0  0  0
 61136  1  0  0  0
 62137  1  0  0  0
 62138  1  0  0  0
 62139  1  0  0  0
 63 65  1  0  0  0
 63140  1  0  0  0
 63141  1  0  0  0
 63142  1  0  0  0
 64143  1  0  0  0
 65144  1  0  0  0
 68 81  1  0  0  0
 71 72  2  0  0  0
 71 75  1  0  0  0
 71145  1  0  0  0
 72 76  1  0  0  0
 72146  1  0  0  0
 73 74  1  0  0  0
 73 75  2  0  0  0
 73147  1  0  0  0
 74 76  2  0  0  0
 74 80  1  0  0  0
 75 81  1  0  0  0
 76 85  1  0  0  0
 77 78  1  0  0  0
 77 79  1  0  0  0
 77148  1  0  0  0
 77149  1  0  0  0
 78 80  1  0  0  0
 78150  1  0  0  0
 78151  1  0  0  0
 79 80  1  0  0  0
 79152  1  0  0  0
 79153  1  0  0  0
 80154  1  0  0  0
 81155  1  0  0  0
 81156  1  0  0  0
 82 83  1  0  0  0
 82 84  1  0  0  0
 82157  1  0  0  0
 82158  1  0  0  0
 83 85  1  0  0  0
 83159  1  0  0  0
 83160  1  0  0  0
 84161  1  0  0  0
M  ISO  4   1 100  68 101  81 101  84 100
M  END
> <chiral flag>
0

> <version>
0

> <s_m_source_file>
/data/baiqing/PycharmProjects/Reinvent-master-3.2/result/LINK_invent/BTK/process_docking_weight1_custom_sum_contain_oxygen_bond_distance_aromatic_linkinvent_7_9_3/rearranged_h_0148.sdf

> <i_m_source_file_index>
63

> <r_mmod_Potential_Energy-OPLS-2005>
160.956130981445

> <r_mmod_Stretch_Energy-OPLS-2005>
92.4950790405273

> <r_mmod_Bend_Energy-OPLS-2005>
190.397842407227

> <r_mmod_Torsional_Energy-OPLS-2005>
286.409851074219

> <r_mmod_Improper_Torsional_Energy-OPLS-2005>
6.08598613739014

> <r_mmod_Van_der_Waal_Energy-OPLS-2005>
135.692306518555

> <r_mmod_Electrostatic_Energy-OPLS-2005>
-407.772918701172

> <r_mmod_Solvation_Energy-OPLS-2005>
-204.393798828125

> <b_mmod_Minimization_Converged-OPLS-2005>
0

> <r_mmod_RMS_Derivative-OPLS-2005>
0.781931340694427

$$$$
63
                    3D
 Structure written by MMmdl.
160169  0  0  1  0            999 V2000
  -30.6944  -14.6205   20.5182 C   0  0  0  0  0  0
  -30.4252  -12.3908   19.4532 C   0  0  0  0  0  0
  -29.4986  -12.4981   18.2239 C   0  0  0  0  0  0
  -28.0253  -12.3397   18.6431 C   0  0  0  0  0  0
  -27.6515  -13.2260   19.8615 C   0  0  2  0  0  0
  -28.7002  -13.1164   20.9918 C   0  0  0  0  0  0
  -25.2556  -13.8195   20.5710 C   0  0  0  0  0  0
  -24.1827  -13.0451   20.9197 C   0  0  0  0  0  0
  -24.6407  -11.6924   20.8751 C   0  0  0  0  0  0
  -23.9078  -10.4300   21.0411 C   0  0  0  0  0  0
  -24.3628   -9.4211   21.9188 C   0  0  0  0  0  0
  -23.6300   -8.2244   22.0757 C   0  0  0  0  0  0
  -22.4282   -8.0283   21.3545 C   0  0  0  0  0  0
  -21.9921   -9.0258   20.4646 C   0  0  0  0  0  0
  -22.7251  -10.2137   20.3060 C   0  0  0  0  0  0
  -21.6853   -6.0739   22.5280 C   0  0  0  0  0  0
  -21.4015   -6.5645   23.8213 C   0  0  0  0  0  0
  -21.3655   -5.6798   24.9174 C   0  0  0  0  0  0
  -21.6037   -4.3062   24.7226 C   0  0  0  0  0  0
  -21.8817   -3.8153   23.4350 C   0  0  0  0  0  0
  -21.9195   -4.6967   22.3405 C   0  0  0  0  0  0
  -22.7846  -13.5232   21.1854 C   0  0  0  0  0  0
  -22.1661   -4.2155   21.0982 F   0  0  0  0  0  0
  -21.5628   -3.4543   25.7739 F   0  0  0  0  0  0
  -30.0139  -13.4350   20.4149 N   0  0  0  0  0  0
  -26.2993  -12.9398   20.3350 N   0  0  0  0  0  0
  -25.9346  -11.6544   20.5791 N   0  0  0  0  0  0
  -22.0496  -12.8213   22.0412 N   0  0  0  0  0  0
  -25.4254  -15.1919   20.4120 N   0  0  0  0  0  0
  -31.8604  -14.7200   20.1344 O   0  0  0  0  0  0
  -21.6644   -6.8881   21.4240 O   0  0  0  0  0  0
  -22.3531  -14.5536   20.6703 O   0  0  0  0  0  0
  -24.6299  -31.8624   23.2078 C   0  0  0  0  0  0
  -25.9145  -32.4792   23.8397 C   0  0  1  0  0  0
  -27.2082  -27.3007   20.0986 C   0  0  0  0  0  0
  -25.5953  -33.8593   24.2307 N   0  0  0  0  0  0
  -23.4223  -30.4938   21.5524 C   0  0  2  0  0  0
  -24.8654  -28.9669   20.1076 C   0  0  0  0  0  0
  -22.7498  -29.4635   22.4926 C   0  0  0  0  0  0
  -18.0292  -28.1388   22.8479 C   0  0  0  0  0  0
  -24.1485  -36.7285   23.2636 C   0  0  0  0  0  0
  -25.9719  -30.7831   21.3899 C   0  0  0  0  0  0
  -26.0408  -29.4141   20.7244 C   0  0  0  0  0  0
  -27.2129  -28.5913   20.7217 C   0  0  0  0  0  0
  -26.0076  -26.9489   19.4217 C   0  0  0  0  0  0
  -24.8522  -27.7365   19.4500 C   0  0  0  0  0  0
  -23.6368  -29.8477   20.1629 C   0  0  0  0  0  0
  -25.4109  -36.3084   24.0331 C   0  0  1  0  0  0
  -20.5897  -28.3695   23.1264 C   0  0  2  0  0  0
  -20.6784  -26.9413   22.5398 C   0  0  0  0  0  0
  -19.5751  -26.6376   21.5210 C   0  0  0  0  0  0
  -18.1930  -26.7926   22.1624 C   0  0  0  0  0  0
  -19.1550  -28.8858   23.2865 C   0  0  0  0  0  0
  -18.9475  -30.1459   23.8885 C   0  0  0  0  0  0
  -17.6476  -30.6589   24.0562 C   0  0  0  0  0  0
  -25.9057  -34.9458   23.5112 C   0  0  0  0  0  0
  -16.5365  -29.9089   23.6337 C   0  0  0  0  0  0
  -16.7282  -28.6510   23.0354 C   0  0  0  0  0  0
  -26.4510  -31.6599   25.0770 C   0  0  0  0  0  0
  -25.3724  -31.3743   26.1481 C   0  0  0  0  0  0
  -27.0361  -30.3021   24.6238 C   0  0  0  0  0  0
  -27.6061  -32.4351   25.7540 C   0  0  0  0  0  0
  -27.5571  -37.1800   24.8466 C   0  0  0  0  0  0
  -21.4208  -29.3052   22.3665 N   0  0  0  0  0  0
  -26.4281  -37.3780   23.9411 N   0  0  0  0  0  0
  -24.6937  -31.0618   22.1055 N   0  0  0  0  0  0
  -23.4219  -28.8143   23.2986 O   0  0  0  0  0  0
  -28.2759  -26.3688   20.1785 O   0  0  0  0  0  0
  -26.5614  -34.8924   22.4669 O   0  0  0  0  0  0
  -23.5457  -32.1441   23.7384 O   0  0  0  0  0  0
  -30.2305  -22.1721   20.9963 C   0  0  0  0  0  0
  -28.4058  -21.1377   19.8874 C   0  0  0  0  0  0
  -27.9265  -22.4312   19.6348 C   0  0  0  0  0  0
  -29.6166  -20.9367   20.5977 C   0  0  0  0  0  0
  -28.5894  -23.6049   20.0824 C   0  0  0  0  0  0
  -27.4704  -20.1033   19.3072 C   0  0  0  0  0  0
  -26.6348  -22.3906   18.8496 C   0  0  0  0  0  0
  -26.2466  -20.8972   18.7980 C   0  0  1  0  0  0
  -25.7513  -20.4339   17.4212 C   0  0  0  0  0  0
  -27.8903  -24.9863   19.7790 C   0  0  0  0  0  0
  -30.5671  -17.1375   21.0341 C   0  0  0  0  0  0
  -29.6425  -18.3748   20.6567 C   0  0  0  0  0  0
  -29.7535  -23.4489   20.7677 N   0  0  0  0  0  0
  -30.0072  -15.7413   20.8953 N   0  0  0  0  0  0
  -30.2324  -19.6982   20.9108 O   0  0  0  0  0  0
  -31.4678  -12.4901   19.1465 H   0  0  0  0  0  0
  -30.3446  -11.4046   19.9118 H   0  0  0  0  0  0
  -29.7589  -11.7363   17.4875 H   0  0  0  0  0  0
  -29.6410  -13.4620   17.7333 H   0  0  0  0  0  0
  -27.8652  -11.2888   18.8880 H   0  0  0  0  0  0
  -27.3661  -12.5567   17.8018 H   0  0  0  0  0  0
  -27.6620  -14.2560   19.5047 H   0  0  0  0  0  0
  -28.7116  -12.1106   21.4136 H   0  0  0  0  0  0
  -28.4546  -13.7874   21.8164 H   0  0  0  0  0  0
  -25.2772   -9.5683   22.4766 H   0  0  0  0  0  0
  -24.0003   -7.4642   22.7484 H   0  0  0  0  0  0
  -21.0848   -8.8779   19.8959 H   0  0  0  0  0  0
  -22.3708  -10.9678   19.6173 H   0  0  0  0  0  0
  -21.2007   -7.6155   23.9717 H   0  0  0  0  0  0
  -21.1476   -6.0531   25.9075 H   0  0  0  0  0  0
  -22.0600   -2.7615   23.2850 H   0  0  0  0  0  0
  -22.4121  -11.9866   22.4775 H   0  0  0  0  0  0
  -21.1120  -13.1231   22.2644 H   0  0  0  0  0  0
  -24.6569  -15.8442   20.5212 H   0  0  0  0  0  0
  -26.2737  -15.6321   20.0790 H   0  0  0  0  0  0
  -26.7208  -32.5461   23.1141 H   0  0  0  0  0  0
  -25.0124  -33.9742   25.0469 H   0  0  0  0  0  0
  -22.7163  -31.3156   21.4159 H   0  0  0  0  0  0
  -23.3754  -35.9610   23.3307 H   0  0  0  0  0  0
  -24.3569  -36.8895   22.2045 H   0  0  0  0  0  0
  -23.7240  -37.6490   23.6658 H   0  0  0  0  0  0
  -26.1140  -31.5480   20.6254 H   0  0  0  0  0  0
  -26.8498  -30.8243   22.0226 H   0  0  0  0  0  0
  -28.1040  -28.9229   21.2365 H   0  0  0  0  0  0
  -25.8870  -26.0350   18.8616 H   0  0  0  0  0  0
  -23.9577  -27.3923   18.9488 H   0  0  0  0  0  0
  -23.7602  -30.6338   19.4168 H   0  0  0  0  0  0
  -22.7542  -29.2854   19.8521 H   0  0  0  0  0  0
  -25.1284  -36.1932   25.0823 H   0  0  0  0  0  0
  -20.9993  -28.3275   24.1385 H   0  0  0  0  0  0
  -20.5688  -26.2307   23.3606 H   0  0  0  0  0  0
  -21.6649  -26.7439   22.1178 H   0  0  0  0  0  0
  -19.6917  -25.6285   21.1242 H   0  0  0  0  0  0
  -19.6688  -27.3179   20.6730 H   0  0  0  0  0  0
  -17.4195  -26.6677   21.4028 H   0  0  0  0  0  0
  -18.0327  -26.0067   22.9019 H   0  0  0  0  0  0
  -19.7952  -30.7274   24.2246 H   0  0  0  0  0  0
  -17.5032  -31.6270   24.5162 H   0  0  0  0  0  0
  -15.5366  -30.2992   23.7665 H   0  0  0  0  0  0
  -15.8676  -28.0830   22.7077 H   0  0  0  0  0  0
  -24.5912  -30.7074   25.7813 H   0  0  0  0  0  0
  -24.8899  -32.2913   26.4878 H   0  0  0  0  0  0
  -25.8027  -30.8948   27.0279 H   0  0  0  0  0  0
  -26.2958  -29.6773   24.1226 H   0  0  0  0  0  0
  -27.4021  -29.7270   25.4752 H   0  0  0  0  0  0
  -27.8838  -30.4315   23.9505 H   0  0  0  0  0  0
  -27.2673  -33.3669   26.2083 H   0  0  0  0  0  0
  -28.3887  -32.6889   25.0377 H   0  0  0  0  0  0
  -28.0707  -31.8500   26.5485 H   0  0  0  0  0  0
  -28.2585  -38.0099   24.7515 H   0  0  0  0  0  0
  -28.1074  -36.2632   24.6295 H   0  0  0  0  0  0
  -27.2288  -37.1445   25.8869 H   0  0  0  0  0  0
  -20.9386  -29.8829   21.6924 H   0  0  0  0  0  0
  -26.0164  -38.2850   24.1430 H   0  0  0  0  0  0
  -31.1639  -22.1354   21.5380 H   0  0  0  0  0  0
  -27.1609  -19.3739   20.0540 H   0  0  0  0  0  0
  -27.9708  -19.5856   18.4883 H   0  0  0  0  0  0
  -26.8148  -22.7923   17.8513 H   0  0  0  0  0  0
  -25.8488  -22.9847   19.3182 H   0  0  0  0  0  0
  -25.4458  -20.7521   19.5256 H   0  0  0  0  0  0
  -26.5223  -20.5451   16.6585 H   0  0  0  0  0  0
  -24.8821  -21.0108   17.1037 H   0  0  0  0  0  0
  -25.4593  -19.3834   17.4485 H   0  0  0  0  0  0
  -26.9248  -24.7971   20.2485 H   0  0  0  0  0  0
  -27.7573  -24.9988   18.6963 H   0  0  0  0  0  0
  -30.8810  -17.2501   22.0727 H   0  0  0  0  0  0
  -31.4832  -17.2218   20.4474 H   0  0  0  0  0  0
  -28.7166  -18.2949   21.2251 H   0  0  0  0  0  0
  -29.3981  -18.2874   19.6001 H   0  0  0  0  0  0
  -29.0395  -15.6089   21.1509 H   0  0  0  0  0  0
  1 25  1  0  0  0
  1 30  2  0  0  0
  1 84  1  0  0  0
  2  3  1  0  0  0
  2 25  1  0  0  0
  2 86  1  0  0  0
  2 87  1  0  0  0
  3  4  1  0  0  0
  3 88  1  0  0  0
  3 89  1  0  0  0
  4  5  1  0  0  0
  4 90  1  0  0  0
  4 91  1  0  0  0
  5  6  1  0  0  0
  5 26  1  0  0  0
  5 92  1  0  0  0
  6 25  1  0  0  0
  6 93  1  0  0  0
  6 94  1  0  0  0
  7  8  2  0  0  0
  7 26  1  0  0  0
  7 29  1  0  0  0
  8  9  1  0  0  0
  8 22  1  0  0  0
  9 10  1  0  0  0
  9 27  2  0  0  0
 10 11  2  0  0  0
 10 15  1  0  0  0
 11 12  1  0  0  0
 11 95  1  0  0  0
 12 13  2  0  0  0
 12 96  1  0  0  0
 13 14  1  0  0  0
 13 31  1  0  0  0
 14 15  2  0  0  0
 14 97  1  0  0  0
 15 98  1  0  0  0
 16 17  2  0  0  0
 16 21  1  0  0  0
 16 31  1  0  0  0
 17 18  1  0  0  0
 17 99  1  0  0  0
 18 19  2  0  0  0
 18100  1  0  0  0
 19 20  1  0  0  0
 19 24  1  0  0  0
 20 21  2  0  0  0
 20101  1  0  0  0
 21 23  1  0  0  0
 22 28  1  0  0  0
 22 32  2  0  0  0
 26 27  1  0  0  0
 28102  1  0  0  0
 28103  1  0  0  0
 29104  1  0  0  0
 29105  1  0  0  0
 33 34  1  0  0  0
 33 66  1  0  0  0
 33 70  2  0  0  0
 34 36  1  0  0  0
 34 59  1  0  0  0
 34106  1  0  0  0
 35 44  2  0  0  0
 35 45  1  0  0  0
 35 68  1  0  0  0
 36 56  1  0  0  0
 36107  1  0  0  0
 37 39  1  0  0  0
 37 47  1  0  0  0
 37 66  1  0  0  0
 37108  1  0  0  0
 38 43  2  0  0  0
 38 46  1  0  0  0
 38 47  1  0  0  0
 39 64  1  0  0  0
 39 67  2  0  0  0
 40 52  1  0  0  0
 40 53  2  0  0  0
 40 58  1  0  0  0
 41109  1  0  0  0
 41110  1  0  0  0
 41111  1  0  0  0
 41 48  1  0  0  0
 42 43  1  0  0  0
 42 66  1  0  0  0
 42112  1  0  0  0
 42113  1  0  0  0
 43 44  1  0  0  0
 44114  1  0  0  0
 45 46  2  0  0  0
 45115  1  0  0  0
 46116  1  0  0  0
 47117  1  0  0  0
 47118  1  0  0  0
 48 56  1  0  0  0
 48 65  1  0  0  0
 48119  1  0  0  0
 49 50  1  0  0  0
 49 53  1  0  0  0
 49 64  1  0  0  0
 49120  1  0  0  0
 50 51  1  0  0  0
 50121  1  0  0  0
 50122  1  0  0  0
 51 52  1  0  0  0
 51123  1  0  0  0
 51124  1  0  0  0
 52125  1  0  0  0
 52126  1  0  0  0
 53 54  1  0  0  0
 54 55  2  0  0  0
 54127  1  0  0  0
 55 57  1  0  0  0
 55128  1  0  0  0
 56 69  2  0  0  0
 57 58  2  0  0  0
 57129  1  0  0  0
 58130  1  0  0  0
 59 60  1  0  0  0
 59 61  1  0  0  0
 59 62  1  0  0  0
 60131  1  0  0  0
 60132  1  0  0  0
 60133  1  0  0  0
 61134  1  0  0  0
 61135  1  0  0  0
 61136  1  0  0  0
 62137  1  0  0  0
 62138  1  0  0  0
 62139  1  0  0  0
 63 65  1  0  0  0
 63140  1  0  0  0
 63141  1  0  0  0
 63142  1  0  0  0
 64143  1  0  0  0
 65144  1  0  0  0
 68 80  1  0  0  0
 71 74  2  0  0  0
 71 83  1  0  0  0
 71145  1  0  0  0
 72 73  2  0  0  0
 72 74  1  0  0  0
 72 76  1  0  0  0
 73 75  1  0  0  0
 73 77  1  0  0  0
 74 85  1  0  0  0
 75 80  1  0  0  0
 75 83  2  0  0  0
 76 78  1  0  0  0
 76146  1  0  0  0
 76147  1  0  0  0
 77 78  1  0  0  0
 77148  1  0  0  0
 77149  1  0  0  0
 78 79  1  0  0  0
 78150  1  0  0  0
 79151  1  0  0  0
 79152  1  0  0  0
 79153  1  0  0  0
 80154  1  0  0  0
 80155  1  0  0  0
 81 82  1  0  0  0
 81 84  1  0  0  0
 81156  1  0  0  0
 81157  1  0  0  0
 82 85  1  0  0  0
 82158  1  0  0  0
 82159  1  0  0  0
 84160  1  0  0  0
M  ISO  4   1 100  68 101  80 101  84 100
M  END
> <chiral flag>
0

> <version>
0

> <s_m_source_file>
/data/baiqing/PycharmProjects/Reinvent-master-3.2/result/LINK_invent/BTK/process_docking_weight1_custom_sum_contain_oxygen_bond_distance_aromatic_linkinvent_7_9_3/rearranged_h_0148.sdf

> <i_m_source_file_index>
64

> <r_mmod_Potential_Energy-OPLS-2005>
48.2184982299805

> <r_mmod_Stretch_Energy-OPLS-2005>
87.5237503051758

> <r_mmod_Bend_Energy-OPLS-2005>
226.635543823242

> <r_mmod_Torsional_Energy-OPLS-2005>
200.597625732422

> <r_mmod_Improper_Torsional_Energy-OPLS-2005>
3.5910472869873

> <r_mmod_Van_der_Waal_Energy-OPLS-2005>
164.288879394531

> <r_mmod_Electrostatic_Energy-OPLS-2005>
-451.762756347656

> <r_mmod_Solvation_Energy-OPLS-2005>
-241.611282348633

> <b_mmod_Minimization_Converged-OPLS-2005>
0

> <r_mmod_RMS_Derivative-OPLS-2005>
1.25370168685913

$$$$
64
                    3D
 Structure written by MMmdl.
159168  0  0  1  0            999 V2000
  -30.4275  -15.1105   20.4005 C   0  0  0  0  0  0
  -30.4622  -12.6931   19.5092 C   0  0  0  0  0  0
  -29.5422  -12.5685   18.2666 C   0  0  0  0  0  0
  -28.0736  -12.3318   18.6725 C   0  0  0  0  0  0
  -27.6290  -13.2608   19.8299 C   0  0  2  0  0  0
  -28.6692  -13.3164   20.9667 C   0  0  0  0  0  0
  -25.2469  -13.8245   20.5697 C   0  0  0  0  0  0
  -24.1793  -13.0454   20.9205 C   0  0  0  0  0  0
  -24.6427  -11.6946   20.8742 C   0  0  0  0  0  0
  -23.9114  -10.4318   21.0418 C   0  0  0  0  0  0
  -24.3663   -9.4229   21.9190 C   0  0  0  0  0  0
  -23.6314   -8.2273   22.0751 C   0  0  0  0  0  0
  -22.4294   -8.0318   21.3550 C   0  0  0  0  0  0
  -21.9949   -9.0290   20.4641 C   0  0  0  0  0  0
  -22.7293  -10.2157   20.3052 C   0  0  0  0  0  0
  -21.6863   -6.0762   22.5282 C   0  0  0  0  0  0
  -21.4031   -6.5653   23.8222 C   0  0  0  0  0  0
  -21.3669   -5.6795   24.9179 C   0  0  0  0  0  0
  -21.6044   -4.3050   24.7218 C   0  0  0  0  0  0
  -21.8813   -3.8157   23.4326 C   0  0  0  0  0  0
  -21.9192   -4.6988   22.3392 C   0  0  0  0  0  0
  -22.7805  -13.5218   21.1864 C   0  0  0  0  0  0
  -22.1651   -4.2181   21.0961 F   0  0  0  0  0  0
  -21.5637   -3.4523   25.7721 F   0  0  0  0  0  0
  -29.9318  -13.7897   20.3818 N   0  0  0  0  0  0
  -26.2899  -12.9490   20.3181 N   0  0  0  0  0  0
  -25.9364  -11.6614   20.5690 N   0  0  0  0  0  0
  -22.0433  -12.8230   22.0424 N   0  0  0  0  0  0
  -25.4108  -15.1988   20.4193 N   0  0  0  0  0  0
  -31.6223  -15.2107   20.0879 O   0  0  0  0  0  0
  -21.6647   -6.8923   21.4249 O   0  0  0  0  0  0
  -22.3478  -14.5511   20.6687 O   0  0  0  0  0  0
  -24.6541  -31.8340   23.1772 C   0  0  0  0  0  0
  -25.9266  -32.4637   23.8208 C   0  0  1  0  0  0
  -27.2133  -27.0213   20.1675 C   0  0  0  0  0  0
  -25.5977  -33.8449   24.2130 N   0  0  0  0  0  0
  -23.4633  -30.4485   21.5259 C   0  0  2  0  0  0
  -24.9120  -28.8520   20.1105 C   0  0  0  0  0  0
  -22.7620  -29.4492   22.4808 C   0  0  0  0  0  0
  -18.0319  -28.1392   22.8462 C   0  0  0  0  0  0
  -24.1491  -36.7235   23.2642 C   0  0  0  0  0  0
  -26.0261  -30.6689   21.3915 C   0  0  0  0  0  0
  -26.0937  -29.2683   20.7342 C   0  0  0  0  0  0
  -27.2430  -28.3729   20.7387 C   0  0  0  0  0  0
  -26.0006  -26.7286   19.5053 C   0  0  0  0  0  0
  -24.8847  -27.5990   19.4769 C   0  0  0  0  0  0
  -23.6962  -29.7722   20.1479 C   0  0  0  0  0  0
  -25.4128  -36.3003   24.0306 C   0  0  1  0  0  0
  -20.5939  -28.3734   23.1204 C   0  0  2  0  0  0
  -20.6799  -26.9424   22.5401 C   0  0  0  0  0  0
  -19.5776  -26.6367   21.5210 C   0  0  0  0  0  0
  -18.1956  -26.7925   22.1614 C   0  0  0  0  0  0
  -19.1577  -28.8884   23.2820 C   0  0  0  0  0  0
  -18.9485  -30.1476   23.8858 C   0  0  0  0  0  0
  -17.6481  -30.6585   24.0554 C   0  0  0  0  0  0
  -25.9094  -34.9378   23.5036 C   0  0  0  0  0  0
  -16.5374  -29.9074   23.6332 C   0  0  0  0  0  0
  -16.7303  -28.6491   23.0353 C   0  0  0  0  0  0
  -26.4535  -31.6538   25.0700 C   0  0  0  0  0  0
  -25.3682  -31.3758   26.1372 C   0  0  0  0  0  0
  -27.0419  -30.2917   24.6358 C   0  0  0  0  0  0
  -27.6041  -32.4316   25.7513 C   0  0  0  0  0  0
  -27.5576  -37.1779   24.8462 C   0  0  0  0  0  0
  -21.4302  -29.3044   22.3565 N   0  0  0  0  0  0
  -26.4286  -37.3725   23.9408 N   0  0  0  0  0  0
  -24.7357  -31.0080   22.0864 N   0  0  0  0  0  0
  -23.4206  -28.8055   23.3013 O   0  0  0  0  0  0
  -28.2463  -25.9802   20.2306 O   0  0  0  0  0  0
  -26.5686  -34.8899   22.4621 O   0  0  0  0  0  0
  -23.5636  -32.1282   23.6916 O   0  0  0  0  0  0
  -28.5890  -20.4118   19.4201 C   0  0  0  0  0  0
  -29.8905  -20.6207   21.3185 C   0  0  0  0  0  0
  -28.7736  -18.9344   19.4449 C   0  0  0  0  0  0
  -29.1162  -21.3834   20.3584 C   0  0  0  0  0  0
  -29.5427  -18.1932   20.4477 C   0  0  0  0  0  0
  -30.0909  -19.1655   21.3678 C   0  0  0  0  0  0
  -27.5432  -18.6695   17.0730 C   0  0  0  0  0  0
  -26.6199  -18.1552   18.1539 C   0  0  0  0  0  0
  -28.1137  -18.1084   18.3619 C   0  0  0  0  0  0
  -30.2073  -23.4069   19.1772 C   0  0  0  0  0  0
  -29.4855  -16.4997   20.7380 C   0  0  0  0  0  0
  -28.0029  -24.3884   20.1516 C   0  0  0  0  0  0
  -29.1724  -23.0980   20.2654 C   0  0  1  0  0  0
  -30.8644  -18.6921   22.3855 O   0  0  0  0  0  0
  -31.4840  -12.8996   19.1877 H   0  0  0  0  0  0
  -30.5085  -11.7485   20.0529 H   0  0  0  0  0  0
  -29.8875  -11.7634   17.6161 H   0  0  0  0  0  0
  -29.6100  -13.4860   17.6804 H   0  0  0  0  0  0
  -27.9736  -11.2886   18.9723 H   0  0  0  0  0  0
  -27.4190  -12.4674   17.8111 H   0  0  0  0  0  0
  -27.5772  -14.2578   19.3922 H   0  0  0  0  0  0
  -28.7904  -12.3386   21.4329 H   0  0  0  0  0  0
  -28.3410  -13.9975   21.7525 H   0  0  0  0  0  0
  -25.2815   -9.5703   22.4752 H   0  0  0  0  0  0
  -24.0036   -7.4671   22.7463 H   0  0  0  0  0  0
  -21.0883   -8.8821   19.8938 H   0  0  0  0  0  0
  -22.3776  -10.9700   19.6153 H   0  0  0  0  0  0
  -21.2024   -7.6161   23.9739 H   0  0  0  0  0  0
  -21.1500   -6.0515   25.9088 H   0  0  0  0  0  0
  -22.0576   -2.7621   23.2803 H   0  0  0  0  0  0
  -22.4032  -11.9934   22.4905 H   0  0  0  0  0  0
  -21.1024  -13.1251   22.2531 H   0  0  0  0  0  0
  -24.6429  -15.8474   20.5552 H   0  0  0  0  0  0
  -26.2573  -15.6502   20.1010 H   0  0  0  0  0  0
  -26.7341  -32.5200   23.0935 H   0  0  0  0  0  0
  -25.0099  -33.9539   25.0263 H   0  0  0  0  0  0
  -22.7715  -31.2775   21.3641 H   0  0  0  0  0  0
  -23.3771  -35.9550   23.3269 H   0  0  0  0  0  0
  -24.3575  -36.8910   22.2065 H   0  0  0  0  0  0
  -23.7226  -37.6407   23.6713 H   0  0  0  0  0  0
  -26.1941  -31.4144   20.6132 H   0  0  0  0  0  0
  -26.8913  -30.7225   22.0401 H   0  0  0  0  0  0
  -28.1413  -28.6906   21.2477 H   0  0  0  0  0  0
  -25.8830  -25.7701   19.0219 H   0  0  0  0  0  0
  -23.9839  -27.2721   18.9752 H   0  0  0  0  0  0
  -23.8492  -30.5472   19.3957 H   0  0  0  0  0  0
  -22.8054  -29.2282   19.8287 H   0  0  0  0  0  0
  -25.1316  -36.1818   25.0797 H   0  0  0  0  0  0
  -21.0025  -28.3332   24.1326 H   0  0  0  0  0  0
  -20.5672  -26.2353   23.3633 H   0  0  0  0  0  0
  -21.6663  -26.7405   22.1210 H   0  0  0  0  0  0
  -19.6934  -25.6263   21.1272 H   0  0  0  0  0  0
  -19.6719  -27.3147   20.6713 H   0  0  0  0  0  0
  -17.4226  -26.6670   21.4017 H   0  0  0  0  0  0
  -18.0354  -26.0076   22.9018 H   0  0  0  0  0  0
  -19.7967  -30.7299   24.2204 H   0  0  0  0  0  0
  -17.5037  -31.6257   24.5166 H   0  0  0  0  0  0
  -15.5371  -30.2961   23.7676 H   0  0  0  0  0  0
  -15.8706  -28.0798   22.7083 H   0  0  0  0  0  0
  -24.5881  -30.7087   25.7679 H   0  0  0  0  0  0
  -24.8857  -32.2956   26.4691 H   0  0  0  0  0  0
  -25.7935  -30.8997   27.0218 H   0  0  0  0  0  0
  -26.3058  -29.6601   24.1376 H   0  0  0  0  0  0
  -27.4006  -29.7252   25.4961 H   0  0  0  0  0  0
  -27.8972  -30.4116   23.9708 H   0  0  0  0  0  0
  -27.2619  -33.3651   26.1994 H   0  0  0  0  0  0
  -28.3923  -32.6818   25.0397 H   0  0  0  0  0  0
  -28.0636  -31.8507   26.5522 H   0  0  0  0  0  0
  -28.2563  -38.0102   24.7525 H   0  0  0  0  0  0
  -28.1107  -36.2633   24.6272 H   0  0  0  0  0  0
  -27.2302  -37.1392   25.8865 H   0  0  0  0  0  0
  -20.9529  -29.8763   21.6742 H   0  0  0  0  0  0
  -26.0145  -38.2790   24.1417 H   0  0  0  0  0  0
  -28.0147  -20.8414   18.6139 H   0  0  0  0  0  0
  -30.4050  -21.1967   22.0741 H   0  0  0  0  0  0
  -27.5597  -19.7397   16.8890 H   0  0  0  0  0  0
  -27.6289  -18.0572   16.1771 H   0  0  0  0  0  0
  -26.1046  -17.2168   17.9577 H   0  0  0  0  0  0
  -26.0495  -18.8945   18.7133 H   0  0  0  0  0  0
  -28.6087  -17.1463   18.2492 H   0  0  0  0  0  0
  -31.1382  -22.8647   19.3504 H   0  0  0  0  0  0
  -30.4480  -24.4700   19.1490 H   0  0  0  0  0  0
  -29.8322  -23.1236   18.1931 H   0  0  0  0  0  0
  -28.4961  -16.2187   20.3861 H   0  0  0  0  0  0
  -29.3765  -16.4405   21.8207 H   0  0  0  0  0  0
  -27.2491  -24.1853   20.9118 H   0  0  0  0  0  0
  -27.4850  -24.2191   19.2076 H   0  0  0  0  0  0
  -29.6596  -23.3395   21.2111 H   0  0  0  0  0  0
  -31.1771  -17.8066   22.2269 H   0  0  0  0  0  0
  1 25  1  0  0  0
  1 30  2  0  0  0
  1 81  1  0  0  0
  2  3  1  0  0  0
  2 25  1  0  0  0
  2 85  1  0  0  0
  2 86  1  0  0  0
  3  4  1  0  0  0
  3 87  1  0  0  0
  3 88  1  0  0  0
  4  5  1  0  0  0
  4 89  1  0  0  0
  4 90  1  0  0  0
  5  6  1  0  0  0
  5 26  1  0  0  0
  5 91  1  0  0  0
  6 25  1  0  0  0
  6 92  1  0  0  0
  6 93  1  0  0  0
  7  8  2  0  0  0
  7 26  1  0  0  0
  7 29  1  0  0  0
  8  9  1  0  0  0
  8 22  1  0  0  0
  9 10  1  0  0  0
  9 27  2  0  0  0
 10 11  2  0  0  0
 10 15  1  0  0  0
 11 12  1  0  0  0
 11 94  1  0  0  0
 12 13  2  0  0  0
 12 95  1  0  0  0
 13 14  1  0  0  0
 13 31  1  0  0  0
 14 15  2  0  0  0
 14 96  1  0  0  0
 15 97  1  0  0  0
 16 17  2  0  0  0
 16 21  1  0  0  0
 16 31  1  0  0  0
 17 18  1  0  0  0
 17 98  1  0  0  0
 18 19  2  0  0  0
 18 99  1  0  0  0
 19 20  1  0  0  0
 19 24  1  0  0  0
 20 21  2  0  0  0
 20100  1  0  0  0
 21 23  1  0  0  0
 22 28  1  0  0  0
 22 32  2  0  0  0
 26 27  1  0  0  0
 28101  1  0  0  0
 28102  1  0  0  0
 29103  1  0  0  0
 29104  1  0  0  0
 33 34  1  0  0  0
 33 66  1  0  0  0
 33 70  2  0  0  0
 34 36  1  0  0  0
 34 59  1  0  0  0
 34105  1  0  0  0
 35 44  2  0  0  0
 35 45  1  0  0  0
 35 68  1  0  0  0
 36 56  1  0  0  0
 36106  1  0  0  0
 37 39  1  0  0  0
 37 47  1  0  0  0
 37 66  1  0  0  0
 37107  1  0  0  0
 38 43  2  0  0  0
 38 46  1  0  0  0
 38 47  1  0  0  0
 39 64  1  0  0  0
 39 67  2  0  0  0
 40 52  1  0  0  0
 40 53  2  0  0  0
 40 58  1  0  0  0
 41108  1  0  0  0
 41109  1  0  0  0
 41110  1  0  0  0
 41 48  1  0  0  0
 42 43  1  0  0  0
 42 66  1  0  0  0
 42111  1  0  0  0
 42112  1  0  0  0
 43 44  1  0  0  0
 44113  1  0  0  0
 45 46  2  0  0  0
 45114  1  0  0  0
 46115  1  0  0  0
 47116  1  0  0  0
 47117  1  0  0  0
 48 56  1  0  0  0
 48 65  1  0  0  0
 48118  1  0  0  0
 49 50  1  0  0  0
 49 53  1  0  0  0
 49 64  1  0  0  0
 49119  1  0  0  0
 50 51  1  0  0  0
 50120  1  0  0  0
 50121  1  0  0  0
 51 52  1  0  0  0
 51122  1  0  0  0
 51123  1  0  0  0
 52124  1  0  0  0
 52125  1  0  0  0
 53 54  1  0  0  0
 54 55  2  0  0  0
 54126  1  0  0  0
 55 57  1  0  0  0
 55127  1  0  0  0
 56 69  2  0  0  0
 57 58  2  0  0  0
 57128  1  0  0  0
 58129  1  0  0  0
 59 60  1  0  0  0
 59 61  1  0  0  0
 59 62  1  0  0  0
 60130  1  0  0  0
 60131  1  0  0  0
 60132  1  0  0  0
 61133  1  0  0  0
 61134  1  0  0  0
 61135  1  0  0  0
 62136  1  0  0  0
 62137  1  0  0  0
 62138  1  0  0  0
 63 65  1  0  0  0
 63139  1  0  0  0
 63140  1  0  0  0
 63141  1  0  0  0
 64142  1  0  0  0
 65143  1  0  0  0
 68 82  1  0  0  0
 71 73  2  0  0  0
 71 74  1  0  0  0
 71144  1  0  0  0
 72 74  2  0  0  0
 72 76  1  0  0  0
 72145  1  0  0  0
 73 75  1  0  0  0
 73 79  1  0  0  0
 74 83  1  0  0  0
 75 76  2  0  0  0
 75 81  1  0  0  0
 76 84  1  0  0  0
 77 78  1  0  0  0
 77 79  1  0  0  0
 77146  1  0  0  0
 77147  1  0  0  0
 78 79  1  0  0  0
 78148  1  0  0  0
 78149  1  0  0  0
 79150  1  0  0  0
 80151  1  0  0  0
 80152  1  0  0  0
 80153  1  0  0  0
 80 83  1  0  0  0
 81154  1  0  0  0
 81155  1  0  0  0
 82 83  1  0  0  0
 82156  1  0  0  0
 82157  1  0  0  0
 83158  1  0  0  0
 84159  1  0  0  0
M  ISO  4   1 100  68 101  81 100  82 101
M  END
> <chiral flag>
0

> <version>
0

> <s_m_source_file>
/data/baiqing/PycharmProjects/Reinvent-master-3.2/result/LINK_invent/BTK/process_docking_weight1_custom_sum_contain_oxygen_bond_distance_aromatic_linkinvent_7_9_3/rearranged_h_0148.sdf

> <i_m_source_file_index>
65

> <r_mmod_Potential_Energy-OPLS-2005>
898.544860839844

> <r_mmod_Stretch_Energy-OPLS-2005>
403.686950683594

> <r_mmod_Bend_Energy-OPLS-2005>
386.691131591797

> <r_mmod_Torsional_Energy-OPLS-2005>
224.772491455078

> <r_mmod_Improper_Torsional_Energy-OPLS-2005>
6.88965272903442

> <r_mmod_Van_der_Waal_Energy-OPLS-2005>
121.659080505371

> <r_mmod_Electrostatic_Energy-OPLS-2005>
-349.537750244141

> <r_mmod_Solvation_Energy-OPLS-2005>
-212.596405029297

> <b_mmod_Minimization_Converged-OPLS-2005>
0

> <r_mmod_RMS_Derivative-OPLS-2005>
2.24645495414734

$$$$
65
                    3D
 Structure written by MMmdl.
170180  0  0  1  0            999 V2000
  -30.7292  -14.4537   20.6520 C   0  0  0  0  0  0
  -30.4219  -12.3287   19.4133 C   0  0  0  0  0  0
  -29.4876  -12.5200   18.2015 C   0  0  0  0  0  0
  -28.0126  -12.3510   18.6147 C   0  0  0  0  0  0
  -27.6602  -13.1828   19.8725 C   0  0  2  0  0  0
  -28.7040  -12.9347   20.9910 C   0  0  0  0  0  0
  -25.2599  -13.8106   20.5657 C   0  0  0  0  0  0
  -24.1835  -13.0418   20.9178 C   0  0  0  0  0  0
  -24.6357  -11.6877   20.8746 C   0  0  0  0  0  0
  -23.9023  -10.4279   21.0418 C   0  0  0  0  0  0
  -24.3586   -9.4198   21.9192 C   0  0  0  0  0  0
  -23.6270   -8.2232   22.0757 C   0  0  0  0  0  0
  -22.4255   -8.0270   21.3544 C   0  0  0  0  0  0
  -21.9884   -9.0240   20.4646 C   0  0  0  0  0  0
  -22.7204  -10.2122   20.3059 C   0  0  0  0  0  0
  -21.6843   -6.0731   22.5280 C   0  0  0  0  0  0
  -21.4005   -6.5639   23.8213 C   0  0  0  0  0  0
  -21.3656   -5.6790   24.9175 C   0  0  0  0  0  0
  -21.6043   -4.3053   24.7224 C   0  0  0  0  0  0
  -21.8818   -3.8145   23.4345 C   0  0  0  0  0  0
  -21.9189   -4.6961   22.3401 C   0  0  0  0  0  0
  -22.7864  -13.5246   21.1847 C   0  0  0  0  0  0
  -22.1656   -4.2149   21.0978 F   0  0  0  0  0  0
  -21.5632   -3.4535   25.7734 F   0  0  0  0  0  0
  -30.0296  -13.2928   20.4609 N   0  0  0  0  0  0
  -26.3003  -12.9222   20.3340 N   0  0  0  0  0  0
  -25.9271  -11.6412   20.5761 N   0  0  0  0  0  0
  -22.0484  -12.8251   22.0395 N   0  0  0  0  0  0
  -25.4332  -15.1817   20.4038 N   0  0  0  0  0  0
  -31.7967  -14.6536   20.0597 O   0  0  0  0  0  0
  -21.6622   -6.8868   21.4241 O   0  0  0  0  0  0
  -22.3569  -14.5565   20.6702 O   0  0  0  0  0  0
  -24.6110  -31.8699   23.2119 C   0  0  0  0  0  0
  -25.9015  -32.4834   23.8408 C   0  0  1  0  0  0
  -27.2417  -27.4622   20.0975 C   0  0  0  0  0  0
  -25.5883  -33.8633   24.2340 N   0  0  0  0  0  0
  -23.3991  -30.4914   21.5510 C   0  0  2  0  0  0
  -24.8495  -28.9551   20.1206 C   0  0  0  0  0  0
  -22.7392  -29.4665   22.5004 C   0  0  0  0  0  0
  -18.0265  -28.1375   22.8497 C   0  0  0  0  0  0
  -24.1479  -36.7320   23.2635 C   0  0  0  0  0  0
  -25.9240  -30.8416   21.3630 C   0  0  0  0  0  0
  -26.0047  -29.4742   20.7200 C   0  0  0  0  0  0
  -27.2047  -28.7313   20.7143 C   0  0  0  0  0  0
  -26.0778  -26.9508   19.4916 C   0  0  0  0  0  0
  -24.8780  -27.6891   19.5074 C   0  0  0  0  0  0
  -23.6084  -29.8183   20.1674 C   0  0  0  0  0  0
  -25.4100  -36.3121   24.0343 C   0  0  1  0  0  0
  -20.5854  -28.3655   23.1328 C   0  0  2  0  0  0
  -20.6755  -26.9396   22.5420 C   0  0  0  0  0  0
  -19.5735  -26.6384   21.5215 C   0  0  0  0  0  0
  -18.1911  -26.7925   22.1619 C   0  0  0  0  0  0
  -19.1514  -28.8830   23.2912 C   0  0  0  0  0  0
  -18.9445  -30.1437   23.8917 C   0  0  0  0  0  0
  -17.6451  -30.6585   24.0563 C   0  0  0  0  0  0
  -25.9029  -34.9486   23.5140 C   0  0  0  0  0  0
  -16.5340  -29.9088   23.6327 C   0  0  0  0  0  0
  -16.7256  -28.6504   23.0350 C   0  0  0  0  0  0
  -26.4459  -31.6601   25.0722 C   0  0  0  0  0  0
  -25.3736  -31.3704   26.1482 C   0  0  0  0  0  0
  -27.0272  -30.3042   24.6070 C   0  0  0  0  0  0
  -27.6054  -32.4304   25.7472 C   0  0  0  0  0  0
  -27.5587  -37.1801   24.8452 C   0  0  0  0  0  0
  -21.4123  -29.3029   22.3739 N   0  0  0  0  0  0
  -26.4280  -37.3810   23.9423 N   0  0  0  0  0  0
  -24.6626  -31.0814   22.1011 N   0  0  0  0  0  0
  -23.4177  -28.8214   23.3041 O   0  0  0  0  0  0
  -28.4021  -26.7326   20.0347 O   0  0  0  0  0  0
  -26.5596  -34.8938   22.4702 O   0  0  0  0  0  0
  -23.5308  -32.1442   23.7524 O   0  0  0  0  0  0
  -30.2117  -20.1152   20.3131 C   0  0  0  0  0  0
  -29.7942  -20.7228   22.6075 C   0  0  0  0  0  0
  -30.0288  -19.7171   21.6520 C   0  0  0  0  0  0
  -30.1303  -21.4893   19.9689 C   0  0  0  0  0  0
  -29.8792  -22.4145   21.0135 C   0  0  0  0  0  0
  -30.8564  -24.7655   21.4415 C   0  0  0  0  0  0
  -30.3146  -26.2014   21.3988 C   0  0  0  0  0  0
  -29.0004  -17.4150   21.2887 C   0  0  0  0  0  0
  -31.4118  -17.5619   21.9511 C   0  0  0  0  0  0
  -28.4682  -24.5895   21.1721 C   0  0  0  0  0  0
  -28.9984  -15.9469   21.7524 C   0  0  0  0  0  0
  -31.3307  -16.0829   22.4071 C   0  0  0  0  0  0
  -30.0355  -18.2440   22.0636 C   0  0  0  0  0  0
  -29.7837  -23.9230   20.7454 C   0  0  2  0  0  0
  -28.7842  -26.0951   21.2524 C   0  0  2  0  0  0
  -30.4637  -21.0198   17.6303 C   0  0  0  0  0  0
  -29.7252  -22.0341   22.3023 N   0  0  0  0  0  0
  -30.3314  -15.3172   21.6336 N   0  0  0  0  0  0
  -30.2780  -21.9621   18.6805 O   0  0  0  0  0  0
  -31.4628  -12.4377   19.1044 H   0  0  0  0  0  0
  -30.3428  -11.3096   19.7955 H   0  0  0  0  0  0
  -29.7387  -11.8064   17.4156 H   0  0  0  0  0  0
  -29.6385  -13.5126   17.7739 H   0  0  0  0  0  0
  -27.8369  -11.2921   18.8094 H   0  0  0  0  0  0
  -27.3552  -12.6201   17.7870 H   0  0  0  0  0  0
  -27.7038  -14.2213   19.5504 H   0  0  0  0  0  0
  -28.7005  -11.8791   21.2666 H   0  0  0  0  0  0
  -28.4543  -13.4430   21.9201 H   0  0  0  0  0  0
  -25.2730   -9.5679   22.4767 H   0  0  0  0  0  0
  -23.9980   -7.4622   22.7475 H   0  0  0  0  0  0
  -21.0815   -8.8754   19.8953 H   0  0  0  0  0  0
  -22.3665  -10.9658   19.6165 H   0  0  0  0  0  0
  -21.1992   -7.6147   23.9717 H   0  0  0  0  0  0
  -21.1482   -6.0520   25.9079 H   0  0  0  0  0  0
  -22.0599   -2.7608   23.2839 H   0  0  0  0  0  0
  -22.4065  -11.9897   22.4785 H   0  0  0  0  0  0
  -21.1109  -13.1301   22.2593 H   0  0  0  0  0  0
  -24.6667  -15.8360   20.5153 H   0  0  0  0  0  0
  -26.2830  -15.6211   20.0744 H   0  0  0  0  0  0
  -26.7088  -32.5565   23.1181 H   0  0  0  0  0  0
  -25.0023  -33.9797   25.0476 H   0  0  0  0  0  0
  -22.6869  -31.3070   21.4101 H   0  0  0  0  0  0
  -23.3759  -35.9632   23.3265 H   0  0  0  0  0  0
  -24.3589  -36.8966   22.2057 H   0  0  0  0  0  0
  -23.7204  -37.6504   23.6667 H   0  0  0  0  0  0
  -26.0280  -31.6040   20.5898 H   0  0  0  0  0  0
  -26.8151  -30.9025   21.9760 H   0  0  0  0  0  0
  -28.1006  -29.1315   21.1685 H   0  0  0  0  0  0
  -26.1038  -25.9840   19.0085 H   0  0  0  0  0  0
  -23.9908  -27.2841   19.0408 H   0  0  0  0  0  0
  -23.7121  -30.5894   19.4032 H   0  0  0  0  0  0
  -22.7351  -29.2318   19.8757 H   0  0  0  0  0  0
  -25.1270  -36.1983   25.0833 H   0  0  0  0  0  0
  -20.9949  -28.3218   24.1449 H   0  0  0  0  0  0
  -20.5653  -26.2265   23.3607 H   0  0  0  0  0  0
  -21.6626  -26.7440   22.1210 H   0  0  0  0  0  0
  -19.6892  -25.6299   21.1231 H   0  0  0  0  0  0
  -19.6682  -27.3208   20.6757 H   0  0  0  0  0  0
  -17.4189  -26.6693   21.4008 H   0  0  0  0  0  0
  -18.0297  -26.0057   22.9000 H   0  0  0  0  0  0
  -19.7924  -30.7240   24.2298 H   0  0  0  0  0  0
  -17.5012  -31.6273   24.5151 H   0  0  0  0  0  0
  -15.5342  -30.2996   23.7641 H   0  0  0  0  0  0
  -15.8657  -28.0832   22.7053 H   0  0  0  0  0  0
  -24.5882  -30.7086   25.7813 H   0  0  0  0  0  0
  -24.8959  -32.2861   26.4975 H   0  0  0  0  0  0
  -25.8089  -30.8828   27.0211 H   0  0  0  0  0  0
  -26.2798  -29.6818   24.1135 H   0  0  0  0  0  0
  -27.4055  -29.7262   25.4511 H   0  0  0  0  0  0
  -27.8631  -30.4360   23.9197 H   0  0  0  0  0  0
  -27.2700  -33.3608   26.2065 H   0  0  0  0  0  0
  -28.3855  -32.6849   25.0286 H   0  0  0  0  0  0
  -28.0726  -31.8409   26.5370 H   0  0  0  0  0  0
  -28.2571  -38.0132   24.7563 H   0  0  0  0  0  0
  -28.1117  -36.2673   24.6187 H   0  0  0  0  0  0
  -27.2324  -37.1337   25.8855 H   0  0  0  0  0  0
  -20.9280  -29.8757   21.6969 H   0  0  0  0  0  0
  -26.0174  -38.2879   24.1468 H   0  0  0  0  0  0
  -30.3974  -19.3571   19.5675 H   0  0  0  0  0  0
  -29.6431  -20.4726   23.6475 H   0  0  0  0  0  0
  -30.9543  -24.4559   22.4829 H   0  0  0  0  0  0
  -31.8363  -24.6637   20.9745 H   0  0  0  0  0  0
  -30.7410  -26.7317   20.5459 H   0  0  0  0  0  0
  -30.5972  -26.7584   22.2929 H   0  0  0  0  0  0
  -28.0053  -17.8401   21.4303 H   0  0  0  0  0  0
  -29.2000  -17.4517   20.2171 H   0  0  0  0  0  0
  -31.7765  -17.6102   20.9243 H   0  0  0  0  0  0
  -32.1417  -18.0937   22.5632 H   0  0  0  0  0  0
  -28.1871  -24.2423   22.1673 H   0  0  0  0  0  0
  -27.6400  -24.3539   20.5035 H   0  0  0  0  0  0
  -28.2341  -15.4541   21.1698 H   0  0  0  0  0  0
  -28.6697  -15.8810   22.7906 H   0  0  0  0  0  0
  -31.0573  -16.0376   23.4623 H   0  0  0  0  0  0
  -32.3196  -15.6237   22.3482 H   0  0  0  0  0  0
  -29.7463  -18.2096   23.1160 H   0  0  0  0  0  0
  -29.8870  -24.1009   19.6749 H   0  0  0  0  0  0
  -28.2869  -26.5394   22.1178 H   0  0  0  0  0  0
  -30.5243  -21.5474   16.6783 H   0  0  0  0  0  0
  -29.6269  -20.3230   17.5630 H   0  0  0  0  0  0
  -31.3919  -20.4602   17.7533 H   0  0  0  0  0  0
  1 25  1  0  0  0
  1 30  2  0  0  0
  1 88  1  0  0  0
  2  3  1  0  0  0
  2 25  1  0  0  0
  2 90  1  0  0  0
  2 91  1  0  0  0
  3  4  1  0  0  0
  3 92  1  0  0  0
  3 93  1  0  0  0
  4  5  1  0  0  0
  4 94  1  0  0  0
  4 95  1  0  0  0
  5  6  1  0  0  0
  5 26  1  0  0  0
  5 96  1  0  0  0
  6 25  1  0  0  0
  6 97  1  0  0  0
  6 98  1  0  0  0
  7  8  2  0  0  0
  7 26  1  0  0  0
  7 29  1  0  0  0
  8  9  1  0  0  0
  8 22  1  0  0  0
  9 10  1  0  0  0
  9 27  2  0  0  0
 10 11  2  0  0  0
 10 15  1  0  0  0
 11 12  1  0  0  0
 11 99  1  0  0  0
 12 13  2  0  0  0
 12100  1  0  0  0
 13 14  1  0  0  0
 13 31  1  0  0  0
 14 15  2  0  0  0
 14101  1  0  0  0
 15102  1  0  0  0
 16 17  2  0  0  0
 16 21  1  0  0  0
 16 31  1  0  0  0
 17 18  1  0  0  0
 17103  1  0  0  0
 18 19  2  0  0  0
 18104  1  0  0  0
 19 20  1  0  0  0
 19 24  1  0  0  0
 20 21  2  0  0  0
 20105  1  0  0  0
 21 23  1  0  0  0
 22 28  1  0  0  0
 22 32  2  0  0  0
 26 27  1  0  0  0
 28106  1  0  0  0
 28107  1  0  0  0
 29108  1  0  0  0
 29109  1  0  0  0
 33 34  1  0  0  0
 33 66  1  0  0  0
 33 70  2  0  0  0
 34 36  1  0  0  0
 34 59  1  0  0  0
 34110  1  0  0  0
 35 44  2  0  0  0
 35 45  1  0  0  0
 35 68  1  0  0  0
 36 56  1  0  0  0
 36111  1  0  0  0
 37 39  1  0  0  0
 37 47  1  0  0  0
 37 66  1  0  0  0
 37112  1  0  0  0
 38 43  2  0  0  0
 38 46  1  0  0  0
 38 47  1  0  0  0
 39 64  1  0  0  0
 39 67  2  0  0  0
 40 52  1  0  0  0
 40 53  2  0  0  0
 40 58  1  0  0  0
 41113  1  0  0  0
 41114  1  0  0  0
 41115  1  0  0  0
 41 48  1  0  0  0
 42 43  1  0  0  0
 42 66  1  0  0  0
 42116  1  0  0  0
 42117  1  0  0  0
 43 44  1  0  0  0
 44118  1  0  0  0
 45 46  2  0  0  0
 45119  1  0  0  0
 46120  1  0  0  0
 47121  1  0  0  0
 47122  1  0  0  0
 48 56  1  0  0  0
 48 65  1  0  0  0
 48123  1  0  0  0
 49 50  1  0  0  0
 49 53  1  0  0  0
 49 64  1  0  0  0
 49124  1  0  0  0
 50 51  1  0  0  0
 50125  1  0  0  0
 50126  1  0  0  0
 51 52  1  0  0  0
 51127  1  0  0  0
 51128  1  0  0  0
 52129  1  0  0  0
 52130  1  0  0  0
 53 54  1  0  0  0
 54 55  2  0  0  0
 54131  1  0  0  0
 55 57  1  0  0  0
 55132  1  0  0  0
 56 69  2  0  0  0
 57 58  2  0  0  0
 57133  1  0  0  0
 58134  1  0  0  0
 59 60  1  0  0  0
 59 61  1  0  0  0
 59 62  1  0  0  0
 60135  1  0  0  0
 60136  1  0  0  0
 60137  1  0  0  0
 61138  1  0  0  0
 61139  1  0  0  0
 61140  1  0  0  0
 62141  1  0  0  0
 62142  1  0  0  0
 62143  1  0  0  0
 63 65  1  0  0  0
 63144  1  0  0  0
 63145  1  0  0  0
 63146  1  0  0  0
 64147  1  0  0  0
 65148  1  0  0  0
 68 85  1  0  0  0
 71 73  2  0  0  0
 71 74  1  0  0  0
 71149  1  0  0  0
 72 73  1  0  0  0
 72 87  2  0  0  0
 72150  1  0  0  0
 73 83  1  0  0  0
 74 75  2  0  0  0
 74 89  1  0  0  0
 75 87  1  0  0  0
 75 84  1  0  0  0
 76 77  1  0  0  0
 76 84  1  0  0  0
 76151  1  0  0  0
 76152  1  0  0  0
 77 85  1  0  0  0
 77153  1  0  0  0
 77154  1  0  0  0
 78 81  1  0  0  0
 78 83  1  0  0  0
 78155  1  0  0  0
 78156  1  0  0  0
 79 82  1  0  0  0
 79 83  1  0  0  0
 79157  1  0  0  0
 79158  1  0  0  0
 80 84  1  0  0  0
 80 85  1  0  0  0
 80159  1  0  0  0
 80160  1  0  0  0
 81 88  1  0  0  0
 81161  1  0  0  0
 81162  1  0  0  0
 82 88  1  0  0  0
 82163  1  0  0  0
 82164  1  0  0  0
 83165  1  0  0  0
 84166  1  0  0  0
 85167  1  0  0  0
 86 89  1  0  0  0
 86168  1  0  0  0
 86169  1  0  0  0
 86170  1  0  0  0
M  ISO  4   1 100  68 101  85 101  88 100
M  END
> <chiral flag>
0

> <version>
0

> <s_m_source_file>
/data/baiqing/PycharmProjects/Reinvent-master-3.2/result/LINK_invent/BTK/process_docking_weight1_custom_sum_contain_oxygen_bond_distance_aromatic_linkinvent_7_9_3/rearranged_h_0148.sdf

> <i_m_source_file_index>
66

> <r_mmod_Potential_Energy-OPLS-2005>
107.929962158203

> <r_mmod_Stretch_Energy-OPLS-2005>
40.2701110839844

> <r_mmod_Bend_Energy-OPLS-2005>
135.480102539062

> <r_mmod_Torsional_Energy-OPLS-2005>
359.160766601562

> <r_mmod_Improper_Torsional_Energy-OPLS-2005>
4.8459267616272

> <r_mmod_Van_der_Waal_Energy-OPLS-2005>
167.473114013672

> <r_mmod_Electrostatic_Energy-OPLS-2005>
-399.568389892578

> <r_mmod_Solvation_Energy-OPLS-2005>
-208.702453613281

> <b_mmod_Minimization_Converged-OPLS-2005>
0

> <r_mmod_RMS_Derivative-OPLS-2005>
0.662050366401672

$$$$
66
                    3D
 Structure written by MMmdl.
168177  0  0  1  0            999 V2000
  -30.6915  -14.5266   20.4396 C   0  0  0  0  0  0
  -30.4192  -12.2987   19.4352 C   0  0  0  0  0  0
  -29.4931  -12.4249   18.2083 C   0  0  0  0  0  0
  -28.0086  -12.3303   18.6236 C   0  0  0  0  0  0
  -27.6456  -13.1966   19.8629 C   0  0  2  0  0  0
  -28.7038  -13.0685   20.9813 C   0  0  0  0  0  0
  -25.2562  -13.8098   20.5729 C   0  0  0  0  0  0
  -24.1800  -13.0393   20.9218 C   0  0  0  0  0  0
  -24.6354  -11.6861   20.8785 C   0  0  0  0  0  0
  -23.9024  -10.4259   21.0443 C   0  0  0  0  0  0
  -24.3582   -9.4168   21.9213 C   0  0  0  0  0  0
  -23.6257   -8.2202   22.0755 C   0  0  0  0  0  0
  -22.4241   -8.0255   21.3531 C   0  0  0  0  0  0
  -21.9878   -9.0237   20.4645 C   0  0  0  0  0  0
  -22.7212  -10.2118   20.3071 C   0  0  0  0  0  0
  -21.6827   -6.0723   22.5272 C   0  0  0  0  0  0
  -21.3985   -6.5632   23.8204 C   0  0  0  0  0  0
  -21.3640   -5.6788   24.9167 C   0  0  0  0  0  0
  -21.6044   -4.3055   24.7220 C   0  0  0  0  0  0
  -21.8832   -3.8145   23.4346 C   0  0  0  0  0  0
  -21.9189   -4.6954   22.3399 C   0  0  0  0  0  0
  -22.7828  -13.5221   21.1868 C   0  0  0  0  0  0
  -22.1653   -4.2142   21.0970 F   0  0  0  0  0  0
  -21.5644   -3.4545   25.7739 F   0  0  0  0  0  0
  -30.0202  -13.3431   20.3879 N   0  0  0  0  0  0
  -26.2961  -12.9227   20.3401 N   0  0  0  0  0  0
  -25.9281  -11.6408   20.5841 N   0  0  0  0  0  0
  -22.0447  -12.8232   22.0423 N   0  0  0  0  0  0
  -25.4323  -15.1809   20.4128 N   0  0  0  0  0  0
  -31.8969  -14.6200   20.1926 O   0  0  0  0  0  0
  -21.6593   -6.8857   21.4230 O   0  0  0  0  0  0
  -22.3532  -14.5533   20.6721 O   0  0  0  0  0  0
  -24.6163  -31.8657   23.2091 C   0  0  0  0  0  0
  -25.9058  -32.4803   23.8389 C   0  0  1  0  0  0
  -27.2384  -27.4179   20.0915 C   0  0  0  0  0  0
  -25.5917  -33.8604   24.2327 N   0  0  0  0  0  0
  -23.4047  -30.4886   21.5499 C   0  0  2  0  0  0
  -24.8510  -28.9525   20.1105 C   0  0  0  0  0  0
  -22.7416  -29.4645   22.4994 C   0  0  0  0  0  0
  -18.0268  -28.1372   22.8508 C   0  0  0  0  0  0
  -24.1473  -36.7283   23.2640 C   0  0  0  0  0  0
  -25.9349  -30.8239   21.3664 C   0  0  0  0  0  0
  -26.0099  -29.4560   20.7147 C   0  0  0  0  0  0
  -27.1998  -28.6912   20.7110 C   0  0  0  0  0  0
  -26.0590  -26.9322   19.4851 C   0  0  0  0  0  0
  -24.8716  -27.6895   19.4945 C   0  0  0  0  0  0
  -23.6130  -29.8202   20.1634 C   0  0  0  0  0  0
  -25.4095  -36.3091   24.0342 C   0  0  1  0  0  0
  -20.5865  -28.3660   23.1319 C   0  0  2  0  0  0
  -20.6755  -26.9396   22.5423 C   0  0  0  0  0  0
  -19.5727  -26.6384   21.5224 C   0  0  0  0  0  0
  -18.1906  -26.7925   22.1636 C   0  0  0  0  0  0
  -19.1522  -28.8836   23.2910 C   0  0  0  0  0  0
  -18.9445  -30.1444   23.8922 C   0  0  0  0  0  0
  -17.6444  -30.6579   24.0577 C   0  0  0  0  0  0
  -25.9042  -34.9464   23.5134 C   0  0  0  0  0  0
  -16.5336  -29.9083   23.6326 C   0  0  0  0  0  0
  -16.7257  -28.6494   23.0361 C   0  0  0  0  0  0
  -26.4483  -31.6586   25.0725 C   0  0  0  0  0  0
  -25.3747  -31.3682   26.1464 C   0  0  0  0  0  0
  -27.0305  -30.3024   24.6107 C   0  0  0  0  0  0
  -27.6061  -32.4304   25.7487 C   0  0  0  0  0  0
  -27.5574  -37.1784   24.8469 C   0  0  0  0  0  0
  -21.4145  -29.3029   22.3733 N   0  0  0  0  0  0
  -26.4272  -37.3787   23.9430 N   0  0  0  0  0  0
  -24.6698  -31.0745   22.0996 N   0  0  0  0  0  0
  -23.4184  -28.8195   23.3045 O   0  0  0  0  0  0
  -28.4126  -26.6860   20.1339 O   0  0  0  0  0  0
  -26.5600  -34.8924   22.4692 O   0  0  0  0  0  0
  -23.5354  -32.1430   23.7473 O   0  0  0  0  0  0
  -26.9907  -22.4299   18.2949 C   0  0  0  0  0  0
  -27.3611  -23.7827   18.3094 C   0  0  0  0  0  0
  -27.5471  -21.5349   19.2223 C   0  0  0  0  0  0
  -28.2767  -24.2780   19.2618 C   0  0  0  0  0  0
  -28.8298  -23.3659   20.2182 C   0  0  0  0  0  0
  -28.4769  -21.9774   20.1921 C   0  0  0  0  0  0
  -29.0002  -18.8617   22.3029 C   0  0  0  0  0  0
  -30.2818  -19.1257   20.1147 C   0  0  0  0  0  0
  -28.9660  -17.3303   22.0821 C   0  0  0  0  0  0
  -31.0779  -17.9319   20.7203 C   0  0  0  0  0  0
  -29.0700  -19.6077   20.9551 C   0  0  2  0  0  0
  -30.2296  -16.7881   21.3626 C   0  0  2  0  0  0
  -29.8303  -23.8517   21.2602 C   0  0  0  0  0  0
  -29.4451  -16.1082   19.1355 C   0  0  0  0  0  0
  -28.7267  -25.7466   19.0906 C   0  0  0  0  0  0
  -29.0467  -21.0734   21.1233 N   0  0  0  0  0  0
  -29.9212  -15.6505   20.4531 N   0  0  0  0  0  0
  -31.4655  -12.3814   19.1328 H   0  0  0  0  0  0
  -30.3147  -11.3148   19.8945 H   0  0  0  0  0  0
  -29.7210  -11.6310   17.4962 H   0  0  0  0  0  0
  -29.6868  -13.3564   17.6782 H   0  0  0  0  0  0
  -27.8056  -11.2817   18.8432 H   0  0  0  0  0  0
  -27.3648  -12.5874   17.7821 H   0  0  0  0  0  0
  -27.6328  -14.2265   19.5293 H   0  0  0  0  0  0
  -28.6897  -12.0669   21.4130 H   0  0  0  0  0  0
  -28.4904  -13.7602   21.7983 H   0  0  0  0  0  0
  -25.2722   -9.5625   22.4807 H   0  0  0  0  0  0
  -23.9957   -7.4579   22.7467 H   0  0  0  0  0  0
  -21.0807   -8.8775   19.8947 H   0  0  0  0  0  0
  -22.3687  -10.9678   19.6189 H   0  0  0  0  0  0
  -21.1946   -7.6132   23.9706 H   0  0  0  0  0  0
  -21.1447   -6.0511   25.9071 H   0  0  0  0  0  0
  -22.0638   -2.7612   23.2853 H   0  0  0  0  0  0
  -22.4028  -11.9862   22.4784 H   0  0  0  0  0  0
  -21.1074  -13.1294   22.2636 H   0  0  0  0  0  0
  -24.6776  -15.8463   20.5356 H   0  0  0  0  0  0
  -26.2998  -15.6139   20.1225 H   0  0  0  0  0  0
  -26.7132  -32.5500   23.1151 H   0  0  0  0  0  0
  -25.0091  -33.9759   25.0489 H   0  0  0  0  0  0
  -22.6943  -31.3060   21.4099 H   0  0  0  0  0  0
  -23.3750  -35.9601   23.3305 H   0  0  0  0  0  0
  -24.3579  -36.8894   22.2056 H   0  0  0  0  0  0
  -23.7200  -37.6479   23.6647 H   0  0  0  0  0  0
  -26.0556  -31.5886   20.5976 H   0  0  0  0  0  0
  -26.8209  -30.8751   21.9876 H   0  0  0  0  0  0
  -28.0926  -29.0774   21.1832 H   0  0  0  0  0  0
  -26.0327  -25.9598   19.0210 H   0  0  0  0  0  0
  -23.9808  -27.2923   19.0270 H   0  0  0  0  0  0
  -23.7180  -30.5955   19.4032 H   0  0  0  0  0  0
  -22.7376  -29.2384   19.8690 H   0  0  0  0  0  0
  -25.1270  -36.1944   25.0835 H   0  0  0  0  0  0
  -20.9960  -28.3220   24.1438 H   0  0  0  0  0  0
  -20.5652  -26.2274   23.3617 H   0  0  0  0  0  0
  -21.6626  -26.7432   22.1213 H   0  0  0  0  0  0
  -19.6886  -25.6301   21.1242 H   0  0  0  0  0  0
  -19.6659  -27.3215   20.6769 H   0  0  0  0  0  0
  -17.4182  -26.6692   21.4031 H   0  0  0  0  0  0
  -18.0291  -26.0050   22.9012 H   0  0  0  0  0  0
  -19.7913  -30.7250   24.2317 H   0  0  0  0  0  0
  -17.4990  -31.6263   24.5169 H   0  0  0  0  0  0
  -15.5338  -30.2991   23.7630 H   0  0  0  0  0  0
  -15.8656  -28.0809   22.7085 H   0  0  0  0  0  0
  -24.5943  -30.7004   25.7805 H   0  0  0  0  0  0
  -24.8908  -32.2822   26.4912 H   0  0  0  0  0  0
  -25.8101  -30.8859   27.0225 H   0  0  0  0  0  0
  -26.2837  -29.6779   24.1188 H   0  0  0  0  0  0
  -27.4105  -29.7265   25.4560 H   0  0  0  0  0  0
  -27.8669  -30.4346   23.9237 H   0  0  0  0  0  0
  -27.2695  -33.3613   26.2060 H   0  0  0  0  0  0
  -28.3869  -32.6846   25.0308 H   0  0  0  0  0  0
  -28.0720  -31.8423   26.5399 H   0  0  0  0  0  0
  -28.2583  -38.0097   24.7565 H   0  0  0  0  0  0
  -28.1081  -36.2636   24.6227 H   0  0  0  0  0  0
  -27.2308  -37.1352   25.8879 H   0  0  0  0  0  0
  -20.9312  -29.8754   21.6960 H   0  0  0  0  0  0
  -26.0155  -38.2855   24.1477 H   0  0  0  0  0  0
  -26.2899  -22.0708   17.5542 H   0  0  0  0  0  0
  -26.9499  -24.4407   17.5558 H   0  0  0  0  0  0
  -27.2290  -20.5072   19.1535 H   0  0  0  0  0  0
  -29.8517  -19.1246   22.9329 H   0  0  0  0  0  0
  -28.1084  -19.1653   22.8523 H   0  0  0  0  0  0
  -29.9233  -18.8652   19.1184 H   0  0  0  0  0  0
  -30.9810  -19.9467   19.9487 H   0  0  0  0  0  0
  -28.0708  -17.0880   21.5080 H   0  0  0  0  0  0
  -28.8410  -16.8199   23.0379 H   0  0  0  0  0  0
  -31.7111  -18.3432   21.5081 H   0  0  0  0  0  0
  -31.7870  -17.5354   19.9924 H   0  0  0  0  0  0
  -28.1723  -19.2864   20.4319 H   0  0  0  0  0  0
  -30.8650  -16.3808   22.1543 H   0  0  0  0  0  0
  -30.0580  -24.9124   21.1772 H   0  0  0  0  0  0
  -30.7702  -23.3081   21.1639 H   0  0  0  0  0  0
  -29.4370  -23.6830   22.2627 H   0  0  0  0  0  0
  -30.2403  -16.6017   18.5768 H   0  0  0  0  0  0
  -28.6104  -16.8006   19.2307 H   0  0  0  0  0  0
  -29.1126  -15.3015   18.4896 H   0  0  0  0  0  0
  -28.3766  -26.1385   18.1343 H   0  0  0  0  0  0
  -29.8122  -25.7401   18.9910 H   0  0  0  0  0  0
  -29.7041  -21.4586   21.7940 H   0  0  0  0  0  0
  1 25  1  0  0  0
  1 30  2  0  0  0
  1 87  1  0  0  0
  2  3  1  0  0  0
  2 25  1  0  0  0
  2 88  1  0  0  0
  2 89  1  0  0  0
  3  4  1  0  0  0
  3 90  1  0  0  0
  3 91  1  0  0  0
  4  5  1  0  0  0
  4 92  1  0  0  0
  4 93  1  0  0  0
  5  6  1  0  0  0
  5 26  1  0  0  0
  5 94  1  0  0  0
  6 25  1  0  0  0
  6 95  1  0  0  0
  6 96  1  0  0  0
  7  8  2  0  0  0
  7 26  1  0  0  0
  7 29  1  0  0  0
  8  9  1  0  0  0
  8 22  1  0  0  0
  9 10  1  0  0  0
  9 27  2  0  0  0
 10 11  2  0  0  0
 10 15  1  0  0  0
 11 12  1  0  0  0
 11 97  1  0  0  0
 12 13  2  0  0  0
 12 98  1  0  0  0
 13 14  1  0  0  0
 13 31  1  0  0  0
 14 15  2  0  0  0
 14 99  1  0  0  0
 15100  1  0  0  0
 16 17  2  0  0  0
 16 21  1  0  0  0
 16 31  1  0  0  0
 17 18  1  0  0  0
 17101  1  0  0  0
 18 19  2  0  0  0
 18102  1  0  0  0
 19 20  1  0  0  0
 19 24  1  0  0  0
 20 21  2  0  0  0
 20103  1  0  0  0
 21 23  1  0  0  0
 22 28  1  0  0  0
 22 32  2  0  0  0
 26 27  1  0  0  0
 28104  1  0  0  0
 28105  1  0  0  0
 29106  1  0  0  0
 29107  1  0  0  0
 33 34  1  0  0  0
 33 66  1  0  0  0
 33 70  2  0  0  0
 34 36  1  0  0  0
 34 59  1  0  0  0
 34108  1  0  0  0
 35 44  2  0  0  0
 35 45  1  0  0  0
 35 68  1  0  0  0
 36 56  1  0  0  0
 36109  1  0  0  0
 37 39  1  0  0  0
 37 47  1  0  0  0
 37 66  1  0  0  0
 37110  1  0  0  0
 38 43  2  0  0  0
 38 46  1  0  0  0
 38 47  1  0  0  0
 39 64  1  0  0  0
 39 67  2  0  0  0
 40 52  1  0  0  0
 40 53  2  0  0  0
 40 58  1  0  0  0
 41111  1  0  0  0
 41112  1  0  0  0
 41113  1  0  0  0
 41 48  1  0  0  0
 42 43  1  0  0  0
 42 66  1  0  0  0
 42114  1  0  0  0
 42115  1  0  0  0
 43 44  1  0  0  0
 44116  1  0  0  0
 45 46  2  0  0  0
 45117  1  0  0  0
 46118  1  0  0  0
 47119  1  0  0  0
 47120  1  0  0  0
 48 56  1  0  0  0
 48 65  1  0  0  0
 48121  1  0  0  0
 49 50  1  0  0  0
 49 53  1  0  0  0
 49 64  1  0  0  0
 49122  1  0  0  0
 50 51  1  0  0  0
 50123  1  0  0  0
 50124  1  0  0  0
 51 52  1  0  0  0
 51125  1  0  0  0
 51126  1  0  0  0
 52127  1  0  0  0
 52128  1  0  0  0
 53 54  1  0  0  0
 54 55  2  0  0  0
 54129  1  0  0  0
 55 57  1  0  0  0
 55130  1  0  0  0
 56 69  2  0  0  0
 57 58  2  0  0  0
 57131  1  0  0  0
 58132  1  0  0  0
 59 60  1  0  0  0
 59 61  1  0  0  0
 59 62  1  0  0  0
 60133  1  0  0  0
 60134  1  0  0  0
 60135  1  0  0  0
 61136  1  0  0  0
 61137  1  0  0  0
 61138  1  0  0  0
 62139  1  0  0  0
 62140  1  0  0  0
 62141  1  0  0  0
 63 65  1  0  0  0
 63142  1  0  0  0
 63143  1  0  0  0
 63144  1  0  0  0
 64145  1  0  0  0
 65146  1  0  0  0
 68 85  1  0  0  0
 71 72  2  0  0  0
 71 73  1  0  0  0
 71147  1  0  0  0
 72 74  1  0  0  0
 72148  1  0  0  0
 73 76  2  0  0  0
 73149  1  0  0  0
 74 75  2  0  0  0
 74 85  1  0  0  0
 75 76  1  0  0  0
 75 83  1  0  0  0
 76 86  1  0  0  0
 77 79  1  0  0  0
 77 81  1  0  0  0
 77150  1  0  0  0
 77151  1  0  0  0
 78 80  1  0  0  0
 78 81  1  0  0  0
 78152  1  0  0  0
 78153  1  0  0  0
 79 82  1  0  0  0
 79154  1  0  0  0
 79155  1  0  0  0
 80 82  1  0  0  0
 80156  1  0  0  0
 80157  1  0  0  0
 81 86  1  0  0  0
 81158  1  0  0  0
 82 87  1  0  0  0
 82159  1  0  0  0
 83160  1  0  0  0
 83161  1  0  0  0
 83162  1  0  0  0
 84 87  1  0  0  0
 84163  1  0  0  0
 84164  1  0  0  0
 84165  1  0  0  0
 85166  1  0  0  0
 85167  1  0  0  0
 86168  1  0  0  0
M  ISO  4   1 100  68 101  85 101  87 100
M  END
> <chiral flag>
0

> <version>
0

> <s_m_source_file>
/data/baiqing/PycharmProjects/Reinvent-master-3.2/result/LINK_invent/BTK/process_docking_weight1_custom_sum_contain_oxygen_bond_distance_aromatic_linkinvent_7_9_3/rearranged_h_0148.sdf

> <i_m_source_file_index>
67

> <r_mmod_Potential_Energy-OPLS-2005>
198.546752929688

> <r_mmod_Stretch_Energy-OPLS-2005>
49.1476020812988

> <r_mmod_Bend_Energy-OPLS-2005>
133.669876098633

> <r_mmod_Torsional_Energy-OPLS-2005>
352.061706542969

> <r_mmod_Improper_Torsional_Energy-OPLS-2005>
12.3860692977905

> <r_mmod_Van_der_Waal_Energy-OPLS-2005>
164.772491455078

> <r_mmod_Electrostatic_Energy-OPLS-2005>
-349.330871582031

> <r_mmod_Solvation_Energy-OPLS-2005>
-191.754364013672

> <b_mmod_Minimization_Converged-OPLS-2005>
0

> <r_mmod_RMS_Derivative-OPLS-2005>
1.58174192905426

$$$$
67
                    3D
 Structure written by MMmdl.
157166  0  0  1  0            999 V2000
  -30.5435  -14.9608   20.4206 C   0  0  0  0  0  0
  -30.4399  -12.5951   19.4811 C   0  0  0  0  0  0
  -29.5137  -12.5288   18.2443 C   0  0  0  0  0  0
  -28.0514  -12.3088   18.6765 C   0  0  0  0  0  0
  -27.6333  -13.2453   19.8369 C   0  0  2  0  0  0
  -28.6815  -13.2811   20.9664 C   0  0  0  0  0  0
  -25.2506  -13.8221   20.5718 C   0  0  0  0  0  0
  -24.1819  -13.0430   20.9233 C   0  0  0  0  0  0
  -24.6444  -11.6928   20.8804 C   0  0  0  0  0  0
  -23.9142  -10.4289   21.0439 C   0  0  0  0  0  0
  -24.3679   -9.4186   21.9211 C   0  0  0  0  0  0
  -23.6330   -8.2232   22.0760 C   0  0  0  0  0  0
  -22.4308   -8.0305   21.3538 C   0  0  0  0  0  0
  -21.9976   -9.0304   20.4647 C   0  0  0  0  0  0
  -22.7330  -10.2163   20.3067 C   0  0  0  0  0  0
  -21.6859   -6.0769   22.5280 C   0  0  0  0  0  0
  -21.4015   -6.5662   23.8214 C   0  0  0  0  0  0
  -21.3642   -5.6801   24.9170 C   0  0  0  0  0  0
  -21.6036   -4.3072   24.7211 C   0  0  0  0  0  0
  -21.8815   -3.8179   23.4327 C   0  0  0  0  0  0
  -21.9181   -4.6998   22.3387 C   0  0  0  0  0  0
  -22.7842  -13.5215   21.1884 C   0  0  0  0  0  0
  -22.1666   -4.2180   21.0972 F   0  0  0  0  0  0
  -21.5619   -3.4551   25.7721 F   0  0  0  0  0  0
  -29.9485  -13.7012   20.3520 N   0  0  0  0  0  0
  -26.2928  -12.9438   20.3285 N   0  0  0  0  0  0
  -25.9376  -11.6575   20.5785 N   0  0  0  0  0  0
  -22.0514  -12.8174   22.0435 N   0  0  0  0  0  0
  -25.4200  -15.1935   20.4129 N   0  0  0  0  0  0
  -31.7623  -15.0166   20.2221 O   0  0  0  0  0  0
  -21.6634   -6.8925   21.4248 O   0  0  0  0  0  0
  -22.3523  -14.5512   20.6736 O   0  0  0  0  0  0
  -24.6431  -31.8435   23.1856 C   0  0  0  0  0  0
  -25.9193  -32.4690   23.8266 C   0  0  1  0  0  0
  -27.2256  -27.1232   20.1265 C   0  0  0  0  0  0
  -25.5939  -33.8502   24.2174 N   0  0  0  0  0  0
  -23.4463  -30.4575   21.5369 C   0  0  2  0  0  0
  -24.8956  -28.8851   20.1035 C   0  0  0  0  0  0
  -22.7551  -29.4508   22.4883 C   0  0  0  0  0  0
  -18.0293  -28.1427   22.8450 C   0  0  0  0  0  0
  -24.1499  -36.7254   23.2646 C   0  0  0  0  0  0
  -26.0018  -30.7077   21.3866 C   0  0  0  0  0  0
  -26.0742  -29.3205   20.7197 C   0  0  0  0  0  0
  -27.2363  -28.4568   20.7139 C   0  0  0  0  0  0
  -26.0156  -26.7879   19.4807 C   0  0  0  0  0  0
  -24.8804  -27.6318   19.4721 C   0  0  0  0  0  0
  -23.6703  -29.7878   20.1548 C   0  0  0  0  0  0
  -25.4144  -36.3021   24.0298 C   0  0  1  0  0  0
  -20.5896  -28.3712   23.1263 C   0  0  2  0  0  0
  -20.6797  -26.9425   22.5419 C   0  0  0  0  0  0
  -19.5776  -26.6393   21.5224 C   0  0  0  0  0  0
  -18.1951  -26.7958   22.1623 C   0  0  0  0  0  0
  -19.1547  -28.8897   23.2832 C   0  0  0  0  0  0
  -18.9463  -30.1511   23.8823 C   0  0  0  0  0  0
  -17.6457  -30.6608   24.0577 C   0  0  0  0  0  0
  -25.9098  -34.9400   23.5051 C   0  0  0  0  0  0
  -16.5348  -29.9091   23.6366 C   0  0  0  0  0  0
  -16.7282  -28.6543   23.0318 C   0  0  0  0  0  0
  -26.4510  -31.6573   25.0722 C   0  0  0  0  0  0
  -25.3695  -31.3745   26.1401 C   0  0  0  0  0  0
  -27.0411  -30.2987   24.6342 C   0  0  0  0  0  0
  -27.6057  -32.4343   25.7500 C   0  0  0  0  0  0
  -27.5573  -37.1791   24.8463 C   0  0  0  0  0  0
  -21.4246  -29.2996   22.3609 N   0  0  0  0  0  0
  -26.4303  -37.3739   23.9384 N   0  0  0  0  0  0
  -24.7181  -31.0231   22.0925 N   0  0  0  0  0  0
  -23.4177  -28.8089   23.3081 O   0  0  0  0  0  0
  -28.2914  -26.1453   20.1945 O   0  0  0  0  0  0
  -26.5680  -34.8886   22.4630 O   0  0  0  0  0  0
  -23.5553  -32.1328   23.7065 O   0  0  0  0  0  0
  -29.2781  -20.4131   20.5438 C   0  0  0  0  0  0
  -29.7742  -20.2725   17.8651 C   0  0  0  0  0  0
  -29.1617  -21.7071   19.7962 C   0  0  0  0  0  0
  -29.6499  -19.0632   20.0034 C   0  0  0  0  0  0
  -29.4681  -21.5391   18.4173 C   0  0  0  0  0  0
  -29.8721  -19.0738   18.6063 C   0  0  0  0  0  0
  -27.5036  -23.7403   20.7606 C   0  0  0  0  0  0
  -28.8857  -23.2523   20.3676 C   0  0  1  0  0  0
  -28.1753  -24.6464   19.7482 C   0  0  2  0  0  0
  -29.5384  -22.7161   17.4551 C   0  0  0  0  0  0
  -30.3132  -17.8211   17.8669 C   0  0  0  0  0  0
  -30.0068  -17.6741   20.8547 C   0  0  0  0  0  0
  -29.7499  -16.1416   20.5092 N   0  0  0  0  0  0
  -31.4738  -12.7483   19.1701 H   0  0  0  0  0  0
  -30.4232  -11.6439   20.0168 H   0  0  0  0  0  0
  -29.8255  -11.7289   17.5710 H   0  0  0  0  0  0
  -29.5888  -13.4573   17.6741 H   0  0  0  0  0  0
  -27.9595  -11.2709   18.9992 H   0  0  0  0  0  0
  -27.3759  -12.4181   17.8270 H   0  0  0  0  0  0
  -27.5909  -14.2420   19.3996 H   0  0  0  0  0  0
  -28.7737  -12.3071   21.4491 H   0  0  0  0  0  0
  -28.3845  -13.9844   21.7455 H   0  0  0  0  0  0
  -25.2826   -9.5618   22.4796 H   0  0  0  0  0  0
  -24.0004   -7.4606   22.7484 H   0  0  0  0  0  0
  -21.0896   -8.8875   19.8958 H   0  0  0  0  0  0
  -22.3846  -10.9725   19.6177 H   0  0  0  0  0  0
  -21.2039   -7.6180   23.9725 H   0  0  0  0  0  0
  -21.1462   -6.0541   25.9065 H   0  0  0  0  0  0
  -22.0614   -2.7639   23.2826 H   0  0  0  0  0  0
  -22.4163  -11.9813   22.4754 H   0  0  0  0  0  0
  -21.1140  -13.1187   22.2680 H   0  0  0  0  0  0
  -24.6598  -15.8527   20.5362 H   0  0  0  0  0  0
  -26.2646  -15.6322   20.0726 H   0  0  0  0  0  0
  -26.7243  -32.5274   23.0976 H   0  0  0  0  0  0
  -24.9978  -33.9667   25.0242 H   0  0  0  0  0  0
  -22.7471  -31.2834   21.3865 H   0  0  0  0  0  0
  -23.3765  -35.9582   23.3310 H   0  0  0  0  0  0
  -24.3568  -36.8912   22.2059 H   0  0  0  0  0  0
  -23.7265  -37.6451   23.6705 H   0  0  0  0  0  0
  -26.1594  -31.4701   20.6227 H   0  0  0  0  0  0
  -26.8681  -30.7536   22.0343 H   0  0  0  0  0  0
  -28.1351  -28.7960   21.2092 H   0  0  0  0  0  0
  -25.9079  -25.8285   18.9982 H   0  0  0  0  0  0
  -23.9754  -27.2922   18.9856 H   0  0  0  0  0  0
  -23.7908  -30.5665   19.4004 H   0  0  0  0  0  0
  -22.7842  -29.2279   19.8526 H   0  0  0  0  0  0
  -25.1341  -36.1854   25.0797 H   0  0  0  0  0  0
  -20.9960  -28.3308   24.1398 H   0  0  0  0  0  0
  -20.5735  -26.2310   23.3624 H   0  0  0  0  0  0
  -21.6667  -26.7473   22.1197 H   0  0  0  0  0  0
  -19.6947  -25.6294   21.1280 H   0  0  0  0  0  0
  -19.6768  -27.3190   20.6746 H   0  0  0  0  0  0
  -17.4233  -26.6672   21.4026 H   0  0  0  0  0  0
  -18.0356  -26.0148   22.9061 H   0  0  0  0  0  0
  -19.7934  -30.7375   24.2132 H   0  0  0  0  0  0
  -17.5005  -31.6282   24.5195 H   0  0  0  0  0  0
  -15.5347  -30.2964   23.7774 H   0  0  0  0  0  0
  -15.8680  -28.0894   22.6996 H   0  0  0  0  0  0
  -24.5869  -30.7125   25.7650 H   0  0  0  0  0  0
  -24.8881  -32.2925   26.4796 H   0  0  0  0  0  0
  -25.7942  -30.8889   27.0198 H   0  0  0  0  0  0
  -26.3060  -29.6687   24.1315 H   0  0  0  0  0  0
  -27.3978  -29.7302   25.4937 H   0  0  0  0  0  0
  -27.8970  -30.4230   23.9710 H   0  0  0  0  0  0
  -27.2662  -33.3641   26.2073 H   0  0  0  0  0  0
  -28.3849  -32.6922   25.0316 H   0  0  0  0  0  0
  -28.0747  -31.8493   26.5424 H   0  0  0  0  0  0
  -28.2596  -38.0072   24.7460 H   0  0  0  0  0  0
  -28.1062  -36.2601   24.6366 H   0  0  0  0  0  0
  -27.2268  -37.1514   25.8858 H   0  0  0  0  0  0
  -20.9470  -29.8658   21.6733 H   0  0  0  0  0  0
  -26.0164  -38.2807   24.1384 H   0  0  0  0  0  0
  -29.1175  -20.4722   21.6113 H   0  0  0  0  0  0
  -30.0015  -20.2301   16.8086 H   0  0  0  0  0  0
  -27.3959  -24.1157   21.7742 H   0  0  0  0  0  0
  -26.6518  -23.1727   20.3946 H   0  0  0  0  0  0
  -29.6800  -23.4494   21.0826 H   0  0  0  0  0  0
  -27.8200  -24.5947   18.7204 H   0  0  0  0  0  0
  -30.2482  -22.5038   16.6537 H   0  0  0  0  0  0
  -29.8887  -23.6277   17.9312 H   0  0  0  0  0  0
  -28.5688  -22.9027   16.9948 H   0  0  0  0  0  0
  -29.6613  -16.9768   18.0820 H   0  0  0  0  0  0
  -31.3327  -17.5570   18.1487 H   0  0  0  0  0  0
  -30.2907  -17.9587   16.7856 H   0  0  0  0  0  0
  -31.0755  -17.7433   21.0637 H   0  0  0  0  0  0
  -29.5452  -17.8098   21.8337 H   0  0  0  0  0  0
  -28.7650  -15.9228   20.4985 H   0  0  0  0  0  0
  1 25  1  0  0  0
  1 30  2  0  0  0
  1 83  1  0  0  0
  2  3  1  0  0  0
  2 25  1  0  0  0
  2 84  1  0  0  0
  2 85  1  0  0  0
  3  4  1  0  0  0
  3 86  1  0  0  0
  3 87  1  0  0  0
  4  5  1  0  0  0
  4 88  1  0  0  0
  4 89  1  0  0  0
  5  6  1  0  0  0
  5 26  1  0  0  0
  5 90  1  0  0  0
  6 25  1  0  0  0
  6 91  1  0  0  0
  6 92  1  0  0  0
  7  8  2  0  0  0
  7 26  1  0  0  0
  7 29  1  0  0  0
  8  9  1  0  0  0
  8 22  1  0  0  0
  9 10  1  0  0  0
  9 27  2  0  0  0
 10 11  2  0  0  0
 10 15  1  0  0  0
 11 12  1  0  0  0
 11 93  1  0  0  0
 12 13  2  0  0  0
 12 94  1  0  0  0
 13 14  1  0  0  0
 13 31  1  0  0  0
 14 15  2  0  0  0
 14 95  1  0  0  0
 15 96  1  0  0  0
 16 17  2  0  0  0
 16 21  1  0  0  0
 16 31  1  0  0  0
 17 18  1  0  0  0
 17 97  1  0  0  0
 18 19  2  0  0  0
 18 98  1  0  0  0
 19 20  1  0  0  0
 19 24  1  0  0  0
 20 21  2  0  0  0
 20 99  1  0  0  0
 21 23  1  0  0  0
 22 28  1  0  0  0
 22 32  2  0  0  0
 26 27  1  0  0  0
 28100  1  0  0  0
 28101  1  0  0  0
 29102  1  0  0  0
 29103  1  0  0  0
 33 34  1  0  0  0
 33 66  1  0  0  0
 33 70  2  0  0  0
 34 36  1  0  0  0
 34 59  1  0  0  0
 34104  1  0  0  0
 35 44  2  0  0  0
 35 45  1  0  0  0
 35 68  1  0  0  0
 36 56  1  0  0  0
 36105  1  0  0  0
 37 39  1  0  0  0
 37 47  1  0  0  0
 37 66  1  0  0  0
 37106  1  0  0  0
 38 43  2  0  0  0
 38 46  1  0  0  0
 38 47  1  0  0  0
 39 64  1  0  0  0
 39 67  2  0  0  0
 40 52  1  0  0  0
 40 53  2  0  0  0
 40 58  1  0  0  0
 41107  1  0  0  0
 41108  1  0  0  0
 41109  1  0  0  0
 41 48  1  0  0  0
 42 43  1  0  0  0
 42 66  1  0  0  0
 42110  1  0  0  0
 42111  1  0  0  0
 43 44  1  0  0  0
 44112  1  0  0  0
 45 46  2  0  0  0
 45113  1  0  0  0
 46114  1  0  0  0
 47115  1  0  0  0
 47116  1  0  0  0
 48 56  1  0  0  0
 48 65  1  0  0  0
 48117  1  0  0  0
 49 50  1  0  0  0
 49 53  1  0  0  0
 49 64  1  0  0  0
 49118  1  0  0  0
 50 51  1  0  0  0
 50119  1  0  0  0
 50120  1  0  0  0
 51 52  1  0  0  0
 51121  1  0  0  0
 51122  1  0  0  0
 52123  1  0  0  0
 52124  1  0  0  0
 53 54  1  0  0  0
 54 55  2  0  0  0
 54125  1  0  0  0
 55 57  1  0  0  0
 55126  1  0  0  0
 56 69  2  0  0  0
 57 58  2  0  0  0
 57127  1  0  0  0
 58128  1  0  0  0
 59 60  1  0  0  0
 59 61  1  0  0  0
 59 62  1  0  0  0
 60129  1  0  0  0
 60130  1  0  0  0
 60131  1  0  0  0
 61132  1  0  0  0
 61133  1  0  0  0
 61134  1  0  0  0
 62135  1  0  0  0
 62136  1  0  0  0
 62137  1  0  0  0
 63 65  1  0  0  0
 63138  1  0  0  0
 63139  1  0  0  0
 63140  1  0  0  0
 64141  1  0  0  0
 65142  1  0  0  0
 68 79  1  0  0  0
 71 73  2  0  0  0
 71 74  1  0  0  0
 71143  1  0  0  0
 72 75  2  0  0  0
 72 76  1  0  0  0
 72144  1  0  0  0
 73 75  1  0  0  0
 73 78  1  0  0  0
 74 76  2  0  0  0
 74 82  1  0  0  0
 75 80  1  0  0  0
 76 81  1  0  0  0
 77 78  1  0  0  0
 77 79  1  0  0  0
 77145  1  0  0  0
 77146  1  0  0  0
 78 79  1  0  0  0
 78147  1  0  0  0
 79148  1  0  0  0
 80149  1  0  0  0
 80150  1  0  0  0
 80151  1  0  0  0
 81152  1  0  0  0
 81153  1  0  0  0
 81154  1  0  0  0
 82 83  1  0  0  0
 82155  1  0  0  0
 82156  1  0  0  0
 83157  1  0  0  0
M  ISO  4   1 100  68 101  79 101  83 100
M  END
> <chiral flag>
0

> <version>
0

> <s_m_source_file>
/data/baiqing/PycharmProjects/Reinvent-master-3.2/result/LINK_invent/BTK/process_docking_weight1_custom_sum_contain_oxygen_bond_distance_aromatic_linkinvent_7_9_3/rearranged_h_0148.sdf

> <i_m_source_file_index>
68

> <r_mmod_Potential_Energy-OPLS-2005>
503.669403076172

> <r_mmod_Stretch_Energy-OPLS-2005>
289.843505859375

> <r_mmod_Bend_Energy-OPLS-2005>
270.345764160156

> <r_mmod_Torsional_Energy-OPLS-2005>
228.508987426758

> <r_mmod_Improper_Torsional_Energy-OPLS-2005>
5.95669794082642

> <r_mmod_Van_der_Waal_Energy-OPLS-2005>
129.86572265625

> <r_mmod_Electrostatic_Energy-OPLS-2005>
-409.528259277344

> <r_mmod_Solvation_Energy-OPLS-2005>
-211.689178466797

> <b_mmod_Minimization_Converged-OPLS-2005>
0

> <r_mmod_RMS_Derivative-OPLS-2005>
3.83401942253113

$$$$
68
                    3D
 Structure written by MMmdl.
170180  0  0  1  0            999 V2000
  -30.7410  -14.6899   20.4788 C   0  0  0  0  0  0
  -30.4022  -12.4459   19.4516 C   0  0  0  0  0  0
  -29.4845  -12.4960   18.2172 C   0  0  0  0  0  0
  -28.0163  -12.3299   18.6459 C   0  0  0  0  0  0
  -27.6343  -13.2390   19.8459 C   0  0  2  0  0  0
  -28.6934  -13.1965   20.9709 C   0  0  0  0  0  0
  -25.2477  -13.8220   20.5730 C   0  0  0  0  0  0
  -24.1781  -13.0448   20.9233 C   0  0  0  0  0  0
  -24.6390  -11.6931   20.8776 C   0  0  0  0  0  0
  -23.9075  -10.4298   21.0417 C   0  0  0  0  0  0
  -24.3623   -9.4208   21.9189 C   0  0  0  0  0  0
  -23.6298   -8.2242   22.0753 C   0  0  0  0  0  0
  -22.4279   -8.0283   21.3545 C   0  0  0  0  0  0
  -21.9918   -9.0258   20.4647 C   0  0  0  0  0  0
  -22.7249  -10.2138   20.3061 C   0  0  0  0  0  0
  -21.6854   -6.0738   22.5279 C   0  0  0  0  0  0
  -21.4015   -6.5641   23.8213 C   0  0  0  0  0  0
  -21.3659   -5.6793   24.9175 C   0  0  0  0  0  0
  -21.6043   -4.3056   24.7224 C   0  0  0  0  0  0
  -21.8818   -3.8148   23.4345 C   0  0  0  0  0  0
  -21.9192   -4.6965   22.3402 C   0  0  0  0  0  0
  -22.7799  -13.5218   21.1876 C   0  0  0  0  0  0
  -22.1660   -4.2150   21.0980 F   0  0  0  0  0  0
  -21.5629   -3.4540   25.7737 F   0  0  0  0  0  0
  -29.9764  -13.5482   20.3513 N   0  0  0  0  0  0
  -26.2918  -12.9448   20.3341 N   0  0  0  0  0  0
  -25.9328  -11.6581   20.5812 N   0  0  0  0  0  0
  -22.0449  -12.8206   22.0431 N   0  0  0  0  0  0
  -25.4130  -15.1941   20.4120 N   0  0  0  0  0  0
  -31.9478  -14.5753   20.2505 O   0  0  0  0  0  0
  -21.6642   -6.8880   21.4240 O   0  0  0  0  0  0
  -22.3480  -14.5519   20.6717 O   0  0  0  0  0  0
  -24.6320  -31.8603   23.2068 C   0  0  0  0  0  0
  -25.9157  -32.4779   23.8388 C   0  0  1  0  0  0
  -27.1944  -27.2701   20.1043 C   0  0  0  0  0  0
  -25.5963  -33.8583   24.2301 N   0  0  0  0  0  0
  -23.4256  -30.4926   21.5519 C   0  0  2  0  0  0
  -24.8665  -28.9621   20.1071 C   0  0  0  0  0  0
  -22.7506  -29.4637   22.4921 C   0  0  0  0  0  0
  -18.0296  -28.1387   22.8484 C   0  0  0  0  0  0
  -24.1492  -36.7288   23.2635 C   0  0  0  0  0  0
  -25.9774  -30.7726   21.3928 C   0  0  0  0  0  0
  -26.0442  -29.4022   20.7250 C   0  0  0  0  0  0
  -27.2111  -28.5671   20.7229 C   0  0  0  0  0  0
  -25.9916  -26.9315   19.4280 C   0  0  0  0  0  0
  -24.8455  -27.7327   19.4495 C   0  0  0  0  0  0
  -23.6410  -29.8479   20.1622 C   0  0  0  0  0  0
  -25.4117  -36.3081   24.0327 C   0  0  1  0  0  0
  -20.5903  -28.3702   23.1261 C   0  0  2  0  0  0
  -20.6787  -26.9421   22.5398 C   0  0  0  0  0  0
  -19.5757  -26.6385   21.5209 C   0  0  0  0  0  0
  -18.1939  -26.7929   22.1624 C   0  0  0  0  0  0
  -19.1550  -28.8861   23.2869 C   0  0  0  0  0  0
  -18.9469  -30.1460   23.8890 C   0  0  0  0  0  0
  -17.6466  -30.6587   24.0561 C   0  0  0  0  0  0
  -25.9060  -34.9450   23.5107 C   0  0  0  0  0  0
  -16.5357  -29.9082   23.6334 C   0  0  0  0  0  0
  -16.7281  -28.6500   23.0353 C   0  0  0  0  0  0
  -26.4515  -31.6591   25.0768 C   0  0  0  0  0  0
  -25.3729  -31.3747   26.1481 C   0  0  0  0  0  0
  -27.0357  -30.2998   24.6268 C   0  0  0  0  0  0
  -27.6070  -32.4328   25.7539 C   0  0  0  0  0  0
  -27.5580  -37.1805   24.8465 C   0  0  0  0  0  0
  -21.4215  -29.3058   22.3657 N   0  0  0  0  0  0
  -26.4294  -37.3776   23.9406 N   0  0  0  0  0  0
  -24.6976  -31.0580   22.1057 N   0  0  0  0  0  0
  -23.4215  -28.8147   23.2989 O   0  0  0  0  0  0
  -28.2437  -26.3127   20.1829 O   0  0  0  0  0  0
  -26.5615  -34.8913   22.4665 O   0  0  0  0  0  0
  -23.5471  -32.1431   23.7360 O   0  0  0  0  0  0
  -29.0141  -23.0327   21.2903 C   0  0  0  0  0  0
  -28.5018  -22.5685   19.0145 C   0  0  0  0  0  0
  -29.3433  -21.6444   21.4933 C   0  0  0  0  0  0
  -29.2485  -20.6569   20.4439 C   0  0  0  0  0  0
  -28.5729  -23.5408   20.0446 C   0  0  0  0  0  0
  -28.8067  -21.1837   19.1848 C   0  0  0  0  0  0
  -28.9226  -20.3667   23.7511 C   0  0  0  0  0  0
  -29.1281  -21.8138   24.1225 C   0  0  0  0  0  0
  -28.5397  -18.0229   20.8101 C   0  0  0  0  0  0
  -30.6727  -18.4889   19.7303 C   0  0  0  0  0  0
  -29.0205  -16.5445   21.1726 C   0  0  0  0  0  0
  -31.2058  -17.0994   20.1970 C   0  0  0  0  0  0
  -29.7840  -21.2522   22.8780 C   0  0  0  0  0  0
  -29.6508  -19.1174   20.6961 C   0  0  0  0  0  0
  -29.7115  -20.4594   16.9218 C   0  0  0  0  0  0
  -28.5820  -20.3185   17.9517 C   0  0  0  0  0  0
  -27.8345  -24.9210   19.8030 C   0  0  0  0  0  0
  -30.2196  -15.9972   20.4666 N   0  0  0  0  0  0
  -31.4423  -12.5201   19.1306 H   0  0  0  0  0  0
  -30.3226  -11.4817   19.9563 H   0  0  0  0  0  0
  -29.7583  -11.7140   17.5076 H   0  0  0  0  0  0
  -29.6136  -13.4456   17.6953 H   0  0  0  0  0  0
  -27.8733  -11.2830   18.9161 H   0  0  0  0  0  0
  -27.3514  -12.5178   17.8019 H   0  0  0  0  0  0
  -27.6189  -14.2541   19.4494 H   0  0  0  0  0  0
  -28.7419  -12.2019   21.4167 H   0  0  0  0  0  0
  -28.4457  -13.8722   21.7885 H   0  0  0  0  0  0
  -25.2764   -9.5684   22.4772 H   0  0  0  0  0  0
  -24.0006   -7.4630   22.7470 H   0  0  0  0  0  0
  -21.0850   -8.8779   19.8951 H   0  0  0  0  0  0
  -22.3705  -10.9681   19.6175 H   0  0  0  0  0  0
  -21.2008   -7.6149   23.9717 H   0  0  0  0  0  0
  -21.1482   -6.0523   25.9078 H   0  0  0  0  0  0
  -22.0598   -2.7610   23.2846 H   0  0  0  0  0  0
  -22.4076  -11.9874   22.4825 H   0  0  0  0  0  0
  -21.1061  -13.1221   22.2630 H   0  0  0  0  0  0
  -24.6444  -15.8456   20.5261 H   0  0  0  0  0  0
  -26.2628  -15.6372   20.0885 H   0  0  0  0  0  0
  -26.7220  -32.5425   23.1126 H   0  0  0  0  0  0
  -25.0124  -33.9734   25.0454 H   0  0  0  0  0  0
  -22.7214  -31.3162   21.4171 H   0  0  0  0  0  0
  -23.3757  -35.9619   23.3299 H   0  0  0  0  0  0
  -24.3585  -36.8907   22.2050 H   0  0  0  0  0  0
  -23.7242  -37.6490   23.6654 H   0  0  0  0  0  0
  -26.1255  -31.5386   20.6303 H   0  0  0  0  0  0
  -26.8522  -30.8095   22.0300 H   0  0  0  0  0  0
  -28.1039  -28.8924   21.2385 H   0  0  0  0  0  0
  -25.8596  -26.0155   18.8753 H   0  0  0  0  0  0
  -23.9494  -27.3962   18.9458 H   0  0  0  0  0  0
  -23.7683  -30.6342   19.4173 H   0  0  0  0  0  0
  -22.7574  -29.2884   19.8496 H   0  0  0  0  0  0
  -25.1296  -36.1937   25.0819 H   0  0  0  0  0  0
  -20.9996  -28.3277   24.1381 H   0  0  0  0  0  0
  -20.5697  -26.2313   23.3602 H   0  0  0  0  0  0
  -21.6653  -26.7452   22.1184 H   0  0  0  0  0  0
  -19.6920  -25.6294   21.1244 H   0  0  0  0  0  0
  -19.6690  -27.3192   20.6735 H   0  0  0  0  0  0
  -17.4207  -26.6674   21.4029 H   0  0  0  0  0  0
  -18.0342  -26.0073   22.9023 H   0  0  0  0  0  0
  -19.7943  -30.7280   24.2256 H   0  0  0  0  0  0
  -17.5019  -31.6268   24.5161 H   0  0  0  0  0  0
  -15.5356  -30.2979   23.7664 H   0  0  0  0  0  0
  -15.8682  -28.0815   22.7072 H   0  0  0  0  0  0
  -24.5906  -30.7096   25.7806 H   0  0  0  0  0  0
  -24.8922  -32.2920   26.4890 H   0  0  0  0  0  0
  -25.8037  -30.8932   27.0268 H   0  0  0  0  0  0
  -26.2950  -29.6751   24.1262 H   0  0  0  0  0  0
  -27.3989  -29.7258   25.4803 H   0  0  0  0  0  0
  -27.8858  -30.4257   23.9558 H   0  0  0  0  0  0
  -27.2681  -33.3635   26.2103 H   0  0  0  0  0  0
  -28.3889  -32.6877   25.0371 H   0  0  0  0  0  0
  -28.0728  -31.8461   26.5468 H   0  0  0  0  0  0
  -28.2597  -38.0102   24.7508 H   0  0  0  0  0  0
  -28.1077  -36.2633   24.6295 H   0  0  0  0  0  0
  -27.2298  -37.1457   25.8868 H   0  0  0  0  0  0
  -20.9391  -29.8807   21.6890 H   0  0  0  0  0  0
  -26.0174  -38.2852   24.1401 H   0  0  0  0  0  0
  -29.0462  -23.7143   22.1286 H   0  0  0  0  0  0
  -28.1221  -22.8814   18.0515 H   0  0  0  0  0  0
  -27.9396  -20.0840   23.3795 H   0  0  0  0  0  0
  -29.4221  -19.6219   24.3676 H   0  0  0  0  0  0
  -29.7635  -22.0143   24.9831 H   0  0  0  0  0  0
  -28.2695  -22.4735   24.0131 H   0  0  0  0  0  0
  -27.8126  -18.3399   21.5584 H   0  0  0  0  0  0
  -27.9791  -17.9733   19.8785 H   0  0  0  0  0  0
  -30.2595  -18.3579   18.7347 H   0  0  0  0  0  0
  -31.5185  -19.1684   19.6190 H   0  0  0  0  0  0
  -28.1708  -15.8870   21.0143 H   0  0  0  0  0  0
  -29.2366  -16.5011   22.2410 H   0  0  0  0  0  0
  -31.8026  -17.2366   21.1006 H   0  0  0  0  0  0
  -31.9103  -16.7977   19.4192 H   0  0  0  0  0  0
  -30.8619  -21.1005   22.9102 H   0  0  0  0  0  0
  -30.1623  -19.0987   21.6556 H   0  0  0  0  0  0
  -29.5292  -19.8201   16.0578 H   0  0  0  0  0  0
  -30.6781  -20.1841   17.3421 H   0  0  0  0  0  0
  -29.7906  -21.4852   16.5611 H   0  0  0  0  0  0
  -27.6454  -20.6280   17.4852 H   0  0  0  0  0  0
  -28.4135  -19.2784   18.2081 H   0  0  0  0  0  0
  -26.8743  -24.7184   20.2805 H   0  0  0  0  0  0
  -27.6666  -24.9545   18.7259 H   0  0  0  0  0  0
  1 25  1  0  0  0
  1 30  2  0  0  0
  1 88  1  0  0  0
  2  3  1  0  0  0
  2 25  1  0  0  0
  2 89  1  0  0  0
  2 90  1  0  0  0
  3  4  1  0  0  0
  3 91  1  0  0  0
  3 92  1  0  0  0
  4  5  1  0  0  0
  4 93  1  0  0  0
  4 94  1  0  0  0
  5  6  1  0  0  0
  5 26  1  0  0  0
  5 95  1  0  0  0
  6 25  1  0  0  0
  6 96  1  0  0  0
  6 97  1  0  0  0
  7  8  2  0  0  0
  7 26  1  0  0  0
  7 29  1  0  0  0
  8  9  1  0  0  0
  8 22  1  0  0  0
  9 10  1  0  0  0
  9 27  2  0  0  0
 10 11  2  0  0  0
 10 15  1  0  0  0
 11 12  1  0  0  0
 11 98  1  0  0  0
 12 13  2  0  0  0
 12 99  1  0  0  0
 13 14  1  0  0  0
 13 31  1  0  0  0
 14 15  2  0  0  0
 14100  1  0  0  0
 15101  1  0  0  0
 16 17  2  0  0  0
 16 21  1  0  0  0
 16 31  1  0  0  0
 17 18  1  0  0  0
 17102  1  0  0  0
 18 19  2  0  0  0
 18103  1  0  0  0
 19 20  1  0  0  0
 19 24  1  0  0  0
 20 21  2  0  0  0
 20104  1  0  0  0
 21 23  1  0  0  0
 22 28  1  0  0  0
 22 32  2  0  0  0
 26 27  1  0  0  0
 28105  1  0  0  0
 28106  1  0  0  0
 29107  1  0  0  0
 29108  1  0  0  0
 33 34  1  0  0  0
 33 66  1  0  0  0
 33 70  2  0  0  0
 34 36  1  0  0  0
 34 59  1  0  0  0
 34109  1  0  0  0
 35 44  2  0  0  0
 35 45  1  0  0  0
 35 68  1  0  0  0
 36 56  1  0  0  0
 36110  1  0  0  0
 37 39  1  0  0  0
 37 47  1  0  0  0
 37 66  1  0  0  0
 37111  1  0  0  0
 38 43  2  0  0  0
 38 46  1  0  0  0
 38 47  1  0  0  0
 39 64  1  0  0  0
 39 67  2  0  0  0
 40 52  1  0  0  0
 40 53  2  0  0  0
 40 58  1  0  0  0
 41112  1  0  0  0
 41113  1  0  0  0
 41114  1  0  0  0
 41 48  1  0  0  0
 42 43  1  0  0  0
 42 66  1  0  0  0
 42115  1  0  0  0
 42116  1  0  0  0
 43 44  1  0  0  0
 44117  1  0  0  0
 45 46  2  0  0  0
 45118  1  0  0  0
 46119  1  0  0  0
 47120  1  0  0  0
 47121  1  0  0  0
 48 56  1  0  0  0
 48 65  1  0  0  0
 48122  1  0  0  0
 49 50  1  0  0  0
 49 53  1  0  0  0
 49 64  1  0  0  0
 49123  1  0  0  0
 50 51  1  0  0  0
 50124  1  0  0  0
 50125  1  0  0  0
 51 52  1  0  0  0
 51126  1  0  0  0
 51127  1  0  0  0
 52128  1  0  0  0
 52129  1  0  0  0
 53 54  1  0  0  0
 54 55  2  0  0  0
 54130  1  0  0  0
 55 57  1  0  0  0
 55131  1  0  0  0
 56 69  2  0  0  0
 57 58  2  0  0  0
 57132  1  0  0  0
 58133  1  0  0  0
 59 60  1  0  0  0
 59 61  1  0  0  0
 59 62  1  0  0  0
 60134  1  0  0  0
 60135  1  0  0  0
 60136  1  0  0  0
 61137  1  0  0  0
 61138  1  0  0  0
 61139  1  0  0  0
 62140  1  0  0  0
 62141  1  0  0  0
 62142  1  0  0  0
 63 65  1  0  0  0
 63143  1  0  0  0
 63144  1  0  0  0
 63145  1  0  0  0
 64146  1  0  0  0
 65147  1  0  0  0
 68 87  1  0  0  0
 71 73  2  0  0  0
 71 75  1  0  0  0
 71148  1  0  0  0
 72 75  2  0  0  0
 72 76  1  0  0  0
 72149  1  0  0  0
 73 74  1  0  0  0
 73 83  1  0  0  0
 74 76  2  0  0  0
 74 84  1  0  0  0
 75 87  1  0  0  0
 76 86  1  0  0  0
 77 78  1  0  0  0
 77 83  1  0  0  0
 77150  1  0  0  0
 77151  1  0  0  0
 78 83  1  0  0  0
 78152  1  0  0  0
 78153  1  0  0  0
 79 81  1  0  0  0
 79 84  1  0  0  0
 79154  1  0  0  0
 79155  1  0  0  0
 80 82  1  0  0  0
 80 84  1  0  0  0
 80156  1  0  0  0
 80157  1  0  0  0
 81 88  1  0  0  0
 81158  1  0  0  0
 81159  1  0  0  0
 82 88  1  0  0  0
 82160  1  0  0  0
 82161  1  0  0  0
 83162  1  0  0  0
 84163  1  0  0  0
 85 86  1  0  0  0
 85164  1  0  0  0
 85165  1  0  0  0
 85166  1  0  0  0
 86167  1  0  0  0
 86168  1  0  0  0
 87169  1  0  0  0
 87170  1  0  0  0
M  ISO  4   1 100  68 101  87 101  88 100
M  END
> <chiral flag>
0

> <version>
0

> <s_m_source_file>
/data/baiqing/PycharmProjects/Reinvent-master-3.2/result/LINK_invent/BTK/process_docking_weight1_custom_sum_contain_oxygen_bond_distance_aromatic_linkinvent_7_9_3/rearranged_h_0148.sdf

> <i_m_source_file_index>
69

> <r_mmod_Potential_Energy-OPLS-2005>
477.516204833984

> <r_mmod_Stretch_Energy-OPLS-2005>
115.075378417969

> <r_mmod_Bend_Energy-OPLS-2005>
227.833114624023

> <r_mmod_Torsional_Energy-OPLS-2005>
342.806976318359

> <r_mmod_Improper_Torsional_Energy-OPLS-2005>
15.3538122177124

> <r_mmod_Van_der_Waal_Energy-OPLS-2005>
172.30859375

> <r_mmod_Electrostatic_Energy-OPLS-2005>
-293.944732666016

> <r_mmod_Solvation_Energy-OPLS-2005>
-194.29150390625

> <b_mmod_Minimization_Converged-OPLS-2005>
0

> <r_mmod_RMS_Derivative-OPLS-2005>
0.282307356595993

$$$$
69
                    3D
 Structure written by MMmdl.
179189  0  0  1  0            999 V2000
  -30.6925  -14.4957   20.5567 C   0  0  0  0  0  0
  -30.4261  -12.3195   19.4195 C   0  0  0  0  0  0
  -29.4934  -12.4948   18.2035 C   0  0  0  0  0  0
  -28.0164  -12.3533   18.6222 C   0  0  0  0  0  0
  -27.6599  -13.2059   19.8694 C   0  0  2  0  0  0
  -28.7041  -13.0051   20.9903 C   0  0  0  0  0  0
  -25.2589  -13.8158   20.5669 C   0  0  0  0  0  0
  -24.1840  -13.0437   20.9177 C   0  0  0  0  0  0
  -24.6394  -11.6905   20.8740 C   0  0  0  0  0  0
  -23.9061  -10.4292   21.0410 C   0  0  0  0  0  0
  -24.3615   -9.4207   21.9187 C   0  0  0  0  0  0
  -23.6288   -8.2244   22.0759 C   0  0  0  0  0  0
  -22.4272   -8.0281   21.3549 C   0  0  0  0  0  0
  -21.9909   -9.0256   20.4652 C   0  0  0  0  0  0
  -22.7238  -10.2133   20.3060 C   0  0  0  0  0  0
  -21.6851   -6.0732   22.5280 C   0  0  0  0  0  0
  -21.4012   -6.5638   23.8213 C   0  0  0  0  0  0
  -21.3658   -5.6794   24.9177 C   0  0  0  0  0  0
  -21.6045   -4.3056   24.7230 C   0  0  0  0  0  0
  -21.8821   -3.8146   23.4351 C   0  0  0  0  0  0
  -21.9192   -4.6959   22.3404 C   0  0  0  0  0  0
  -22.7865  -13.5239   21.1837 C   0  0  0  0  0  0
  -22.1661   -4.2143   21.0983 F   0  0  0  0  0  0
  -21.5629   -3.4542   25.7742 F   0  0  0  0  0  0
  -30.0290  -13.3142   20.4280 N   0  0  0  0  0  0
  -26.3020  -12.9327   20.3351 N   0  0  0  0  0  0
  -25.9322  -11.6491   20.5773 N   0  0  0  0  0  0
  -22.0507  -12.8233   22.0395 N   0  0  0  0  0  0
  -25.4321  -15.1873   20.4068 N   0  0  0  0  0  0
  -31.8381  -14.6680   20.1336 O   0  0  0  0  0  0
  -21.6639   -6.8876   21.4242 O   0  0  0  0  0  0
  -22.3560  -14.5547   20.6684 O   0  0  0  0  0  0
  -24.6157  -31.8668   23.2114 C   0  0  0  0  0  0
  -25.9050  -32.4811   23.8399 C   0  0  1  0  0  0
  -27.2260  -27.4107   20.1027 C   0  0  0  0  0  0
  -25.5903  -33.8614   24.2318 N   0  0  0  0  0  0
  -23.4037  -30.4916   21.5527 C   0  0  2  0  0  0
  -24.8500  -28.9584   20.1163 C   0  0  0  0  0  0
  -22.7410  -29.4653   22.4997 C   0  0  0  0  0  0
  -18.0262  -28.1363   22.8494 C   0  0  0  0  0  0
  -24.1491  -36.7317   23.2636 C   0  0  0  0  0  0
  -25.9362  -30.8261   21.3689 C   0  0  0  0  0  0
  -26.0127  -29.4597   20.7150 C   0  0  0  0  0  0
  -27.2058  -28.6940   20.7039 C   0  0  0  0  0  0
  -26.0486  -26.9440   19.4753 C   0  0  0  0  0  0
  -24.8636  -27.7006   19.4934 C   0  0  0  0  0  0
  -23.6122  -29.8263   20.1669 C   0  0  0  0  0  0
  -25.4111  -36.3104   24.0325 C   0  0  1  0  0  0
  -20.5858  -28.3650   23.1319 C   0  0  2  0  0  0
  -20.6758  -26.9382   22.5420 C   0  0  0  0  0  0
  -19.5743  -26.6371   21.5210 C   0  0  0  0  0  0
  -18.1917  -26.7907   22.1619 C   0  0  0  0  0  0
  -19.1515  -28.8820   23.2899 C   0  0  0  0  0  0
  -18.9446  -30.1425   23.8909 C   0  0  0  0  0  0
  -17.6454  -30.6576   24.0558 C   0  0  0  0  0  0
  -25.9043  -34.9470   23.5121 C   0  0  0  0  0  0
  -16.5342  -29.9078   23.6324 C   0  0  0  0  0  0
  -16.7253  -28.6489   23.0355 C   0  0  0  0  0  0
  -26.4482  -31.6592   25.0726 C   0  0  0  0  0  0
  -25.3748  -31.3691   26.1465 C   0  0  0  0  0  0
  -27.0321  -30.3032   24.6115 C   0  0  0  0  0  0
  -27.6059  -32.4316   25.7491 C   0  0  0  0  0  0
  -27.5583  -37.1802   24.8455 C   0  0  0  0  0  0
  -21.4138  -29.3030   22.3739 N   0  0  0  0  0  0
  -26.4297  -37.3791   23.9400 N   0  0  0  0  0  0
  -24.6699  -31.0759   22.1021 N   0  0  0  0  0  0
  -23.4179  -28.8180   23.3025 O   0  0  0  0  0  0
  -28.3824  -26.6490   20.1085 O   0  0  0  0  0  0
  -26.5611  -34.8929   22.4684 O   0  0  0  0  0  0
  -23.5349  -32.1428   23.7503 O   0  0  0  0  0  0
  -32.6102  -20.5907   22.7215 C   0  0  0  0  0  0
  -33.1808  -22.8174   23.4373 C   0  0  0  0  0  0
  -31.4361  -21.0552   22.0787 C   0  0  0  0  0  0
  -32.0293  -23.3298   22.8082 C   0  0  0  0  0  0
  -31.1469  -22.4630   22.0855 C   0  0  0  0  0  0
  -33.4923  -21.4549   23.3975 C   0  0  0  0  0  0
  -29.9935  -19.0351   22.6164 C   0  0  0  0  0  0
  -31.2769  -19.1248   20.3771 C   0  0  0  0  0  0
  -29.4093  -17.6806   22.1650 C   0  0  0  0  0  0
  -30.6343  -17.7598   20.0217 C   0  0  0  0  0  0
  -28.5911  -24.9962   21.8967 C   0  0  0  0  0  0
  -29.1052  -24.3402   19.4775 C   0  0  0  0  0  0
  -28.9239  -23.5147   22.2075 C   0  0  0  0  0  0
  -30.3425  -23.6858   20.1371 C   0  0  0  0  0  0
  -30.5311  -19.9533   21.4736 C   0  0  2  0  0  0
  -30.4131  -16.9071   21.2904 C   0  0  2  0  0  0
  -28.2535  -25.2352   20.4147 C   0  0  0  0  0  0
  -31.7942  -24.8239   22.9933 C   0  0  0  0  0  0
  -34.9574  -19.6653   24.0498 C   0  0  0  0  0  0
  -30.0275  -22.9879   21.3926 N   0  0  0  0  0  0
  -29.9637  -15.5227   21.0431 N   0  0  0  0  0  0
  -34.6384  -21.0518   24.0474 O   0  0  0  0  0  0
  -31.4686  -12.4262   19.1142 H   0  0  0  0  0  0
  -30.3386  -11.3124   19.8302 H   0  0  0  0  0  0
  -29.7336  -11.7577   17.4357 H   0  0  0  0  0  0
  -29.6565  -13.4735   17.7493 H   0  0  0  0  0  0
  -27.8346  -11.2989   18.8327 H   0  0  0  0  0  0
  -27.3621  -12.6126   17.7891 H   0  0  0  0  0  0
  -27.6992  -14.2498   19.5582 H   0  0  0  0  0  0
  -28.6889  -11.9751   21.3489 H   0  0  0  0  0  0
  -28.4682  -13.6200   21.8602 H   0  0  0  0  0  0
  -25.2761   -9.5677   22.4762 H   0  0  0  0  0  0
  -23.9993   -7.4637   22.7484 H   0  0  0  0  0  0
  -21.0839   -8.8779   19.8960 H   0  0  0  0  0  0
  -22.3701  -10.9673   19.6169 H   0  0  0  0  0  0
  -21.2008   -7.6147   23.9712 H   0  0  0  0  0  0
  -21.1478   -6.0527   25.9078 H   0  0  0  0  0  0
  -22.0601   -2.7609   23.2858 H   0  0  0  0  0  0
  -22.4125  -11.9890   22.4771 H   0  0  0  0  0  0
  -21.1129  -13.1265   22.2605 H   0  0  0  0  0  0
  -24.6672  -15.8443   20.5154 H   0  0  0  0  0  0
  -26.2836  -15.6246   20.0766 H   0  0  0  0  0  0
  -26.7121  -32.5531   23.1166 H   0  0  0  0  0  0
  -25.0031  -33.9757   25.0447 H   0  0  0  0  0  0
  -22.6933  -31.3100   21.4147 H   0  0  0  0  0  0
  -23.3743  -35.9661   23.3299 H   0  0  0  0  0  0
  -24.3590  -36.8942   22.2051 H   0  0  0  0  0  0
  -23.7254  -37.6520   23.6667 H   0  0  0  0  0  0
  -26.0532  -31.5933   20.6014 H   0  0  0  0  0  0
  -26.8219  -30.8781   21.9898 H   0  0  0  0  0  0
  -28.1026  -29.0736   21.1745 H   0  0  0  0  0  0
  -26.0320  -25.9960   18.9571 H   0  0  0  0  0  0
  -23.9723  -27.3145   19.0177 H   0  0  0  0  0  0
  -23.7184  -30.6013   19.4074 H   0  0  0  0  0  0
  -22.7357  -29.2453   19.8728 H   0  0  0  0  0  0
  -25.1286  -36.1967   25.0816 H   0  0  0  0  0  0
  -20.9949  -28.3227   24.1441 H   0  0  0  0  0  0
  -20.5665  -26.2253   23.3606 H   0  0  0  0  0  0
  -21.6628  -26.7433   22.1208 H   0  0  0  0  0  0
  -19.6909  -25.6286   21.1221 H   0  0  0  0  0  0
  -19.6685  -27.3202   20.6757 H   0  0  0  0  0  0
  -17.4184  -26.6655   21.4017 H   0  0  0  0  0  0
  -18.0312  -26.0040   22.9003 H   0  0  0  0  0  0
  -19.7929  -30.7221   24.2301 H   0  0  0  0  0  0
  -17.5016  -31.6264   24.5148 H   0  0  0  0  0  0
  -15.5345  -30.2987   23.7642 H   0  0  0  0  0  0
  -15.8648  -28.0812   22.7075 H   0  0  0  0  0  0
  -24.5926  -30.7042   25.7792 H   0  0  0  0  0  0
  -24.8925  -32.2837   26.4927 H   0  0  0  0  0  0
  -25.8084  -30.8843   27.0222 H   0  0  0  0  0  0
  -26.2871  -29.6773   24.1187 H   0  0  0  0  0  0
  -27.4099  -29.7284   25.4583 H   0  0  0  0  0  0
  -27.8711  -30.4329   23.9272 H   0  0  0  0  0  0
  -27.2682  -33.3614   26.2081 H   0  0  0  0  0  0
  -28.3860  -32.6874   25.0309 H   0  0  0  0  0  0
  -28.0742  -31.8431   26.5385 H   0  0  0  0  0  0
  -28.2580  -38.0120   24.7530 H   0  0  0  0  0  0
  -28.1100  -36.2647   24.6254 H   0  0  0  0  0  0
  -27.2307  -37.1419   25.8861 H   0  0  0  0  0  0
  -20.9297  -29.8762   21.6968 H   0  0  0  0  0  0
  -26.0181  -38.2866   24.1418 H   0  0  0  0  0  0
  -32.8145  -19.5323   22.7075 H   0  0  0  0  0  0
  -33.8448  -23.4801   23.9743 H   0  0  0  0  0  0
  -30.7897  -18.7974   23.3210 H   0  0  0  0  0  0
  -29.2526  -19.5833   23.1996 H   0  0  0  0  0  0
  -31.3819  -19.7319   19.4777 H   0  0  0  0  0  0
  -32.2960  -18.9057   20.6906 H   0  0  0  0  0  0
  -28.4768  -17.8455   21.6222 H   0  0  0  0  0  0
  -29.1490  -17.0964   23.0486 H   0  0  0  0  0  0
  -31.2840  -17.2367   19.3198 H   0  0  0  0  0  0
  -29.6897  -17.9187   19.4995 H   0  0  0  0  0  0
  -29.4147  -25.6461   22.1757 H   0  0  0  0  0  0
  -27.7518  -25.3193   22.5139 H   0  0  0  0  0  0
  -28.4680  -23.5371   19.1036 H   0  0  0  0  0  0
  -29.4070  -24.9040   18.5937 H   0  0  0  0  0  0
  -28.0413  -22.9016   22.0201 H   0  0  0  0  0  0
  -29.1481  -23.4039   23.2697 H   0  0  0  0  0  0
  -31.1123  -24.4409   20.2811 H   0  0  0  0  0  0
  -30.7737  -22.9646   19.4410 H   0  0  0  0  0  0
  -29.6683  -20.4178   20.9956 H   0  0  0  0  0  0
  -31.3592  -16.8295   21.8308 H   0  0  0  0  0  0
  -27.2306  -24.8824   20.2963 H   0  0  0  0  0  0
  -32.6558  -25.3051   23.4561 H   0  0  0  0  0  0
  -30.9502  -24.9932   23.6610 H   0  0  0  0  0  0
  -31.6270  -25.3468   22.0570 H   0  0  0  0  0  0
  -35.8709  -19.5046   24.6222 H   0  0  0  0  0  0
  -35.1339  -19.2970   23.0379 H   0  0  0  0  0  0
  -34.1680  -19.0745   24.5176 H   0  0  0  0  0  0
  -29.0178  -15.2961   21.3123 H   0  0  0  0  0  0
  1 25  1  0  0  0
  1 30  2  0  0  0
  1 91  1  0  0  0
  2  3  1  0  0  0
  2 25  1  0  0  0
  2 93  1  0  0  0
  2 94  1  0  0  0
  3  4  1  0  0  0
  3 95  1  0  0  0
  3 96  1  0  0  0
  4  5  1  0  0  0
  4 97  1  0  0  0
  4 98  1  0  0  0
  5  6  1  0  0  0
  5 26  1  0  0  0
  5 99  1  0  0  0
  6 25  1  0  0  0
  6100  1  0  0  0
  6101  1  0  0  0
  7  8  2  0  0  0
  7 26  1  0  0  0
  7 29  1  0  0  0
  8  9  1  0  0  0
  8 22  1  0  0  0
  9 10  1  0  0  0
  9 27  2  0  0  0
 10 11  2  0  0  0
 10 15  1  0  0  0
 11 12  1  0  0  0
 11102  1  0  0  0
 12 13  2  0  0  0
 12103  1  0  0  0
 13 14  1  0  0  0
 13 31  1  0  0  0
 14 15  2  0  0  0
 14104  1  0  0  0
 15105  1  0  0  0
 16 17  2  0  0  0
 16 21  1  0  0  0
 16 31  1  0  0  0
 17 18  1  0  0  0
 17106  1  0  0  0
 18 19  2  0  0  0
 18107  1  0  0  0
 19 20  1  0  0  0
 19 24  1  0  0  0
 20 21  2  0  0  0
 20108  1  0  0  0
 21 23  1  0  0  0
 22 28  1  0  0  0
 22 32  2  0  0  0
 26 27  1  0  0  0
 28109  1  0  0  0
 28110  1  0  0  0
 29111  1  0  0  0
 29112  1  0  0  0
 33 34  1  0  0  0
 33 66  1  0  0  0
 33 70  2  0  0  0
 34 36  1  0  0  0
 34 59  1  0  0  0
 34113  1  0  0  0
 35 44  2  0  0  0
 35 45  1  0  0  0
 35 68  1  0  0  0
 36 56  1  0  0  0
 36114  1  0  0  0
 37 39  1  0  0  0
 37 47  1  0  0  0
 37 66  1  0  0  0
 37115  1  0  0  0
 38 43  2  0  0  0
 38 46  1  0  0  0
 38 47  1  0  0  0
 39 64  1  0  0  0
 39 67  2  0  0  0
 40 52  1  0  0  0
 40 53  2  0  0  0
 40 58  1  0  0  0
 41116  1  0  0  0
 41117  1  0  0  0
 41118  1  0  0  0
 41 48  1  0  0  0
 42 43  1  0  0  0
 42 66  1  0  0  0
 42119  1  0  0  0
 42120  1  0  0  0
 43 44  1  0  0  0
 44121  1  0  0  0
 45 46  2  0  0  0
 45122  1  0  0  0
 46123  1  0  0  0
 47124  1  0  0  0
 47125  1  0  0  0
 48 56  1  0  0  0
 48 65  1  0  0  0
 48126  1  0  0  0
 49 50  1  0  0  0
 49 53  1  0  0  0
 49 64  1  0  0  0
 49127  1  0  0  0
 50 51  1  0  0  0
 50128  1  0  0  0
 50129  1  0  0  0
 51 52  1  0  0  0
 51130  1  0  0  0
 51131  1  0  0  0
 52132  1  0  0  0
 52133  1  0  0  0
 53 54  1  0  0  0
 54 55  2  0  0  0
 54134  1  0  0  0
 55 57  1  0  0  0
 55135  1  0  0  0
 56 69  2  0  0  0
 57 58  2  0  0  0
 57136  1  0  0  0
 58137  1  0  0  0
 59 60  1  0  0  0
 59 61  1  0  0  0
 59 62  1  0  0  0
 60138  1  0  0  0
 60139  1  0  0  0
 60140  1  0  0  0
 61141  1  0  0  0
 61142  1  0  0  0
 61143  1  0  0  0
 62144  1  0  0  0
 62145  1  0  0  0
 62146  1  0  0  0
 63 65  1  0  0  0
 63147  1  0  0  0
 63148  1  0  0  0
 63149  1  0  0  0
 64150  1  0  0  0
 65151  1  0  0  0
 68 87  1  0  0  0
 71 73  2  0  0  0
 71 76  1  0  0  0
 71152  1  0  0  0
 72 74  1  0  0  0
 72 76  2  0  0  0
 72153  1  0  0  0
 73 75  1  0  0  0
 73 85  1  0  0  0
 74 75  2  0  0  0
 74 88  1  0  0  0
 75 90  1  0  0  0
 76 92  1  0  0  0
 77 79  1  0  0  0
 77 85  1  0  0  0
 77154  1  0  0  0
 77155  1  0  0  0
 78 80  1  0  0  0
 78 85  1  0  0  0
 78156  1  0  0  0
 78157  1  0  0  0
 79 86  1  0  0  0
 79158  1  0  0  0
 79159  1  0  0  0
 80 86  1  0  0  0
 80160  1  0  0  0
 80161  1  0  0  0
 81 83  1  0  0  0
 81 87  1  0  0  0
 81162  1  0  0  0
 81163  1  0  0  0
 82 84  1  0  0  0
 82 87  1  0  0  0
 82164  1  0  0  0
 82165  1  0  0  0
 83 90  1  0  0  0
 83166  1  0  0  0
 83167  1  0  0  0
 84 90  1  0  0  0
 84168  1  0  0  0
 84169  1  0  0  0
 85170  1  0  0  0
 86 91  1  0  0  0
 86171  1  0  0  0
 87172  1  0  0  0
 88173  1  0  0  0
 88174  1  0  0  0
 88175  1  0  0  0
 89 92  1  0  0  0
 89176  1  0  0  0
 89177  1  0  0  0
 89178  1  0  0  0
 91179  1  0  0  0
M  ISO  4   1 100  68 101  87 101  91 100
M  END
> <chiral flag>
0

> <version>
0

> <s_m_source_file>
/data/baiqing/PycharmProjects/Reinvent-master-3.2/result/LINK_invent/BTK/process_docking_weight1_custom_sum_contain_oxygen_bond_distance_aromatic_linkinvent_7_9_3/rearranged_h_0148.sdf

> <i_m_source_file_index>
70

> <r_mmod_Potential_Energy-OPLS-2005>
31.6217765808105

> <r_mmod_Stretch_Energy-OPLS-2005>
50.7541275024414

> <r_mmod_Bend_Energy-OPLS-2005>
127.907936096191

> <r_mmod_Torsional_Energy-OPLS-2005>
309.373260498047

> <r_mmod_Improper_Torsional_Energy-OPLS-2005>
6.19527864456177

> <r_mmod_Van_der_Waal_Energy-OPLS-2005>
175.880432128906

> <r_mmod_Electrostatic_Energy-OPLS-2005>
-442.467926025391

> <r_mmod_Solvation_Energy-OPLS-2005>
-212.694152832031

> <b_mmod_Minimization_Converged-OPLS-2005>
0

> <r_mmod_RMS_Derivative-OPLS-2005>
1.35939073562622

$$$$
70
                    3D
 Structure written by MMmdl.
161170  0  0  1  0            999 V2000
  -30.6037  -14.7333   20.4578 C   0  0  0  0  0  0
  -30.4372  -12.4406   19.4873 C   0  0  0  0  0  0
  -29.5194  -12.5065   18.2452 C   0  0  0  0  0  0
  -28.0402  -12.3427   18.6464 C   0  0  0  0  0  0
  -27.6467  -13.2323   19.8563 C   0  0  2  0  0  0
  -28.6880  -13.1472   20.9951 C   0  0  0  0  0  0
  -25.2517  -13.8204   20.5692 C   0  0  0  0  0  0
  -24.1808  -13.0446   20.9206 C   0  0  0  0  0  0
  -24.6407  -11.6928   20.8748 C   0  0  0  0  0  0
  -23.9086  -10.4299   21.0407 C   0  0  0  0  0  0
  -24.3630   -9.4210   21.9188 C   0  0  0  0  0  0
  -23.6301   -8.2245   22.0752 C   0  0  0  0  0  0
  -22.4281   -8.0290   21.3547 C   0  0  0  0  0  0
  -21.9924   -9.0261   20.4643 C   0  0  0  0  0  0
  -22.7258  -10.2138   20.3052 C   0  0  0  0  0  0
  -21.6851   -6.0743   22.5285 C   0  0  0  0  0  0
  -21.4015   -6.5644   23.8218 C   0  0  0  0  0  0
  -21.3661   -5.6794   24.9180 C   0  0  0  0  0  0
  -21.6038   -4.3054   24.7225 C   0  0  0  0  0  0
  -21.8822   -3.8151   23.4344 C   0  0  0  0  0  0
  -21.9191   -4.6973   22.3401 C   0  0  0  0  0  0
  -22.7826  -13.5226   21.1866 C   0  0  0  0  0  0
  -22.1659   -4.2155   21.0977 F   0  0  0  0  0  0
  -21.5628   -3.4537   25.7736 F   0  0  0  0  0  0
  -29.9962  -13.4975   20.4264 N   0  0  0  0  0  0
  -26.2957  -12.9419   20.3276 N   0  0  0  0  0  0
  -25.9336  -11.6561   20.5747 N   0  0  0  0  0  0
  -22.0459  -12.8208   22.0411 N   0  0  0  0  0  0
  -25.4203  -15.1932   20.4128 N   0  0  0  0  0  0
  -31.7732  -14.8580   20.0851 O   0  0  0  0  0  0
  -21.6639   -6.8889   21.4249 O   0  0  0  0  0  0
  -22.3508  -14.5530   20.6713 O   0  0  0  0  0  0
  -24.6318  -31.8554   23.1954 C   0  0  0  0  0  0
  -25.9152  -32.4748   23.8308 C   0  0  1  0  0  0
  -27.2276  -27.2717   20.1262 C   0  0  0  0  0  0
  -25.5953  -33.8554   24.2244 N   0  0  0  0  0  0
  -23.4284  -30.4782   21.5388 C   0  0  2  0  0  0
  -24.8773  -28.9260   20.1086 C   0  0  0  0  0  0
  -22.7500  -29.4625   22.4896 C   0  0  0  0  0  0
  -18.0291  -28.1415   22.8497 C   0  0  0  0  0  0
  -24.1486  -36.7268   23.2642 C   0  0  0  0  0  0
  -25.9733  -30.7754   21.3684 C   0  0  0  0  0  0
  -26.0481  -29.3975   20.7143 C   0  0  0  0  0  0
  -27.2269  -28.5859   20.7083 C   0  0  0  0  0  0
  -26.0309  -26.8681   19.4917 C   0  0  0  0  0  0
  -24.8733  -27.6696   19.4863 C   0  0  0  0  0  0
  -23.6460  -29.8103   20.1553 C   0  0  0  0  0  0
  -25.4117  -36.3054   24.0324 C   0  0  1  0  0  0
  -20.5907  -28.3721   23.1277 C   0  0  2  0  0  0
  -20.6793  -26.9442   22.5408 C   0  0  0  0  0  0
  -19.5761  -26.6417   21.5226 C   0  0  0  0  0  0
  -18.1936  -26.7963   22.1631 C   0  0  0  0  0  0
  -19.1551  -28.8888   23.2881 C   0  0  0  0  0  0
  -18.9471  -30.1494   23.8890 C   0  0  0  0  0  0
  -17.6472  -30.6613   24.0596 C   0  0  0  0  0  0
  -25.9065  -34.9430   23.5084 C   0  0  0  0  0  0
  -16.5359  -29.9122   23.6334 C   0  0  0  0  0  0
  -16.7283  -28.6541   23.0345 C   0  0  0  0  0  0
  -26.4528  -31.6557   25.0682 C   0  0  0  0  0  0
  -25.3768  -31.3705   26.1408 C   0  0  0  0  0  0
  -27.0363  -30.2987   24.6128 C   0  0  0  0  0  0
  -27.6076  -32.4297   25.7464 C   0  0  0  0  0  0
  -27.5569  -37.1786   24.8476 C   0  0  0  0  0  0
  -21.4214  -29.3059   22.3652 N   0  0  0  0  0  0
  -26.4277  -37.3764   23.9424 N   0  0  0  0  0  0
  -24.6978  -31.0549   22.0905 N   0  0  0  0  0  0
  -23.4202  -28.8161   23.3001 O   0  0  0  0  0  0
  -28.3289  -26.3844   20.1884 O   0  0  0  0  0  0
  -26.5619  -34.8910   22.4644 O   0  0  0  0  0  0
  -23.5470  -32.1361   23.7250 O   0  0  0  0  0  0
  -27.8510  -21.6900   19.8886 C   0  0  0  0  0  0
  -27.9481  -20.3218   20.0258 C   0  0  0  0  0  0
  -29.1982  -19.9893   20.6468 C   0  0  0  0  0  0
  -29.8269  -21.2368   20.7991 C   0  0  0  0  0  0
  -31.7860  -20.9256   22.5529 C   0  0  0  0  0  0
  -31.4497  -22.3972   22.5301 C   0  0  0  0  0  0
  -31.2091  -21.5493   21.3012 C   0  0  0  0  0  0
  -26.8795  -19.3403   19.6160 C   0  0  0  0  0  0
  -29.6052  -18.5196   21.1497 C   0  0  0  0  0  0
  -29.2400  -23.8268   20.4397 C   0  0  0  0  0  0
  -29.9423  -17.2834   20.1709 C   0  0  0  0  0  0
  -28.0938  -24.9017   20.0587 C   0  0  0  0  0  0
  -28.9815  -22.3124   20.3846 N   0  0  0  0  0  0
  -29.8093  -15.8442   20.6856 N   0  0  0  0  0  0
  -31.4805  -12.5621   19.1910 H   0  0  0  0  0  0
  -30.3773  -11.4613   19.9634 H   0  0  0  0  0  0
  -29.8003  -11.7352   17.5264 H   0  0  0  0  0  0
  -29.6582  -13.4623   17.7377 H   0  0  0  0  0  0
  -27.8799  -11.2928   18.8916 H   0  0  0  0  0  0
  -27.3935  -12.5566   17.7944 H   0  0  0  0  0  0
  -27.6464  -14.2581   19.4864 H   0  0  0  0  0  0
  -28.7142  -12.1431   21.4211 H   0  0  0  0  0  0
  -28.4234  -13.8189   21.8127 H   0  0  0  0  0  0
  -25.2779   -9.5677   22.4760 H   0  0  0  0  0  0
  -24.0005   -7.4635   22.7471 H   0  0  0  0  0  0
  -21.0855   -8.8794   19.8942 H   0  0  0  0  0  0
  -22.3738  -10.9678   19.6148 H   0  0  0  0  0  0
  -21.2013   -7.6152   23.9729 H   0  0  0  0  0  0
  -21.1477   -6.0517   25.9081 H   0  0  0  0  0  0
  -22.0597   -2.7613   23.2842 H   0  0  0  0  0  0
  -22.4070  -11.9866   22.4796 H   0  0  0  0  0  0
  -21.1073  -13.1229   22.2603 H   0  0  0  0  0  0
  -24.6544  -15.8467   20.5366 H   0  0  0  0  0  0
  -26.2644  -15.6344   20.0723 H   0  0  0  0  0  0
  -26.7226  -32.5398   23.1055 H   0  0  0  0  0  0
  -25.0151  -33.9701   25.0422 H   0  0  0  0  0  0
  -22.7231  -31.2991   21.3894 H   0  0  0  0  0  0
  -23.3746  -35.9606   23.3306 H   0  0  0  0  0  0
  -24.3577  -36.8865   22.2056 H   0  0  0  0  0  0
  -23.7230  -37.6470   23.6665 H   0  0  0  0  0  0
  -26.1036  -31.5323   20.5941 H   0  0  0  0  0  0
  -26.8552  -30.8306   21.9942 H   0  0  0  0  0  0
  -28.1233  -28.9507   21.1908 H   0  0  0  0  0  0
  -25.9595  -25.9094   19.0022 H   0  0  0  0  0  0
  -23.9783  -27.3037   19.0031 H   0  0  0  0  0  0
  -23.7691  -30.5867   19.3989 H   0  0  0  0  0  0
  -22.7648  -29.2416   19.8520 H   0  0  0  0  0  0
  -25.1293  -36.1886   25.0813 H   0  0  0  0  0  0
  -21.0010  -28.3315   24.1396 H   0  0  0  0  0  0
  -20.5729  -26.2333   23.3604 H   0  0  0  0  0  0
  -21.6652  -26.7487   22.1173 H   0  0  0  0  0  0
  -19.6915  -25.6333   21.1236 H   0  0  0  0  0  0
  -19.6699  -27.3245   20.6774 H   0  0  0  0  0  0
  -17.4209  -26.6727   21.4030 H   0  0  0  0  0  0
  -18.0318  -26.0115   22.9036 H   0  0  0  0  0  0
  -19.7943  -30.7337   24.2234 H   0  0  0  0  0  0
  -17.5016  -31.6282   24.5209 H   0  0  0  0  0  0
  -15.5364  -30.3022   23.7671 H   0  0  0  0  0  0
  -15.8676  -28.0884   22.7029 H   0  0  0  0  0  0
  -24.5979  -30.6991   25.7773 H   0  0  0  0  0  0
  -24.8929  -32.2870   26.4791 H   0  0  0  0  0  0
  -25.8127  -30.8951   27.0201 H   0  0  0  0  0  0
  -26.2924  -29.6722   24.1197 H   0  0  0  0  0  0
  -27.4113  -29.7247   25.4605 H   0  0  0  0  0  0
  -27.8772  -30.4267   23.9308 H   0  0  0  0  0  0
  -27.2691  -33.3610   26.2012 H   0  0  0  0  0  0
  -28.3934  -32.6808   25.0329 H   0  0  0  0  0  0
  -28.0703  -31.8432   26.5399 H   0  0  0  0  0  0
  -28.2596  -38.0075   24.7519 H   0  0  0  0  0  0
  -28.1036  -36.2602   24.6303 H   0  0  0  0  0  0
  -27.2283  -37.1423   25.8875 H   0  0  0  0  0  0
  -20.9382  -29.8742   21.6828 H   0  0  0  0  0  0
  -26.0129  -38.2823   24.1459 H   0  0  0  0  0  0
  -27.0428  -22.2840   19.4824 H   0  0  0  0  0  0
  -31.1508  -20.2942   23.1692 H   0  0  0  0  0  0
  -32.8401  -20.6522   22.5390 H   0  0  0  0  0  0
  -32.2726  -23.1084   22.4842 H   0  0  0  0  0  0
  -30.5888  -22.7167   23.1145 H   0  0  0  0  0  0
  -31.8941  -21.6881   20.4646 H   0  0  0  0  0  0
  -25.9616  -19.8554   19.3302 H   0  0  0  0  0  0
  -26.6391  -18.6646   20.4365 H   0  0  0  0  0  0
  -27.2118  -18.7450   18.7640 H   0  0  0  0  0  0
  -28.7713  -18.2044   21.7778 H   0  0  0  0  0  0
  -30.4382  -18.6167   21.8420 H   0  0  0  0  0  0
  -29.5556  -24.0600   21.4545 H   0  0  0  0  0  0
  -30.1087  -24.0242   19.8133 H   0  0  0  0  0  0
  -30.9312  -17.4336   19.7371 H   0  0  0  0  0  0
  -29.2534  -17.3414   19.3290 H   0  0  0  0  0  0
  -27.2162  -24.6584   20.6591 H   0  0  0  0  0  0
  -27.8145  -24.7085   19.0235 H   0  0  0  0  0  0
  -28.8875  -15.6105   21.0243 H   0  0  0  0  0  0
  1 25  1  0  0  0
  1 30  2  0  0  0
  1 84  1  0  0  0
  2  3  1  0  0  0
  2 25  1  0  0  0
  2 85  1  0  0  0
  2 86  1  0  0  0
  3  4  1  0  0  0
  3 87  1  0  0  0
  3 88  1  0  0  0
  4  5  1  0  0  0
  4 89  1  0  0  0
  4 90  1  0  0  0
  5  6  1  0  0  0
  5 26  1  0  0  0
  5 91  1  0  0  0
  6 25  1  0  0  0
  6 92  1  0  0  0
  6 93  1  0  0  0
  7  8  2  0  0  0
  7 26  1  0  0  0
  7 29  1  0  0  0
  8  9  1  0  0  0
  8 22  1  0  0  0
  9 10  1  0  0  0
  9 27  2  0  0  0
 10 11  2  0  0  0
 10 15  1  0  0  0
 11 12  1  0  0  0
 11 94  1  0  0  0
 12 13  2  0  0  0
 12 95  1  0  0  0
 13 14  1  0  0  0
 13 31  1  0  0  0
 14 15  2  0  0  0
 14 96  1  0  0  0
 15 97  1  0  0  0
 16 17  2  0  0  0
 16 21  1  0  0  0
 16 31  1  0  0  0
 17 18  1  0  0  0
 17 98  1  0  0  0
 18 19  2  0  0  0
 18 99  1  0  0  0
 19 20  1  0  0  0
 19 24  1  0  0  0
 20 21  2  0  0  0
 20100  1  0  0  0
 21 23  1  0  0  0
 22 28  1  0  0  0
 22 32  2  0  0  0
 26 27  1  0  0  0
 28101  1  0  0  0
 28102  1  0  0  0
 29103  1  0  0  0
 29104  1  0  0  0
 33 34  1  0  0  0
 33 66  1  0  0  0
 33 70  2  0  0  0
 34 36  1  0  0  0
 34 59  1  0  0  0
 34105  1  0  0  0
 35 44  2  0  0  0
 35 45  1  0  0  0
 35 68  1  0  0  0
 36 56  1  0  0  0
 36106  1  0  0  0
 37 39  1  0  0  0
 37 47  1  0  0  0
 37 66  1  0  0  0
 37107  1  0  0  0
 38 43  2  0  0  0
 38 46  1  0  0  0
 38 47  1  0  0  0
 39 64  1  0  0  0
 39 67  2  0  0  0
 40 52  1  0  0  0
 40 53  2  0  0  0
 40 58  1  0  0  0
 41108  1  0  0  0
 41109  1  0  0  0
 41110  1  0  0  0
 41 48  1  0  0  0
 42 43  1  0  0  0
 42 66  1  0  0  0
 42111  1  0  0  0
 42112  1  0  0  0
 43 44  1  0  0  0
 44113  1  0  0  0
 45 46  2  0  0  0
 45114  1  0  0  0
 46115  1  0  0  0
 47116  1  0  0  0
 47117  1  0  0  0
 48 56  1  0  0  0
 48 65  1  0  0  0
 48118  1  0  0  0
 49 50  1  0  0  0
 49 53  1  0  0  0
 49 64  1  0  0  0
 49119  1  0  0  0
 50 51  1  0  0  0
 50120  1  0  0  0
 50121  1  0  0  0
 51 52  1  0  0  0
 51122  1  0  0  0
 51123  1  0  0  0
 52124  1  0  0  0
 52125  1  0  0  0
 53 54  1  0  0  0
 54 55  2  0  0  0
 54126  1  0  0  0
 55 57  1  0  0  0
 55127  1  0  0  0
 56 69  2  0  0  0
 57 58  2  0  0  0
 57128  1  0  0  0
 58129  1  0  0  0
 59 60  1  0  0  0
 59 61  1  0  0  0
 59 62  1  0  0  0
 60130  1  0  0  0
 60131  1  0  0  0
 60132  1  0  0  0
 61133  1  0  0  0
 61134  1  0  0  0
 61135  1  0  0  0
 62136  1  0  0  0
 62137  1  0  0  0
 62138  1  0  0  0
 63 65  1  0  0  0
 63139  1  0  0  0
 63140  1  0  0  0
 63141  1  0  0  0
 64142  1  0  0  0
 65143  1  0  0  0
 68 82  1  0  0  0
 71 72  2  0  0  0
 71 83  1  0  0  0
 71144  1  0  0  0
 72 73  1  0  0  0
 72 78  1  0  0  0
 73 74  2  0  0  0
 73 79  1  0  0  0
 74 83  1  0  0  0
 74 77  1  0  0  0
 75 76  1  0  0  0
 75 77  1  0  0  0
 75145  1  0  0  0
 75146  1  0  0  0
 76 77  1  0  0  0
 76147  1  0  0  0
 76148  1  0  0  0
 77149  1  0  0  0
 78150  1  0  0  0
 78151  1  0  0  0
 78152  1  0  0  0
 79 81  1  0  0  0
 79153  1  0  0  0
 79154  1  0  0  0
 80 82  1  0  0  0
 80 83  1  0  0  0
 80155  1  0  0  0
 80156  1  0  0  0
 81 84  1  0  0  0
 81157  1  0  0  0
 81158  1  0  0  0
 82159  1  0  0  0
 82160  1  0  0  0
 84161  1  0  0  0
M  ISO  4   1 100  68 101  82 101  84 100
M  END
> <chiral flag>
0

> <version>
0

> <s_m_source_file>
/data/baiqing/PycharmProjects/Reinvent-master-3.2/result/LINK_invent/BTK/process_docking_weight1_custom_sum_contain_oxygen_bond_distance_aromatic_linkinvent_7_9_3/rearranged_h_0148.sdf

> <i_m_source_file_index>
71

> <r_mmod_Potential_Energy-OPLS-2005>
123.716537475586

> <r_mmod_Stretch_Energy-OPLS-2005>
120.683197021484

> <r_mmod_Bend_Energy-OPLS-2005>
166.874450683594

> <r_mmod_Torsional_Energy-OPLS-2005>
252.510040283203

> <r_mmod_Improper_Torsional_Energy-OPLS-2005>
6.79872179031372

> <r_mmod_Van_der_Waal_Energy-OPLS-2005>
109.586364746094

> <r_mmod_Electrostatic_Energy-OPLS-2005>
-395.607879638672

> <r_mmod_Solvation_Energy-OPLS-2005>
-216.432067871094

> <b_mmod_Minimization_Converged-OPLS-2005>
0

> <r_mmod_RMS_Derivative-OPLS-2005>
2.23928952217102

$$$$
71
                    3D
 Structure written by MMmdl.
165173  0  0  1  0            999 V2000
  -30.6466  -14.5507   20.5147 C   0  0  0  0  0  0
  -30.4288  -12.3373   19.4406 C   0  0  0  0  0  0
  -29.5005  -12.4986   18.2177 C   0  0  0  0  0  0
  -28.0221  -12.3493   18.6284 C   0  0  0  0  0  0
  -27.6559  -13.2067   19.8686 C   0  0  2  0  0  0
  -28.6974  -13.0262   20.9959 C   0  0  0  0  0  0
  -25.2569  -13.8134   20.5662 C   0  0  0  0  0  0
  -24.1825  -13.0429   20.9186 C   0  0  0  0  0  0
  -24.6375  -11.6896   20.8734 C   0  0  0  0  0  0
  -23.9042  -10.4289   21.0403 C   0  0  0  0  0  0
  -24.3597   -9.4206   21.9179 C   0  0  0  0  0  0
  -23.6280   -8.2237   22.0747 C   0  0  0  0  0  0
  -22.4262   -8.0272   21.3541 C   0  0  0  0  0  0
  -21.9895   -9.0243   20.4642 C   0  0  0  0  0  0
  -22.7215  -10.2127   20.3053 C   0  0  0  0  0  0
  -21.6855   -6.0734   22.5274 C   0  0  0  0  0  0
  -21.4018   -6.5638   23.8208 C   0  0  0  0  0  0
  -21.3655   -5.6793   24.9172 C   0  0  0  0  0  0
  -21.6037   -4.3054   24.7225 C   0  0  0  0  0  0
  -21.8820   -3.8147   23.4346 C   0  0  0  0  0  0
  -21.9195   -4.6963   22.3401 C   0  0  0  0  0  0
  -22.7853  -13.5238   21.1852 C   0  0  0  0  0  0
  -22.1662   -4.2144   21.0982 F   0  0  0  0  0  0
  -21.5621   -3.4534   25.7740 F   0  0  0  0  0  0
  -30.0221  -13.3408   20.4386 N   0  0  0  0  0  0
  -26.2991  -12.9300   20.3328 N   0  0  0  0  0  0
  -25.9300  -11.6464   20.5752 N   0  0  0  0  0  0
  -22.0487  -12.8233   22.0411 N   0  0  0  0  0  0
  -25.4307  -15.1831   20.4012 N   0  0  0  0  0  0
  -31.7970  -14.7321   20.1075 O   0  0  0  0  0  0
  -21.6636   -6.8863   21.4231 O   0  0  0  0  0  0
  -22.3546  -14.5549   20.6708 O   0  0  0  0  0  0
  -24.6181  -31.8642   23.2066 C   0  0  0  0  0  0
  -25.9059  -32.4800   23.8370 C   0  0  1  0  0  0
  -27.2334  -27.3890   20.0976 C   0  0  0  0  0  0
  -25.5904  -33.8599   24.2297 N   0  0  0  0  0  0
  -23.4073  -30.4866   21.5482 C   0  0  2  0  0  0
  -24.8525  -28.9435   20.1138 C   0  0  0  0  0  0
  -22.7415  -29.4646   22.4982 C   0  0  0  0  0  0
  -18.0278  -28.1387   22.8485 C   0  0  0  0  0  0
  -24.1492  -36.7306   23.2640 C   0  0  0  0  0  0
  -25.9398  -30.8137   21.3671 C   0  0  0  0  0  0
  -26.0134  -29.4448   20.7124 C   0  0  0  0  0  0
  -27.2022  -28.6731   20.7029 C   0  0  0  0  0  0
  -26.0510  -26.9127   19.4878 C   0  0  0  0  0  0
  -24.8679  -27.6787   19.4995 C   0  0  0  0  0  0
  -23.6170  -29.8165   20.1639 C   0  0  0  0  0  0
  -25.4114  -36.3093   24.0330 C   0  0  1  0  0  0
  -20.5864  -28.3678   23.1322 C   0  0  2  0  0  0
  -20.6775  -26.9411   22.5429 C   0  0  0  0  0  0
  -19.5769  -26.6403   21.5207 C   0  0  0  0  0  0
  -18.1939  -26.7939   22.1604 C   0  0  0  0  0  0
  -19.1520  -28.8849   23.2898 C   0  0  0  0  0  0
  -18.9442  -30.1454   23.8913 C   0  0  0  0  0  0
  -17.6440  -30.6586   24.0564 C   0  0  0  0  0  0
  -25.9045  -34.9460   23.5115 C   0  0  0  0  0  0
  -16.5336  -29.9083   23.6328 C   0  0  0  0  0  0
  -16.7262  -28.6507   23.0336 C   0  0  0  0  0  0
  -26.4478  -31.6595   25.0716 C   0  0  0  0  0  0
  -25.3737  -31.3715   26.1460 C   0  0  0  0  0  0
  -27.0314  -30.3032   24.6121 C   0  0  0  0  0  0
  -27.6041  -32.4326   25.7485 C   0  0  0  0  0  0
  -27.5579  -37.1809   24.8462 C   0  0  0  0  0  0
  -21.4138  -29.3050   22.3733 N   0  0  0  0  0  0
  -26.4295  -37.3781   23.9402 N   0  0  0  0  0  0
  -24.6736  -31.0701   22.0987 N   0  0  0  0  0  0
  -23.4167  -28.8186   23.3036 O   0  0  0  0  0  0
  -28.4118  -26.6565   20.1345 O   0  0  0  0  0  0
  -26.5609  -34.8922   22.4677 O   0  0  0  0  0  0
  -23.5369  -32.1409   23.7446 O   0  0  0  0  0  0
  -26.4542  -21.2339   19.8591 C   0  0  0  0  0  0
  -26.2318  -20.0499   20.7924 C   0  0  2  0  0  0
  -27.6818  -20.2993   21.2915 C   0  0  2  0  0  0
  -25.7522  -18.7265   20.2122 C   0  0  0  0  0  0
  -27.8728  -20.3172   22.8150 C   0  0  0  0  0  0
  -28.8585  -19.4734   20.6321 C   0  0  0  0  0  0
  -28.8877  -17.9399   21.0338 C   0  0  0  0  0  0
  -27.8894  -24.1804   20.5323 C   0  0  0  0  0  0
  -30.0726  -17.0346   20.5599 C   0  0  0  0  0  0
  -28.4199  -22.7062   20.3419 C   0  0  0  0  0  0
  -28.5078  -25.2969   19.6331 C   0  0  0  0  0  0
  -29.8464  -15.5927   20.8488 N   0  0  0  0  0  0
  -27.4176  -21.7139   20.8385 N   0  3  1  0  0  0
  -31.4730  -12.4463   19.1419 H   0  0  0  0  0  0
  -30.3426  -11.3337   19.8593 H   0  0  0  0  0  0
  -29.7529  -11.7598   17.4555 H   0  0  0  0  0  0
  -29.6574  -13.4775   17.7620 H   0  0  0  0  0  0
  -27.8473  -11.2944   18.8429 H   0  0  0  0  0  0
  -27.3690  -12.5986   17.7914 H   0  0  0  0  0  0
  -27.6859  -14.2480   19.5472 H   0  0  0  0  0  0
  -28.6844  -12.0006   21.3671 H   0  0  0  0  0  0
  -28.4540  -13.6533   21.8554 H   0  0  0  0  0  0
  -25.2737   -9.5687   22.4757 H   0  0  0  0  0  0
  -23.9992   -7.4631   22.7465 H   0  0  0  0  0  0
  -21.0825   -8.8761   19.8948 H   0  0  0  0  0  0
  -22.3664  -10.9671   19.6169 H   0  0  0  0  0  0
  -21.2020   -7.6147   23.9710 H   0  0  0  0  0  0
  -21.1467   -6.0522   25.9072 H   0  0  0  0  0  0
  -22.0606   -2.7605   23.2852 H   0  0  0  0  0  0
  -22.4105  -11.9895   22.4796 H   0  0  0  0  0  0
  -21.1107  -13.1255   22.2623 H   0  0  0  0  0  0
  -24.6554  -15.8318   20.4753 H   0  0  0  0  0  0
  -26.2694  -15.6047   20.0261 H   0  0  0  0  0  0
  -26.7120  -32.5488   23.1119 H   0  0  0  0  0  0
  -25.0046  -33.9753   25.0436 H   0  0  0  0  0  0
  -22.6985  -31.3052   21.4073 H   0  0  0  0  0  0
  -23.3747  -35.9647   23.3311 H   0  0  0  0  0  0
  -24.3581  -36.8917   22.2052 H   0  0  0  0  0  0
  -23.7257  -37.6518   23.6656 H   0  0  0  0  0  0
  -26.0610  -31.5788   20.5993 H   0  0  0  0  0  0
  -26.8240  -30.8640   21.9907 H   0  0  0  0  0  0
  -28.0974  -29.0565   21.1733 H   0  0  0  0  0  0
  -26.0214  -25.9490   19.0022 H   0  0  0  0  0  0
  -23.9737  -27.2884   19.0334 H   0  0  0  0  0  0
  -23.7302  -30.5905   19.4042 H   0  0  0  0  0  0
  -22.7390  -29.2406   19.8672 H   0  0  0  0  0  0
  -25.1299  -36.1951   25.0824 H   0  0  0  0  0  0
  -20.9949  -28.3250   24.1444 H   0  0  0  0  0  0
  -20.5687  -26.2269   23.3608 H   0  0  0  0  0  0
  -21.6648  -26.7472   22.1225 H   0  0  0  0  0  0
  -19.6944  -25.6322   21.1215 H   0  0  0  0  0  0
  -19.6728  -27.3234   20.6758 H   0  0  0  0  0  0
  -17.4221  -26.6706   21.3992 H   0  0  0  0  0  0
  -18.0338  -26.0068   22.8984 H   0  0  0  0  0  0
  -19.7907  -30.7277   24.2300 H   0  0  0  0  0  0
  -17.4987  -31.6266   24.5166 H   0  0  0  0  0  0
  -15.5337  -30.2983   23.7650 H   0  0  0  0  0  0
  -15.8666  -28.0831   22.7031 H   0  0  0  0  0  0
  -24.5895  -30.7081   25.7797 H   0  0  0  0  0  0
  -24.8948  -32.2878   26.4923 H   0  0  0  0  0  0
  -25.8079  -30.8867   27.0211 H   0  0  0  0  0  0
  -26.2867  -29.6793   24.1165 H   0  0  0  0  0  0
  -27.4060  -29.7275   25.4594 H   0  0  0  0  0  0
  -27.8714  -30.4343   23.9294 H   0  0  0  0  0  0
  -27.2643  -33.3607   26.2094 H   0  0  0  0  0  0
  -28.3836  -32.6920   25.0307 H   0  0  0  0  0  0
  -28.0730  -31.8436   26.5378 H   0  0  0  0  0  0
  -28.2604  -38.0101   24.7496 H   0  0  0  0  0  0
  -28.1071  -36.2628   24.6308 H   0  0  0  0  0  0
  -27.2292  -37.1479   25.8866 H   0  0  0  0  0  0
  -20.9301  -29.8770   21.6952 H   0  0  0  0  0  0
  -26.0183  -38.2861   24.1393 H   0  0  0  0  0  0
  -25.5894  -21.8851   19.7295 H   0  0  0  0  0  0
  -26.9053  -20.9633   18.9021 H   0  0  0  0  0  0
  -25.5314  -20.3524   21.5767 H   0  0  0  0  0  0
  -25.7709  -17.9401   20.9654 H   0  0  0  0  0  0
  -26.3535  -18.4087   19.3602 H   0  0  0  0  0  0
  -24.7226  -18.8005   19.8617 H   0  0  0  0  0  0
  -27.1406  -20.9544   23.3126 H   0  0  0  0  0  0
  -28.8613  -20.6817   23.0984 H   0  0  0  0  0  0
  -27.7496  -19.3306   23.2587 H   0  0  0  0  0  0
  -29.8168  -19.9189   20.9013 H   0  0  0  0  0  0
  -28.8092  -19.5411   19.5444 H   0  0  0  0  0  0
  -27.9791  -17.4700   20.6721 H   0  0  0  0  0  0
  -28.8455  -17.8472   22.1172 H   0  0  0  0  0  0
  -28.0335  -24.4571   21.5769 H   0  0  0  0  0  0
  -26.8105  -24.1983   20.3771 H   0  0  0  0  0  0
  -31.0042  -17.3561   21.0281 H   0  0  0  0  0  0
  -30.2080  -17.1526   19.4835 H   0  0  0  0  0  0
  -29.3525  -22.5866   20.8929 H   0  0  0  0  0  0
  -28.6501  -22.5038   19.2962 H   0  0  0  0  0  0
  -29.5761  -25.0986   19.5494 H   0  0  0  0  0  0
  -28.1268  -25.2322   18.6131 H   0  0  0  0  0  0
  -28.9286  -15.3375   21.1793 H   0  0  0  0  0  0
  -26.9001  -22.1582   21.5824 H   0  0  0  0  0  0
  1 25  1  0  0  0
  1 30  2  0  0  0
  1 82  1  0  0  0
  2  3  1  0  0  0
  2 25  1  0  0  0
  2 84  1  0  0  0
  2 85  1  0  0  0
  3  4  1  0  0  0
  3 86  1  0  0  0
  3 87  1  0  0  0
  4  5  1  0  0  0
  4 88  1  0  0  0
  4 89  1  0  0  0
  5  6  1  0  0  0
  5 26  1  0  0  0
  5 90  1  0  0  0
  6 25  1  0  0  0
  6 91  1  0  0  0
  6 92  1  0  0  0
  7  8  2  0  0  0
  7 26  1  0  0  0
  7 29  1  0  0  0
  8  9  1  0  0  0
  8 22  1  0  0  0
  9 10  1  0  0  0
  9 27  2  0  0  0
 10 11  2  0  0  0
 10 15  1  0  0  0
 11 12  1  0  0  0
 11 93  1  0  0  0
 12 13  2  0  0  0
 12 94  1  0  0  0
 13 14  1  0  0  0
 13 31  1  0  0  0
 14 15  2  0  0  0
 14 95  1  0  0  0
 15 96  1  0  0  0
 16 17  2  0  0  0
 16 21  1  0  0  0
 16 31  1  0  0  0
 17 18  1  0  0  0
 17 97  1  0  0  0
 18 19  2  0  0  0
 18 98  1  0  0  0
 19 20  1  0  0  0
 19 24  1  0  0  0
 20 21  2  0  0  0
 20 99  1  0  0  0
 21 23  1  0  0  0
 22 28  1  0  0  0
 22 32  2  0  0  0
 26 27  1  0  0  0
 28100  1  0  0  0
 28101  1  0  0  0
 29102  1  0  0  0
 29103  1  0  0  0
 33 34  1  0  0  0
 33 66  1  0  0  0
 33 70  2  0  0  0
 34 36  1  0  0  0
 34 59  1  0  0  0
 34104  1  0  0  0
 35 44  2  0  0  0
 35 45  1  0  0  0
 35 68  1  0  0  0
 36 56  1  0  0  0
 36105  1  0  0  0
 37 39  1  0  0  0
 37 47  1  0  0  0
 37 66  1  0  0  0
 37106  1  0  0  0
 38 43  2  0  0  0
 38 46  1  0  0  0
 38 47  1  0  0  0
 39 64  1  0  0  0
 39 67  2  0  0  0
 40 52  1  0  0  0
 40 53  2  0  0  0
 40 58  1  0  0  0
 41107  1  0  0  0
 41108  1  0  0  0
 41109  1  0  0  0
 41 48  1  0  0  0
 42 43  1  0  0  0
 42 66  1  0  0  0
 42110  1  0  0  0
 42111  1  0  0  0
 43 44  1  0  0  0
 44112  1  0  0  0
 45 46  2  0  0  0
 45113  1  0  0  0
 46114  1  0  0  0
 47115  1  0  0  0
 47116  1  0  0  0
 48 56  1  0  0  0
 48 65  1  0  0  0
 48117  1  0  0  0
 49 50  1  0  0  0
 49 53  1  0  0  0
 49 64  1  0  0  0
 49118  1  0  0  0
 50 51  1  0  0  0
 50119  1  0  0  0
 50120  1  0  0  0
 51 52  1  0  0  0
 51121  1  0  0  0
 51122  1  0  0  0
 52123  1  0  0  0
 52124  1  0  0  0
 53 54  1  0  0  0
 54 55  2  0  0  0
 54125  1  0  0  0
 55 57  1  0  0  0
 55126  1  0  0  0
 56 69  2  0  0  0
 57 58  2  0  0  0
 57127  1  0  0  0
 58128  1  0  0  0
 59 60  1  0  0  0
 59 61  1  0  0  0
 59 62  1  0  0  0
 60129  1  0  0  0
 60130  1  0  0  0
 60131  1  0  0  0
 61132  1  0  0  0
 61133  1  0  0  0
 61134  1  0  0  0
 62135  1  0  0  0
 62136  1  0  0  0
 62137  1  0  0  0
 63 65  1  0  0  0
 63138  1  0  0  0
 63139  1  0  0  0
 63140  1  0  0  0
 64141  1  0  0  0
 65142  1  0  0  0
 68 81  1  0  0  0
 71 72  1  0  0  0
 71 83  1  0  0  0
 71143  1  0  0  0
 71144  1  0  0  0
 72 73  1  0  0  0
 72 74  1  0  0  0
 72145  1  0  0  0
 73 75  1  0  0  0
 73 76  1  0  0  0
 73 83  1  0  0  0
 74146  1  0  0  0
 74147  1  0  0  0
 74148  1  0  0  0
 75149  1  0  0  0
 75150  1  0  0  0
 75151  1  0  0  0
 76 77  1  0  0  0
 76152  1  0  0  0
 76153  1  0  0  0
 77 79  1  0  0  0
 77154  1  0  0  0
 77155  1  0  0  0
 78 80  1  0  0  0
 78 81  1  0  0  0
 78156  1  0  0  0
 78157  1  0  0  0
 79 82  1  0  0  0
 79158  1  0  0  0
 79159  1  0  0  0
 80160  1  0  0  0
 80161  1  0  0  0
 80 83  1  0  0  0
 81162  1  0  0  0
 81163  1  0  0  0
 82164  1  0  0  0
 83165  1  0  0  0
M  CHG  1  83   1
M  ISO  4   1 100  68 101  81 101  82 100
M  END
> <chiral flag>
0

> <version>
0

> <s_m_source_file>
/data/baiqing/PycharmProjects/Reinvent-master-3.2/result/LINK_invent/BTK/process_docking_weight1_custom_sum_contain_oxygen_bond_distance_aromatic_linkinvent_7_9_3/rearranged_h_0148.sdf

> <i_m_source_file_index>
72

> <r_mmod_Potential_Energy-OPLS-2005>
-62.3074645996094

> <r_mmod_Stretch_Energy-OPLS-2005>
56.9209976196289

> <r_mmod_Bend_Energy-OPLS-2005>
155.34375

> <r_mmod_Torsional_Energy-OPLS-2005>
241.891738891602

> <r_mmod_Improper_Torsional_Energy-OPLS-2005>
5.87613439559937

> <r_mmod_Van_der_Waal_Energy-OPLS-2005>
122.598838806152

> <r_mmod_Electrostatic_Energy-OPLS-2005>
-225.450241088867

> <r_mmod_Solvation_Energy-OPLS-2005>
-443.129364013672

> <b_mmod_Minimization_Converged-OPLS-2005>
0

> <r_mmod_RMS_Derivative-OPLS-2005>
1.49494385719299

$$$$
72
                    3D
 Structure written by MMmdl.
175184  0  0  1  0            999 V2000
  -30.5938  -15.0270   20.4045 C   0  0  0  0  0  0
  -30.4193  -12.6372   19.5328 C   0  0  0  0  0  0
  -29.5433  -12.4956   18.2617 C   0  0  0  0  0  0
  -28.0442  -12.7793   18.5213 C   0  0  0  0  0  0
  -27.7202  -12.7872   20.0208 C   0  0  2  0  0  0
  -28.6554  -13.4990   20.9991 C   0  0  0  0  0  0
  -25.3110  -13.7538   20.5503 C   0  0  0  0  0  0
  -24.1905  -13.0371   20.9038 C   0  0  0  0  0  0
  -24.5808  -11.6679   20.8821 C   0  0  0  0  0  0
  -23.8491  -10.4229   21.0588 C   0  0  0  0  0  0
  -24.3228   -9.4177   21.9307 C   0  0  0  0  0  0
  -23.6096   -8.2130   22.0790 C   0  0  0  0  0  0
  -22.4124   -8.0110   21.3538 C   0  0  0  0  0  0
  -21.9649   -9.0055   20.4669 C   0  0  0  0  0  0
  -22.6791  -10.2032   20.3147 C   0  0  0  0  0  0
  -21.6764   -6.0654   22.5311 C   0  0  0  0  0  0
  -21.3969   -6.5608   23.8231 C   0  0  0  0  0  0
  -21.3653   -5.6773   24.9205 C   0  0  0  0  0  0
  -21.6052   -4.3030   24.7254 C   0  0  0  0  0  0
  -21.8826   -3.8101   23.4390 C   0  0  0  0  0  0
  -21.9177   -4.6900   22.3444 C   0  0  0  0  0  0
  -22.8082  -13.5551   21.1731 C   0  0  0  0  0  0
  -22.1655   -4.2099   21.1027 F   0  0  0  0  0  0
  -21.5636   -3.4505   25.7756 F   0  0  0  0  0  0
  -29.9375  -13.7967   20.3550 N   0  0  0  0  0  0
  -26.3105  -12.7928   20.3740 N   0  0  0  0  0  0
  -25.8457  -11.5529   20.5844 N   0  0  0  0  0  0
  -22.0555  -12.8684   22.0268 N   0  0  0  0  0  0
  -25.5489  -15.1146   20.3739 N   0  0  0  0  0  0
  -31.7668  -15.0387   20.0166 O   0  0  0  0  0  0
  -21.6546   -6.8708   21.4218 O   0  0  0  0  0  0
  -22.3987  -14.5942   20.6617 O   0  0  0  0  0  0
  -24.6469  -31.8406   23.1845 C   0  0  0  0  0  0
  -25.9222  -32.4661   23.8249 C   0  0  1  0  0  0
  -27.2010  -27.0848   20.1653 C   0  0  0  0  0  0
  -25.5963  -33.8476   24.2162 N   0  0  0  0  0  0
  -23.4530  -30.4579   21.5332 C   0  0  2  0  0  0
  -24.8996  -28.8801   20.1103 C   0  0  0  0  0  0
  -22.7585  -29.4523   22.4875 C   0  0  0  0  0  0
  -18.0310  -28.1423   22.8467 C   0  0  0  0  0  0
  -24.1512  -36.7251   23.2650 C   0  0  0  0  0  0
  -26.0136  -30.6943   21.3945 C   0  0  0  0  0  0
  -26.0788  -29.3028   20.7369 C   0  0  0  0  0  0
  -27.2305  -28.4224   20.7465 C   0  0  0  0  0  0
  -26.0030  -26.7847   19.4812 C   0  0  0  0  0  0
  -24.8804  -27.6385   19.4604 C   0  0  0  0  0  0
  -23.6784  -29.7860   20.1532 C   0  0  0  0  0  0
  -25.4142  -36.3030   24.0319 C   0  0  1  0  0  0
  -20.5921  -28.3737   23.1244 C   0  0  2  0  0  0
  -20.6810  -26.9446   22.5414 C   0  0  0  0  0  0
  -19.5783  -26.6397   21.5227 C   0  0  0  0  0  0
  -18.1958  -26.7952   22.1623 C   0  0  0  0  0  0
  -19.1568  -28.8902   23.2838 C   0  0  0  0  0  0
  -18.9480  -30.1509   23.8847 C   0  0  0  0  0  0
  -17.6469  -30.6608   24.0567 C   0  0  0  0  0  0
  -25.9093  -34.9397   23.5044 C   0  0  0  0  0  0
  -16.5360  -29.9098   23.6360 C   0  0  0  0  0  0
  -16.7288  -28.6539   23.0333 C   0  0  0  0  0  0
  -26.4527  -31.6550   25.0710 C   0  0  0  0  0  0
  -25.3690  -31.3726   26.1383 C   0  0  0  0  0  0
  -27.0418  -30.2946   24.6344 C   0  0  0  0  0  0
  -27.6051  -32.4329   25.7490 C   0  0  0  0  0  0
  -27.5581  -37.1791   24.8458 C   0  0  0  0  0  0
  -21.4271  -29.3039   22.3609 N   0  0  0  0  0  0
  -26.4299  -37.3736   23.9398 N   0  0  0  0  0  0
  -24.7256  -31.0208   22.0908 N   0  0  0  0  0  0
  -23.4214  -28.8101   23.3067 O   0  0  0  0  0  0
  -28.2317  -26.0629   20.2203 O   0  0  0  0  0  0
  -26.5690  -34.8892   22.4631 O   0  0  0  0  0  0
  -23.5576  -32.1311   23.7043 O   0  0  0  0  0  0
  -27.6258  -19.4030   18.9000 C   0  0  0  0  0  0
  -26.9342  -21.2082   17.4939 C   0  0  0  0  0  0
  -28.5008  -20.2016   19.6842 C   0  0  0  0  0  0
  -26.8168  -19.8790   17.8687 C   0  0  0  0  0  0
  -27.7272  -22.0990   18.2358 C   0  0  0  0  0  0
  -28.3837  -21.7262   19.4640 C   0  0  0  0  0  0
  -29.0610  -17.6048   22.7637 C   0  0  0  0  0  0
  -30.0565  -16.5680   22.1799 C   0  0  0  0  0  0
  -29.9275  -17.6513   19.9959 C   0  0  0  0  0  0
  -29.3148  -19.1110   20.6393 C   0  0  2  0  0  0
  -28.3930  -18.6115   21.7821 C   0  0  2  0  0  0
  -25.8753  -18.9552   17.1218 C   0  0  0  0  0  0
  -27.8385  -23.4752   17.5774 C   0  0  0  0  0  0
  -26.3952  -19.3138   23.0596 C   0  0  0  0  0  0
  -28.5068  -20.5377   23.4006 C   0  0  0  0  0  0
  -28.8517  -23.1000   20.2688 C   0  0  0  0  0  0
  -27.8980  -24.5293   20.3974 C   0  0  0  0  0  0
  -29.9250  -16.2569   20.7501 N   0  0  0  0  0  0
  -27.6837  -19.7340   22.4620 N   0  3  0  0  0  0
  -31.4677  -12.7307   19.2463 H   0  0  0  0  0  0
  -30.3658  -11.7242   20.1330 H   0  0  0  0  0  0
  -29.6698  -11.4878   17.8639 H   0  0  0  0  0  0
  -29.9051  -13.1652   17.4816 H   0  0  0  0  0  0
  -27.4232  -12.0572   17.9875 H   0  0  0  0  0  0
  -27.7929  -13.7585   18.1131 H   0  0  0  0  0  0
  -28.0363  -11.7620   20.2403 H   0  0  0  0  0  0
  -28.8098  -12.9058   21.9035 H   0  0  0  0  0  0
  -28.1704  -14.4188   21.3281 H   0  0  0  0  0  0
  -25.2364   -9.5698   22.4872 H   0  0  0  0  0  0
  -23.9903   -7.4521   22.7472 H   0  0  0  0  0  0
  -21.0609   -8.8459   19.8973 H   0  0  0  0  0  0
  -22.3208  -10.9549   19.6247 H   0  0  0  0  0  0
  -21.1946   -7.6130   23.9701 H   0  0  0  0  0  0
  -21.1479   -6.0536   25.9106 H   0  0  0  0  0  0
  -22.0621   -2.7557   23.2916 H   0  0  0  0  0  0
  -22.3919  -12.0275   22.4710 H   0  0  0  0  0  0
  -21.1284  -13.2046   22.2517 H   0  0  0  0  0  0
  -24.7994  -15.7964   20.3845 H   0  0  0  0  0  0
  -26.4229  -15.4749   20.0148 H   0  0  0  0  0  0
  -26.7293  -32.5258   23.0975 H   0  0  0  0  0  0
  -25.0031  -33.9592   25.0258 H   0  0  0  0  0  0
  -22.7580  -31.2860   21.3796 H   0  0  0  0  0  0
  -23.3779  -35.9572   23.3278 H   0  0  0  0  0  0
  -24.3599  -36.8912   22.2070 H   0  0  0  0  0  0
  -23.7261  -37.6435   23.6700 H   0  0  0  0  0  0
  -26.1772  -31.4481   20.6234 H   0  0  0  0  0  0
  -26.8785  -30.7420   22.0440 H   0  0  0  0  0  0
  -28.1272  -28.7377   21.2602 H   0  0  0  0  0  0
  -25.8947  -25.8465   18.9593 H   0  0  0  0  0  0
  -23.9907  -27.3155   18.9396 H   0  0  0  0  0  0
  -23.8092  -30.5577   19.3943 H   0  0  0  0  0  0
  -22.7921  -29.2266   19.8481 H   0  0  0  0  0  0
  -25.1339  -36.1850   25.0812 H   0  0  0  0  0  0
  -20.9991  -28.3342   24.1372 H   0  0  0  0  0  0
  -20.5759  -26.2341   23.3635 H   0  0  0  0  0  0
  -21.6675  -26.7501   22.1184 H   0  0  0  0  0  0
  -19.6948  -25.6307   21.1276 H   0  0  0  0  0  0
  -19.6722  -27.3192   20.6754 H   0  0  0  0  0  0
  -17.4233  -26.6681   21.4023 H   0  0  0  0  0  0
  -18.0356  -26.0125   22.9053 H   0  0  0  0  0  0
  -19.7954  -30.7362   24.2161 H   0  0  0  0  0  0
  -17.5017  -31.6270   24.5198 H   0  0  0  0  0  0
  -15.5362  -30.2962   23.7740 H   0  0  0  0  0  0
  -15.8692  -28.0865   22.7015 H   0  0  0  0  0  0
  -24.5885  -30.7065   25.7666 H   0  0  0  0  0  0
  -24.8859  -32.2903   26.4767 H   0  0  0  0  0  0
  -25.7965  -30.8907   27.0190 H   0  0  0  0  0  0
  -26.3056  -29.6637   24.1346 H   0  0  0  0  0  0
  -27.3994  -29.7283   25.4955 H   0  0  0  0  0  0
  -27.8975  -30.4158   23.9692 H   0  0  0  0  0  0
  -27.2630  -33.3641   26.2020 H   0  0  0  0  0  0
  -28.3875  -32.6882   25.0323 H   0  0  0  0  0  0
  -28.0700  -31.8487   26.5446 H   0  0  0  0  0  0
  -28.2596  -38.0097   24.7528 H   0  0  0  0  0  0
  -28.1098  -36.2635   24.6275 H   0  0  0  0  0  0
  -27.2292  -37.1400   25.8859 H   0  0  0  0  0  0
  -20.9520  -29.8710   21.6727 H   0  0  0  0  0  0
  -26.0172  -38.2806   24.1378 H   0  0  0  0  0  0
  -27.5427  -18.3439   19.0887 H   0  0  0  0  0  0
  -26.4009  -21.5491   16.6167 H   0  0  0  0  0  0
  -29.6063  -18.1319   23.5443 H   0  0  0  0  0  0
  -28.2677  -17.0645   23.2836 H   0  0  0  0  0  0
  -29.9972  -15.6538   22.7788 H   0  0  0  0  0  0
  -31.0730  -16.9397   22.3310 H   0  0  0  0  0  0
  -30.9668  -17.8385   19.7199 H   0  0  0  0  0  0
  -29.4458  -17.4447   19.0399 H   0  0  0  0  0  0
  -30.1572  -19.6449   21.0799 H   0  0  0  0  0  0
  -27.6177  -18.0235   21.2879 H   0  0  0  0  0  0
  -25.8679  -17.9515   17.5467 H   0  0  0  0  0  0
  -26.1638  -18.8778   16.0742 H   0  0  0  0  0  0
  -24.8577  -19.3463   17.1634 H   0  0  0  0  0  0
  -26.9279  -24.0561   17.7309 H   0  0  0  0  0  0
  -27.9391  -23.3610   16.4959 H   0  0  0  0  0  0
  -28.7093  -24.0536   17.8864 H   0  0  0  0  0  0
  -25.7479  -18.8710   22.3001 H   0  0  0  0  0  0
  -25.8633  -20.1622   23.4900 H   0  0  0  0  0  0
  -26.5432  -18.5745   23.8483 H   0  0  0  0  0  0
  -29.4764  -20.7995   22.9783 H   0  0  0  0  0  0
  -28.6774  -20.0078   24.3384 H   0  0  0  0  0  0
  -28.0019  -21.4727   23.6439 H   0  0  0  0  0  0
  -29.8089  -23.3942   19.8384 H   0  0  0  0  0  0
  -29.1025  -22.7885   21.2819 H   0  0  0  0  0  0
  -27.5599  -24.4957   21.4337 H   0  0  0  0  0  0
  -26.9637  -24.3124   19.8936 H   0  0  0  0  0  0
  -27.4359  -20.3615   21.7075 H   0  0  0  0  0  0
  1 25  1  0  0  0
  1 30  2  0  0  0
  1 88  1  0  0  0
  2  3  1  0  0  0
  2 25  1  0  0  0
  2 90  1  0  0  0
  2 91  1  0  0  0
  3  4  1  0  0  0
  3 92  1  0  0  0
  3 93  1  0  0  0
  4  5  1  0  0  0
  4 94  1  0  0  0
  4 95  1  0  0  0
  5  6  1  0  0  0
  5 26  1  0  0  0
  5 96  1  0  0  0
  6 25  1  0  0  0
  6 97  1  0  0  0
  6 98  1  0  0  0
  7  8  2  0  0  0
  7 26  1  0  0  0
  7 29  1  0  0  0
  8  9  1  0  0  0
  8 22  1  0  0  0
  9 10  1  0  0  0
  9 27  2  0  0  0
 10 11  2  0  0  0
 10 15  1  0  0  0
 11 12  1  0  0  0
 11 99  1  0  0  0
 12 13  2  0  0  0
 12100  1  0  0  0
 13 14  1  0  0  0
 13 31  1  0  0  0
 14 15  2  0  0  0
 14101  1  0  0  0
 15102  1  0  0  0
 16 17  2  0  0  0
 16 21  1  0  0  0
 16 31  1  0  0  0
 17 18  1  0  0  0
 17103  1  0  0  0
 18 19  2  0  0  0
 18104  1  0  0  0
 19 20  1  0  0  0
 19 24  1  0  0  0
 20 21  2  0  0  0
 20105  1  0  0  0
 21 23  1  0  0  0
 22 28  1  0  0  0
 22 32  2  0  0  0
 26 27  1  0  0  0
 28106  1  0  0  0
 28107  1  0  0  0
 29108  1  0  0  0
 29109  1  0  0  0
 33 34  1  0  0  0
 33 66  1  0  0  0
 33 70  2  0  0  0
 34 36  1  0  0  0
 34 59  1  0  0  0
 34110  1  0  0  0
 35 44  2  0  0  0
 35 45  1  0  0  0
 35 68  1  0  0  0
 36 56  1  0  0  0
 36111  1  0  0  0
 37 39  1  0  0  0
 37 47  1  0  0  0
 37 66  1  0  0  0
 37112  1  0  0  0
 38 43  2  0  0  0
 38 46  1  0  0  0
 38 47  1  0  0  0
 39 64  1  0  0  0
 39 67  2  0  0  0
 40 52  1  0  0  0
 40 53  2  0  0  0
 40 58  1  0  0  0
 41113  1  0  0  0
 41114  1  0  0  0
 41115  1  0  0  0
 41 48  1  0  0  0
 42 43  1  0  0  0
 42 66  1  0  0  0
 42116  1  0  0  0
 42117  1  0  0  0
 43 44  1  0  0  0
 44118  1  0  0  0
 45 46  2  0  0  0
 45119  1  0  0  0
 46120  1  0  0  0
 47121  1  0  0  0
 47122  1  0  0  0
 48 56  1  0  0  0
 48 65  1  0  0  0
 48123  1  0  0  0
 49 50  1  0  0  0
 49 53  1  0  0  0
 49 64  1  0  0  0
 49124  1  0  0  0
 50 51  1  0  0  0
 50125  1  0  0  0
 50126  1  0  0  0
 51 52  1  0  0  0
 51127  1  0  0  0
 51128  1  0  0  0
 52129  1  0  0  0
 52130  1  0  0  0
 53 54  1  0  0  0
 54 55  2  0  0  0
 54131  1  0  0  0
 55 57  1  0  0  0
 55132  1  0  0  0
 56 69  2  0  0  0
 57 58  2  0  0  0
 57133  1  0  0  0
 58134  1  0  0  0
 59 60  1  0  0  0
 59 61  1  0  0  0
 59 62  1  0  0  0
 60135  1  0  0  0
 60136  1  0  0  0
 60137  1  0  0  0
 61138  1  0  0  0
 61139  1  0  0  0
 61140  1  0  0  0
 62141  1  0  0  0
 62142  1  0  0  0
 62143  1  0  0  0
 63 65  1  0  0  0
 63144  1  0  0  0
 63145  1  0  0  0
 63146  1  0  0  0
 64147  1  0  0  0
 65148  1  0  0  0
 68 87  1  0  0  0
 71 73  2  0  0  0
 71 74  1  0  0  0
 71149  1  0  0  0
 72 74  2  0  0  0
 72 75  1  0  0  0
 72150  1  0  0  0
 73 76  1  0  0  0
 73 80  1  0  0  0
 74 82  1  0  0  0
 75 76  2  0  0  0
 75 83  1  0  0  0
 76 86  1  0  0  0
 77 78  1  0  0  0
 77151  1  0  0  0
 77152  1  0  0  0
 77 81  1  0  0  0
 78 88  1  0  0  0
 78153  1  0  0  0
 78154  1  0  0  0
 79 80  1  0  0  0
 79 88  1  0  0  0
 79155  1  0  0  0
 79156  1  0  0  0
 80 81  1  0  0  0
 80157  1  0  0  0
 81 89  1  0  0  0
 81158  1  0  0  0
 82159  1  0  0  0
 82160  1  0  0  0
 82161  1  0  0  0
 83162  1  0  0  0
 83163  1  0  0  0
 83164  1  0  0  0
 84165  1  0  0  0
 84166  1  0  0  0
 84167  1  0  0  0
 84 89  1  0  0  0
 85 89  1  0  0  0
 85168  1  0  0  0
 85169  1  0  0  0
 85170  1  0  0  0
 86 87  1  0  0  0
 86171  1  0  0  0
 86172  1  0  0  0
 87173  1  0  0  0
 87174  1  0  0  0
 89175  1  0  0  0
M  CHG  1  89   1
M  ISO  4   1 100  68 101  87 101  88 100
M  END
> <chiral flag>
0

> <version>
0

> <s_m_source_file>
/data/baiqing/PycharmProjects/Reinvent-master-3.2/result/LINK_invent/BTK/process_docking_weight1_custom_sum_contain_oxygen_bond_distance_aromatic_linkinvent_7_9_3/rearranged_h_0148.sdf

> <i_m_source_file_index>
73

> <r_mmod_Potential_Energy-OPLS-2005>
1018.74694824219

> <r_mmod_Stretch_Energy-OPLS-2005>
345.354644775391

> <r_mmod_Bend_Energy-OPLS-2005>
403.83349609375

> <r_mmod_Torsional_Energy-OPLS-2005>
428.516265869141

> <r_mmod_Improper_Torsional_Energy-OPLS-2005>
7.04427289962769

> <r_mmod_Van_der_Waal_Energy-OPLS-2005>
158.315841674805

> <r_mmod_Electrostatic_Energy-OPLS-2005>
-212.060729980469

> <r_mmod_Solvation_Energy-OPLS-2005>
-417.869842529297

> <b_mmod_Minimization_Converged-OPLS-2005>
0

> <r_mmod_RMS_Derivative-OPLS-2005>
4.54865455627441

$$$$
73
                    3D
 Structure written by MMmdl.
181191  0  0  1  0            999 V2000
  -30.7097  -14.4518   20.5748 C   0  0  0  0  0  0
  -30.4194  -12.2941   19.4219 C   0  0  0  0  0  0
  -29.4912  -12.4965   18.2065 C   0  0  0  0  0  0
  -28.0128  -12.3647   18.6217 C   0  0  0  0  0  0
  -27.6611  -13.2061   19.8783 C   0  0  2  0  0  0
  -28.7029  -12.9888   20.9991 C   0  0  0  0  0  0
  -25.2590  -13.8149   20.5714 C   0  0  0  0  0  0
  -24.1835  -13.0435   20.9195 C   0  0  0  0  0  0
  -24.6390  -11.6900   20.8760 C   0  0  0  0  0  0
  -23.9058  -10.4288   21.0415 C   0  0  0  0  0  0
  -24.3614   -9.4198   21.9186 C   0  0  0  0  0  0
  -23.6288   -8.2234   22.0754 C   0  0  0  0  0  0
  -22.4268   -8.0275   21.3549 C   0  0  0  0  0  0
  -21.9905   -9.0249   20.4652 C   0  0  0  0  0  0
  -22.7236  -10.2127   20.3059 C   0  0  0  0  0  0
  -21.6847   -6.0735   22.5296 C   0  0  0  0  0  0
  -21.4013   -6.5646   23.8229 C   0  0  0  0  0  0
  -21.3653   -5.6803   24.9195 C   0  0  0  0  0  0
  -21.6039   -4.3063   24.7245 C   0  0  0  0  0  0
  -21.8811   -3.8157   23.4368 C   0  0  0  0  0  0
  -21.9188   -4.6967   22.3421 C   0  0  0  0  0  0
  -22.7856  -13.5238   21.1862 C   0  0  0  0  0  0
  -22.1648   -4.2151   21.0993 F   0  0  0  0  0  0
  -21.5632   -3.4536   25.7753 F   0  0  0  0  0  0
  -30.0332  -13.2803   20.4422 N   0  0  0  0  0  0
  -26.3031  -12.9330   20.3407 N   0  0  0  0  0  0
  -25.9325  -11.6490   20.5800 N   0  0  0  0  0  0
  -22.0497  -12.8232   22.0415 N   0  0  0  0  0  0
  -25.4323  -15.1863   20.4136 N   0  0  0  0  0  0
  -31.8594  -14.6075   20.1492 O   0  0  0  0  0  0
  -21.6635   -6.8872   21.4251 O   0  0  0  0  0  0
  -22.3538  -14.5546   20.6717 O   0  0  0  0  0  0
  -24.6130  -31.8688   23.2105 C   0  0  0  0  0  0
  -25.9033  -32.4829   23.8401 C   0  0  1  0  0  0
  -27.2429  -27.4481   20.0863 C   0  0  0  0  0  0
  -25.5904  -33.8628   24.2330 N   0  0  0  0  0  0
  -23.4003  -30.4915   21.5506 C   0  0  2  0  0  0
  -24.8470  -28.9565   20.1153 C   0  0  0  0  0  0
  -22.7399  -29.4663   22.5002 C   0  0  0  0  0  0
  -18.0272  -28.1361   22.8496 C   0  0  0  0  0  0
  -24.1491  -36.7312   23.2637 C   0  0  0  0  0  0
  -25.9276  -30.8354   21.3633 C   0  0  0  0  0  0
  -26.0040  -29.4695   20.7131 C   0  0  0  0  0  0
  -27.1994  -28.7185   20.7032 C   0  0  0  0  0  0
  -26.0603  -26.9365   19.5034 C   0  0  0  0  0  0
  -24.8685  -27.6865   19.5123 C   0  0  0  0  0  0
  -23.6078  -29.8212   20.1653 C   0  0  0  0  0  0
  -25.4113  -36.3115   24.0339 C   0  0  1  0  0  0
  -20.5861  -28.3649   23.1322 C   0  0  2  0  0  0
  -20.6764  -26.9387   22.5416 C   0  0  0  0  0  0
  -19.5743  -26.6372   21.5211 C   0  0  0  0  0  0
  -18.1917  -26.7914   22.1617 C   0  0  0  0  0  0
  -19.1520  -28.8823   23.2908 C   0  0  0  0  0  0
  -18.9450  -30.1432   23.8913 C   0  0  0  0  0  0
  -17.6454  -30.6577   24.0560 C   0  0  0  0  0  0
  -25.9041  -34.9481   23.5131 C   0  0  0  0  0  0
  -16.5344  -29.9077   23.6326 C   0  0  0  0  0  0
  -16.7262  -28.6490   23.0355 C   0  0  0  0  0  0
  -26.4461  -31.6610   25.0729 C   0  0  0  0  0  0
  -25.3727  -31.3715   26.1481 C   0  0  0  0  0  0
  -27.0288  -30.3060   24.6089 C   0  0  0  0  0  0
  -27.6052  -32.4323   25.7474 C   0  0  0  0  0  0
  -27.5587  -37.1810   24.8464 C   0  0  0  0  0  0
  -21.4133  -29.3026   22.3736 N   0  0  0  0  0  0
  -26.4301  -37.3798   23.9407 N   0  0  0  0  0  0
  -24.6651  -31.0803   22.0997 N   0  0  0  0  0  0
  -23.4178  -28.8212   23.3044 O   0  0  0  0  0  0
  -28.4353  -26.7540   20.0991 O   0  0  0  0  0  0
  -26.5592  -34.8927   22.4687 O   0  0  0  0  0  0
  -23.5330  -32.1441   23.7508 O   0  0  0  0  0  0
  -29.8432  -23.9203   20.3020 C   0  0  0  0  0  0
  -27.8818  -23.4245   18.9673 C   0  0  0  0  0  0
  -30.0625  -22.5414   20.5452 C   0  0  0  0  0  0
  -28.7879  -24.3684   19.4825 C   0  0  0  0  0  0
  -28.0575  -22.0466   19.2167 C   0  0  0  0  0  0
  -29.1588  -21.5895   19.9895 C   0  0  0  0  0  0
  -32.5891  -22.9340   21.2180 C   0  0  0  0  0  0
  -32.5032  -21.5579   20.6121 C   0  0  0  0  0  0
  -30.7265  -17.6282   19.8219 C   0  0  0  0  0  0
  -29.6785  -16.5045   19.7748 C   0  0  0  0  0  0
  -29.8272  -16.1394   22.1717 C   0  0  0  0  0  0
  -31.2973  -22.1438   21.3144 C   0  0  0  0  0  0
  -30.6901  -18.3905   21.1678 C   0  0  2  0  0  0
  -30.7792  -17.3594   22.3352 C   0  0  1  0  0  0
  -30.6312  -18.0052   23.7221 C   0  0  0  0  0  0
  -26.6216  -19.4239   16.6902 C   0  0  0  0  0  0
  -27.0645  -21.0723   18.5911 C   0  0  0  0  0  0
  -28.7155  -25.8294   19.0456 C   0  0  0  0  0  0
  -29.5270  -19.4231   21.2725 C   0  0  0  0  0  0
  -27.5771  -20.4730   17.2701 C   0  0  0  0  0  0
  -29.9302  -15.5280   20.8383 N   0  0  0  0  0  0
  -29.3730  -20.1999   20.0423 N   0  0  0  0  0  0
  -31.4635  -12.3880   19.1194 H   0  0  0  0  0  0
  -30.3140  -11.2842   19.8200 H   0  0  0  0  0  0
  -29.7249  -11.7668   17.4297 H   0  0  0  0  0  0
  -29.6625  -13.4798   17.7663 H   0  0  0  0  0  0
  -27.8196  -11.3101   18.8198 H   0  0  0  0  0  0
  -27.3608  -12.6417   17.7920 H   0  0  0  0  0  0
  -27.7027  -14.2530   19.5792 H   0  0  0  0  0  0
  -28.6732  -11.9599   21.3593 H   0  0  0  0  0  0
  -28.4783  -13.6116   21.8655 H   0  0  0  0  0  0
  -25.2751   -9.5678   22.4777 H   0  0  0  0  0  0
  -23.9988   -7.4627   22.7479 H   0  0  0  0  0  0
  -21.0834   -8.8783   19.8957 H   0  0  0  0  0  0
  -22.3709  -10.9672   19.6165 H   0  0  0  0  0  0
  -21.2005   -7.6159   23.9730 H   0  0  0  0  0  0
  -21.1473   -6.0544   25.9094 H   0  0  0  0  0  0
  -22.0595   -2.7619   23.2884 H   0  0  0  0  0  0
  -22.4088  -11.9879   22.4802 H   0  0  0  0  0  0
  -21.1119  -13.1265   22.2624 H   0  0  0  0  0  0
  -24.6698  -15.8447   20.5263 H   0  0  0  0  0  0
  -26.2978  -15.6251   20.1273 H   0  0  0  0  0  0
  -26.7107  -32.5540   23.1169 H   0  0  0  0  0  0
  -25.0096  -33.9800   25.0501 H   0  0  0  0  0  0
  -22.6881  -31.3072   21.4098 H   0  0  0  0  0  0
  -23.3757  -35.9642   23.3311 H   0  0  0  0  0  0
  -24.3581  -36.8917   22.2049 H   0  0  0  0  0  0
  -23.7247  -37.6522   23.6643 H   0  0  0  0  0  0
  -26.0398  -31.6010   20.5944 H   0  0  0  0  0  0
  -26.8156  -30.8884   21.9815 H   0  0  0  0  0  0
  -28.0949  -29.1167   21.1605 H   0  0  0  0  0  0
  -26.0408  -25.9554   19.0530 H   0  0  0  0  0  0
  -23.9752  -27.2796   19.0582 H   0  0  0  0  0  0
  -23.7118  -30.5939   19.4028 H   0  0  0  0  0  0
  -22.7330  -29.2382   19.8732 H   0  0  0  0  0  0
  -25.1291  -36.1984   25.0835 H   0  0  0  0  0  0
  -20.9947  -28.3200   24.1445 H   0  0  0  0  0  0
  -20.5666  -26.2248   23.3596 H   0  0  0  0  0  0
  -21.6633  -26.7431   22.1204 H   0  0  0  0  0  0
  -19.6904  -25.6284   21.1235 H   0  0  0  0  0  0
  -19.6688  -27.3187   20.6745 H   0  0  0  0  0  0
  -17.4193  -26.6676   21.4009 H   0  0  0  0  0  0
  -18.0307  -26.0035   22.8992 H   0  0  0  0  0  0
  -19.7927  -30.7242   24.2282 H   0  0  0  0  0  0
  -17.5013  -31.6262   24.5148 H   0  0  0  0  0  0
  -15.5348  -30.2987   23.7641 H   0  0  0  0  0  0
  -15.8659  -28.0821   22.7061 H   0  0  0  0  0  0
  -24.5891  -30.7070   25.7821 H   0  0  0  0  0  0
  -24.8920  -32.2870   26.4944 H   0  0  0  0  0  0
  -25.8078  -30.8873   27.0232 H   0  0  0  0  0  0
  -26.2826  -29.6827   24.1148 H   0  0  0  0  0  0
  -27.4081  -29.7295   25.4537 H   0  0  0  0  0  0
  -27.8650  -30.4397   23.9219 H   0  0  0  0  0  0
  -27.2696  -33.3625   26.2069 H   0  0  0  0  0  0
  -28.3841  -32.6879   25.0278 H   0  0  0  0  0  0
  -28.0736  -31.8431   26.5369 H   0  0  0  0  0  0
  -28.2610  -38.0103   24.7521 H   0  0  0  0  0  0
  -28.1081  -36.2639   24.6281 H   0  0  0  0  0  0
  -27.2303  -37.1453   25.8866 H   0  0  0  0  0  0
  -20.9285  -29.8756   21.6971 H   0  0  0  0  0  0
  -26.0195  -38.2880   24.1404 H   0  0  0  0  0  0
  -30.5381  -24.6522   20.6885 H   0  0  0  0  0  0
  -27.0721  -23.7558   18.3319 H   0  0  0  0  0  0
  -32.6563  -23.7661   20.5207 H   0  0  0  0  0  0
  -33.1925  -23.0328   22.1183 H   0  0  0  0  0  0
  -33.0644  -20.7728   21.1150 H   0  0  0  0  0  0
  -32.4713  -21.4890   19.5265 H   0  0  0  0  0  0
  -30.6030  -18.2925   18.9685 H   0  0  0  0  0  0
  -31.7206  -17.2002   19.6868 H   0  0  0  0  0  0
  -29.6965  -16.0179   18.7974 H   0  0  0  0  0  0
  -28.6743  -16.9144   19.8876 H   0  0  0  0  0  0
  -28.7918  -16.4433   22.3353 H   0  0  0  0  0  0
  -30.0448  -15.3920   22.9371 H   0  0  0  0  0  0
  -31.0399  -21.7628   22.2995 H   0  0  0  0  0  0
  -31.6041  -18.9813   21.2095 H   0  0  0  0  0  0
  -31.7927  -16.9552   22.3000 H   0  0  0  0  0  0
  -29.6213  -18.3798   23.8885 H   0  0  0  0  0  0
  -31.3208  -18.8411   23.8485 H   0  0  0  0  0  0
  -30.8423  -17.2855   24.5130 H   0  0  0  0  0  0
  -27.0148  -19.0148   15.7591 H   0  0  0  0  0  0
  -25.6444  -19.8585   16.4760 H   0  0  0  0  0  0
  -26.4767  -18.5934   17.3830 H   0  0  0  0  0  0
  -26.1181  -21.5862   18.4159 H   0  0  0  0  0  0
  -26.8329  -20.2825   19.3074 H   0  0  0  0  0  0
  -28.0627  -25.9457   18.1792 H   0  0  0  0  0  0
  -29.7050  -26.0915   18.6691 H   0  0  0  0  0  0
  -29.6673  -20.0774   22.1318 H   0  0  0  0  0  0
  -28.5893  -18.8958   21.4511 H   0  0  0  0  0  0
  -27.7313  -21.2716   16.5431 H   0  0  0  0  0  0
  -28.5529  -20.0100   17.4196 H   0  0  0  0  0  0
  -28.8357  -19.6968   19.3455 H   0  0  0  0  0  0
  1 25  1  0  0  0
  1 30  2  0  0  0
  1 91  1  0  0  0
  2  3  1  0  0  0
  2 25  1  0  0  0
  2 93  1  0  0  0
  2 94  1  0  0  0
  3  4  1  0  0  0
  3 95  1  0  0  0
  3 96  1  0  0  0
  4  5  1  0  0  0
  4 97  1  0  0  0
  4 98  1  0  0  0
  5  6  1  0  0  0
  5 26  1  0  0  0
  5 99  1  0  0  0
  6 25  1  0  0  0
  6100  1  0  0  0
  6101  1  0  0  0
  7  8  2  0  0  0
  7 26  1  0  0  0
  7 29  1  0  0  0
  8  9  1  0  0  0
  8 22  1  0  0  0
  9 10  1  0  0  0
  9 27  2  0  0  0
 10 11  2  0  0  0
 10 15  1  0  0  0
 11 12  1  0  0  0
 11102  1  0  0  0
 12 13  2  0  0  0
 12103  1  0  0  0
 13 14  1  0  0  0
 13 31  1  0  0  0
 14 15  2  0  0  0
 14104  1  0  0  0
 15105  1  0  0  0
 16 17  2  0  0  0
 16 21  1  0  0  0
 16 31  1  0  0  0
 17 18  1  0  0  0
 17106  1  0  0  0
 18 19  2  0  0  0
 18107  1  0  0  0
 19 20  1  0  0  0
 19 24  1  0  0  0
 20 21  2  0  0  0
 20108  1  0  0  0
 21 23  1  0  0  0
 22 28  1  0  0  0
 22 32  2  0  0  0
 26 27  1  0  0  0
 28109  1  0  0  0
 28110  1  0  0  0
 29111  1  0  0  0
 29112  1  0  0  0
 33 34  1  0  0  0
 33 66  1  0  0  0
 33 70  2  0  0  0
 34 36  1  0  0  0
 34 59  1  0  0  0
 34113  1  0  0  0
 35 44  2  0  0  0
 35 45  1  0  0  0
 35 68  1  0  0  0
 36 56  1  0  0  0
 36114  1  0  0  0
 37 39  1  0  0  0
 37 47  1  0  0  0
 37 66  1  0  0  0
 37115  1  0  0  0
 38 43  2  0  0  0
 38 46  1  0  0  0
 38 47  1  0  0  0
 39 64  1  0  0  0
 39 67  2  0  0  0
 40 52  1  0  0  0
 40 53  2  0  0  0
 40 58  1  0  0  0
 41116  1  0  0  0
 41117  1  0  0  0
 41118  1  0  0  0
 41 48  1  0  0  0
 42 43  1  0  0  0
 42 66  1  0  0  0
 42119  1  0  0  0
 42120  1  0  0  0
 43 44  1  0  0  0
 44121  1  0  0  0
 45 46  2  0  0  0
 45122  1  0  0  0
 46123  1  0  0  0
 47124  1  0  0  0
 47125  1  0  0  0
 48 56  1  0  0  0
 48 65  1  0  0  0
 48126  1  0  0  0
 49 50  1  0  0  0
 49 53  1  0  0  0
 49 64  1  0  0  0
 49127  1  0  0  0
 50 51  1  0  0  0
 50128  1  0  0  0
 50129  1  0  0  0
 51 52  1  0  0  0
 51130  1  0  0  0
 51131  1  0  0  0
 52132  1  0  0  0
 52133  1  0  0  0
 53 54  1  0  0  0
 54 55  2  0  0  0
 54134  1  0  0  0
 55 57  1  0  0  0
 55135  1  0  0  0
 56 69  2  0  0  0
 57 58  2  0  0  0
 57136  1  0  0  0
 58137  1  0  0  0
 59 60  1  0  0  0
 59 61  1  0  0  0
 59 62  1  0  0  0
 60138  1  0  0  0
 60139  1  0  0  0
 60140  1  0  0  0
 61141  1  0  0  0
 61142  1  0  0  0
 61143  1  0  0  0
 62144  1  0  0  0
 62145  1  0  0  0
 62146  1  0  0  0
 63 65  1  0  0  0
 63147  1  0  0  0
 63148  1  0  0  0
 63149  1  0  0  0
 64150  1  0  0  0
 65151  1  0  0  0
 68 88  1  0  0  0
 71 73  2  0  0  0
 71 74  1  0  0  0
 71152  1  0  0  0
 72 74  2  0  0  0
 72 75  1  0  0  0
 72153  1  0  0  0
 73 76  1  0  0  0
 73 82  1  0  0  0
 74 88  1  0  0  0
 75 76  2  0  0  0
 75 87  1  0  0  0
 76 92  1  0  0  0
 77 78  1  0  0  0
 77 82  1  0  0  0
 77154  1  0  0  0
 77155  1  0  0  0
 78 82  1  0  0  0
 78156  1  0  0  0
 78157  1  0  0  0
 79 80  1  0  0  0
 79 83  1  0  0  0
 79158  1  0  0  0
 79159  1  0  0  0
 80 91  1  0  0  0
 80160  1  0  0  0
 80161  1  0  0  0
 81 84  1  0  0  0
 81 91  1  0  0  0
 81162  1  0  0  0
 81163  1  0  0  0
 82164  1  0  0  0
 83 84  1  0  0  0
 83 89  1  0  0  0
 83165  1  0  0  0
 84 85  1  0  0  0
 84166  1  0  0  0
 85167  1  0  0  0
 85168  1  0  0  0
 85169  1  0  0  0
 86 90  1  0  0  0
 86170  1  0  0  0
 86171  1  0  0  0
 86172  1  0  0  0
 87 90  1  0  0  0
 87173  1  0  0  0
 87174  1  0  0  0
 88175  1  0  0  0
 88176  1  0  0  0
 89 92  1  0  0  0
 89177  1  0  0  0
 89178  1  0  0  0
 90179  1  0  0  0
 90180  1  0  0  0
 92181  1  0  0  0
M  ISO  4   1 100  68 101  88 101  91 100
M  END
> <chiral flag>
0

> <version>
0

> <s_m_source_file>
/data/baiqing/PycharmProjects/Reinvent-master-3.2/result/LINK_invent/BTK/process_docking_weight1_custom_sum_contain_oxygen_bond_distance_aromatic_linkinvent_7_9_3/rearranged_h_0148.sdf

> <i_m_source_file_index>
74

> <r_mmod_Potential_Energy-OPLS-2005>
239.550537109375

> <r_mmod_Stretch_Energy-OPLS-2005>
40.2870750427246

> <r_mmod_Bend_Energy-OPLS-2005>
120.366264343262

> <r_mmod_Torsional_Energy-OPLS-2005>
396.789245605469

> <r_mmod_Improper_Torsional_Energy-OPLS-2005>
16.6485958099365

> <r_mmod_Van_der_Waal_Energy-OPLS-2005>
148.479141235352

> <r_mmod_Electrostatic_Energy-OPLS-2005>
-312.155120849609

> <r_mmod_Solvation_Energy-OPLS-2005>
-183.444000244141

> <b_mmod_Minimization_Converged-OPLS-2005>
0

> <r_mmod_RMS_Derivative-OPLS-2005>
1.5622022151947

$$$$
74
                    3D
 Structure written by MMmdl.
175184  0  0  1  0            999 V2000
  -30.6571  -14.6191   20.5085 C   0  0  0  0  0  0
  -30.4260  -12.3853   19.4466 C   0  0  0  0  0  0
  -29.4984  -12.4985   18.2187 C   0  0  0  0  0  0
  -28.0229  -12.3408   18.6352 C   0  0  0  0  0  0
  -27.6480  -13.2205   19.8581 C   0  0  2  0  0  0
  -28.6936  -13.0954   20.9874 C   0  0  0  0  0  0
  -25.2539  -13.8184   20.5694 C   0  0  0  0  0  0
  -24.1815  -13.0444   20.9204 C   0  0  0  0  0  0
  -24.6391  -11.6917   20.8750 C   0  0  0  0  0  0
  -23.9067  -10.4297   21.0409 C   0  0  0  0  0  0
  -24.3618   -9.4210   21.9187 C   0  0  0  0  0  0
  -23.6295   -8.2245   22.0754 C   0  0  0  0  0  0
  -22.4277   -8.0281   21.3544 C   0  0  0  0  0  0
  -21.9916   -9.0252   20.4642 C   0  0  0  0  0  0
  -22.7243  -10.2134   20.3052 C   0  0  0  0  0  0
  -21.6852   -6.0738   22.5280 C   0  0  0  0  0  0
  -21.4012   -6.5640   23.8215 C   0  0  0  0  0  0
  -21.3660   -5.6794   24.9177 C   0  0  0  0  0  0
  -21.6044   -4.3057   24.7227 C   0  0  0  0  0  0
  -21.8819   -3.8149   23.4349 C   0  0  0  0  0  0
  -21.9193   -4.6965   22.3404 C   0  0  0  0  0  0
  -22.7837  -13.5227   21.1869 C   0  0  0  0  0  0
  -22.1663   -4.2153   21.0980 F   0  0  0  0  0  0
  -21.5629   -3.4540   25.7740 F   0  0  0  0  0  0
  -30.0049  -13.4205   20.4102 N   0  0  0  0  0  0
  -26.2966  -12.9377   20.3315 N   0  0  0  0  0  0
  -25.9319  -11.6528   20.5763 N   0  0  0  0  0  0
  -22.0485  -12.8198   22.0414 N   0  0  0  0  0  0
  -25.4238  -15.1907   20.4111 N   0  0  0  0  0  0
  -31.8349  -14.7349   20.1603 O   0  0  0  0  0  0
  -21.6639   -6.8879   21.4242 O   0  0  0  0  0  0
  -22.3524  -14.5539   20.6731 O   0  0  0  0  0  0
  -24.6257  -31.8608   23.2029 C   0  0  0  0  0  0
  -25.9108  -32.4786   23.8358 C   0  0  1  0  0  0
  -27.2259  -27.3264   20.0995 C   0  0  0  0  0  0
  -25.5928  -33.8587   24.2288 N   0  0  0  0  0  0
  -23.4183  -30.4857   21.5451 C   0  0  2  0  0  0
  -24.8623  -28.9412   20.1107 C   0  0  0  0  0  0
  -22.7473  -29.4634   22.4933 C   0  0  0  0  0  0
  -18.0291  -28.1387   22.8491 C   0  0  0  0  0  0
  -24.1487  -36.7288   23.2639 C   0  0  0  0  0  0
  -25.9594  -30.7926   21.3721 C   0  0  0  0  0  0
  -26.0313  -29.4205   20.7132 C   0  0  0  0  0  0
  -27.2116  -28.6216   20.7029 C   0  0  0  0  0  0
  -26.0207  -26.8859   19.5030 C   0  0  0  0  0  0
  -24.8578  -27.6779   19.5023 C   0  0  0  0  0  0
  -23.6320  -29.8226   20.1596 C   0  0  0  0  0  0
  -25.4116  -36.3085   24.0330 C   0  0  1  0  0  0
  -20.5892  -28.3688   23.1286 C   0  0  2  0  0  0
  -20.6782  -26.9414   22.5403 C   0  0  0  0  0  0
  -19.5753  -26.6390   21.5209 C   0  0  0  0  0  0
  -18.1932  -26.7932   22.1621 C   0  0  0  0  0  0
  -19.1544  -28.8853   23.2884 C   0  0  0  0  0  0
  -18.9467  -30.1455   23.8899 C   0  0  0  0  0  0
  -17.6467  -30.6587   24.0567 C   0  0  0  0  0  0
  -25.9054  -34.9454   23.5108 C   0  0  0  0  0  0
  -16.5361  -29.9088   23.6330 C   0  0  0  0  0  0
  -16.7280  -28.6508   23.0351 C   0  0  0  0  0  0
  -26.4495  -31.6595   25.0722 C   0  0  0  0  0  0
  -25.3728  -31.3690   26.1439 C   0  0  0  0  0  0
  -27.0355  -30.3038   24.6149 C   0  0  0  0  0  0
  -27.6052  -32.4328   25.7502 C   0  0  0  0  0  0
  -27.5580  -37.1807   24.8469 C   0  0  0  0  0  0
  -21.4187  -29.3049   22.3680 N   0  0  0  0  0  0
  -26.4293  -37.3782   23.9408 N   0  0  0  0  0  0
  -24.6868  -31.0630   22.0972 N   0  0  0  0  0  0
  -23.4203  -28.8165   23.3000 O   0  0  0  0  0  0
  -28.3654  -26.5086   20.1601 O   0  0  0  0  0  0
  -26.5618  -34.8918   22.4672 O   0  0  0  0  0  0
  -23.5422  -32.1408   23.7360 O   0  0  0  0  0  0
  -27.8520  -22.8629   19.9369 C   0  0  0  0  0  0
  -30.1258  -23.5233   20.2871 C   0  0  0  0  0  0
  -29.4872  -21.1388   20.7156 C   0  0  0  0  0  0
  -28.8156  -23.9041   19.9229 C   0  0  0  0  0  0
  -28.1668  -21.5167   20.3123 C   0  0  0  0  0  0
  -30.4657  -22.1893   20.6619 C   0  0  0  0  0  0
  -29.2959  -18.0702   23.2329 C   0  0  0  0  0  0
  -30.4823  -17.2636   22.6822 C   0  0  0  0  0  0
  -29.6326  -18.3574   20.5054 C   0  0  0  0  0  0
  -29.8518  -19.7105   21.3203 C   0  0  2  0  0  0
  -29.3358  -19.5574   22.7906 C   0  0  2  0  0  0
  -30.4062  -17.1086   21.1445 C   0  0  2  0  0  0
  -27.0514  -20.4864   20.2283 C   0  0  0  0  0  0
  -31.9315  -21.9326   20.9887 C   0  0  0  0  0  0
  -30.2773  -21.5873   26.0530 C   0  0  0  0  0  0
  -28.5194  -25.3181   19.3054 C   0  0  0  0  0  0
  -30.1333  -20.4443   23.7790 C   0  0  0  0  0  0
  -29.5062  -20.5928   25.1774 C   0  0  0  0  0  0
  -29.9120  -15.7188   20.8414 N   0  0  0  0  0  0
  -31.4683  -12.4977   19.1429 H   0  0  0  0  0  0
  -30.3513  -11.3956   19.8992 H   0  0  0  0  0  0
  -29.7596  -11.7427   17.4770 H   0  0  0  0  0  0
  -29.6422  -13.4658   17.7350 H   0  0  0  0  0  0
  -27.8595  -11.2889   18.8734 H   0  0  0  0  0  0
  -27.3670  -12.5659   17.7934 H   0  0  0  0  0  0
  -27.6614  -14.2523   19.5074 H   0  0  0  0  0  0
  -28.7027  -12.0846   21.3972 H   0  0  0  0  0  0
  -28.4465  -13.7554   21.8207 H   0  0  0  0  0  0
  -25.2761   -9.5691   22.4764 H   0  0  0  0  0  0
  -24.0008   -7.4635   22.7473 H   0  0  0  0  0  0
  -21.0854   -8.8768   19.8936 H   0  0  0  0  0  0
  -22.3705  -10.9673   19.6162 H   0  0  0  0  0  0
  -21.1999   -7.6147   23.9721 H   0  0  0  0  0  0
  -21.1483   -6.0522   25.9081 H   0  0  0  0  0  0
  -22.0594   -2.7613   23.2848 H   0  0  0  0  0  0
  -22.4111  -11.9849   22.4774 H   0  0  0  0  0  0
  -21.1099  -13.1205   22.2624 H   0  0  0  0  0  0
  -24.6542  -15.8424   20.5181 H   0  0  0  0  0  0
  -26.2689  -15.6319   20.0730 H   0  0  0  0  0  0
  -26.7172  -32.5455   23.1099 H   0  0  0  0  0  0
  -25.0091  -33.9739   25.0443 H   0  0  0  0  0  0
  -22.7117  -31.3061   21.4023 H   0  0  0  0  0  0
  -23.3757  -35.9611   23.3308 H   0  0  0  0  0  0
  -24.3576  -36.8909   22.2053 H   0  0  0  0  0  0
  -23.7232  -37.6487   23.6661 H   0  0  0  0  0  0
  -26.0904  -31.5564   20.6046 H   0  0  0  0  0  0
  -26.8405  -30.8409   22.0009 H   0  0  0  0  0  0
  -28.1094  -28.9861   21.1823 H   0  0  0  0  0  0
  -25.9206  -25.9058   19.0656 H   0  0  0  0  0  0
  -23.9537  -27.2970   19.0468 H   0  0  0  0  0  0
  -23.7554  -30.6007   19.4054 H   0  0  0  0  0  0
  -22.7511  -29.2555   19.8537 H   0  0  0  0  0  0
  -25.1295  -36.1942   25.0822 H   0  0  0  0  0  0
  -20.9988  -28.3256   24.1405 H   0  0  0  0  0  0
  -20.5703  -26.2290   23.3595 H   0  0  0  0  0  0
  -21.6646  -26.7448   22.1186 H   0  0  0  0  0  0
  -19.6917  -25.6302   21.1237 H   0  0  0  0  0  0
  -19.6695  -27.3201   20.6739 H   0  0  0  0  0  0
  -17.4204  -26.6693   21.4020 H   0  0  0  0  0  0
  -18.0327  -26.0067   22.9010 H   0  0  0  0  0  0
  -19.7941  -30.7275   24.2269 H   0  0  0  0  0  0
  -17.5021  -31.6270   24.5162 H   0  0  0  0  0  0
  -15.5361  -30.2992   23.7649 H   0  0  0  0  0  0
  -15.8681  -28.0830   22.7055 H   0  0  0  0  0  0
  -24.5929  -30.7017   25.7749 H   0  0  0  0  0  0
  -24.8873  -32.2826   26.4877 H   0  0  0  0  0  0
  -25.8053  -30.8862   27.0208 H   0  0  0  0  0  0
  -26.2922  -29.6785   24.1185 H   0  0  0  0  0  0
  -27.4105  -29.7295   25.4629 H   0  0  0  0  0  0
  -27.8764  -30.4368   23.9336 H   0  0  0  0  0  0
  -27.2676  -33.3646   26.2051 H   0  0  0  0  0  0
  -28.3879  -32.6861   25.0338 H   0  0  0  0  0  0
  -28.0696  -31.8465   26.5442 H   0  0  0  0  0  0
  -28.2587  -38.0115   24.7526 H   0  0  0  0  0  0
  -28.1088  -36.2644   24.6287 H   0  0  0  0  0  0
  -27.2293  -37.1446   25.8871 H   0  0  0  0  0  0
  -20.9356  -29.8792   21.6917 H   0  0  0  0  0  0
  -26.0176  -38.2857   24.1409 H   0  0  0  0  0  0
  -26.8481  -23.0975   19.6111 H   0  0  0  0  0  0
  -30.9017  -24.2742   20.2356 H   0  0  0  0  0  0
  -29.2561  -17.9736   24.3159 H   0  0  0  0  0  0
  -28.3695  -17.6134   22.8806 H   0  0  0  0  0  0
  -30.5355  -16.2927   23.1770 H   0  0  0  0  0  0
  -31.4091  -17.7714   22.9545 H   0  0  0  0  0  0
  -29.9709  -18.4898   19.4773 H   0  0  0  0  0  0
  -28.5680  -18.1347   20.4446 H   0  0  0  0  0  0
  -30.9338  -19.7050   21.4102 H   0  0  0  0  0  0
  -28.3072  -19.9114   22.8313 H   0  0  0  0  0  0
  -31.4339  -17.1695   20.7814 H   0  0  0  0  0  0
  -26.0857  -20.9576   20.0445 H   0  0  0  0  0  0
  -26.9526  -19.9029   21.1407 H   0  0  0  0  0  0
  -27.2406  -19.8003   19.4026 H   0  0  0  0  0  0
  -32.5417  -22.8230   20.8348 H   0  0  0  0  0  0
  -32.3385  -21.1530   20.3440 H   0  0  0  0  0  0
  -32.0650  -21.6301   22.0264 H   0  0  0  0  0  0
  -29.8094  -21.6897   27.0327 H   0  0  0  0  0  0
  -30.3086  -22.5772   25.5963 H   0  0  0  0  0  0
  -31.3052  -21.2586   26.2109 H   0  0  0  0  0  0
  -27.7485  -25.2062   18.5484 H   0  0  0  0  0  0
  -29.3975  -25.5483   18.7007 H   0  0  0  0  0  0
  -30.2060  -21.4487   23.3632 H   0  0  0  0  0  0
  -31.1563  -20.0766   23.8676 H   0  0  0  0  0  0
  -28.4719  -20.9265   25.0825 H   0  0  0  0  0  0
  -29.4757  -19.6345   25.6942 H   0  0  0  0  0  0
  -28.9349  -15.5414   21.0186 H   0  0  0  0  0  0
  1 25  1  0  0  0
  1 30  2  0  0  0
  1 89  1  0  0  0
  2  3  1  0  0  0
  2 25  1  0  0  0
  2 90  1  0  0  0
  2 91  1  0  0  0
  3  4  1  0  0  0
  3 92  1  0  0  0
  3 93  1  0  0  0
  4  5  1  0  0  0
  4 94  1  0  0  0
  4 95  1  0  0  0
  5  6  1  0  0  0
  5 26  1  0  0  0
  5 96  1  0  0  0
  6 25  1  0  0  0
  6 97  1  0  0  0
  6 98  1  0  0  0
  7  8  2  0  0  0
  7 26  1  0  0  0
  7 29  1  0  0  0
  8  9  1  0  0  0
  8 22  1  0  0  0
  9 10  1  0  0  0
  9 27  2  0  0  0
 10 11  2  0  0  0
 10 15  1  0  0  0
 11 12  1  0  0  0
 11 99  1  0  0  0
 12 13  2  0  0  0
 12100  1  0  0  0
 13 14  1  0  0  0
 13 31  1  0  0  0
 14 15  2  0  0  0
 14101  1  0  0  0
 15102  1  0  0  0
 16 17  2  0  0  0
 16 21  1  0  0  0
 16 31  1  0  0  0
 17 18  1  0  0  0
 17103  1  0  0  0
 18 19  2  0  0  0
 18104  1  0  0  0
 19 20  1  0  0  0
 19 24  1  0  0  0
 20 21  2  0  0  0
 20105  1  0  0  0
 21 23  1  0  0  0
 22 28  1  0  0  0
 22 32  2  0  0  0
 26 27  1  0  0  0
 28106  1  0  0  0
 28107  1  0  0  0
 29108  1  0  0  0
 29109  1  0  0  0
 33 34  1  0  0  0
 33 66  1  0  0  0
 33 70  2  0  0  0
 34 36  1  0  0  0
 34 59  1  0  0  0
 34110  1  0  0  0
 35 44  2  0  0  0
 35 45  1  0  0  0
 35 68  1  0  0  0
 36 56  1  0  0  0
 36111  1  0  0  0
 37 39  1  0  0  0
 37 47  1  0  0  0
 37 66  1  0  0  0
 37112  1  0  0  0
 38 43  2  0  0  0
 38 46  1  0  0  0
 38 47  1  0  0  0
 39 64  1  0  0  0
 39 67  2  0  0  0
 40 52  1  0  0  0
 40 53  2  0  0  0
 40 58  1  0  0  0
 41113  1  0  0  0
 41114  1  0  0  0
 41115  1  0  0  0
 41 48  1  0  0  0
 42 43  1  0  0  0
 42 66  1  0  0  0
 42116  1  0  0  0
 42117  1  0  0  0
 43 44  1  0  0  0
 44118  1  0  0  0
 45 46  2  0  0  0
 45119  1  0  0  0
 46120  1  0  0  0
 47121  1  0  0  0
 47122  1  0  0  0
 48 56  1  0  0  0
 48 65  1  0  0  0
 48123  1  0  0  0
 49 50  1  0  0  0
 49 53  1  0  0  0
 49 64  1  0  0  0
 49124  1  0  0  0
 50 51  1  0  0  0
 50125  1  0  0  0
 50126  1  0  0  0
 51 52  1  0  0  0
 51127  1  0  0  0
 51128  1  0  0  0
 52129  1  0  0  0
 52130  1  0  0  0
 53 54  1  0  0  0
 54 55  2  0  0  0
 54131  1  0  0  0
 55 57  1  0  0  0
 55132  1  0  0  0
 56 69  2  0  0  0
 57 58  2  0  0  0
 57133  1  0  0  0
 58134  1  0  0  0
 59 60  1  0  0  0
 59 61  1  0  0  0
 59 62  1  0  0  0
 60135  1  0  0  0
 60136  1  0  0  0
 60137  1  0  0  0
 61138  1  0  0  0
 61139  1  0  0  0
 61140  1  0  0  0
 62141  1  0  0  0
 62142  1  0  0  0
 62143  1  0  0  0
 63 65  1  0  0  0
 63144  1  0  0  0
 63145  1  0  0  0
 63146  1  0  0  0
 64147  1  0  0  0
 65148  1  0  0  0
 68 86  1  0  0  0
 71 74  2  0  0  0
 71 75  1  0  0  0
 71149  1  0  0  0
 72 74  1  0  0  0
 72 76  2  0  0  0
 72150  1  0  0  0
 73 75  2  0  0  0
 73 76  1  0  0  0
 73 80  1  0  0  0
 74 86  1  0  0  0
 75 83  1  0  0  0
 76 84  1  0  0  0
 77 78  1  0  0  0
 77 81  1  0  0  0
 77151  1  0  0  0
 77152  1  0  0  0
 78 82  1  0  0  0
 78153  1  0  0  0
 78154  1  0  0  0
 79 80  1  0  0  0
 79 82  1  0  0  0
 79155  1  0  0  0
 79156  1  0  0  0
 80 81  1  0  0  0
 80157  1  0  0  0
 81 87  1  0  0  0
 81158  1  0  0  0
 82 89  1  0  0  0
 82159  1  0  0  0
 83160  1  0  0  0
 83161  1  0  0  0
 83162  1  0  0  0
 84163  1  0  0  0
 84164  1  0  0  0
 84165  1  0  0  0
 85 88  1  0  0  0
 85166  1  0  0  0
 85167  1  0  0  0
 85168  1  0  0  0
 86169  1  0  0  0
 86170  1  0  0  0
 87 88  1  0  0  0
 87171  1  0  0  0
 87172  1  0  0  0
 88173  1  0  0  0
 88174  1  0  0  0
 89175  1  0  0  0
M  ISO  4   1 100  68 101  86 101  89 100
M  END
> <chiral flag>
0

> <version>
0

> <s_m_source_file>
/data/baiqing/PycharmProjects/Reinvent-master-3.2/result/LINK_invent/BTK/process_docking_weight1_custom_sum_contain_oxygen_bond_distance_aromatic_linkinvent_7_9_3/rearranged_h_0148.sdf

> <i_m_source_file_index>
75

> <r_mmod_Potential_Energy-OPLS-2005>
141.591171264648

> <r_mmod_Stretch_Energy-OPLS-2005>
86.4747772216797

> <r_mmod_Bend_Energy-OPLS-2005>
155.855972290039

> <r_mmod_Torsional_Energy-OPLS-2005>
257.110900878906

> <r_mmod_Improper_Torsional_Energy-OPLS-2005>
5.52687931060791

> <r_mmod_Van_der_Waal_Energy-OPLS-2005>
157.434524536133

> <r_mmod_Electrostatic_Energy-OPLS-2005>
-368.915405273438

> <r_mmod_Solvation_Energy-OPLS-2005>
-196.166397094727

> <b_mmod_Minimization_Converged-OPLS-2005>
0

> <r_mmod_RMS_Derivative-OPLS-2005>
0.856855750083923

$$$$
75
                    3D
 Structure written by MMmdl.
158167  0  0  1  0            999 V2000
  -30.5103  -14.9627   20.5071 C   0  0  0  0  0  0
  -30.4555  -12.6116   19.5282 C   0  0  0  0  0  0
  -29.5461  -12.5712   18.2792 C   0  0  0  0  0  0
  -28.0685  -12.3743   18.6564 C   0  0  0  0  0  0
  -27.6379  -13.2609   19.8470 C   0  0  2  0  0  0
  -28.6709  -13.2437   20.9934 C   0  0  0  0  0  0
  -25.2458  -13.8237   20.5676 C   0  0  0  0  0  0
  -24.1776  -13.0406   20.9214 C   0  0  0  0  0  0
  -24.6395  -11.6944   20.8697 C   0  0  0  0  0  0
  -23.9052  -10.4268   21.0358 C   0  0  0  0  0  0
  -24.3619   -9.4208   21.9137 C   0  0  0  0  0  0
  -23.6302   -8.2244   22.0729 C   0  0  0  0  0  0
  -22.4279   -8.0270   21.3521 C   0  0  0  0  0  0
  -21.9906   -9.0221   20.4623 C   0  0  0  0  0  0
  -22.7222  -10.2118   20.3006 C   0  0  0  0  0  0
  -21.6874   -6.0713   22.5264 C   0  0  0  0  0  0
  -21.4015   -6.5610   23.8192 C   0  0  0  0  0  0
  -21.3658   -5.6788   24.9155 C   0  0  0  0  0  0
  -21.6052   -4.3044   24.7239 C   0  0  0  0  0  0
  -21.8809   -3.8120   23.4346 C   0  0  0  0  0  0
  -21.9186   -4.6923   22.3401 C   0  0  0  0  0  0
  -22.7769  -13.5177   21.1908 C   0  0  0  0  0  0
  -22.1662   -4.2108   21.0982 F   0  0  0  0  0  0
  -21.5640   -3.4532   25.7747 F   0  0  0  0  0  0
  -29.9583  -13.6805   20.4367 N   0  0  0  0  0  0
  -26.2885  -12.9492   20.3163 N   0  0  0  0  0  0
  -25.9351  -11.6580   20.5646 N   0  0  0  0  0  0
  -22.0470  -12.8106   22.0489 N   0  0  0  0  0  0
  -25.4139  -15.1955   20.4170 N   0  0  0  0  0  0
  -31.6896  -15.0908   20.1512 O   0  0  0  0  0  0
  -21.6650   -6.8873   21.4239 O   0  0  0  0  0  0
  -22.3411  -14.5441   20.6785 O   0  0  0  0  0  0
  -24.6526  -31.8364   23.1784 C   0  0  0  0  0  0
  -25.9265  -32.4714   23.8198 C   0  0  1  0  0  0
  -27.2488  -27.0820   20.1828 C   0  0  0  0  0  0
  -25.5952  -33.8493   24.2189 N   0  0  0  0  0  0
  -23.4635  -30.4433   21.5324 C   0  0  2  0  0  0
  -24.9240  -28.8605   20.1141 C   0  0  0  0  0  0
  -22.7592  -29.4480   22.4972 C   0  0  0  0  0  0
  -18.0335  -28.1176   22.8497 C   0  0  0  0  0  0
  -24.1484  -36.7257   23.2636 C   0  0  0  0  0  0
  -26.0205  -30.6976   21.3798 C   0  0  0  0  0  0
  -26.1024  -29.3014   20.7268 C   0  0  0  0  0  0
  -27.2735  -28.4423   20.7183 C   0  0  0  0  0  0
  -26.0424  -26.7538   19.5200 C   0  0  0  0  0  0
  -24.9190  -27.6117   19.4677 C   0  0  0  0  0  0
  -23.6868  -29.7475   20.1597 C   0  0  0  0  0  0
  -25.4128  -36.3063   24.0309 C   0  0  1  0  0  0
  -20.5995  -28.3574   23.1202 C   0  0  2  0  0  0
  -20.6980  -26.9352   22.5154 C   0  0  0  0  0  0
  -19.5880  -26.6643   21.4972 C   0  0  0  0  0  0
  -18.2045  -26.7752   22.1519 C   0  0  0  0  0  0
  -19.1611  -28.8662   23.2795 C   0  0  0  0  0  0
  -18.9545  -30.1305   23.8738 C   0  0  0  0  0  0
  -17.6576  -30.6451   24.0437 C   0  0  0  0  0  0
  -25.9081  -34.9425   23.5089 C   0  0  0  0  0  0
  -16.5442  -29.8928   23.6310 C   0  0  0  0  0  0
  -16.7310  -28.6266   23.0455 C   0  0  0  0  0  0
  -26.4575  -31.6572   25.0660 C   0  0  0  0  0  0
  -25.3737  -31.3726   26.1351 C   0  0  0  0  0  0
  -27.0479  -30.2988   24.6242 C   0  0  0  0  0  0
  -27.6118  -32.4346   25.7451 C   0  0  0  0  0  0
  -27.5589  -37.1777   24.8471 C   0  0  0  0  0  0
  -21.4308  -29.2980   22.3568 N   0  0  0  0  0  0
  -26.4303  -37.3781   23.9422 N   0  0  0  0  0  0
  -24.7349  -31.0096   22.0890 N   0  0  0  0  0  0
  -23.4132  -28.8064   23.3241 O   0  0  0  0  0  0
  -28.3160  -26.0950   20.2237 O   0  0  0  0  0  0
  -26.5657  -34.8914   22.4673 O   0  0  0  0  0  0
  -23.5602  -32.1280   23.6877 O   0  0  0  0  0  0
  -28.1596  -19.4216   19.4793 C   0  0  0  0  0  0
  -27.1928  -20.2032   18.8252 C   0  0  0  0  0  0
  -28.9982  -20.2244   20.1847 C   0  0  0  0  0  0
  -27.5433  -21.5207   19.0107 C   0  0  0  0  0  0
  -28.3487  -17.9150   19.4962 C   0  0  0  0  0  0
  -29.9914  -19.1466   20.8856 C   0  0  0  0  0  0
  -29.3259  -17.6156   20.6450 C   0  0  2  0  0  0
  -26.0541  -19.6188   18.0215 C   0  0  0  0  0  0
  -26.9282  -22.6827   18.2996 C   0  0  0  0  0  0
  -29.0891  -23.1507   20.2890 C   0  0  0  0  0  0
  -28.1089  -24.5579   20.5533 C   0  0  0  0  0  0
  -28.5953  -21.6654   19.9443 N   0  0  0  0  0  0
  -29.6690  -16.0561   20.8416 N   0  0  0  0  0  0
  -31.4878  -12.7945   19.2191 H   0  0  0  0  0  0
  -30.4461  -11.6476   20.0438 H   0  0  0  0  0  0
  -29.8698  -11.7665   17.6189 H   0  0  0  0  0  0
  -29.6571  -13.4998   17.7203 H   0  0  0  0  0  0
  -27.9308  -11.3261   18.9053 H   0  0  0  0  0  0
  -27.4365  -12.5811   17.7925 H   0  0  0  0  0  0
  -27.6202  -14.2759   19.4513 H   0  0  0  0  0  0
  -28.7568  -12.2464   21.4305 H   0  0  0  0  0  0
  -28.3566  -13.9056   21.8001 H   0  0  0  0  0  0
  -25.2760   -9.5687   22.4719 H   0  0  0  0  0  0
  -23.9987   -7.4631   22.7445 H   0  0  0  0  0  0
  -21.0831   -8.8688   19.8969 H   0  0  0  0  0  0
  -22.3595  -10.9627   19.6111 H   0  0  0  0  0  0
  -21.2015   -7.6120   23.9684 H   0  0  0  0  0  0
  -21.1514   -6.0521   25.9066 H   0  0  0  0  0  0
  -22.0605   -2.7580   23.2861 H   0  0  0  0  0  0
  -22.4111  -11.9740   22.4768 H   0  0  0  0  0  0
  -21.1099  -13.1110   22.2818 H   0  0  0  0  0  0
  -24.6548  -15.8556   20.5374 H   0  0  0  0  0  0
  -26.2614  -15.6231   20.0727 H   0  0  0  0  0  0
  -26.7368  -32.5378   23.0929 H   0  0  0  0  0  0
  -25.0116  -33.9641   25.0353 H   0  0  0  0  0  0
  -22.7745  -31.2746   21.3593 H   0  0  0  0  0  0
  -23.3805  -35.9543   23.3310 H   0  0  0  0  0  0
  -24.3569  -36.8886   22.2053 H   0  0  0  0  0  0
  -23.7168  -37.6407   23.6681 H   0  0  0  0  0  0
  -26.1618  -31.4523   20.6073 H   0  0  0  0  0  0
  -26.8984  -30.7642   22.0088 H   0  0  0  0  0  0
  -28.1957  -28.7964   21.1546 H   0  0  0  0  0  0
  -25.9561  -25.7925   19.0300 H   0  0  0  0  0  0
  -24.0432  -27.2825   18.9294 H   0  0  0  0  0  0
  -23.7763  -30.4989   19.3720 H   0  0  0  0  0  0
  -22.8170  -29.1414   19.9034 H   0  0  0  0  0  0
  -25.1313  -36.1900   25.0795 H   0  0  0  0  0  0
  -21.0045  -28.3090   24.1380 H   0  0  0  0  0  0
  -20.6177  -26.1937   23.3116 H   0  0  0  0  0  0
  -21.6807  -26.7616   22.0680 H   0  0  0  0  0  0
  -19.7102  -25.6903   21.0260 H   0  0  0  0  0  0
  -19.6685  -27.4073   20.7012 H   0  0  0  0  0  0
  -17.4390  -26.6548   21.3824 H   0  0  0  0  0  0
  -18.0343  -25.9706   22.8690 H   0  0  0  0  0  0
  -19.8070  -30.7129   24.1923 H   0  0  0  0  0  0
  -17.5256  -31.6118   24.5062 H   0  0  0  0  0  0
  -15.5470  -30.2810   23.7783 H   0  0  0  0  0  0
  -15.8674  -28.0494   22.7328 H   0  0  0  0  0  0
  -24.5947  -30.7107   25.7567 H   0  0  0  0  0  0
  -24.8894  -32.2889   26.4714 H   0  0  0  0  0  0
  -25.7940  -30.8863   27.0172 H   0  0  0  0  0  0
  -26.3062  -29.6683   24.1337 H   0  0  0  0  0  0
  -27.4247  -29.7326   25.4770 H   0  0  0  0  0  0
  -27.8922  -30.4310   23.9484 H   0  0  0  0  0  0
  -27.2767  -33.3695   26.1961 H   0  0  0  0  0  0
  -28.3916  -32.6827   25.0243 H   0  0  0  0  0  0
  -28.0834  -31.8524   26.5381 H   0  0  0  0  0  0
  -28.2580  -38.0088   24.7564 H   0  0  0  0  0  0
  -28.1099  -36.2625   24.6274 H   0  0  0  0  0  0
  -27.2314  -37.1396   25.8865 H   0  0  0  0  0  0
  -20.9615  -29.8553   21.6534 H   0  0  0  0  0  0
  -26.0187  -38.2851   24.1458 H   0  0  0  0  0  0
  -28.7605  -17.6082   18.5311 H   0  0  0  0  0  0
  -27.3908  -17.4291   19.6732 H   0  0  0  0  0  0
  -30.1451  -19.3828   21.9420 H   0  0  0  0  0  0
  -30.9809  -19.1959   20.4273 H   0  0  0  0  0  0
  -28.6704  -17.6330   21.5179 H   0  0  0  0  0  0
  -25.0993  -20.1017   18.2326 H   0  0  0  0  0  0
  -26.2722  -19.6967   16.9589 H   0  0  0  0  0  0
  -25.9259  -18.5625   18.2565 H   0  0  0  0  0  0
  -26.0767  -23.0638   18.8591 H   0  0  0  0  0  0
  -26.5932  -22.3897   17.3020 H   0  0  0  0  0  0
  -27.6494  -23.4786   18.1402 H   0  0  0  0  0  0
  -29.7196  -23.0289   21.1686 H   0  0  0  0  0  0
  -29.7724  -23.4084   19.4752 H   0  0  0  0  0  0
  -28.1012  -24.5701   21.6488 H   0  0  0  0  0  0
  -27.0785  -24.3279   20.3265 H   0  0  0  0  0  0
  -28.8261  -15.6199   21.1963 H   0  0  0  0  0  0
  1 25  1  0  0  0
  1 30  2  0  0  0
  1 83  1  0  0  0
  2  3  1  0  0  0
  2 25  1  0  0  0
  2 84  1  0  0  0
  2 85  1  0  0  0
  3  4  1  0  0  0
  3 86  1  0  0  0
  3 87  1  0  0  0
  4  5  1  0  0  0
  4 88  1  0  0  0
  4 89  1  0  0  0
  5  6  1  0  0  0
  5 26  1  0  0  0
  5 90  1  0  0  0
  6 25  1  0  0  0
  6 91  1  0  0  0
  6 92  1  0  0  0
  7  8  2  0  0  0
  7 26  1  0  0  0
  7 29  1  0  0  0
  8  9  1  0  0  0
  8 22  1  0  0  0
  9 10  1  0  0  0
  9 27  2  0  0  0
 10 11  2  0  0  0
 10 15  1  0  0  0
 11 12  1  0  0  0
 11 93  1  0  0  0
 12 13  2  0  0  0
 12 94  1  0  0  0
 13 14  1  0  0  0
 13 31  1  0  0  0
 14 15  2  0  0  0
 14 95  1  0  0  0
 15 96  1  0  0  0
 16 17  2  0  0  0
 16 21  1  0  0  0
 16 31  1  0  0  0
 17 18  1  0  0  0
 17 97  1  0  0  0
 18 19  2  0  0  0
 18 98  1  0  0  0
 19 20  1  0  0  0
 19 24  1  0  0  0
 20 21  2  0  0  0
 20 99  1  0  0  0
 21 23  1  0  0  0
 22 28  1  0  0  0
 22 32  2  0  0  0
 26 27  1  0  0  0
 28100  1  0  0  0
 28101  1  0  0  0
 29102  1  0  0  0
 29103  1  0  0  0
 33 34  1  0  0  0
 33 66  1  0  0  0
 33 70  2  0  0  0
 34 36  1  0  0  0
 34 59  1  0  0  0
 34104  1  0  0  0
 35 44  2  0  0  0
 35 45  1  0  0  0
 35 68  1  0  0  0
 36 56  1  0  0  0
 36105  1  0  0  0
 37 39  1  0  0  0
 37 47  1  0  0  0
 37 66  1  0  0  0
 37106  1  0  0  0
 38 43  2  0  0  0
 38 46  1  0  0  0
 38 47  1  0  0  0
 39 64  1  0  0  0
 39 67  2  0  0  0
 40 52  1  0  0  0
 40 53  2  0  0  0
 40 58  1  0  0  0
 41107  1  0  0  0
 41108  1  0  0  0
 41109  1  0  0  0
 41 48  1  0  0  0
 42 43  1  0  0  0
 42 66  1  0  0  0
 42110  1  0  0  0
 42111  1  0  0  0
 43 44  1  0  0  0
 44112  1  0  0  0
 45 46  2  0  0  0
 45113  1  0  0  0
 46114  1  0  0  0
 47115  1  0  0  0
 47116  1  0  0  0
 48 56  1  0  0  0
 48 65  1  0  0  0
 48117  1  0  0  0
 49 50  1  0  0  0
 49 53  1  0  0  0
 49 64  1  0  0  0
 49118  1  0  0  0
 50 51  1  0  0  0
 50119  1  0  0  0
 50120  1  0  0  0
 51 52  1  0  0  0
 51121  1  0  0  0
 51122  1  0  0  0
 52123  1  0  0  0
 52124  1  0  0  0
 53 54  1  0  0  0
 54 55  2  0  0  0
 54125  1  0  0  0
 55 57  1  0  0  0
 55126  1  0  0  0
 56 69  2  0  0  0
 57 58  2  0  0  0
 57127  1  0  0  0
 58128  1  0  0  0
 59 60  1  0  0  0
 59 61  1  0  0  0
 59 62  1  0  0  0
 60129  1  0  0  0
 60130  1  0  0  0
 60131  1  0  0  0
 61132  1  0  0  0
 61133  1  0  0  0
 61134  1  0  0  0
 62135  1  0  0  0
 62136  1  0  0  0
 62137  1  0  0  0
 63 65  1  0  0  0
 63138  1  0  0  0
 63139  1  0  0  0
 63140  1  0  0  0
 64141  1  0  0  0
 65142  1  0  0  0
 68 81  1  0  0  0
 71 72  1  0  0  0
 71 73  2  0  0  0
 71 75  1  0  0  0
 72 74  2  0  0  0
 72 78  1  0  0  0
 73 76  1  0  0  0
 73 82  1  0  0  0
 74 79  1  0  0  0
 74 82  1  0  0  0
 75 77  1  0  0  0
 75143  1  0  0  0
 75144  1  0  0  0
 76 77  1  0  0  0
 76145  1  0  0  0
 76146  1  0  0  0
 77 83  1  0  0  0
 77147  1  0  0  0
 78148  1  0  0  0
 78149  1  0  0  0
 78150  1  0  0  0
 79151  1  0  0  0
 79152  1  0  0  0
 79153  1  0  0  0
 80 81  1  0  0  0
 80 82  1  0  0  0
 80154  1  0  0  0
 80155  1  0  0  0
 81156  1  0  0  0
 81157  1  0  0  0
 83158  1  0  0  0
M  ISO  4   1 100  68 101  81 101  83 100
M  END
> <chiral flag>
0

> <version>
0

> <s_m_source_file>
/data/baiqing/PycharmProjects/Reinvent-master-3.2/result/LINK_invent/BTK/process_docking_weight1_custom_sum_contain_oxygen_bond_distance_aromatic_linkinvent_7_9_3/rearranged_h_0148.sdf

> <i_m_source_file_index>
76

> <r_mmod_Potential_Energy-OPLS-2005>
815.444152832031

> <r_mmod_Stretch_Energy-OPLS-2005>
333.225921630859

> <r_mmod_Bend_Energy-OPLS-2005>
549.875122070312

> <r_mmod_Torsional_Energy-OPLS-2005>
241.861618041992

> <r_mmod_Improper_Torsional_Energy-OPLS-2005>
5.1899995803833

> <r_mmod_Van_der_Waal_Energy-OPLS-2005>
108.06608581543

> <r_mmod_Electrostatic_Energy-OPLS-2005>
-415.484039306641

> <r_mmod_Solvation_Energy-OPLS-2005>
-226.032073974609

> <b_mmod_Minimization_Converged-OPLS-2005>
0

> <r_mmod_RMS_Derivative-OPLS-2005>
11.1536598205566

$$$$
76
                    3D
 Structure written by MMmdl.
159167  0  0  1  0            999 V2000
  -30.5000  -14.9891   20.4049 C   0  0  0  0  0  0
  -30.4453  -12.6057   19.5238 C   0  0  0  0  0  0
  -29.5339  -12.5482   18.2736 C   0  0  0  0  0  0
  -28.0652  -12.3254   18.6821 C   0  0  0  0  0  0
  -27.6345  -13.2518   19.8493 C   0  0  2  0  0  0
  -28.6716  -13.2754   20.9947 C   0  0  0  0  0  0
  -25.2466  -13.8216   20.5711 C   0  0  0  0  0  0
  -24.1785  -13.0437   20.9215 C   0  0  0  0  0  0
  -24.6410  -11.6922   20.8746 C   0  0  0  0  0  0
  -23.9093  -10.4289   21.0404 C   0  0  0  0  0  0
  -24.3636   -9.4203   21.9186 C   0  0  0  0  0  0
  -23.6302   -8.2247   22.0763 C   0  0  0  0  0  0
  -22.4283   -8.0286   21.3554 C   0  0  0  0  0  0
  -21.9920   -9.0262   20.4656 C   0  0  0  0  0  0
  -22.7261  -10.2135   20.3057 C   0  0  0  0  0  0
  -21.6854   -6.0740   22.5284 C   0  0  0  0  0  0
  -21.4018   -6.5644   23.8216 C   0  0  0  0  0  0
  -21.3654   -5.6799   24.9177 C   0  0  0  0  0  0
  -21.6042   -4.3063   24.7230 C   0  0  0  0  0  0
  -21.8817   -3.8152   23.4352 C   0  0  0  0  0  0
  -21.9194   -4.6966   22.3406 C   0  0  0  0  0  0
  -22.7804  -13.5204   21.1865 C   0  0  0  0  0  0
  -22.1662   -4.2150   21.0984 F   0  0  0  0  0  0
  -21.5621   -3.4545   25.7742 F   0  0  0  0  0  0
  -29.9511  -13.7023   20.4132 N   0  0  0  0  0  0
  -26.2907  -12.9459   20.3276 N   0  0  0  0  0  0
  -25.9350  -11.6582   20.5752 N   0  0  0  0  0  0
  -22.0455  -12.8190   22.0423 N   0  0  0  0  0  0
  -25.4116  -15.1948   20.4119 N   0  0  0  0  0  0
  -31.6737  -15.0863   20.0300 O   0  0  0  0  0  0
  -21.6643   -6.8887   21.4249 O   0  0  0  0  0  0
  -22.3491  -14.5515   20.6716 O   0  0  0  0  0  0
  -24.6468  -31.8395   23.1831 C   0  0  0  0  0  0
  -25.9227  -32.4666   23.8235 C   0  0  1  0  0  0
  -27.2228  -27.1057   20.1554 C   0  0  0  0  0  0
  -25.5957  -33.8470   24.2151 N   0  0  0  0  0  0
  -23.4513  -30.4560   21.5276 C   0  0  2  0  0  0
  -24.9019  -28.8726   20.1050 C   0  0  0  0  0  0
  -22.7581  -29.4531   22.4839 C   0  0  0  0  0  0
  -18.0307  -28.1411   22.8475 C   0  0  0  0  0  0
  -24.1502  -36.7225   23.2643 C   0  0  0  0  0  0
  -26.0082  -30.7020   21.3870 C   0  0  0  0  0  0
  -26.0763  -29.3101   20.7283 C   0  0  0  0  0  0
  -27.2316  -28.4403   20.7384 C   0  0  0  0  0  0
  -26.0223  -26.7702   19.4925 C   0  0  0  0  0  0
  -24.8888  -27.6179   19.4725 C   0  0  0  0  0  0
  -23.6786  -29.7781   20.1486 C   0  0  0  0  0  0
  -25.4136  -36.3006   24.0316 C   0  0  1  0  0  0
  -20.5924  -28.3736   23.1233 C   0  0  2  0  0  0
  -20.6792  -26.9435   22.5412 C   0  0  0  0  0  0
  -19.5767  -26.6389   21.5221 C   0  0  0  0  0  0
  -18.1945  -26.7949   22.1622 C   0  0  0  0  0  0
  -19.1565  -28.8892   23.2847 C   0  0  0  0  0  0
  -18.9480  -30.1487   23.8876 C   0  0  0  0  0  0
  -17.6476  -30.6604   24.0563 C   0  0  0  0  0  0
  -25.9091  -34.9386   23.5048 C   0  0  0  0  0  0
  -16.5368  -29.9098   23.6342 C   0  0  0  0  0  0
  -16.7291  -28.6518   23.0360 C   0  0  0  0  0  0
  -26.4545  -31.6556   25.0696 C   0  0  0  0  0  0
  -25.3727  -31.3759   26.1389 C   0  0  0  0  0  0
  -27.0427  -30.2945   24.6322 C   0  0  0  0  0  0
  -27.6067  -32.4339   25.7477 C   0  0  0  0  0  0
  -27.5582  -37.1779   24.8471 C   0  0  0  0  0  0
  -21.4269  -29.3047   22.3591 N   0  0  0  0  0  0
  -26.4293  -37.3726   23.9411 N   0  0  0  0  0  0
  -24.7215  -31.0231   22.0869 N   0  0  0  0  0  0
  -23.4211  -28.8101   23.3021 O   0  0  0  0  0  0
  -28.2837  -26.1295   20.2918 O   0  0  0  0  0  0
  -26.5686  -34.8897   22.4633 O   0  0  0  0  0  0
  -23.5583  -32.1284   23.7039 O   0  0  0  0  0  0
  -27.9871  -20.6507   19.2632 C   0  0  0  0  0  0
  -29.3602  -21.9485   20.6320 C   0  0  0  0  0  0
  -27.4716  -22.1557   19.2134 C   0  0  2  0  0  0
  -28.2125  -23.0798   20.2504 C   0  0  2  0  0  0
  -25.9416  -22.2553   19.3523 C   0  0  0  0  0  0
  -30.0355  -17.6261   18.5999 C   0  0  0  0  0  0
  -28.3938  -24.6899   19.6776 C   0  0  0  0  0  0
  -29.6715  -19.1311   20.7361 C   0  0  0  0  0  0
  -29.4302  -17.6039   20.0135 C   0  0  2  0  0  0
  -29.6812  -16.1421   20.6372 N   0  0  0  0  0  0
  -28.8395  -20.4856   20.4569 N   0  3  2  0  0  0
  -31.4810  -12.7625   19.2200 H   0  0  0  0  0  0
  -30.4368  -11.6517   20.0533 H   0  0  0  0  0  0
  -29.8623  -11.7555   17.5999 H   0  0  0  0  0  0
  -29.6219  -13.4822   17.7158 H   0  0  0  0  0  0
  -27.9624  -11.2822   18.9842 H   0  0  0  0  0  0
  -27.4064  -12.4614   17.8236 H   0  0  0  0  0  0
  -27.6002  -14.2563   19.4269 H   0  0  0  0  0  0
  -28.7618  -12.2947   21.4644 H   0  0  0  0  0  0
  -28.3600  -13.9648   21.7804 H   0  0  0  0  0  0
  -25.2781   -9.5674   22.4765 H   0  0  0  0  0  0
  -24.0003   -7.4637   22.7483 H   0  0  0  0  0  0
  -21.0850   -8.8790   19.8964 H   0  0  0  0  0  0
  -22.3724  -10.9676   19.6166 H   0  0  0  0  0  0
  -21.2018   -7.6154   23.9721 H   0  0  0  0  0  0
  -21.1475   -6.0529   25.9079 H   0  0  0  0  0  0
  -22.0601   -2.7614   23.2855 H   0  0  0  0  0  0
  -22.4075  -11.9851   22.4804 H   0  0  0  0  0  0
  -21.1084  -13.1235   22.2656 H   0  0  0  0  0  0
  -24.6347  -15.8394   20.5062 H   0  0  0  0  0  0
  -26.2463  -15.6332   20.0470 H   0  0  0  0  0  0
  -26.7286  -32.5257   23.0952 H   0  0  0  0  0  0
  -25.0067  -33.9575   25.0271 H   0  0  0  0  0  0
  -22.7555  -31.2825   21.3696 H   0  0  0  0  0  0
  -23.3778  -35.9544   23.3293 H   0  0  0  0  0  0
  -24.3589  -36.8863   22.2061 H   0  0  0  0  0  0
  -23.7248  -37.6413   23.6684 H   0  0  0  0  0  0
  -26.1742  -31.4543   20.6147 H   0  0  0  0  0  0
  -26.8752  -30.7484   22.0346 H   0  0  0  0  0  0
  -28.1231  -28.7678   21.2539 H   0  0  0  0  0  0
  -25.9159  -25.8018   19.0294 H   0  0  0  0  0  0
  -23.9887  -27.2747   18.9809 H   0  0  0  0  0  0
  -23.8149  -30.5488   19.3896 H   0  0  0  0  0  0
  -22.7931  -29.2185   19.8415 H   0  0  0  0  0  0
  -25.1333  -36.1816   25.0809 H   0  0  0  0  0  0
  -21.0018  -28.3333   24.1355 H   0  0  0  0  0  0
  -20.5686  -26.2355   23.3641 H   0  0  0  0  0  0
  -21.6659  -26.7440   22.1216 H   0  0  0  0  0  0
  -19.6927  -25.6291   21.1273 H   0  0  0  0  0  0
  -19.6707  -27.3182   20.6738 H   0  0  0  0  0  0
  -17.4221  -26.6706   21.4017 H   0  0  0  0  0  0
  -18.0327  -26.0098   22.9024 H   0  0  0  0  0  0
  -19.7955  -30.7313   24.2237 H   0  0  0  0  0  0
  -17.5028  -31.6277   24.5174 H   0  0  0  0  0  0
  -15.5367  -30.2993   23.7682 H   0  0  0  0  0  0
  -15.8692  -28.0830   22.7093 H   0  0  0  0  0  0
  -24.5930  -30.7070   25.7727 H   0  0  0  0  0  0
  -24.8889  -32.2941   26.4719 H   0  0  0  0  0  0
  -25.8024  -30.9010   27.0217 H   0  0  0  0  0  0
  -26.3064  -29.6645   24.1321 H   0  0  0  0  0  0
  -27.4016  -29.7269   25.4917 H   0  0  0  0  0  0
  -27.8975  -30.4180   23.9672 H   0  0  0  0  0  0
  -27.2657  -33.3665   26.1982 H   0  0  0  0  0  0
  -28.3915  -32.6856   25.0333 H   0  0  0  0  0  0
  -28.0695  -31.8507   26.5447 H   0  0  0  0  0  0
  -28.2598  -38.0076   24.7511 H   0  0  0  0  0  0
  -28.1083  -36.2608   24.6308 H   0  0  0  0  0  0
  -27.2305  -37.1434   25.8876 H   0  0  0  0  0  0
  -20.9496  -29.8707   21.6715 H   0  0  0  0  0  0
  -26.0151  -38.2794   24.1393 H   0  0  0  0  0  0
  -28.5871  -20.4517   18.3754 H   0  0  0  0  0  0
  -27.1706  -19.9270   19.2665 H   0  0  0  0  0  0
  -29.7286  -22.1001   21.6469 H   0  0  0  0  0  0
  -30.2176  -22.0760   19.9706 H   0  0  0  0  0  0
  -27.7171  -22.5168   18.2134 H   0  0  0  0  0  0
  -27.5732  -23.1555   21.1309 H   0  0  0  0  0  0
  -25.6002  -21.8683   20.3132 H   0  0  0  0  0  0
  -25.4370  -21.6898   18.5681 H   0  0  0  0  0  0
  -25.6028  -23.2891   19.2747 H   0  0  0  0  0  0
  -29.7368  -16.7510   18.0213 H   0  0  0  0  0  0
  -31.1254  -17.6447   18.6381 H   0  0  0  0  0  0
  -29.7142  -18.5014   18.0371 H   0  0  0  0  0  0
  -27.7829  -24.7443   18.7789 H   0  0  0  0  0  0
  -29.4007  -24.6954   19.2602 H   0  0  0  0  0  0
  -30.7192  -19.3902   20.5826 H   0  0  0  0  0  0
  -29.5955  -18.9843   21.8133 H   0  0  0  0  0  0
  -28.3497  -17.5746   19.8680 H   0  0  0  0  0  0
  -28.8541  -15.8428   21.1342 H   0  0  0  0  0  0
  -28.1499  -20.4212   21.1906 H   0  0  0  0  0  0
  1 25  1  0  0  0
  1 30  2  0  0  0
  1 80  1  0  0  0
  2  3  1  0  0  0
  2 25  1  0  0  0
  2 82  1  0  0  0
  2 83  1  0  0  0
  3  4  1  0  0  0
  3 84  1  0  0  0
  3 85  1  0  0  0
  4  5  1  0  0  0
  4 86  1  0  0  0
  4 87  1  0  0  0
  5  6  1  0  0  0
  5 26  1  0  0  0
  5 88  1  0  0  0
  6 25  1  0  0  0
  6 89  1  0  0  0
  6 90  1  0  0  0
  7  8  2  0  0  0
  7 26  1  0  0  0
  7 29  1  0  0  0
  8  9  1  0  0  0
  8 22  1  0  0  0
  9 10  1  0  0  0
  9 27  2  0  0  0
 10 11  2  0  0  0
 10 15  1  0  0  0
 11 12  1  0  0  0
 11 91  1  0  0  0
 12 13  2  0  0  0
 12 92  1  0  0  0
 13 14  1  0  0  0
 13 31  1  0  0  0
 14 15  2  0  0  0
 14 93  1  0  0  0
 15 94  1  0  0  0
 16 17  2  0  0  0
 16 21  1  0  0  0
 16 31  1  0  0  0
 17 18  1  0  0  0
 17 95  1  0  0  0
 18 19  2  0  0  0
 18 96  1  0  0  0
 19 20  1  0  0  0
 19 24  1  0  0  0
 20 21  2  0  0  0
 20 97  1  0  0  0
 21 23  1  0  0  0
 22 28  1  0  0  0
 22 32  2  0  0  0
 26 27  1  0  0  0
 28 98  1  0  0  0
 28 99  1  0  0  0
 29100  1  0  0  0
 29101  1  0  0  0
 33 34  1  0  0  0
 33 66  1  0  0  0
 33 70  2  0  0  0
 34 36  1  0  0  0
 34 59  1  0  0  0
 34102  1  0  0  0
 35 44  2  0  0  0
 35 45  1  0  0  0
 35 68  1  0  0  0
 36 56  1  0  0  0
 36103  1  0  0  0
 37 39  1  0  0  0
 37 47  1  0  0  0
 37 66  1  0  0  0
 37104  1  0  0  0
 38 43  2  0  0  0
 38 46  1  0  0  0
 38 47  1  0  0  0
 39 64  1  0  0  0
 39 67  2  0  0  0
 40 52  1  0  0  0
 40 53  2  0  0  0
 40 58  1  0  0  0
 41105  1  0  0  0
 41106  1  0  0  0
 41107  1  0  0  0
 41 48  1  0  0  0
 42 43  1  0  0  0
 42 66  1  0  0  0
 42108  1  0  0  0
 42109  1  0  0  0
 43 44  1  0  0  0
 44110  1  0  0  0
 45 46  2  0  0  0
 45111  1  0  0  0
 46112  1  0  0  0
 47113  1  0  0  0
 47114  1  0  0  0
 48 56  1  0  0  0
 48 65  1  0  0  0
 48115  1  0  0  0
 49 50  1  0  0  0
 49 53  1  0  0  0
 49 64  1  0  0  0
 49116  1  0  0  0
 50 51  1  0  0  0
 50117  1  0  0  0
 50118  1  0  0  0
 51 52  1  0  0  0
 51119  1  0  0  0
 51120  1  0  0  0
 52121  1  0  0  0
 52122  1  0  0  0
 53 54  1  0  0  0
 54 55  2  0  0  0
 54123  1  0  0  0
 55 57  1  0  0  0
 55124  1  0  0  0
 56 69  2  0  0  0
 57 58  2  0  0  0
 57125  1  0  0  0
 58126  1  0  0  0
 59 60  1  0  0  0
 59 61  1  0  0  0
 59 62  1  0  0  0
 60127  1  0  0  0
 60128  1  0  0  0
 60129  1  0  0  0
 61130  1  0  0  0
 61131  1  0  0  0
 61132  1  0  0  0
 62133  1  0  0  0
 62134  1  0  0  0
 62135  1  0  0  0
 63 65  1  0  0  0
 63136  1  0  0  0
 63137  1  0  0  0
 63138  1  0  0  0
 64139  1  0  0  0
 65140  1  0  0  0
 68 77  1  0  0  0
 71 73  1  0  0  0
 71 81  1  0  0  0
 71141  1  0  0  0
 71142  1  0  0  0
 72 74  1  0  0  0
 72 81  1  0  0  0
 72143  1  0  0  0
 72144  1  0  0  0
 73 74  1  0  0  0
 73 75  1  0  0  0
 73145  1  0  0  0
 74 77  1  0  0  0
 74146  1  0  0  0
 75147  1  0  0  0
 75148  1  0  0  0
 75149  1  0  0  0
 76150  1  0  0  0
 76151  1  0  0  0
 76152  1  0  0  0
 76 79  1  0  0  0
 77153  1  0  0  0
 77154  1  0  0  0
 78 79  1  0  0  0
 78155  1  0  0  0
 78156  1  0  0  0
 78 81  1  0  0  0
 79 80  1  0  0  0
 79157  1  0  0  0
 80158  1  0  0  0
 81159  1  0  0  0
M  CHG  1  81   1
M  ISO  4   1 100  68 101  77 101  80 100
M  END
> <chiral flag>
0

> <version>
0

> <s_m_source_file>
/data/baiqing/PycharmProjects/Reinvent-master-3.2/result/LINK_invent/BTK/process_docking_weight1_custom_sum_contain_oxygen_bond_distance_aromatic_linkinvent_7_9_3/rearranged_h_0148.sdf

> <i_m_source_file_index>
77

> <r_mmod_Potential_Energy-OPLS-2005>
634.131591796875

> <r_mmod_Stretch_Energy-OPLS-2005>
301.5224609375

> <r_mmod_Bend_Energy-OPLS-2005>
392.646148681641

> <r_mmod_Torsional_Energy-OPLS-2005>
314.04638671875

> <r_mmod_Improper_Torsional_Energy-OPLS-2005>
5.85207319259644

> <r_mmod_Van_der_Waal_Energy-OPLS-2005>
103.776580810547

> <r_mmod_Electrostatic_Energy-OPLS-2005>
-237.751831054688

> <r_mmod_Solvation_Energy-OPLS-2005>
-468.716217041016

> <b_mmod_Minimization_Converged-OPLS-2005>
0

> <r_mmod_RMS_Derivative-OPLS-2005>
1.10109627246857

$$$$
77
                    3D
 Structure written by MMmdl.
171180  0  0  1  0            999 V2000
  -30.6973  -14.7223   20.4340 C   0  0  0  0  0  0
  -30.4145  -12.4457   19.4593 C   0  0  0  0  0  0
  -29.4951  -12.4852   18.2232 C   0  0  0  0  0  0
  -28.0260  -12.3037   18.6491 C   0  0  0  0  0  0
  -27.6315  -13.2161   19.8404 C   0  0  2  0  0  0
  -28.6909  -13.2148   20.9684 C   0  0  0  0  0  0
  -25.2477  -13.8137   20.5729 C   0  0  0  0  0  0
  -24.1777  -13.0393   20.9296 C   0  0  0  0  0  0
  -24.6353  -11.6864   20.8801 C   0  0  0  0  0  0
  -23.9016  -10.4252   21.0430 C   0  0  0  0  0  0
  -24.3574   -9.4169   21.9207 C   0  0  0  0  0  0
  -23.6262   -8.2202   22.0764 C   0  0  0  0  0  0
  -22.4258   -8.0249   21.3538 C   0  0  0  0  0  0
  -21.9876   -9.0215   20.4652 C   0  0  0  0  0  0
  -22.7189  -10.2103   20.3067 C   0  0  0  0  0  0
  -21.6845   -6.0712   22.5273 C   0  0  0  0  0  0
  -21.4001   -6.5624   23.8196 C   0  0  0  0  0  0
  -21.3685   -5.6786   24.9168 C   0  0  0  0  0  0
  -21.6048   -4.3042   24.7222 C   0  0  0  0  0  0
  -21.8831   -3.8141   23.4346 C   0  0  0  0  0  0
  -21.9183   -4.6949   22.3398 C   0  0  0  0  0  0
  -22.7796  -13.5196   21.1867 C   0  0  0  0  0  0
  -22.1630   -4.2128   21.0984 F   0  0  0  0  0  0
  -21.5668   -3.4533   25.7754 F   0  0  0  0  0  0
  -29.9882  -13.5433   20.3592 N   0  0  0  0  0  0
  -26.2889  -12.9308   20.3318 N   0  0  0  0  0  0
  -25.9290  -11.6480   20.5858 N   0  0  0  0  0  0
  -22.0421  -12.8230   22.0456 N   0  0  0  0  0  0
  -25.4167  -15.1877   20.4089 N   0  0  0  0  0  0
  -31.9052  -14.7074   20.1759 O   0  0  0  0  0  0
  -21.6632   -6.8853   21.4242 O   0  0  0  0  0  0
  -22.3497  -14.5476   20.6675 O   0  0  0  0  0  0
  -24.6338  -31.8528   23.2048 C   0  0  0  0  0  0
  -25.9151  -32.4755   23.8376 C   0  0  1  0  0  0
  -27.1845  -27.2599   20.1036 C   0  0  0  0  0  0
  -25.5938  -33.8568   24.2284 N   0  0  0  0  0  0
  -23.4273  -30.4852   21.5492 C   0  0  2  0  0  0
  -24.8674  -28.9483   20.0984 C   0  0  0  0  0  0
  -22.7532  -29.4583   22.4926 C   0  0  0  0  0  0
  -18.0303  -28.1368   22.8471 C   0  0  0  0  0  0
  -24.1484  -36.7284   23.2644 C   0  0  0  0  0  0
  -25.9784  -30.7639   21.3873 C   0  0  0  0  0  0
  -26.0451  -29.3941   20.7161 C   0  0  0  0  0  0
  -27.2100  -28.5565   20.7212 C   0  0  0  0  0  0
  -26.0066  -26.9276   19.3944 C   0  0  0  0  0  0
  -24.8551  -27.7261   19.4207 C   0  0  0  0  0  0
  -23.6403  -29.8318   20.1591 C   0  0  0  0  0  0
  -25.4108  -36.3076   24.0351 C   0  0  1  0  0  0
  -20.5900  -28.3645   23.1270 C   0  0  2  0  0  0
  -20.6755  -26.9363   22.5383 C   0  0  0  0  0  0
  -19.5720  -26.6367   21.5172 C   0  0  0  0  0  0
  -18.1902  -26.7902   22.1613 C   0  0  0  0  0  0
  -19.1566  -28.8841   23.2863 C   0  0  0  0  0  0
  -18.9493  -30.1430   23.8924 C   0  0  0  0  0  0
  -17.6494  -30.6562   24.0578 C   0  0  0  0  0  0
  -25.9050  -34.9445   23.5117 C   0  0  0  0  0  0
  -16.5386  -29.9073   23.6336 C   0  0  0  0  0  0
  -16.7290  -28.6489   23.0361 C   0  0  0  0  0  0
  -26.4518  -31.6584   25.0763 C   0  0  0  0  0  0
  -25.3767  -31.3684   26.1485 C   0  0  0  0  0  0
  -27.0347  -30.2994   24.6259 C   0  0  0  0  0  0
  -27.6102  -32.4309   25.7516 C   0  0  0  0  0  0
  -27.5595  -37.1805   24.8482 C   0  0  0  0  0  0
  -21.4234  -29.3002   22.3689 N   0  0  0  0  0  0
  -26.4281  -37.3784   23.9435 N   0  0  0  0  0  0
  -24.7006  -31.0509   22.1036 N   0  0  0  0  0  0
  -23.4233  -28.8076   23.2985 O   0  0  0  0  0  0
  -28.1755  -26.2533   20.2487 O   0  0  0  0  0  0
  -26.5592  -34.8935   22.4677 O   0  0  0  0  0  0
  -23.5486  -32.1350   23.7339 O   0  0  0  0  0  0
  -29.0374  -21.3526   19.5061 C   0  0  0  0  0  0
  -28.7045  -22.7566   19.4819 C   0  0  0  0  0  0
  -28.5864  -22.7518   21.8594 C   0  0  0  0  0  0
  -29.0968  -20.5842   20.7091 C   0  0  0  0  0  0
  -28.4252  -23.5098   20.6631 C   0  0  0  0  0  0
  -28.8831  -21.3533   21.8934 C   0  0  0  0  0  0
  -28.8764  -18.0706   19.6227 C   0  0  0  0  0  0
  -30.7247  -18.4888   21.1211 C   0  0  0  0  0  0
  -28.9252  -16.5125   19.9483 C   0  0  0  0  0  0
  -30.7887  -16.9733   21.5470 C   0  0  0  0  0  0
  -29.3048  -18.9947   20.7910 C   0  0  0  0  0  0
  -26.9179  -25.1177   22.0382 C   0  0  0  0  0  0
  -27.8090  -21.4165   25.2284 C   0  0  0  0  0  0
  -27.1563  -19.2556   24.0529 C   0  0  0  0  0  0
  -27.6292  -24.9047   20.6737 C   0  0  1  0  0  0
  -27.6517  -20.6989   23.8806 C   0  0  0  0  0  0
  -30.0865  -15.9493   20.7089 N   0  0  0  0  0  0
  -28.9111  -20.7177   23.1412 N   0  0  0  0  0  0
  -31.4562  -12.5323   19.1462 H   0  0  0  0  0  0
  -30.3363  -11.4830   19.9674 H   0  0  0  0  0  0
  -29.7769  -11.7009   17.5183 H   0  0  0  0  0  0
  -29.6178  -13.4344   17.6999 H   0  0  0  0  0  0
  -27.8897  -11.2558   18.9203 H   0  0  0  0  0  0
  -27.3633  -12.4748   17.8007 H   0  0  0  0  0  0
  -27.5908  -14.2149   19.4202 H   0  0  0  0  0  0
  -28.7352  -12.2406   21.4575 H   0  0  0  0  0  0
  -28.4302  -13.9418   21.7397 H   0  0  0  0  0  0
  -25.2706   -9.5662   22.4797 H   0  0  0  0  0  0
  -23.9977   -7.4588   22.7462 H   0  0  0  0  0  0
  -21.0826   -8.8698   19.8948 H   0  0  0  0  0  0
  -22.3615  -10.9636   19.6200 H   0  0  0  0  0  0
  -21.1960   -7.6119   23.9698 H   0  0  0  0  0  0
  -21.1516   -6.0521   25.9079 H   0  0  0  0  0  0
  -22.0594   -2.7600   23.2861 H   0  0  0  0  0  0
  -22.4001  -11.9897   22.4862 H   0  0  0  0  0  0
  -21.1045  -13.1293   22.2605 H   0  0  0  0  0  0
  -24.6517  -15.8429   20.5215 H   0  0  0  0  0  0
  -26.2702  -15.6279   20.0934 H   0  0  0  0  0  0
  -26.7232  -32.5347   23.1120 H   0  0  0  0  0  0
  -25.0115  -33.9725   25.0451 H   0  0  0  0  0  0
  -22.7244  -31.3098   21.4117 H   0  0  0  0  0  0
  -23.3775  -35.9588   23.3273 H   0  0  0  0  0  0
  -24.3579  -36.8900   22.2061 H   0  0  0  0  0  0
  -23.7201  -37.6489   23.6646 H   0  0  0  0  0  0
  -26.1212  -31.5352   20.6278 H   0  0  0  0  0  0
  -26.8609  -30.8048   22.0164 H   0  0  0  0  0  0
  -28.0964  -28.8713   21.2560 H   0  0  0  0  0  0
  -25.9327  -26.0160   18.8250 H   0  0  0  0  0  0
  -23.9593  -27.4033   18.9046 H   0  0  0  0  0  0
  -23.7604  -30.6133   19.4077 H   0  0  0  0  0  0
  -22.7579  -29.2651   19.8537 H   0  0  0  0  0  0
  -25.1300  -36.1944   25.0851 H   0  0  0  0  0  0
  -20.9992  -28.3185   24.1393 H   0  0  0  0  0  0
  -20.5545  -26.2253   23.3574 H   0  0  0  0  0  0
  -21.6664  -26.7303   22.1288 H   0  0  0  0  0  0
  -19.6837  -25.6294   21.1181 H   0  0  0  0  0  0
  -19.6633  -27.3173   20.6695 H   0  0  0  0  0  0
  -17.4174  -26.6665   21.4011 H   0  0  0  0  0  0
  -18.0383  -26.0034   22.9048 H   0  0  0  0  0  0
  -19.7995  -30.7215   24.2317 H   0  0  0  0  0  0
  -17.5074  -31.6232   24.5202 H   0  0  0  0  0  0
  -15.5379  -30.2974   23.7674 H   0  0  0  0  0  0
  -15.8689  -28.0779   22.7093 H   0  0  0  0  0  0
  -24.5995  -30.6968   25.7816 H   0  0  0  0  0  0
  -24.8917  -32.2825   26.4919 H   0  0  0  0  0  0
  -25.8132  -30.8873   27.0246 H   0  0  0  0  0  0
  -26.2926  -29.6748   24.1268 H   0  0  0  0  0  0
  -27.4002  -29.7242   25.4781 H   0  0  0  0  0  0
  -27.8826  -30.4268   23.9519 H   0  0  0  0  0  0
  -27.2760  -33.3634   26.2068 H   0  0  0  0  0  0
  -28.3927  -32.6803   25.0339 H   0  0  0  0  0  0
  -28.0764  -31.8436   26.5435 H   0  0  0  0  0  0
  -28.2632  -38.0095   24.7577 H   0  0  0  0  0  0
  -28.1082  -36.2646   24.6257 H   0  0  0  0  0  0
  -27.2323  -37.1412   25.8886 H   0  0  0  0  0  0
  -20.9399  -29.8825   21.7009 H   0  0  0  0  0  0
  -26.0161  -38.2866   24.1418 H   0  0  0  0  0  0
  -29.1904  -20.8509   18.5622 H   0  0  0  0  0  0
  -28.5791  -23.2377   18.5218 H   0  0  0  0  0  0
  -28.3883  -23.2223   22.8090 H   0  0  0  0  0  0
  -27.8572  -18.3268   19.3260 H   0  0  0  0  0  0
  -29.4953  -18.2756   18.7468 H   0  0  0  0  0  0
  -31.3828  -18.6625   20.2668 H   0  0  0  0  0  0
  -31.1322  -19.0934   21.9321 H   0  0  0  0  0  0
  -28.8268  -15.9797   19.0024 H   0  0  0  0  0  0
  -28.0409  -16.2653   20.5340 H   0  0  0  0  0  0
  -30.3668  -16.8863   22.5483 H   0  0  0  0  0  0
  -31.8392  -16.7093   21.6746 H   0  0  0  0  0  0
  -28.6598  -18.6771   21.6091 H   0  0  0  0  0  0
  -27.6295  -25.3506   22.8287 H   0  0  0  0  0  0
  -26.3531  -24.2334   22.3392 H   0  0  0  0  0  0
  -26.1905  -25.9282   22.0216 H   0  0  0  0  0  0
  -26.8936  -21.3571   25.8186 H   0  0  0  0  0  0
  -28.0240  -22.4754   25.0893 H   0  0  0  0  0  0
  -28.6120  -20.9825   25.8271 H   0  0  0  0  0  0
  -26.3010  -19.2053   24.7294 H   0  0  0  0  0  0
  -27.9307  -18.6061   24.4633 H   0  0  0  0  0  0
  -26.8330  -18.8287   23.1022 H   0  0  0  0  0  0
  -26.8412  -24.6299   19.9779 H   0  0  0  0  0  0
  -26.8774  -21.2237   23.3170 H   0  0  0  0  0  0
  -29.3610  -19.8090   23.1052 H   0  0  0  0  0  0
  1 25  1  0  0  0
  1 30  2  0  0  0
  1 87  1  0  0  0
  2  3  1  0  0  0
  2 25  1  0  0  0
  2 89  1  0  0  0
  2 90  1  0  0  0
  3  4  1  0  0  0
  3 91  1  0  0  0
  3 92  1  0  0  0
  4  5  1  0  0  0
  4 93  1  0  0  0
  4 94  1  0  0  0
  5  6  1  0  0  0
  5 26  1  0  0  0
  5 95  1  0  0  0
  6 25  1  0  0  0
  6 96  1  0  0  0
  6 97  1  0  0  0
  7  8  2  0  0  0
  7 26  1  0  0  0
  7 29  1  0  0  0
  8  9  1  0  0  0
  8 22  1  0  0  0
  9 10  1  0  0  0
  9 27  2  0  0  0
 10 11  2  0  0  0
 10 15  1  0  0  0
 11 12  1  0  0  0
 11 98  1  0  0  0
 12 13  2  0  0  0
 12 99  1  0  0  0
 13 14  1  0  0  0
 13 31  1  0  0  0
 14 15  2  0  0  0
 14100  1  0  0  0
 15101  1  0  0  0
 16 17  2  0  0  0
 16 21  1  0  0  0
 16 31  1  0  0  0
 17 18  1  0  0  0
 17102  1  0  0  0
 18 19  2  0  0  0
 18103  1  0  0  0
 19 20  1  0  0  0
 19 24  1  0  0  0
 20 21  2  0  0  0
 20104  1  0  0  0
 21 23  1  0  0  0
 22 28  1  0  0  0
 22 32  2  0  0  0
 26 27  1  0  0  0
 28105  1  0  0  0
 28106  1  0  0  0
 29107  1  0  0  0
 29108  1  0  0  0
 33 34  1  0  0  0
 33 66  1  0  0  0
 33 70  2  0  0  0
 34 36  1  0  0  0
 34 59  1  0  0  0
 34109  1  0  0  0
 35 44  2  0  0  0
 35 45  1  0  0  0
 35 68  1  0  0  0
 36 56  1  0  0  0
 36110  1  0  0  0
 37 39  1  0  0  0
 37 47  1  0  0  0
 37 66  1  0  0  0
 37111  1  0  0  0
 38 43  2  0  0  0
 38 46  1  0  0  0
 38 47  1  0  0  0
 39 64  1  0  0  0
 39 67  2  0  0  0
 40 52  1  0  0  0
 40 53  2  0  0  0
 40 58  1  0  0  0
 41112  1  0  0  0
 41113  1  0  0  0
 41114  1  0  0  0
 41 48  1  0  0  0
 42 43  1  0  0  0
 42 66  1  0  0  0
 42115  1  0  0  0
 42116  1  0  0  0
 43 44  1  0  0  0
 44117  1  0  0  0
 45 46  2  0  0  0
 45118  1  0  0  0
 46119  1  0  0  0
 47120  1  0  0  0
 47121  1  0  0  0
 48 56  1  0  0  0
 48 65  1  0  0  0
 48122  1  0  0  0
 49 50  1  0  0  0
 49 53  1  0  0  0
 49 64  1  0  0  0
 49123  1  0  0  0
 50 51  1  0  0  0
 50124  1  0  0  0
 50125  1  0  0  0
 51 52  1  0  0  0
 51126  1  0  0  0
 51127  1  0  0  0
 52128  1  0  0  0
 52129  1  0  0  0
 53 54  1  0  0  0
 54 55  2  0  0  0
 54130  1  0  0  0
 55 57  1  0  0  0
 55131  1  0  0  0
 56 69  2  0  0  0
 57 58  2  0  0  0
 57132  1  0  0  0
 58133  1  0  0  0
 59 60  1  0  0  0
 59 61  1  0  0  0
 59 62  1  0  0  0
 60134  1  0  0  0
 60135  1  0  0  0
 60136  1  0  0  0
 61137  1  0  0  0
 61138  1  0  0  0
 61139  1  0  0  0
 62140  1  0  0  0
 62141  1  0  0  0
 62142  1  0  0  0
 63 65  1  0  0  0
 63143  1  0  0  0
 63144  1  0  0  0
 63145  1  0  0  0
 64146  1  0  0  0
 65147  1  0  0  0
 68 85  1  0  0  0
 71 72  2  0  0  0
 71 74  1  0  0  0
 71148  1  0  0  0
 72 75  1  0  0  0
 72149  1  0  0  0
 73 75  2  0  0  0
 73 76  1  0  0  0
 73150  1  0  0  0
 74 76  2  0  0  0
 74 81  1  0  0  0
 75 85  1  0  0  0
 76 88  1  0  0  0
 77 79  1  0  0  0
 77 81  1  0  0  0
 77151  1  0  0  0
 77152  1  0  0  0
 78 80  1  0  0  0
 78 81  1  0  0  0
 78153  1  0  0  0
 78154  1  0  0  0
 79 87  1  0  0  0
 79155  1  0  0  0
 79156  1  0  0  0
 80 87  1  0  0  0
 80157  1  0  0  0
 80158  1  0  0  0
 81159  1  0  0  0
 82160  1  0  0  0
 82161  1  0  0  0
 82162  1  0  0  0
 82 85  1  0  0  0
 83163  1  0  0  0
 83164  1  0  0  0
 83165  1  0  0  0
 83 86  1  0  0  0
 84 86  1  0  0  0
 84166  1  0  0  0
 84167  1  0  0  0
 84168  1  0  0  0
 85169  1  0  0  0
 86 88  1  0  0  0
 86170  1  0  0  0
 88171  1  0  0  0
M  ISO  4   1 100  68 101  85 101  87 100
M  END
> <chiral flag>
0

> <version>
0

> <s_m_source_file>
/data/baiqing/PycharmProjects/Reinvent-master-3.2/result/LINK_invent/BTK/process_docking_weight1_custom_sum_contain_oxygen_bond_distance_aromatic_linkinvent_7_9_3/rearranged_h_0148.sdf

> <i_m_source_file_index>
78

> <r_mmod_Potential_Energy-OPLS-2005>
436.21875

> <r_mmod_Stretch_Energy-OPLS-2005>
118.596611022949

> <r_mmod_Bend_Energy-OPLS-2005>
198.10432434082

> <r_mmod_Torsional_Energy-OPLS-2005>
371.837707519531

> <r_mmod_Improper_Torsional_Energy-OPLS-2005>
11.1013116836548

> <r_mmod_Van_der_Waal_Energy-OPLS-2005>
155.449890136719

> <r_mmod_Electrostatic_Energy-OPLS-2005>
-328.364318847656

> <r_mmod_Solvation_Energy-OPLS-2005>
-196.923385620117

> <b_mmod_Minimization_Converged-OPLS-2005>
0

> <r_mmod_RMS_Derivative-OPLS-2005>
4.81662178039551

$$$$
78
                    3D
 Structure written by MMmdl.
180189  0  0  1  0            999 V2000
  -30.6028  -14.5807   20.5284 C   0  0  0  0  0  0
  -30.4419  -12.3601   19.4273 C   0  0  0  0  0  0
  -29.5031  -12.5090   18.2095 C   0  0  0  0  0  0
  -28.0224  -12.3507   18.6209 C   0  0  0  0  0  0
  -27.6535  -13.2015   19.8649 C   0  0  2  0  0  0
  -28.6977  -13.0051   20.9851 C   0  0  0  0  0  0
  -25.2578  -13.8121   20.5748 C   0  0  0  0  0  0
  -24.1801  -13.0403   20.9156 C   0  0  0  0  0  0
  -24.6335  -11.6865   20.8685 C   0  0  0  0  0  0
  -23.8983  -10.4267   21.0365 C   0  0  0  0  0  0
  -24.3549   -9.4214   21.9147 C   0  0  0  0  0  0
  -23.6250   -8.2239   22.0737 C   0  0  0  0  0  0
  -22.4242   -8.0238   21.3544 C   0  0  0  0  0  0
  -21.9852   -9.0194   20.4636 C   0  0  0  0  0  0
  -22.7142  -10.2087   20.3027 C   0  0  0  0  0  0
  -21.6845   -6.0702   22.5274 C   0  0  0  0  0  0
  -21.4002   -6.5617   23.8197 C   0  0  0  0  0  0
  -21.3670   -5.6770   24.9160 C   0  0  0  0  0  0
  -21.6038   -4.3036   24.7207 C   0  0  0  0  0  0
  -21.8823   -3.8129   23.4334 C   0  0  0  0  0  0
  -21.9205   -4.6944   22.3389 C   0  0  0  0  0  0
  -22.7836  -13.5248   21.1842 C   0  0  0  0  0  0
  -22.1686   -4.2143   21.0961 F   0  0  0  0  0  0
  -21.5636   -3.4507   25.7717 F   0  0  0  0  0  0
  -30.0147  -13.3532   20.4255 N   0  0  0  0  0  0
  -26.2969  -12.9276   20.3319 N   0  0  0  0  0  0
  -25.9257  -11.6427   20.5688 N   0  0  0  0  0  0
  -22.0467  -12.8265   22.0417 N   0  0  0  0  0  0
  -25.4339  -15.1858   20.4395 N   0  0  0  0  0  0
  -31.7702  -14.7928   20.1832 O   0  0  0  0  0  0
  -21.6635   -6.8834   21.4228 O   0  0  0  0  0  0
  -22.3556  -14.5571   20.6716 O   0  0  0  0  0  0
  -24.6220  -31.8624   23.2058 C   0  0  0  0  0  0
  -25.9095  -32.4786   23.8371 C   0  0  1  0  0  0
  -27.2437  -27.3730   20.0904 C   0  0  0  0  0  0
  -25.5947  -33.8587   24.2321 N   0  0  0  0  0  0
  -23.4132  -30.4846   21.5458 C   0  0  2  0  0  0
  -24.8596  -28.9370   20.1126 C   0  0  0  0  0  0
  -22.7453  -29.4636   22.4963 C   0  0  0  0  0  0
  -18.0281  -28.1376   22.8484 C   0  0  0  0  0  0
  -24.1477  -36.7273   23.2637 C   0  0  0  0  0  0
  -25.9484  -30.8055   21.3683 C   0  0  0  0  0  0
  -26.0219  -29.4356   20.7104 C   0  0  0  0  0  0
  -27.2117  -28.6614   20.6931 C   0  0  0  0  0  0
  -26.0528  -26.8958   19.4980 C   0  0  0  0  0  0
  -24.8730  -27.6679   19.5045 C   0  0  0  0  0  0
  -23.6266  -29.8135   20.1614 C   0  0  0  0  0  0
  -25.4101  -36.3087   24.0344 C   0  0  1  0  0  0
  -20.5876  -28.3664   23.1292 C   0  0  2  0  0  0
  -20.6765  -26.9394   22.5411 C   0  0  0  0  0  0
  -19.5748  -26.6371   21.5208 C   0  0  0  0  0  0
  -18.1924  -26.7920   22.1616 C   0  0  0  0  0  0
  -19.1534  -28.8842   23.2878 C   0  0  0  0  0  0
  -18.9465  -30.1450   23.8884 C   0  0  0  0  0  0
  -17.6465  -30.6581   24.0566 C   0  0  0  0  0  0
  -25.9047  -34.9456   23.5127 C   0  0  0  0  0  0
  -16.5355  -29.9080   23.6334 C   0  0  0  0  0  0
  -16.7274  -28.6494   23.0356 C   0  0  0  0  0  0
  -26.4498  -31.6582   25.0726 C   0  0  0  0  0  0
  -25.3758  -31.3709   26.1481 C   0  0  0  0  0  0
  -27.0324  -30.3020   24.6138 C   0  0  0  0  0  0
  -27.6074  -32.4306   25.7487 C   0  0  0  0  0  0
  -27.5573  -37.1793   24.8471 C   0  0  0  0  0  0
  -21.4176  -29.3019   22.3686 N   0  0  0  0  0  0
  -26.4279  -37.3786   23.9424 N   0  0  0  0  0  0
  -24.6790  -31.0675   22.0973 N   0  0  0  0  0  0
  -23.4203  -28.8191   23.3035 O   0  0  0  0  0  0
  -28.4218  -26.6296   20.1292 O   0  0  0  0  0  0
  -26.5595  -34.8918   22.4677 O   0  0  0  0  0  0
  -23.5395  -32.1399   23.7413 O   0  0  0  0  0  0
  -27.9057  -19.6189   18.0074 C   0  0  0  0  0  0
  -28.1562  -21.4665   16.4724 C   0  0  0  0  0  0
  -28.5498  -20.3313   19.0512 C   0  0  0  0  0  0
  -28.8224  -21.7430   18.8238 C   0  0  0  0  0  0
  -27.7059  -20.1670   16.7216 C   0  0  0  0  0  0
  -28.6954  -22.2619   17.5076 C   0  0  0  0  0  0
  -28.6984  -18.7561   22.6817 C   0  0  0  0  0  0
  -29.0118  -17.2815   22.3949 C   0  0  0  0  0  0
  -29.3953  -17.9680   19.9610 C   0  0  0  0  0  0
  -28.9949  -19.4792   20.3002 C   0  0  2  0  0  0
  -27.9929  -19.4478   21.4923 C   0  0  2  0  0  0
  -29.8786  -17.0341   21.1388 C   0  0  2  0  0  0
  -26.2346  -20.7255   22.9037 C   0  0  0  0  0  0
  -26.6216  -18.1852   15.8794 C   0  0  0  0  0  0
  -28.9163  -24.1499   16.0117 C   0  0  0  0  0  0
  -29.3183  -22.7566   19.8921 C   0  0  0  0  0  0
  -27.4018  -20.8156   21.9077 C   0  0  0  0  0  0
  -28.4120  -24.0267   20.2286 C   0  0  0  0  0  0
  -28.6019  -25.3674   19.4179 C   0  0  0  0  0  0
  -29.7368  -15.5733   20.8629 N   0  0  0  0  0  0
  -27.1343  -19.4943   15.6618 O   0  0  0  0  0  0
  -29.1590  -23.5395   17.2742 O   0  0  0  0  0  0
  -31.4827  -12.4988   19.1270 H   0  0  0  0  0  0
  -30.3787  -11.3535   19.8427 H   0  0  0  0  0  0
  -29.7561  -11.7736   17.4444 H   0  0  0  0  0  0
  -29.6518  -13.4891   17.7535 H   0  0  0  0  0  0
  -27.8457  -11.2949   18.8296 H   0  0  0  0  0  0
  -27.3710  -12.6103   17.7858 H   0  0  0  0  0  0
  -27.6820  -14.2424   19.5396 H   0  0  0  0  0  0
  -28.7032  -11.9695   21.3268 H   0  0  0  0  0  0
  -28.4515  -13.6042   21.8644 H   0  0  0  0  0  0
  -25.2683   -9.5737   22.4724 H   0  0  0  0  0  0
  -23.9973   -7.4653   22.7458 H   0  0  0  0  0  0
  -21.0795   -8.8656   19.8955 H   0  0  0  0  0  0
  -22.3549  -10.9597   19.6137 H   0  0  0  0  0  0
  -21.1974   -7.6122   23.9699 H   0  0  0  0  0  0
  -21.1505   -6.0495   25.9066 H   0  0  0  0  0  0
  -22.0611   -2.7598   23.2809 H   0  0  0  0  0  0
  -22.4040  -11.9900   22.4770 H   0  0  0  0  0  0
  -21.1081  -13.1315   22.2626 H   0  0  0  0  0  0
  -24.6807  -15.8384   20.6285 H   0  0  0  0  0  0
  -26.3036  -15.6448   20.2029 H   0  0  0  0  0  0
  -26.7164  -32.5461   23.1120 H   0  0  0  0  0  0
  -25.0177  -33.9739   25.0521 H   0  0  0  0  0  0
  -22.7039  -31.3025   21.4029 H   0  0  0  0  0  0
  -23.3761  -35.9586   23.3307 H   0  0  0  0  0  0
  -24.3571  -36.8878   22.2051 H   0  0  0  0  0  0
  -23.7202  -37.6467   23.6642 H   0  0  0  0  0  0
  -26.0768  -31.5716   20.6023 H   0  0  0  0  0  0
  -26.8296  -30.8512   21.9962 H   0  0  0  0  0  0
  -28.1095  -29.0451   21.1561 H   0  0  0  0  0  0
  -26.0074  -25.9173   19.0449 H   0  0  0  0  0  0
  -23.9760  -27.2721   19.0491 H   0  0  0  0  0  0
  -23.7470  -30.5878   19.4026 H   0  0  0  0  0  0
  -22.7466  -29.2425   19.8611 H   0  0  0  0  0  0
  -25.1274  -36.1943   25.0837 H   0  0  0  0  0  0
  -20.9977  -28.3237   24.1413 H   0  0  0  0  0  0
  -20.5658  -26.2280   23.3602 H   0  0  0  0  0  0
  -21.6639  -26.7421   22.1216 H   0  0  0  0  0  0
  -19.6900  -25.6282   21.1246 H   0  0  0  0  0  0
  -19.6695  -27.3172   20.6735 H   0  0  0  0  0  0
  -17.4206  -26.6694   21.4004 H   0  0  0  0  0  0
  -18.0304  -26.0058   22.8999 H   0  0  0  0  0  0
  -19.7952  -30.7265   24.2246 H   0  0  0  0  0  0
  -17.5030  -31.6256   24.5177 H   0  0  0  0  0  0
  -15.5352  -30.2976   23.7672 H   0  0  0  0  0  0
  -15.8678  -28.0812   22.7082 H   0  0  0  0  0  0
  -24.5947  -30.7025   25.7841 H   0  0  0  0  0  0
  -24.8926  -32.2857   26.4914 H   0  0  0  0  0  0
  -25.8127  -30.8911   27.0251 H   0  0  0  0  0  0
  -26.2873  -29.6768   24.1205 H   0  0  0  0  0  0
  -27.4094  -29.7271   25.4609 H   0  0  0  0  0  0
  -27.8715  -30.4322   23.9295 H   0  0  0  0  0  0
  -27.2727  -33.3628   26.2042 H   0  0  0  0  0  0
  -28.3900  -32.6823   25.0318 H   0  0  0  0  0  0
  -28.0721  -31.8435   26.5418 H   0  0  0  0  0  0
  -28.2604  -38.0080   24.7534 H   0  0  0  0  0  0
  -28.1063  -36.2622   24.6285 H   0  0  0  0  0  0
  -27.2307  -37.1434   25.8879 H   0  0  0  0  0  0
  -20.9360  -29.8723   21.6879 H   0  0  0  0  0  0
  -26.0166  -38.2857   24.1451 H   0  0  0  0  0  0
  -27.5914  -18.6051   18.1724 H   0  0  0  0  0  0
  -28.0724  -21.8394   15.4627 H   0  0  0  0  0  0
  -29.6174  -19.2873   22.9332 H   0  0  0  0  0  0
  -28.0780  -18.7905   23.5762 H   0  0  0  0  0  0
  -28.0569  -16.7624   22.2934 H   0  0  0  0  0  0
  -29.4935  -16.8369   23.2678 H   0  0  0  0  0  0
  -30.1600  -17.9720   19.1827 H   0  0  0  0  0  0
  -28.5384  -17.4505   19.5344 H   0  0  0  0  0  0
  -29.9117  -19.9553   20.6505 H   0  0  0  0  0  0
  -27.1435  -18.8322   21.1896 H   0  0  0  0  0  0
  -30.9187  -17.2677   21.3708 H   0  0  0  0  0  0
  -25.7987  -21.7129   23.0609 H   0  0  0  0  0  0
  -26.5507  -20.3610   23.8814 H   0  0  0  0  0  0
  -25.4468  -20.0665   22.5370 H   0  0  0  0  0  0
  -26.1131  -17.8487   14.9762 H   0  0  0  0  0  0
  -25.8928  -18.1634   16.6915 H   0  0  0  0  0  0
  -27.4203  -17.4730   16.0933 H   0  0  0  0  0  0
  -29.1743  -25.2061   16.0724 H   0  0  0  0  0  0
  -27.8644  -24.0941   15.7308 H   0  0  0  0  0  0
  -29.5264  -23.7051   15.2257 H   0  0  0  0  0  0
  -30.3120  -23.0985   19.6012 H   0  0  0  0  0  0
  -29.4933  -22.2101   20.8130 H   0  0  0  0  0  0
  -27.0315  -21.3412   21.0287 H   0  0  0  0  0  0
  -28.1794  -21.4411   22.3461 H   0  0  0  0  0  0
  -28.6674  -24.2883   21.2547 H   0  0  0  0  0  0
  -27.3586  -23.7497   20.2624 H   0  0  0  0  0  0
  -28.0221  -25.3540   18.4967 H   0  0  0  0  0  0
  -29.6418  -25.3971   19.0906 H   0  0  0  0  0  0
  -28.8087  -15.2133   21.0342 H   0  0  0  0  0  0
  1 25  1  0  0  0
  1 30  2  0  0  0
  1 90  1  0  0  0
  2  3  1  0  0  0
  2 25  1  0  0  0
  2 93  1  0  0  0
  2 94  1  0  0  0
  3  4  1  0  0  0
  3 95  1  0  0  0
  3 96  1  0  0  0
  4  5  1  0  0  0
  4 97  1  0  0  0
  4 98  1  0  0  0
  5  6  1  0  0  0
  5 26  1  0  0  0
  5 99  1  0  0  0
  6 25  1  0  0  0
  6100  1  0  0  0
  6101  1  0  0  0
  7  8  2  0  0  0
  7 26  1  0  0  0
  7 29  1  0  0  0
  8  9  1  0  0  0
  8 22  1  0  0  0
  9 10  1  0  0  0
  9 27  2  0  0  0
 10 11  2  0  0  0
 10 15  1  0  0  0
 11 12  1  0  0  0
 11102  1  0  0  0
 12 13  2  0  0  0
 12103  1  0  0  0
 13 14  1  0  0  0
 13 31  1  0  0  0
 14 15  2  0  0  0
 14104  1  0  0  0
 15105  1  0  0  0
 16 17  2  0  0  0
 16 21  1  0  0  0
 16 31  1  0  0  0
 17 18  1  0  0  0
 17106  1  0  0  0
 18 19  2  0  0  0
 18107  1  0  0  0
 19 20  1  0  0  0
 19 24  1  0  0  0
 20 21  2  0  0  0
 20108  1  0  0  0
 21 23  1  0  0  0
 22 28  1  0  0  0
 22 32  2  0  0  0
 26 27  1  0  0  0
 28109  1  0  0  0
 28110  1  0  0  0
 29111  1  0  0  0
 29112  1  0  0  0
 33 34  1  0  0  0
 33 66  1  0  0  0
 33 70  2  0  0  0
 34 36  1  0  0  0
 34 59  1  0  0  0
 34113  1  0  0  0
 35 44  2  0  0  0
 35 45  1  0  0  0
 35 68  1  0  0  0
 36 56  1  0  0  0
 36114  1  0  0  0
 37 39  1  0  0  0
 37 47  1  0  0  0
 37 66  1  0  0  0
 37115  1  0  0  0
 38 43  2  0  0  0
 38 46  1  0  0  0
 38 47  1  0  0  0
 39 64  1  0  0  0
 39 67  2  0  0  0
 40 52  1  0  0  0
 40 53  2  0  0  0
 40 58  1  0  0  0
 41116  1  0  0  0
 41117  1  0  0  0
 41118  1  0  0  0
 41 48  1  0  0  0
 42 43  1  0  0  0
 42 66  1  0  0  0
 42119  1  0  0  0
 42120  1  0  0  0
 43 44  1  0  0  0
 44121  1  0  0  0
 45 46  2  0  0  0
 45122  1  0  0  0
 46123  1  0  0  0
 47124  1  0  0  0
 47125  1  0  0  0
 48 56  1  0  0  0
 48 65  1  0  0  0
 48126  1  0  0  0
 49 50  1  0  0  0
 49 53  1  0  0  0
 49 64  1  0  0  0
 49127  1  0  0  0
 50 51  1  0  0  0
 50128  1  0  0  0
 50129  1  0  0  0
 51 52  1  0  0  0
 51130  1  0  0  0
 51131  1  0  0  0
 52132  1  0  0  0
 52133  1  0  0  0
 53 54  1  0  0  0
 54 55  2  0  0  0
 54134  1  0  0  0
 55 57  1  0  0  0
 55135  1  0  0  0
 56 69  2  0  0  0
 57 58  2  0  0  0
 57136  1  0  0  0
 58137  1  0  0  0
 59 60  1  0  0  0
 59 61  1  0  0  0
 59 62  1  0  0  0
 60138  1  0  0  0
 60139  1  0  0  0
 60140  1  0  0  0
 61141  1  0  0  0
 61142  1  0  0  0
 61143  1  0  0  0
 62144  1  0  0  0
 62145  1  0  0  0
 62146  1  0  0  0
 63 65  1  0  0  0
 63147  1  0  0  0
 63148  1  0  0  0
 63149  1  0  0  0
 64150  1  0  0  0
 65151  1  0  0  0
 68 89  1  0  0  0
 71 73  2  0  0  0
 71 75  1  0  0  0
 71152  1  0  0  0
 72 75  2  0  0  0
 72 76  1  0  0  0
 72153  1  0  0  0
 73 74  1  0  0  0
 73 80  1  0  0  0
 74 76  2  0  0  0
 74 86  1  0  0  0
 75 91  1  0  0  0
 76 92  1  0  0  0
 77 78  1  0  0  0
 77 81  1  0  0  0
 77154  1  0  0  0
 77155  1  0  0  0
 78 82  1  0  0  0
 78156  1  0  0  0
 78157  1  0  0  0
 79 80  1  0  0  0
 79 82  1  0  0  0
 79158  1  0  0  0
 79159  1  0  0  0
 80 81  1  0  0  0
 80160  1  0  0  0
 81 87  1  0  0  0
 81161  1  0  0  0
 82 90  1  0  0  0
 82162  1  0  0  0
 83 87  1  0  0  0
 83163  1  0  0  0
 83164  1  0  0  0
 83165  1  0  0  0
 84 91  1  0  0  0
 84166  1  0  0  0
 84167  1  0  0  0
 84168  1  0  0  0
 85 92  1  0  0  0
 85169  1  0  0  0
 85170  1  0  0  0
 85171  1  0  0  0
 86 88  1  0  0  0
 86172  1  0  0  0
 86173  1  0  0  0
 87174  1  0  0  0
 87175  1  0  0  0
 88 89  1  0  0  0
 88176  1  0  0  0
 88177  1  0  0  0
 89178  1  0  0  0
 89179  1  0  0  0
 90180  1  0  0  0
M  ISO  4   1 100  68 101  89 101  90 100
M  END
> <chiral flag>
0

> <version>
0

> <s_m_source_file>
/data/baiqing/PycharmProjects/Reinvent-master-3.2/result/LINK_invent/BTK/process_docking_weight1_custom_sum_contain_oxygen_bond_distance_aromatic_linkinvent_7_9_3/rearranged_h_0148.sdf

> <i_m_source_file_index>
79

> <r_mmod_Potential_Energy-OPLS-2005>
98.7144470214844

> <r_mmod_Stretch_Energy-OPLS-2005>
76.8767776489258

> <r_mmod_Bend_Energy-OPLS-2005>
179.375183105469

> <r_mmod_Torsional_Energy-OPLS-2005>
243.705612182617

> <r_mmod_Improper_Torsional_Energy-OPLS-2005>
4.50137090682983

> <r_mmod_Van_der_Waal_Energy-OPLS-2005>
160.63981628418

> <r_mmod_Electrostatic_Energy-OPLS-2005>
-387.113098144531

> <r_mmod_Solvation_Energy-OPLS-2005>
-210.149475097656

> <b_mmod_Minimization_Converged-OPLS-2005>
0

> <r_mmod_RMS_Derivative-OPLS-2005>
3.30854082107544

$$$$
79
                    3D
 Structure written by MMmdl.
167176  0  0  1  0            999 V2000
  -30.7658  -14.3919   20.6311 C   0  0  0  0  0  0
  -30.4032  -12.2805   19.4120 C   0  0  0  0  0  0
  -29.4954  -12.5335   18.1949 C   0  0  0  0  0  0
  -28.0124  -12.4026   18.5978 C   0  0  0  0  0  0
  -27.6621  -13.2127   19.8754 C   0  0  2  0  0  0
  -28.6996  -12.9761   20.9947 C   0  0  0  0  0  0
  -25.2559  -13.8174   20.5655 C   0  0  0  0  0  0
  -24.1815  -13.0446   20.9137 C   0  0  0  0  0  0
  -24.6381  -11.6923   20.8692 C   0  0  0  0  0  0
  -23.9039  -10.4308   21.0398 C   0  0  0  0  0  0
  -24.3607   -9.4229   21.9177 C   0  0  0  0  0  0
  -23.6276   -8.2270   22.0774 C   0  0  0  0  0  0
  -22.4251   -8.0293   21.3566 C   0  0  0  0  0  0
  -21.9872   -9.0265   20.4670 C   0  0  0  0  0  0
  -22.7209  -10.2139   20.3049 C   0  0  0  0  0  0
  -21.6843   -6.0723   22.5273 C   0  0  0  0  0  0
  -21.4034   -6.5643   23.8207 C   0  0  0  0  0  0
  -21.3665   -5.6789   24.9173 C   0  0  0  0  0  0
  -21.6028   -4.3047   24.7216 C   0  0  0  0  0  0
  -21.8818   -3.8143   23.4343 C   0  0  0  0  0  0
  -21.9199   -4.6961   22.3404 C   0  0  0  0  0  0
  -22.7849  -13.5267   21.1795 C   0  0  0  0  0  0
  -22.1657   -4.2154   21.0974 F   0  0  0  0  0  0
  -21.5623   -3.4531   25.7735 F   0  0  0  0  0  0
  -30.0392  -13.2580   20.4497 N   0  0  0  0  0  0
  -26.3002  -12.9353   20.3315 N   0  0  0  0  0  0
  -25.9295  -11.6504   20.5682 N   0  0  0  0  0  0
  -22.0461  -12.8311   22.0353 N   0  0  0  0  0  0
  -25.4269  -15.1897   20.4119 N   0  0  0  0  0  0
  -31.8570  -14.5684   20.0855 O   0  0  0  0  0  0
  -21.6634   -6.8868   21.4239 O   0  0  0  0  0  0
  -22.3551  -14.5575   20.6627 O   0  0  0  0  0  0
  -24.6121  -31.8718   23.2135 C   0  0  0  0  0  0
  -25.9030  -32.4830   23.8427 C   0  0  1  0  0  0
  -27.2335  -27.4623   20.0911 C   0  0  0  0  0  0
  -25.5925  -33.8627   24.2362 N   0  0  0  0  0  0
  -23.3985  -30.4976   21.5516 C   0  0  2  0  0  0
  -24.8437  -28.9572   20.1252 C   0  0  0  0  0  0
  -22.7402  -29.4693   22.4999 C   0  0  0  0  0  0
  -18.0277  -28.1379   22.8490 C   0  0  0  0  0  0
  -24.1490  -36.7304   23.2645 C   0  0  0  0  0  0
  -25.9275  -30.8383   21.3699 C   0  0  0  0  0  0
  -26.0020  -29.4728   20.7210 C   0  0  0  0  0  0
  -27.2026  -28.7312   20.7031 C   0  0  0  0  0  0
  -26.0625  -26.9457   19.4995 C   0  0  0  0  0  0
  -24.8662  -27.6882   19.5169 C   0  0  0  0  0  0
  -23.6089  -29.8291   20.1666 C   0  0  0  0  0  0
  -25.4109  -36.3109   24.0353 C   0  0  1  0  0  0
  -20.5868  -28.3676   23.1305 C   0  0  2  0  0  0
  -20.6767  -26.9410   22.5413 C   0  0  0  0  0  0
  -19.5749  -26.6390   21.5203 C   0  0  0  0  0  0
  -18.1923  -26.7923   22.1605 C   0  0  0  0  0  0
  -19.1524  -28.8840   23.2893 C   0  0  0  0  0  0
  -18.9457  -30.1447   23.8909 C   0  0  0  0  0  0
  -17.6460  -30.6581   24.0575 C   0  0  0  0  0  0
  -25.9038  -34.9477   23.5150 C   0  0  0  0  0  0
  -16.5352  -29.9091   23.6325 C   0  0  0  0  0  0
  -16.7266  -28.6504   23.0343 C   0  0  0  0  0  0
  -26.4481  -31.6593   25.0738 C   0  0  0  0  0  0
  -25.3783  -31.3673   26.1520 C   0  0  0  0  0  0
  -27.0340  -30.3049   24.6104 C   0  0  0  0  0  0
  -27.6071  -32.4322   25.7470 C   0  0  0  0  0  0
  -27.5590  -37.1807   24.8472 C   0  0  0  0  0  0
  -21.4132  -29.3054   22.3707 N   0  0  0  0  0  0
  -26.4289  -37.3791   23.9423 N   0  0  0  0  0  0
  -24.6627  -31.0853   22.1017 N   0  0  0  0  0  0
  -23.4179  -28.8243   23.3025 O   0  0  0  0  0  0
  -28.4062  -26.7670   19.9782 O   0  0  0  0  0  0
  -26.5575  -34.8923   22.4690 O   0  0  0  0  0  0
  -23.5321  -32.1452   23.7538 O   0  0  0  0  0  0
  -30.1401  -23.6387   21.1786 C   0  0  0  0  0  0
  -32.2192  -18.6834   21.5435 C   0  0  0  0  0  0
  -30.2001  -18.8061   23.0402 C   0  0  0  0  0  0
  -31.6741  -17.3846   20.9206 C   0  0  0  0  0  0
  -29.6512  -17.5118   22.4115 C   0  0  0  0  0  0
  -29.7436  -26.0823   21.8713 C   0  0  0  0  0  0
  -29.9465  -25.0618   20.7555 C   0  0  2  0  0  0
  -31.1151  -19.6098   22.0924 C   0  0  2  0  0  0
  -30.7842  -16.5916   21.9149 C   0  0  1  0  0  0
  -28.6060  -25.7438   20.9446 C   0  0  1  0  0  0
  -31.7104  -21.1007   18.9541 C   0  0  0  0  0  0
  -30.3346  -20.4078   21.0108 C   0  0  0  0  0  0
  -31.1807  -21.5253   20.3342 C   0  0  2  0  0  0
  -30.4715  -22.8003   20.1834 N   0  0  0  0  0  0
  -30.2044  -15.3345   21.4074 N   0  0  0  0  0  0
  -30.0844  -23.2741   22.3555 O   0  0  0  0  0  0
  -31.4550  -12.3392   19.1257 H   0  0  0  0  0  0
  -30.2588  -11.2654   19.7865 H   0  0  0  0  0  0
  -29.7329  -11.8390   17.3889 H   0  0  0  0  0  0
  -29.6838  -13.5325   17.7937 H   0  0  0  0  0  0
  -27.8012  -11.3456   18.7589 H   0  0  0  0  0  0
  -27.3768  -12.7193   17.7709 H   0  0  0  0  0  0
  -27.7139  -14.2666   19.6015 H   0  0  0  0  0  0
  -28.6587  -11.9379   21.3299 H   0  0  0  0  0  0
  -28.4603  -13.5734   21.8754 H   0  0  0  0  0  0
  -25.2760   -9.5712   22.4743 H   0  0  0  0  0  0
  -23.9995   -7.4656   22.7494 H   0  0  0  0  0  0
  -21.0796   -8.8770   19.8970 H   0  0  0  0  0  0
  -22.3664  -10.9673   19.6150 H   0  0  0  0  0  0
  -21.2042   -7.6151   23.9717 H   0  0  0  0  0  0
  -21.1474   -6.0516   25.9070 H   0  0  0  0  0  0
  -22.0589   -2.7609   23.2828 H   0  0  0  0  0  0
  -22.4030  -12.0015   22.4859 H   0  0  0  0  0  0
  -21.1095  -13.1401   22.2497 H   0  0  0  0  0  0
  -24.6597  -15.8433   20.5204 H   0  0  0  0  0  0
  -26.2843  -15.6351   20.1101 H   0  0  0  0  0  0
  -26.7104  -32.5548   23.1195 H   0  0  0  0  0  0
  -25.0166  -33.9805   25.0576 H   0  0  0  0  0  0
  -22.6857  -31.3132   21.4138 H   0  0  0  0  0  0
  -23.3747  -35.9642   23.3307 H   0  0  0  0  0  0
  -24.3599  -36.8900   22.2060 H   0  0  0  0  0  0
  -23.7239  -37.6516   23.6642 H   0  0  0  0  0  0
  -26.0555  -31.6043   20.6041 H   0  0  0  0  0  0
  -26.8107  -30.8824   21.9944 H   0  0  0  0  0  0
  -28.1058  -29.1377   21.1377 H   0  0  0  0  0  0
  -26.0863  -25.9856   19.0058 H   0  0  0  0  0  0
  -23.9755  -27.2909   19.0494 H   0  0  0  0  0  0
  -23.7275  -30.6060   19.4100 H   0  0  0  0  0  0
  -22.7303  -29.2580   19.8615 H   0  0  0  0  0  0
  -25.1262  -36.1981   25.0841 H   0  0  0  0  0  0
  -20.9969  -28.3266   24.1419 H   0  0  0  0  0  0
  -20.5672  -26.2302   23.3618 H   0  0  0  0  0  0
  -21.6648  -26.7449   22.1216 H   0  0  0  0  0  0
  -19.6920  -25.6302   21.1239 H   0  0  0  0  0  0
  -19.6682  -27.3202   20.6730 H   0  0  0  0  0  0
  -17.4202  -26.6687   21.3993 H   0  0  0  0  0  0
  -18.0307  -26.0050   22.8983 H   0  0  0  0  0  0
  -19.7942  -30.7252   24.2277 H   0  0  0  0  0  0
  -17.5022  -31.6248   24.5199 H   0  0  0  0  0  0
  -15.5359  -30.2998   23.7633 H   0  0  0  0  0  0
  -15.8664  -28.0828   22.7049 H   0  0  0  0  0  0
  -24.5942  -30.7023   25.7878 H   0  0  0  0  0  0
  -24.8999  -32.2817   26.5040 H   0  0  0  0  0  0
  -25.8192  -30.8810   27.0232 H   0  0  0  0  0  0
  -26.2877  -29.6769   24.1225 H   0  0  0  0  0  0
  -27.4208  -29.7326   25.4546 H   0  0  0  0  0  0
  -27.8669  -30.4394   23.9199 H   0  0  0  0  0  0
  -27.2700  -33.3614   26.2076 H   0  0  0  0  0  0
  -28.3842  -32.6891   25.0259 H   0  0  0  0  0  0
  -28.0785  -31.8438   26.5352 H   0  0  0  0  0  0
  -28.2600  -38.0107   24.7514 H   0  0  0  0  0  0
  -28.1085  -36.2641   24.6275 H   0  0  0  0  0  0
  -27.2329  -37.1442   25.8880 H   0  0  0  0  0  0
  -20.9303  -29.8795   21.6943 H   0  0  0  0  0  0
  -26.0182  -38.2878   24.1388 H   0  0  0  0  0  0
  -32.8588  -19.2031   20.8331 H   0  0  0  0  0  0
  -32.8865  -18.4150   22.3618 H   0  0  0  0  0  0
  -30.7730  -18.5403   23.9303 H   0  0  0  0  0  0
  -29.3769  -19.4285   23.3930 H   0  0  0  0  0  0
  -32.5454  -16.8005   20.6261 H   0  0  0  0  0  0
  -31.1252  -17.6035   20.0048 H   0  0  0  0  0  0
  -28.9807  -17.7648   21.5888 H   0  0  0  0  0  0
  -29.0428  -16.9928   23.1536 H   0  0  0  0  0  0
  -30.2451  -27.0399   21.7508 H   0  0  0  0  0  0
  -29.6629  -25.7347   22.8999 H   0  0  0  0  0  0
  -30.5152  -25.3747   19.8799 H   0  0  0  0  0  0
  -31.6124  -20.3555   22.7163 H   0  0  0  0  0  0
  -31.3993  -16.3145   22.7729 H   0  0  0  0  0  0
  -27.7404  -25.1709   21.2787 H   0  0  0  0  0  0
  -32.2185  -20.1383   18.9853 H   0  0  0  0  0  0
  -32.4305  -21.8237   18.5702 H   0  0  0  0  0  0
  -30.9042  -21.0098   18.2245 H   0  0  0  0  0  0
  -29.4647  -20.8554   21.4912 H   0  0  0  0  0  0
  -29.9182  -19.7345   20.2620 H   0  0  0  0  0  0
  -32.0464  -21.7434   20.9641 H   0  0  0  0  0  0
  -30.4212  -23.1769   19.2444 H   0  0  0  0  0  0
  -29.2900  -15.0988   21.7619 H   0  0  0  0  0  0
  1 25  1  0  0  0
  1 30  2  0  0  0
  1 85  1  0  0  0
  2  3  1  0  0  0
  2 25  1  0  0  0
  2 87  1  0  0  0
  2 88  1  0  0  0
  3  4  1  0  0  0
  3 89  1  0  0  0
  3 90  1  0  0  0
  4  5  1  0  0  0
  4 91  1  0  0  0
  4 92  1  0  0  0
  5  6  1  0  0  0
  5 26  1  0  0  0
  5 93  1  0  0  0
  6 25  1  0  0  0
  6 94  1  0  0  0
  6 95  1  0  0  0
  7  8  2  0  0  0
  7 26  1  0  0  0
  7 29  1  0  0  0
  8  9  1  0  0  0
  8 22  1  0  0  0
  9 10  1  0  0  0
  9 27  2  0  0  0
 10 11  2  0  0  0
 10 15  1  0  0  0
 11 12  1  0  0  0
 11 96  1  0  0  0
 12 13  2  0  0  0
 12 97  1  0  0  0
 13 14  1  0  0  0
 13 31  1  0  0  0
 14 15  2  0  0  0
 14 98  1  0  0  0
 15 99  1  0  0  0
 16 17  2  0  0  0
 16 21  1  0  0  0
 16 31  1  0  0  0
 17 18  1  0  0  0
 17100  1  0  0  0
 18 19  2  0  0  0
 18101  1  0  0  0
 19 20  1  0  0  0
 19 24  1  0  0  0
 20 21  2  0  0  0
 20102  1  0  0  0
 21 23  1  0  0  0
 22 28  1  0  0  0
 22 32  2  0  0  0
 26 27  1  0  0  0
 28103  1  0  0  0
 28104  1  0  0  0
 29105  1  0  0  0
 29106  1  0  0  0
 33 34  1  0  0  0
 33 66  1  0  0  0
 33 70  2  0  0  0
 34 36  1  0  0  0
 34 59  1  0  0  0
 34107  1  0  0  0
 35 44  2  0  0  0
 35 45  1  0  0  0
 35 68  1  0  0  0
 36 56  1  0  0  0
 36108  1  0  0  0
 37 39  1  0  0  0
 37 47  1  0  0  0
 37 66  1  0  0  0
 37109  1  0  0  0
 38 43  2  0  0  0
 38 46  1  0  0  0
 38 47  1  0  0  0
 39 64  1  0  0  0
 39 67  2  0  0  0
 40 52  1  0  0  0
 40 53  2  0  0  0
 40 58  1  0  0  0
 41110  1  0  0  0
 41111  1  0  0  0
 41112  1  0  0  0
 41 48  1  0  0  0
 42 43  1  0  0  0
 42 66  1  0  0  0
 42113  1  0  0  0
 42114  1  0  0  0
 43 44  1  0  0  0
 44115  1  0  0  0
 45 46  2  0  0  0
 45116  1  0  0  0
 46117  1  0  0  0
 47118  1  0  0  0
 47119  1  0  0  0
 48 56  1  0  0  0
 48 65  1  0  0  0
 48120  1  0  0  0
 49 50  1  0  0  0
 49 53  1  0  0  0
 49 64  1  0  0  0
 49121  1  0  0  0
 50 51  1  0  0  0
 50122  1  0  0  0
 50123  1  0  0  0
 51 52  1  0  0  0
 51124  1  0  0  0
 51125  1  0  0  0
 52126  1  0  0  0
 52127  1  0  0  0
 53 54  1  0  0  0
 54 55  2  0  0  0
 54128  1  0  0  0
 55 57  1  0  0  0
 55129  1  0  0  0
 56 69  2  0  0  0
 57 58  2  0  0  0
 57130  1  0  0  0
 58131  1  0  0  0
 59 60  1  0  0  0
 59 61  1  0  0  0
 59 62  1  0  0  0
 60132  1  0  0  0
 60133  1  0  0  0
 60134  1  0  0  0
 61135  1  0  0  0
 61136  1  0  0  0
 61137  1  0  0  0
 62138  1  0  0  0
 62139  1  0  0  0
 62140  1  0  0  0
 63 65  1  0  0  0
 63141  1  0  0  0
 63142  1  0  0  0
 63143  1  0  0  0
 64144  1  0  0  0
 65145  1  0  0  0
 68 80  1  0  0  0
 71 84  1  0  0  0
 71 86  2  0  0  0
 71 77  1  0  0  0
 72 74  1  0  0  0
 72 78  1  0  0  0
 72146  1  0  0  0
 72147  1  0  0  0
 73 75  1  0  0  0
 73 78  1  0  0  0
 73148  1  0  0  0
 73149  1  0  0  0
 74 79  1  0  0  0
 74150  1  0  0  0
 74151  1  0  0  0
 75 79  1  0  0  0
 75152  1  0  0  0
 75153  1  0  0  0
 76 77  1  0  0  0
 76 80  1  0  0  0
 76154  1  0  0  0
 76155  1  0  0  0
 77 80  1  0  0  0
 77156  1  0  0  0
 78 82  1  0  0  0
 78157  1  0  0  0
 79 85  1  0  0  0
 79158  1  0  0  0
 80159  1  0  0  0
 81160  1  0  0  0
 81161  1  0  0  0
 81162  1  0  0  0
 81 83  1  0  0  0
 82 83  1  0  0  0
 82163  1  0  0  0
 82164  1  0  0  0
 83 84  1  0  0  0
 83165  1  0  0  0
 84166  1  0  0  0
 85167  1  0  0  0
M  ISO  4   1 100  68 101  80 101  85 100
M  END
> <chiral flag>
0

> <version>
0

> <s_m_source_file>
/data/baiqing/PycharmProjects/Reinvent-master-3.2/result/LINK_invent/BTK/process_docking_weight1_custom_sum_contain_oxygen_bond_distance_aromatic_linkinvent_7_9_3/rearranged_h_0148.sdf

> <i_m_source_file_index>
80

> <r_mmod_Potential_Energy-OPLS-2005>
-67.5908966064453

> <r_mmod_Stretch_Energy-OPLS-2005>
34.2689018249512

> <r_mmod_Bend_Energy-OPLS-2005>
110.21671295166

> <r_mmod_Torsional_Energy-OPLS-2005>
278.003326416016

> <r_mmod_Improper_Torsional_Energy-OPLS-2005>
3.16400790214539

> <r_mmod_Van_der_Waal_Energy-OPLS-2005>
137.14111328125

> <r_mmod_Electrostatic_Energy-OPLS-2005>
-418.801788330078

> <r_mmod_Solvation_Energy-OPLS-2005>
-220.53466796875

> <b_mmod_Minimization_Converged-OPLS-2005>
0

> <r_mmod_RMS_Derivative-OPLS-2005>
3.67116546630859

$$$$
80
                    3D
 Structure written by MMmdl.
174184  0  0  1  0            999 V2000
  -30.7200  -14.3374   20.8177 C   0  0  0  0  0  0
  -30.4394  -12.3201   19.3883 C   0  0  0  0  0  0
  -29.4989  -12.5829   18.1952 C   0  0  0  0  0  0
  -28.0223  -12.3990   18.6024 C   0  0  0  0  0  0
  -27.6687  -13.1947   19.8822 C   0  0  2  0  0  0
  -28.6930  -12.8676   20.9894 C   0  0  0  0  0  0
  -25.2584  -13.8141   20.5643 C   0  0  0  0  0  0
  -24.1823  -13.0430   20.9154 C   0  0  0  0  0  0
  -24.6358  -11.6895   20.8685 C   0  0  0  0  0  0
  -23.8995  -10.4284   21.0421 C   0  0  0  0  0  0
  -24.3578   -9.4210   21.9205 C   0  0  0  0  0  0
  -23.6273   -8.2237   22.0760 C   0  0  0  0  0  0
  -22.4249   -8.0265   21.3553 C   0  0  0  0  0  0
  -21.9858   -9.0230   20.4663 C   0  0  0  0  0  0
  -22.7178  -10.2114   20.3063 C   0  0  0  0  0  0
  -21.6828   -6.0700   22.5289 C   0  0  0  0  0  0
  -21.3996   -6.5614   23.8223 C   0  0  0  0  0  0
  -21.3667   -5.6774   24.9201 C   0  0  0  0  0  0
  -21.6056   -4.3038   24.7235 C   0  0  0  0  0  0
  -21.8820   -3.8102   23.4354 C   0  0  0  0  0  0
  -21.9169   -4.6934   22.3409 C   0  0  0  0  0  0
  -22.7857  -13.5265   21.1807 C   0  0  0  0  0  0
  -22.1657   -4.2122   21.0989 F   0  0  0  0  0  0
  -21.5623   -3.4525   25.7734 F   0  0  0  0  0  0
  -30.0476  -13.2008   20.4973 N   0  0  0  0  0  0
  -26.3011  -12.9291   20.3283 N   0  0  0  0  0  0
  -25.9257  -11.6464   20.5639 N   0  0  0  0  0  0
  -22.0446  -12.8350   22.0409 N   0  0  0  0  0  0
  -25.4320  -15.1860   20.4091 N   0  0  0  0  0  0
  -31.6643  -14.7876   20.1514 O   0  0  0  0  0  0
  -21.6616   -6.8856   21.4249 O   0  0  0  0  0  0
  -22.3566  -14.5535   20.6568 O   0  0  0  0  0  0
  -24.6129  -31.8675   23.2080 C   0  0  0  0  0  0
  -25.9060  -32.4797   23.8366 C   0  0  1  0  0  0
  -27.2513  -27.4611   20.0791 C   0  0  0  0  0  0
  -25.5940  -33.8589   24.2297 N   0  0  0  0  0  0
  -23.3993  -30.4848   21.5496 C   0  0  2  0  0  0
  -24.8467  -28.9459   20.1176 C   0  0  0  0  0  0
  -22.7390  -29.4642   22.5025 C   0  0  0  0  0  0
  -18.0248  -28.1358   22.8520 C   0  0  0  0  0  0
  -24.1496  -36.7314   23.2637 C   0  0  0  0  0  0
  -25.9237  -30.8339   21.3597 C   0  0  0  0  0  0
  -26.0020  -29.4677   20.7115 C   0  0  0  0  0  0
  -27.2024  -28.7291   20.6933 C   0  0  0  0  0  0
  -26.0749  -26.9372   19.4936 C   0  0  0  0  0  0
  -24.8755  -27.6761   19.5114 C   0  0  0  0  0  0
  -23.6058  -29.8061   20.1667 C   0  0  0  0  0  0
  -25.4106  -36.3075   24.0325 C   0  0  1  0  0  0
  -20.5846  -28.3623   23.1381 C   0  0  2  0  0  0
  -20.6750  -26.9370   22.5446 C   0  0  0  0  0  0
  -19.5722  -26.6369   21.5239 C   0  0  0  0  0  0
  -18.1891  -26.7920   22.1631 C   0  0  0  0  0  0
  -19.1509  -28.8806   23.2937 C   0  0  0  0  0  0
  -18.9445  -30.1427   23.8908 C   0  0  0  0  0  0
  -17.6455  -30.6582   24.0558 C   0  0  0  0  0  0
  -25.9043  -34.9451   23.5094 C   0  0  0  0  0  0
  -16.5330  -29.9082   23.6334 C   0  0  0  0  0  0
  -16.7250  -28.6499   23.0353 C   0  0  0  0  0  0
  -26.4499  -31.6577   25.0696 C   0  0  0  0  0  0
  -25.3796  -31.3743   26.1479 C   0  0  0  0  0  0
  -27.0358  -30.3016   24.6104 C   0  0  0  0  0  0
  -27.6054  -32.4319   25.7465 C   0  0  0  0  0  0
  -27.5575  -37.1794   24.8441 C   0  0  0  0  0  0
  -21.4095  -29.2998   22.3781 N   0  0  0  0  0  0
  -26.4277  -37.3773   23.9406 N   0  0  0  0  0  0
  -24.6636  -31.0772   22.0963 N   0  0  0  0  0  0
  -23.4174  -28.8193   23.3061 O   0  0  0  0  0  0
  -28.4591  -26.8010   20.0512 O   0  0  0  0  0  0
  -26.5574  -34.8923   22.4638 O   0  0  0  0  0  0
  -23.5340  -32.1425   23.7475 O   0  0  0  0  0  0
  -30.3664  -18.8139   20.9533 C   0  0  0  0  0  0
  -30.5620  -20.1313   20.5018 C   0  0  0  0  0  0
  -28.6663  -20.8514   21.8270 C   0  0  0  0  0  0
  -29.3265  -18.4900   21.8504 C   0  0  0  0  0  0
  -28.4343  -19.5243   22.2629 C   0  0  0  0  0  0
  -29.7223  -21.1720   20.9428 C   0  0  0  0  0  0
  -26.0312  -17.4623   26.0007 C   0  0  0  0  0  0
  -26.2493  -18.6642   26.8924 C   0  0  0  0  0  0
  -30.9366  -16.2482   23.9550 C   0  0  0  0  0  0
  -31.7993  -16.7774   22.8464 C   0  0  0  0  0  0
  -26.1542  -18.8458   25.3953 C   0  0  0  0  0  0
  -30.4302  -16.1972   22.5202 C   0  0  0  0  0  0
  -29.1415  -17.0130   22.2270 C   0  0  0  0  0  0
  -27.3792  -19.2764   24.6009 C   0  0  0  0  0  0
  -29.7969  -24.8949   20.5840 C   0  0  0  0  0  0
  -28.4590  -25.3783   19.9913 C   0  0  0  0  0  0
  -29.7141  -23.5427   21.3166 C   0  0  0  0  0  0
  -27.1635  -19.2491   23.0766 C   0  0  1  0  0  0
  -30.2987  -14.8687   21.9839 N   0  0  0  0  0  0
  -29.9185  -22.4412   20.4306 O   0  0  0  0  0  0
  -26.2266  -20.1562   22.7768 F   0  0  0  0  0  0
  -31.4839  -12.4679   19.1031 H   0  0  0  0  0  0
  -30.3629  -11.2800   19.7090 H   0  0  0  0  0  0
  -29.7502  -11.9294   17.3594 H   0  0  0  0  0  0
  -29.6520  -13.6047   17.8400 H   0  0  0  0  0  0
  -27.8550  -11.3359   18.7754 H   0  0  0  0  0  0
  -27.3662  -12.6923   17.7825 H   0  0  0  0  0  0
  -27.7430  -14.2572   19.6411 H   0  0  0  0  0  0
  -28.6647  -11.8009   21.2226 H   0  0  0  0  0  0
  -28.4026  -13.3560   21.9202 H   0  0  0  0  0  0
  -25.2754   -9.5666   22.4737 H   0  0  0  0  0  0
  -23.9973   -7.4626   22.7468 H   0  0  0  0  0  0
  -21.0780   -8.8759   19.8989 H   0  0  0  0  0  0
  -22.3679  -10.9639   19.6109 H   0  0  0  0  0  0
  -21.2025   -7.6122   23.9723 H   0  0  0  0  0  0
  -21.1484   -6.0509   25.9112 H   0  0  0  0  0  0
  -22.0584   -2.7562   23.2857 H   0  0  0  0  0  0
  -22.4012  -12.0020   22.4870 H   0  0  0  0  0  0
  -21.1059  -13.1431   22.2495 H   0  0  0  0  0  0
  -24.6663  -15.8404   20.5226 H   0  0  0  0  0  0
  -26.2863  -15.6256   20.0870 H   0  0  0  0  0  0
  -26.7120  -32.5518   23.1117 H   0  0  0  0  0  0
  -25.0160  -33.9756   25.0494 H   0  0  0  0  0  0
  -22.6865  -31.2981   21.4049 H   0  0  0  0  0  0
  -23.3734  -35.9675   23.3285 H   0  0  0  0  0  0
  -24.3583  -36.8948   22.2054 H   0  0  0  0  0  0
  -23.7287  -37.6534   23.6658 H   0  0  0  0  0  0
  -26.0316  -31.5968   20.5880 H   0  0  0  0  0  0
  -26.8146  -30.8876   21.9739 H   0  0  0  0  0  0
  -28.0955  -29.1284   21.1545 H   0  0  0  0  0  0
  -26.0808  -25.9732   19.0073 H   0  0  0  0  0  0
  -23.9898  -27.2628   19.0476 H   0  0  0  0  0  0
  -23.7007  -30.5711   19.3953 H   0  0  0  0  0  0
  -22.7363  -29.2104   19.8833 H   0  0  0  0  0  0
  -25.1276  -36.1903   25.0816 H   0  0  0  0  0  0
  -20.9928  -28.3170   24.1513 H   0  0  0  0  0  0
  -20.5690  -26.2213   23.3615 H   0  0  0  0  0  0
  -21.6620  -26.7457   22.1224 H   0  0  0  0  0  0
  -19.6880  -25.6285   21.1247 H   0  0  0  0  0  0
  -19.6673  -27.3207   20.6793 H   0  0  0  0  0  0
  -17.4191  -26.6730   21.3983 H   0  0  0  0  0  0
  -18.0225  -26.0029   22.8994 H   0  0  0  0  0  0
  -19.7918  -30.7232   24.2295 H   0  0  0  0  0  0
  -17.5010  -31.6277   24.5133 H   0  0  0  0  0  0
  -15.5336  -30.2986   23.7651 H   0  0  0  0  0  0
  -15.8647  -28.0827   22.7054 H   0  0  0  0  0  0
  -24.5853  -30.7219   25.7834 H   0  0  0  0  0  0
  -24.9173  -32.2970   26.4999 H   0  0  0  0  0  0
  -25.8182  -30.8822   27.0172 H   0  0  0  0  0  0
  -26.2920  -29.6713   24.1221 H   0  0  0  0  0  0
  -27.4188  -29.7298   25.4567 H   0  0  0  0  0  0
  -27.8714  -30.4306   23.9216 H   0  0  0  0  0  0
  -27.2611  -33.3551   26.2128 H   0  0  0  0  0  0
  -28.3833  -32.6997   25.0303 H   0  0  0  0  0  0
  -28.0770  -31.8421   26.5330 H   0  0  0  0  0  0
  -28.2564  -38.0121   24.7504 H   0  0  0  0  0  0
  -28.1094  -36.2645   24.6206 H   0  0  0  0  0  0
  -27.2311  -37.1388   25.8855 H   0  0  0  0  0  0
  -20.9228  -29.8735   21.7034 H   0  0  0  0  0  0
  -26.0141  -38.2849   24.1405 H   0  0  0  0  0  0
  -31.0108  -18.0281   20.5854 H   0  0  0  0  0  0
  -31.3603  -20.3308   19.7988 H   0  0  0  0  0  0
  -27.9637  -21.6146   22.1244 H   0  0  0  0  0  0
  -25.0451  -16.9985   26.0096 H   0  0  0  0  0  0
  -26.8628  -16.7683   25.8897 H   0  0  0  0  0  0
  -27.2262  -18.7761   27.3616 H   0  0  0  0  0  0
  -25.4076  -19.0083   27.4907 H   0  0  0  0  0  0
  -30.5162  -16.9862   24.6381 H   0  0  0  0  0  0
  -31.2704  -15.3276   24.4290 H   0  0  0  0  0  0
  -32.6785  -16.1938   22.5815 H   0  0  0  0  0  0
  -31.9440  -17.8543   22.8407 H   0  0  0  0  0  0
  -25.2258  -19.2969   25.0448 H   0  0  0  0  0  0
  -28.6063  -16.5613   21.3894 H   0  0  0  0  0  0
  -28.4775  -16.9080   23.0875 H   0  0  0  0  0  0
  -28.2179  -18.6323   24.8676 H   0  0  0  0  0  0
  -27.6411  -20.2876   24.9142 H   0  0  0  0  0  0
  -30.1147  -25.6341   21.3209 H   0  0  0  0  0  0
  -30.5769  -24.8880   19.8209 H   0  0  0  0  0  0
  -27.6248  -24.9834   20.5729 H   0  0  0  0  0  0
  -28.3413  -25.0366   18.9619 H   0  0  0  0  0  0
  -28.7644  -23.5109   21.8454 H   0  0  0  0  0  0
  -30.4932  -23.4976   22.0788 H   0  0  0  0  0  0
  -26.7336  -18.3016   22.7494 H   0  0  0  0  0  0
  -29.6244  -14.2856   22.4609 H   0  0  0  0  0  0
  1 25  1  0  0  0
  1 30  2  0  0  0
  1 89  1  0  0  0
  2  3  1  0  0  0
  2 25  1  0  0  0
  2 92  1  0  0  0
  2 93  1  0  0  0
  3  4  1  0  0  0
  3 94  1  0  0  0
  3 95  1  0  0  0
  4  5  1  0  0  0
  4 96  1  0  0  0
  4 97  1  0  0  0
  5  6  1  0  0  0
  5 26  1  0  0  0
  5 98  1  0  0  0
  6 25  1  0  0  0
  6 99  1  0  0  0
  6100  1  0  0  0
  7  8  2  0  0  0
  7 26  1  0  0  0
  7 29  1  0  0  0
  8  9  1  0  0  0
  8 22  1  0  0  0
  9 10  1  0  0  0
  9 27  2  0  0  0
 10 11  2  0  0  0
 10 15  1  0  0  0
 11 12  1  0  0  0
 11101  1  0  0  0
 12 13  2  0  0  0
 12102  1  0  0  0
 13 14  1  0  0  0
 13 31  1  0  0  0
 14 15  2  0  0  0
 14103  1  0  0  0
 15104  1  0  0  0
 16 17  2  0  0  0
 16 21  1  0  0  0
 16 31  1  0  0  0
 17 18  1  0  0  0
 17105  1  0  0  0
 18 19  2  0  0  0
 18106  1  0  0  0
 19 20  1  0  0  0
 19 24  1  0  0  0
 20 21  2  0  0  0
 20107  1  0  0  0
 21 23  1  0  0  0
 22 28  1  0  0  0
 22 32  2  0  0  0
 26 27  1  0  0  0
 28108  1  0  0  0
 28109  1  0  0  0
 29110  1  0  0  0
 29111  1  0  0  0
 33 34  1  0  0  0
 33 66  1  0  0  0
 33 70  2  0  0  0
 34 36  1  0  0  0
 34 59  1  0  0  0
 34112  1  0  0  0
 35 44  2  0  0  0
 35 45  1  0  0  0
 35 68  1  0  0  0
 36 56  1  0  0  0
 36113  1  0  0  0
 37 39  1  0  0  0
 37 47  1  0  0  0
 37 66  1  0  0  0
 37114  1  0  0  0
 38 43  2  0  0  0
 38 46  1  0  0  0
 38 47  1  0  0  0
 39 64  1  0  0  0
 39 67  2  0  0  0
 40 52  1  0  0  0
 40 53  2  0  0  0
 40 58  1  0  0  0
 41115  1  0  0  0
 41116  1  0  0  0
 41117  1  0  0  0
 41 48  1  0  0  0
 42 43  1  0  0  0
 42 66  1  0  0  0
 42118  1  0  0  0
 42119  1  0  0  0
 43 44  1  0  0  0
 44120  1  0  0  0
 45 46  2  0  0  0
 45121  1  0  0  0
 46122  1  0  0  0
 47123  1  0  0  0
 47124  1  0  0  0
 48 56  1  0  0  0
 48 65  1  0  0  0
 48125  1  0  0  0
 49 50  1  0  0  0
 49 53  1  0  0  0
 49 64  1  0  0  0
 49126  1  0  0  0
 50 51  1  0  0  0
 50127  1  0  0  0
 50128  1  0  0  0
 51 52  1  0  0  0
 51129  1  0  0  0
 51130  1  0  0  0
 52131  1  0  0  0
 52132  1  0  0  0
 53 54  1  0  0  0
 54 55  2  0  0  0
 54133  1  0  0  0
 55 57  1  0  0  0
 55134  1  0  0  0
 56 69  2  0  0  0
 57 58  2  0  0  0
 57135  1  0  0  0
 58136  1  0  0  0
 59 60  1  0  0  0
 59 61  1  0  0  0
 59 62  1  0  0  0
 60137  1  0  0  0
 60138  1  0  0  0
 60139  1  0  0  0
 61140  1  0  0  0
 61141  1  0  0  0
 61142  1  0  0  0
 62143  1  0  0  0
 62144  1  0  0  0
 62145  1  0  0  0
 63 65  1  0  0  0
 63146  1  0  0  0
 63147  1  0  0  0
 63148  1  0  0  0
 64149  1  0  0  0
 65150  1  0  0  0
 68 86  1  0  0  0
 71 72  2  0  0  0
 71 74  1  0  0  0
 71151  1  0  0  0
 72 76  1  0  0  0
 72152  1  0  0  0
 73 75  1  0  0  0
 73 76  2  0  0  0
 73153  1  0  0  0
 74 75  2  0  0  0
 74 83  1  0  0  0
 75 88  1  0  0  0
 76 90  1  0  0  0
 77 78  1  0  0  0
 77 81  1  0  0  0
 77154  1  0  0  0
 77155  1  0  0  0
 78 81  1  0  0  0
 78156  1  0  0  0
 78157  1  0  0  0
 79 80  1  0  0  0
 79 82  1  0  0  0
 79158  1  0  0  0
 79159  1  0  0  0
 80 82  1  0  0  0
 80160  1  0  0  0
 80161  1  0  0  0
 81 84  1  0  0  0
 81162  1  0  0  0
 82 83  1  0  0  0
 82 89  1  0  0  0
 83163  1  0  0  0
 83164  1  0  0  0
 84 88  1  0  0  0
 84165  1  0  0  0
 84166  1  0  0  0
 85 86  1  0  0  0
 85 87  1  0  0  0
 85167  1  0  0  0
 85168  1  0  0  0
 86169  1  0  0  0
 86170  1  0  0  0
 87 90  1  0  0  0
 87171  1  0  0  0
 87172  1  0  0  0
 88 91  1  0  0  0
 88173  1  0  0  0
 89174  1  0  0  0
M  ISO  4   1 100  68 101  86 101  89 100
M  END
> <chiral flag>
0

> <version>
0

> <s_m_source_file>
/data/baiqing/PycharmProjects/Reinvent-master-3.2/result/LINK_invent/BTK/process_docking_weight1_custom_sum_contain_oxygen_bond_distance_aromatic_linkinvent_7_9_3/rearranged_h_0148.sdf

> <i_m_source_file_index>
81

> <r_mmod_Potential_Energy-OPLS-2005>
107.904014587402

> <r_mmod_Stretch_Energy-OPLS-2005>
39.863826751709

> <r_mmod_Bend_Energy-OPLS-2005>
115.174026489258

> <r_mmod_Torsional_Energy-OPLS-2005>
346.166229248047

> <r_mmod_Improper_Torsional_Energy-OPLS-2005>
3.46400117874146

> <r_mmod_Van_der_Waal_Energy-OPLS-2005>
153.064636230469

> <r_mmod_Electrostatic_Energy-OPLS-2005>
-360.475372314453

> <r_mmod_Solvation_Energy-OPLS-2005>
-205.082580566406

> <b_mmod_Minimization_Converged-OPLS-2005>
0

> <r_mmod_RMS_Derivative-OPLS-2005>
5.90677976608276

$$$$
81
                    3D
 Structure written by MMmdl.
173183  0  0  1  0            999 V2000
  -30.6213  -14.4743   20.5286 C   0  0  0  0  0  0
  -30.4447  -12.3036   19.4059 C   0  0  0  0  0  0
  -29.4943  -12.4980   18.1998 C   0  0  0  0  0  0
  -28.0170  -12.3338   18.6137 C   0  0  0  0  0  0
  -27.6603  -13.1749   19.8679 C   0  0  2  0  0  0
  -28.7035  -12.9183   20.9829 C   0  0  0  0  0  0
  -25.2606  -13.8099   20.5592 C   0  0  0  0  0  0
  -24.1824  -13.0445   20.9107 C   0  0  0  0  0  0
  -24.6341  -11.6888   20.8687 C   0  0  0  0  0  0
  -23.9023  -10.4284   21.0395 C   0  0  0  0  0  0
  -24.3617   -9.4208   21.9163 C   0  0  0  0  0  0
  -23.6289   -8.2246   22.0754 C   0  0  0  0  0  0
  -22.4270   -8.0252   21.3528 C   0  0  0  0  0  0
  -21.9875   -9.0243   20.4644 C   0  0  0  0  0  0
  -22.7204  -10.2118   20.3060 C   0  0  0  0  0  0
  -21.6855   -6.0706   22.5251 C   0  0  0  0  0  0
  -21.3991   -6.5612   23.8174 C   0  0  0  0  0  0
  -21.3624   -5.6781   24.9143 C   0  0  0  0  0  0
  -21.6051   -4.3049   24.7213 C   0  0  0  0  0  0
  -21.8833   -3.8132   23.4339 C   0  0  0  0  0  0
  -21.9207   -4.6927   22.3378 C   0  0  0  0  0  0
  -22.7851  -13.5285   21.1790 C   0  0  0  0  0  0
  -22.1676   -4.2100   21.0963 F   0  0  0  0  0  0
  -21.5652   -3.4543   25.7748 F   0  0  0  0  0  0
  -30.0351  -13.2516   20.4515 N   0  0  0  0  0  0
  -26.3010  -12.9206   20.3320 N   0  0  0  0  0  0
  -25.9274  -11.6409   20.5790 N   0  0  0  0  0  0
  -22.0503  -12.8284   22.0350 N   0  0  0  0  0  0
  -25.4376  -15.1803   20.3916 N   0  0  0  0  0  0
  -31.8032  -14.6540   20.2146 O   0  0  0  0  0  0
  -21.6642   -6.8845   21.4208 O   0  0  0  0  0  0
  -22.3539  -14.5614   20.6669 O   0  0  0  0  0  0
  -24.6102  -31.8700   23.2119 C   0  0  0  0  0  0
  -25.9012  -32.4832   23.8401 C   0  0  1  0  0  0
  -27.2371  -27.4672   20.0974 C   0  0  0  0  0  0
  -25.5879  -33.8631   24.2338 N   0  0  0  0  0  0
  -23.3966  -30.4925   21.5509 C   0  0  2  0  0  0
  -24.8463  -28.9592   20.1165 C   0  0  0  0  0  0
  -22.7388  -29.4663   22.5002 C   0  0  0  0  0  0
  -18.0275  -28.1367   22.8493 C   0  0  0  0  0  0
  -24.1476  -36.7307   23.2646 C   0  0  0  0  0  0
  -25.9208  -30.8443   21.3611 C   0  0  0  0  0  0
  -26.0007  -29.4784   20.7178 C   0  0  0  0  0  0
  -27.2005  -28.7354   20.7144 C   0  0  0  0  0  0
  -26.0760  -26.9578   19.4849 C   0  0  0  0  0  0
  -24.8754  -27.6946   19.5000 C   0  0  0  0  0  0
  -23.6041  -29.8203   20.1666 C   0  0  0  0  0  0
  -25.4107  -36.3113   24.0347 C   0  0  1  0  0  0
  -20.5854  -28.3654   23.1338 C   0  0  2  0  0  0
  -20.6758  -26.9388   22.5440 C   0  0  0  0  0  0
  -19.5752  -26.6382   21.5213 C   0  0  0  0  0  0
  -18.1916  -26.7928   22.1600 C   0  0  0  0  0  0
  -19.1518  -28.8829   23.2910 C   0  0  0  0  0  0
  -18.9449  -30.1435   23.8915 C   0  0  0  0  0  0
  -17.6452  -30.6579   24.0579 C   0  0  0  0  0  0
  -25.9028  -34.9487   23.5129 C   0  0  0  0  0  0
  -16.5347  -29.9089   23.6323 C   0  0  0  0  0  0
  -16.7265  -28.6509   23.0347 C   0  0  0  0  0  0
  -26.4445  -31.6608   25.0715 C   0  0  0  0  0  0
  -25.3699  -31.3682   26.1440 C   0  0  0  0  0  0
  -27.0293  -30.3068   24.6059 C   0  0  0  0  0  0
  -27.6006  -32.4322   25.7493 C   0  0  0  0  0  0
  -27.5577  -37.1816   24.8474 C   0  0  0  0  0  0
  -21.4117  -29.3015   22.3732 N   0  0  0  0  0  0
  -26.4296  -37.3798   23.9397 N   0  0  0  0  0  0
  -24.6601  -31.0836   22.0997 N   0  0  0  0  0  0
  -23.4172  -28.8227   23.3053 O   0  0  0  0  0  0
  -28.3857  -26.7214   20.0506 O   0  0  0  0  0  0
  -26.5591  -34.8935   22.4685 O   0  0  0  0  0  0
  -23.5295  -32.1434   23.7540 O   0  0  0  0  0  0
  -29.0938  -21.4113   23.0310 C   0  0  0  0  0  0
  -29.5342  -22.6025   22.4246 C   0  0  0  0  0  0
  -28.0773  -22.1629   20.5381 C   0  0  0  0  0  0
  -28.1337  -20.5799   22.4079 C   0  0  0  0  0  0
  -27.5996  -20.9850   21.1533 C   0  0  0  0  0  0
  -29.0414  -22.9823   21.1557 C   0  0  0  0  0  0
  -28.8554  -18.1862   22.7617 C   0  0  0  0  0  0
  -25.9861  -19.7416   24.9577 C   0  0  0  0  0  0
  -26.5137  -18.3602   25.2439 C   0  0  0  0  0  0
  -29.6571  -15.6343   20.7058 C   0  0  2  0  0  0
  -27.3992  -19.3739   24.5411 C   0  0  0  0  0  0
  -29.5776  -16.6012   19.5236 C   0  0  1  0  0  0
  -30.0601  -17.0861   20.8695 C   0  0  1  0  0  0
  -26.5331  -20.1793   20.4267 C   0  0  0  0  0  0
  -30.5171  -16.6504   18.3277 C   0  0  0  0  0  0
  -28.8092  -26.2274   21.3178 C   0  0  0  0  0  0
  -29.9622  -25.2374   21.1011 C   0  0  0  0  0  0
  -27.7564  -19.2363   23.0588 C   0  0  1  0  0  0
  -29.1489  -18.0134   21.4668 N   0  0  0  0  0  0
  -29.3983  -17.5344   23.6569 O   0  0  0  0  0  0
  -29.4803  -24.0707   20.4313 O   0  0  0  0  0  0
  -31.4795  -12.4534   19.0917 H   0  0  0  0  0  0
  -30.3900  -11.2844   19.7862 H   0  0  0  0  0  0
  -29.7458  -11.7950   17.4028 H   0  0  0  0  0  0
  -29.6337  -13.4947   17.7800 H   0  0  0  0  0  0
  -27.8447  -11.2750   18.8132 H   0  0  0  0  0  0
  -27.3628  -12.5952   17.7817 H   0  0  0  0  0  0
  -27.7026  -14.2175   19.5589 H   0  0  0  0  0  0
  -28.6828  -11.8686   21.2796 H   0  0  0  0  0  0
  -28.4752  -13.4607   21.8996 H   0  0  0  0  0  0
  -25.2777   -9.5725   22.4697 H   0  0  0  0  0  0
  -23.9976   -7.4680   22.7531 H   0  0  0  0  0  0
  -21.0781   -8.8815   19.8981 H   0  0  0  0  0  0
  -22.3668  -10.9673   19.6176 H   0  0  0  0  0  0
  -21.1944   -7.6121   23.9659 H   0  0  0  0  0  0
  -21.1419   -6.0510   25.9037 H   0  0  0  0  0  0
  -22.0638   -2.7589   23.2881 H   0  0  0  0  0  0
  -22.4187  -11.9962   22.4721 H   0  0  0  0  0  0
  -21.1121  -13.1273   22.2647 H   0  0  0  0  0  0
  -24.6688  -15.8374   20.4656 H   0  0  0  0  0  0
  -26.3006  -15.6055   20.0813 H   0  0  0  0  0  0
  -26.7082  -32.5578   23.1177 H   0  0  0  0  0  0
  -25.0037  -33.9778   25.0483 H   0  0  0  0  0  0
  -22.6832  -31.3077   21.4133 H   0  0  0  0  0  0
  -23.3741  -35.9632   23.3323 H   0  0  0  0  0  0
  -24.3565  -36.8903   22.2057 H   0  0  0  0  0  0
  -23.7229  -37.6517   23.6651 H   0  0  0  0  0  0
  -26.0236  -31.6056   20.5868 H   0  0  0  0  0  0
  -26.8121  -30.9034   21.9732 H   0  0  0  0  0  0
  -28.0947  -29.1386   21.1689 H   0  0  0  0  0  0
  -26.0999  -25.9898   19.0037 H   0  0  0  0  0  0
  -23.9881  -27.2913   19.0312 H   0  0  0  0  0  0
  -23.7050  -30.5916   19.4024 H   0  0  0  0  0  0
  -22.7296  -29.2341   19.8779 H   0  0  0  0  0  0
  -25.1278  -36.1985   25.0844 H   0  0  0  0  0  0
  -20.9954  -28.3231   24.1459 H   0  0  0  0  0  0
  -20.5651  -26.2257   23.3620 H   0  0  0  0  0  0
  -21.6641  -26.7424   22.1266 H   0  0  0  0  0  0
  -19.6916  -25.6303   21.1218 H   0  0  0  0  0  0
  -19.6710  -27.3209   20.6761 H   0  0  0  0  0  0
  -17.4211  -26.6727   21.3966 H   0  0  0  0  0  0
  -18.0270  -26.0047   22.8959 H   0  0  0  0  0  0
  -19.7927  -30.7245   24.2299 H   0  0  0  0  0  0
  -17.5013  -31.6258   24.5190 H   0  0  0  0  0  0
  -15.5348  -30.3002   23.7631 H   0  0  0  0  0  0
  -15.8665  -28.0841   22.7027 H   0  0  0  0  0  0
  -24.6016  -30.6838   25.7818 H   0  0  0  0  0  0
  -24.8702  -32.2799   26.4730 H   0  0  0  0  0  0
  -25.8078  -30.9051   27.0290 H   0  0  0  0  0  0
  -26.2843  -29.6836   24.1096 H   0  0  0  0  0  0
  -27.4070  -29.7285   25.4503 H   0  0  0  0  0  0
  -27.8662  -30.4417   23.9200 H   0  0  0  0  0  0
  -27.2628  -33.3632   26.2059 H   0  0  0  0  0  0
  -28.3842  -32.6860   25.0340 H   0  0  0  0  0  0
  -28.0637  -31.8447   26.5430 H   0  0  0  0  0  0
  -28.2636  -38.0074   24.7477 H   0  0  0  0  0  0
  -28.1030  -36.2603   24.6359 H   0  0  0  0  0  0
  -27.2287  -37.1555   25.8880 H   0  0  0  0  0  0
  -20.9266  -29.8722   21.6946 H   0  0  0  0  0  0
  -26.0188  -38.2878   24.1379 H   0  0  0  0  0  0
  -29.5341  -21.1263   23.9761 H   0  0  0  0  0  0
  -30.2919  -23.1702   22.9405 H   0  0  0  0  0  0
  -27.7042  -22.4532   19.5656 H   0  0  0  0  0  0
  -25.8640  -20.4221   25.7984 H   0  0  0  0  0  0
  -25.2244  -19.8255   24.1837 H   0  0  0  0  0  0
  -26.0932  -17.5395   24.6645 H   0  0  0  0  0  0
  -26.7579  -18.1173   26.2768 H   0  0  0  0  0  0
  -28.7255  -15.4244   21.2208 H   0  0  0  0  0  0
  -28.2023  -19.7746   25.1567 H   0  0  0  0  0  0
  -28.5494  -16.8173   19.2366 H   0  0  0  0  0  0
  -31.1240  -17.2915   20.9765 H   0  0  0  0  0  0
  -26.3114  -20.6055   19.4470 H   0  0  0  0  0  0
  -25.6033  -20.1793   20.9971 H   0  0  0  0  0  0
  -26.8459  -19.1481   20.2656 H   0  0  0  0  0  0
  -30.3081  -15.8275   17.6418 H   0  0  0  0  0  0
  -31.5605  -16.6038   18.6356 H   0  0  0  0  0  0
  -30.3809  -17.5879   17.7896 H   0  0  0  0  0  0
  -29.1520  -27.0546   21.9406 H   0  0  0  0  0  0
  -27.9863  -25.7396   21.8437 H   0  0  0  0  0  0
  -30.4642  -25.0299   22.0430 H   0  0  0  0  0  0
  -30.7186  -25.7045   20.4710 H   0  0  0  0  0  0
  -26.8564  -18.8479   22.5840 H   0  0  0  0  0  0
  -28.6682  -18.6344   20.8306 H   0  0  0  0  0  0
  1 25  1  0  0  0
  1 30  2  0  0  0
  1 80  1  0  0  0
  2  3  1  0  0  0
  2 25  1  0  0  0
  2 92  1  0  0  0
  2 93  1  0  0  0
  3  4  1  0  0  0
  3 94  1  0  0  0
  3 95  1  0  0  0
  4  5  1  0  0  0
  4 96  1  0  0  0
  4 97  1  0  0  0
  5  6  1  0  0  0
  5 26  1  0  0  0
  5 98  1  0  0  0
  6 25  1  0  0  0
  6 99  1  0  0  0
  6100  1  0  0  0
  7  8  2  0  0  0
  7 26  1  0  0  0
  7 29  1  0  0  0
  8  9  1  0  0  0
  8 22  1  0  0  0
  9 10  1  0  0  0
  9 27  2  0  0  0
 10 11  2  0  0  0
 10 15  1  0  0  0
 11 12  1  0  0  0
 11101  1  0  0  0
 12 13  2  0  0  0
 12102  1  0  0  0
 13 14  1  0  0  0
 13 31  1  0  0  0
 14 15  2  0  0  0
 14103  1  0  0  0
 15104  1  0  0  0
 16 17  2  0  0  0
 16 21  1  0  0  0
 16 31  1  0  0  0
 17 18  1  0  0  0
 17105  1  0  0  0
 18 19  2  0  0  0
 18106  1  0  0  0
 19 20  1  0  0  0
 19 24  1  0  0  0
 20 21  2  0  0  0
 20107  1  0  0  0
 21 23  1  0  0  0
 22 28  1  0  0  0
 22 32  2  0  0  0
 26 27  1  0  0  0
 28108  1  0  0  0
 28109  1  0  0  0
 29110  1  0  0  0
 29111  1  0  0  0
 33 34  1  0  0  0
 33 66  1  0  0  0
 33 70  2  0  0  0
 34 36  1  0  0  0
 34 59  1  0  0  0
 34112  1  0  0  0
 35 44  2  0  0  0
 35 45  1  0  0  0
 35 68  1  0  0  0
 36 56  1  0  0  0
 36113  1  0  0  0
 37 39  1  0  0  0
 37 47  1  0  0  0
 37 66  1  0  0  0
 37114  1  0  0  0
 38 43  2  0  0  0
 38 46  1  0  0  0
 38 47  1  0  0  0
 39 64  1  0  0  0
 39 67  2  0  0  0
 40 52  1  0  0  0
 40 53  2  0  0  0
 40 58  1  0  0  0
 41115  1  0  0  0
 41116  1  0  0  0
 41117  1  0  0  0
 41 48  1  0  0  0
 42 43  1  0  0  0
 42 66  1  0  0  0
 42118  1  0  0  0
 42119  1  0  0  0
 43 44  1  0  0  0
 44120  1  0  0  0
 45 46  2  0  0  0
 45121  1  0  0  0
 46122  1  0  0  0
 47123  1  0  0  0
 47124  1  0  0  0
 48 56  1  0  0  0
 48 65  1  0  0  0
 48125  1  0  0  0
 49 50  1  0  0  0
 49 53  1  0  0  0
 49 64  1  0  0  0
 49126  1  0  0  0
 50 51  1  0  0  0
 50127  1  0  0  0
 50128  1  0  0  0
 51 52  1  0  0  0
 51129  1  0  0  0
 51130  1  0  0  0
 52131  1  0  0  0
 52132  1  0  0  0
 53 54  1  0  0  0
 54 55  2  0  0  0
 54133  1  0  0  0
 55 57  1  0  0  0
 55134  1  0  0  0
 56 69  2  0  0  0
 57 58  2  0  0  0
 57135  1  0  0  0
 58136  1  0  0  0
 59 60  1  0  0  0
 59 61  1  0  0  0
 59 62  1  0  0  0
 60137  1  0  0  0
 60138  1  0  0  0
 60139  1  0  0  0
 61140  1  0  0  0
 61141  1  0  0  0
 61142  1  0  0  0
 62143  1  0  0  0
 62144  1  0  0  0
 62145  1  0  0  0
 63 65  1  0  0  0
 63146  1  0  0  0
 63147  1  0  0  0
 63148  1  0  0  0
 64149  1  0  0  0
 65150  1  0  0  0
 68 86  1  0  0  0
 71 72  2  0  0  0
 71 74  1  0  0  0
 71151  1  0  0  0
 72 76  1  0  0  0
 72152  1  0  0  0
 73 75  1  0  0  0
 73 76  2  0  0  0
 73153  1  0  0  0
 74 75  2  0  0  0
 74 88  1  0  0  0
 75 84  1  0  0  0
 76 91  1  0  0  0
 77 89  1  0  0  0
 77 90  2  0  0  0
 77 88  1  0  0  0
 78 79  1  0  0  0
 78154  1  0  0  0
 78155  1  0  0  0
 78 81  1  0  0  0
 79 81  1  0  0  0
 79156  1  0  0  0
 79157  1  0  0  0
 80 82  1  0  0  0
 80 83  1  0  0  0
 80158  1  0  0  0
 81 88  1  0  0  0
 81159  1  0  0  0
 82 83  1  0  0  0
 82 85  1  0  0  0
 82160  1  0  0  0
 83 89  1  0  0  0
 83161  1  0  0  0
 84162  1  0  0  0
 84163  1  0  0  0
 84164  1  0  0  0
 85165  1  0  0  0
 85166  1  0  0  0
 85167  1  0  0  0
 86 87  1  0  0  0
 86168  1  0  0  0
 86169  1  0  0  0
 87 91  1  0  0  0
 87170  1  0  0  0
 87171  1  0  0  0
 88172  1  0  0  0
 89173  1  0  0  0
M  ISO  4   1 100  68 101  80 100  86 101
M  END
> <chiral flag>
0

> <version>
0

> <s_m_source_file>
/data/baiqing/PycharmProjects/Reinvent-master-3.2/result/LINK_invent/BTK/process_docking_weight1_custom_sum_contain_oxygen_bond_distance_aromatic_linkinvent_7_9_3/rearranged_h_0148.sdf

> <i_m_source_file_index>
82

> <r_mmod_Potential_Energy-OPLS-2005>
146.164596557617

> <r_mmod_Stretch_Energy-OPLS-2005>
37.6911087036133

> <r_mmod_Bend_Energy-OPLS-2005>
117.391677856445

> <r_mmod_Torsional_Energy-OPLS-2005>
303.821105957031

> <r_mmod_Improper_Torsional_Energy-OPLS-2005>
7.82683515548706

> <r_mmod_Van_der_Waal_Energy-OPLS-2005>
147.927398681641

> <r_mmod_Electrostatic_Energy-OPLS-2005>
-263.876037597656

> <r_mmod_Solvation_Energy-OPLS-2005>
-220.006240844727

> <b_mmod_Minimization_Converged-OPLS-2005>
0

> <r_mmod_RMS_Derivative-OPLS-2005>
3.36826705932617

$$$$
82
                    3D
 Structure written by MMmdl.
174184  0  0  1  0            999 V2000
  -30.6603  -14.6159   20.6346 C   0  0  0  0  0  0
  -30.4382  -12.4267   19.4384 C   0  0  0  0  0  0
  -29.5000  -12.5374   18.2142 C   0  0  0  0  0  0
  -28.0196  -12.3737   18.6137 C   0  0  0  0  0  0
  -27.6501  -13.2143   19.8593 C   0  0  2  0  0  0
  -28.6839  -12.9850   20.9702 C   0  0  0  0  0  0
  -25.2535  -13.8177   20.5674 C   0  0  0  0  0  0
  -24.1822  -13.0438   20.9202 C   0  0  0  0  0  0
  -24.6381  -11.6912   20.8749 C   0  0  0  0  0  0
  -23.9068  -10.4291   21.0429 C   0  0  0  0  0  0
  -24.3622   -9.4209   21.9206 C   0  0  0  0  0  0
  -23.6297   -8.2233   22.0755 C   0  0  0  0  0  0
  -22.4280   -8.0285   21.3543 C   0  0  0  0  0  0
  -21.9924   -9.0262   20.4655 C   0  0  0  0  0  0
  -22.7245  -10.2143   20.3079 C   0  0  0  0  0  0
  -21.6858   -6.0738   22.5268 C   0  0  0  0  0  0
  -21.4015   -6.5643   23.8212 C   0  0  0  0  0  0
  -21.3661   -5.6803   24.9168 C   0  0  0  0  0  0
  -21.6046   -4.3058   24.7226 C   0  0  0  0  0  0
  -21.8824   -3.8151   23.4343 C   0  0  0  0  0  0
  -21.9189   -4.6959   22.3404 C   0  0  0  0  0  0
  -22.7843  -13.5225   21.1887 C   0  0  0  0  0  0
  -22.1659   -4.2146   21.0979 F   0  0  0  0  0  0
  -21.5630   -3.4549   25.7736 F   0  0  0  0  0  0
  -30.0028  -13.4113   20.4583 N   0  0  0  0  0  0
  -26.2945  -12.9347   20.3255 N   0  0  0  0  0  0
  -25.9298  -11.6509   20.5719 N   0  0  0  0  0  0
  -22.0497  -12.8212   22.0450 N   0  0  0  0  0  0
  -25.4274  -15.1906   20.4119 N   0  0  0  0  0  0
  -31.7475  -14.8018   20.0737 O   0  0  0  0  0  0
  -21.6647   -6.8871   21.4234 O   0  0  0  0  0  0
  -22.3516  -14.5531   20.6739 O   0  0  0  0  0  0
  -24.6191  -31.8631   23.2038 C   0  0  0  0  0  0
  -25.9030  -32.4783   23.8358 C   0  0  1  0  0  0
  -27.2346  -27.3657   20.1034 C   0  0  0  0  0  0
  -25.5816  -33.8561   24.2293 N   0  0  0  0  0  0
  -23.4140  -30.4879   21.5494 C   0  0  2  0  0  0
  -24.8597  -28.9448   20.1148 C   0  0  0  0  0  0
  -22.7401  -29.4694   22.4979 C   0  0  0  0  0  0
  -18.0246  -28.1414   22.8461 C   0  0  0  0  0  0
  -24.1498  -36.7303   23.2667 C   0  0  0  0  0  0
  -25.9475  -30.8116   21.3707 C   0  0  0  0  0  0
  -26.0237  -29.4418   20.7124 C   0  0  0  0  0  0
  -27.2083  -28.6565   20.7028 C   0  0  0  0  0  0
  -26.0419  -26.9019   19.5022 C   0  0  0  0  0  0
  -24.8669  -27.6790   19.5085 C   0  0  0  0  0  0
  -23.6266  -29.8213   20.1645 C   0  0  0  0  0  0
  -25.4101  -36.3064   24.0356 C   0  0  1  0  0  0
  -20.5827  -28.3731   23.1292 C   0  0  2  0  0  0
  -20.6781  -26.9476   22.5414 C   0  0  0  0  0  0
  -19.5787  -26.6417   21.5187 C   0  0  0  0  0  0
  -18.1954  -26.7959   22.1580 C   0  0  0  0  0  0
  -19.1495  -28.8867   23.2889 C   0  0  0  0  0  0
  -18.9428  -30.1435   23.8960 C   0  0  0  0  0  0
  -17.6446  -30.6625   24.0556 C   0  0  0  0  0  0
  -25.8981  -34.9434   23.5131 C   0  0  0  0  0  0
  -16.5324  -29.9142   23.6336 C   0  0  0  0  0  0
  -16.7232  -28.6539   23.0379 C   0  0  0  0  0  0
  -26.4434  -31.6533   25.0661 C   0  0  0  0  0  0
  -25.3678  -31.3645   26.1380 C   0  0  0  0  0  0
  -27.0317  -30.2980   24.6068 C   0  0  0  0  0  0
  -27.6019  -32.4229   25.7386 C   0  0  0  0  0  0
  -27.5602  -37.1778   24.8465 C   0  0  0  0  0  0
  -21.4110  -29.3077   22.3674 N   0  0  0  0  0  0
  -26.4317  -37.3726   23.9390 N   0  0  0  0  0  0
  -24.6800  -31.0678   22.0998 N   0  0  0  0  0  0
  -23.4116  -28.8301   23.3128 O   0  0  0  0  0  0
  -28.4144  -26.6194   20.1455 O   0  0  0  0  0  0
  -26.5576  -34.8918   22.4711 O   0  0  0  0  0  0
  -23.5337  -32.1442   23.7351 O   0  0  0  0  0  0
  -29.9015  -17.7555   18.8943 C   0  0  0  0  0  0
  -29.6090  -18.6827   17.8751 C   0  0  0  0  0  0
  -29.5817  -19.5258   20.5299 C   0  0  0  0  0  0
  -29.9312  -18.1504   20.2444 C   0  0  0  0  0  0
  -29.2863  -20.0326   18.1566 C   0  0  0  0  0  0
  -29.2086  -20.4662   19.5101 C   0  0  0  0  0  0
  -30.6140  -22.1471   16.2263 C   0  0  0  0  0  0
  -30.2039  -16.4063   23.6107 C   0  0  0  0  0  0
  -29.3048  -22.4782   16.9391 C   0  0  0  0  0  0
  -29.9027  -20.8919   15.7186 C   0  0  0  0  0  0
  -30.2134  -17.6438   22.7531 C   0  0  0  0  0  0
  -29.5631  -15.3857   22.6871 C   0  0  0  0  0  0
  -28.9858  -20.9628   16.9675 C   0  0  0  0  0  0
  -30.4503  -17.1247   21.3193 C   0  0  1  0  0  0
  -27.2333  -23.8487   21.3806 C   0  0  0  0  0  0
  -28.5364  -25.2363   19.6675 C   0  0  0  0  0  0
  -29.3838  -22.7533   20.4718 C   0  0  0  0  0  0
  -28.6159  -24.1147   20.7765 C   0  0  2  0  0  0
  -30.0360  -15.6526   21.3151 N   0  0  0  0  0  0
  -28.6445  -21.7246   19.7691 O   0  0  0  0  0  0
  -31.4709  -12.5786   19.1225 H   0  0  0  0  0  0
  -30.4139  -11.4172   19.8529 H   0  0  0  0  0  0
  -29.7651  -11.7883   17.4676 H   0  0  0  0  0  0
  -29.6409  -13.5077   17.7360 H   0  0  0  0  0  0
  -27.8399  -11.3180   18.8152 H   0  0  0  0  0  0
  -27.3712  -12.6384   17.7778 H   0  0  0  0  0  0
  -27.6923  -14.2658   19.5721 H   0  0  0  0  0  0
  -28.7205  -11.9245   21.2292 H   0  0  0  0  0  0
  -28.3316  -13.4576   21.8772 H   0  0  0  0  0  0
  -25.2753   -9.5685   22.4801 H   0  0  0  0  0  0
  -24.0006   -7.4625   22.7472 H   0  0  0  0  0  0
  -21.0852   -8.8798   19.8954 H   0  0  0  0  0  0
  -22.3706  -10.9704   19.6211 H   0  0  0  0  0  0
  -21.2019   -7.6157   23.9707 H   0  0  0  0  0  0
  -21.1482   -6.0534   25.9073 H   0  0  0  0  0  0
  -22.0604   -2.7613   23.2851 H   0  0  0  0  0  0
  -22.4100  -11.9856   22.4831 H   0  0  0  0  0  0
  -21.1130  -13.1255   22.2691 H   0  0  0  0  0  0
  -24.6701  -15.8529   20.5359 H   0  0  0  0  0  0
  -26.2899  -15.6280   20.1145 H   0  0  0  0  0  0
  -26.7119  -32.5506   23.1128 H   0  0  0  0  0  0
  -24.9787  -33.9675   25.0325 H   0  0  0  0  0  0
  -22.7145  -31.3142   21.4075 H   0  0  0  0  0  0
  -23.3723  -35.9666   23.3286 H   0  0  0  0  0  0
  -24.3671  -36.8950   22.2100 H   0  0  0  0  0  0
  -23.7281  -37.6516   23.6702 H   0  0  0  0  0  0
  -26.0745  -31.5907   20.6182 H   0  0  0  0  0  0
  -26.8293  -30.8571   22.0001 H   0  0  0  0  0  0
  -28.1065  -29.0225   21.1789 H   0  0  0  0  0  0
  -25.9817  -25.9338   19.0326 H   0  0  0  0  0  0
  -23.9647  -27.2890   19.0572 H   0  0  0  0  0  0
  -23.7481  -30.6000   19.4096 H   0  0  0  0  0  0
  -22.7437  -29.2547   19.8624 H   0  0  0  0  0  0
  -25.1323  -36.1930   25.0861 H   0  0  0  0  0  0
  -20.9909  -28.3319   24.1415 H   0  0  0  0  0  0
  -20.5725  -26.2320   23.3591 H   0  0  0  0  0  0
  -21.6670  -26.7595   22.1212 H   0  0  0  0  0  0
  -19.7002  -25.6327   21.1251 H   0  0  0  0  0  0
  -19.6771  -27.3179   20.6685 H   0  0  0  0  0  0
  -17.4235  -26.6625   21.3978 H   0  0  0  0  0  0
  -18.0404  -26.0103   22.8988 H   0  0  0  0  0  0
  -19.7899  -30.7188   24.2439 H   0  0  0  0  0  0
  -17.5029  -31.6333   24.5121 H   0  0  0  0  0  0
  -15.5342  -30.3101   23.7661 H   0  0  0  0  0  0
  -15.8592  -28.0881   22.7166 H   0  0  0  0  0  0
  -24.5825  -30.7037   25.7694 H   0  0  0  0  0  0
  -24.8874  -32.2797   26.4832 H   0  0  0  0  0  0
  -25.8000  -30.8780   27.0130 H   0  0  0  0  0  0
  -26.2900  -29.6594   24.1239 H   0  0  0  0  0  0
  -27.4248  -29.7359   25.4550 H   0  0  0  0  0  0
  -27.8653  -30.4340   23.9172 H   0  0  0  0  0  0
  -27.2697  -33.3568   26.1923 H   0  0  0  0  0  0
  -28.3806  -32.6657   25.0144 H   0  0  0  0  0  0
  -28.0659  -31.8316   26.5294 H   0  0  0  0  0  0
  -28.2577  -38.0112   24.7522 H   0  0  0  0  0  0
  -28.1160  -36.2637   24.6305 H   0  0  0  0  0  0
  -27.2328  -37.1427   25.8872 H   0  0  0  0  0  0
  -20.9299  -29.8717   21.6804 H   0  0  0  0  0  0
  -26.0209  -38.2825   24.1314 H   0  0  0  0  0  0
  -30.1471  -16.7377   18.6244 H   0  0  0  0  0  0
  -29.6331  -18.3356   16.8509 H   0  0  0  0  0  0
  -29.5724  -19.8770   21.5518 H   0  0  0  0  0  0
  -31.4323  -21.9111   16.9115 H   0  0  0  0  0  0
  -30.9195  -22.8601   15.4594 H   0  0  0  0  0  0
  -29.6555  -16.5307   24.5468 H   0  0  0  0  0  0
  -31.2217  -16.1021   23.8584 H   0  0  0  0  0  0
  -28.6261  -23.0294   16.2849 H   0  0  0  0  0  0
  -29.4170  -23.0065   17.8790 H   0  0  0  0  0  0
  -30.5566  -20.0254   15.6222 H   0  0  0  0  0  0
  -29.3552  -21.0812   14.7934 H   0  0  0  0  0  0
  -30.9529  -18.3763   23.0811 H   0  0  0  0  0  0
  -29.2286  -18.1046   22.8425 H   0  0  0  0  0  0
  -28.4781  -15.5017   22.7121 H   0  0  0  0  0  0
  -29.8181  -14.3922   23.0551 H   0  0  0  0  0  0
  -27.9425  -20.8007   16.6889 H   0  0  0  0  0  0
  -31.5336  -17.1148   21.1868 H   0  0  0  0  0  0
  -26.8462  -24.7409   21.8740 H   0  0  0  0  0  0
  -27.2694  -23.0458   22.1185 H   0  0  0  0  0  0
  -26.5254  -23.5645   20.6034 H   0  0  0  0  0  0
  -27.8034  -24.9693   18.9083 H   0  0  0  0  0  0
  -29.4833  -25.2226   19.1275 H   0  0  0  0  0  0
  -29.7005  -22.3293   21.4234 H   0  0  0  0  0  0
  -30.3061  -22.9765   19.9311 H   0  0  0  0  0  0
  -29.2157  -24.5617   21.5730 H   0  0  0  0  0  0
  1 25  1  0  0  0
  1 30  2  0  0  0
  1 89  1  0  0  0
  2  3  1  0  0  0
  2 25  1  0  0  0
  2 91  1  0  0  0
  2 92  1  0  0  0
  3  4  1  0  0  0
  3 93  1  0  0  0
  3 94  1  0  0  0
  4  5  1  0  0  0
  4 95  1  0  0  0
  4 96  1  0  0  0
  5  6  1  0  0  0
  5 26  1  0  0  0
  5 97  1  0  0  0
  6 25  1  0  0  0
  6 98  1  0  0  0
  6 99  1  0  0  0
  7  8  2  0  0  0
  7 26  1  0  0  0
  7 29  1  0  0  0
  8  9  1  0  0  0
  8 22  1  0  0  0
  9 10  1  0  0  0
  9 27  2  0  0  0
 10 11  2  0  0  0
 10 15  1  0  0  0
 11 12  1  0  0  0
 11100  1  0  0  0
 12 13  2  0  0  0
 12101  1  0  0  0
 13 14  1  0  0  0
 13 31  1  0  0  0
 14 15  2  0  0  0
 14102  1  0  0  0
 15103  1  0  0  0
 16 17  2  0  0  0
 16 21  1  0  0  0
 16 31  1  0  0  0
 17 18  1  0  0  0
 17104  1  0  0  0
 18 19  2  0  0  0
 18105  1  0  0  0
 19 20  1  0  0  0
 19 24  1  0  0  0
 20 21  2  0  0  0
 20106  1  0  0  0
 21 23  1  0  0  0
 22 28  1  0  0  0
 22 32  2  0  0  0
 26 27  1  0  0  0
 28107  1  0  0  0
 28108  1  0  0  0
 29109  1  0  0  0
 29110  1  0  0  0
 33 34  1  0  0  0
 33 66  1  0  0  0
 33 70  2  0  0  0
 34 36  1  0  0  0
 34 59  1  0  0  0
 34111  1  0  0  0
 35 44  2  0  0  0
 35 45  1  0  0  0
 35 68  1  0  0  0
 36 56  1  0  0  0
 36112  1  0  0  0
 37 39  1  0  0  0
 37 47  1  0  0  0
 37 66  1  0  0  0
 37113  1  0  0  0
 38 43  2  0  0  0
 38 46  1  0  0  0
 38 47  1  0  0  0
 39 64  1  0  0  0
 39 67  2  0  0  0
 40 52  1  0  0  0
 40 53  2  0  0  0
 40 58  1  0  0  0
 41114  1  0  0  0
 41115  1  0  0  0
 41116  1  0  0  0
 41 48  1  0  0  0
 42 43  1  0  0  0
 42 66  1  0  0  0
 42117  1  0  0  0
 42118  1  0  0  0
 43 44  1  0  0  0
 44119  1  0  0  0
 45 46  2  0  0  0
 45120  1  0  0  0
 46121  1  0  0  0
 47122  1  0  0  0
 47123  1  0  0  0
 48 56  1  0  0  0
 48 65  1  0  0  0
 48124  1  0  0  0
 49 50  1  0  0  0
 49 53  1  0  0  0
 49 64  1  0  0  0
 49125  1  0  0  0
 50 51  1  0  0  0
 50126  1  0  0  0
 50127  1  0  0  0
 51 52  1  0  0  0
 51128  1  0  0  0
 51129  1  0  0  0
 52130  1  0  0  0
 52131  1  0  0  0
 53 54  1  0  0  0
 54 55  2  0  0  0
 54132  1  0  0  0
 55 57  1  0  0  0
 55133  1  0  0  0
 56 69  2  0  0  0
 57 58  2  0  0  0
 57134  1  0  0  0
 58135  1  0  0  0
 59 60  1  0  0  0
 59 61  1  0  0  0
 59 62  1  0  0  0
 60136  1  0  0  0
 60137  1  0  0  0
 60138  1  0  0  0
 61139  1  0  0  0
 61140  1  0  0  0
 61141  1  0  0  0
 62142  1  0  0  0
 62143  1  0  0  0
 62144  1  0  0  0
 63 65  1  0  0  0
 63145  1  0  0  0
 63146  1  0  0  0
 63147  1  0  0  0
 64148  1  0  0  0
 65149  1  0  0  0
 68 86  1  0  0  0
 71 72  2  0  0  0
 71 74  1  0  0  0
 71150  1  0  0  0
 72 75  1  0  0  0
 72151  1  0  0  0
 73 74  2  0  0  0
 73 76  1  0  0  0
 73152  1  0  0  0
 74 84  1  0  0  0
 75 76  2  0  0  0
 75 83  1  0  0  0
 76 90  1  0  0  0
 77 79  1  0  0  0
 77 80  1  0  0  0
 77153  1  0  0  0
 77154  1  0  0  0
 78 81  1  0  0  0
 78 82  1  0  0  0
 78155  1  0  0  0
 78156  1  0  0  0
 79 83  1  0  0  0
 79157  1  0  0  0
 79158  1  0  0  0
 80 83  1  0  0  0
 80159  1  0  0  0
 80160  1  0  0  0
 81 84  1  0  0  0
 81161  1  0  0  0
 81162  1  0  0  0
 82 89  1  0  0  0
 82163  1  0  0  0
 82164  1  0  0  0
 83165  1  0  0  0
 84 89  1  0  0  0
 84166  1  0  0  0
 85167  1  0  0  0
 85168  1  0  0  0
 85169  1  0  0  0
 85 88  1  0  0  0
 86 88  1  0  0  0
 86170  1  0  0  0
 86171  1  0  0  0
 87 88  1  0  0  0
 87 90  1  0  0  0
 87172  1  0  0  0
 87173  1  0  0  0
 88174  1  0  0  0
M  ISO  4   1 100  68 101  86 101  89 100
M  END
> <chiral flag>
0

> <version>
0

> <s_m_source_file>
/data/baiqing/PycharmProjects/Reinvent-master-3.2/result/LINK_invent/BTK/process_docking_weight1_custom_sum_contain_oxygen_bond_distance_aromatic_linkinvent_7_9_3/rearranged_h_0148.sdf

> <i_m_source_file_index>
83

> <r_mmod_Potential_Energy-OPLS-2005>
369.582733154297

> <r_mmod_Stretch_Energy-OPLS-2005>
86.7226486206055

> <r_mmod_Bend_Energy-OPLS-2005>
218.393157958984

> <r_mmod_Torsional_Energy-OPLS-2005>
358.311431884766

> <r_mmod_Improper_Torsional_Energy-OPLS-2005>
7.37717819213867

> <r_mmod_Van_der_Waal_Energy-OPLS-2005>
149.56315612793

> <r_mmod_Electrostatic_Energy-OPLS-2005>
-296.350708007812

> <r_mmod_Solvation_Energy-OPLS-2005>
-186.661483764648

> <b_mmod_Minimization_Converged-OPLS-2005>
0

> <r_mmod_RMS_Derivative-OPLS-2005>
4.04436445236206

$$$$
83
                    3D
 Structure written by MMmdl.
181190  0  0  1  0            999 V2000
  -30.6952  -14.7764   20.4716 C   0  0  0  0  0  0
  -30.4064  -12.4944   19.4744 C   0  0  0  0  0  0
  -29.4936  -12.4938   18.2330 C   0  0  0  0  0  0
  -28.0302  -12.2889   18.6595 C   0  0  0  0  0  0
  -27.6241  -13.2215   19.8278 C   0  0  2  0  0  0
  -28.6736  -13.2412   20.9652 C   0  0  0  0  0  0
  -25.2450  -13.8160   20.5681 C   0  0  0  0  0  0
  -24.1758  -13.0417   20.9237 C   0  0  0  0  0  0
  -24.6350  -11.6896   20.8781 C   0  0  0  0  0  0
  -23.9038  -10.4279   21.0436 C   0  0  0  0  0  0
  -24.3600   -9.4193   21.9202 C   0  0  0  0  0  0
  -23.6284   -8.2224   22.0758 C   0  0  0  0  0  0
  -22.4267   -8.0267   21.3546 C   0  0  0  0  0  0
  -21.9900   -9.0238   20.4649 C   0  0  0  0  0  0
  -22.7220  -10.2121   20.3071 C   0  0  0  0  0  0
  -21.6844   -6.0730   22.5282 C   0  0  0  0  0  0
  -21.4007   -6.5636   23.8215 C   0  0  0  0  0  0
  -21.3659   -5.6789   24.9178 C   0  0  0  0  0  0
  -21.6045   -4.3052   24.7226 C   0  0  0  0  0  0
  -21.8819   -3.8143   23.4347 C   0  0  0  0  0  0
  -21.9189   -4.6960   22.3404 C   0  0  0  0  0  0
  -22.7787  -13.5210   21.1887 C   0  0  0  0  0  0
  -22.1660   -4.2148   21.0981 F   0  0  0  0  0  0
  -21.5633   -3.4535   25.7739 F   0  0  0  0  0  0
  -29.9591  -13.6069   20.3588 N   0  0  0  0  0  0
  -26.2845  -12.9344   20.3218 N   0  0  0  0  0  0
  -25.9267  -11.6505   20.5765 N   0  0  0  0  0  0
  -22.0427  -12.8210   22.0442 N   0  0  0  0  0  0
  -25.4091  -15.1880   20.4043 N   0  0  0  0  0  0
  -31.8966  -14.6930   20.1998 O   0  0  0  0  0  0
  -21.6630   -6.8867   21.4242 O   0  0  0  0  0  0
  -22.3483  -14.5516   20.6724 O   0  0  0  0  0  0
  -24.6307  -31.8551   23.1982 C   0  0  0  0  0  0
  -25.9134  -32.4752   23.8331 C   0  0  1  0  0  0
  -27.2200  -27.2725   20.1340 C   0  0  0  0  0  0
  -25.5932  -33.8553   24.2256 N   0  0  0  0  0  0
  -23.4282  -30.4765   21.5410 C   0  0  2  0  0  0
  -24.8781  -28.9207   20.1135 C   0  0  0  0  0  0
  -22.7504  -29.4599   22.4913 C   0  0  0  0  0  0
  -18.0292  -28.1387   22.8484 C   0  0  0  0  0  0
  -24.1491  -36.7284   23.2640 C   0  0  0  0  0  0
  -25.9731  -30.7710   21.3774 C   0  0  0  0  0  0
  -26.0488  -29.3922   20.7239 C   0  0  0  0  0  0
  -27.2274  -28.5789   20.7258 C   0  0  0  0  0  0
  -26.0324  -26.8604   19.5011 C   0  0  0  0  0  0
  -24.8732  -27.6613   19.4917 C   0  0  0  0  0  0
  -23.6481  -29.8074   20.1583 C   0  0  0  0  0  0
  -25.4116  -36.3067   24.0327 C   0  0  1  0  0  0
  -20.5896  -28.3698   23.1269 C   0  0  2  0  0  0
  -20.6780  -26.9415   22.5410 C   0  0  0  0  0  0
  -19.5757  -26.6384   21.5212 C   0  0  0  0  0  0
  -18.1936  -26.7930   22.1622 C   0  0  0  0  0  0
  -19.1546  -28.8859   23.2871 C   0  0  0  0  0  0
  -18.9467  -30.1460   23.8888 C   0  0  0  0  0  0
  -17.6465  -30.6587   24.0561 C   0  0  0  0  0  0
  -25.9057  -34.9436   23.5093 C   0  0  0  0  0  0
  -16.5356  -29.9085   23.6331 C   0  0  0  0  0  0
  -16.7279  -28.6503   23.0351 C   0  0  0  0  0  0
  -26.4504  -31.6572   25.0718 C   0  0  0  0  0  0
  -25.3727  -31.3725   26.1439 C   0  0  0  0  0  0
  -27.0348  -30.2983   24.6203 C   0  0  0  0  0  0
  -27.6055  -32.4314   25.7493 C   0  0  0  0  0  0
  -27.5580  -37.1795   24.8463 C   0  0  0  0  0  0
  -21.4211  -29.3043   22.3657 N   0  0  0  0  0  0
  -26.4289  -37.3767   23.9410 N   0  0  0  0  0  0
  -24.6962  -31.0523   22.0954 N   0  0  0  0  0  0
  -23.4203  -28.8141   23.3015 O   0  0  0  0  0  0
  -28.2823  -26.3469   20.1408 O   0  0  0  0  0  0
  -26.5629  -34.8911   22.4663 O   0  0  0  0  0  0
  -23.5457  -32.1369   23.7279 O   0  0  0  0  0  0
  -29.4811  -21.6337   20.0648 C   0  0  0  0  0  0
  -28.8671  -20.7138   20.9660 C   0  0  0  0  0  0
  -29.2445  -23.0538   20.0672 C   0  0  0  0  0  0
  -27.9190  -21.3203   21.8706 C   0  0  0  0  0  0
  -27.6806  -22.7654   21.8812 C   0  0  0  0  0  0
  -28.3476  -23.6837   20.9822 C   0  0  0  0  0  0
  -28.3650  -18.0207   20.5363 C   0  0  0  0  0  0
  -30.6531  -18.7093   20.4304 C   0  0  0  0  0  0
  -28.7718  -16.5383   20.9612 C   0  0  0  0  0  0
  -31.1122  -17.2409   20.8180 C   0  0  0  0  0  0
  -29.3116  -19.1554   21.0565 C   0  0  0  0  0  0
  -30.0229  -23.9154   19.0898 C   0  0  0  0  0  0
  -27.3641  -24.0760   24.1017 C   0  0  0  0  0  0
  -27.0630  -19.2935   25.1810 C   0  0  0  0  0  0
  -29.0080  -20.7770   24.6203 C   0  0  0  0  0  0
  -26.6959  -23.3805   22.8971 C   0  0  0  0  0  0
  -28.2299  -25.2893   21.1883 C   0  0  0  0  0  0
  -27.1639  -20.3798   22.8525 C   0  0  1  0  0  0
  -27.5066  -20.5260   24.3679 C   0  0  0  0  0  0
  -30.1616  -16.0767   20.6628 N   0  0  0  0  0  0
  -25.7208  -20.3337   22.5605 N   0  3  0  0  0  0
  -31.4462  -12.5844   19.1572 H   0  0  0  0  0  0
  -30.3459  -11.5392   19.9984 H   0  0  0  0  0  0
  -29.7952  -11.7072   17.5398 H   0  0  0  0  0  0
  -29.5963  -13.4370   17.6940 H   0  0  0  0  0  0
  -27.9189  -11.2473   18.9625 H   0  0  0  0  0  0
  -27.3624  -12.4312   17.8089 H   0  0  0  0  0  0
  -27.5830  -14.2036   19.3649 H   0  0  0  0  0  0
  -28.7390  -12.2659   21.4495 H   0  0  0  0  0  0
  -28.3943  -13.9452   21.7490 H   0  0  0  0  0  0
  -25.2744   -9.5671   22.4779 H   0  0  0  0  0  0
  -23.9995   -7.4608   22.7468 H   0  0  0  0  0  0
  -21.0835   -8.8749   19.8951 H   0  0  0  0  0  0
  -22.3678  -10.9660   19.6181 H   0  0  0  0  0  0
  -21.1996   -7.6144   23.9717 H   0  0  0  0  0  0
  -21.1484   -6.0520   25.9082 H   0  0  0  0  0  0
  -22.0600   -2.7606   23.2843 H   0  0  0  0  0  0
  -22.4033  -11.9869   22.4832 H   0  0  0  0  0  0
  -21.1044  -13.1237   22.2642 H   0  0  0  0  0  0
  -24.6299  -15.8301   20.4946 H   0  0  0  0  0  0
  -26.2424  -15.6242   20.0339 H   0  0  0  0  0  0
  -26.7203  -32.5410   23.1077 H   0  0  0  0  0  0
  -25.0069  -33.9690   25.0394 H   0  0  0  0  0  0
  -22.7245  -31.2984   21.3928 H   0  0  0  0  0  0
  -23.3753  -35.9617   23.3296 H   0  0  0  0  0  0
  -24.3582  -36.8914   22.2056 H   0  0  0  0  0  0
  -23.7244  -37.6483   23.6669 H   0  0  0  0  0  0
  -26.1095  -31.5303   20.6061 H   0  0  0  0  0  0
  -26.8512  -30.8225   22.0095 H   0  0  0  0  0  0
  -28.1253  -28.9331   21.2124 H   0  0  0  0  0  0
  -25.9962  -25.8868   19.0325 H   0  0  0  0  0  0
  -23.9765  -27.2934   19.0124 H   0  0  0  0  0  0
  -23.7727  -30.5819   19.4007 H   0  0  0  0  0  0
  -22.7672  -29.2398   19.8534 H   0  0  0  0  0  0
  -25.1298  -36.1912   25.0820 H   0  0  0  0  0  0
  -20.9989  -28.3278   24.1390 H   0  0  0  0  0  0
  -20.5675  -26.2310   23.3617 H   0  0  0  0  0  0
  -21.6648  -26.7438   22.1205 H   0  0  0  0  0  0
  -19.6918  -25.6293   21.1247 H   0  0  0  0  0  0
  -19.6695  -27.3190   20.6739 H   0  0  0  0  0  0
  -17.4207  -26.6676   21.4023 H   0  0  0  0  0  0
  -18.0336  -26.0072   22.9019 H   0  0  0  0  0  0
  -19.7943  -30.7278   24.2253 H   0  0  0  0  0  0
  -17.5020  -31.6265   24.5164 H   0  0  0  0  0  0
  -15.5356  -30.2982   23.7660 H   0  0  0  0  0  0
  -15.8680  -28.0820   22.7067 H   0  0  0  0  0  0
  -24.5899  -30.7079   25.7766 H   0  0  0  0  0  0
  -24.8924  -32.2895   26.4861 H   0  0  0  0  0  0
  -25.8043  -30.8901   27.0218 H   0  0  0  0  0  0
  -26.2931  -29.6729   24.1221 H   0  0  0  0  0  0
  -27.4021  -29.7248   25.4724 H   0  0  0  0  0  0
  -27.8814  -30.4253   23.9451 H   0  0  0  0  0  0
  -27.2659  -33.3617   26.2060 H   0  0  0  0  0  0
  -28.3872  -32.6872   25.0326 H   0  0  0  0  0  0
  -28.0717  -31.8447   26.5418 H   0  0  0  0  0  0
  -28.2590  -38.0100   24.7513 H   0  0  0  0  0  0
  -28.1082  -36.2629   24.6280 H   0  0  0  0  0  0
  -27.2300  -37.1435   25.8867 H   0  0  0  0  0  0
  -20.9399  -29.8765   21.6859 H   0  0  0  0  0  0
  -26.0166  -38.2841   24.1411 H   0  0  0  0  0  0
  -30.2054  -21.2416   19.3645 H   0  0  0  0  0  0
  -27.3397  -18.1900   20.8587 H   0  0  0  0  0  0
  -28.3144  -18.0767   19.4477 H   0  0  0  0  0  0
  -30.5994  -18.7981   19.3443 H   0  0  0  0  0  0
  -31.4350  -19.4029   20.7428 H   0  0  0  0  0  0
  -28.0627  -15.8759   20.4893 H   0  0  0  0  0  0
  -28.6169  -16.4245   22.0349 H   0  0  0  0  0  0
  -31.4158  -17.2470   21.8657 H   0  0  0  0  0  0
  -32.0321  -17.0677   20.2583 H   0  0  0  0  0  0
  -29.4681  -18.9858   22.1214 H   0  0  0  0  0  0
  -30.7018  -23.3216   18.4771 H   0  0  0  0  0  0
  -30.6185  -24.6569   19.6230 H   0  0  0  0  0  0
  -29.3413  -24.4408   18.4202 H   0  0  0  0  0  0
  -26.6055  -24.4785   24.7737 H   0  0  0  0  0  0
  -28.0081  -24.9057   23.8215 H   0  0  0  0  0  0
  -27.9776  -23.3940   24.6851 H   0  0  0  0  0  0
  -27.2974  -19.4188   26.2387 H   0  0  0  0  0  0
  -27.5640  -18.3850   24.8431 H   0  0  0  0  0  0
  -25.9880  -19.1257   25.1147 H   0  0  0  0  0  0
  -29.2048  -20.9317   25.6816 H   0  0  0  0  0  0
  -29.3769  -21.6599   24.0984 H   0  0  0  0  0  0
  -29.6146  -19.9311   24.2968 H   0  0  0  0  0  0
  -25.9860  -22.6671   23.2922 H   0  0  0  0  0  0
  -26.0287  -24.0695   22.3798 H   0  0  0  0  0  0
  -29.0620  -25.5340   21.8485 H   0  0  0  0  0  0
  -27.3512  -25.5328   21.7745 H   0  0  0  0  0  0
  -27.4448  -19.3577   22.6460 H   0  0  0  0  0  0
  -26.9704  -21.3765   24.7816 H   0  0  0  0  0  0
  -25.2794  -21.2052   22.7879 H   0  0  0  0  0  0
  -25.2732  -19.5994   23.0789 H   0  0  0  0  0  0
  -25.5822  -20.1574   21.5812 H   0  0  0  0  0  0
  1 25  1  0  0  0
  1 30  2  0  0  0
  1 90  1  0  0  0
  2  3  1  0  0  0
  2 25  1  0  0  0
  2 92  1  0  0  0
  2 93  1  0  0  0
  3  4  1  0  0  0
  3 94  1  0  0  0
  3 95  1  0  0  0
  4  5  1  0  0  0
  4 96  1  0  0  0
  4 97  1  0  0  0
  5  6  1  0  0  0
  5 26  1  0  0  0
  5 98  1  0  0  0
  6 25  1  0  0  0
  6 99  1  0  0  0
  6100  1  0  0  0
  7  8  2  0  0  0
  7 26  1  0  0  0
  7 29  1  0  0  0
  8  9  1  0  0  0
  8 22  1  0  0  0
  9 10  1  0  0  0
  9 27  2  0  0  0
 10 11  2  0  0  0
 10 15  1  0  0  0
 11 12  1  0  0  0
 11101  1  0  0  0
 12 13  2  0  0  0
 12102  1  0  0  0
 13 14  1  0  0  0
 13 31  1  0  0  0
 14 15  2  0  0  0
 14103  1  0  0  0
 15104  1  0  0  0
 16 17  2  0  0  0
 16 21  1  0  0  0
 16 31  1  0  0  0
 17 18  1  0  0  0
 17105  1  0  0  0
 18 19  2  0  0  0
 18106  1  0  0  0
 19 20  1  0  0  0
 19 24  1  0  0  0
 20 21  2  0  0  0
 20107  1  0  0  0
 21 23  1  0  0  0
 22 28  1  0  0  0
 22 32  2  0  0  0
 26 27  1  0  0  0
 28108  1  0  0  0
 28109  1  0  0  0
 29110  1  0  0  0
 29111  1  0  0  0
 33 34  1  0  0  0
 33 66  1  0  0  0
 33 70  2  0  0  0
 34 36  1  0  0  0
 34 59  1  0  0  0
 34112  1  0  0  0
 35 44  2  0  0  0
 35 45  1  0  0  0
 35 68  1  0  0  0
 36 56  1  0  0  0
 36113  1  0  0  0
 37 39  1  0  0  0
 37 47  1  0  0  0
 37 66  1  0  0  0
 37114  1  0  0  0
 38 43  2  0  0  0
 38 46  1  0  0  0
 38 47  1  0  0  0
 39 64  1  0  0  0
 39 67  2  0  0  0
 40 52  1  0  0  0
 40 53  2  0  0  0
 40 58  1  0  0  0
 41115  1  0  0  0
 41116  1  0  0  0
 41117  1  0  0  0
 41 48  1  0  0  0
 42 43  1  0  0  0
 42 66  1  0  0  0
 42118  1  0  0  0
 42119  1  0  0  0
 43 44  1  0  0  0
 44120  1  0  0  0
 45 46  2  0  0  0
 45121  1  0  0  0
 46122  1  0  0  0
 47123  1  0  0  0
 47124  1  0  0  0
 48 56  1  0  0  0
 48 65  1  0  0  0
 48125  1  0  0  0
 49 50  1  0  0  0
 49 53  1  0  0  0
 49 64  1  0  0  0
 49126  1  0  0  0
 50 51  1  0  0  0
 50127  1  0  0  0
 50128  1  0  0  0
 51 52  1  0  0  0
 51129  1  0  0  0
 51130  1  0  0  0
 52131  1  0  0  0
 52132  1  0  0  0
 53 54  1  0  0  0
 54 55  2  0  0  0
 54133  1  0  0  0
 55 57  1  0  0  0
 55134  1  0  0  0
 56 69  2  0  0  0
 57 58  2  0  0  0
 57135  1  0  0  0
 58136  1  0  0  0
 59 60  1  0  0  0
 59 61  1  0  0  0
 59 62  1  0  0  0
 60137  1  0  0  0
 60138  1  0  0  0
 60139  1  0  0  0
 61140  1  0  0  0
 61141  1  0  0  0
 61142  1  0  0  0
 62143  1  0  0  0
 62144  1  0  0  0
 62145  1  0  0  0
 63 65  1  0  0  0
 63146  1  0  0  0
 63147  1  0  0  0
 63148  1  0  0  0
 64149  1  0  0  0
 65150  1  0  0  0
 68 87  1  0  0  0
 71 72  2  0  0  0
 71 73  1  0  0  0
 71151  1  0  0  0
 72 74  1  0  0  0
 72 81  1  0  0  0
 73 76  2  0  0  0
 73 82  1  0  0  0
 74 75  2  0  0  0
 74 88  1  0  0  0
 75 76  1  0  0  0
 75 86  1  0  0  0
 76 87  1  0  0  0
 77 79  1  0  0  0
 77 81  1  0  0  0
 77152  1  0  0  0
 77153  1  0  0  0
 78 80  1  0  0  0
 78 81  1  0  0  0
 78154  1  0  0  0
 78155  1  0  0  0
 79 90  1  0  0  0
 79156  1  0  0  0
 79157  1  0  0  0
 80 90  1  0  0  0
 80158  1  0  0  0
 80159  1  0  0  0
 81160  1  0  0  0
 82161  1  0  0  0
 82162  1  0  0  0
 82163  1  0  0  0
 83 86  1  0  0  0
 83164  1  0  0  0
 83165  1  0  0  0
 83166  1  0  0  0
 84167  1  0  0  0
 84168  1  0  0  0
 84169  1  0  0  0
 84 89  1  0  0  0
 85 89  1  0  0  0
 85170  1  0  0  0
 85171  1  0  0  0
 85172  1  0  0  0
 86173  1  0  0  0
 86174  1  0  0  0
 87175  1  0  0  0
 87176  1  0  0  0
 88 89  1  0  0  0
 88 91  1  0  0  0
 88177  1  0  0  0
 89178  1  0  0  0
 91179  1  0  0  0
 91180  1  0  0  0
 91181  1  0  0  0
M  CHG  1  91   1
M  ISO  4   1 100  68 101  87 101  90 100
M  END
> <chiral flag>
0

> <version>
0

> <s_m_source_file>
/data/baiqing/PycharmProjects/Reinvent-master-3.2/result/LINK_invent/BTK/process_docking_weight1_custom_sum_contain_oxygen_bond_distance_aromatic_linkinvent_7_9_3/rearranged_h_0148.sdf

> <i_m_source_file_index>
84

> <r_mmod_Potential_Energy-OPLS-2005>
264.602966308594

> <r_mmod_Stretch_Energy-OPLS-2005>
147.921127319336

> <r_mmod_Bend_Energy-OPLS-2005>
242.702941894531

> <r_mmod_Torsional_Energy-OPLS-2005>
340.401184082031

> <r_mmod_Improper_Torsional_Energy-OPLS-2005>
6.22848272323608

> <r_mmod_Van_der_Waal_Energy-OPLS-2005>
165.893524169922

> <r_mmod_Electrostatic_Energy-OPLS-2005>
-270.051910400391

> <r_mmod_Solvation_Energy-OPLS-2005>
-468.167572021484

> <b_mmod_Minimization_Converged-OPLS-2005>
0

> <r_mmod_RMS_Derivative-OPLS-2005>
0.398499846458435

$$$$
84
                    3D
 Structure written by MMmdl.
158167  0  0  1  0            999 V2000
  -30.5708  -14.8824   20.4882 C   0  0  0  0  0  0
  -30.4393  -12.5614   19.4805 C   0  0  0  0  0  0
  -29.5142  -12.5491   18.2410 C   0  0  0  0  0  0
  -28.0407  -12.3423   18.6475 C   0  0  0  0  0  0
  -27.6298  -13.2407   19.8453 C   0  0  2  0  0  0
  -28.6772  -13.1722   20.9763 C   0  0  0  0  0  0
  -25.2358  -13.8146   20.5646 C   0  0  0  0  0  0
  -24.1694  -13.0381   20.9185 C   0  0  0  0  0  0
  -24.6334  -11.6878   20.8725 C   0  0  0  0  0  0
  -23.9048  -10.4246   21.0405 C   0  0  0  0  0  0
  -24.3595   -9.4165   21.9198 C   0  0  0  0  0  0
  -23.6264   -8.2203   22.0765 C   0  0  0  0  0  0
  -22.4245   -8.0250   21.3558 C   0  0  0  0  0  0
  -21.9878   -9.0226   20.4666 C   0  0  0  0  0  0
  -22.7212  -10.2096   20.3070 C   0  0  0  0  0  0
  -21.6829   -6.0722   22.5295 C   0  0  0  0  0  0
  -21.4024   -6.5637   23.8231 C   0  0  0  0  0  0
  -21.3657   -5.6790   24.9192 C   0  0  0  0  0  0
  -21.6018   -4.3050   24.7243 C   0  0  0  0  0  0
  -21.8815   -3.8141   23.4371 C   0  0  0  0  0  0
  -21.9185   -4.6952   22.3421 C   0  0  0  0  0  0
  -22.7704  -13.5159   21.1853 C   0  0  0  0  0  0
  -22.1637   -4.2146   21.0985 F   0  0  0  0  0  0
  -21.5612   -3.4526   25.7747 F   0  0  0  0  0  0
  -29.9534  -13.6321   20.4021 N   0  0  0  0  0  0
  -26.2847  -12.9417   20.3234 N   0  0  0  0  0  0
  -25.9266  -11.6549   20.5701 N   0  0  0  0  0  0
  -22.0343  -12.8201   22.0437 N   0  0  0  0  0  0
  -25.3855  -15.1877   20.3990 N   0  0  0  0  0  0
  -31.7561  -14.9395   20.1366 O   0  0  0  0  0  0
  -21.6597   -6.8864   21.4257 O   0  0  0  0  0  0
  -22.3394  -14.5473   20.6685 O   0  0  0  0  0  0
  -24.6416  -31.8468   23.1900 C   0  0  0  0  0  0
  -25.9215  -32.4695   23.8266 C   0  0  1  0  0  0
  -27.2115  -27.1626   20.1589 C   0  0  0  0  0  0
  -25.5975  -33.8499   24.2180 N   0  0  0  0  0  0
  -23.4436  -30.4711   21.5311 C   0  0  2  0  0  0
  -24.8969  -28.9149   20.0988 C   0  0  0  0  0  0
  -22.7552  -29.4565   22.4815 C   0  0  0  0  0  0
  -18.0303  -28.1394   22.8460 C   0  0  0  0  0  0
  -24.1496  -36.7262   23.2634 C   0  0  0  0  0  0
  -25.9985  -30.7325   21.3872 C   0  0  0  0  0  0
  -26.0705  -29.3485   20.7295 C   0  0  0  0  0  0
  -27.2297  -28.4887   20.7440 C   0  0  0  0  0  0
  -26.0199  -26.8457   19.4590 C   0  0  0  0  0  0
  -24.8869  -27.6795   19.4425 C   0  0  0  0  0  0
  -23.6717  -29.8099   20.1463 C   0  0  0  0  0  0
  -25.4124  -36.3016   24.0287 C   0  0  1  0  0  0
  -20.5918  -28.3722   23.1218 C   0  0  2  0  0  0
  -20.6781  -26.9431   22.5396 C   0  0  0  0  0  0
  -19.5756  -26.6386   21.5202 C   0  0  0  0  0  0
  -18.1941  -26.7932   22.1616 C   0  0  0  0  0  0
  -19.1563  -28.8872   23.2830 C   0  0  0  0  0  0
  -18.9487  -30.1466   23.8869 C   0  0  0  0  0  0
  -17.6488  -30.6593   24.0560 C   0  0  0  0  0  0
  -25.9069  -34.9388   23.5020 C   0  0  0  0  0  0
  -16.5372  -29.9094   23.6332 C   0  0  0  0  0  0
  -16.7289  -28.6509   23.0346 C   0  0  0  0  0  0
  -26.4549  -31.6551   25.0690 C   0  0  0  0  0  0
  -25.3749  -31.3769   26.1390 C   0  0  0  0  0  0
  -27.0391  -30.2924   24.6273 C   0  0  0  0  0  0
  -27.6049  -32.4325   25.7514 C   0  0  0  0  0  0
  -27.5549  -37.1805   24.8467 C   0  0  0  0  0  0
  -21.4247  -29.3068   22.3601 N   0  0  0  0  0  0
  -26.4283  -37.3725   23.9378 N   0  0  0  0  0  0
  -24.7133  -31.0375   22.0915 N   0  0  0  0  0  0
  -23.4211  -28.8094   23.2930 O   0  0  0  0  0  0
  -28.2303  -26.1499   20.2850 O   0  0  0  0  0  0
  -26.5656  -34.8885   22.4602 O   0  0  0  0  0  0
  -23.5546  -32.1341   23.7144 O   0  0  0  0  0  0
  -28.3575  -21.0145   21.5796 C   0  0  0  0  0  0
  -29.2945  -22.4771   19.4372 C   0  0  0  0  0  0
  -29.0466  -20.2291   20.5954 C   0  0  0  0  0  0
  -28.5297  -23.2494   20.3781 C   0  0  0  0  0  0
  -29.5539  -21.0455   19.5358 C   0  0  0  0  0  0
  -28.1104  -22.4384   21.4859 C   0  0  0  0  0  0
  -28.4408  -17.8458   21.7672 C   0  0  0  0  0  0
  -28.6622  -16.3184   21.5142 C   0  0  0  0  0  0
  -30.2400  -17.5463   20.2830 C   0  0  0  0  0  0
  -29.0298  -18.5863   20.5631 C   0  0  2  0  0  0
  -31.2943  -21.0406   17.9121 C   0  0  0  0  0  0
  -27.8308  -24.6863   20.0000 C   0  0  0  0  0  0
  -29.8482  -16.1011   20.6648 N   0  0  0  0  0  0
  -30.2356  -20.3568   18.5631 O   0  0  0  0  0  0
  -27.1612  -23.1584   22.7383 Cl  0  0  0  0  0  0
  -31.4690  -12.7217   19.1625 H   0  0  0  0  0  0
  -30.4424  -11.5914   19.9814 H   0  0  0  0  0  0
  -29.8277  -11.7787   17.5354 H   0  0  0  0  0  0
  -29.6134  -13.4999   17.7148 H   0  0  0  0  0  0
  -27.9104  -11.2906   18.9100 H   0  0  0  0  0  0
  -27.3889  -12.5243   17.7926 H   0  0  0  0  0  0
  -27.6144  -14.2592   19.4581 H   0  0  0  0  0  0
  -28.7585  -12.1441   21.3324 H   0  0  0  0  0  0
  -28.3705  -13.7431   21.8471 H   0  0  0  0  0  0
  -25.2733   -9.5613   22.4795 H   0  0  0  0  0  0
  -23.9947   -7.4579   22.7477 H   0  0  0  0  0  0
  -21.0804   -8.8759   19.8977 H   0  0  0  0  0  0
  -22.3677  -10.9639   19.6180 H   0  0  0  0  0  0
  -21.2042   -7.6148   23.9741 H   0  0  0  0  0  0
  -21.1465   -6.0515   25.9094 H   0  0  0  0  0  0
  -22.0597   -2.7606   23.2862 H   0  0  0  0  0  0
  -22.3923  -11.9903   22.4916 H   0  0  0  0  0  0
  -21.0991  -13.1304   22.2661 H   0  0  0  0  0  0
  -24.6055  -15.8247   20.5157 H   0  0  0  0  0  0
  -26.2191  -15.6411   20.0492 H   0  0  0  0  0  0
  -26.7280  -32.5326   23.0997 H   0  0  0  0  0  0
  -25.0134  -33.9620   25.0327 H   0  0  0  0  0  0
  -22.7426  -31.2958   21.3818 H   0  0  0  0  0  0
  -23.3712  -35.9649   23.3353 H   0  0  0  0  0  0
  -24.3570  -36.8844   22.2041 H   0  0  0  0  0  0
  -23.7320  -37.6492   23.6657 H   0  0  0  0  0  0
  -26.1552  -31.4890   20.6166 H   0  0  0  0  0  0
  -26.8688  -30.7822   22.0299 H   0  0  0  0  0  0
  -28.1156  -28.8135   21.2710 H   0  0  0  0  0  0
  -25.9115  -25.9108   18.9299 H   0  0  0  0  0  0
  -23.9991  -27.3532   18.9159 H   0  0  0  0  0  0
  -23.8029  -30.5891   19.3943 H   0  0  0  0  0  0
  -22.7904  -29.2489   19.8314 H   0  0  0  0  0  0
  -25.1334  -36.1827   25.0779 H   0  0  0  0  0  0
  -21.0021  -28.3325   24.1328 H   0  0  0  0  0  0
  -20.5642  -26.2350   23.3622 H   0  0  0  0  0  0
  -21.6643  -26.7401   22.1217 H   0  0  0  0  0  0
  -19.6899  -25.6289   21.1251 H   0  0  0  0  0  0
  -19.6677  -27.3173   20.6719 H   0  0  0  0  0  0
  -17.4199  -26.6656   21.4042 H   0  0  0  0  0  0
  -18.0340  -26.0095   22.9034 H   0  0  0  0  0  0
  -19.7961  -30.7282   24.2233 H   0  0  0  0  0  0
  -17.5041  -31.6273   24.5172 H   0  0  0  0  0  0
  -15.5363  -30.2993   23.7668 H   0  0  0  0  0  0
  -15.8684  -28.0830   22.7063 H   0  0  0  0  0  0
  -24.5939  -30.7080   25.7757 H   0  0  0  0  0  0
  -24.8933  -32.2970   26.4711 H   0  0  0  0  0  0
  -25.8055  -30.9048   27.0226 H   0  0  0  0  0  0
  -26.2990  -29.6659   24.1270 H   0  0  0  0  0  0
  -27.3978  -29.7209   25.4846 H   0  0  0  0  0  0
  -27.8927  -30.4117   23.9593 H   0  0  0  0  0  0
  -27.2586  -33.3628   26.2030 H   0  0  0  0  0  0
  -28.3923  -32.6876   25.0412 H   0  0  0  0  0  0
  -28.0641  -31.8493   26.5505 H   0  0  0  0  0  0
  -28.2607  -38.0056   24.7412 H   0  0  0  0  0  0
  -28.1004  -36.2573   24.6434 H   0  0  0  0  0  0
  -27.2258  -37.1625   25.8872 H   0  0  0  0  0  0
  -20.9444  -29.8830   21.6837 H   0  0  0  0  0  0
  -26.0134  -38.2792   24.1346 H   0  0  0  0  0  0
  -27.9227  -20.4980   22.4229 H   0  0  0  0  0  0
  -29.6015  -22.9897   18.5399 H   0  0  0  0  0  0
  -28.9710  -18.1409   22.6735 H   0  0  0  0  0  0
  -27.3828  -18.0624   21.9204 H   0  0  0  0  0  0
  -27.7970  -15.9295   20.9921 H   0  0  0  0  0  0
  -28.7385  -15.7888   22.4633 H   0  0  0  0  0  0
  -31.1030  -17.8278   20.8863 H   0  0  0  0  0  0
  -30.5623  -17.5972   19.2406 H   0  0  0  0  0  0
  -28.3300  -18.4036   19.7465 H   0  0  0  0  0  0
  -31.9300  -21.5697   18.6228 H   0  0  0  0  0  0
  -30.9272  -21.7440   17.1654 H   0  0  0  0  0  0
  -31.9141  -20.3075   17.3970 H   0  0  0  0  0  0
  -26.8216  -24.5682   20.3935 H   0  0  0  0  0  0
  -27.7222  -24.6384   18.9180 H   0  0  0  0  0  0
  1 25  1  0  0  0
  1 30  2  0  0  0
  1 83  1  0  0  0
  2  3  1  0  0  0
  2 25  1  0  0  0
  2 86  1  0  0  0
  2 87  1  0  0  0
  3  4  1  0  0  0
  3 88  1  0  0  0
  3 89  1  0  0  0
  4  5  1  0  0  0
  4 90  1  0  0  0
  4 91  1  0  0  0
  5  6  1  0  0  0
  5 26  1  0  0  0
  5 92  1  0  0  0
  6 25  1  0  0  0
  6 93  1  0  0  0
  6 94  1  0  0  0
  7  8  2  0  0  0
  7 26  1  0  0  0
  7 29  1  0  0  0
  8  9  1  0  0  0
  8 22  1  0  0  0
  9 10  1  0  0  0
  9 27  2  0  0  0
 10 11  2  0  0  0
 10 15  1  0  0  0
 11 12  1  0  0  0
 11 95  1  0  0  0
 12 13  2  0  0  0
 12 96  1  0  0  0
 13 14  1  0  0  0
 13 31  1  0  0  0
 14 15  2  0  0  0
 14 97  1  0  0  0
 15 98  1  0  0  0
 16 17  2  0  0  0
 16 21  1  0  0  0
 16 31  1  0  0  0
 17 18  1  0  0  0
 17 99  1  0  0  0
 18 19  2  0  0  0
 18100  1  0  0  0
 19 20  1  0  0  0
 19 24  1  0  0  0
 20 21  2  0  0  0
 20101  1  0  0  0
 21 23  1  0  0  0
 22 28  1  0  0  0
 22 32  2  0  0  0
 26 27  1  0  0  0
 28102  1  0  0  0
 28103  1  0  0  0
 29104  1  0  0  0
 29105  1  0  0  0
 33 34  1  0  0  0
 33 66  1  0  0  0
 33 70  2  0  0  0
 34 36  1  0  0  0
 34 59  1  0  0  0
 34106  1  0  0  0
 35 44  2  0  0  0
 35 45  1  0  0  0
 35 68  1  0  0  0
 36 56  1  0  0  0
 36107  1  0  0  0
 37 39  1  0  0  0
 37 47  1  0  0  0
 37 66  1  0  0  0
 37108  1  0  0  0
 38 43  2  0  0  0
 38 46  1  0  0  0
 38 47  1  0  0  0
 39 64  1  0  0  0
 39 67  2  0  0  0
 40 52  1  0  0  0
 40 53  2  0  0  0
 40 58  1  0  0  0
 41109  1  0  0  0
 41110  1  0  0  0
 41111  1  0  0  0
 41 48  1  0  0  0
 42 43  1  0  0  0
 42 66  1  0  0  0
 42112  1  0  0  0
 42113  1  0  0  0
 43 44  1  0  0  0
 44114  1  0  0  0
 45 46  2  0  0  0
 45115  1  0  0  0
 46116  1  0  0  0
 47117  1  0  0  0
 47118  1  0  0  0
 48 56  1  0  0  0
 48 65  1  0  0  0
 48119  1  0  0  0
 49 50  1  0  0  0
 49 53  1  0  0  0
 49 64  1  0  0  0
 49120  1  0  0  0
 50 51  1  0  0  0
 50121  1  0  0  0
 50122  1  0  0  0
 51 52  1  0  0  0
 51123  1  0  0  0
 51124  1  0  0  0
 52125  1  0  0  0
 52126  1  0  0  0
 53 54  1  0  0  0
 54 55  2  0  0  0
 54127  1  0  0  0
 55 57  1  0  0  0
 55128  1  0  0  0
 56 69  2  0  0  0
 57 58  2  0  0  0
 57129  1  0  0  0
 58130  1  0  0  0
 59 60  1  0  0  0
 59 61  1  0  0  0
 59 62  1  0  0  0
 60131  1  0  0  0
 60132  1  0  0  0
 60133  1  0  0  0
 61134  1  0  0  0
 61135  1  0  0  0
 61136  1  0  0  0
 62137  1  0  0  0
 62138  1  0  0  0
 62139  1  0  0  0
 63 65  1  0  0  0
 63140  1  0  0  0
 63141  1  0  0  0
 63142  1  0  0  0
 64143  1  0  0  0
 65144  1  0  0  0
 68 82  1  0  0  0
 71 73  2  0  0  0
 71 76  1  0  0  0
 71145  1  0  0  0
 72 74  1  0  0  0
 72 75  2  0  0  0
 72146  1  0  0  0
 73 75  1  0  0  0
 73 80  1  0  0  0
 74 76  2  0  0  0
 74 82  1  0  0  0
 75 84  1  0  0  0
 76 85  1  0  0  0
 77 78  1  0  0  0
 77 80  1  0  0  0
 77147  1  0  0  0
 77148  1  0  0  0
 78 83  1  0  0  0
 78149  1  0  0  0
 78150  1  0  0  0
 79 80  1  0  0  0
 79 83  1  0  0  0
 79151  1  0  0  0
 79152  1  0  0  0
 80153  1  0  0  0
 81 84  1  0  0  0
 81154  1  0  0  0
 81155  1  0  0  0
 81156  1  0  0  0
 82157  1  0  0  0
 82158  1  0  0  0
M  ISO  4   1 100  68 101  82 101  83 100
M  END
> <chiral flag>
0

> <version>
0

> <s_m_source_file>
/data/baiqing/PycharmProjects/Reinvent-master-3.2/result/LINK_invent/BTK/process_docking_weight1_custom_sum_contain_oxygen_bond_distance_aromatic_linkinvent_7_9_3/rearranged_h_0148.sdf

> <i_m_source_file_index>
85

> <r_mmod_Potential_Energy-OPLS-2005>
627.913208007812

> <r_mmod_Stretch_Energy-OPLS-2005>
194.997360229492

> <r_mmod_Bend_Energy-OPLS-2005>
286.77783203125

> <r_mmod_Torsional_Energy-OPLS-2005>
338.338836669922

> <r_mmod_Improper_Torsional_Energy-OPLS-2005>
13.623345375061

> <r_mmod_Van_der_Waal_Energy-OPLS-2005>
142.3173828125

> <r_mmod_Electrostatic_Energy-OPLS-2005>
-301.219421386719

> <r_mmod_Solvation_Energy-OPLS-2005>
-207.977966308594

> <b_mmod_Minimization_Converged-OPLS-2005>
0

> <r_mmod_RMS_Derivative-OPLS-2005>
4.08284521102905

$$$$
85
                    3D
 Structure written by MMmdl.
186196  0  0  1  0            999 V2000
  -30.8141  -14.4683   20.4421 C   0  0  0  0  0  0
  -30.3914  -12.2842   19.4276 C   0  0  0  0  0  0
  -29.4640  -12.4270   18.2094 C   0  0  0  0  0  0
  -27.9891  -12.2918   18.6333 C   0  0  0  0  0  0
  -27.6202  -13.1692   19.8528 C   0  0  2  0  0  0
  -28.6993  -13.1227   20.9675 C   0  0  0  0  0  0
  -25.2528  -13.8027   20.5839 C   0  0  0  0  0  0
  -24.1768  -13.0364   20.9317 C   0  0  0  0  0  0
  -24.6290  -11.6819   20.8865 C   0  0  0  0  0  0
  -23.8977  -10.4273   21.0473 C   0  0  0  0  0  0
  -24.3574   -9.4192   21.9213 C   0  0  0  0  0  0
  -23.6282   -8.2208   22.0750 C   0  0  0  0  0  0
  -22.4269   -8.0265   21.3530 C   0  0  0  0  0  0
  -21.9885   -9.0248   20.4635 C   0  0  0  0  0  0
  -22.7201  -10.2138   20.3086 C   0  0  0  0  0  0
  -21.6863   -6.0730   22.5275 C   0  0  0  0  0  0
  -21.4030   -6.5629   23.8211 C   0  0  0  0  0  0
  -21.3639   -5.6770   24.9158 C   0  0  0  0  0  0
  -21.6024   -4.3044   24.7204 C   0  0  0  0  0  0
  -21.8836   -3.8154   23.4323 C   0  0  0  0  0  0
  -21.9217   -4.6971   22.3382 C   0  0  0  0  0  0
  -22.7805  -13.5189   21.1922 C   0  0  0  0  0  0
  -22.1683   -4.2158   21.0963 F   0  0  0  0  0  0
  -21.5648   -3.4540   25.7726 F   0  0  0  0  0  0
  -30.0228  -13.3603   20.3604 N   0  0  0  0  0  0
  -26.2858  -12.9080   20.3467 N   0  0  0  0  0  0
  -25.9198  -11.6292   20.5915 N   0  0  0  0  0  0
  -22.0394  -12.8248   22.0451 N   0  0  0  0  0  0
  -25.4324  -15.1779   20.4284 N   0  0  0  0  0  0
  -32.0252  -14.4031   20.2417 O   0  0  0  0  0  0
  -21.6604   -6.8880   21.4243 O   0  0  0  0  0  0
  -22.3513  -14.5496   20.6750 O   0  0  0  0  0  0
  -24.6095  -31.8701   23.2100 C   0  0  0  0  0  0
  -25.9014  -32.4830   23.8378 C   0  0  1  0  0  0
  -27.2273  -27.4696   20.1074 C   0  0  0  0  0  0
  -25.5892  -33.8625   24.2318 N   0  0  0  0  0  0
  -23.3950  -30.4955   21.5473 C   0  0  2  0  0  0
  -24.8449  -28.9654   20.1117 C   0  0  0  0  0  0
  -22.7361  -29.4700   22.4960 C   0  0  0  0  0  0
  -18.0274  -28.1370   22.8488 C   0  0  0  0  0  0
  -24.1495  -36.7317   23.2634 C   0  0  0  0  0  0
  -25.9193  -30.8500   21.3575 C   0  0  0  0  0  0
  -25.9990  -29.4865   20.7084 C   0  0  0  0  0  0
  -27.1975  -28.7442   20.7080 C   0  0  0  0  0  0
  -26.0656  -26.9548   19.4999 C   0  0  0  0  0  0
  -24.8696  -27.6966   19.5045 C   0  0  0  0  0  0
  -23.6027  -29.8250   20.1617 C   0  0  0  0  0  0
  -25.4112  -36.3101   24.0330 C   0  0  1  0  0  0
  -20.5863  -28.3671   23.1299 C   0  0  2  0  0  0
  -20.6780  -26.9402   22.5410 C   0  0  0  0  0  0
  -19.5772  -26.6388   21.5194 C   0  0  0  0  0  0
  -18.1942  -26.7915   22.1599 C   0  0  0  0  0  0
  -19.1523  -28.8831   23.2901 C   0  0  0  0  0  0
  -18.9454  -30.1442   23.8910 C   0  0  0  0  0  0
  -17.6456  -30.6579   24.0558 C   0  0  0  0  0  0
  -25.9035  -34.9475   23.5120 C   0  0  0  0  0  0
  -16.5346  -29.9082   23.6327 C   0  0  0  0  0  0
  -16.7262  -28.6499   23.0347 C   0  0  0  0  0  0
  -26.4469  -31.6590   25.0690 C   0  0  0  0  0  0
  -25.3754  -31.3706   26.1455 C   0  0  0  0  0  0
  -27.0291  -30.3021   24.6061 C   0  0  0  0  0  0
  -27.6045  -32.4304   25.7465 C   0  0  0  0  0  0
  -27.5578  -37.1808   24.8455 C   0  0  0  0  0  0
  -21.4105  -29.3030   22.3678 N   0  0  0  0  0  0
  -26.4292  -37.3785   23.9399 N   0  0  0  0  0  0
  -24.6587  -31.0860   22.0967 N   0  0  0  0  0  0
  -23.4160  -28.8227   23.2976 O   0  0  0  0  0  0
  -28.3639  -26.7079   20.1577 O   0  0  0  0  0  0
  -26.5593  -34.8919   22.4679 O   0  0  0  0  0  0
  -23.5311  -32.1424   23.7550 O   0  0  0  0  0  0
  -30.9423  -21.1164   20.0062 C   0  0  0  0  0  0
  -31.4033  -22.4463   19.8749 C   0  0  0  0  0  0
  -31.6258  -20.3034   19.1543 C   0  0  0  0  0  0
  -32.3835  -22.4305   18.9131 C   0  0  0  0  0  0
  -27.6584  -19.3356   18.2566 C   0  0  0  0  0  0
  -26.7922  -18.0990   18.3972 C   0  0  0  0  0  0
  -29.0549  -16.0780   19.7810 C   0  0  0  0  0  0
  -31.1003  -16.9076   20.6501 C   0  0  0  0  0  0
  -27.9761  -18.3059   19.3087 C   0  0  0  0  0  0
  -29.2345  -17.4659   19.1897 C   0  0  1  0  0  0
  -30.4526  -18.0788   19.8834 C   0  0  2  0  0  0
  -33.1803  -23.5665   18.3311 C   0  0  0  0  0  0
  -31.7999  -24.6303   21.1716 C   0  0  0  0  0  0
  -33.0053  -20.0438   16.2548 C   0  0  0  0  0  0
  -34.7184  -19.8460   18.1646 C   0  0  0  0  0  0
  -31.4204  -18.8318   18.9023 C   0  0  0  0  0  0
  -28.4067  -24.3097   20.4751 C   0  0  0  0  0  0
  -28.2842  -25.6783   21.1511 C   0  0  0  0  0  0
  -30.7974  -23.5816   20.6611 C   0  0  1  0  0  0
  -33.5957  -20.6769   17.5191 C   0  0  0  0  0  0
  -32.5702  -21.1051   18.4934 N   0  0  0  0  0  0
  -30.2560  -15.7051   20.5120 N   0  0  0  0  0  0
  -29.7262  -24.1519   19.8254 N   0  3  0  0  0  0
  -31.4317  -12.3295   19.1043 H   0  0  0  0  0  0
  -30.2730  -11.3094   19.9066 H   0  0  0  0  0  0
  -29.7018  -11.6670   17.4654 H   0  0  0  0  0  0
  -29.6269  -13.3911   17.7269 H   0  0  0  0  0  0
  -27.8107  -11.2445   18.8724 H   0  0  0  0  0  0
  -27.3347  -12.5157   17.7896 H   0  0  0  0  0  0
  -27.5228  -14.1537   19.4406 H   0  0  0  0  0  0
  -28.6912  -12.1529   21.4689 H   0  0  0  0  0  0
  -28.4866  -13.8647   21.7392 H   0  0  0  0  0  0
  -25.2732   -9.5698   22.4744 H   0  0  0  0  0  0
  -24.0036   -7.4612   22.7441 H   0  0  0  0  0  0
  -21.0835   -8.8788   19.8916 H   0  0  0  0  0  0
  -22.3700  -10.9705   19.6201 H   0  0  0  0  0  0
  -21.1976   -7.6136   23.9755 H   0  0  0  0  0  0
  -21.1462   -6.0451   25.9061 H   0  0  0  0  0  0
  -22.0634   -2.7616   23.2799 H   0  0  0  0  0  0
  -22.3954  -11.9913   22.4880 H   0  0  0  0  0  0
  -21.1023  -13.1344   22.2611 H   0  0  0  0  0  0
  -24.6915  -15.8506   20.5855 H   0  0  0  0  0  0
  -26.2989  -15.6150   20.1473 H   0  0  0  0  0  0
  -26.7085  -32.5561   23.1146 H   0  0  0  0  0  0
  -25.0056  -33.9787   25.0473 H   0  0  0  0  0  0
  -22.6822  -31.3111   21.4062 H   0  0  0  0  0  0
  -23.3739  -35.9670   23.3313 H   0  0  0  0  0  0
  -24.3582  -36.8916   22.2043 H   0  0  0  0  0  0
  -23.7272  -37.6537   23.6642 H   0  0  0  0  0  0
  -26.0289  -31.6195   20.5919 H   0  0  0  0  0  0
  -26.8062  -30.9021   21.9767 H   0  0  0  0  0  0
  -28.0825  -29.1348   21.1897 H   0  0  0  0  0  0
  -26.0816  -25.9774   19.0405 H   0  0  0  0  0  0
  -23.9810  -27.2861   19.0470 H   0  0  0  0  0  0
  -23.7025  -30.5968   19.3971 H   0  0  0  0  0  0
  -22.7302  -29.2377   19.8699 H   0  0  0  0  0  0
  -25.1298  -36.1956   25.0823 H   0  0  0  0  0  0
  -20.9981  -28.3259   24.1410 H   0  0  0  0  0  0
  -20.5687  -26.2269   23.3600 H   0  0  0  0  0  0
  -21.6651  -26.7460   22.1186 H   0  0  0  0  0  0
  -19.6936  -25.6307   21.1217 H   0  0  0  0  0  0
  -19.6717  -27.3209   20.6738 H   0  0  0  0  0  0
  -17.4207  -26.6667   21.3997 H   0  0  0  0  0  0
  -18.0351  -26.0047   22.8997 H   0  0  0  0  0  0
  -19.7942  -30.7256   24.2264 H   0  0  0  0  0  0
  -17.5025  -31.6259   24.5160 H   0  0  0  0  0  0
  -15.5359  -30.2985   23.7661 H   0  0  0  0  0  0
  -15.8664  -28.0828   22.7051 H   0  0  0  0  0  0
  -24.5909  -30.7070   25.7793 H   0  0  0  0  0  0
  -24.8988  -32.2886   26.4907 H   0  0  0  0  0  0
  -25.8132  -30.8861   27.0195 H   0  0  0  0  0  0
  -26.2824  -29.6781   24.1137 H   0  0  0  0  0  0
  -27.4064  -29.7256   25.4517 H   0  0  0  0  0  0
  -27.8659  -30.4306   23.9191 H   0  0  0  0  0  0
  -27.2638  -33.3577   26.2084 H   0  0  0  0  0  0
  -28.3852  -32.6905   25.0302 H   0  0  0  0  0  0
  -28.0715  -31.8399   26.5361 H   0  0  0  0  0  0
  -28.2598  -38.0101   24.7492 H   0  0  0  0  0  0
  -28.1073  -36.2633   24.6297 H   0  0  0  0  0  0
  -27.2290  -37.1467   25.8855 H   0  0  0  0  0  0
  -20.9243  -29.8707   21.6875 H   0  0  0  0  0  0
  -26.0181  -38.2865   24.1396 H   0  0  0  0  0  0
  -30.1420  -20.8113   20.6636 H   0  0  0  0  0  0
  -27.2731  -20.2907   18.6106 H   0  0  0  0  0  0
  -28.3014  -19.3914   17.3797 H   0  0  0  0  0  0
  -26.8779  -17.3002   17.6606 H   0  0  0  0  0  0
  -25.7951  -18.2486   18.8079 H   0  0  0  0  0  0
  -28.9292  -15.4290   18.9149 H   0  0  0  0  0  0
  -28.1966  -16.0266   20.4534 H   0  0  0  0  0  0
  -31.1857  -17.1415   21.7111 H   0  0  0  0  0  0
  -32.1189  -16.7483   20.2973 H   0  0  0  0  0  0
  -27.7168  -18.5590   20.3363 H   0  0  0  0  0  0
  -29.4469  -17.3239   18.1280 H   0  0  0  0  0  0
  -30.0804  -18.7470   20.6544 H   0  0  0  0  0  0
  -34.1801  -23.6065   18.7642 H   0  0  0  0  0  0
  -32.7038  -24.5283   18.4909 H   0  0  0  0  0  0
  -33.2695  -23.4955   17.2484 H   0  0  0  0  0  0
  -32.6626  -24.1398   21.6211 H   0  0  0  0  0  0
  -31.3529  -25.2588   21.9436 H   0  0  0  0  0  0
  -32.1555  -25.2954   20.3891 H   0  0  0  0  0  0
  -33.7595  -20.0025   15.4672 H   0  0  0  0  0  0
  -32.1676  -20.6326   15.8771 H   0  0  0  0  0  0
  -32.6584  -19.0268   16.4205 H   0  0  0  0  0  0
  -35.6118  -19.8692   17.5383 H   0  0  0  0  0  0
  -34.4538  -18.7988   18.3034 H   0  0  0  0  0  0
  -35.0080  -20.2567   19.1337 H   0  0  0  0  0  0
  -32.3918  -18.3483   18.8832 H   0  0  0  0  0  0
  -31.0396  -18.7306   17.8870 H   0  0  0  0  0  0
  -27.6293  -24.2075   19.7186 H   0  0  0  0  0  0
  -28.2252  -23.5027   21.1873 H   0  0  0  0  0  0
  -29.0707  -25.8310   21.8891 H   0  0  0  0  0  0
  -27.3466  -25.7100   21.7104 H   0  0  0  0  0  0
  -30.3625  -23.1054   21.5424 H   0  0  0  0  0  0
  -34.1097  -21.5612   17.1539 H   0  0  0  0  0  0
  -30.0227  -25.0196   19.4085 H   0  0  0  0  0  0
  -29.6158  -23.4909   19.0721 H   0  0  0  0  0  0
  1 25  1  0  0  0
  1 30  2  0  0  0
  1 92  1  0  0  0
  2  3  1  0  0  0
  2 25  1  0  0  0
  2 94  1  0  0  0
  2 95  1  0  0  0
  3  4  1  0  0  0
  3 96  1  0  0  0
  3 97  1  0  0  0
  4  5  1  0  0  0
  4 98  1  0  0  0
  4 99  1  0  0  0
  5  6  1  0  0  0
  5 26  1  0  0  0
  5100  1  0  0  0
  6 25  1  0  0  0
  6101  1  0  0  0
  6102  1  0  0  0
  7  8  2  0  0  0
  7 26  1  0  0  0
  7 29  1  0  0  0
  8  9  1  0  0  0
  8 22  1  0  0  0
  9 10  1  0  0  0
  9 27  2  0  0  0
 10 11  2  0  0  0
 10 15  1  0  0  0
 11 12  1  0  0  0
 11103  1  0  0  0
 12 13  2  0  0  0
 12104  1  0  0  0
 13 14  1  0  0  0
 13 31  1  0  0  0
 14 15  2  0  0  0
 14105  1  0  0  0
 15106  1  0  0  0
 16 17  2  0  0  0
 16 21  1  0  0  0
 16 31  1  0  0  0
 17 18  1  0  0  0
 17107  1  0  0  0
 18 19  2  0  0  0
 18108  1  0  0  0
 19 20  1  0  0  0
 19 24  1  0  0  0
 20 21  2  0  0  0
 20109  1  0  0  0
 21 23  1  0  0  0
 22 28  1  0  0  0
 22 32  2  0  0  0
 26 27  1  0  0  0
 28110  1  0  0  0
 28111  1  0  0  0
 29112  1  0  0  0
 29113  1  0  0  0
 33 34  1  0  0  0
 33 66  1  0  0  0
 33 70  2  0  0  0
 34 36  1  0  0  0
 34 59  1  0  0  0
 34114  1  0  0  0
 35 44  2  0  0  0
 35 45  1  0  0  0
 35 68  1  0  0  0
 36 56  1  0  0  0
 36115  1  0  0  0
 37 39  1  0  0  0
 37 47  1  0  0  0
 37 66  1  0  0  0
 37116  1  0  0  0
 38 43  2  0  0  0
 38 46  1  0  0  0
 38 47  1  0  0  0
 39 64  1  0  0  0
 39 67  2  0  0  0
 40 52  1  0  0  0
 40 53  2  0  0  0
 40 58  1  0  0  0
 41117  1  0  0  0
 41118  1  0  0  0
 41119  1  0  0  0
 41 48  1  0  0  0
 42 43  1  0  0  0
 42 66  1  0  0  0
 42120  1  0  0  0
 42121  1  0  0  0
 43 44  1  0  0  0
 44122  1  0  0  0
 45 46  2  0  0  0
 45123  1  0  0  0
 46124  1  0  0  0
 47125  1  0  0  0
 47126  1  0  0  0
 48 56  1  0  0  0
 48 65  1  0  0  0
 48127  1  0  0  0
 49 50  1  0  0  0
 49 53  1  0  0  0
 49 64  1  0  0  0
 49128  1  0  0  0
 50 51  1  0  0  0
 50129  1  0  0  0
 50130  1  0  0  0
 51 52  1  0  0  0
 51131  1  0  0  0
 51132  1  0  0  0
 52133  1  0  0  0
 52134  1  0  0  0
 53 54  1  0  0  0
 54 55  2  0  0  0
 54135  1  0  0  0
 55 57  1  0  0  0
 55136  1  0  0  0
 56 69  2  0  0  0
 57 58  2  0  0  0
 57137  1  0  0  0
 58138  1  0  0  0
 59 60  1  0  0  0
 59 61  1  0  0  0
 59 62  1  0  0  0
 60139  1  0  0  0
 60140  1  0  0  0
 60141  1  0  0  0
 61142  1  0  0  0
 61143  1  0  0  0
 61144  1  0  0  0
 62145  1  0  0  0
 62146  1  0  0  0
 62147  1  0  0  0
 63 65  1  0  0  0
 63148  1  0  0  0
 63149  1  0  0  0
 63150  1  0  0  0
 64151  1  0  0  0
 65152  1  0  0  0
 68 88  1  0  0  0
 71 72  1  0  0  0
 71 73  2  0  0  0
 71153  1  0  0  0
 72 74  2  0  0  0
 72 89  1  0  0  0
 73 86  1  0  0  0
 73 91  1  0  0  0
 74 82  1  0  0  0
 74 91  1  0  0  0
 75 76  1  0  0  0
 75154  1  0  0  0
 75155  1  0  0  0
 75 79  1  0  0  0
 76 79  1  0  0  0
 76156  1  0  0  0
 76157  1  0  0  0
 77 92  1  0  0  0
 77158  1  0  0  0
 77159  1  0  0  0
 77 80  1  0  0  0
 78 81  1  0  0  0
 78 92  1  0  0  0
 78160  1  0  0  0
 78161  1  0  0  0
 79 80  1  0  0  0
 79162  1  0  0  0
 80 81  1  0  0  0
 80163  1  0  0  0
 81 86  1  0  0  0
 81164  1  0  0  0
 82165  1  0  0  0
 82166  1  0  0  0
 82167  1  0  0  0
 83168  1  0  0  0
 83169  1  0  0  0
 83170  1  0  0  0
 83 89  1  0  0  0
 84171  1  0  0  0
 84172  1  0  0  0
 84173  1  0  0  0
 84 90  1  0  0  0
 85 90  1  0  0  0
 85174  1  0  0  0
 85175  1  0  0  0
 85176  1  0  0  0
 86177  1  0  0  0
 86178  1  0  0  0
 87 88  1  0  0  0
 87 93  1  0  0  0
 87179  1  0  0  0
 87180  1  0  0  0
 88181  1  0  0  0
 88182  1  0  0  0
 89 93  1  0  0  0
 89183  1  0  0  0
 90 91  1  0  0  0
 90184  1  0  0  0
 93185  1  0  0  0
 93186  1  0  0  0
M  CHG  1  93   1
M  ISO  4   1 100  68 101  88 101  92 100
M  END
> <chiral flag>
0

> <version>
0

> <s_m_source_file>
/data/baiqing/PycharmProjects/Reinvent-master-3.2/result/LINK_invent/BTK/process_docking_weight1_custom_sum_contain_oxygen_bond_distance_aromatic_linkinvent_7_9_3/rearranged_h_0148.sdf

> <i_m_source_file_index>
86

> <r_mmod_Potential_Energy-OPLS-2005>
149.089233398438

> <r_mmod_Stretch_Energy-OPLS-2005>
38.6675338745117

> <r_mmod_Bend_Energy-OPLS-2005>
143.4658203125

> <r_mmod_Torsional_Energy-OPLS-2005>
465.971130371094

> <r_mmod_Improper_Torsional_Energy-OPLS-2005>
7.72030401229858

> <r_mmod_Van_der_Waal_Energy-OPLS-2005>
146.838989257812

> <r_mmod_Electrostatic_Energy-OPLS-2005>
-300.334808349609

> <r_mmod_Solvation_Energy-OPLS-2005>
-394.262603759766

> <b_mmod_Minimization_Converged-OPLS-2005>
0

> <r_mmod_RMS_Derivative-OPLS-2005>
5.19521951675415

$$$$
86
                    3D
 Structure written by MMmdl.
176185  0  0  1  0            999 V2000
  -30.5665  -14.8564   20.4432 C   0  0  0  0  0  0
  -30.4393  -12.5275   19.4887 C   0  0  0  0  0  0
  -29.5176  -12.5237   18.2476 C   0  0  0  0  0  0
  -28.0459  -12.3289   18.6608 C   0  0  0  0  0  0
  -27.6370  -13.2404   19.8484 C   0  0  2  0  0  0
  -28.6813  -13.2160   20.9853 C   0  0  0  0  0  0
  -25.2493  -13.8203   20.5702 C   0  0  0  0  0  0
  -24.1793  -13.0438   20.9215 C   0  0  0  0  0  0
  -24.6395  -11.6919   20.8744 C   0  0  0  0  0  0
  -23.9071  -10.4293   21.0397 C   0  0  0  0  0  0
  -24.3619   -9.4212   21.9180 C   0  0  0  0  0  0
  -23.6294   -8.2248   22.0756 C   0  0  0  0  0  0
  -22.4280   -8.0277   21.3540 C   0  0  0  0  0  0
  -21.9913   -9.0248   20.4642 C   0  0  0  0  0  0
  -22.7240  -10.2130   20.3049 C   0  0  0  0  0  0
  -21.6859   -6.0733   22.5275 C   0  0  0  0  0  0
  -21.4015   -6.5637   23.8206 C   0  0  0  0  0  0
  -21.3661   -5.6787   24.9169 C   0  0  0  0  0  0
  -21.6046   -4.3054   24.7223 C   0  0  0  0  0  0
  -21.8821   -3.8144   23.4343 C   0  0  0  0  0  0
  -21.9195   -4.6960   22.3397 C   0  0  0  0  0  0
  -22.7814  -13.5218   21.1865 C   0  0  0  0  0  0
  -22.1664   -4.2143   21.0977 F   0  0  0  0  0  0
  -21.5633   -3.4539   25.7737 F   0  0  0  0  0  0
  -29.9686  -13.6062   20.3963 N   0  0  0  0  0  0
  -26.2921  -12.9423   20.3280 N   0  0  0  0  0  0
  -25.9328  -11.6558   20.5749 N   0  0  0  0  0  0
  -22.0459  -12.8203   22.0419 N   0  0  0  0  0  0
  -25.4162  -15.1930   20.4108 N   0  0  0  0  0  0
  -31.7582  -14.9487   20.1332 O   0  0  0  0  0  0
  -21.6646   -6.8873   21.4235 O   0  0  0  0  0  0
  -22.3496  -14.5519   20.6712 O   0  0  0  0  0  0
  -24.6393  -31.8482   23.1926 C   0  0  0  0  0  0
  -25.9187  -32.4712   23.8290 C   0  0  1  0  0  0
  -27.2221  -27.1844   20.1268 C   0  0  0  0  0  0
  -25.5958  -33.8518   24.2204 N   0  0  0  0  0  0
  -23.4393  -30.4701   21.5384 C   0  0  2  0  0  0
  -24.8868  -28.9086   20.1062 C   0  0  0  0  0  0
  -22.7536  -29.4571   22.4883 C   0  0  0  0  0  0
  -18.0298  -28.1406   22.8479 C   0  0  0  0  0  0
  -24.1487  -36.7250   23.2642 C   0  0  0  0  0  0
  -25.9927  -30.7360   21.3852 C   0  0  0  0  0  0
  -26.0624  -29.3534   20.7225 C   0  0  0  0  0  0
  -27.2260  -28.5035   20.7242 C   0  0  0  0  0  0
  -26.0114  -26.8267   19.4884 C   0  0  0  0  0  0
  -24.8717  -27.6557   19.4787 C   0  0  0  0  0  0
  -23.6606  -29.8039   20.1554 C   0  0  0  0  0  0
  -25.4121  -36.3035   24.0313 C   0  0  1  0  0  0
  -20.5908  -28.3724   23.1243 C   0  0  2  0  0  0
  -20.6793  -26.9433   22.5397 C   0  0  0  0  0  0
  -19.5759  -26.6393   21.5214 C   0  0  0  0  0  0
  -18.1938  -26.7947   22.1623 C   0  0  0  0  0  0
  -19.1555  -28.8883   23.2854 C   0  0  0  0  0  0
  -18.9480  -30.1485   23.8870 C   0  0  0  0  0  0
  -17.6477  -30.6600   24.0568 C   0  0  0  0  0  0
  -25.9077  -34.9414   23.5062 C   0  0  0  0  0  0
  -16.5364  -29.9092   23.6351 C   0  0  0  0  0  0
  -16.7285  -28.6517   23.0355 C   0  0  0  0  0  0
  -26.4527  -31.6567   25.0712 C   0  0  0  0  0  0
  -25.3717  -31.3729   26.1406 C   0  0  0  0  0  0
  -27.0408  -30.2974   24.6266 C   0  0  0  0  0  0
  -27.6054  -32.4336   25.7505 C   0  0  0  0  0  0
  -27.5571  -37.1778   24.8463 C   0  0  0  0  0  0
  -21.4234  -29.3053   22.3622 N   0  0  0  0  0  0
  -26.4281  -37.3748   23.9410 N   0  0  0  0  0  0
  -24.7100  -31.0380   22.0941 N   0  0  0  0  0  0
  -23.4195  -28.8114   23.3016 O   0  0  0  0  0  0
  -28.2935  -26.2358   20.2396 O   0  0  0  0  0  0
  -26.5658  -34.8906   22.4638 O   0  0  0  0  0  0
  -23.5523  -32.1350   23.7169 O   0  0  0  0  0  0
  -29.0267  -20.9696   19.1984 C   0  0  0  0  0  0
  -28.8259  -22.3756   18.9411 C   0  0  0  0  0  0
  -29.0186  -21.4371   21.5049 C   0  0  0  0  0  0
  -29.1158  -20.4035   20.5029 C   0  0  0  0  0  0
  -28.6854  -23.3979   19.9389 C   0  0  0  0  0  0
  -28.8106  -22.8678   21.2638 C   0  0  0  0  0  0
  -29.1030  -18.7980   20.8280 C   0  0  2  0  0  0
  -30.0228  -18.2739   21.9150 C   0  0  2  0  0  0
  -30.1065  -17.5025   20.6007 C   0  0  1  0  0  0
  -33.0789  -15.9896   24.1143 C   0  0  0  0  0  0
  -30.2248  -16.0684   25.2191 C   0  0  0  0  0  0
  -28.1321  -17.0819   23.1946 C   0  0  0  0  0  0
  -29.4421  -18.8820   24.2822 C   0  0  0  0  0  0
  -28.7754  -23.3358   23.6268 C   0  0  0  0  0  0
  -28.3860  -24.9314   19.4424 C   0  0  0  0  0  0
  -32.0600  -17.0951   23.7919 C   0  0  0  0  0  0
  -30.5768  -16.6346   23.8228 C   0  0  2  0  0  0
  -29.5515  -17.7059   23.2848 C   0  0  0  0  0  0
  -29.7792  -16.0019   20.6585 N   0  0  0  0  0  0
  -28.7032  -23.7919   22.2818 O   0  0  0  0  0  0
  -31.4769  -12.6725   19.1840 H   0  0  0  0  0  0
  -30.4113  -11.5622   19.9962 H   0  0  0  0  0  0
  -29.8199  -11.7396   17.5519 H   0  0  0  0  0  0
  -29.6235  -13.4678   17.7110 H   0  0  0  0  0  0
  -27.9197  -11.2821   18.9380 H   0  0  0  0  0  0
  -27.3862  -12.4983   17.8091 H   0  0  0  0  0  0
  -27.6168  -14.2545   19.4491 H   0  0  0  0  0  0
  -28.7450  -12.2241   21.4358 H   0  0  0  0  0  0
  -28.3987  -13.8977   21.7886 H   0  0  0  0  0  0
  -25.2756   -9.5702   22.4763 H   0  0  0  0  0  0
  -24.0004   -7.4643   22.7478 H   0  0  0  0  0  0
  -21.0848   -8.8754   19.8946 H   0  0  0  0  0  0
  -22.3682  -10.9666   19.6162 H   0  0  0  0  0  0
  -21.2004   -7.6144   23.9709 H   0  0  0  0  0  0
  -21.1484   -6.0520   25.9070 H   0  0  0  0  0  0
  -22.0601   -2.7607   23.2845 H   0  0  0  0  0  0
  -22.4081  -11.9871   22.4810 H   0  0  0  0  0  0
  -21.1068  -13.1212   22.2605 H   0  0  0  0  0  0
  -24.6429  -15.8399   20.5176 H   0  0  0  0  0  0
  -26.2511  -15.6333   20.0483 H   0  0  0  0  0  0
  -26.7255  -32.5327   23.1026 H   0  0  0  0  0  0
  -25.0096  -33.9643   25.0343 H   0  0  0  0  0  0
  -22.7401  -31.2952   21.3884 H   0  0  0  0  0  0
  -23.3763  -35.9567   23.3286 H   0  0  0  0  0  0
  -24.3576  -36.8899   22.2060 H   0  0  0  0  0  0
  -23.7226  -37.6430   23.6696 H   0  0  0  0  0  0
  -26.1459  -31.4965   20.6183 H   0  0  0  0  0  0
  -26.8656  -30.7826   22.0248 H   0  0  0  0  0  0
  -28.1189  -28.8371   21.2337 H   0  0  0  0  0  0
  -25.8747  -25.8613   19.0323 H   0  0  0  0  0  0
  -23.9682  -27.3011   19.0011 H   0  0  0  0  0  0
  -23.7883  -30.5816   19.4016 H   0  0  0  0  0  0
  -22.7765  -29.2424   19.8477 H   0  0  0  0  0  0
  -25.1309  -36.1865   25.0805 H   0  0  0  0  0  0
  -21.0004  -28.3324   24.1364 H   0  0  0  0  0  0
  -20.5714  -26.2335   23.3612 H   0  0  0  0  0  0
  -21.6660  -26.7452   22.1180 H   0  0  0  0  0  0
  -19.6923  -25.6299   21.1261 H   0  0  0  0  0  0
  -19.6703  -27.3197   20.6740 H   0  0  0  0  0  0
  -17.4207  -26.6695   21.4026 H   0  0  0  0  0  0
  -18.0325  -26.0093   22.9021 H   0  0  0  0  0  0
  -19.7957  -30.7315   24.2206 H   0  0  0  0  0  0
  -17.5029  -31.6278   24.5175 H   0  0  0  0  0  0
  -15.5363  -30.2984   23.7697 H   0  0  0  0  0  0
  -15.8685  -28.0835   22.7070 H   0  0  0  0  0  0
  -24.5910  -30.7068   25.7714 H   0  0  0  0  0  0
  -24.8891  -32.2898   26.4799 H   0  0  0  0  0  0
  -25.8008  -30.8919   27.0204 H   0  0  0  0  0  0
  -26.3028  -29.6685   24.1273 H   0  0  0  0  0  0
  -27.4048  -29.7279   25.4827 H   0  0  0  0  0  0
  -27.8918  -30.4231   23.9568 H   0  0  0  0  0  0
  -27.2645  -33.3659   26.2023 H   0  0  0  0  0  0
  -28.3906  -32.6859   25.0364 H   0  0  0  0  0  0
  -28.0681  -31.8497   26.5472 H   0  0  0  0  0  0
  -28.2565  -38.0096   24.7538 H   0  0  0  0  0  0
  -28.1090  -36.2625   24.6268 H   0  0  0  0  0  0
  -27.2286  -37.1395   25.8863 H   0  0  0  0  0  0
  -20.9434  -29.8739   21.6785 H   0  0  0  0  0  0
  -26.0144  -38.2807   24.1439 H   0  0  0  0  0  0
  -29.0678  -20.3002   18.3502 H   0  0  0  0  0  0
  -28.7495  -22.6772   17.9053 H   0  0  0  0  0  0
  -29.0716  -21.0900   22.5216 H   0  0  0  0  0  0
  -28.0536  -18.5158   20.8396 H   0  0  0  0  0  0
  -30.8856  -18.9227   22.0565 H   0  0  0  0  0  0
  -30.9645  -17.7303   19.9705 H   0  0  0  0  0  0
  -34.0972  -16.3472   23.9569 H   0  0  0  0  0  0
  -32.9351  -15.1202   23.4718 H   0  0  0  0  0  0
  -33.0165  -15.6606   25.1514 H   0  0  0  0  0  0
  -30.8389  -15.2021   25.4598 H   0  0  0  0  0  0
  -29.1979  -15.7165   25.2893 H   0  0  0  0  0  0
  -30.3846  -16.8013   26.0094 H   0  0  0  0  0  0
  -27.4018  -17.7749   22.7798 H   0  0  0  0  0  0
  -27.7377  -16.8215   24.1754 H   0  0  0  0  0  0
  -28.1019  -16.1733   22.5989 H   0  0  0  0  0  0
  -28.6679  -19.5850   23.9811 H   0  0  0  0  0  0
  -30.3772  -19.4359   24.3702 H   0  0  0  0  0  0
  -29.1645  -18.5526   25.2825 H   0  0  0  0  0  0
  -28.6581  -24.1835   24.3022 H   0  0  0  0  0  0
  -29.7405  -22.8759   23.8444 H   0  0  0  0  0  0
  -27.9759  -22.6282   23.8508 H   0  0  0  0  0  0
  -29.2366  -25.1350   18.7914 H   0  0  0  0  0  0
  -27.5755  -24.8432   18.7271 H   0  0  0  0  0  0
  -32.3231  -17.4591   22.8004 H   0  0  0  0  0  0
  -32.2099  -17.9332   24.4728 H   0  0  0  0  0  0
  -30.5162  -15.7804   23.1523 H   0  0  0  0  0  0
  -28.8131  -15.7971   20.8597 H   0  0  0  0  0  0
  1 25  1  0  0  0
  1 30  2  0  0  0
  1 89  1  0  0  0
  2  3  1  0  0  0
  2 25  1  0  0  0
  2 91  1  0  0  0
  2 92  1  0  0  0
  3  4  1  0  0  0
  3 93  1  0  0  0
  3 94  1  0  0  0
  4  5  1  0  0  0
  4 95  1  0  0  0
  4 96  1  0  0  0
  5  6  1  0  0  0
  5 26  1  0  0  0
  5 97  1  0  0  0
  6 25  1  0  0  0
  6 98  1  0  0  0
  6 99  1  0  0  0
  7  8  2  0  0  0
  7 26  1  0  0  0
  7 29  1  0  0  0
  8  9  1  0  0  0
  8 22  1  0  0  0
  9 10  1  0  0  0
  9 27  2  0  0  0
 10 11  2  0  0  0
 10 15  1  0  0  0
 11 12  1  0  0  0
 11100  1  0  0  0
 12 13  2  0  0  0
 12101  1  0  0  0
 13 14  1  0  0  0
 13 31  1  0  0  0
 14 15  2  0  0  0
 14102  1  0  0  0
 15103  1  0  0  0
 16 17  2  0  0  0
 16 21  1  0  0  0
 16 31  1  0  0  0
 17 18  1  0  0  0
 17104  1  0  0  0
 18 19  2  0  0  0
 18105  1  0  0  0
 19 20  1  0  0  0
 19 24  1  0  0  0
 20 21  2  0  0  0
 20106  1  0  0  0
 21 23  1  0  0  0
 22 28  1  0  0  0
 22 32  2  0  0  0
 26 27  1  0  0  0
 28107  1  0  0  0
 28108  1  0  0  0
 29109  1  0  0  0
 29110  1  0  0  0
 33 34  1  0  0  0
 33 66  1  0  0  0
 33 70  2  0  0  0
 34 36  1  0  0  0
 34 59  1  0  0  0
 34111  1  0  0  0
 35 44  2  0  0  0
 35 45  1  0  0  0
 35 68  1  0  0  0
 36 56  1  0  0  0
 36112  1  0  0  0
 37 39  1  0  0  0
 37 47  1  0  0  0
 37 66  1  0  0  0
 37113  1  0  0  0
 38 43  2  0  0  0
 38 46  1  0  0  0
 38 47  1  0  0  0
 39 64  1  0  0  0
 39 67  2  0  0  0
 40 52  1  0  0  0
 40 53  2  0  0  0
 40 58  1  0  0  0
 41114  1  0  0  0
 41115  1  0  0  0
 41116  1  0  0  0
 41 48  1  0  0  0
 42 43  1  0  0  0
 42 66  1  0  0  0
 42117  1  0  0  0
 42118  1  0  0  0
 43 44  1  0  0  0
 44119  1  0  0  0
 45 46  2  0  0  0
 45120  1  0  0  0
 46121  1  0  0  0
 47122  1  0  0  0
 47123  1  0  0  0
 48 56  1  0  0  0
 48 65  1  0  0  0
 48124  1  0  0  0
 49 50  1  0  0  0
 49 53  1  0  0  0
 49 64  1  0  0  0
 49125  1  0  0  0
 50 51  1  0  0  0
 50126  1  0  0  0
 50127  1  0  0  0
 51 52  1  0  0  0
 51128  1  0  0  0
 51129  1  0  0  0
 52130  1  0  0  0
 52131  1  0  0  0
 53 54  1  0  0  0
 54 55  2  0  0  0
 54132  1  0  0  0
 55 57  1  0  0  0
 55133  1  0  0  0
 56 69  2  0  0  0
 57 58  2  0  0  0
 57134  1  0  0  0
 58135  1  0  0  0
 59 60  1  0  0  0
 59 61  1  0  0  0
 59 62  1  0  0  0
 60136  1  0  0  0
 60137  1  0  0  0
 60138  1  0  0  0
 61139  1  0  0  0
 61140  1  0  0  0
 61141  1  0  0  0
 62142  1  0  0  0
 62143  1  0  0  0
 62144  1  0  0  0
 63 65  1  0  0  0
 63145  1  0  0  0
 63146  1  0  0  0
 63147  1  0  0  0
 64148  1  0  0  0
 65149  1  0  0  0
 68 85  1  0  0  0
 71 72  2  0  0  0
 71 74  1  0  0  0
 71150  1  0  0  0
 72 75  1  0  0  0
 72151  1  0  0  0
 73 74  2  0  0  0
 73 76  1  0  0  0
 73152  1  0  0  0
 74 77  1  0  0  0
 75 76  2  0  0  0
 75 85  1  0  0  0
 76 90  1  0  0  0
 77 78  1  0  0  0
 77 79  1  0  0  0
 77153  1  0  0  0
 78 79  1  0  0  0
 78 88  1  0  0  0
 78154  1  0  0  0
 79 89  1  0  0  0
 79155  1  0  0  0
 80 86  1  0  0  0
 80156  1  0  0  0
 80157  1  0  0  0
 80158  1  0  0  0
 81159  1  0  0  0
 81160  1  0  0  0
 81161  1  0  0  0
 81 87  1  0  0  0
 82162  1  0  0  0
 82163  1  0  0  0
 82164  1  0  0  0
 82 88  1  0  0  0
 83 88  1  0  0  0
 83165  1  0  0  0
 83166  1  0  0  0
 83167  1  0  0  0
 84 90  1  0  0  0
 84168  1  0  0  0
 84169  1  0  0  0
 84170  1  0  0  0
 85171  1  0  0  0
 85172  1  0  0  0
 86 87  1  0  0  0
 86173  1  0  0  0
 86174  1  0  0  0
 87 88  1  0  0  0
 87175  1  0  0  0
 89176  1  0  0  0
M  ISO  4   1 100  68 101  85 101  89 100
M  END
> <chiral flag>
0

> <version>
0

> <s_m_source_file>
/data/baiqing/PycharmProjects/Reinvent-master-3.2/result/LINK_invent/BTK/process_docking_weight1_custom_sum_contain_oxygen_bond_distance_aromatic_linkinvent_7_9_3/rearranged_h_0148.sdf

> <i_m_source_file_index>
87

> <r_mmod_Potential_Energy-OPLS-2005>
501.109130859375

> <r_mmod_Stretch_Energy-OPLS-2005>
204.566787719727

> <r_mmod_Bend_Energy-OPLS-2005>
271.841949462891

> <r_mmod_Torsional_Energy-OPLS-2005>
303.391235351562

> <r_mmod_Improper_Torsional_Energy-OPLS-2005>
5.23378562927246

> <r_mmod_Van_der_Waal_Energy-OPLS-2005>
142.88850402832

> <r_mmod_Electrostatic_Energy-OPLS-2005>
-365.617858886719

> <r_mmod_Solvation_Energy-OPLS-2005>
-202.988464355469

> <b_mmod_Minimization_Converged-OPLS-2005>
0

> <r_mmod_RMS_Derivative-OPLS-2005>
0.982979238033295

$$$$
87
                    3D
 Structure written by MMmdl.
154162  0  0  1  0            999 V2000
  -30.6543  -14.6418   20.4898 C   0  0  0  0  0  0
  -30.4266  -12.3956   19.4575 C   0  0  0  0  0  0
  -29.5013  -12.4957   18.2262 C   0  0  0  0  0  0
  -28.0265  -12.3348   18.6424 C   0  0  0  0  0  0
  -27.6467  -13.2223   19.8577 C   0  0  2  0  0  0
  -28.6924  -13.1153   20.9894 C   0  0  0  0  0  0
  -25.2522  -13.8187   20.5690 C   0  0  0  0  0  0
  -24.1802  -13.0443   20.9203 C   0  0  0  0  0  0
  -24.6381  -11.6917   20.8750 C   0  0  0  0  0  0
  -23.9053  -10.4295   21.0407 C   0  0  0  0  0  0
  -24.3605   -9.4212   21.9185 C   0  0  0  0  0  0
  -23.6284   -8.2246   22.0757 C   0  0  0  0  0  0
  -22.4268   -8.0277   21.3547 C   0  0  0  0  0  0
  -21.9901   -9.0249   20.4649 C   0  0  0  0  0  0
  -22.7226  -10.2131   20.3058 C   0  0  0  0  0  0
  -21.6853   -6.0728   22.5275 C   0  0  0  0  0  0
  -21.4014   -6.5635   23.8206 C   0  0  0  0  0  0
  -21.3660   -5.6793   24.9173 C   0  0  0  0  0  0
  -21.6045   -4.3055   24.7229 C   0  0  0  0  0  0
  -21.8819   -3.8140   23.4352 C   0  0  0  0  0  0
  -21.9191   -4.6954   22.3405 C   0  0  0  0  0  0
  -22.7824  -13.5228   21.1860 C   0  0  0  0  0  0
  -22.1659   -4.2138   21.0983 F   0  0  0  0  0  0
  -21.5630   -3.4540   25.7744 F   0  0  0  0  0  0
  -30.0025  -13.4400   20.4116 N   0  0  0  0  0  0
  -26.2951  -12.9381   20.3316 N   0  0  0  0  0  0
  -25.9312  -11.6530   20.5776 N   0  0  0  0  0  0
  -22.0472  -12.8219   22.0420 N   0  0  0  0  0  0
  -25.4221  -15.1911   20.4091 N   0  0  0  0  0  0
  -31.8334  -14.7492   20.1476 O   0  0  0  0  0  0
  -21.6641   -6.8868   21.4237 O   0  0  0  0  0  0
  -22.3510  -14.5534   20.6706 O   0  0  0  0  0  0
  -24.6251  -31.8596   23.2025 C   0  0  0  0  0  0
  -25.9099  -32.4779   23.8357 C   0  0  1  0  0  0
  -27.2222  -27.3281   20.1227 C   0  0  0  0  0  0
  -25.5922  -33.8581   24.2286 N   0  0  0  0  0  0
  -23.4197  -30.4826   21.5444 C   0  0  2  0  0  0
  -24.8695  -28.9403   20.1078 C   0  0  0  0  0  0
  -22.7474  -29.4615   22.4929 C   0  0  0  0  0  0
  -18.0285  -28.1368   22.8484 C   0  0  0  0  0  0
  -24.1487  -36.7293   23.2639 C   0  0  0  0  0  0
  -25.9600  -30.7940   21.3731 C   0  0  0  0  0  0
  -26.0374  -29.4224   20.7150 C   0  0  0  0  0  0
  -27.2216  -28.6272   20.7139 C   0  0  0  0  0  0
  -26.0404  -26.8979   19.4853 C   0  0  0  0  0  0
  -24.8724  -27.6832   19.4819 C   0  0  0  0  0  0
  -23.6350  -29.8177   20.1593 C   0  0  0  0  0  0
  -25.4111  -36.3085   24.0331 C   0  0  1  0  0  0
  -20.5887  -28.3675   23.1278 C   0  0  2  0  0  0
  -20.6770  -26.9397   22.5405 C   0  0  0  0  0  0
  -19.5749  -26.6372   21.5202 C   0  0  0  0  0  0
  -18.1926  -26.7914   22.1616 C   0  0  0  0  0  0
  -19.1540  -28.8838   23.2874 C   0  0  0  0  0  0
  -18.9466  -30.1441   23.8887 C   0  0  0  0  0  0
  -17.6468  -30.6577   24.0556 C   0  0  0  0  0  0
  -25.9046  -34.9455   23.5108 C   0  0  0  0  0  0
  -16.5358  -29.9075   23.6327 C   0  0  0  0  0  0
  -16.7276  -28.6489   23.0352 C   0  0  0  0  0  0
  -26.4491  -31.6592   25.0726 C   0  0  0  0  0  0
  -25.3734  -31.3723   26.1462 C   0  0  0  0  0  0
  -27.0339  -30.3021   24.6163 C   0  0  0  0  0  0
  -27.6048  -32.4330   25.7496 C   0  0  0  0  0  0
  -27.5581  -37.1794   24.8462 C   0  0  0  0  0  0
  -21.4186  -29.3037   22.3682 N   0  0  0  0  0  0
  -26.4286  -37.3782   23.9416 N   0  0  0  0  0  0
  -24.6869  -31.0621   22.0970 N   0  0  0  0  0  0
  -23.4202  -28.8150   23.3001 O   0  0  0  0  0  0
  -28.2968  -26.4337   20.1686 O   0  0  0  0  0  0
  -26.5616  -34.8918   22.4672 O   0  0  0  0  0  0
  -23.5416  -32.1390   23.7363 O   0  0  0  0  0  0
  -29.9355  -23.4337   20.8676 C   0  0  0  0  0  0
  -30.3581  -22.0734   20.8027 C   0  0  0  0  0  0
  -27.7209  -22.7349   20.2792 C   0  0  0  0  0  0
  -28.5918  -23.8045   20.6297 C   0  0  0  0  0  0
  -28.1367  -21.3631   20.2098 C   0  0  0  0  0  0
  -29.4857  -20.9884   20.5094 C   0  0  0  0  0  0
  -27.0889  -20.3400   19.8065 C   0  0  0  0  0  0
  -28.0316  -25.2333   20.9871 C   0  0  0  0  0  0
  -30.4197  -17.1876   20.7471 C   0  0  0  0  0  0
  -29.4021  -18.3980   20.5371 C   0  0  0  0  0  0
  -29.9141  -15.7643   20.7554 N   0  0  0  0  0  0
  -30.0779  -19.7010   20.5352 O   0  0  0  0  0  0
  -31.4691  -12.5063   19.1546 H   0  0  0  0  0  0
  -30.3533  -11.4100   19.9196 H   0  0  0  0  0  0
  -29.7669  -11.7341   17.4918 H   0  0  0  0  0  0
  -29.6414  -13.4596   17.7339 H   0  0  0  0  0  0
  -27.8687  -11.2846   18.8902 H   0  0  0  0  0  0
  -27.3694  -12.5489   17.7987 H   0  0  0  0  0  0
  -27.6562  -14.2506   19.4968 H   0  0  0  0  0  0
  -28.7064  -12.1095   21.4110 H   0  0  0  0  0  0
  -28.4450  -13.7869   21.8129 H   0  0  0  0  0  0
  -25.2745   -9.5697   22.4765 H   0  0  0  0  0  0
  -23.9993   -7.4644   22.7485 H   0  0  0  0  0  0
  -21.0829   -8.8761   19.8960 H   0  0  0  0  0  0
  -22.3669  -10.9669   19.6172 H   0  0  0  0  0  0
  -21.2007   -7.6143   23.9706 H   0  0  0  0  0  0
  -21.1484   -6.0526   25.9075 H   0  0  0  0  0  0
  -22.0596   -2.7601   23.2858 H   0  0  0  0  0  0
  -22.4083  -11.9873   22.4796 H   0  0  0  0  0  0
  -21.1097  -13.1253   22.2644 H   0  0  0  0  0  0
  -24.6527  -15.8438   20.5131 H   0  0  0  0  0  0
  -26.2659  -15.6283   20.0617 H   0  0  0  0  0  0
  -26.7174  -32.5456   23.1114 H   0  0  0  0  0  0
  -25.0085  -33.9732   25.0442 H   0  0  0  0  0  0
  -22.7122  -31.3017   21.4004 H   0  0  0  0  0  0
  -23.3753  -35.9620   23.3292 H   0  0  0  0  0  0
  -24.3579  -36.8922   22.2055 H   0  0  0  0  0  0
  -23.7235  -37.6489   23.6669 H   0  0  0  0  0  0
  -26.0892  -31.5576   20.6053 H   0  0  0  0  0  0
  -26.8410  -30.8437   22.0015 H   0  0  0  0  0  0
  -28.1154  -28.9872   21.2036 H   0  0  0  0  0  0
  -26.0133  -25.9260   19.0123 H   0  0  0  0  0  0
  -23.9786  -27.3082   19.0028 H   0  0  0  0  0  0
  -23.7502  -30.5942   19.4020 H   0  0  0  0  0  0
  -22.7562  -29.2441   19.8597 H   0  0  0  0  0  0
  -25.1284  -36.1935   25.0822 H   0  0  0  0  0  0
  -20.9974  -28.3248   24.1401 H   0  0  0  0  0  0
  -20.5654  -26.2285   23.3603 H   0  0  0  0  0  0
  -21.6638  -26.7411   22.1207 H   0  0  0  0  0  0
  -19.6909  -25.6281   21.1233 H   0  0  0  0  0  0
  -19.6689  -27.3178   20.6728 H   0  0  0  0  0  0
  -17.4194  -26.6662   21.4018 H   0  0  0  0  0  0
  -18.0328  -26.0049   22.9007 H   0  0  0  0  0  0
  -19.7945  -30.7252   24.2253 H   0  0  0  0  0  0
  -17.5030  -31.6259   24.5155 H   0  0  0  0  0  0
  -15.5361  -30.2976   23.7659 H   0  0  0  0  0  0
  -15.8673  -28.0809   22.7074 H   0  0  0  0  0  0
  -24.5910  -30.7062   25.7805 H   0  0  0  0  0  0
  -24.8921  -32.2885   26.4893 H   0  0  0  0  0  0
  -25.8072  -30.8909   27.0234 H   0  0  0  0  0  0
  -26.2909  -29.6770   24.1193 H   0  0  0  0  0  0
  -27.4064  -29.7274   25.4652 H   0  0  0  0  0  0
  -27.8764  -30.4325   23.9366 H   0  0  0  0  0  0
  -27.2660  -33.3640   26.2052 H   0  0  0  0  0  0
  -28.3870  -32.6872   25.0333 H   0  0  0  0  0  0
  -28.0700  -31.8468   26.5430 H   0  0  0  0  0  0
  -28.2579  -38.0110   24.7537 H   0  0  0  0  0  0
  -28.1096  -36.2641   24.6250 H   0  0  0  0  0  0
  -27.2301  -37.1401   25.8864 H   0  0  0  0  0  0
  -20.9359  -29.8792   21.6922 H   0  0  0  0  0  0
  -26.0165  -38.2850   24.1437 H   0  0  0  0  0  0
  -30.6464  -24.1922   21.1645 H   0  0  0  0  0  0
  -31.3937  -21.8536   21.0226 H   0  0  0  0  0  0
  -26.6806  -22.9723   20.1032 H   0  0  0  0  0  0
  -26.1422  -20.8177   19.5524 H   0  0  0  0  0  0
  -26.8880  -19.6421   20.6180 H   0  0  0  0  0  0
  -27.4081  -19.7883   18.9229 H   0  0  0  0  0  0
  -28.4239  -25.4689   21.9772 H   0  0  0  0  0  0
  -26.9611  -25.1089   21.1586 H   0  0  0  0  0  0
  -30.9389  -17.3454   21.6931 H   0  0  0  0  0  0
  -31.1878  -17.2719   19.9772 H   0  0  0  0  0  0
  -28.6507  -18.3796   21.3266 H   0  0  0  0  0  0
  -28.8929  -18.2567   19.5849 H   0  0  0  0  0  0
  -28.9398  -15.6210   20.9756 H   0  0  0  0  0  0
  1 25  1  0  0  0
  1 30  2  0  0  0
  1 81  1  0  0  0
  2  3  1  0  0  0
  2 25  1  0  0  0
  2 83  1  0  0  0
  2 84  1  0  0  0
  3  4  1  0  0  0
  3 85  1  0  0  0
  3 86  1  0  0  0
  4  5  1  0  0  0
  4 87  1  0  0  0
  4 88  1  0  0  0
  5  6  1  0  0  0
  5 26  1  0  0  0
  5 89  1  0  0  0
  6 25  1  0  0  0
  6 90  1  0  0  0
  6 91  1  0  0  0
  7  8  2  0  0  0
  7 26  1  0  0  0
  7 29  1  0  0  0
  8  9  1  0  0  0
  8 22  1  0  0  0
  9 10  1  0  0  0
  9 27  2  0  0  0
 10 11  2  0  0  0
 10 15  1  0  0  0
 11 12  1  0  0  0
 11 92  1  0  0  0
 12 13  2  0  0  0
 12 93  1  0  0  0
 13 14  1  0  0  0
 13 31  1  0  0  0
 14 15  2  0  0  0
 14 94  1  0  0  0
 15 95  1  0  0  0
 16 17  2  0  0  0
 16 21  1  0  0  0
 16 31  1  0  0  0
 17 18  1  0  0  0
 17 96  1  0  0  0
 18 19  2  0  0  0
 18 97  1  0  0  0
 19 20  1  0  0  0
 19 24  1  0  0  0
 20 21  2  0  0  0
 20 98  1  0  0  0
 21 23  1  0  0  0
 22 28  1  0  0  0
 22 32  2  0  0  0
 26 27  1  0  0  0
 28 99  1  0  0  0
 28100  1  0  0  0
 29101  1  0  0  0
 29102  1  0  0  0
 33 34  1  0  0  0
 33 66  1  0  0  0
 33 70  2  0  0  0
 34 36  1  0  0  0
 34 59  1  0  0  0
 34103  1  0  0  0
 35 44  2  0  0  0
 35 45  1  0  0  0
 35 68  1  0  0  0
 36 56  1  0  0  0
 36104  1  0  0  0
 37 39  1  0  0  0
 37 47  1  0  0  0
 37 66  1  0  0  0
 37105  1  0  0  0
 38 43  2  0  0  0
 38 46  1  0  0  0
 38 47  1  0  0  0
 39 64  1  0  0  0
 39 67  2  0  0  0
 40 52  1  0  0  0
 40 53  2  0  0  0
 40 58  1  0  0  0
 41106  1  0  0  0
 41107  1  0  0  0
 41108  1  0  0  0
 41 48  1  0  0  0
 42 43  1  0  0  0
 42 66  1  0  0  0
 42109  1  0  0  0
 42110  1  0  0  0
 43 44  1  0  0  0
 44111  1  0  0  0
 45 46  2  0  0  0
 45112  1  0  0  0
 46113  1  0  0  0
 47114  1  0  0  0
 47115  1  0  0  0
 48 56  1  0  0  0
 48 65  1  0  0  0
 48116  1  0  0  0
 49 50  1  0  0  0
 49 53  1  0  0  0
 49 64  1  0  0  0
 49117  1  0  0  0
 50 51  1  0  0  0
 50118  1  0  0  0
 50119  1  0  0  0
 51 52  1  0  0  0
 51120  1  0  0  0
 51121  1  0  0  0
 52122  1  0  0  0
 52123  1  0  0  0
 53 54  1  0  0  0
 54 55  2  0  0  0
 54124  1  0  0  0
 55 57  1  0  0  0
 55125  1  0  0  0
 56 69  2  0  0  0
 57 58  2  0  0  0
 57126  1  0  0  0
 58127  1  0  0  0
 59 60  1  0  0  0
 59 61  1  0  0  0
 59 62  1  0  0  0
 60128  1  0  0  0
 60129  1  0  0  0
 60130  1  0  0  0
 61131  1  0  0  0
 61132  1  0  0  0
 61133  1  0  0  0
 62134  1  0  0  0
 62135  1  0  0  0
 62136  1  0  0  0
 63 65  1  0  0  0
 63137  1  0  0  0
 63138  1  0  0  0
 63139  1  0  0  0
 64140  1  0  0  0
 65141  1  0  0  0
 68 78  1  0  0  0
 71 72  2  0  0  0
 71 74  1  0  0  0
 71142  1  0  0  0
 72 76  1  0  0  0
 72143  1  0  0  0
 73 74  2  0  0  0
 73 75  1  0  0  0
 73144  1  0  0  0
 74 78  1  0  0  0
 75 76  2  0  0  0
 75 77  1  0  0  0
 76 82  1  0  0  0
 77145  1  0  0  0
 77146  1  0  0  0
 77147  1  0  0  0
 78148  1  0  0  0
 78149  1  0  0  0
 79 80  1  0  0  0
 79 81  1  0  0  0
 79150  1  0  0  0
 79151  1  0  0  0
 80 82  1  0  0  0
 80152  1  0  0  0
 80153  1  0  0  0
 81154  1  0  0  0
M  ISO  4   1 100  68 101  78 101  81 100
M  END
> <chiral flag>
0

> <version>
0

> <s_m_source_file>
/data/baiqing/PycharmProjects/Reinvent-master-3.2/result/LINK_invent/BTK/process_docking_weight1_custom_sum_contain_oxygen_bond_distance_aromatic_linkinvent_7_9_3/rearranged_h_0148.sdf

> <i_m_source_file_index>
88

> <r_mmod_Potential_Energy-OPLS-2005>
52.004695892334

> <r_mmod_Stretch_Energy-OPLS-2005>
78.3370590209961

> <r_mmod_Bend_Energy-OPLS-2005>
159.53727722168

> <r_mmod_Torsional_Energy-OPLS-2005>
238.585678100586

> <r_mmod_Improper_Torsional_Energy-OPLS-2005>
5.99464702606201

> <r_mmod_Van_der_Waal_Energy-OPLS-2005>
143.207595825195

> <r_mmod_Electrostatic_Energy-OPLS-2005>
-412.515869140625

> <r_mmod_Solvation_Energy-OPLS-2005>
-214.062744140625

> <b_mmod_Minimization_Converged-OPLS-2005>
0

> <r_mmod_RMS_Derivative-OPLS-2005>
0.802816569805145

$$$$
88
                    3D
 Structure written by MMmdl.
165174  0  0  1  0            999 V2000
  -30.6225  -14.5762   20.5262 C   0  0  0  0  0  0
  -30.4409  -12.3602   19.4280 C   0  0  0  0  0  0
  -29.5022  -12.5064   18.2097 C   0  0  0  0  0  0
  -28.0237  -12.3495   18.6238 C   0  0  0  0  0  0
  -27.6561  -13.2042   19.8656 C   0  0  2  0  0  0
  -28.7016  -13.0143   20.9877 C   0  0  0  0  0  0
  -25.2589  -13.8144   20.5682 C   0  0  0  0  0  0
  -24.1839  -13.0427   20.9177 C   0  0  0  0  0  0
  -24.6390  -11.6894   20.8732 C   0  0  0  0  0  0
  -23.9055  -10.4288   21.0404 C   0  0  0  0  0  0
  -24.3607   -9.4205   21.9184 C   0  0  0  0  0  0
  -23.6287   -8.2238   22.0749 C   0  0  0  0  0  0
  -22.4267   -8.0278   21.3541 C   0  0  0  0  0  0
  -21.9901   -9.0253   20.4644 C   0  0  0  0  0  0
  -22.7227  -10.2133   20.3056 C   0  0  0  0  0  0
  -21.6848   -6.0740   22.5283 C   0  0  0  0  0  0
  -21.4010   -6.5644   23.8218 C   0  0  0  0  0  0
  -21.3655   -5.6795   24.9177 C   0  0  0  0  0  0
  -21.6042   -4.3059   24.7228 C   0  0  0  0  0  0
  -21.8819   -3.8153   23.4348 C   0  0  0  0  0  0
  -21.9188   -4.6969   22.3405 C   0  0  0  0  0  0
  -22.7864  -13.5234   21.1847 C   0  0  0  0  0  0
  -22.1653   -4.2156   21.0980 F   0  0  0  0  0  0
  -21.5629   -3.4542   25.7740 F   0  0  0  0  0  0
  -30.0205  -13.3550   20.4280 N   0  0  0  0  0  0
  -26.3005  -12.9300   20.3325 N   0  0  0  0  0  0
  -25.9313  -11.6466   20.5746 N   0  0  0  0  0  0
  -22.0503  -12.8234   22.0405 N   0  0  0  0  0  0
  -25.4322  -15.1861   20.4121 N   0  0  0  0  0  0
  -31.7901  -14.7706   20.1726 O   0  0  0  0  0  0
  -21.6628   -6.8880   21.4243 O   0  0  0  0  0  0
  -22.3557  -14.5546   20.6698 O   0  0  0  0  0  0
  -24.6202  -31.8639   23.2055 C   0  0  0  0  0  0
  -25.9075  -32.4799   23.8367 C   0  0  1  0  0  0
  -27.2325  -27.3686   20.1222 C   0  0  0  0  0  0
  -25.5915  -33.8596   24.2302 N   0  0  0  0  0  0
  -23.4110  -30.4850   21.5479 C   0  0  2  0  0  0
  -24.8575  -28.9342   20.1254 C   0  0  0  0  0  0
  -22.7439  -29.4638   22.4981 C   0  0  0  0  0  0
  -18.0278  -28.1381   22.8490 C   0  0  0  0  0  0
  -24.1490  -36.7304   23.2635 C   0  0  0  0  0  0
  -25.9448  -30.8085   21.3683 C   0  0  0  0  0  0
  -26.0206  -29.4333   20.7252 C   0  0  0  0  0  0
  -27.2118  -28.6608   20.7143 C   0  0  0  0  0  0
  -26.0526  -26.9019   19.5072 C   0  0  0  0  0  0
  -24.8706  -27.6691   19.5131 C   0  0  0  0  0  0
  -23.6242  -29.8116   20.1660 C   0  0  0  0  0  0
  -25.4109  -36.3096   24.0335 C   0  0  1  0  0  0
  -20.5872  -28.3672   23.1313 C   0  0  2  0  0  0
  -20.6769  -26.9404   22.5418 C   0  0  0  0  0  0
  -19.5748  -26.6387   21.5215 C   0  0  0  0  0  0
  -18.1926  -26.7927   22.1625 C   0  0  0  0  0  0
  -19.1527  -28.8843   23.2897 C   0  0  0  0  0  0
  -18.9450  -30.1448   23.8906 C   0  0  0  0  0  0
  -17.6450  -30.6582   24.0565 C   0  0  0  0  0  0
  -25.9041  -34.9463   23.5116 C   0  0  0  0  0  0
  -16.5343  -29.9081   23.6326 C   0  0  0  0  0  0
  -16.7266  -28.6502   23.0343 C   0  0  0  0  0  0
  -26.4483  -31.6589   25.0713 C   0  0  0  0  0  0
  -25.3737  -31.3715   26.1456 C   0  0  0  0  0  0
  -27.0306  -30.3017   24.6120 C   0  0  0  0  0  0
  -27.6058  -32.4307   25.7478 C   0  0  0  0  0  0
  -27.5584  -37.1801   24.8460 C   0  0  0  0  0  0
  -21.4161  -29.3033   22.3717 N   0  0  0  0  0  0
  -26.4290  -37.3786   23.9413 N   0  0  0  0  0  0
  -24.6772  -31.0690   22.0983 N   0  0  0  0  0  0
  -23.4188  -28.8186   23.3047 O   0  0  0  0  0  0
  -28.4091  -26.6398   20.0138 O   0  0  0  0  0  0
  -26.5604  -34.8928   22.4678 O   0  0  0  0  0  0
  -23.5381  -32.1416   23.7419 O   0  0  0  0  0  0
  -30.9477  -17.6692   21.5452 C   0  0  0  0  0  0
  -28.9466  -19.2481   20.3476 C   0  0  0  0  0  0
  -30.9480  -19.0800   21.7011 C   0  0  0  0  0  0
  -29.9202  -17.0206   20.8266 C   0  0  0  0  0  0
  -29.9401  -19.8945   21.1213 C   0  0  0  0  0  0
  -28.9172  -17.8219   20.2152 C   0  0  0  0  0  0
  -27.6088  -24.1661   20.3019 C   0  0  0  0  0  0
  -29.9912  -24.8490   20.2096 C   0  0  0  0  0  0
  -28.0190  -22.8008   20.9567 C   0  0  0  0  0  0
  -30.4170  -23.4990   20.8412 C   0  0  0  0  0  0
  -28.5852  -25.3315   20.6387 C   0  0  1  0  0  0
  -29.4483  -22.3164   20.5867 C   0  0  1  0  0  0
  -32.0382  -19.7295   22.5334 C   0  0  0  0  0  0
  -26.9848  -17.9050   18.7871 C   0  0  0  0  0  0
  -29.7654  -15.5866   20.8241 N   0  0  0  0  0  0
  -29.9543  -21.2555   21.4354 O   0  0  0  0  0  0
  -27.9283  -17.1429   19.5305 O   0  0  0  0  0  0
  -31.4801  -12.4969   19.1237 H   0  0  0  0  0  0
  -30.3781  -11.3545   19.8464 H   0  0  0  0  0  0
  -29.7561  -11.7691   17.4469 H   0  0  0  0  0  0
  -29.6501  -13.4839   17.7482 H   0  0  0  0  0  0
  -27.8514  -11.2941   18.8388 H   0  0  0  0  0  0
  -27.3694  -12.5989   17.7876 H   0  0  0  0  0  0
  -27.6840  -14.2448   19.5428 H   0  0  0  0  0  0
  -28.7031  -11.9807   21.3372 H   0  0  0  0  0  0
  -28.4564  -13.6196   21.8624 H   0  0  0  0  0  0
  -25.2749   -9.5686   22.4758 H   0  0  0  0  0  0
  -24.0004   -7.4628   22.7463 H   0  0  0  0  0  0
  -21.0833   -8.8774   19.8949 H   0  0  0  0  0  0
  -22.3686  -10.9672   19.6168 H   0  0  0  0  0  0
  -21.2004   -7.6152   23.9726 H   0  0  0  0  0  0
  -21.1471   -6.0521   25.9080 H   0  0  0  0  0  0
  -22.0604   -2.7618   23.2845 H   0  0  0  0  0  0
  -22.4110  -11.9892   22.4797 H   0  0  0  0  0  0
  -21.1126  -13.1273   22.2617 H   0  0  0  0  0  0
  -24.6636  -15.8367   20.5292 H   0  0  0  0  0  0
  -26.2875  -15.6348   20.1064 H   0  0  0  0  0  0
  -26.7141  -32.5498   23.1121 H   0  0  0  0  0  0
  -25.0077  -33.9748   25.0458 H   0  0  0  0  0  0
  -22.7020  -31.3028   21.4039 H   0  0  0  0  0  0
  -23.3752  -35.9636   23.3294 H   0  0  0  0  0  0
  -24.3584  -36.8920   22.2049 H   0  0  0  0  0  0
  -23.7243  -37.6509   23.6651 H   0  0  0  0  0  0
  -26.0624  -31.5667   20.5929 H   0  0  0  0  0  0
  -26.8311  -30.8668   21.9883 H   0  0  0  0  0  0
  -28.1161  -29.0528   21.1584 H   0  0  0  0  0  0
  -26.0471  -25.9522   18.9937 H   0  0  0  0  0  0
  -23.9809  -27.2842   19.0341 H   0  0  0  0  0  0
  -23.7425  -30.5831   19.4042 H   0  0  0  0  0  0
  -22.7457  -29.2367   19.8678 H   0  0  0  0  0  0
  -25.1284  -36.1950   25.0827 H   0  0  0  0  0  0
  -20.9959  -28.3237   24.1437 H   0  0  0  0  0  0
  -20.5676  -26.2276   23.3607 H   0  0  0  0  0  0
  -21.6640  -26.7449   22.1208 H   0  0  0  0  0  0
  -19.6910  -25.6301   21.1234 H   0  0  0  0  0  0
  -19.6688  -27.3209   20.6755 H   0  0  0  0  0  0
  -17.4199  -26.6680   21.4022 H   0  0  0  0  0  0
  -18.0321  -26.0068   22.9018 H   0  0  0  0  0  0
  -19.7924  -30.7264   24.2282 H   0  0  0  0  0  0
  -17.5003  -31.6263   24.5165 H   0  0  0  0  0  0
  -15.5343  -30.2982   23.7645 H   0  0  0  0  0  0
  -15.8669  -28.0828   22.7042 H   0  0  0  0  0  0
  -24.5917  -30.7050   25.7799 H   0  0  0  0  0  0
  -24.8921  -32.2875   26.4884 H   0  0  0  0  0  0
  -25.8084  -30.8903   27.0225 H   0  0  0  0  0  0
  -26.2852  -29.6784   24.1163 H   0  0  0  0  0  0
  -27.4040  -29.7252   25.4594 H   0  0  0  0  0  0
  -27.8710  -30.4309   23.9295 H   0  0  0  0  0  0
  -27.2681  -33.3603   26.2072 H   0  0  0  0  0  0
  -28.3862  -32.6867   25.0299 H   0  0  0  0  0  0
  -28.0732  -31.8417   26.5382 H   0  0  0  0  0  0
  -28.2591  -38.0108   24.7521 H   0  0  0  0  0  0
  -28.1088  -36.2639   24.6259 H   0  0  0  0  0  0
  -27.2309  -37.1423   25.8865 H   0  0  0  0  0  0
  -20.9335  -29.8745   21.6922 H   0  0  0  0  0  0
  -26.0176  -38.2861   24.1422 H   0  0  0  0  0  0
  -31.7100  -17.0774   22.0323 H   0  0  0  0  0  0
  -28.1728  -19.8608   19.9127 H   0  0  0  0  0  0
  -26.6051  -24.4200   20.6424 H   0  0  0  0  0  0
  -27.5488  -24.0405   19.2200 H   0  0  0  0  0  0
  -30.0253  -24.7585   19.1228 H   0  0  0  0  0  0
  -30.7283  -25.6095   20.4703 H   0  0  0  0  0  0
  -27.2938  -22.0324   20.6886 H   0  0  0  0  0  0
  -27.9551  -22.9054   22.0407 H   0  0  0  0  0  0
  -30.5169  -23.6471   21.9171 H   0  0  0  0  0  0
  -31.4128  -23.2316   20.4858 H   0  0  0  0  0  0
  -28.5787  -25.4892   21.7185 H   0  0  0  0  0  0
  -29.4909  -22.0244   19.5360 H   0  0  0  0  0  0
  -32.7976  -19.0093   22.8391 H   0  0  0  0  0  0
  -31.6121  -20.1770   23.4318 H   0  0  0  0  0  0
  -32.5324  -20.5168   21.9632 H   0  0  0  0  0  0
  -26.3294  -17.2306   18.2360 H   0  0  0  0  0  0
  -27.4745  -18.5525   18.0576 H   0  0  0  0  0  0
  -26.3559  -18.5089   19.4423 H   0  0  0  0  0  0
  -28.8092  -15.2776   20.8981 H   0  0  0  0  0  0
  1 25  1  0  0  0
  1 30  2  0  0  0
  1 85  1  0  0  0
  2  3  1  0  0  0
  2 25  1  0  0  0
  2 88  1  0  0  0
  2 89  1  0  0  0
  3  4  1  0  0  0
  3 90  1  0  0  0
  3 91  1  0  0  0
  4  5  1  0  0  0
  4 92  1  0  0  0
  4 93  1  0  0  0
  5  6  1  0  0  0
  5 26  1  0  0  0
  5 94  1  0  0  0
  6 25  1  0  0  0
  6 95  1  0  0  0
  6 96  1  0  0  0
  7  8  2  0  0  0
  7 26  1  0  0  0
  7 29  1  0  0  0
  8  9  1  0  0  0
  8 22  1  0  0  0
  9 10  1  0  0  0
  9 27  2  0  0  0
 10 11  2  0  0  0
 10 15  1  0  0  0
 11 12  1  0  0  0
 11 97  1  0  0  0
 12 13  2  0  0  0
 12 98  1  0  0  0
 13 14  1  0  0  0
 13 31  1  0  0  0
 14 15  2  0  0  0
 14 99  1  0  0  0
 15100  1  0  0  0
 16 17  2  0  0  0
 16 21  1  0  0  0
 16 31  1  0  0  0
 17 18  1  0  0  0
 17101  1  0  0  0
 18 19  2  0  0  0
 18102  1  0  0  0
 19 20  1  0  0  0
 19 24  1  0  0  0
 20 21  2  0  0  0
 20103  1  0  0  0
 21 23  1  0  0  0
 22 28  1  0  0  0
 22 32  2  0  0  0
 26 27  1  0  0  0
 28104  1  0  0  0
 28105  1  0  0  0
 29106  1  0  0  0
 29107  1  0  0  0
 33 34  1  0  0  0
 33 66  1  0  0  0
 33 70  2  0  0  0
 34 36  1  0  0  0
 34 59  1  0  0  0
 34108  1  0  0  0
 35 44  2  0  0  0
 35 45  1  0  0  0
 35 68  1  0  0  0
 36 56  1  0  0  0
 36109  1  0  0  0
 37 39  1  0  0  0
 37 47  1  0  0  0
 37 66  1  0  0  0
 37110  1  0  0  0
 38 43  2  0  0  0
 38 46  1  0  0  0
 38 47  1  0  0  0
 39 64  1  0  0  0
 39 67  2  0  0  0
 40 52  1  0  0  0
 40 53  2  0  0  0
 40 58  1  0  0  0
 41111  1  0  0  0
 41112  1  0  0  0
 41113  1  0  0  0
 41 48  1  0  0  0
 42 43  1  0  0  0
 42 66  1  0  0  0
 42114  1  0  0  0
 42115  1  0  0  0
 43 44  1  0  0  0
 44116  1  0  0  0
 45 46  2  0  0  0
 45117  1  0  0  0
 46118  1  0  0  0
 47119  1  0  0  0
 47120  1  0  0  0
 48 56  1  0  0  0
 48 65  1  0  0  0
 48121  1  0  0  0
 49 50  1  0  0  0
 49 53  1  0  0  0
 49 64  1  0  0  0
 49122  1  0  0  0
 50 51  1  0  0  0
 50123  1  0  0  0
 50124  1  0  0  0
 51 52  1  0  0  0
 51125  1  0  0  0
 51126  1  0  0  0
 52127  1  0  0  0
 52128  1  0  0  0
 53 54  1  0  0  0
 54 55  2  0  0  0
 54129  1  0  0  0
 55 57  1  0  0  0
 55130  1  0  0  0
 56 69  2  0  0  0
 57 58  2  0  0  0
 57131  1  0  0  0
 58132  1  0  0  0
 59 60  1  0  0  0
 59 61  1  0  0  0
 59 62  1  0  0  0
 60133  1  0  0  0
 60134  1  0  0  0
 60135  1  0  0  0
 61136  1  0  0  0
 61137  1  0  0  0
 61138  1  0  0  0
 62139  1  0  0  0
 62140  1  0  0  0
 62141  1  0  0  0
 63 65  1  0  0  0
 63142  1  0  0  0
 63143  1  0  0  0
 63144  1  0  0  0
 64145  1  0  0  0
 65146  1  0  0  0
 68 81  1  0  0  0
 71 73  2  0  0  0
 71 74  1  0  0  0
 71147  1  0  0  0
 72 75  2  0  0  0
 72 76  1  0  0  0
 72148  1  0  0  0
 73 75  1  0  0  0
 73 83  1  0  0  0
 74 76  2  0  0  0
 74 85  1  0  0  0
 75 86  1  0  0  0
 76 87  1  0  0  0
 77 79  1  0  0  0
 77 81  1  0  0  0
 77149  1  0  0  0
 77150  1  0  0  0
 78 80  1  0  0  0
 78 81  1  0  0  0
 78151  1  0  0  0
 78152  1  0  0  0
 79 82  1  0  0  0
 79153  1  0  0  0
 79154  1  0  0  0
 80 82  1  0  0  0
 80155  1  0  0  0
 80156  1  0  0  0
 81157  1  0  0  0
 82 86  1  0  0  0
 82158  1  0  0  0
 83159  1  0  0  0
 83160  1  0  0  0
 83161  1  0  0  0
 84 87  1  0  0  0
 84162  1  0  0  0
 84163  1  0  0  0
 84164  1  0  0  0
 85165  1  0  0  0
M  ISO  4   1 100  68 101  81 101  85 100
M  END
> <chiral flag>
0

> <version>
0

> <s_m_source_file>
/data/baiqing/PycharmProjects/Reinvent-master-3.2/result/LINK_invent/BTK/process_docking_weight1_custom_sum_contain_oxygen_bond_distance_aromatic_linkinvent_7_9_3/rearranged_h_0148.sdf

> <i_m_source_file_index>
89

> <r_mmod_Potential_Energy-OPLS-2005>
0.0748879835009575

> <r_mmod_Stretch_Energy-OPLS-2005>
53.959098815918

> <r_mmod_Bend_Energy-OPLS-2005>
154.525207519531

> <r_mmod_Torsional_Energy-OPLS-2005>
270.570709228516

> <r_mmod_Improper_Torsional_Energy-OPLS-2005>
6.80164909362793

> <r_mmod_Van_der_Waal_Energy-OPLS-2005>
141.744918823242

> <r_mmod_Electrostatic_Energy-OPLS-2005>
-453.563323974609

> <r_mmod_Solvation_Energy-OPLS-2005>
-201.134765625

> <b_mmod_Minimization_Converged-OPLS-2005>
0

> <r_mmod_RMS_Derivative-OPLS-2005>
0.569941937923431

$$$$
89
                    3D
 Structure written by MMmdl.
190199  0  0  1  0            999 V2000
  -30.5368  -14.5940   20.3531 C   0  0  0  0  0  0
  -30.4436  -12.3396   19.3901 C   0  0  0  0  0  0
  -29.4915  -12.4519   18.1785 C   0  0  0  0  0  0
  -28.0167  -12.2876   18.6100 C   0  0  0  0  0  0
  -27.6362  -13.1576   19.8334 C   0  0  2  0  0  0
  -28.6994  -13.0365   20.9517 C   0  0  0  0  0  0
  -25.2570  -13.7985   20.5617 C   0  0  0  0  0  0
  -24.1826  -13.0337   20.9277 C   0  0  0  0  0  0
  -24.6362  -11.6796   20.8798 C   0  0  0  0  0  0
  -23.9019  -10.4252   21.0423 C   0  0  0  0  0  0
  -24.3581   -9.4211   21.9201 C   0  0  0  0  0  0
  -23.6301   -8.2215   22.0780 C   0  0  0  0  0  0
  -22.4251   -8.0285   21.3599 C   0  0  0  0  0  0
  -21.9879   -9.0217   20.4658 C   0  0  0  0  0  0
  -22.7190  -10.2119   20.3085 C   0  0  0  0  0  0
  -21.6839   -6.0754   22.5289 C   0  0  0  0  0  0
  -21.3994   -6.5669   23.8221 C   0  0  0  0  0  0
  -21.3644   -5.6821   24.9188 C   0  0  0  0  0  0
  -21.6068   -4.3088   24.7228 C   0  0  0  0  0  0
  -21.8803   -3.8171   23.4332 C   0  0  0  0  0  0
  -21.9221   -4.6992   22.3406 C   0  0  0  0  0  0
  -22.7913  -13.5247   21.1883 C   0  0  0  0  0  0
  -22.1685   -4.2196   21.0971 F   0  0  0  0  0  0
  -21.5635   -3.4553   25.7724 F   0  0  0  0  0  0
  -30.0105  -13.3486   20.3564 N   0  0  0  0  0  0
  -26.2896  -12.9032   20.3169 N   0  0  0  0  0  0
  -25.9232  -11.6263   20.5741 N   0  0  0  0  0  0
  -22.0438  -12.8266   22.0437 N   0  0  0  0  0  0
  -25.4218  -15.1660   20.3789 N   0  0  0  0  0  0
  -31.7494  -14.8230   20.2197 O   0  0  0  0  0  0
  -21.6634   -6.8861   21.4256 O   0  0  0  0  0  0
  -22.3671  -14.5562   20.6736 O   0  0  0  0  0  0
  -24.6249  -31.8734   23.2059 C   0  0  0  0  0  0
  -25.9098  -32.4867   23.8389 C   0  0  1  0  0  0
  -27.1875  -27.3693   20.0553 C   0  0  0  0  0  0
  -25.5965  -33.8650   24.2344 N   0  0  0  0  0  0
  -23.4110  -30.5061   21.5439 C   0  0  2  0  0  0
  -24.8351  -28.9623   20.1076 C   0  0  0  0  0  0
  -22.7372  -29.4882   22.4916 C   0  0  0  0  0  0
  -18.0310  -28.1535   22.8350 C   0  0  0  0  0  0
  -24.1485  -36.7319   23.2623 C   0  0  0  0  0  0
  -25.9463  -30.8184   21.3571 C   0  0  0  0  0  0
  -26.0103  -29.4480   20.6935 C   0  0  0  0  0  0
  -27.1953  -28.6618   20.6503 C   0  0  0  0  0  0
  -25.9625  -26.8970   19.5310 C   0  0  0  0  0  0
  -24.8084  -27.6932   19.5219 C   0  0  0  0  0  0
  -23.6085  -29.8365   20.1644 C   0  0  0  0  0  0
  -25.4108  -36.3140   24.0325 C   0  0  1  0  0  0
  -20.5918  -28.3869   23.1111 C   0  0  2  0  0  0
  -20.6900  -26.9651   22.5093 C   0  0  0  0  0  0
  -19.5702  -26.6419   21.5150 C   0  0  0  0  0  0
  -18.1915  -26.7971   22.1636 C   0  0  0  0  0  0
  -19.1575  -28.9074   23.2695 C   0  0  0  0  0  0
  -18.9443  -30.1723   23.8594 C   0  0  0  0  0  0
  -17.6276  -30.6567   24.0420 C   0  0  0  0  0  0
  -25.9038  -34.9524   23.5130 C   0  0  0  0  0  0
  -16.5166  -29.9032   23.6302 C   0  0  0  0  0  0
  -16.7253  -28.6581   23.0139 C   0  0  0  0  0  0
  -26.4534  -31.6665   25.0755 C   0  0  0  0  0  0
  -25.3766  -31.3740   26.1448 C   0  0  0  0  0  0
  -27.0287  -30.3100   24.6119 C   0  0  0  0  0  0
  -27.6148  -32.4339   25.7544 C   0  0  0  0  0  0
  -27.5596  -37.1813   24.8473 C   0  0  0  0  0  0
  -21.4117  -29.3350   22.3626 N   0  0  0  0  0  0
  -26.4332  -37.3821   23.9380 N   0  0  0  0  0  0
  -24.6818  -31.0850   22.0935 N   0  0  0  0  0  0
  -23.4008  -28.8426   23.3080 O   0  0  0  0  0  0
  -28.3490  -26.6062   20.0054 O   0  0  0  0  0  0
  -26.5578  -34.9002   22.4689 O   0  0  0  0  0  0
  -23.5419  -32.1415   23.7442 O   0  0  0  0  0  0
  -28.0381  -22.7060   20.0719 C   0  0  0  0  0  0
  -28.2626  -23.4012   17.6984 C   0  0  0  0  0  0
  -27.7255  -24.1694   20.5008 C   0  0  0  0  0  0
  -28.0435  -24.8973   18.0657 C   0  0  0  0  0  0
  -26.7468  -18.5149   21.0973 C   0  0  0  0  0  0
  -27.5126  -22.4038   18.6457 C   0  0  1  0  0  0
  -25.4934  -19.3855   21.0605 C   0  0  2  0  0  0
  -25.5233  -20.1255   19.7007 C   0  0  1  0  0  0
  -28.3888  -25.2057   19.5532 C   0  0  1  0  0  0
  -26.8813  -19.7381   19.0427 C   0  0  1  0  0  0
  -25.4112  -20.2546   22.3429 C   0  0  0  0  0  0
  -27.1208  -20.7564   16.7331 C   0  0  0  0  0  0
  -22.3148  -20.3757   20.2106 C   0  0  0  0  0  0
  -23.2109  -22.0498   18.5151 C   0  0  0  0  0  0
  -30.6047  -17.7001   20.9682 C   0  0  0  0  0  0
  -24.3384  -19.7550   18.7440 C   0  0  0  0  0  0
  -28.4725  -17.7985   19.4636 C   0  0  0  0  0  0
  -27.6267  -20.8763   18.1996 C   0  0  1  0  0  0
  -23.0323  -20.5687   18.8823 C   0  0  0  0  0  0
  -29.3413  -16.9604   20.5063 C   0  0  2  0  0  0
  -29.5643  -15.5253   20.1706 N   0  0  0  0  0  0
  -27.6965  -18.9659   20.0408 N   0  3  2  0  0  0
  -31.4841  -12.4895   19.0964 H   0  0  0  0  0  0
  -30.4031  -11.3436   19.8313 H   0  0  0  0  0  0
  -29.7433  -11.6944   17.4346 H   0  0  0  0  0  0
  -29.6272  -13.4126   17.6762 H   0  0  0  0  0  0
  -27.8582  -11.2325   18.8332 H   0  0  0  0  0  0
  -27.3605  -12.5263   17.7744 H   0  0  0  0  0  0
  -27.6141  -14.1699   19.4484 H   0  0  0  0  0  0
  -28.7150  -12.0344   21.3679 H   0  0  0  0  0  0
  -28.4753  -13.6910   21.7969 H   0  0  0  0  0  0
  -25.2710   -9.5751   22.4774 H   0  0  0  0  0  0
  -24.0043   -7.4645   22.7529 H   0  0  0  0  0  0
  -21.0795   -8.8757   19.8951 H   0  0  0  0  0  0
  -22.3645  -10.9688   19.6231 H   0  0  0  0  0  0
  -21.1929   -7.6164   23.9747 H   0  0  0  0  0  0
  -21.1484   -6.0524   25.9100 H   0  0  0  0  0  0
  -22.0581   -2.7636   23.2810 H   0  0  0  0  0  0
  -22.3889  -11.9918   22.4856 H   0  0  0  0  0  0
  -21.1105  -13.1448   22.2569 H   0  0  0  0  0  0
  -24.5929  -15.7507   20.3735 H   0  0  0  0  0  0
  -26.1941  -15.5611   19.8597 H   0  0  0  0  0  0
  -26.7141  -32.5526   23.1108 H   0  0  0  0  0  0
  -25.0126  -33.9787   25.0493 H   0  0  0  0  0  0
  -22.6998  -31.3249   21.3958 H   0  0  0  0  0  0
  -23.3799  -35.9616   23.3290 H   0  0  0  0  0  0
  -24.3563  -36.8925   22.2049 H   0  0  0  0  0  0
  -23.7237  -37.6515   23.6629 H   0  0  0  0  0  0
  -26.0388  -31.5792   20.5806 H   0  0  0  0  0  0
  -26.8373  -30.8776   21.9715 H   0  0  0  0  0  0
  -28.1074  -29.0319   21.0927 H   0  0  0  0  0  0
  -25.8289  -25.8977   19.1471 H   0  0  0  0  0  0
  -23.8956  -27.3016   19.0897 H   0  0  0  0  0  0
  -23.7232  -30.5995   19.3991 H   0  0  0  0  0  0
  -22.7314  -29.2657   19.8672 H   0  0  0  0  0  0
  -25.1283  -36.1973   25.0824 H   0  0  0  0  0  0
  -21.0078  -28.3457   24.1217 H   0  0  0  0  0  0
  -20.6227  -26.2651   23.3304 H   0  0  0  0  0  0
  -21.6620  -26.7843   22.0522 H   0  0  0  0  0  0
  -19.6460  -27.3120   20.6530 H   0  0  0  0  0  0
  -19.6965  -25.6286   21.1360 H   0  0  0  0  0  0
  -17.4166  -26.6669   21.3982 H   0  0  0  0  0  0
  -18.0212  -26.0157   22.9074 H   0  0  0  0  0  0
  -19.7870  -30.7747   24.1820 H   0  0  0  0  0  0
  -17.4688  -31.6096   24.5253 H   0  0  0  0  0  0
  -15.5120  -30.2615   23.7893 H   0  0  0  0  0  0
  -15.8703  -28.0875   22.6735 H   0  0  0  0  0  0
  -24.6008  -30.7053   25.7717 H   0  0  0  0  0  0
  -24.8895  -32.2871   26.4867 H   0  0  0  0  0  0
  -25.8093  -30.8915   27.0196 H   0  0  0  0  0  0
  -26.2768  -29.6940   24.1187 H   0  0  0  0  0  0
  -27.3993  -29.7315   25.4566 H   0  0  0  0  0  0
  -27.8656  -30.4387   23.9254 H   0  0  0  0  0  0
  -27.2850  -33.3623   26.2173 H   0  0  0  0  0  0
  -28.4005  -32.6861   25.0443 H   0  0  0  0  0  0
  -28.0762  -31.8407   26.5419 H   0  0  0  0  0  0
  -28.2601  -38.0117   24.7504 H   0  0  0  0  0  0
  -28.1090  -36.2636   24.6302 H   0  0  0  0  0  0
  -27.2285  -37.1484   25.8874 H   0  0  0  0  0  0
  -20.9255  -29.8931   21.6712 H   0  0  0  0  0  0
  -26.0193  -38.2880   24.1448 H   0  0  0  0  0  0
  -27.6353  -22.0119   20.8052 H   0  0  0  0  0  0
  -29.1172  -22.5532   20.0962 H   0  0  0  0  0  0
  -29.3316  -23.1730   17.6906 H   0  0  0  0  0  0
  -27.9172  -23.2962   16.6738 H   0  0  0  0  0  0
  -28.0606  -24.3385   21.5243 H   0  0  0  0  0  0
  -26.6468  -24.3065   20.5164 H   0  0  0  0  0  0
  -28.6434  -25.5347   17.4206 H   0  0  0  0  0  0
  -27.0176  -25.1098   17.7901 H   0  0  0  0  0  0
  -26.4183  -17.4903   20.9132 H   0  0  0  0  0  0
  -27.2312  -18.5225   22.0743 H   0  0  0  0  0  0
  -26.4561  -22.6909   18.5959 H   0  0  0  0  0  0
  -24.6288  -18.7314   21.0502 H   0  0  0  0  0  0
  -25.5011  -21.1823   19.9234 H   0  0  0  0  0  0
  -29.4613  -24.9953   19.6173 H   0  0  0  0  0  0
  -26.6134  -18.9286   18.3660 H   0  0  0  0  0  0
  -24.4926  -20.8300   22.4532 H   0  0  0  0  0  0
  -26.2427  -20.9464   22.4225 H   0  0  0  0  0  0
  -25.4713  -19.6323   23.2355 H   0  0  0  0  0  0
  -27.7569  -21.2739   16.0105 H   0  0  0  0  0  0
  -26.1174  -21.1753   16.6432 H   0  0  0  0  0  0
  -27.1078  -19.7211   16.3861 H   0  0  0  0  0  0
  -21.3979  -20.9617   20.2615 H   0  0  0  0  0  0
  -22.9398  -20.6373   21.0631 H   0  0  0  0  0  0
  -22.0178  -19.3419   20.3181 H   0  0  0  0  0  0
  -22.2611  -22.5936   18.5737 H   0  0  0  0  0  0
  -23.5688  -22.1331   17.4946 H   0  0  0  0  0  0
  -23.9165  -22.5543   19.1712 H   0  0  0  0  0  0
  -30.3375  -18.6656   21.3826 H   0  0  0  0  0  0
  -31.2868  -17.8671   20.1333 H   0  0  0  0  0  0
  -31.1325  -17.1434   21.7424 H   0  0  0  0  0  0
  -24.6618  -19.8792   17.7096 H   0  0  0  0  0  0
  -24.1005  -18.6861   18.8039 H   0  0  0  0  0  0
  -27.7439  -17.1388   18.9993 H   0  0  0  0  0  0
  -29.0953  -18.1832   18.6460 H   0  0  0  0  0  0
  -28.6887  -20.6215   18.1971 H   0  0  0  0  0  0
  -22.3570  -20.1777   18.1193 H   0  0  0  0  0  0
  -28.7019  -16.8301   21.3724 H   0  0  0  0  0  0
  -28.6937  -15.0446   19.9947 H   0  0  0  0  0  0
  -28.3235  -19.6275   20.4557 H   0  0  0  0  0  0
  1 25  1  0  0  0
  1 30  2  0  0  0
  1 91  1  0  0  0
  2  3  1  0  0  0
  2 25  1  0  0  0
  2 93  1  0  0  0
  2 94  1  0  0  0
  3  4  1  0  0  0
  3 95  1  0  0  0
  3 96  1  0  0  0
  4  5  1  0  0  0
  4 97  1  0  0  0
  4 98  1  0  0  0
  5  6  1  0  0  0
  5 26  1  0  0  0
  5 99  1  0  0  0
  6 25  1  0  0  0
  6100  1  0  0  0
  6101  1  0  0  0
  7  8  2  0  0  0
  7 26  1  0  0  0
  7 29  1  0  0  0
  8  9  1  0  0  0
  8 22  1  0  0  0
  9 10  1  0  0  0
  9 27  2  0  0  0
 10 11  2  0  0  0
 10 15  1  0  0  0
 11 12  1  0  0  0
 11102  1  0  0  0
 12 13  2  0  0  0
 12103  1  0  0  0
 13 14  1  0  0  0
 13 31  1  0  0  0
 14 15  2  0  0  0
 14104  1  0  0  0
 15105  1  0  0  0
 16 17  2  0  0  0
 16 21  1  0  0  0
 16 31  1  0  0  0
 17 18  1  0  0  0
 17106  1  0  0  0
 18 19  2  0  0  0
 18107  1  0  0  0
 19 20  1  0  0  0
 19 24  1  0  0  0
 20 21  2  0  0  0
 20108  1  0  0  0
 21 23  1  0  0  0
 22 28  1  0  0  0
 22 32  2  0  0  0
 26 27  1  0  0  0
 28109  1  0  0  0
 28110  1  0  0  0
 29111  1  0  0  0
 29112  1  0  0  0
 33 34  1  0  0  0
 33 66  1  0  0  0
 33 70  2  0  0  0
 34 36  1  0  0  0
 34 59  1  0  0  0
 34113  1  0  0  0
 35 44  2  0  0  0
 35 45  1  0  0  0
 35 68  1  0  0  0
 36 56  1  0  0  0
 36114  1  0  0  0
 37 39  1  0  0  0
 37 47  1  0  0  0
 37 66  1  0  0  0
 37115  1  0  0  0
 38 43  2  0  0  0
 38 46  1  0  0  0
 38 47  1  0  0  0
 39 64  1  0  0  0
 39 67  2  0  0  0
 40 52  1  0  0  0
 40 53  2  0  0  0
 40 58  1  0  0  0
 41116  1  0  0  0
 41117  1  0  0  0
 41118  1  0  0  0
 41 48  1  0  0  0
 42 43  1  0  0  0
 42 66  1  0  0  0
 42119  1  0  0  0
 42120  1  0  0  0
 43 44  1  0  0  0
 44121  1  0  0  0
 45 46  2  0  0  0
 45122  1  0  0  0
 46123  1  0  0  0
 47124  1  0  0  0
 47125  1  0  0  0
 48 56  1  0  0  0
 48 65  1  0  0  0
 48126  1  0  0  0
 49 50  1  0  0  0
 49 53  1  0  0  0
 49 64  1  0  0  0
 49127  1  0  0  0
 50 51  1  0  0  0
 50128  1  0  0  0
 50129  1  0  0  0
 51 52  1  0  0  0
 51130  1  0  0  0
 51131  1  0  0  0
 52132  1  0  0  0
 52133  1  0  0  0
 53 54  1  0  0  0
 54 55  2  0  0  0
 54134  1  0  0  0
 55 57  1  0  0  0
 55135  1  0  0  0
 56 69  2  0  0  0
 57 58  2  0  0  0
 57136  1  0  0  0
 58137  1  0  0  0
 59 60  1  0  0  0
 59 61  1  0  0  0
 59 62  1  0  0  0
 60138  1  0  0  0
 60139  1  0  0  0
 60140  1  0  0  0
 61141  1  0  0  0
 61142  1  0  0  0
 61143  1  0  0  0
 62144  1  0  0  0
 62145  1  0  0  0
 62146  1  0  0  0
 63 65  1  0  0  0
 63147  1  0  0  0
 63148  1  0  0  0
 63149  1  0  0  0
 64150  1  0  0  0
 65151  1  0  0  0
 68 79  1  0  0  0
 71 73  1  0  0  0
 71152  1  0  0  0
 71153  1  0  0  0
 71 76  1  0  0  0
 72 74  1  0  0  0
 72 76  1  0  0  0
 72154  1  0  0  0
 72155  1  0  0  0
 73 79  1  0  0  0
 73156  1  0  0  0
 73157  1  0  0  0
 74 79  1  0  0  0
 74158  1  0  0  0
 74159  1  0  0  0
 75 77  1  0  0  0
 75 92  1  0  0  0
 75160  1  0  0  0
 75161  1  0  0  0
 76 88  1  0  0  0
 76162  1  0  0  0
 77 78  1  0  0  0
 77 81  1  0  0  0
 77163  1  0  0  0
 78 80  1  0  0  0
 78 86  1  0  0  0
 78164  1  0  0  0
 79165  1  0  0  0
 80 88  1  0  0  0
 80 92  1  0  0  0
 80166  1  0  0  0
 81167  1  0  0  0
 81168  1  0  0  0
 81169  1  0  0  0
 82170  1  0  0  0
 82171  1  0  0  0
 82172  1  0  0  0
 82 88  1  0  0  0
 83173  1  0  0  0
 83174  1  0  0  0
 83175  1  0  0  0
 83 89  1  0  0  0
 84 89  1  0  0  0
 84176  1  0  0  0
 84177  1  0  0  0
 84178  1  0  0  0
 85179  1  0  0  0
 85180  1  0  0  0
 85181  1  0  0  0
 85 90  1  0  0  0
 86 89  1  0  0  0
 86182  1  0  0  0
 86183  1  0  0  0
 87 90  1  0  0  0
 87184  1  0  0  0
 87185  1  0  0  0
 87 92  1  0  0  0
 88186  1  0  0  0
 89187  1  0  0  0
 90 91  1  0  0  0
 90188  1  0  0  0
 91189  1  0  0  0
 92190  1  0  0  0
M  CHG  1  92   1
M  ISO  4   1 100  68 101  79 101  91 100
M  END
> <chiral flag>
0

> <version>
0

> <s_m_source_file>
/data/baiqing/PycharmProjects/Reinvent-master-3.2/result/LINK_invent/BTK/process_docking_weight1_custom_sum_contain_oxygen_bond_distance_aromatic_linkinvent_7_9_3/rearranged_h_0148.sdf

> <i_m_source_file_index>
90

> <r_mmod_Potential_Energy-OPLS-2005>
200.82682800293

> <r_mmod_Stretch_Energy-OPLS-2005>
72.6916046142578

> <r_mmod_Bend_Energy-OPLS-2005>
208.805404663086

> <r_mmod_Torsional_Energy-OPLS-2005>
384.556304931641

> <r_mmod_Improper_Torsional_Energy-OPLS-2005>
11.8366374969482

> <r_mmod_Van_der_Waal_Energy-OPLS-2005>
132.795959472656

> <r_mmod_Electrostatic_Energy-OPLS-2005>
-227.450820922852

> <r_mmod_Solvation_Energy-OPLS-2005>
-432.921569824219

> <b_mmod_Minimization_Converged-OPLS-2005>
0

> <r_mmod_RMS_Derivative-OPLS-2005>
15.3853425979614

$$$$
90
                    3D
 Structure written by MMmdl.
176185  0  0  1  0            999 V2000
  -30.7033  -14.5118   20.5624 C   0  0  0  0  0  0
  -30.4114  -12.3334   19.4380 C   0  0  0  0  0  0
  -29.4915  -12.5187   18.2139 C   0  0  0  0  0  0
  -28.0090  -12.3828   18.6175 C   0  0  0  0  0  0
  -27.6519  -13.2171   19.8772 C   0  0  2  0  0  0
  -28.6934  -12.9992   20.9943 C   0  0  0  0  0  0
  -25.2510  -13.8180   20.5706 C   0  0  0  0  0  0
  -24.1780  -13.0429   20.9185 C   0  0  0  0  0  0
  -24.6364  -11.6908   20.8749 C   0  0  0  0  0  0
  -23.9045  -10.4287   21.0401 C   0  0  0  0  0  0
  -24.3599   -9.4209   21.9182 C   0  0  0  0  0  0
  -23.6288   -8.2232   22.0742 C   0  0  0  0  0  0
  -22.4272   -8.0266   21.3533 C   0  0  0  0  0  0
  -21.9894   -9.0237   20.4636 C   0  0  0  0  0  0
  -22.7211  -10.2131   20.3058 C   0  0  0  0  0  0
  -21.6841   -6.0738   22.5285 C   0  0  0  0  0  0
  -21.4013   -6.5640   23.8220 C   0  0  0  0  0  0
  -21.3667   -5.6791   24.9177 C   0  0  0  0  0  0
  -21.6048   -4.3048   24.7223 C   0  0  0  0  0  0
  -21.8814   -3.8154   23.4341 C   0  0  0  0  0  0
  -21.9184   -4.6975   22.3404 C   0  0  0  0  0  0
  -22.7807  -13.5223   21.1842 C   0  0  0  0  0  0
  -22.1636   -4.2171   21.0974 F   0  0  0  0  0  0
  -21.5641   -3.4529   25.7730 F   0  0  0  0  0  0
  -30.0090  -13.3403   20.4374 N   0  0  0  0  0  0
  -26.2955  -12.9368   20.3386 N   0  0  0  0  0  0
  -25.9296  -11.6512   20.5763 N   0  0  0  0  0  0
  -22.0449  -12.8241   22.0423 N   0  0  0  0  0  0
  -25.4176  -15.1900   20.4138 N   0  0  0  0  0  0
  -31.8734  -14.5893   20.1682 O   0  0  0  0  0  0
  -21.6622   -6.8881   21.4240 O   0  0  0  0  0  0
  -22.3494  -14.5513   20.6655 O   0  0  0  0  0  0
  -24.6129  -31.8673   23.2132 C   0  0  0  0  0  0
  -25.9029  -32.4813   23.8430 C   0  0  1  0  0  0
  -27.2294  -27.4439   20.1079 C   0  0  0  0  0  0
  -25.5899  -33.8619   24.2353 N   0  0  0  0  0  0
  -23.4030  -30.4917   21.5498 C   0  0  2  0  0  0
  -24.8508  -28.9620   20.1148 C   0  0  0  0  0  0
  -22.7425  -29.4636   22.4952 C   0  0  0  0  0  0
  -18.0281  -28.1404   22.8529 C   0  0  0  0  0  0
  -24.1489  -36.7317   23.2645 C   0  0  0  0  0  0
  -25.9303  -30.8383   21.3659 C   0  0  0  0  0  0
  -26.0078  -29.4714   20.7190 C   0  0  0  0  0  0
  -27.2028  -28.7170   20.7220 C   0  0  0  0  0  0
  -26.0644  -26.9521   19.4900 C   0  0  0  0  0  0
  -24.8717  -27.6972   19.5006 C   0  0  0  0  0  0
  -23.6133  -29.8294   20.1622 C   0  0  0  0  0  0
  -25.4109  -36.3107   24.0344 C   0  0  1  0  0  0
  -20.5873  -28.3714   23.1312 C   0  0  2  0  0  0
  -20.6772  -26.9442   22.5445 C   0  0  0  0  0  0
  -19.5732  -26.6391   21.5267 C   0  0  0  0  0  0
  -18.1930  -26.7930   22.1713 C   0  0  0  0  0  0
  -19.1532  -28.8891   23.2906 C   0  0  0  0  0  0
  -18.9443  -30.1514   23.8892 C   0  0  0  0  0  0
  -17.6435  -30.6631   24.0550 C   0  0  0  0  0  0
  -25.9032  -34.9466   23.5145 C   0  0  0  0  0  0
  -16.5338  -29.9114   23.6312 C   0  0  0  0  0  0
  -16.7271  -28.6518   23.0369 C   0  0  0  0  0  0
  -26.4482  -31.6587   25.0745 C   0  0  0  0  0  0
  -25.3786  -31.3665   26.1518 C   0  0  0  0  0  0
  -27.0300  -30.3030   24.6083 C   0  0  0  0  0  0
  -27.6050  -32.4317   25.7505 C   0  0  0  0  0  0
  -27.5579  -37.1809   24.8461 C   0  0  0  0  0  0
  -21.4149  -29.3031   22.3680 N   0  0  0  0  0  0
  -26.4291  -37.3792   23.9408 N   0  0  0  0  0  0
  -24.6669  -31.0800   22.1015 N   0  0  0  0  0  0
  -23.4184  -28.8180   23.2996 O   0  0  0  0  0  0
  -28.3481  -26.6454   20.0719 O   0  0  0  0  0  0
  -26.5575  -34.8907   22.4695 O   0  0  0  0  0  0
  -23.5328  -32.1405   23.7522 O   0  0  0  0  0  0
  -25.9439  -22.3397   21.1779 C   0  0  0  0  0  0
  -26.9946  -21.4392   20.9482 C   0  0  0  0  0  0
  -26.2327  -23.6646   21.5840 C   0  0  0  0  0  0
  -27.5975  -24.0329   21.7136 C   0  0  0  0  0  0
  -28.3126  -21.8832   21.1227 C   0  0  0  0  0  0
  -29.2731  -17.4912   22.3133 C   0  0  0  0  0  0
  -29.1288  -16.0176   21.8472 C   0  0  0  0  0  0
  -30.4420  -16.8457   19.9114 C   0  0  0  0  0  0
  -28.9952  -18.5578   21.2222 C   0  0  2  0  0  0
  -29.4055  -17.9916   19.8275 C   0  0  1  0  0  0
  -29.8502  -19.0441   18.7991 C   0  0  0  0  0  0
  -27.6055  -24.7364   24.7321 C   0  0  0  0  0  0
  -23.9013  -24.1549   21.9617 C   0  0  0  0  0  0
  -29.6156  -19.9253   21.6655 C   0  0  0  0  0  0
  -28.5628  -25.3447   23.6940 C   0  0  0  0  0  0
  -28.9062  -26.2783   21.3381 C   0  0  0  0  0  0
  -27.9866  -25.4242   22.2603 C   0  0  1  0  0  0
  -28.6118  -23.1530   21.4844 N   0  0  0  0  0  0
  -29.9864  -15.6732   20.6927 N   0  0  0  0  0  0
  -25.2530  -24.5951   21.8703 O   0  0  0  0  0  0
  -29.3916  -21.0785   20.8381 O   0  0  0  0  0  0
  -31.4576  -12.4207   19.1408 H   0  0  0  0  0  0
  -30.3111  -11.3260   19.8460 H   0  0  0  0  0  0
  -29.7375  -11.7881   17.4423 H   0  0  0  0  0  0
  -29.6646  -13.5019   17.7717 H   0  0  0  0  0  0
  -27.8078  -11.3271   18.8014 H   0  0  0  0  0  0
  -27.3650  -12.6728   17.7868 H   0  0  0  0  0  0
  -27.6888  -14.2675   19.5865 H   0  0  0  0  0  0
  -28.6863  -11.9561   21.3124 H   0  0  0  0  0  0
  -28.4410  -13.5575   21.8916 H   0  0  0  0  0  0
  -25.2732   -9.5711   22.4766 H   0  0  0  0  0  0
  -24.0009   -7.4630   22.7463 H   0  0  0  0  0  0
  -21.0835   -8.8740   19.8943 H   0  0  0  0  0  0
  -22.3639  -10.9663   19.6187 H   0  0  0  0  0  0
  -21.1986   -7.6145   23.9732 H   0  0  0  0  0  0
  -21.1501   -6.0509   25.9081 H   0  0  0  0  0  0
  -22.0590   -2.7625   23.2820 H   0  0  0  0  0  0
  -22.4021  -11.9893   22.4828 H   0  0  0  0  0  0
  -21.1061  -13.1274   22.2584 H   0  0  0  0  0  0
  -24.6515  -15.8419   20.5398 H   0  0  0  0  0  0
  -26.2687  -15.6352   20.0954 H   0  0  0  0  0  0
  -26.7093  -32.5520   23.1199 H   0  0  0  0  0  0
  -25.0067  -33.9800   25.0505 H   0  0  0  0  0  0
  -22.6900  -31.3062   21.4125 H   0  0  0  0  0  0
  -23.3733  -35.9668   23.3313 H   0  0  0  0  0  0
  -24.3586  -36.8918   22.2059 H   0  0  0  0  0  0
  -23.7254  -37.6534   23.6647 H   0  0  0  0  0  0
  -26.0426  -31.6049   20.5977 H   0  0  0  0  0  0
  -26.8203  -30.8928   21.9812 H   0  0  0  0  0  0
  -28.0938  -29.1141   21.1872 H   0  0  0  0  0  0
  -26.0762  -25.9778   19.0206 H   0  0  0  0  0  0
  -23.9819  -27.2948   19.0357 H   0  0  0  0  0  0
  -23.7210  -30.6093   19.4073 H   0  0  0  0  0  0
  -22.7377  -29.2516   19.8599 H   0  0  0  0  0  0
  -25.1282  -36.1991   25.0839 H   0  0  0  0  0  0
  -21.0005  -28.3349   24.1419 H   0  0  0  0  0  0
  -20.5721  -26.2321   23.3640 H   0  0  0  0  0  0
  -21.6631  -26.7516   22.1219 H   0  0  0  0  0  0
  -19.6902  -25.6304   21.1301 H   0  0  0  0  0  0
  -19.6622  -27.3204   20.6802 H   0  0  0  0  0  0
  -17.4169  -26.6657   21.4156 H   0  0  0  0  0  0
  -18.0357  -26.0123   22.9175 H   0  0  0  0  0  0
  -19.7917  -30.7362   24.2222 H   0  0  0  0  0  0
  -17.4957  -31.6321   24.5119 H   0  0  0  0  0  0
  -15.5342  -30.3017   23.7583 H   0  0  0  0  0  0
  -15.8666  -28.0836   22.7098 H   0  0  0  0  0  0
  -24.5950  -30.7011   25.7879 H   0  0  0  0  0  0
  -24.8999  -32.2810   26.5033 H   0  0  0  0  0  0
  -25.8206  -30.8805   27.0228 H   0  0  0  0  0  0
  -26.2819  -29.6798   24.1165 H   0  0  0  0  0  0
  -27.4110  -29.7254   25.4515 H   0  0  0  0  0  0
  -27.8647  -30.4349   23.9190 H   0  0  0  0  0  0
  -27.2642  -33.3587   26.2127 H   0  0  0  0  0  0
  -28.3845  -32.6930   25.0338 H   0  0  0  0  0  0
  -28.0737  -31.8423   26.5394 H   0  0  0  0  0  0
  -28.2598  -38.0102   24.7495 H   0  0  0  0  0  0
  -28.1066  -36.2629   24.6300 H   0  0  0  0  0  0
  -27.2286  -37.1482   25.8861 H   0  0  0  0  0  0
  -20.9322  -29.8754   21.6891 H   0  0  0  0  0  0
  -26.0171  -38.2867   24.1414 H   0  0  0  0  0  0
  -24.9308  -21.9937   21.0359 H   0  0  0  0  0  0
  -26.7754  -20.4369   20.6154 H   0  0  0  0  0  0
  -30.2894  -17.6194   22.6911 H   0  0  0  0  0  0
  -28.6238  -17.6747   23.1708 H   0  0  0  0  0  0
  -28.0905  -15.8259   21.5781 H   0  0  0  0  0  0
  -29.3675  -15.3745   22.6957 H   0  0  0  0  0  0
  -31.3743  -17.2207   20.3386 H   0  0  0  0  0  0
  -30.6775  -16.5203   18.8958 H   0  0  0  0  0  0
  -27.9155  -18.6918   21.1940 H   0  0  0  0  0  0
  -28.5028  -17.5407   19.4093 H   0  0  0  0  0  0
  -30.7729  -19.5400   19.1031 H   0  0  0  0  0  0
  -29.0835  -19.8041   18.6477 H   0  0  0  0  0  0
  -30.0368  -18.5866   17.8266 H   0  0  0  0  0  0
  -28.0522  -24.7506   25.7270 H   0  0  0  0  0  0
  -27.3673  -23.6985   24.4964 H   0  0  0  0  0  0
  -26.6684  -25.2925   24.7852 H   0  0  0  0  0  0
  -23.2828  -24.9682   22.3397 H   0  0  0  0  0  0
  -23.7942  -23.3212   22.6575 H   0  0  0  0  0  0
  -23.5024  -23.8636   20.9887 H   0  0  0  0  0  0
  -30.6973  -19.8038   21.7259 H   0  0  0  0  0  0
  -29.2979  -20.1595   22.6836 H   0  0  0  0  0  0
  -29.4942  -24.7777   23.6825 H   0  0  0  0  0  0
  -28.8263  -26.3498   24.0242 H   0  0  0  0  0  0
  -29.8290  -25.7305   21.1478 H   0  0  0  0  0  0
  -29.2133  -27.1845   21.8612 H   0  0  0  0  0  0
  -27.0725  -26.0061   22.3673 H   0  0  0  0  0  0
  1 25  1  0  0  0
  1 30  2  0  0  0
  1 89  1  0  0  0
  2  3  1  0  0  0
  2 25  1  0  0  0
  2 92  1  0  0  0
  2 93  1  0  0  0
  3  4  1  0  0  0
  3 94  1  0  0  0
  3 95  1  0  0  0
  4  5  1  0  0  0
  4 96  1  0  0  0
  4 97  1  0  0  0
  5  6  1  0  0  0
  5 26  1  0  0  0
  5 98  1  0  0  0
  6 25  1  0  0  0
  6 99  1  0  0  0
  6100  1  0  0  0
  7  8  2  0  0  0
  7 26  1  0  0  0
  7 29  1  0  0  0
  8  9  1  0  0  0
  8 22  1  0  0  0
  9 10  1  0  0  0
  9 27  2  0  0  0
 10 11  2  0  0  0
 10 15  1  0  0  0
 11 12  1  0  0  0
 11101  1  0  0  0
 12 13  2  0  0  0
 12102  1  0  0  0
 13 14  1  0  0  0
 13 31  1  0  0  0
 14 15  2  0  0  0
 14103  1  0  0  0
 15104  1  0  0  0
 16 17  2  0  0  0
 16 21  1  0  0  0
 16 31  1  0  0  0
 17 18  1  0  0  0
 17105  1  0  0  0
 18 19  2  0  0  0
 18106  1  0  0  0
 19 20  1  0  0  0
 19 24  1  0  0  0
 20 21  2  0  0  0
 20107  1  0  0  0
 21 23  1  0  0  0
 22 28  1  0  0  0
 22 32  2  0  0  0
 26 27  1  0  0  0
 28108  1  0  0  0
 28109  1  0  0  0
 29110  1  0  0  0
 29111  1  0  0  0
 33 34  1  0  0  0
 33 66  1  0  0  0
 33 70  2  0  0  0
 34 36  1  0  0  0
 34 59  1  0  0  0
 34112  1  0  0  0
 35 44  2  0  0  0
 35 45  1  0  0  0
 35 68  1  0  0  0
 36 56  1  0  0  0
 36113  1  0  0  0
 37 39  1  0  0  0
 37 47  1  0  0  0
 37 66  1  0  0  0
 37114  1  0  0  0
 38 43  2  0  0  0
 38 46  1  0  0  0
 38 47  1  0  0  0
 39 64  1  0  0  0
 39 67  2  0  0  0
 40 52  1  0  0  0
 40 53  2  0  0  0
 40 58  1  0  0  0
 41115  1  0  0  0
 41116  1  0  0  0
 41117  1  0  0  0
 41 48  1  0  0  0
 42 43  1  0  0  0
 42 66  1  0  0  0
 42118  1  0  0  0
 42119  1  0  0  0
 43 44  1  0  0  0
 44120  1  0  0  0
 45 46  2  0  0  0
 45121  1  0  0  0
 46122  1  0  0  0
 47123  1  0  0  0
 47124  1  0  0  0
 48 56  1  0  0  0
 48 65  1  0  0  0
 48125  1  0  0  0
 49 50  1  0  0  0
 49 53  1  0  0  0
 49 64  1  0  0  0
 49126  1  0  0  0
 50 51  1  0  0  0
 50127  1  0  0  0
 50128  1  0  0  0
 51 52  1  0  0  0
 51129  1  0  0  0
 51130  1  0  0  0
 52131  1  0  0  0
 52132  1  0  0  0
 53 54  1  0  0  0
 54 55  2  0  0  0
 54133  1  0  0  0
 55 57  1  0  0  0
 55134  1  0  0  0
 56 69  2  0  0  0
 57 58  2  0  0  0
 57135  1  0  0  0
 58136  1  0  0  0
 59 60  1  0  0  0
 59 61  1  0  0  0
 59 62  1  0  0  0
 60137  1  0  0  0
 60138  1  0  0  0
 60139  1  0  0  0
 61140  1  0  0  0
 61141  1  0  0  0
 61142  1  0  0  0
 62143  1  0  0  0
 62144  1  0  0  0
 62145  1  0  0  0
 63 65  1  0  0  0
 63146  1  0  0  0
 63147  1  0  0  0
 63148  1  0  0  0
 64149  1  0  0  0
 65150  1  0  0  0
 68 86  1  0  0  0
 71 72  2  0  0  0
 71 73  1  0  0  0
 71151  1  0  0  0
 72 75  1  0  0  0
 72152  1  0  0  0
 73 74  2  0  0  0
 73 90  1  0  0  0
 74 87  1  0  0  0
 74 88  1  0  0  0
 75 88  2  0  0  0
 75 91  1  0  0  0
 76 77  1  0  0  0
 76 79  1  0  0  0
 76153  1  0  0  0
 76154  1  0  0  0
 77 89  1  0  0  0
 77155  1  0  0  0
 77156  1  0  0  0
 78 80  1  0  0  0
 78 89  1  0  0  0
 78157  1  0  0  0
 78158  1  0  0  0
 79 80  1  0  0  0
 79 84  1  0  0  0
 79159  1  0  0  0
 80 81  1  0  0  0
 80160  1  0  0  0
 81161  1  0  0  0
 81162  1  0  0  0
 81163  1  0  0  0
 82 85  1  0  0  0
 82164  1  0  0  0
 82165  1  0  0  0
 82166  1  0  0  0
 83 90  1  0  0  0
 83167  1  0  0  0
 83168  1  0  0  0
 83169  1  0  0  0
 84 91  1  0  0  0
 84170  1  0  0  0
 84171  1  0  0  0
 85172  1  0  0  0
 85173  1  0  0  0
 85 87  1  0  0  0
 86 87  1  0  0  0
 86174  1  0  0  0
 86175  1  0  0  0
 87176  1  0  0  0
M  ISO  4   1 100  68 101  86 101  89 100
M  END
> <chiral flag>
0

> <version>
0

> <s_m_source_file>
/data/baiqing/PycharmProjects/Reinvent-master-3.2/result/LINK_invent/BTK/process_docking_weight1_custom_sum_contain_oxygen_bond_distance_aromatic_linkinvent_7_9_3/rearranged_h_0148.sdf

> <i_m_source_file_index>
91

> <r_mmod_Potential_Energy-OPLS-2005>
127.055351257324

> <r_mmod_Stretch_Energy-OPLS-2005>
47.6056747436523

> <r_mmod_Bend_Energy-OPLS-2005>
137.231750488281

> <r_mmod_Torsional_Energy-OPLS-2005>
349.125549316406

> <r_mmod_Improper_Torsional_Energy-OPLS-2005>
14.9465217590332

> <r_mmod_Van_der_Waal_Energy-OPLS-2005>
155.289047241211

> <r_mmod_Electrostatic_Energy-OPLS-2005>
-386.481781005859

> <r_mmod_Solvation_Energy-OPLS-2005>
-208.293426513672

> <b_mmod_Minimization_Converged-OPLS-2005>
0

> <r_mmod_RMS_Derivative-OPLS-2005>
2.40229344367981

$$$$
91
                    3D
 Structure written by MMmdl.
169178  0  0  1  0            999 V2000
  -30.6879  -14.5061   20.5590 C   0  0  0  0  0  0
  -30.4240  -12.3268   19.4292 C   0  0  0  0  0  0
  -29.4950  -12.5048   18.2101 C   0  0  0  0  0  0
  -28.0167  -12.3629   18.6228 C   0  0  0  0  0  0
  -27.6583  -13.2109   19.8727 C   0  0  2  0  0  0
  -28.7003  -13.0139   20.9968 C   0  0  0  0  0  0
  -25.2574  -13.8169   20.5684 C   0  0  0  0  0  0
  -24.1831  -13.0440   20.9181 C   0  0  0  0  0  0
  -24.6392  -11.6911   20.8738 C   0  0  0  0  0  0
  -23.9061  -10.4295   21.0407 C   0  0  0  0  0  0
  -24.3615   -9.4209   21.9184 C   0  0  0  0  0  0
  -23.6292   -8.2245   22.0755 C   0  0  0  0  0  0
  -22.4276   -8.0281   21.3545 C   0  0  0  0  0  0
  -21.9908   -9.0256   20.4645 C   0  0  0  0  0  0
  -22.7236  -10.2135   20.3057 C   0  0  0  0  0  0
  -21.6852   -6.0735   22.5277 C   0  0  0  0  0  0
  -21.4013   -6.5639   23.8212 C   0  0  0  0  0  0
  -21.3659   -5.6793   24.9174 C   0  0  0  0  0  0
  -21.6045   -4.3056   24.7224 C   0  0  0  0  0  0
  -21.8820   -3.8148   23.4346 C   0  0  0  0  0  0
  -21.9193   -4.6963   22.3402 C   0  0  0  0  0  0
  -22.7854  -13.5236   21.1846 C   0  0  0  0  0  0
  -22.1662   -4.2149   21.0979 F   0  0  0  0  0  0
  -21.5629   -3.4541   25.7738 F   0  0  0  0  0  0
  -30.0260  -13.3225   20.4385 N   0  0  0  0  0  0
  -26.3006  -12.9344   20.3358 N   0  0  0  0  0  0
  -25.9319  -11.6500   20.5770 N   0  0  0  0  0  0
  -22.0496  -12.8224   22.0403 N   0  0  0  0  0  0
  -25.4292  -15.1888   20.4092 N   0  0  0  0  0  0
  -31.8306  -14.6723   20.1238 O   0  0  0  0  0  0
  -21.6640   -6.8879   21.4241 O   0  0  0  0  0  0
  -22.3539  -14.5546   20.6704 O   0  0  0  0  0  0
  -24.6183  -31.8664   23.2100 C   0  0  0  0  0  0
  -25.9076  -32.4805   23.8393 C   0  0  1  0  0  0
  -27.2235  -27.3968   20.1113 C   0  0  0  0  0  0
  -25.5934  -33.8603   24.2322 N   0  0  0  0  0  0
  -23.4072  -30.4916   21.5507 C   0  0  2  0  0  0
  -24.8533  -28.9556   20.1161 C   0  0  0  0  0  0
  -22.7425  -29.4655   22.4976 C   0  0  0  0  0  0
  -18.0274  -28.1377   22.8481 C   0  0  0  0  0  0
  -24.1494  -36.7309   23.2634 C   0  0  0  0  0  0
  -25.9404  -30.8192   21.3722 C   0  0  0  0  0  0
  -26.0157  -29.4504   20.7219 C   0  0  0  0  0  0
  -27.2051  -28.6776   20.7191 C   0  0  0  0  0  0
  -26.0535  -26.9471   19.4640 C   0  0  0  0  0  0
  -24.8677  -27.7023   19.4841 C   0  0  0  0  0  0
  -23.6188  -29.8284   20.1645 C   0  0  0  0  0  0
  -25.4113  -36.3095   24.0331 C   0  0  1  0  0  0
  -20.5868  -28.3676   23.1302 C   0  0  2  0  0  0
  -20.6769  -26.9407   22.5416 C   0  0  0  0  0  0
  -19.5753  -26.6384   21.5208 C   0  0  0  0  0  0
  -18.1924  -26.7924   22.1612 C   0  0  0  0  0  0
  -19.1524  -28.8841   23.2889 C   0  0  0  0  0  0
  -18.9453  -30.1441   23.8908 C   0  0  0  0  0  0
  -17.6459  -30.6585   24.0563 C   0  0  0  0  0  0
  -25.9043  -34.9462   23.5120 C   0  0  0  0  0  0
  -16.5348  -29.9091   23.6320 C   0  0  0  0  0  0
  -16.7264  -28.6507   23.0341 C   0  0  0  0  0  0
  -26.4501  -31.6586   25.0726 C   0  0  0  0  0  0
  -25.3761  -31.3701   26.1469 C   0  0  0  0  0  0
  -27.0343  -30.3023   24.6130 C   0  0  0  0  0  0
  -27.6069  -32.4313   25.7497 C   0  0  0  0  0  0
  -27.5584  -37.1797   24.8456 C   0  0  0  0  0  0
  -21.4151  -29.3044   22.3714 N   0  0  0  0  0  0
  -26.4292  -37.3785   23.9408 N   0  0  0  0  0  0
  -24.6730  -31.0743   22.1018 N   0  0  0  0  0  0
  -23.4179  -28.8184   23.3025 O   0  0  0  0  0  0
  -28.3700  -26.6193   20.0848 O   0  0  0  0  0  0
  -26.5596  -34.8920   22.4672 O   0  0  0  0  0  0
  -23.5373  -32.1439   23.7479 O   0  0  0  0  0  0
  -30.9584  -19.0645   19.7551 C   0  0  0  0  0  0
  -30.1638  -19.2703   22.1598 C   0  0  0  0  0  0
  -29.9814  -23.3573   20.3248 C   0  0  0  0  0  0
  -27.5914  -22.9093   21.0760 C   0  0  0  0  0  0
  -30.3176  -17.6594   19.6892 C   0  0  0  0  0  0
  -29.5796  -17.8343   22.0492 C   0  0  0  0  0  0
  -29.8163  -24.7984   20.8884 C   0  0  0  0  0  0
  -27.3894  -24.2681   20.3587 C   0  0  0  0  0  0
  -30.3315  -20.0269   20.8087 C   0  0  2  0  0  0
  -29.0281  -22.3217   20.9895 C   0  0  1  0  0  0
  -30.3939  -16.9650   21.0643 C   0  0  1  0  0  0
  -28.3710  -25.3726   20.8364 C   0  0  2  0  0  0
  -28.7934  -20.8874   18.8680 C   0  0  0  0  0  0
  -29.0654  -20.8633   20.3866 C   0  0  1  0  0  0
  -29.9635  -15.5491   21.0274 N   0  0  0  0  0  0
  -31.4672  -12.4326   19.1261 H   0  0  0  0  0  0
  -30.3342  -11.3200   19.8395 H   0  0  0  0  0  0
  -29.7390  -11.7712   17.4403 H   0  0  0  0  0  0
  -29.6581  -13.4854   17.7605 H   0  0  0  0  0  0
  -27.8307  -11.3074   18.8257 H   0  0  0  0  0  0
  -27.3663  -12.6303   17.7892 H   0  0  0  0  0  0
  -27.6959  -14.2558   19.5639 H   0  0  0  0  0  0
  -28.6838  -11.9840   21.3565 H   0  0  0  0  0  0
  -28.4624  -13.6323   21.8637 H   0  0  0  0  0  0
  -25.2760   -9.5683   22.4758 H   0  0  0  0  0  0
  -24.0001   -7.4635   22.7476 H   0  0  0  0  0  0
  -21.0840   -8.8775   19.8951 H   0  0  0  0  0  0
  -22.3697  -10.9676   19.6167 H   0  0  0  0  0  0
  -21.2008   -7.6148   23.9714 H   0  0  0  0  0  0
  -21.1480   -6.0524   25.9075 H   0  0  0  0  0  0
  -22.0601   -2.7611   23.2847 H   0  0  0  0  0  0
  -22.4113  -11.9879   22.4776 H   0  0  0  0  0  0
  -21.1120  -13.1253   22.2625 H   0  0  0  0  0  0
  -24.6636  -15.8447   20.5193 H   0  0  0  0  0  0
  -26.2817  -15.6275   20.0839 H   0  0  0  0  0  0
  -26.7144  -32.5514   23.1151 H   0  0  0  0  0  0
  -25.0107  -33.9758   25.0486 H   0  0  0  0  0  0
  -22.6985  -31.3101   21.4115 H   0  0  0  0  0  0
  -23.3750  -35.9645   23.3285 H   0  0  0  0  0  0
  -24.3597  -36.8937   22.2051 H   0  0  0  0  0  0
  -23.7252  -37.6509   23.6665 H   0  0  0  0  0  0
  -26.0604  -31.5834   20.6027 H   0  0  0  0  0  0
  -26.8244  -30.8704   21.9950 H   0  0  0  0  0  0
  -28.1017  -29.0536   21.1923 H   0  0  0  0  0  0
  -26.0503  -26.0124   18.9243 H   0  0  0  0  0  0
  -23.9812  -27.3224   18.9948 H   0  0  0  0  0  0
  -23.7351  -30.6065   19.4091 H   0  0  0  0  0  0
  -22.7409  -29.2538   19.8630 H   0  0  0  0  0  0
  -25.1285  -36.1951   25.0823 H   0  0  0  0  0  0
  -20.9950  -28.3254   24.1428 H   0  0  0  0  0  0
  -20.5679  -26.2286   23.3608 H   0  0  0  0  0  0
  -21.6640  -26.7458   22.1203 H   0  0  0  0  0  0
  -19.6922  -25.6295   21.1242 H   0  0  0  0  0  0
  -19.6699  -27.3190   20.6733 H   0  0  0  0  0  0
  -17.4198  -26.6668   21.4009 H   0  0  0  0  0  0
  -18.0316  -26.0063   22.9006 H   0  0  0  0  0  0
  -19.7934  -30.7238   24.2299 H   0  0  0  0  0  0
  -17.5020  -31.6267   24.5162 H   0  0  0  0  0  0
  -15.5352  -30.2998   23.7642 H   0  0  0  0  0  0
  -15.8660  -28.0838   22.7047 H   0  0  0  0  0  0
  -24.5948  -30.7031   25.7808 H   0  0  0  0  0  0
  -24.8941  -32.2859   26.4902 H   0  0  0  0  0  0
  -25.8111  -30.8889   27.0239 H   0  0  0  0  0  0
  -26.2897  -29.6759   24.1205 H   0  0  0  0  0  0
  -27.4120  -29.7286   25.4603 H   0  0  0  0  0  0
  -27.8730  -30.4316   23.9284 H   0  0  0  0  0  0
  -27.2681  -33.3611   26.2082 H   0  0  0  0  0  0
  -28.3882  -32.6874   25.0327 H   0  0  0  0  0  0
  -28.0735  -31.8433   26.5410 H   0  0  0  0  0  0
  -28.2576  -38.0117   24.7532 H   0  0  0  0  0  0
  -28.1102  -36.2651   24.6241 H   0  0  0  0  0  0
  -27.2309  -37.1395   25.8858 H   0  0  0  0  0  0
  -20.9313  -29.8792   21.6955 H   0  0  0  0  0  0
  -26.0177  -38.2856   24.1428 H   0  0  0  0  0  0
  -30.9933  -19.5143   18.7644 H   0  0  0  0  0  0
  -32.0078  -18.9249   20.0194 H   0  0  0  0  0  0
  -31.1466  -19.1887   22.6266 H   0  0  0  0  0  0
  -29.5658  -19.8632   22.8531 H   0  0  0  0  0  0
  -31.0182  -23.0412   20.4440 H   0  0  0  0  0  0
  -29.8067  -23.3978   19.2501 H   0  0  0  0  0  0
  -26.8589  -22.1989   20.6924 H   0  0  0  0  0  0
  -27.3311  -23.0362   22.1279 H   0  0  0  0  0  0
  -30.8389  -17.0673   18.9364 H   0  0  0  0  0  0
  -29.2814  -17.7346   19.3575 H   0  0  0  0  0  0
  -28.5362  -17.8874   21.7341 H   0  0  0  0  0  0
  -29.5757  -17.3733   23.0383 H   0  0  0  0  0  0
  -30.4974  -25.4660   20.3595 H   0  0  0  0  0  0
  -30.1569  -24.8051   21.9243 H   0  0  0  0  0  0
  -26.3610  -24.5735   20.5440 H   0  0  0  0  0  0
  -27.4875  -24.1265   19.2820 H   0  0  0  0  0  0
  -31.1061  -20.7748   20.9811 H   0  0  0  0  0  0
  -29.3640  -22.2247   22.0238 H   0  0  0  0  0  0
  -31.4334  -16.9675   21.3991 H   0  0  0  0  0  0
  -28.0921  -25.6331   21.8590 H   0  0  0  0  0  0
  -28.6205  -19.8840   18.4786 H   0  0  0  0  0  0
  -29.6255  -21.3190   18.3118 H   0  0  0  0  0  0
  -27.9039  -21.4703   18.6319 H   0  0  0  0  0  0
  -28.2161  -20.3263   20.8133 H   0  0  0  0  0  0
  -29.0250  -15.3408   21.3335 H   0  0  0  0  0  0
  1 25  1  0  0  0
  1 30  2  0  0  0
  1 85  1  0  0  0
  2  3  1  0  0  0
  2 25  1  0  0  0
  2 86  1  0  0  0
  2 87  1  0  0  0
  3  4  1  0  0  0
  3 88  1  0  0  0
  3 89  1  0  0  0
  4  5  1  0  0  0
  4 90  1  0  0  0
  4 91  1  0  0  0
  5  6  1  0  0  0
  5 26  1  0  0  0
  5 92  1  0  0  0
  6 25  1  0  0  0
  6 93  1  0  0  0
  6 94  1  0  0  0
  7  8  2  0  0  0
  7 26  1  0  0  0
  7 29  1  0  0  0
  8  9  1  0  0  0
  8 22  1  0  0  0
  9 10  1  0  0  0
  9 27  2  0  0  0
 10 11  2  0  0  0
 10 15  1  0  0  0
 11 12  1  0  0  0
 11 95  1  0  0  0
 12 13  2  0  0  0
 12 96  1  0  0  0
 13 14  1  0  0  0
 13 31  1  0  0  0
 14 15  2  0  0  0
 14 97  1  0  0  0
 15 98  1  0  0  0
 16 17  2  0  0  0
 16 21  1  0  0  0
 16 31  1  0  0  0
 17 18  1  0  0  0
 17 99  1  0  0  0
 18 19  2  0  0  0
 18100  1  0  0  0
 19 20  1  0  0  0
 19 24  1  0  0  0
 20 21  2  0  0  0
 20101  1  0  0  0
 21 23  1  0  0  0
 22 28  1  0  0  0
 22 32  2  0  0  0
 26 27  1  0  0  0
 28102  1  0  0  0
 28103  1  0  0  0
 29104  1  0  0  0
 29105  1  0  0  0
 33 34  1  0  0  0
 33 66  1  0  0  0
 33 70  2  0  0  0
 34 36  1  0  0  0
 34 59  1  0  0  0
 34106  1  0  0  0
 35 44  2  0  0  0
 35 45  1  0  0  0
 35 68  1  0  0  0
 36 56  1  0  0  0
 36107  1  0  0  0
 37 39  1  0  0  0
 37 47  1  0  0  0
 37 66  1  0  0  0
 37108  1  0  0  0
 38 43  2  0  0  0
 38 46  1  0  0  0
 38 47  1  0  0  0
 39 64  1  0  0  0
 39 67  2  0  0  0
 40 52  1  0  0  0
 40 53  2  0  0  0
 40 58  1  0  0  0
 41109  1  0  0  0
 41110  1  0  0  0
 41111  1  0  0  0
 41 48  1  0  0  0
 42 43  1  0  0  0
 42 66  1  0  0  0
 42112  1  0  0  0
 42113  1  0  0  0
 43 44  1  0  0  0
 44114  1  0  0  0
 45 46  2  0  0  0
 45115  1  0  0  0
 46116  1  0  0  0
 47117  1  0  0  0
 47118  1  0  0  0
 48 56  1  0  0  0
 48 65  1  0  0  0
 48119  1  0  0  0
 49 50  1  0  0  0
 49 53  1  0  0  0
 49 64  1  0  0  0
 49120  1  0  0  0
 50 51  1  0  0  0
 50121  1  0  0  0
 50122  1  0  0  0
 51 52  1  0  0  0
 51123  1  0  0  0
 51124  1  0  0  0
 52125  1  0  0  0
 52126  1  0  0  0
 53 54  1  0  0  0
 54 55  2  0  0  0
 54127  1  0  0  0
 55 57  1  0  0  0
 55128  1  0  0  0
 56 69  2  0  0  0
 57 58  2  0  0  0
 57129  1  0  0  0
 58130  1  0  0  0
 59 60  1  0  0  0
 59 61  1  0  0  0
 59 62  1  0  0  0
 60131  1  0  0  0
 60132  1  0  0  0
 60133  1  0  0  0
 61134  1  0  0  0
 61135  1  0  0  0
 61136  1  0  0  0
 62137  1  0  0  0
 62138  1  0  0  0
 62139  1  0  0  0
 63 65  1  0  0  0
 63140  1  0  0  0
 63141  1  0  0  0
 63142  1  0  0  0
 64143  1  0  0  0
 65144  1  0  0  0
 68 82  1  0  0  0
 71 75  1  0  0  0
 71145  1  0  0  0
 71146  1  0  0  0
 71 79  1  0  0  0
 72 76  1  0  0  0
 72 79  1  0  0  0
 72147  1  0  0  0
 72148  1  0  0  0
 73 77  1  0  0  0
 73149  1  0  0  0
 73150  1  0  0  0
 73 80  1  0  0  0
 74 78  1  0  0  0
 74 80  1  0  0  0
 74151  1  0  0  0
 74152  1  0  0  0
 75 81  1  0  0  0
 75153  1  0  0  0
 75154  1  0  0  0
 76 81  1  0  0  0
 76155  1  0  0  0
 76156  1  0  0  0
 77 82  1  0  0  0
 77157  1  0  0  0
 77158  1  0  0  0
 78 82  1  0  0  0
 78159  1  0  0  0
 78160  1  0  0  0
 79 84  1  0  0  0
 79161  1  0  0  0
 80 84  1  0  0  0
 80162  1  0  0  0
 81 85  1  0  0  0
 81163  1  0  0  0
 82164  1  0  0  0
 83165  1  0  0  0
 83166  1  0  0  0
 83167  1  0  0  0
 83 84  1  0  0  0
 84168  1  0  0  0
 85169  1  0  0  0
M  ISO  4   1 100  68 101  82 101  85 100
M  END
> <chiral flag>
0

> <version>
0

> <s_m_source_file>
/data/baiqing/PycharmProjects/Reinvent-master-3.2/result/LINK_invent/BTK/process_docking_weight1_custom_sum_contain_oxygen_bond_distance_aromatic_linkinvent_7_9_3/rearranged_h_0148.sdf

> <i_m_source_file_index>
92

> <r_mmod_Potential_Energy-OPLS-2005>
73.0170440673828

> <r_mmod_Stretch_Energy-OPLS-2005>
48.5802116394043

> <r_mmod_Bend_Energy-OPLS-2005>
121.790313720703

> <r_mmod_Torsional_Energy-OPLS-2005>
315.099243164062

> <r_mmod_Improper_Torsional_Energy-OPLS-2005>
3.76610612869263

> <r_mmod_Van_der_Waal_Energy-OPLS-2005>
145.259414672852

> <r_mmod_Electrostatic_Energy-OPLS-2005>
-392.156219482422

> <r_mmod_Solvation_Energy-OPLS-2005>
-187.552612304688

> <b_mmod_Minimization_Converged-OPLS-2005>
0

> <r_mmod_RMS_Derivative-OPLS-2005>
0.968186914920807

$$$$
92
                    3D
 Structure written by MMmdl.
157165  0  0  1  0            999 V2000
  -30.5346  -14.8350   20.4984 C   0  0  0  0  0  0
  -30.4461  -12.5220   19.4933 C   0  0  0  0  0  0
  -29.5285  -12.5758   18.2469 C   0  0  0  0  0  0
  -28.0497  -12.3795   18.6412 C   0  0  0  0  0  0
  -27.6459  -13.2449   19.8655 C   0  0  2  0  0  0
  -28.6846  -13.1504   21.0067 C   0  0  0  0  0  0
  -25.2488  -13.8206   20.5684 C   0  0  0  0  0  0
  -24.1779  -13.0445   20.9155 C   0  0  0  0  0  0
  -24.6381  -11.6917   20.8686 C   0  0  0  0  0  0
  -23.9065  -10.4283   21.0379 C   0  0  0  0  0  0
  -24.3613   -9.4213   21.9171 C   0  0  0  0  0  0
  -23.6280   -8.2252   22.0743 C   0  0  0  0  0  0
  -22.4272   -8.0263   21.3532 C   0  0  0  0  0  0
  -21.9908   -9.0249   20.4647 C   0  0  0  0  0  0
  -22.7228  -10.2128   20.3034 C   0  0  0  0  0  0
  -21.6861   -6.0714   22.5276 C   0  0  0  0  0  0
  -21.4016   -6.5624   23.8218 C   0  0  0  0  0  0
  -21.3669   -5.6765   24.9174 C   0  0  0  0  0  0
  -21.6063   -4.3020   24.7213 C   0  0  0  0  0  0
  -21.8818   -3.8117   23.4331 C   0  0  0  0  0  0
  -21.9193   -4.6952   22.3386 C   0  0  0  0  0  0
  -22.7795  -13.5233   21.1829 C   0  0  0  0  0  0
  -22.1665   -4.2139   21.0956 F   0  0  0  0  0  0
  -21.5654   -3.4499   25.7728 F   0  0  0  0  0  0
  -29.9830  -13.5618   20.4506 N   0  0  0  0  0  0
  -26.2939  -12.9444   20.3269 N   0  0  0  0  0  0
  -25.9322  -11.6570   20.5656 N   0  0  0  0  0  0
  -22.0420  -12.8240   22.0395 N   0  0  0  0  0  0
  -25.4146  -15.1940   20.4221 N   0  0  0  0  0  0
  -31.6788  -15.0037   20.0653 O   0  0  0  0  0  0
  -21.6628   -6.8861   21.4241 O   0  0  0  0  0  0
  -22.3495  -14.5540   20.6678 O   0  0  0  0  0  0
  -24.6392  -31.8511   23.1940 C   0  0  0  0  0  0
  -25.9161  -32.4759   23.8332 C   0  0  1  0  0  0
  -27.2096  -27.1786   20.1528 C   0  0  0  0  0  0
  -25.5921  -33.8562   24.2240 N   0  0  0  0  0  0
  -23.4411  -30.4739   21.5404 C   0  0  2  0  0  0
  -24.8876  -28.9102   20.1171 C   0  0  0  0  0  0
  -22.7563  -29.4570   22.4885 C   0  0  0  0  0  0
  -18.0325  -28.1415   22.8507 C   0  0  0  0  0  0
  -24.1485  -36.7243   23.2640 C   0  0  0  0  0  0
  -25.9968  -30.7403   21.3874 C   0  0  0  0  0  0
  -26.0669  -29.3566   20.7267 C   0  0  0  0  0  0
  -27.2305  -28.5059   20.7282 C   0  0  0  0  0  0
  -26.0003  -26.8232   19.5100 C   0  0  0  0  0  0
  -24.8632  -27.6539   19.4990 C   0  0  0  0  0  0
  -23.6661  -29.8101   20.1586 C   0  0  0  0  0  0
  -25.4115  -36.3060   24.0339 C   0  0  1  0  0  0
  -20.5934  -28.3715   23.1268 C   0  0  2  0  0  0
  -20.6810  -26.9427   22.5412 C   0  0  0  0  0  0
  -19.5757  -26.6399   21.5248 C   0  0  0  0  0  0
  -18.1947  -26.7963   22.1659 C   0  0  0  0  0  0
  -19.1582  -28.8895   23.2885 C   0  0  0  0  0  0
  -18.9483  -30.1513   23.8872 C   0  0  0  0  0  0
  -17.6468  -30.6603   24.0577 C   0  0  0  0  0  0
  -25.9071  -34.9437   23.5097 C   0  0  0  0  0  0
  -16.5366  -29.9086   23.6349 C   0  0  0  0  0  0
  -16.7308  -28.6522   23.0350 C   0  0  0  0  0  0
  -26.4485  -31.6611   25.0759 C   0  0  0  0  0  0
  -25.3668  -31.3767   26.1450 C   0  0  0  0  0  0
  -27.0337  -30.3022   24.6290 C   0  0  0  0  0  0
  -27.6027  -32.4374   25.7532 C   0  0  0  0  0  0
  -27.5595  -37.1762   24.8455 C   0  0  0  0  0  0
  -21.4262  -29.3026   22.3615 N   0  0  0  0  0  0
  -26.4272  -37.3778   23.9447 N   0  0  0  0  0  0
  -24.7122  -31.0405   22.0963 N   0  0  0  0  0  0
  -23.4223  -28.8102   23.3009 O   0  0  0  0  0  0
  -28.2678  -26.2120   20.2268 O   0  0  0  0  0  0
  -26.5639  -34.8916   22.4661 O   0  0  0  0  0  0
  -23.5509  -32.1367   23.7168 O   0  0  0  0  0  0
  -28.8880  -18.1551   21.7753 C   0  0  0  0  0  0
  -30.1308  -18.2141   19.7672 C   0  0  0  0  0  0
  -28.5771  -19.5646   21.6556 C   0  0  0  0  0  0
  -29.8132  -19.6265   19.6125 C   0  0  0  0  0  0
  -28.9812  -20.3786   20.5345 C   0  0  0  0  0  0
  -29.6450  -17.3905   20.8325 C   0  0  0  0  0  0
  -27.7079  -20.1697   22.7540 C   0  0  0  0  0  0
  -30.3496  -20.2932   18.3575 C   0  0  0  0  0  0
  -28.9168  -23.3814   20.3886 C   0  0  0  0  0  0
  -27.9416  -24.7101   20.1269 C   0  0  0  0  0  0
  -28.2946  -21.8493   20.2270 C   0  0  1  0  0  0
  -29.7382  -15.8856   20.9786 N   0  0  0  0  0  0
  -27.7051  -21.8332   18.9403 O   0  0  0  0  0  0
  -31.4884  -12.6778   19.2081 H   0  0  0  0  0  0
  -30.4073  -11.5332   19.9506 H   0  0  0  0  0  0
  -29.8355  -11.8280   17.5147 H   0  0  0  0  0  0
  -29.6441  -13.5445   17.7559 H   0  0  0  0  0  0
  -27.8882  -11.3237   18.8566 H   0  0  0  0  0  0
  -27.4049  -12.6151   17.7931 H   0  0  0  0  0  0
  -27.6464  -14.2778   19.5197 H   0  0  0  0  0  0
  -28.7354  -12.1335   21.3974 H   0  0  0  0  0  0
  -28.3889  -13.7767   21.8508 H   0  0  0  0  0  0
  -25.2784   -9.5727   22.4718 H   0  0  0  0  0  0
  -24.0025   -7.4649   22.7453 H   0  0  0  0  0  0
  -21.0844   -8.8756   19.8949 H   0  0  0  0  0  0
  -22.3686  -10.9654   19.6110 H   0  0  0  0  0  0
  -21.1990   -7.6135   23.9718 H   0  0  0  0  0  0
  -21.1512   -6.0477   25.9081 H   0  0  0  0  0  0
  -22.0589   -2.7582   23.2793 H   0  0  0  0  0  0
  -22.4021  -11.9948   22.4871 H   0  0  0  0  0  0
  -21.1027  -13.1289   22.2548 H   0  0  0  0  0  0
  -24.6416  -15.8386   20.5457 H   0  0  0  0  0  0
  -26.2698  -15.6512   20.1335 H   0  0  0  0  0  0
  -26.7222  -32.5367   23.1060 H   0  0  0  0  0  0
  -25.0075  -33.9709   25.0391 H   0  0  0  0  0  0
  -22.7416  -31.2985   21.3901 H   0  0  0  0  0  0
  -23.3810  -35.9512   23.3244 H   0  0  0  0  0  0
  -24.3578  -36.8932   22.2071 H   0  0  0  0  0  0
  -23.7180  -37.6398   23.6693 H   0  0  0  0  0  0
  -26.1456  -31.5013   20.6200 H   0  0  0  0  0  0
  -26.8685  -30.7857   22.0273 H   0  0  0  0  0  0
  -28.1290  -28.8407   21.2269 H   0  0  0  0  0  0
  -25.8831  -25.8637   19.0312 H   0  0  0  0  0  0
  -23.9563  -27.3006   19.0258 H   0  0  0  0  0  0
  -23.8013  -30.5870   19.4060 H   0  0  0  0  0  0
  -22.7823  -29.2527   19.8470 H   0  0  0  0  0  0
  -25.1296  -36.1887   25.0834 H   0  0  0  0  0  0
  -21.0066  -28.3311   24.1377 H   0  0  0  0  0  0
  -20.5767  -26.2325   23.3627 H   0  0  0  0  0  0
  -21.6665  -26.7460   22.1158 H   0  0  0  0  0  0
  -19.6900  -25.6306   21.1294 H   0  0  0  0  0  0
  -19.6711  -27.3207   20.6777 H   0  0  0  0  0  0
  -17.4231  -26.6771   21.4044 H   0  0  0  0  0  0
  -18.0292  -26.0117   22.9056 H   0  0  0  0  0  0
  -19.7949  -30.7377   24.2184 H   0  0  0  0  0  0
  -17.5003  -31.6271   24.5195 H   0  0  0  0  0  0
  -15.5355  -30.2959   23.7687 H   0  0  0  0  0  0
  -15.8726  -28.0842   22.7011 H   0  0  0  0  0  0
  -24.5820  -30.7168   25.7724 H   0  0  0  0  0  0
  -24.8876  -32.2946   26.4873 H   0  0  0  0  0  0
  -25.7937  -30.8905   27.0236 H   0  0  0  0  0  0
  -26.2936  -29.6792   24.1259 H   0  0  0  0  0  0
  -27.3934  -29.7272   25.4833 H   0  0  0  0  0  0
  -27.8855  -30.4290   23.9606 H   0  0  0  0  0  0
  -27.2620  -33.3691   26.2055 H   0  0  0  0  0  0
  -28.3841  -32.6928   25.0363 H   0  0  0  0  0  0
  -28.0685  -31.8553   26.5493 H   0  0  0  0  0  0
  -28.2520  -38.0146   24.7611 H   0  0  0  0  0  0
  -28.1173  -36.2674   24.6123 H   0  0  0  0  0  0
  -27.2317  -37.1227   25.8851 H   0  0  0  0  0  0
  -20.9460  -29.8711   21.6778 H   0  0  0  0  0  0
  -26.0143  -38.2835   24.1517 H   0  0  0  0  0  0
  -28.4818  -17.6227   22.6250 H   0  0  0  0  0  0
  -30.7185  -17.7323   18.9987 H   0  0  0  0  0  0
  -27.7426  -19.5898   23.6785 H   0  0  0  0  0  0
  -26.6632  -20.2121   22.4398 H   0  0  0  0  0  0
  -28.0353  -21.1808   23.0008 H   0  0  0  0  0  0
  -31.3130  -19.8652   18.0695 H   0  0  0  0  0  0
  -30.4998  -21.3631   18.4976 H   0  0  0  0  0  0
  -29.6540  -20.1466   17.5288 H   0  0  0  0  0  0
  -29.3237  -23.4692   21.3973 H   0  0  0  0  0  0
  -29.7783  -23.4609   19.7251 H   0  0  0  0  0  0
  -27.0755  -24.5604   20.7742 H   0  0  0  0  0  0
  -27.5717  -24.5696   19.1124 H   0  0  0  0  0  0
  -27.4258  -21.8805   20.8836 H   0  0  0  0  0  0
  -28.9765  -15.5103   21.5221 H   0  0  0  0  0  0
  -28.4081  -21.8440   18.3004 H   0  0  0  0  0  0
  1 25  1  0  0  0
  1 30  2  0  0  0
  1 82  1  0  0  0
  2  3  1  0  0  0
  2 25  1  0  0  0
  2 84  1  0  0  0
  2 85  1  0  0  0
  3  4  1  0  0  0
  3 86  1  0  0  0
  3 87  1  0  0  0
  4  5  1  0  0  0
  4 88  1  0  0  0
  4 89  1  0  0  0
  5  6  1  0  0  0
  5 26  1  0  0  0
  5 90  1  0  0  0
  6 25  1  0  0  0
  6 91  1  0  0  0
  6 92  1  0  0  0
  7  8  2  0  0  0
  7 26  1  0  0  0
  7 29  1  0  0  0
  8  9  1  0  0  0
  8 22  1  0  0  0
  9 10  1  0  0  0
  9 27  2  0  0  0
 10 11  2  0  0  0
 10 15  1  0  0  0
 11 12  1  0  0  0
 11 93  1  0  0  0
 12 13  2  0  0  0
 12 94  1  0  0  0
 13 14  1  0  0  0
 13 31  1  0  0  0
 14 15  2  0  0  0
 14 95  1  0  0  0
 15 96  1  0  0  0
 16 17  2  0  0  0
 16 21  1  0  0  0
 16 31  1  0  0  0
 17 18  1  0  0  0
 17 97  1  0  0  0
 18 19  2  0  0  0
 18 98  1  0  0  0
 19 20  1  0  0  0
 19 24  1  0  0  0
 20 21  2  0  0  0
 20 99  1  0  0  0
 21 23  1  0  0  0
 22 28  1  0  0  0
 22 32  2  0  0  0
 26 27  1  0  0  0
 28100  1  0  0  0
 28101  1  0  0  0
 29102  1  0  0  0
 29103  1  0  0  0
 33 34  1  0  0  0
 33 66  1  0  0  0
 33 70  2  0  0  0
 34 36  1  0  0  0
 34 59  1  0  0  0
 34104  1  0  0  0
 35 44  2  0  0  0
 35 45  1  0  0  0
 35 68  1  0  0  0
 36 56  1  0  0  0
 36105  1  0  0  0
 37 39  1  0  0  0
 37 47  1  0  0  0
 37 66  1  0  0  0
 37106  1  0  0  0
 38 43  2  0  0  0
 38 46  1  0  0  0
 38 47  1  0  0  0
 39 64  1  0  0  0
 39 67  2  0  0  0
 40 52  1  0  0  0
 40 53  2  0  0  0
 40 58  1  0  0  0
 41107  1  0  0  0
 41108  1  0  0  0
 41109  1  0  0  0
 41 48  1  0  0  0
 42 43  1  0  0  0
 42 66  1  0  0  0
 42110  1  0  0  0
 42111  1  0  0  0
 43 44  1  0  0  0
 44112  1  0  0  0
 45 46  2  0  0  0
 45113  1  0  0  0
 46114  1  0  0  0
 47115  1  0  0  0
 47116  1  0  0  0
 48 56  1  0  0  0
 48 65  1  0  0  0
 48117  1  0  0  0
 49 50  1  0  0  0
 49 53  1  0  0  0
 49 64  1  0  0  0
 49118  1  0  0  0
 50 51  1  0  0  0
 50119  1  0  0  0
 50120  1  0  0  0
 51 52  1  0  0  0
 51121  1  0  0  0
 51122  1  0  0  0
 52123  1  0  0  0
 52124  1  0  0  0
 53 54  1  0  0  0
 54 55  2  0  0  0
 54125  1  0  0  0
 55 57  1  0  0  0
 55126  1  0  0  0
 56 69  2  0  0  0
 57 58  2  0  0  0
 57127  1  0  0  0
 58128  1  0  0  0
 59 60  1  0  0  0
 59 61  1  0  0  0
 59 62  1  0  0  0
 60129  1  0  0  0
 60130  1  0  0  0
 60131  1  0  0  0
 61132  1  0  0  0
 61133  1  0  0  0
 61134  1  0  0  0
 62135  1  0  0  0
 62136  1  0  0  0
 62137  1  0  0  0
 63 65  1  0  0  0
 63138  1  0  0  0
 63139  1  0  0  0
 63140  1  0  0  0
 64141  1  0  0  0
 65142  1  0  0  0
 68 80  1  0  0  0
 71 73  2  0  0  0
 71 76  1  0  0  0
 71143  1  0  0  0
 72 74  1  0  0  0
 72 76  2  0  0  0
 72144  1  0  0  0
 73 75  1  0  0  0
 73 77  1  0  0  0
 74 75  2  0  0  0
 74 78  1  0  0  0
 75 81  1  0  0  0
 76 82  1  0  0  0
 77145  1  0  0  0
 77146  1  0  0  0
 77147  1  0  0  0
 78148  1  0  0  0
 78149  1  0  0  0
 78150  1  0  0  0
 79 80  1  0  0  0
 79 81  1  0  0  0
 79151  1  0  0  0
 79152  1  0  0  0
 80153  1  0  0  0
 80154  1  0  0  0
 81 83  1  0  0  0
 81155  1  0  0  0
 82156  1  0  0  0
 83157  1  0  0  0
M  ISO  4   1 100  68 101  80 101  82 100
M  END
> <chiral flag>
0

> <version>
0

> <s_m_source_file>
/data/baiqing/PycharmProjects/Reinvent-master-3.2/result/LINK_invent/BTK/process_docking_weight1_custom_sum_contain_oxygen_bond_distance_aromatic_linkinvent_7_9_3/rearranged_h_0148.sdf

> <i_m_source_file_index>
93

> <r_mmod_Potential_Energy-OPLS-2005>
364.589508056641

> <r_mmod_Stretch_Energy-OPLS-2005>
198.423721313477

> <r_mmod_Bend_Energy-OPLS-2005>
239.655868530273

> <r_mmod_Torsional_Energy-OPLS-2005>
231.46907043457

> <r_mmod_Improper_Torsional_Energy-OPLS-2005>
4.97024297714233

> <r_mmod_Van_der_Waal_Energy-OPLS-2005>
136.899490356445

> <r_mmod_Electrostatic_Energy-OPLS-2005>
-363.592529296875

> <r_mmod_Solvation_Energy-OPLS-2005>
-221.816558837891

> <b_mmod_Minimization_Converged-OPLS-2005>
0

> <r_mmod_RMS_Derivative-OPLS-2005>
4.29381370544434

$$$$
93
                    3D
 Structure written by MMmdl.
160169  0  0  1  0            999 V2000
  -30.6355  -14.6283   20.5670 C   0  0  0  0  0  0
  -30.4338  -12.4017   19.4622 C   0  0  0  0  0  0
  -29.5161  -12.5262   18.2272 C   0  0  0  0  0  0
  -28.0336  -12.3741   18.6185 C   0  0  0  0  0  0
  -27.6550  -13.2217   19.8619 C   0  0  2  0  0  0
  -28.6899  -13.0684   20.9968 C   0  0  0  0  0  0
  -25.2559  -13.8184   20.5595 C   0  0  0  0  0  0
  -24.1829  -13.0460   20.9146 C   0  0  0  0  0  0
  -24.6401  -11.6933   20.8713 C   0  0  0  0  0  0
  -23.9073  -10.4316   21.0375 C   0  0  0  0  0  0
  -24.3622   -9.4236   21.9160 C   0  0  0  0  0  0
  -23.6316   -8.2273   22.0753 C   0  0  0  0  0  0
  -22.4297   -8.0292   21.3542 C   0  0  0  0  0  0
  -21.9925   -9.0251   20.4636 C   0  0  0  0  0  0
  -22.7244  -10.2143   20.3031 C   0  0  0  0  0  0
  -21.6861   -6.0735   22.5273 C   0  0  0  0  0  0
  -21.4015   -6.5637   23.8205 C   0  0  0  0  0  0
  -21.3671   -5.6797   24.9165 C   0  0  0  0  0  0
  -21.6051   -4.3057   24.7217 C   0  0  0  0  0  0
  -21.8821   -3.8148   23.4345 C   0  0  0  0  0  0
  -21.9196   -4.6959   22.3393 C   0  0  0  0  0  0
  -22.7844  -13.5232   21.1823 C   0  0  0  0  0  0
  -22.1652   -4.2134   21.0976 F   0  0  0  0  0  0
  -21.5644   -3.4554   25.7738 F   0  0  0  0  0  0
  -30.0079  -13.4167   20.4475 N   0  0  0  0  0  0
  -26.2977  -12.9377   20.3227 N   0  0  0  0  0  0
  -25.9333  -11.6527   20.5707 N   0  0  0  0  0  0
  -22.0488  -12.8244   22.0383 N   0  0  0  0  0  0
  -25.4305  -15.1915   20.3991 N   0  0  0  0  0  0
  -31.7888  -14.7961   20.1610 O   0  0  0  0  0  0
  -21.6663   -6.8890   21.4248 O   0  0  0  0  0  0
  -22.3516  -14.5531   20.6641 O   0  0  0  0  0  0
  -24.6206  -31.8599   23.2043 C   0  0  0  0  0  0
  -25.9063  -32.4780   23.8357 C   0  0  1  0  0  0
  -27.2358  -27.3443   20.1417 C   0  0  0  0  0  0
  -25.5894  -33.8583   24.2272 N   0  0  0  0  0  0
  -23.4144  -30.4784   21.5477 C   0  0  2  0  0  0
  -24.8678  -28.9381   20.1154 C   0  0  0  0  0  0
  -22.7459  -29.4581   22.4977 C   0  0  0  0  0  0
  -18.0263  -28.1402   22.8481 C   0  0  0  0  0  0
  -24.1487  -36.7300   23.2637 C   0  0  0  0  0  0
  -25.9508  -30.8023   21.3686 C   0  0  0  0  0  0
  -26.0313  -29.4299   20.7182 C   0  0  0  0  0  0
  -27.2196  -28.6454   20.7204 C   0  0  0  0  0  0
  -26.0504  -26.8949   19.5141 C   0  0  0  0  0  0
  -24.8783  -27.6750   19.5014 C   0  0  0  0  0  0
  -23.6304  -29.8118   20.1627 C   0  0  0  0  0  0
  -25.4114  -36.3089   24.0321 C   0  0  1  0  0  0
  -20.5865  -28.3667   23.1329 C   0  0  2  0  0  0
  -20.6778  -26.9399   22.5434 C   0  0  0  0  0  0
  -19.5756  -26.6381   21.5240 C   0  0  0  0  0  0
  -18.1921  -26.7942   22.1627 C   0  0  0  0  0  0
  -19.1521  -28.8856   23.2890 C   0  0  0  0  0  0
  -18.9451  -30.1472   23.8876 C   0  0  0  0  0  0
  -17.6456  -30.6607   24.0559 C   0  0  0  0  0  0
  -25.9043  -34.9455   23.5096 C   0  0  0  0  0  0
  -16.5337  -29.9104   23.6348 C   0  0  0  0  0  0
  -16.7251  -28.6535   23.0329 C   0  0  0  0  0  0
  -26.4475  -31.6575   25.0705 C   0  0  0  0  0  0
  -25.3725  -31.3717   26.1442 C   0  0  0  0  0  0
  -27.0289  -30.2999   24.6106 C   0  0  0  0  0  0
  -27.6019  -32.4307   25.7492 C   0  0  0  0  0  0
  -27.5574  -37.1810   24.8461 C   0  0  0  0  0  0
  -21.4172  -29.3011   22.3731 N   0  0  0  0  0  0
  -26.4286  -37.3785   23.9407 N   0  0  0  0  0  0
  -24.6798  -31.0635   22.0980 N   0  0  0  0  0  0
  -23.4192  -28.8116   23.3046 O   0  0  0  0  0  0
  -28.3663  -26.5235   20.2155 O   0  0  0  0  0  0
  -26.5622  -34.8920   22.4669 O   0  0  0  0  0  0
  -23.5372  -32.1375   23.7394 O   0  0  0  0  0  0
  -29.6454  -21.8155   19.6751 C   0  0  0  0  0  0
  -29.6379  -20.4254   19.7310 C   0  0  0  0  0  0
  -29.2466  -22.6145   20.7747 C   0  0  0  0  0  0
  -29.2191  -19.7221   20.8800 C   0  0  0  0  0  0
  -28.8655  -21.8460   21.9179 C   0  0  0  0  0  0
  -30.1442  -22.2348   18.3188 C   0  0  0  0  0  0
  -30.1068  -19.8766   18.4170 C   0  0  0  0  0  0
  -28.4595  -22.5316   23.2103 C   0  0  0  0  0  0
  -29.3630  -24.1864   20.7630 C   0  0  0  0  0  0
  -28.9990  -18.1624   20.9054 C   0  0  0  0  0  0
  -30.2190  -17.1536   21.0716 C   0  0  0  0  0  0
  -28.1623  -25.0652   20.2331 C   0  0  0  0  0  0
  -28.8452  -20.4699   21.9599 N   0  0  0  0  0  0
  -29.8731  -15.6838   20.9986 N   0  0  0  0  0  0
  -30.3970  -21.0165   17.5872 O   0  0  0  0  0  0
  -31.4744  -12.5368   19.1644 H   0  0  0  0  0  0
  -30.3719  -11.4002   19.8922 H   0  0  0  0  0  0
  -29.7866  -11.7820   17.4778 H   0  0  0  0  0  0
  -29.6707  -13.5017   17.7632 H   0  0  0  0  0  0
  -27.8499  -11.3187   18.8187 H   0  0  0  0  0  0
  -27.4013  -12.6447   17.7708 H   0  0  0  0  0  0
  -27.6791  -14.2630   19.5394 H   0  0  0  0  0  0
  -28.7039  -12.0422   21.3658 H   0  0  0  0  0  0
  -28.4267  -13.6951   21.8497 H   0  0  0  0  0  0
  -25.2769   -9.5722   22.4721 H   0  0  0  0  0  0
  -24.0025   -7.4676   22.7482 H   0  0  0  0  0  0
  -21.0859   -8.8761   19.8951 H   0  0  0  0  0  0
  -22.3696  -10.9663   19.6124 H   0  0  0  0  0  0
  -21.2003   -7.6147   23.9688 H   0  0  0  0  0  0
  -21.1483   -6.0535   25.9064 H   0  0  0  0  0  0
  -22.0594   -2.7609   23.2842 H   0  0  0  0  0  0
  -22.4093  -11.9898   22.4788 H   0  0  0  0  0  0
  -21.1088  -13.1254   22.2560 H   0  0  0  0  0  0
  -24.6690  -15.8539   20.4989 H   0  0  0  0  0  0
  -26.2757  -15.6183   20.0437 H   0  0  0  0  0  0
  -26.7118  -32.5476   23.1102 H   0  0  0  0  0  0
  -25.0027  -33.9738   25.0403 H   0  0  0  0  0  0
  -22.7046  -31.2957   21.4068 H   0  0  0  0  0  0
  -23.3740  -35.9644   23.3309 H   0  0  0  0  0  0
  -24.3575  -36.8909   22.2049 H   0  0  0  0  0  0
  -23.7253  -37.6508   23.6655 H   0  0  0  0  0  0
  -26.0678  -31.5601   20.5934 H   0  0  0  0  0  0
  -26.8352  -30.8620   21.9902 H   0  0  0  0  0  0
  -28.1105  -29.0167   21.2081 H   0  0  0  0  0  0
  -26.0082  -25.9245   19.0437 H   0  0  0  0  0  0
  -23.9884  -27.2868   19.0272 H   0  0  0  0  0  0
  -23.7492  -30.5887   19.4069 H   0  0  0  0  0  0
  -22.7536  -29.2380   19.8571 H   0  0  0  0  0  0
  -25.1306  -36.1938   25.0815 H   0  0  0  0  0  0
  -20.9933  -28.3232   24.1462 H   0  0  0  0  0  0
  -20.5751  -26.2246   23.3610 H   0  0  0  0  0  0
  -21.6638  -26.7491   22.1182 H   0  0  0  0  0  0
  -19.6918  -25.6299   21.1258 H   0  0  0  0  0  0
  -19.6718  -27.3206   20.6790 H   0  0  0  0  0  0
  -17.4206  -26.6674   21.4015 H   0  0  0  0  0  0
  -18.0300  -26.0105   22.9040 H   0  0  0  0  0  0
  -19.7925  -30.7303   24.2209 H   0  0  0  0  0  0
  -17.5010  -31.6286   24.5159 H   0  0  0  0  0  0
  -15.5340  -30.2997   23.7719 H   0  0  0  0  0  0
  -15.8639  -28.0885   22.7020 H   0  0  0  0  0  0
  -24.5895  -30.7060   25.7794 H   0  0  0  0  0  0
  -24.8927  -32.2889   26.4869 H   0  0  0  0  0  0
  -25.8071  -30.8906   27.0211 H   0  0  0  0  0  0
  -26.2833  -29.6785   24.1121 H   0  0  0  0  0  0
  -27.3988  -29.7220   25.4586 H   0  0  0  0  0  0
  -27.8714  -30.4287   23.9303 H   0  0  0  0  0  0
  -27.2597  -33.3591   26.2082 H   0  0  0  0  0  0
  -28.3845  -32.6880   25.0342 H   0  0  0  0  0  0
  -28.0660  -31.8414   26.5412 H   0  0  0  0  0  0
  -28.2591  -38.0107   24.7506 H   0  0  0  0  0  0
  -28.1069  -36.2634   24.6296 H   0  0  0  0  0  0
  -27.2284  -37.1469   25.8861 H   0  0  0  0  0  0
  -20.9349  -29.8723   21.6937 H   0  0  0  0  0  0
  -26.0159  -38.2849   24.1442 H   0  0  0  0  0  0
  -31.0619  -22.8192   18.4077 H   0  0  0  0  0  0
  -29.3975  -22.8414   17.8038 H   0  0  0  0  0  0
  -29.3323  -19.2555   17.9658 H   0  0  0  0  0  0
  -31.0051  -19.2730   18.5587 H   0  0  0  0  0  0
  -27.6630  -23.2526   23.0297 H   0  0  0  0  0  0
  -29.3047  -23.0624   23.6488 H   0  0  0  0  0  0
  -28.0987  -21.8157   23.9492 H   0  0  0  0  0  0
  -30.2540  -24.4464   20.1900 H   0  0  0  0  0  0
  -29.5940  -24.5216   21.7742 H   0  0  0  0  0  0
  -28.4822  -17.9205   19.9779 H   0  0  0  0  0  0
  -28.2618  -17.9528   21.6837 H   0  0  0  0  0  0
  -30.7002  -17.3359   22.0344 H   0  0  0  0  0  0
  -30.9716  -17.3809   20.3136 H   0  0  0  0  0  0
  -27.2923  -24.8452   20.8549 H   0  0  0  0  0  0
  -27.9220  -24.7399   19.2214 H   0  0  0  0  0  0
  -28.9381  -15.4397   21.2925 H   0  0  0  0  0  0
  1 25  1  0  0  0
  1 30  2  0  0  0
  1 84  1  0  0  0
  2  3  1  0  0  0
  2 25  1  0  0  0
  2 86  1  0  0  0
  2 87  1  0  0  0
  3  4  1  0  0  0
  3 88  1  0  0  0
  3 89  1  0  0  0
  4  5  1  0  0  0
  4 90  1  0  0  0
  4 91  1  0  0  0
  5  6  1  0  0  0
  5 26  1  0  0  0
  5 92  1  0  0  0
  6 25  1  0  0  0
  6 93  1  0  0  0
  6 94  1  0  0  0
  7  8  2  0  0  0
  7 26  1  0  0  0
  7 29  1  0  0  0
  8  9  1  0  0  0
  8 22  1  0  0  0
  9 10  1  0  0  0
  9 27  2  0  0  0
 10 11  2  0  0  0
 10 15  1  0  0  0
 11 12  1  0  0  0
 11 95  1  0  0  0
 12 13  2  0  0  0
 12 96  1  0  0  0
 13 14  1  0  0  0
 13 31  1  0  0  0
 14 15  2  0  0  0
 14 97  1  0  0  0
 15 98  1  0  0  0
 16 17  2  0  0  0
 16 21  1  0  0  0
 16 31  1  0  0  0
 17 18  1  0  0  0
 17 99  1  0  0  0
 18 19  2  0  0  0
 18100  1  0  0  0
 19 20  1  0  0  0
 19 24  1  0  0  0
 20 21  2  0  0  0
 20101  1  0  0  0
 21 23  1  0  0  0
 22 28  1  0  0  0
 22 32  2  0  0  0
 26 27  1  0  0  0
 28102  1  0  0  0
 28103  1  0  0  0
 29104  1  0  0  0
 29105  1  0  0  0
 33 34  1  0  0  0
 33 66  1  0  0  0
 33 70  2  0  0  0
 34 36  1  0  0  0
 34 59  1  0  0  0
 34106  1  0  0  0
 35 44  2  0  0  0
 35 45  1  0  0  0
 35 68  1  0  0  0
 36 56  1  0  0  0
 36107  1  0  0  0
 37 39  1  0  0  0
 37 47  1  0  0  0
 37 66  1  0  0  0
 37108  1  0  0  0
 38 43  2  0  0  0
 38 46  1  0  0  0
 38 47  1  0  0  0
 39 64  1  0  0  0
 39 67  2  0  0  0
 40 52  1  0  0  0
 40 53  2  0  0  0
 40 58  1  0  0  0
 41109  1  0  0  0
 41110  1  0  0  0
 41111  1  0  0  0
 41 48  1  0  0  0
 42 43  1  0  0  0
 42 66  1  0  0  0
 42112  1  0  0  0
 42113  1  0  0  0
 43 44  1  0  0  0
 44114  1  0  0  0
 45 46  2  0  0  0
 45115  1  0  0  0
 46116  1  0  0  0
 47117  1  0  0  0
 47118  1  0  0  0
 48 56  1  0  0  0
 48 65  1  0  0  0
 48119  1  0  0  0
 49 50  1  0  0  0
 49 53  1  0  0  0
 49 64  1  0  0  0
 49120  1  0  0  0
 50 51  1  0  0  0
 50121  1  0  0  0
 50122  1  0  0  0
 51 52  1  0  0  0
 51123  1  0  0  0
 51124  1  0  0  0
 52125  1  0  0  0
 52126  1  0  0  0
 53 54  1  0  0  0
 54 55  2  0  0  0
 54127  1  0  0  0
 55 57  1  0  0  0
 55128  1  0  0  0
 56 69  2  0  0  0
 57 58  2  0  0  0
 57129  1  0  0  0
 58130  1  0  0  0
 59 60  1  0  0  0
 59 61  1  0  0  0
 59 62  1  0  0  0
 60131  1  0  0  0
 60132  1  0  0  0
 60133  1  0  0  0
 61134  1  0  0  0
 61135  1  0  0  0
 61136  1  0  0  0
 62137  1  0  0  0
 62138  1  0  0  0
 62139  1  0  0  0
 63 65  1  0  0  0
 63140  1  0  0  0
 63141  1  0  0  0
 63142  1  0  0  0
 64143  1  0  0  0
 65144  1  0  0  0
 68 82  1  0  0  0
 71 72  2  0  0  0
 71 73  1  0  0  0
 71 76  1  0  0  0
 72 74  1  0  0  0
 72 77  1  0  0  0
 73 75  2  0  0  0
 73 79  1  0  0  0
 74 80  1  0  0  0
 74 83  2  0  0  0
 75 78  1  0  0  0
 75 83  1  0  0  0
 76 85  1  0  0  0
 76145  1  0  0  0
 76146  1  0  0  0
 77 85  1  0  0  0
 77147  1  0  0  0
 77148  1  0  0  0
 78149  1  0  0  0
 78150  1  0  0  0
 78151  1  0  0  0
 79 82  1  0  0  0
 79152  1  0  0  0
 79153  1  0  0  0
 80 81  1  0  0  0
 80154  1  0  0  0
 80155  1  0  0  0
 81 84  1  0  0  0
 81156  1  0  0  0
 81157  1  0  0  0
 82158  1  0  0  0
 82159  1  0  0  0
 84160  1  0  0  0
M  ISO  4   1 100  68 101  82 101  84 100
M  END
> <chiral flag>
0

> <version>
0

> <s_m_source_file>
/data/baiqing/PycharmProjects/Reinvent-master-3.2/result/LINK_invent/BTK/process_docking_weight1_custom_sum_contain_oxygen_bond_distance_aromatic_linkinvent_7_9_3/rearranged_h_0148.sdf

> <i_m_source_file_index>
94

> <r_mmod_Potential_Energy-OPLS-2005>
-63.6821022033691

> <r_mmod_Stretch_Energy-OPLS-2005>
77.5327682495117

> <r_mmod_Bend_Energy-OPLS-2005>
173.246795654297

> <r_mmod_Torsional_Energy-OPLS-2005>
229.275146484375

> <r_mmod_Improper_Torsional_Energy-OPLS-2005>
4.69115495681763

> <r_mmod_Van_der_Waal_Energy-OPLS-2005>
136.992553710938

> <r_mmod_Electrostatic_Energy-OPLS-2005>
-492.696014404297

> <r_mmod_Solvation_Energy-OPLS-2005>
-235.687911987305

> <b_mmod_Minimization_Converged-OPLS-2005>
0

> <r_mmod_RMS_Derivative-OPLS-2005>
3.85430669784546

$$$$
94
                    3D
 Structure written by MMmdl.
161171  0  0  1  0            999 V2000
  -30.3642  -15.2267   19.7181 C   0  0  0  0  0  0
  -31.1767  -12.8467   19.1917 C   0  0  0  0  0  0
  -30.1890  -12.4231   18.1213 C   0  0  0  0  0  0
  -28.9471  -12.2411   18.9331 C   0  0  0  0  0  0
  -28.5784  -13.5237   20.0851 C   0  0  2  0  0  0
  -29.7813  -13.2875   20.9924 C   0  0  0  0  0  0
  -24.7005  -14.4100   20.4682 C   0  0  0  0  0  0
  -23.7486  -13.4082   20.6764 C   0  0  0  0  0  0
  -24.3109  -12.1610   20.9376 C   0  0  0  0  0  0
  -23.8073  -10.7037   21.0962 C   0  0  0  0  0  0
  -24.3231   -9.6674   21.9387 C   0  0  0  0  0  0
  -23.6719   -8.3953   22.0719 C   0  0  0  0  0  0
  -22.4866   -8.1052   21.3535 C   0  0  0  0  0  0
  -22.0359   -9.0785   20.4485 C   0  0  0  0  0  0
  -22.6857  -10.3273   20.3137 C   0  0  0  0  0  0
  -21.7376   -6.1019   22.5243 C   0  0  0  0  0  0
  -21.4414   -6.5808   23.8184 C   0  0  0  0  0  0
  -21.3756   -5.6889   24.9115 C   0  0  0  0  0  0
  -21.6019   -4.3133   24.7179 C   0  0  0  0  0  0
  -21.8737   -3.8254   23.4289 C   0  0  0  0  0  0
  -21.9352   -4.7138   22.3375 C   0  0  0  0  0  0
  -22.3629  -13.6888   21.0181 C   0  0  0  0  0  0
  -22.1720   -4.2220   21.0957 F   0  0  0  0  0  0
  -21.5514   -3.4621   25.7683 F   0  0  0  0  0  0
  -30.5830  -13.8922   20.0677 N   0  0  0  0  0  0
  -25.8885  -14.0253   20.9298 N   0  0  0  0  0  0
  -25.1193  -12.8976   21.6779 N   0  0  0  0  0  0
  -21.7970  -12.9274   21.9536 N   0  0  0  0  0  0
  -24.7035  -15.7363   20.1912 N   0  0  0  0  0  0
  -31.4709  -15.7549   19.7186 O   0  0  0  0  0  0
  -21.7579   -6.9300   21.4219 O   0  0  0  0  0  0
  -21.8447  -14.6814   20.5541 O   0  0  0  0  0  0
  -24.7343  -31.7292   23.1072 C   0  0  0  0  0  0
  -25.9687  -32.4082   23.7779 C   0  0  1  0  0  0
  -26.9548  -25.9775   20.3921 C   0  0  0  0  0  0
  -25.6048  -33.7957   24.1581 N   0  0  0  0  0  0
  -23.5727  -30.3204   21.4740 C   0  0  2  0  0  0
  -24.9884  -28.5219   20.1305 C   0  0  0  0  0  0
  -22.7917  -29.3981   22.4519 C   0  0  0  0  0  0
  -18.0359  -28.1444   22.8424 C   0  0  0  0  0  0
  -24.1506  -36.6976   23.2666 C   0  0  0  0  0  0
  -26.1623  -30.2194   21.4841 C   0  0  0  0  0  0
  -26.1648  -28.7102   20.8569 C   0  0  0  0  0  0
  -27.1227  -27.4826   20.9342 C   0  0  0  0  0  0
  -25.8303  -26.1915   19.5282 C   0  0  0  0  0  0
  -24.9105  -27.3055   19.4240 C   0  0  0  0  0  0
  -23.8496  -29.5800   20.1247 C   0  0  0  0  0  0
  -25.4184  -36.2657   24.0222 C   0  0  1  0  0  0
  -20.6009  -28.3827   23.1029 C   0  0  2  0  0  0
  -20.6790  -26.9439   22.5404 C   0  0  0  0  0  0
  -19.5783  -26.6350   21.5204 C   0  0  0  0  0  0
  -18.1965  -26.7961   22.1599 C   0  0  0  0  0  0
  -19.1638  -28.8966   23.2697 C   0  0  0  0  0  0
  -18.9548  -30.1533   23.8770 C   0  0  0  0  0  0
  -17.6538  -30.6617   24.0541 C   0  0  0  0  0  0
  -25.9208  -34.9074   23.4781 C   0  0  0  0  0  0
  -16.5419  -29.9096   23.6364 C   0  0  0  0  0  0
  -16.7337  -28.6518   23.0374 C   0  0  0  0  0  0
  -26.4699  -31.6403   25.0657 C   0  0  0  0  0  0
  -25.3615  -31.3915   26.1160 C   0  0  0  0  0  0
  -27.0754  -30.2677   24.7061 C   0  0  0  0  0  0
  -27.6012  -32.4428   25.7505 C   0  0  0  0  0  0
  -27.5534  -37.1647   24.8467 C   0  0  0  0  0  0
  -21.4530  -29.2975   22.3276 N   0  0  0  0  0  0
  -26.4247  -37.3492   23.9392 N   0  0  0  0  0  0
  -24.8565  -30.8109   22.0691 N   0  0  0  0  0  0
  -23.4112  -28.7676   23.3112 O   0  0  0  0  0  0
  -27.6418  -24.3986   20.5692 O   0  0  0  0  0  0
  -26.5929  -34.8772   22.4455 O   0  0  0  0  0  0
  -23.6270  -32.0714   23.5658 O   0  0  0  0  0  0
  -27.5169  -12.8526   21.9174 C   0  0  0  0  0  0
  -26.8534  -12.1728   20.1651 C   0  0  0  0  0  0
  -27.7849  -14.7659   22.0060 C   0  0  0  0  0  0
  -26.7025  -13.6489   18.8596 C   0  0  0  0  0  0
  -27.5444  -16.1307   20.8102 C   0  0  0  0  0  0
  -27.3869  -15.3677   19.3502 C   0  0  0  0  0  0
  -25.1778  -14.4784   16.9068 C   0  0  0  0  0  0
  -24.7382  -13.0647   17.2142 C   0  0  0  0  0  0
  -28.3828  -19.4034   19.6096 C   0  0  0  0  0  0
  -28.4354  -21.1776   19.6144 C   0  0  0  0  0  0
  -27.1366  -20.3328   21.2085 C   0  0  0  0  0  0
  -26.1651  -13.4752   17.4662 C   0  0  0  0  0  0
  -27.5882  -18.3613   20.6774 C   0  0  2  0  0  0
  -27.5689  -22.2833   20.5500 C   0  0  2  0  0  0
  -29.0209  -15.7969   19.2221 N   0  0  0  0  0  0
  -32.0613  -13.2524   18.7025 H   0  0  0  0  0  0
  -31.5283  -11.9838   19.7596 H   0  0  0  0  0  0
  -30.4842  -11.5055   17.6216 H   0  0  0  0  0  0
  -30.0798  -13.2019   17.3586 H   0  0  0  0  0  0
  -29.1061  -11.3023   19.4733 H   0  0  0  0  0  0
  -28.2312  -11.9543   18.1602 H   0  0  0  0  0  0
  -28.7838  -13.6787   19.0158 H   0  0  0  0  0  0
  -29.9932  -12.2372   21.1998 H   0  0  0  0  0  0
  -29.9279  -13.8150   21.9293 H   0  0  0  0  0  0
  -25.2084   -9.8672   22.5318 H   0  0  0  0  0  0
  -24.0867   -7.6578   22.7454 H   0  0  0  0  0  0
  -21.1627   -8.8701   19.8442 H   0  0  0  0  0  0
  -22.2645  -11.0376   19.6135 H   0  0  0  0  0  0
  -21.2595   -7.6341   23.9721 H   0  0  0  0  0  0
  -21.1573   -6.0645   25.9002 H   0  0  0  0  0  0
  -22.0354   -2.7682   23.2763 H   0  0  0  0  0  0
  -22.3091  -12.1584   22.3644 H   0  0  0  0  0  0
  -20.8550  -13.1166   22.2581 H   0  0  0  0  0  0
  -25.6715  -15.9392   19.9757 H   0  0  0  0  0  0
  -24.5490  -16.2147   21.0712 H   0  0  0  0  0  0
  -26.7800  -32.4381   23.0496 H   0  0  0  0  0  0
  -24.9990  -33.8897   24.9597 H   0  0  0  0  0  0
  -22.9341  -31.1779   21.2469 H   0  0  0  0  0  0
  -23.3787  -35.9282   23.3248 H   0  0  0  0  0  0
  -24.3541  -36.8765   22.2096 H   0  0  0  0  0  0
  -23.7273  -37.6105   23.6865 H   0  0  0  0  0  0
  -26.4599  -30.8929   20.6788 H   0  0  0  0  0  0
  -26.9876  -30.2820   22.1792 H   0  0  0  0  0  0
  -27.9920  -27.6387   21.5576 H   0  0  0  0  0  0
  -25.5475  -25.3208   18.9542 H   0  0  0  0  0  0
  -24.0504  -27.1551   18.7870 H   0  0  0  0  0  0
  -24.1024  -30.3181   19.3630 H   0  0  0  0  0  0
  -22.9323  -29.1065   19.7706 H   0  0  0  0  0  0
  -25.1436  -36.1306   25.0709 H   0  0  0  0  0  0
  -21.0082  -28.3506   24.1157 H   0  0  0  0  0  0
  -20.5580  -26.2476   23.3716 H   0  0  0  0  0  0
  -21.6652  -26.7288   22.1274 H   0  0  0  0  0  0
  -19.6935  -25.6223   21.1319 H   0  0  0  0  0  0
  -19.6741  -27.3086   20.6674 H   0  0  0  0  0  0
  -17.4233  -26.6693   21.4002 H   0  0  0  0  0  0
  -18.0352  -26.0127   22.9018 H   0  0  0  0  0  0
  -19.8031  -30.7368   24.2081 H   0  0  0  0  0  0
  -17.5101  -31.6286   24.5174 H   0  0  0  0  0  0
  -15.5418  -30.2973   23.7761 H   0  0  0  0  0  0
  -15.8728  -28.0802   22.7165 H   0  0  0  0  0  0
  -24.5849  -30.7216   25.7453 H   0  0  0  0  0  0
  -24.8773  -32.3206   26.4166 H   0  0  0  0  0  0
  -25.7652  -30.9344   27.0204 H   0  0  0  0  0  0
  -26.3563  -29.6016   24.2289 H   0  0  0  0  0  0
  -27.4136  -29.7461   25.6027 H   0  0  0  0  0  0
  -27.9567  -30.3649   24.0718 H   0  0  0  0  0  0
  -27.2453  -33.3871   26.1639 H   0  0  0  0  0  0
  -28.4047  -32.6763   25.0505 H   0  0  0  0  0  0
  -28.0436  -31.8877   26.5788 H   0  0  0  0  0  0
  -28.2493  -37.9988   24.7481 H   0  0  0  0  0  0
  -28.1084  -36.2495   24.6345 H   0  0  0  0  0  0
  -27.2231  -37.1321   25.8864 H   0  0  0  0  0  0
  -20.9934  -29.8544   21.6208 H   0  0  0  0  0  0
  -26.0001  -38.2503   24.1405 H   0  0  0  0  0  0
  -27.6756  -12.2011   22.7664 H   0  0  0  0  0  0
  -26.5961  -11.1399   19.9633 H   0  0  0  0  0  0
  -28.0476  -15.1048   23.0011 H   0  0  0  0  0  0
  -24.8332  -15.2791   17.5600 H   0  0  0  0  0  0
  -25.2467  -14.7456   15.8516 H   0  0  0  0  0  0
  -24.5412  -12.4190   16.3601 H   0  0  0  0  0  0
  -24.0973  -12.9050   18.0741 H   0  0  0  0  0  0
  -29.4238  -19.0828   19.5582 H   0  0  0  0  0  0
  -28.0040  -19.1456   18.6181 H   0  0  0  0  0  0
  -28.3645  -21.5177   18.5789 H   0  0  0  0  0  0
  -29.4760  -21.4073   19.8532 H   0  0  0  0  0  0
  -27.3905  -20.3667   22.2687 H   0  0  0  0  0  0
  -26.0470  -20.3291   21.2222 H   0  0  0  0  0  0
  -26.9363  -13.1530   16.7735 H   0  0  0  0  0  0
  -26.6170  -18.2415   20.1968 H   0  0  0  0  0  0
  -28.2507  -22.4127   21.3920 H   0  0  0  0  0  0
  -29.1412  -16.7624   18.9600 H   0  0  0  0  0  0
  1 25  1  0  0  0
  1 30  2  0  0  0
  1 85  1  0  0  0
  2  3  1  0  0  0
  2 25  1  0  0  0
  2 86  1  0  0  0
  2 87  1  0  0  0
  3  4  1  0  0  0
  3 88  1  0  0  0
  3 89  1  0  0  0
  4  5  1  0  0  0
  4 90  1  0  0  0
  4 91  1  0  0  0
  5  6  1  0  0  0
  5 26  1  0  0  0
  5 92  1  0  0  0
  6 25  1  0  0  0
  6 93  1  0  0  0
  6 94  1  0  0  0
  7  8  2  0  0  0
  7 26  1  0  0  0
  7 29  1  0  0  0
  8  9  1  0  0  0
  8 22  1  0  0  0
  9 10  1  0  0  0
  9 27  2  0  0  0
 10 11  2  0  0  0
 10 15  1  0  0  0
 11 12  1  0  0  0
 11 95  1  0  0  0
 12 13  2  0  0  0
 12 96  1  0  0  0
 13 14  1  0  0  0
 13 31  1  0  0  0
 14 15  2  0  0  0
 14 97  1  0  0  0
 15 98  1  0  0  0
 16 17  2  0  0  0
 16 21  1  0  0  0
 16 31  1  0  0  0
 17 18  1  0  0  0
 17 99  1  0  0  0
 18 19  2  0  0  0
 18100  1  0  0  0
 19 20  1  0  0  0
 19 24  1  0  0  0
 20 21  2  0  0  0
 20101  1  0  0  0
 21 23  1  0  0  0
 22 28  1  0  0  0
 22 32  2  0  0  0
 26 27  1  0  0  0
 28102  1  0  0  0
 28103  1  0  0  0
 29104  1  0  0  0
 29105  1  0  0  0
 33 34  1  0  0  0
 33 66  1  0  0  0
 33 70  2  0  0  0
 34 36  1  0  0  0
 34 59  1  0  0  0
 34106  1  0  0  0
 35 44  2  0  0  0
 35 45  1  0  0  0
 35 68  1  0  0  0
 36 56  1  0  0  0
 36107  1  0  0  0
 37 39  1  0  0  0
 37 47  1  0  0  0
 37 66  1  0  0  0
 37108  1  0  0  0
 38 43  2  0  0  0
 38 46  1  0  0  0
 38 47  1  0  0  0
 39 64  1  0  0  0
 39 67  2  0  0  0
 40 52  1  0  0  0
 40 53  2  0  0  0
 40 58  1  0  0  0
 41109  1  0  0  0
 41110  1  0  0  0
 41111  1  0  0  0
 41 48  1  0  0  0
 42 43  1  0  0  0
 42 66  1  0  0  0
 42112  1  0  0  0
 42113  1  0  0  0
 43 44  1  0  0  0
 44114  1  0  0  0
 45 46  2  0  0  0
 45115  1  0  0  0
 46116  1  0  0  0
 47117  1  0  0  0
 47118  1  0  0  0
 48 56  1  0  0  0
 48 65  1  0  0  0
 48119  1  0  0  0
 49 50  1  0  0  0
 49 53  1  0  0  0
 49 64  1  0  0  0
 49120  1  0  0  0
 50 51  1  0  0  0
 50121  1  0  0  0
 50122  1  0  0  0
 51 52  1  0  0  0
 51123  1  0  0  0
 51124  1  0  0  0
 52125  1  0  0  0
 52126  1  0  0  0
 53 54  1  0  0  0
 54 55  2  0  0  0
 54127  1  0  0  0
 55 57  1  0  0  0
 55128  1  0  0  0
 56 69  2  0  0  0
 57 58  2  0  0  0
 57129  1  0  0  0
 58130  1  0  0  0
 59 60  1  0  0  0
 59 61  1  0  0  0
 59 62  1  0  0  0
 60131  1  0  0  0
 60132  1  0  0  0
 60133  1  0  0  0
 61134  1  0  0  0
 61135  1  0  0  0
 61136  1  0  0  0
 62137  1  0  0  0
 62138  1  0  0  0
 62139  1  0  0  0
 63 65  1  0  0  0
 63140  1  0  0  0
 63141  1  0  0  0
 63142  1  0  0  0
 64143  1  0  0  0
 65144  1  0  0  0
 68 84  1  0  0  0
 71 72  2  0  0  0
 71 73  1  0  0  0
 71145  1  0  0  0
 72 74  1  0  0  0
 72146  1  0  0  0
 73 75  2  0  0  0
 73147  1  0  0  0
 74 76  2  0  0  0
 74 82  1  0  0  0
 75 76  1  0  0  0
 75 83  1  0  0  0
 76 85  1  0  0  0
 77 78  1  0  0  0
 77 82  1  0  0  0
 77148  1  0  0  0
 77149  1  0  0  0
 78 82  1  0  0  0
 78150  1  0  0  0
 78151  1  0  0  0
 79 80  1  0  0  0
 79 83  1  0  0  0
 79152  1  0  0  0
 79153  1  0  0  0
 80 84  1  0  0  0
 80154  1  0  0  0
 80155  1  0  0  0
 81 83  1  0  0  0
 81 84  1  0  0  0
 81156  1  0  0  0
 81157  1  0  0  0
 82158  1  0  0  0
 83159  1  0  0  0
 84160  1  0  0  0
 85161  1  0  0  0
M  ISO  4   1 100  68 101  84 101  85 100
M  END
> <chiral flag>
0

> <version>
0

> <s_m_source_file>
/data/baiqing/PycharmProjects/Reinvent-master-3.2/result/LINK_invent/BTK/process_docking_weight1_custom_sum_contain_oxygen_bond_distance_aromatic_linkinvent_7_9_3/rearranged_h_0148.sdf

> <i_m_source_file_index>
95

> <r_mmod_Potential_Energy-OPLS-2005>
17027.61328125

> <r_mmod_Stretch_Energy-OPLS-2005>
8692.943359375

> <r_mmod_Bend_Energy-OPLS-2005>
2070.06323242188

> <r_mmod_Torsional_Energy-OPLS-2005>
738.748291015625

> <r_mmod_Improper_Torsional_Energy-OPLS-2005>
57.676872253418

> <r_mmod_Van_der_Waal_Energy-OPLS-2005>
3000.84399414062

> <r_mmod_Electrostatic_Energy-OPLS-2005>
-368.071044921875

> <r_mmod_Solvation_Energy-OPLS-2005>
-206.63883972168

> <b_mmod_Minimization_Converged-OPLS-2005>
0

> <r_mmod_RMS_Derivative-OPLS-2005>
12.0169773101807

$$$$
95
                    3D
 Structure written by MMmdl.
167176  0  0  1  0            999 V2000
  -30.6507  -14.6963   20.4711 C   0  0  0  0  0  0
  -30.4249  -12.4302   19.4565 C   0  0  0  0  0  0
  -29.4992  -12.4972   18.2238 C   0  0  0  0  0  0
  -28.0276  -12.3184   18.6449 C   0  0  0  0  0  0
  -27.6369  -13.2180   19.8471 C   0  0  2  0  0  0
  -28.6876  -13.1612   20.9775 C   0  0  0  0  0  0
  -25.2504  -13.8151   20.5711 C   0  0  0  0  0  0
  -24.1786  -13.0418   20.9217 C   0  0  0  0  0  0
  -24.6368  -11.6895   20.8766 C   0  0  0  0  0  0
  -23.9050  -10.4281   21.0421 C   0  0  0  0  0  0
  -24.3605   -9.4195   21.9195 C   0  0  0  0  0  0
  -23.6278   -8.2235   22.0758 C   0  0  0  0  0  0
  -22.4264   -8.0276   21.3544 C   0  0  0  0  0  0
  -21.9904   -9.0251   20.4646 C   0  0  0  0  0  0
  -22.7230  -10.2128   20.3061 C   0  0  0  0  0  0
  -21.6845   -6.0739   22.5281 C   0  0  0  0  0  0
  -21.4006   -6.5643   23.8216 C   0  0  0  0  0  0
  -21.3655   -5.6795   24.9178 C   0  0  0  0  0  0
  -21.6044   -4.3060   24.7227 C   0  0  0  0  0  0
  -21.8815   -3.8152   23.4346 C   0  0  0  0  0  0
  -21.9188   -4.6967   22.3403 C   0  0  0  0  0  0
  -22.7813  -13.5215   21.1877 C   0  0  0  0  0  0
  -22.1658   -4.2158   21.0981 F   0  0  0  0  0  0
  -21.5631   -3.4542   25.7737 F   0  0  0  0  0  0
  -29.9892  -13.4942   20.3860 N   0  0  0  0  0  0
  -26.2916  -12.9333   20.3302 N   0  0  0  0  0  0
  -25.9293  -11.6491   20.5777 N   0  0  0  0  0  0
  -22.0449  -12.8206   22.0430 N   0  0  0  0  0  0
  -25.4195  -15.1872   20.4115 N   0  0  0  0  0  0
  -31.8488  -14.7656   20.1825 O   0  0  0  0  0  0
  -21.6626   -6.8876   21.4240 O   0  0  0  0  0  0
  -22.3510  -14.5533   20.6741 O   0  0  0  0  0  0
  -24.6275  -31.8568   23.1987 C   0  0  0  0  0  0
  -25.9114  -32.4764   23.8334 C   0  0  1  0  0  0
  -27.2287  -27.3025   20.1121 C   0  0  0  0  0  0
  -25.5926  -33.8565   24.2261 N   0  0  0  0  0  0
  -23.4214  -30.4794   21.5412 C   0  0  2  0  0  0
  -24.8668  -28.9273   20.1094 C   0  0  0  0  0  0
  -22.7481  -29.4607   22.4924 C   0  0  0  0  0  0
  -18.0287  -28.1391   22.8484 C   0  0  0  0  0  0
  -24.1482  -36.7274   23.2645 C   0  0  0  0  0  0
  -25.9616  -30.7824   21.3710 C   0  0  0  0  0  0
  -26.0345  -29.4062   20.7151 C   0  0  0  0  0  0
  -27.2126  -28.6030   20.7097 C   0  0  0  0  0  0
  -26.0321  -26.8680   19.4981 C   0  0  0  0  0  0
  -24.8684  -27.6643   19.4955 C   0  0  0  0  0  0
  -23.6356  -29.8098   20.1575 C   0  0  0  0  0  0
  -25.4104  -36.3070   24.0334 C   0  0  1  0  0  0
  -20.5884  -28.3687   23.1279 C   0  0  2  0  0  0
  -20.6766  -26.9410   22.5404 C   0  0  0  0  0  0
  -19.5742  -26.6383   21.5210 C   0  0  0  0  0  0
  -18.1920  -26.7939   22.1616 C   0  0  0  0  0  0
  -19.1542  -28.8855   23.2877 C   0  0  0  0  0  0
  -18.9475  -30.1460   23.8894 C   0  0  0  0  0  0
  -17.6476  -30.6590   24.0566 C   0  0  0  0  0  0
  -25.9047  -34.9444   23.5092 C   0  0  0  0  0  0
  -16.5366  -29.9084   23.6343 C   0  0  0  0  0  0
  -16.7276  -28.6505   23.0351 C   0  0  0  0  0  0
  -26.4494  -31.6590   25.0722 C   0  0  0  0  0  0
  -25.3715  -31.3726   26.1442 C   0  0  0  0  0  0
  -27.0354  -30.3024   24.6174 C   0  0  0  0  0  0
  -27.6061  -32.4332   25.7487 C   0  0  0  0  0  0
  -27.5567  -37.1786   24.8467 C   0  0  0  0  0  0
  -21.4192  -29.3047   22.3682 N   0  0  0  0  0  0
  -26.4272  -37.3771   23.9420 N   0  0  0  0  0  0
  -24.6893  -31.0572   22.0942 N   0  0  0  0  0  0
  -23.4201  -28.8152   23.3008 O   0  0  0  0  0  0
  -28.3696  -26.4834   20.1802 O   0  0  0  0  0  0
  -26.5615  -34.8926   22.4660 O   0  0  0  0  0  0
  -23.5434  -32.1377   23.7300 O   0  0  0  0  0  0
  -30.5409  -18.2986   21.5087 C   0  0  0  0  0  0
  -29.2728  -18.0434   19.4549 C   0  0  0  0  0  0
  -30.3094  -16.7786   21.8636 C   0  0  0  0  0  0
  -29.0129  -16.5214   19.7953 C   0  0  0  0  0  0
  -28.2196  -22.4244   19.4171 C   0  0  1  0  0  0
  -28.3240  -23.7586   20.2474 C   0  0  1  0  0  0
  -29.4239  -19.0015   20.6758 C   0  0  0  0  0  0
  -28.8167  -21.6197   20.6147 C   0  0  2  0  0  0
  -29.4790  -22.9980   21.0053 C   0  0  1  0  0  0
  -26.8623  -22.0123   18.8619 C   0  0  0  0  0  0
  -30.9136  -23.2793   20.5369 C   0  0  0  0  0  0
  -28.4916  -25.1683   19.4993 C   0  0  0  0  0  0
  -29.9407  -15.8582   20.7554 N   0  0  0  0  0  0
  -29.7645  -20.4543   20.3153 N   0  3  0  0  0  0
  -29.5143  -23.2388   22.3975 O   0  0  0  0  0  0
  -31.4660  -12.5448   19.1490 H   0  0  0  0  0  0
  -30.3608  -11.4533   19.9383 H   0  0  0  0  0  0
  -29.7767  -11.7305   17.4994 H   0  0  0  0  0  0
  -29.6240  -13.4563   17.7186 H   0  0  0  0  0  0
  -27.8850  -11.2694   18.9075 H   0  0  0  0  0  0
  -27.3662  -12.5111   17.7989 H   0  0  0  0  0  0
  -27.6191  -14.2309   19.4550 H   0  0  0  0  0  0
  -28.7177  -12.1707   21.4329 H   0  0  0  0  0  0
  -28.4300  -13.8593   21.7759 H   0  0  0  0  0  0
  -25.2747   -9.5674   22.4772 H   0  0  0  0  0  0
  -23.9988   -7.4623   22.7477 H   0  0  0  0  0  0
  -21.0843   -8.8766   19.8943 H   0  0  0  0  0  0
  -22.3695  -10.9671   19.6172 H   0  0  0  0  0  0
  -21.1993   -7.6147   23.9719 H   0  0  0  0  0  0
  -21.1482   -6.0529   25.9083 H   0  0  0  0  0  0
  -22.0596   -2.7615   23.2846 H   0  0  0  0  0  0
  -22.4052  -11.9843   22.4789 H   0  0  0  0  0  0
  -21.1076  -13.1245   22.2651 H   0  0  0  0  0  0
  -24.6521  -15.8409   20.5238 H   0  0  0  0  0  0
  -26.2707  -15.6259   20.0884 H   0  0  0  0  0  0
  -26.7185  -32.5419   23.1082 H   0  0  0  0  0  0
  -25.0098  -33.9707   25.0419 H   0  0  0  0  0  0
  -22.7160  -31.3001   21.3952 H   0  0  0  0  0  0
  -23.3755  -35.9596   23.3300 H   0  0  0  0  0  0
  -24.3581  -36.8893   22.2065 H   0  0  0  0  0  0
  -23.7225  -37.6466   23.6673 H   0  0  0  0  0  0
  -26.0912  -31.5423   20.5992 H   0  0  0  0  0  0
  -26.8436  -30.8344   21.9981 H   0  0  0  0  0  0
  -28.1091  -28.9654   21.1932 H   0  0  0  0  0  0
  -25.9577  -25.8934   19.0411 H   0  0  0  0  0  0
  -23.9689  -27.2844   19.0302 H   0  0  0  0  0  0
  -23.7547  -30.5847   19.3996 H   0  0  0  0  0  0
  -22.7555  -29.2393   19.8566 H   0  0  0  0  0  0
  -25.1282  -36.1911   25.0825 H   0  0  0  0  0  0
  -20.9977  -28.3257   24.1398 H   0  0  0  0  0  0
  -20.5658  -26.2299   23.3603 H   0  0  0  0  0  0
  -21.6630  -26.7419   22.1206 H   0  0  0  0  0  0
  -19.6896  -25.6288   21.1247 H   0  0  0  0  0  0
  -19.6690  -27.3195   20.6740 H   0  0  0  0  0  0
  -17.4188  -26.6715   21.4015 H   0  0  0  0  0  0
  -18.0305  -26.0073   22.9003 H   0  0  0  0  0  0
  -19.7948  -30.7290   24.2254 H   0  0  0  0  0  0
  -17.5025  -31.6274   24.5157 H   0  0  0  0  0  0
  -15.5371  -30.2993   23.7661 H   0  0  0  0  0  0
  -15.8669  -28.0837   22.7057 H   0  0  0  0  0  0
  -24.5932  -30.7022   25.7768 H   0  0  0  0  0  0
  -24.8856  -32.2887   26.4819 H   0  0  0  0  0  0
  -25.8033  -30.8956   27.0249 H   0  0  0  0  0  0
  -26.2937  -29.6765   24.1202 H   0  0  0  0  0  0
  -27.4078  -29.7289   25.4671 H   0  0  0  0  0  0
  -27.8780  -30.4336   23.9383 H   0  0  0  0  0  0
  -27.2698  -33.3666   26.2010 H   0  0  0  0  0  0
  -28.3896  -32.6827   25.0319 H   0  0  0  0  0  0
  -28.0699  -31.8486   26.5441 H   0  0  0  0  0  0
  -28.2568  -38.0097   24.7524 H   0  0  0  0  0  0
  -28.1081  -36.2630   24.6271 H   0  0  0  0  0  0
  -27.2301  -37.1395   25.8873 H   0  0  0  0  0  0
  -20.9373  -29.8788   21.6910 H   0  0  0  0  0  0
  -26.0150  -38.2835   24.1445 H   0  0  0  0  0  0
  -31.4885  -18.3768   20.9730 H   0  0  0  0  0  0
  -30.6861  -18.8468   22.4408 H   0  0  0  0  0  0
  -28.4626  -18.4035   18.8188 H   0  0  0  0  0  0
  -30.1743  -18.1031   18.8427 H   0  0  0  0  0  0
  -29.5071  -16.7126   22.5997 H   0  0  0  0  0  0
  -31.1978  -16.3996   22.3734 H   0  0  0  0  0  0
  -28.9987  -15.9621   18.8577 H   0  0  0  0  0  0
  -28.0120  -16.4340   20.2155 H   0  0  0  0  0  0
  -28.9480  -22.4700   18.6039 H   0  0  0  0  0  0
  -27.4432  -23.8093   20.8909 H   0  0  0  0  0  0
  -28.4992  -18.9964   21.2537 H   0  0  0  0  0  0
  -28.0472  -21.3319   21.3337 H   0  0  0  0  0  0
  -26.1047  -21.9647   19.6455 H   0  0  0  0  0  0
  -26.9076  -21.0300   18.3902 H   0  0  0  0  0  0
  -26.5135  -22.7192   18.1084 H   0  0  0  0  0  0
  -31.0469  -23.0778   19.4736 H   0  0  0  0  0  0
  -31.6477  -22.6791   21.0752 H   0  0  0  0  0  0
  -31.1848  -24.3247   20.6913 H   0  0  0  0  0  0
  -27.8795  -25.1649   18.5984 H   0  0  0  0  0  0
  -29.4981  -25.1923   19.0837 H   0  0  0  0  0  0
  -30.0670  -20.5003   19.3563 H   0  0  0  0  0  0
  -30.5797  -20.6599   20.8698 H   0  0  0  0  0  0
  -28.6148  -23.2208   22.7101 H   0  0  0  0  0  0
  1 25  1  0  0  0
  1 30  2  0  0  0
  1 83  1  0  0  0
  2  3  1  0  0  0
  2 25  1  0  0  0
  2 86  1  0  0  0
  2 87  1  0  0  0
  3  4  1  0  0  0
  3 88  1  0  0  0
  3 89  1  0  0  0
  4  5  1  0  0  0
  4 90  1  0  0  0
  4 91  1  0  0  0
  5  6  1  0  0  0
  5 26  1  0  0  0
  5 92  1  0  0  0
  6 25  1  0  0  0
  6 93  1  0  0  0
  6 94  1  0  0  0
  7  8  2  0  0  0
  7 26  1  0  0  0
  7 29  1  0  0  0
  8  9  1  0  0  0
  8 22  1  0  0  0
  9 10  1  0  0  0
  9 27  2  0  0  0
 10 11  2  0  0  0
 10 15  1  0  0  0
 11 12  1  0  0  0
 11 95  1  0  0  0
 12 13  2  0  0  0
 12 96  1  0  0  0
 13 14  1  0  0  0
 13 31  1  0  0  0
 14 15  2  0  0  0
 14 97  1  0  0  0
 15 98  1  0  0  0
 16 17  2  0  0  0
 16 21  1  0  0  0
 16 31  1  0  0  0
 17 18  1  0  0  0
 17 99  1  0  0  0
 18 19  2  0  0  0
 18100  1  0  0  0
 19 20  1  0  0  0
 19 24  1  0  0  0
 20 21  2  0  0  0
 20101  1  0  0  0
 21 23  1  0  0  0
 22 28  1  0  0  0
 22 32  2  0  0  0
 26 27  1  0  0  0
 28102  1  0  0  0
 28103  1  0  0  0
 29104  1  0  0  0
 29105  1  0  0  0
 33 34  1  0  0  0
 33 66  1  0  0  0
 33 70  2  0  0  0
 34 36  1  0  0  0
 34 59  1  0  0  0
 34106  1  0  0  0
 35 44  2  0  0  0
 35 45  1  0  0  0
 35 68  1  0  0  0
 36 56  1  0  0  0
 36107  1  0  0  0
 37 39  1  0  0  0
 37 47  1  0  0  0
 37 66  1  0  0  0
 37108  1  0  0  0
 38 43  2  0  0  0
 38 46  1  0  0  0
 38 47  1  0  0  0
 39 64  1  0  0  0
 39 67  2  0  0  0
 40 52  1  0  0  0
 40 53  2  0  0  0
 40 58  1  0  0  0
 41109  1  0  0  0
 41110  1  0  0  0
 41111  1  0  0  0
 41 48  1  0  0  0
 42 43  1  0  0  0
 42 66  1  0  0  0
 42112  1  0  0  0
 42113  1  0  0  0
 43 44  1  0  0  0
 44114  1  0  0  0
 45 46  2  0  0  0
 45115  1  0  0  0
 46116  1  0  0  0
 47117  1  0  0  0
 47118  1  0  0  0
 48 56  1  0  0  0
 48 65  1  0  0  0
 48119  1  0  0  0
 49 50  1  0  0  0
 49 53  1  0  0  0
 49 64  1  0  0  0
 49120  1  0  0  0
 50 51  1  0  0  0
 50121  1  0  0  0
 50122  1  0  0  0
 51 52  1  0  0  0
 51123  1  0  0  0
 51124  1  0  0  0
 52125  1  0  0  0
 52126  1  0  0  0
 53 54  1  0  0  0
 54 55  2  0  0  0
 54127  1  0  0  0
 55 57  1  0  0  0
 55128  1  0  0  0
 56 69  2  0  0  0
 57 58  2  0  0  0
 57129  1  0  0  0
 58130  1  0  0  0
 59 60  1  0  0  0
 59 61  1  0  0  0
 59 62  1  0  0  0
 60131  1  0  0  0
 60132  1  0  0  0
 60133  1  0  0  0
 61134  1  0  0  0
 61135  1  0  0  0
 61136  1  0  0  0
 62137  1  0  0  0
 62138  1  0  0  0
 62139  1  0  0  0
 63 65  1  0  0  0
 63140  1  0  0  0
 63141  1  0  0  0
 63142  1  0  0  0
 64143  1  0  0  0
 65144  1  0  0  0
 68 82  1  0  0  0
 71 73  1  0  0  0
 71 77  1  0  0  0
 71145  1  0  0  0
 71146  1  0  0  0
 72 74  1  0  0  0
 72 77  1  0  0  0
 72147  1  0  0  0
 72148  1  0  0  0
 73 83  1  0  0  0
 73149  1  0  0  0
 73150  1  0  0  0
 74 83  1  0  0  0
 74151  1  0  0  0
 74152  1  0  0  0
 75 76  1  0  0  0
 75 78  1  0  0  0
 75 80  1  0  0  0
 75153  1  0  0  0
 76 79  1  0  0  0
 76 82  1  0  0  0
 76154  1  0  0  0
 77 84  1  0  0  0
 77155  1  0  0  0
 78 79  1  0  0  0
 78 84  1  0  0  0
 78156  1  0  0  0
 79 81  1  0  0  0
 79 85  1  0  0  0
 80157  1  0  0  0
 80158  1  0  0  0
 80159  1  0  0  0
 81160  1  0  0  0
 81161  1  0  0  0
 81162  1  0  0  0
 82163  1  0  0  0
 82164  1  0  0  0
 84165  1  0  0  0
 84166  1  0  0  0
 85167  1  0  0  0
M  CHG  1  84   1
M  ISO  4   1 100  68 101  82 101  83 100
M  END
> <chiral flag>
0

> <version>
0

> <s_m_source_file>
/data/baiqing/PycharmProjects/Reinvent-master-3.2/result/LINK_invent/BTK/process_docking_weight1_custom_sum_contain_oxygen_bond_distance_aromatic_linkinvent_7_9_3/rearranged_h_0148.sdf

> <i_m_source_file_index>
96

> <r_mmod_Potential_Energy-OPLS-2005>
199.615859985352

> <r_mmod_Stretch_Energy-OPLS-2005>
94.2430419921875

> <r_mmod_Bend_Energy-OPLS-2005>
190.455352783203

> <r_mmod_Torsional_Energy-OPLS-2005>
374.536712646484

> <r_mmod_Improper_Torsional_Energy-OPLS-2005>
3.47881054878235

> <r_mmod_Van_der_Waal_Energy-OPLS-2005>
115.75016784668

> <r_mmod_Electrostatic_Energy-OPLS-2005>
-175.033782958984

> <r_mmod_Solvation_Energy-OPLS-2005>
-468.316925048828

> <b_mmod_Minimization_Converged-OPLS-2005>
0

> <r_mmod_RMS_Derivative-OPLS-2005>
1.41223871707916

$$$$
96
                    3D
 Structure written by MMmdl.
175184  0  0  1  0            999 V2000
  -30.6787  -14.4635   20.4750 C   0  0  0  0  0  0
  -30.4259  -12.2604   19.4397 C   0  0  0  0  0  0
  -29.5015  -12.4531   18.2167 C   0  0  0  0  0  0
  -28.0168  -12.3428   18.6217 C   0  0  0  0  0  0
  -27.6621  -13.1926   19.8711 C   0  0  2  0  0  0
  -28.7084  -12.9903   20.9976 C   0  0  0  0  0  0
  -25.2599  -13.8130   20.5711 C   0  0  0  0  0  0
  -24.1837  -13.0420   20.9215 C   0  0  0  0  0  0
  -24.6381  -11.6895   20.8789 C   0  0  0  0  0  0
  -23.9037  -10.4291   21.0451 C   0  0  0  0  0  0
  -24.3591   -9.4209   21.9221 C   0  0  0  0  0  0
  -23.6272   -8.2240   22.0758 C   0  0  0  0  0  0
  -22.4253   -8.0278   21.3547 C   0  0  0  0  0  0
  -21.9902   -9.0252   20.4640 C   0  0  0  0  0  0
  -22.7226  -10.2135   20.3078 C   0  0  0  0  0  0
  -21.6834   -6.0742   22.5289 C   0  0  0  0  0  0
  -21.4015   -6.5646   23.8229 C   0  0  0  0  0  0
  -21.3668   -5.6797   24.9192 C   0  0  0  0  0  0
  -21.6040   -4.3056   24.7247 C   0  0  0  0  0  0
  -21.8808   -3.8150   23.4362 C   0  0  0  0  0  0
  -21.9195   -4.6972   22.3422 C   0  0  0  0  0  0
  -22.7869  -13.5246   21.1893 C   0  0  0  0  0  0
  -22.1652   -4.2157   21.1002 F   0  0  0  0  0  0
  -21.5642   -3.4546   25.7769 F   0  0  0  0  0  0
  -30.0445  -13.2639   20.4417 N   0  0  0  0  0  0
  -26.3020  -12.9266   20.3369 N   0  0  0  0  0  0
  -25.9300  -11.6447   20.5813 N   0  0  0  0  0  0
  -22.0486  -12.8222   22.0425 N   0  0  0  0  0  0
  -25.4296  -15.1851   20.4106 N   0  0  0  0  0  0
  -31.8515  -14.6292   20.1378 O   0  0  0  0  0  0
  -21.6612   -6.8877   21.4240 O   0  0  0  0  0  0
  -22.3583  -14.5575   20.6764 O   0  0  0  0  0  0
  -24.6085  -31.8703   23.2113 C   0  0  0  0  0  0
  -25.8996  -32.4842   23.8404 C   0  0  1  0  0  0
  -27.2657  -27.4785   20.1006 C   0  0  0  0  0  0
  -25.5871  -33.8639   24.2334 N   0  0  0  0  0  0
  -23.3954  -30.4894   21.5504 C   0  0  2  0  0  0
  -24.8486  -28.9575   20.1174 C   0  0  0  0  0  0
  -22.7373  -29.4660   22.5019 C   0  0  0  0  0  0
  -18.0261  -28.1361   22.8495 C   0  0  0  0  0  0
  -24.1481  -36.7321   23.2641 C   0  0  0  0  0  0
  -25.9169  -30.8517   21.3557 C   0  0  0  0  0  0
  -26.0020  -29.4879   20.7074 C   0  0  0  0  0  0
  -27.2099  -28.7624   20.6948 C   0  0  0  0  0  0
  -26.0934  -26.9582   19.5110 C   0  0  0  0  0  0
  -24.8874  -27.6876   19.5146 C   0  0  0  0  0  0
  -23.6025  -29.8121   20.1676 C   0  0  0  0  0  0
  -25.4106  -36.3123   24.0339 C   0  0  1  0  0  0
  -20.5845  -28.3640   23.1333 C   0  0  2  0  0  0
  -20.6749  -26.9382   22.5419 C   0  0  0  0  0  0
  -19.5733  -26.6374   21.5204 C   0  0  0  0  0  0
  -18.1910  -26.7913   22.1617 C   0  0  0  0  0  0
  -19.1511  -28.8820   23.2906 C   0  0  0  0  0  0
  -18.9445  -30.1431   23.8901 C   0  0  0  0  0  0
  -17.6451  -30.6576   24.0559 C   0  0  0  0  0  0
  -25.9024  -34.9489   23.5130 C   0  0  0  0  0  0
  -16.5340  -29.9071   23.6337 C   0  0  0  0  0  0
  -16.7253  -28.6489   23.0359 C   0  0  0  0  0  0
  -26.4455  -31.6619   25.0719 C   0  0  0  0  0  0
  -25.3748  -31.3697   26.1486 C   0  0  0  0  0  0
  -27.0296  -30.3078   24.6060 C   0  0  0  0  0  0
  -27.6028  -32.4349   25.7482 C   0  0  0  0  0  0
  -27.5578  -37.1814   24.8466 C   0  0  0  0  0  0
  -21.4113  -29.3008   22.3747 N   0  0  0  0  0  0
  -26.4294  -37.3803   23.9408 N   0  0  0  0  0  0
  -24.6582  -31.0841   22.0986 N   0  0  0  0  0  0
  -23.4163  -28.8218   23.3069 O   0  0  0  0  0  0
  -28.3909  -26.6799   20.0571 O   0  0  0  0  0  0
  -26.5590  -34.8934   22.4696 O   0  0  0  0  0  0
  -23.5295  -32.1436   23.7539 O   0  0  0  0  0  0
  -33.1001  -22.5129   21.1260 C   0  0  0  0  0  0
  -32.4479  -23.7635   21.0072 C   0  0  0  0  0  0
  -31.1171  -22.9217   19.1374 C   0  0  0  0  0  0
  -32.7456  -21.4791   20.2391 C   0  0  0  0  0  0
  -31.7505  -21.6736   19.2873 C   0  0  0  0  0  0
  -31.4582  -23.9794   20.0074 C   0  0  0  0  0  0
  -30.0356  -19.9367   18.7407 C   0  0  0  0  0  0
  -32.6948  -19.5205   18.8438 C   0  0  0  0  0  0
  -31.4868  -20.4224   18.4821 C   0  0  2  0  0  0
  -33.3167  -20.0771   20.1593 C   0  0  1  0  0  0
  -35.3756  -18.5412   20.1751 C   0  0  0  0  0  0
  -30.3769  -16.5298   18.2901 C   0  0  0  0  0  0
  -30.2494  -17.9919   20.4192 C   0  0  0  0  0  0
  -29.6114  -27.1417   20.6399 C   0  0  0  0  0  0
  -30.5280  -25.9533   20.9793 C   0  0  0  0  0  0
  -34.8626  -19.9877   20.2513 C   0  0  1  0  0  0
  -29.7818  -16.7019   19.7078 C   0  0  2  0  0  0
  -29.6433  -19.1505   19.7609 N   0  0  0  0  0  0
  -29.8210  -15.4925   20.5504 N   0  0  0  0  0  0
  -29.1532  -20.4093   18.0248 O   0  0  0  0  0  0
  -35.4878  -20.7298   19.2169 O   0  0  0  0  0  0
  -30.8101  -25.1804   19.8169 O   0  0  0  0  0  0
  -31.4727  -12.3447   19.1445 H   0  0  0  0  0  0
  -30.3103  -11.2558   19.8516 H   0  0  0  0  0  0
  -29.7325  -11.7080   17.4537 H   0  0  0  0  0  0
  -29.6919  -13.4203   17.7560 H   0  0  0  0  0  0
  -27.8036  -11.2908   18.8168 H   0  0  0  0  0  0
  -27.3807  -12.6256   17.7820 H   0  0  0  0  0  0
  -27.6925  -14.2332   19.5508 H   0  0  0  0  0  0
  -28.6756  -11.9644   21.3690 H   0  0  0  0  0  0
  -28.4933  -13.6270   21.8574 H   0  0  0  0  0  0
  -25.2733   -9.5688   22.4803 H   0  0  0  0  0  0
  -23.9983   -7.4623   22.7462 H   0  0  0  0  0  0
  -21.0850   -8.8775   19.8917 H   0  0  0  0  0  0
  -22.3703  -10.9683   19.6186 H   0  0  0  0  0  0
  -21.1978   -7.6143   23.9737 H   0  0  0  0  0  0
  -21.1508   -6.0529   25.9094 H   0  0  0  0  0  0
  -22.0575   -2.7611   23.2872 H   0  0  0  0  0  0
  -22.4065  -11.9854   22.4774 H   0  0  0  0  0  0
  -21.1124  -13.1276   22.2662 H   0  0  0  0  0  0
  -24.6532  -15.8303   20.5140 H   0  0  0  0  0  0
  -26.2690  -15.6307   20.0668 H   0  0  0  0  0  0
  -26.7069  -32.5579   23.1182 H   0  0  0  0  0  0
  -25.0042  -33.9813   25.0490 H   0  0  0  0  0  0
  -22.6812  -31.3031   21.4079 H   0  0  0  0  0  0
  -23.3738  -35.9658   23.3326 H   0  0  0  0  0  0
  -24.3561  -36.8915   22.2050 H   0  0  0  0  0  0
  -23.7238  -37.6535   23.6642 H   0  0  0  0  0  0
  -26.0201  -31.6183   20.5864 H   0  0  0  0  0  0
  -26.8058  -30.9109   21.9717 H   0  0  0  0  0  0
  -28.0805  -29.2159   21.1428 H   0  0  0  0  0  0
  -26.1181  -25.9818   19.0479 H   0  0  0  0  0  0
  -24.0022  -27.2672   19.0560 H   0  0  0  0  0  0
  -23.6967  -30.5805   19.3998 H   0  0  0  0  0  0
  -22.7324  -29.2177   19.8824 H   0  0  0  0  0  0
  -25.1284  -36.1994   25.0834 H   0  0  0  0  0  0
  -20.9935  -28.3196   24.1454 H   0  0  0  0  0  0
  -20.5640  -26.2246   23.3598 H   0  0  0  0  0  0
  -21.6625  -26.7421   22.1223 H   0  0  0  0  0  0
  -19.6895  -25.6288   21.1226 H   0  0  0  0  0  0
  -19.6683  -27.3193   20.6745 H   0  0  0  0  0  0
  -17.4185  -26.6667   21.4012 H   0  0  0  0  0  0
  -18.0309  -26.0044   22.9000 H   0  0  0  0  0  0
  -19.7926  -30.7247   24.2266 H   0  0  0  0  0  0
  -17.5010  -31.6265   24.5149 H   0  0  0  0  0  0
  -15.5342  -30.2976   23.7662 H   0  0  0  0  0  0
  -15.8650  -28.0805   22.7082 H   0  0  0  0  0  0
  -24.5896  -30.7077   25.7814 H   0  0  0  0  0  0
  -24.8981  -32.2852   26.5005 H   0  0  0  0  0  0
  -25.8133  -30.8808   27.0196 H   0  0  0  0  0  0
  -26.2823  -29.6831   24.1158 H   0  0  0  0  0  0
  -27.4128  -29.7321   25.4494 H   0  0  0  0  0  0
  -27.8625  -30.4414   23.9154 H   0  0  0  0  0  0
  -27.2627  -33.3615   26.2119 H   0  0  0  0  0  0
  -28.3813  -32.6977   25.0305 H   0  0  0  0  0  0
  -28.0735  -31.8456   26.5360 H   0  0  0  0  0  0
  -28.2613  -38.0097   24.7510 H   0  0  0  0  0  0
  -28.1059  -36.2630   24.6302 H   0  0  0  0  0  0
  -27.2293  -37.1484   25.8869 H   0  0  0  0  0  0
  -20.9264  -29.8714   21.6959 H   0  0  0  0  0  0
  -26.0188  -38.2884   24.1409 H   0  0  0  0  0  0
  -33.8616  -22.3609   21.8782 H   0  0  0  0  0  0
  -32.7414  -24.5547   21.6814 H   0  0  0  0  0  0
  -30.3599  -23.0637   18.3783 H   0  0  0  0  0  0
  -33.4137  -19.6639   18.0384 H   0  0  0  0  0  0
  -32.5067  -18.4525   18.8395 H   0  0  0  0  0  0
  -31.5549  -20.6703   17.4212 H   0  0  0  0  0  0
  -32.9006  -19.5347   21.0088 H   0  0  0  0  0  0
  -34.9371  -17.9281   20.9632 H   0  0  0  0  0  0
  -36.4593  -18.4977   20.2975 H   0  0  0  0  0  0
  -35.1333  -18.0710   19.2220 H   0  0  0  0  0  0
  -30.1007  -17.3554   17.6352 H   0  0  0  0  0  0
  -30.0080  -15.6276   17.8067 H   0  0  0  0  0  0
  -31.4650  -16.4788   18.3035 H   0  0  0  0  0  0
  -31.3254  -18.0355   20.5210 H   0  0  0  0  0  0
  -29.8703  -17.9936   21.4432 H   0  0  0  0  0  0
  -30.1061  -27.8308   19.9541 H   0  0  0  0  0  0
  -29.4374  -27.6682   21.5777 H   0  0  0  0  0  0
  -30.0500  -25.3266   21.7344 H   0  0  0  0  0  0
  -31.4515  -26.3420   21.4092 H   0  0  0  0  0  0
  -35.1859  -20.4087   21.2034 H   0  0  0  0  0  0
  -28.7082  -16.8166   19.5504 H   0  0  0  0  0  0
  -28.6407  -19.1741   19.8847 H   0  0  0  0  0  0
  -28.9211  -15.2233   20.9211 H   0  0  0  0  0  0
  -35.0033  -20.5688   18.4142 H   0  0  0  0  0  0
  1 25  1  0  0  0
  1 30  2  0  0  0
  1 89  1  0  0  0
  2  3  1  0  0  0
  2 25  1  0  0  0
  2 93  1  0  0  0
  2 94  1  0  0  0
  3  4  1  0  0  0
  3 95  1  0  0  0
  3 96  1  0  0  0
  4  5  1  0  0  0
  4 97  1  0  0  0
  4 98  1  0  0  0
  5  6  1  0  0  0
  5 26  1  0  0  0
  5 99  1  0  0  0
  6 25  1  0  0  0
  6100  1  0  0  0
  6101  1  0  0  0
  7  8  2  0  0  0
  7 26  1  0  0  0
  7 29  1  0  0  0
  8  9  1  0  0  0
  8 22  1  0  0  0
  9 10  1  0  0  0
  9 27  2  0  0  0
 10 11  2  0  0  0
 10 15  1  0  0  0
 11 12  1  0  0  0
 11102  1  0  0  0
 12 13  2  0  0  0
 12103  1  0  0  0
 13 14  1  0  0  0
 13 31  1  0  0  0
 14 15  2  0  0  0
 14104  1  0  0  0
 15105  1  0  0  0
 16 17  2  0  0  0
 16 21  1  0  0  0
 16 31  1  0  0  0
 17 18  1  0  0  0
 17106  1  0  0  0
 18 19  2  0  0  0
 18107  1  0  0  0
 19 20  1  0  0  0
 19 24  1  0  0  0
 20 21  2  0  0  0
 20108  1  0  0  0
 21 23  1  0  0  0
 22 28  1  0  0  0
 22 32  2  0  0  0
 26 27  1  0  0  0
 28109  1  0  0  0
 28110  1  0  0  0
 29111  1  0  0  0
 29112  1  0  0  0
 33 34  1  0  0  0
 33 66  1  0  0  0
 33 70  2  0  0  0
 34 36  1  0  0  0
 34 59  1  0  0  0
 34113  1  0  0  0
 35 44  2  0  0  0
 35 45  1  0  0  0
 35 68  1  0  0  0
 36 56  1  0  0  0
 36114  1  0  0  0
 37 39  1  0  0  0
 37 47  1  0  0  0
 37 66  1  0  0  0
 37115  1  0  0  0
 38 43  2  0  0  0
 38 46  1  0  0  0
 38 47  1  0  0  0
 39 64  1  0  0  0
 39 67  2  0  0  0
 40 52  1  0  0  0
 40 53  2  0  0  0
 40 58  1  0  0  0
 41116  1  0  0  0
 41117  1  0  0  0
 41118  1  0  0  0
 41 48  1  0  0  0
 42 43  1  0  0  0
 42 66  1  0  0  0
 42119  1  0  0  0
 42120  1  0  0  0
 43 44  1  0  0  0
 44121  1  0  0  0
 45 46  2  0  0  0
 45122  1  0  0  0
 46123  1  0  0  0
 47124  1  0  0  0
 47125  1  0  0  0
 48 56  1  0  0  0
 48 65  1  0  0  0
 48126  1  0  0  0
 49 50  1  0  0  0
 49 53  1  0  0  0
 49 64  1  0  0  0
 49127  1  0  0  0
 50 51  1  0  0  0
 50128  1  0  0  0
 50129  1  0  0  0
 51 52  1  0  0  0
 51130  1  0  0  0
 51131  1  0  0  0
 52132  1  0  0  0
 52133  1  0  0  0
 53 54  1  0  0  0
 54 55  2  0  0  0
 54134  1  0  0  0
 55 57  1  0  0  0
 55135  1  0  0  0
 56 69  2  0  0  0
 57 58  2  0  0  0
 57136  1  0  0  0
 58137  1  0  0  0
 59 60  1  0  0  0
 59 61  1  0  0  0
 59 62  1  0  0  0
 60138  1  0  0  0
 60139  1  0  0  0
 60140  1  0  0  0
 61141  1  0  0  0
 61142  1  0  0  0
 61143  1  0  0  0
 62144  1  0  0  0
 62145  1  0  0  0
 62146  1  0  0  0
 63 65  1  0  0  0
 63147  1  0  0  0
 63148  1  0  0  0
 63149  1  0  0  0
 64150  1  0  0  0
 65151  1  0  0  0
 68 84  1  0  0  0
 71 72  2  0  0  0
 71 74  1  0  0  0
 71152  1  0  0  0
 72 76  1  0  0  0
 72153  1  0  0  0
 73 75  1  0  0  0
 73 76  2  0  0  0
 73154  1  0  0  0
 74 75  2  0  0  0
 74 80  1  0  0  0
 75 79  1  0  0  0
 76 92  1  0  0  0
 77 88  1  0  0  0
 77 90  2  0  0  0
 77 79  1  0  0  0
 78 79  1  0  0  0
 78155  1  0  0  0
 78156  1  0  0  0
 78 80  1  0  0  0
 79157  1  0  0  0
 80 86  1  0  0  0
 80158  1  0  0  0
 81159  1  0  0  0
 81160  1  0  0  0
 81161  1  0  0  0
 81 86  1  0  0  0
 82162  1  0  0  0
 82163  1  0  0  0
 82164  1  0  0  0
 82 87  1  0  0  0
 83 87  1  0  0  0
 83 88  1  0  0  0
 83165  1  0  0  0
 83166  1  0  0  0
 84 85  1  0  0  0
 84167  1  0  0  0
 84168  1  0  0  0
 85 92  1  0  0  0
 85169  1  0  0  0
 85170  1  0  0  0
 86 91  1  0  0  0
 86171  1  0  0  0
 87 89  1  0  0  0
 87172  1  0  0  0
 88173  1  0  0  0
 89174  1  0  0  0
 91175  1  0  0  0
M  ISO  4   1 100  68 101  84 101  89 100
M  END
> <chiral flag>
0

> <version>
0

> <s_m_source_file>
/data/baiqing/PycharmProjects/Reinvent-master-3.2/result/LINK_invent/BTK/process_docking_weight1_custom_sum_contain_oxygen_bond_distance_aromatic_linkinvent_7_9_3/rearranged_h_0148.sdf

> <i_m_source_file_index>
97

> <r_mmod_Potential_Energy-OPLS-2005>
-30.5315284729004

> <r_mmod_Stretch_Energy-OPLS-2005>
38.5057182312012

> <r_mmod_Bend_Energy-OPLS-2005>
190.384414672852

> <r_mmod_Torsional_Energy-OPLS-2005>
276.838012695312

> <r_mmod_Improper_Torsional_Energy-OPLS-2005>
14.3392210006714

> <r_mmod_Van_der_Waal_Energy-OPLS-2005>
150.643157958984

> <r_mmod_Electrostatic_Energy-OPLS-2005>
-444.644287109375

> <r_mmod_Solvation_Energy-OPLS-2005>
-271.014984130859

> <b_mmod_Minimization_Converged-OPLS-2005>
0

> <r_mmod_RMS_Derivative-OPLS-2005>
2.17495536804199

$$$$
97
                    3D
 Structure written by MMmdl.
169179  0  0  1  0            999 V2000
  -30.6796  -14.7368   20.4607 C   0  0  0  0  0  0
  -30.4127  -12.4646   19.4570 C   0  0  0  0  0  0
  -29.4926  -12.5092   18.2215 C   0  0  0  0  0  0
  -28.0214  -12.3409   18.6442 C   0  0  0  0  0  0
  -27.6353  -13.2411   19.8507 C   0  0  2  0  0  0
  -28.6910  -13.1825   20.9753 C   0  0  0  0  0  0
  -25.2482  -13.8225   20.5739 C   0  0  0  0  0  0
  -24.1783  -13.0453   20.9229 C   0  0  0  0  0  0
  -24.6385  -11.6935   20.8767 C   0  0  0  0  0  0
  -23.9067  -10.4300   21.0415 C   0  0  0  0  0  0
  -24.3617   -9.4211   21.9188 C   0  0  0  0  0  0
  -23.6295   -8.2246   22.0752 C   0  0  0  0  0  0
  -22.4275   -8.0284   21.3548 C   0  0  0  0  0  0
  -21.9911   -9.0257   20.4651 C   0  0  0  0  0  0
  -22.7240  -10.2138   20.3062 C   0  0  0  0  0  0
  -21.6852   -6.0734   22.5278 C   0  0  0  0  0  0
  -21.4016   -6.5639   23.8213 C   0  0  0  0  0  0
  -21.3663   -5.6793   24.9176 C   0  0  0  0  0  0
  -21.6043   -4.3053   24.7227 C   0  0  0  0  0  0
  -21.8817   -3.8144   23.4345 C   0  0  0  0  0  0
  -21.9191   -4.6962   22.3402 C   0  0  0  0  0  0
  -22.7803  -13.5225   21.1871 C   0  0  0  0  0  0
  -22.1658   -4.2147   21.0981 F   0  0  0  0  0  0
  -21.5630   -3.4537   25.7739 F   0  0  0  0  0  0
  -29.9702  -13.5552   20.3626 N   0  0  0  0  0  0
  -26.2919  -12.9448   20.3343 N   0  0  0  0  0  0
  -25.9323  -11.6580   20.5791 N   0  0  0  0  0  0
  -22.0444  -12.8220   22.0430 N   0  0  0  0  0  0
  -25.4162  -15.1948   20.4159 N   0  0  0  0  0  0
  -31.8891  -14.6842   20.2136 O   0  0  0  0  0  0
  -21.6642   -6.8878   21.4241 O   0  0  0  0  0  0
  -22.3487  -14.5531   20.6715 O   0  0  0  0  0  0
  -24.6313  -31.8564   23.2011 C   0  0  0  0  0  0
  -25.9142  -32.4759   23.8344 C   0  0  1  0  0  0
  -27.2039  -27.2634   20.1296 C   0  0  0  0  0  0
  -25.5945  -33.8563   24.2266 N   0  0  0  0  0  0
  -23.4279  -30.4818   21.5441 C   0  0  2  0  0  0
  -24.8750  -28.9382   20.1043 C   0  0  0  0  0  0
  -22.7508  -29.4607   22.4906 C   0  0  0  0  0  0
  -18.0295  -28.1389   22.8487 C   0  0  0  0  0  0
  -24.1490  -36.7282   23.2635 C   0  0  0  0  0  0
  -25.9756  -30.7691   21.3844 C   0  0  0  0  0  0
  -26.0476  -29.3942   20.7226 C   0  0  0  0  0  0
  -27.2193  -28.5683   20.7287 C   0  0  0  0  0  0
  -26.0232  -26.8976   19.4474 C   0  0  0  0  0  0
  -24.8682  -27.6982   19.4528 C   0  0  0  0  0  0
  -23.6455  -29.8231   20.1575 C   0  0  0  0  0  0
  -25.4116  -36.3071   24.0326 C   0  0  1  0  0  0
  -20.5901  -28.3701   23.1265 C   0  0  2  0  0  0
  -20.6785  -26.9419   22.5406 C   0  0  0  0  0  0
  -19.5758  -26.6381   21.5216 C   0  0  0  0  0  0
  -18.1935  -26.7932   22.1623 C   0  0  0  0  0  0
  -19.1549  -28.8863   23.2868 C   0  0  0  0  0  0
  -18.9467  -30.1463   23.8883 C   0  0  0  0  0  0
  -17.6466  -30.6592   24.0556 C   0  0  0  0  0  0
  -25.9061  -34.9443   23.5096 C   0  0  0  0  0  0
  -16.5355  -29.9084   23.6336 C   0  0  0  0  0  0
  -16.7280  -28.6501   23.0359 C   0  0  0  0  0  0
  -26.4506  -31.6580   25.0731 C   0  0  0  0  0  0
  -25.3724  -31.3746   26.1451 C   0  0  0  0  0  0
  -27.0346  -30.2985   24.6237 C   0  0  0  0  0  0
  -27.6063  -32.4319   25.7504 C   0  0  0  0  0  0
  -27.5588  -37.1786   24.8455 C   0  0  0  0  0  0
  -21.4216  -29.3048   22.3656 N   0  0  0  0  0  0
  -26.4285  -37.3776   23.9422 N   0  0  0  0  0  0
  -24.6970  -31.0533   22.0988 N   0  0  0  0  0  0
  -23.4213  -28.8140   23.2994 O   0  0  0  0  0  0
  -28.2364  -26.3001   20.2029 O   0  0  0  0  0  0
  -26.5628  -34.8917   22.4663 O   0  0  0  0  0  0
  -23.5462  -32.1391   23.7303 O   0  0  0  0  0  0
  -29.0570  -21.4494   19.4605 C   0  0  0  0  0  0
  -28.7287  -22.8477   19.4459 C   0  0  0  0  0  0
  -29.1456  -20.6997   20.6733 C   0  0  0  0  0  0
  -28.5090  -23.5617   20.6520 C   0  0  0  0  0  0
  -28.9036  -21.5019   21.8353 C   0  0  0  0  0  0
  -26.4180  -20.4020   23.8195 C   0  0  0  0  0  0
  -27.1962  -20.2509   25.1043 C   0  0  0  0  0  0
  -28.5225  -18.0558   21.0912 C   0  0  0  0  0  0
  -30.2394  -18.5252   19.4929 C   0  0  0  0  0  0
  -29.0687  -16.5764   21.3359 C   0  0  0  0  0  0
  -30.8695  -17.0998   19.7331 C   0  0  0  0  0  0
  -29.5834  -19.1509   20.7435 C   0  0  0  0  0  0
  -27.6827  -21.2054   24.0348 C   0  0  0  0  0  0
  -30.2048  -21.4085   24.0125 C   0  0  0  0  0  0
  -27.7921  -24.9855   20.7891 C   0  0  0  0  0  0
  -28.9625  -20.9212   23.2533 C   0  0  2  0  0  0
  -28.6260  -22.8477   21.8056 N   0  0  0  0  0  0
  -30.0617  -16.0026   20.3751 N   0  0  0  0  0  0
  -31.4533  -12.5608   19.1432 H   0  0  0  0  0  0
  -30.3468  -11.4955   19.9545 H   0  0  0  0  0  0
  -29.7709  -11.7299   17.5109 H   0  0  0  0  0  0
  -29.6182  -13.4602   17.7010 H   0  0  0  0  0  0
  -27.8763  -11.2917   18.9054 H   0  0  0  0  0  0
  -27.3591  -12.5368   17.8000 H   0  0  0  0  0  0
  -27.6245  -14.2634   19.4719 H   0  0  0  0  0  0
  -28.7445  -12.1788   21.3990 H   0  0  0  0  0  0
  -28.4381  -13.8359   21.8084 H   0  0  0  0  0  0
  -25.2757   -9.5692   22.4771 H   0  0  0  0  0  0
  -24.0005   -7.4631   22.7465 H   0  0  0  0  0  0
  -21.0844   -8.8781   19.8952 H   0  0  0  0  0  0
  -22.3697  -10.9683   19.6177 H   0  0  0  0  0  0
  -21.2010   -7.6147   23.9724 H   0  0  0  0  0  0
  -21.1490   -6.0518   25.9084 H   0  0  0  0  0  0
  -22.0592   -2.7606   23.2845 H   0  0  0  0  0  0
  -22.4056  -11.9884   22.4827 H   0  0  0  0  0  0
  -21.1064  -13.1252   22.2630 H   0  0  0  0  0  0
  -24.6501  -15.8488   20.5336 H   0  0  0  0  0  0
  -26.2704  -15.6374   20.1033 H   0  0  0  0  0  0
  -26.7209  -32.5413   23.1087 H   0  0  0  0  0  0
  -25.0094  -33.9699   25.0413 H   0  0  0  0  0  0
  -22.7245  -31.3047   21.4017 H   0  0  0  0  0  0
  -23.3764  -35.9599   23.3262 H   0  0  0  0  0  0
  -24.3588  -36.8939   22.2057 H   0  0  0  0  0  0
  -23.7223  -37.6465   23.6679 H   0  0  0  0  0  0
  -26.1198  -31.5320   20.6179 H   0  0  0  0  0  0
  -26.8513  -30.8123   22.0203 H   0  0  0  0  0  0
  -28.1100  -28.9043   21.2414 H   0  0  0  0  0  0
  -25.9709  -25.9550   18.9214 H   0  0  0  0  0  0
  -23.9775  -27.3518   18.9468 H   0  0  0  0  0  0
  -23.7681  -30.6033   19.4051 H   0  0  0  0  0  0
  -22.7646  -29.2558   19.8516 H   0  0  0  0  0  0
  -25.1295  -36.1909   25.0815 H   0  0  0  0  0  0
  -20.9994  -28.3273   24.1385 H   0  0  0  0  0  0
  -20.5689  -26.2313   23.3611 H   0  0  0  0  0  0
  -21.6649  -26.7444   22.1192 H   0  0  0  0  0  0
  -19.6916  -25.6288   21.1255 H   0  0  0  0  0  0
  -19.6694  -27.3182   20.6739 H   0  0  0  0  0  0
  -17.4212  -26.6691   21.4015 H   0  0  0  0  0  0
  -18.0320  -26.0068   22.9012 H   0  0  0  0  0  0
  -19.7942  -30.7287   24.2238 H   0  0  0  0  0  0
  -17.5020  -31.6274   24.5151 H   0  0  0  0  0  0
  -15.5354  -30.2981   23.7666 H   0  0  0  0  0  0
  -15.8681  -28.0813   22.7083 H   0  0  0  0  0  0
  -24.5895  -30.7098   25.7781 H   0  0  0  0  0  0
  -24.8921  -32.2921   26.4859 H   0  0  0  0  0  0
  -25.8031  -30.8932   27.0240 H   0  0  0  0  0  0
  -26.2931  -29.6733   24.1249 H   0  0  0  0  0  0
  -27.3991  -29.7253   25.4772 H   0  0  0  0  0  0
  -27.8831  -30.4236   23.9509 H   0  0  0  0  0  0
  -27.2675  -33.3632   26.2057 H   0  0  0  0  0  0
  -28.3888  -32.6856   25.0339 H   0  0  0  0  0  0
  -28.0713  -31.8455   26.5441 H   0  0  0  0  0  0
  -28.2566  -38.0122   24.7561 H   0  0  0  0  0  0
  -28.1122  -36.2658   24.6198 H   0  0  0  0  0  0
  -27.2318  -37.1334   25.8856 H   0  0  0  0  0  0
  -20.9401  -29.8780   21.6871 H   0  0  0  0  0  0
  -26.0158  -38.2840   24.1451 H   0  0  0  0  0  0
  -29.2275  -20.9516   18.5162 H   0  0  0  0  0  0
  -28.6007  -23.3576   18.5006 H   0  0  0  0  0  0
  -25.4709  -20.9370   23.8626 H   0  0  0  0  0  0
  -26.4464  -19.5768   23.1132 H   0  0  0  0  0  0
  -27.7468  -19.3232   25.2503 H   0  0  0  0  0  0
  -26.7677  -20.6833   26.0066 H   0  0  0  0  0  0
  -27.9629  -18.3486   21.9761 H   0  0  0  0  0  0
  -27.7794  -18.0252   20.2931 H   0  0  0  0  0  0
  -29.5145  -18.4676   18.6800 H   0  0  0  0  0  0
  -31.0292  -19.1881   19.1367 H   0  0  0  0  0  0
  -28.2005  -15.9239   21.3876 H   0  0  0  0  0  0
  -29.5290  -16.5400   22.3245 H   0  0  0  0  0  0
  -31.7612  -17.2464   20.3452 H   0  0  0  0  0  0
  -31.2304  -16.7395   18.7680 H   0  0  0  0  0  0
  -30.3482  -19.1218   21.5212 H   0  0  0  0  0  0
  -27.5276  -22.2630   24.2410 H   0  0  0  0  0  0
  -31.1153  -21.1361   23.4789 H   0  0  0  0  0  0
  -30.2552  -20.9633   25.0062 H   0  0  0  0  0  0
  -30.1990  -22.4924   24.1298 H   0  0  0  0  0  0
  -27.7246  -25.1861   21.8593 H   0  0  0  0  0  0
  -26.7658  -24.7567   20.5110 H   0  0  0  0  0  0
  -29.0496  -19.8397   23.1985 H   0  0  0  0  0  0
  1 25  1  0  0  0
  1 30  2  0  0  0
  1 88  1  0  0  0
  2  3  1  0  0  0
  2 25  1  0  0  0
  2 89  1  0  0  0
  2 90  1  0  0  0
  3  4  1  0  0  0
  3 91  1  0  0  0
  3 92  1  0  0  0
  4  5  1  0  0  0
  4 93  1  0  0  0
  4 94  1  0  0  0
  5  6  1  0  0  0
  5 26  1  0  0  0
  5 95  1  0  0  0
  6 25  1  0  0  0
  6 96  1  0  0  0
  6 97  1  0  0  0
  7  8  2  0  0  0
  7 26  1  0  0  0
  7 29  1  0  0  0
  8  9  1  0  0  0
  8 22  1  0  0  0
  9 10  1  0  0  0
  9 27  2  0  0  0
 10 11  2  0  0  0
 10 15  1  0  0  0
 11 12  1  0  0  0
 11 98  1  0  0  0
 12 13  2  0  0  0
 12 99  1  0  0  0
 13 14  1  0  0  0
 13 31  1  0  0  0
 14 15  2  0  0  0
 14100  1  0  0  0
 15101  1  0  0  0
 16 17  2  0  0  0
 16 21  1  0  0  0
 16 31  1  0  0  0
 17 18  1  0  0  0
 17102  1  0  0  0
 18 19  2  0  0  0
 18103  1  0  0  0
 19 20  1  0  0  0
 19 24  1  0  0  0
 20 21  2  0  0  0
 20104  1  0  0  0
 21 23  1  0  0  0
 22 28  1  0  0  0
 22 32  2  0  0  0
 26 27  1  0  0  0
 28105  1  0  0  0
 28106  1  0  0  0
 29107  1  0  0  0
 29108  1  0  0  0
 33 34  1  0  0  0
 33 66  1  0  0  0
 33 70  2  0  0  0
 34 36  1  0  0  0
 34 59  1  0  0  0
 34109  1  0  0  0
 35 44  2  0  0  0
 35 45  1  0  0  0
 35 68  1  0  0  0
 36 56  1  0  0  0
 36110  1  0  0  0
 37 39  1  0  0  0
 37 47  1  0  0  0
 37 66  1  0  0  0
 37111  1  0  0  0
 38 43  2  0  0  0
 38 46  1  0  0  0
 38 47  1  0  0  0
 39 64  1  0  0  0
 39 67  2  0  0  0
 40 52  1  0  0  0
 40 53  2  0  0  0
 40 58  1  0  0  0
 41112  1  0  0  0
 41113  1  0  0  0
 41114  1  0  0  0
 41 48  1  0  0  0
 42 43  1  0  0  0
 42 66  1  0  0  0
 42115  1  0  0  0
 42116  1  0  0  0
 43 44  1  0  0  0
 44117  1  0  0  0
 45 46  2  0  0  0
 45118  1  0  0  0
 46119  1  0  0  0
 47120  1  0  0  0
 47121  1  0  0  0
 48 56  1  0  0  0
 48 65  1  0  0  0
 48122  1  0  0  0
 49 50  1  0  0  0
 49 53  1  0  0  0
 49 64  1  0  0  0
 49123  1  0  0  0
 50 51  1  0  0  0
 50124  1  0  0  0
 50125  1  0  0  0
 51 52  1  0  0  0
 51126  1  0  0  0
 51127  1  0  0  0
 52128  1  0  0  0
 52129  1  0  0  0
 53 54  1  0  0  0
 54 55  2  0  0  0
 54130  1  0  0  0
 55 57  1  0  0  0
 55131  1  0  0  0
 56 69  2  0  0  0
 57 58  2  0  0  0
 57132  1  0  0  0
 58133  1  0  0  0
 59 60  1  0  0  0
 59 61  1  0  0  0
 59 62  1  0  0  0
 60134  1  0  0  0
 60135  1  0  0  0
 60136  1  0  0  0
 61137  1  0  0  0
 61138  1  0  0  0
 61139  1  0  0  0
 62140  1  0  0  0
 62141  1  0  0  0
 62142  1  0  0  0
 63 65  1  0  0  0
 63143  1  0  0  0
 63144  1  0  0  0
 63145  1  0  0  0
 64146  1  0  0  0
 65147  1  0  0  0
 68 85  1  0  0  0
 71 72  2  0  0  0
 71 73  1  0  0  0
 71148  1  0  0  0
 72 74  1  0  0  0
 72149  1  0  0  0
 73 75  2  0  0  0
 73 82  1  0  0  0
 74 85  1  0  0  0
 74 87  2  0  0  0
 75 86  1  0  0  0
 75 87  1  0  0  0
 76 77  1  0  0  0
 76150  1  0  0  0
 76151  1  0  0  0
 76 83  1  0  0  0
 77 83  1  0  0  0
 77152  1  0  0  0
 77153  1  0  0  0
 78 80  1  0  0  0
 78 82  1  0  0  0
 78154  1  0  0  0
 78155  1  0  0  0
 79 81  1  0  0  0
 79 82  1  0  0  0
 79156  1  0  0  0
 79157  1  0  0  0
 80 88  1  0  0  0
 80158  1  0  0  0
 80159  1  0  0  0
 81 88  1  0  0  0
 81160  1  0  0  0
 81161  1  0  0  0
 82162  1  0  0  0
 83 86  1  0  0  0
 83163  1  0  0  0
 84164  1  0  0  0
 84165  1  0  0  0
 84166  1  0  0  0
 84 86  1  0  0  0
 85167  1  0  0  0
 85168  1  0  0  0
 86169  1  0  0  0
M  ISO  4   1 100  68 101  85 101  88 100
M  END
> <chiral flag>
0

> <version>
0

> <s_m_source_file>
/data/baiqing/PycharmProjects/Reinvent-master-3.2/result/LINK_invent/BTK/process_docking_weight1_custom_sum_contain_oxygen_bond_distance_aromatic_linkinvent_7_9_3/rearranged_h_0148.sdf

> <i_m_source_file_index>
98

> <r_mmod_Potential_Energy-OPLS-2005>
366.518371582031

> <r_mmod_Stretch_Energy-OPLS-2005>
120.536254882812

> <r_mmod_Bend_Energy-OPLS-2005>
214.147979736328

> <r_mmod_Torsional_Energy-OPLS-2005>
363.586517333984

> <r_mmod_Improper_Torsional_Energy-OPLS-2005>
18.3114814758301

> <r_mmod_Van_der_Waal_Energy-OPLS-2005>
150.507766723633

> <r_mmod_Electrostatic_Energy-OPLS-2005>
-393.719604492188

> <r_mmod_Solvation_Energy-OPLS-2005>
-202.028167724609

> <b_mmod_Minimization_Converged-OPLS-2005>
0

> <r_mmod_RMS_Derivative-OPLS-2005>
0.919354617595673

$$$$
