0
                    3D
 Structure written by MMmdl.
177187  0  0  1  0            999 V2000
  -30.5508  -15.0312   20.4377 C   0  0  0  0  0  0
  -30.4437  -12.6488   19.5224 C   0  0  0  0  0  0
  -29.5262  -12.5763   18.2756 C   0  0  0  0  0  0
  -28.0534  -12.3646   18.6767 C   0  0  0  0  0  0
  -27.6247  -13.2718   19.8622 C   0  0  2  0  0  0
  -28.6857  -13.2826   20.9912 C   0  0  0  0  0  0
  -25.2094  -13.7942   20.5534 C   0  0  0  0  0  0
  -24.1597  -13.0193   20.9278 C   0  0  0  0  0  0
  -24.6396  -11.6776   20.8851 C   0  0  0  0  0  0
  -23.9117  -10.4174   21.0451 C   0  0  0  0  0  0
  -24.3673   -9.4124   21.9227 C   0  0  0  0  0  0
  -23.6337   -8.2170   22.0784 C   0  0  0  0  0  0
  -22.4318   -8.0230   21.3543 C   0  0  0  0  0  0
  -21.9959   -9.0212   20.4652 C   0  0  0  0  0  0
  -22.7308  -10.2064   20.3062 C   0  0  0  0  0  0
  -21.6857   -6.0744   22.5285 C   0  0  0  0  0  0
  -21.4034   -6.5672   23.8226 C   0  0  0  0  0  0
  -21.3653   -5.6809   24.9182 C   0  0  0  0  0  0
  -21.6028   -4.3077   24.7233 C   0  0  0  0  0  0
  -21.8833   -3.8171   23.4355 C   0  0  0  0  0  0
  -21.9209   -4.6978   22.3407 C   0  0  0  0  0  0
  -22.7605  -13.4954   21.1923 C   0  0  0  0  0  0
  -22.1677   -4.2168   21.0978 F   0  0  0  0  0  0
  -21.5605   -3.4565   25.7754 F   0  0  0  0  0  0
  -29.9506  -13.7547   20.4067 N   0  0  0  0  0  0
  -26.2840  -12.9478   20.3448 N   0  0  0  0  0  0
  -25.9375  -11.6572   20.5933 N   0  0  0  0  0  0
  -22.0337  -12.7967   22.0539 N   0  0  0  0  0  0
  -25.2924  -15.1520   20.3373 N   0  0  0  0  0  0
  -31.7509  -15.0319   20.1373 O   0  0  0  0  0  0
  -21.6645   -6.8865   21.4237 O   0  0  0  0  0  0
  -22.3255  -14.5267   20.6763 O   0  0  0  0  0  0
  -24.6426  -31.8440   23.1881 C   0  0  0  0  0  0
  -25.9187  -32.4710   23.8287 C   0  0  1  0  0  0
  -27.2341  -27.1316   20.1568 C   0  0  0  0  0  0
  -25.5933  -33.8516   24.2204 N   0  0  0  0  0  0
  -23.4476  -30.4600   21.5331 C   0  0  2  0  0  0
  -24.9020  -28.8843   20.1150 C   0  0  0  0  0  0
  -22.7560  -29.4531   22.4875 C   0  0  0  0  0  0
  -18.0294  -28.1392   22.8463 C   0  0  0  0  0  0
  -24.1489  -36.7270   23.2638 C   0  0  0  0  0  0
  -26.0022  -30.7179   21.3875 C   0  0  0  0  0  0
  -26.0782  -29.3256   20.7332 C   0  0  0  0  0  0
  -27.2426  -28.4678   20.7339 C   0  0  0  0  0  0
  -26.0275  -26.7920   19.5020 C   0  0  0  0  0  0
  -24.8901  -27.6315   19.4845 C   0  0  0  0  0  0
  -23.6773  -29.7870   20.1548 C   0  0  0  0  0  0
  -25.4123  -36.3044   24.0314 C   0  0  1  0  0  0
  -20.5899  -28.3721   23.1243 C   0  0  2  0  0  0
  -20.6784  -26.9430   22.5407 C   0  0  0  0  0  0
  -19.5771  -26.6380   21.5211 C   0  0  0  0  0  0
  -18.1945  -26.7927   22.1613 C   0  0  0  0  0  0
  -19.1544  -28.8872   23.2834 C   0  0  0  0  0  0
  -18.9466  -30.1470   23.8869 C   0  0  0  0  0  0
  -17.6470  -30.6588   24.0554 C   0  0  0  0  0  0
  -25.9073  -34.9417   23.5070 C   0  0  0  0  0  0
  -16.5361  -29.9085   23.6331 C   0  0  0  0  0  0
  -16.7285  -28.6496   23.0357 C   0  0  0  0  0  0
  -26.4509  -31.6565   25.0723 C   0  0  0  0  0  0
  -25.3676  -31.3739   26.1403 C   0  0  0  0  0  0
  -27.0368  -30.2958   24.6288 C   0  0  0  0  0  0
  -27.6029  -32.4328   25.7511 C   0  0  0  0  0  0
  -27.5592  -37.1791   24.8455 C   0  0  0  0  0  0
  -21.4244  -29.3051   22.3622 N   0  0  0  0  0  0
  -26.4291  -37.3763   23.9411 N   0  0  0  0  0  0
  -24.7167  -31.0287   22.0923 N   0  0  0  0  0  0
  -23.4206  -28.8084   23.3023 O   0  0  0  0  0  0
  -28.3141  -26.1682   20.2028 O   0  0  0  0  0  0
  -26.5661  -34.8907   22.4659 O   0  0  0  0  0  0
  -23.5543  -32.1329   23.7093 O   0  0  0  0  0  0
  -29.8592  -16.4988   20.6803 C   0  0  0  0  0  0
  -30.3871  -17.8005   20.1597 C   0  0  0  0  0  0
  -30.3682  -17.7018   18.7560 C   0  0  0  0  0  0
  -28.4635  -16.6309   20.4744 C   0  0  0  0  0  0
  -29.0872  -17.3888   18.2337 C   0  0  0  0  0  0
  -28.0540  -17.0856   19.1696 C   0  0  0  0  0  0
  -32.7127  -18.8264   18.2695 C   0  0  0  0  0  0
  -31.8185  -19.1364   17.0899 C   0  0  0  0  0  0
  -29.7729  -20.6819   19.7005 C   0  0  0  0  0  0
  -28.9197  -21.2981   21.7991 C   0  0  0  0  0  0
  -30.0761  -19.3739   20.6657 C   0  0  1  0  0  0
  -31.5892  -17.8873   17.9021 C   0  0  0  0  0  0
  -29.0636  -19.7207   21.7853 C   0  0  1  0  0  0
  -27.5406  -16.5398   21.6848 C   0  0  0  0  0  0
  -28.8273  -17.4508   16.7355 C   0  0  0  0  0  0
  -26.6094  -17.3192   18.7563 C   0  0  0  0  0  0
  -29.4820  -19.1806   23.1650 C   0  0  0  0  0  0
  -29.2582  -23.3855   20.2065 C   0  0  0  0  0  0
  -28.0930  -24.6180   20.2859 C   0  0  0  0  0  0
  -28.9682  -21.8195   20.4048 N   0  3  1  0  0  0
  -31.4748  -12.8077   19.2064 H   0  0  0  0  0  0
  -30.4468  -11.6964   20.0547 H   0  0  0  0  0  0
  -29.8495  -11.7825   17.6004 H   0  0  0  0  0  0
  -29.6163  -13.5065   17.7131 H   0  0  0  0  0  0
  -27.9322  -11.3142   18.9432 H   0  0  0  0  0  0
  -27.4055  -12.5389   17.8182 H   0  0  0  0  0  0
  -27.5688  -14.2792   19.4507 H   0  0  0  0  0  0
  -28.7971  -12.2829   21.4156 H   0  0  0  0  0  0
  -28.4192  -13.9099   21.8373 H   0  0  0  0  0  0
  -25.2823   -9.5620   22.4795 H   0  0  0  0  0  0
  -24.0038   -7.4579   22.7543 H   0  0  0  0  0  0
  -21.0891   -8.8762   19.8954 H   0  0  0  0  0  0
  -22.3837  -10.9622   19.6148 H   0  0  0  0  0  0
  -21.2040   -7.6173   23.9746 H   0  0  0  0  0  0
  -21.1448   -6.0532   25.9088 H   0  0  0  0  0  0
  -22.0618   -2.7645   23.2847 H   0  0  0  0  0  0
  -22.4056  -11.9635   22.4849 H   0  0  0  0  0  0
  -21.0956  -13.0920   22.2834 H   0  0  0  0  0  0
  -24.4705  -15.7430   20.3775 H   0  0  0  0  0  0
  -26.1316  -15.6326   20.0365 H   0  0  0  0  0  0
  -26.7246  -32.5302   23.1014 H   0  0  0  0  0  0
  -25.0059  -33.9643   25.0335 H   0  0  0  0  0  0
  -22.7482  -31.2840   21.3774 H   0  0  0  0  0  0
  -23.3773  -35.9580   23.3253 H   0  0  0  0  0  0
  -24.3593  -36.8960   22.2067 H   0  0  0  0  0  0
  -23.7225  -37.6439   23.6715 H   0  0  0  0  0  0
  -26.1513  -31.4701   20.6118 H   0  0  0  0  0  0
  -26.8746  -30.7765   22.0266 H   0  0  0  0  0  0
  -28.1390  -28.8077   21.2330 H   0  0  0  0  0  0
  -25.9290  -25.8445   18.9949 H   0  0  0  0  0  0
  -23.9928  -27.2942   18.9852 H   0  0  0  0  0  0
  -23.8150  -30.5612   19.3986 H   0  0  0  0  0  0
  -22.7920  -29.2289   19.8435 H   0  0  0  0  0  0
  -25.1308  -36.1877   25.0807 H   0  0  0  0  0  0
  -20.9973  -28.3314   24.1373 H   0  0  0  0  0  0
  -20.5693  -26.2335   23.3627 H   0  0  0  0  0  0
  -21.6653  -26.7448   22.1211 H   0  0  0  0  0  0
  -19.6945  -25.6280   21.1275 H   0  0  0  0  0  0
  -19.6717  -27.3157   20.6714 H   0  0  0  0  0  0
  -17.4218  -26.6659   21.4011 H   0  0  0  0  0  0
  -18.0341  -26.0074   22.9013 H   0  0  0  0  0  0
  -19.7937  -30.7273   24.2250 H   0  0  0  0  0  0
  -17.5023  -31.6275   24.5157 H   0  0  0  0  0  0
  -15.5362  -30.2992   23.7666 H   0  0  0  0  0  0
  -15.8678  -28.0819   22.7108 H   0  0  0  0  0  0
  -24.5864  -30.7097   25.7701 H   0  0  0  0  0  0
  -24.8859  -32.2910   26.4783 H   0  0  0  0  0  0
  -25.7941  -30.8927   27.0210 H   0  0  0  0  0  0
  -26.2982  -29.6690   24.1283 H   0  0  0  0  0  0
  -27.3963  -29.7254   25.4861 H   0  0  0  0  0  0
  -27.8894  -30.4202   23.9615 H   0  0  0  0  0  0
  -27.2620  -33.3647   26.2031 H   0  0  0  0  0  0
  -28.3866  -32.6865   25.0359 H   0  0  0  0  0  0
  -28.0663  -31.8493   26.5473 H   0  0  0  0  0  0
  -28.2549  -38.0144   24.7558 H   0  0  0  0  0  0
  -28.1146  -36.2674   24.6201 H   0  0  0  0  0  0
  -27.2315  -37.1336   25.8856 H   0  0  0  0  0  0
  -20.9472  -29.8762   21.6791 H   0  0  0  0  0  0
  -26.0150  -38.2823   24.1446 H   0  0  0  0  0  0
  -32.6048  -19.4487   19.1532 H   0  0  0  0  0  0
  -33.7261  -18.4981   18.0503 H   0  0  0  0  0  0
  -32.2405  -19.0111   16.0950 H   0  0  0  0  0  0
  -31.0965  -19.9419   17.1950 H   0  0  0  0  0  0
  -29.1868  -20.3691   18.8361 H   0  0  0  0  0  0
  -30.7114  -21.0856   19.3197 H   0  0  0  0  0  0
  -29.7602  -21.7327   22.3422 H   0  0  0  0  0  0
  -28.0168  -21.6261   22.3135 H   0  0  0  0  0  0
  -31.0437  -19.6240   21.1048 H   0  0  0  0  0  0
  -31.8757  -16.9325   17.4624 H   0  0  0  0  0  0
  -28.0990  -19.2984   21.5046 H   0  0  0  0  0  0
  -27.1623  -15.5439   21.8689 H   0  0  0  0  0  0
  -26.6934  -17.2223   21.6231 H   0  0  0  0  0  0
  -28.0822  -16.7968   22.5897 H   0  0  0  0  0  0
  -29.6172  -16.9373   16.1900 H   0  0  0  0  0  0
  -28.7954  -18.4845   16.3931 H   0  0  0  0  0  0
  -27.8940  -16.9641   16.4504 H   0  0  0  0  0  0
  -25.9686  -17.6047   19.5896 H   0  0  0  0  0  0
  -26.2014  -16.4375   18.2627 H   0  0  0  0  0  0
  -26.5511  -18.1445   18.0450 H   0  0  0  0  0  0
  -30.3553  -19.7083   23.5500 H   0  0  0  0  0  0
  -29.7506  -18.1285   23.1089 H   0  0  0  0  0  0
  -28.6759  -19.2824   23.8946 H   0  0  0  0  0  0
  -30.0532  -23.6527   20.9051 H   0  0  0  0  0  0
  -29.7142  -23.4790   19.2206 H   0  0  0  0  0  0
  -27.5558  -24.4717   21.2240 H   0  0  0  0  0  0
  -27.3689  -24.3611   19.5164 H   0  0  0  0  0  0
  -28.0324  -21.6854   20.0477 H   0  0  0  0  0  0
  1 25  1  0  0  0
  1 30  2  0  0  0
  1 71  1  0  0  0
  2  3  1  0  0  0
  2 25  1  0  0  0
  2 91  1  0  0  0
  2 92  1  0  0  0
  3  4  1  0  0  0
  3 93  1  0  0  0
  3 94  1  0  0  0
  4  5  1  0  0  0
  4 95  1  0  0  0
  4 96  1  0  0  0
  5  6  1  0  0  0
  5 26  1  0  0  0
  5 97  1  0  0  0
  6 25  1  0  0  0
  6 98  1  0  0  0
  6 99  1  0  0  0
  7  8  2  0  0  0
  7 26  1  0  0  0
  7 29  1  0  0  0
  8  9  1  0  0  0
  8 22  1  0  0  0
  9 10  1  0  0  0
  9 27  2  0  0  0
 10 11  2  0  0  0
 10 15  1  0  0  0
 11 12  1  0  0  0
 11100  1  0  0  0
 12 13  2  0  0  0
 12101  1  0  0  0
 13 14  1  0  0  0
 13 31  1  0  0  0
 14 15  2  0  0  0
 14102  1  0  0  0
 15103  1  0  0  0
 16 17  2  0  0  0
 16 21  1  0  0  0
 16 31  1  0  0  0
 17 18  1  0  0  0
 17104  1  0  0  0
 18 19  2  0  0  0
 18105  1  0  0  0
 19 20  1  0  0  0
 19 24  1  0  0  0
 20 21  2  0  0  0
 20106  1  0  0  0
 21 23  1  0  0  0
 22 28  1  0  0  0
 22 32  2  0  0  0
 26 27  1  0  0  0
 28107  1  0  0  0
 28108  1  0  0  0
 29109  1  0  0  0
 29110  1  0  0  0
 33 34  1  0  0  0
 33 66  1  0  0  0
 33 70  2  0  0  0
 34 36  1  0  0  0
 34 59  1  0  0  0
 34111  1  0  0  0
 35 44  2  0  0  0
 35 45  1  0  0  0
 35 68  1  0  0  0
 36 56  1  0  0  0
 36112  1  0  0  0
 37 39  1  0  0  0
 37 47  1  0  0  0
 37 66  1  0  0  0
 37113  1  0  0  0
 38 43  2  0  0  0
 38 46  1  0  0  0
 38 47  1  0  0  0
 39 64  1  0  0  0
 39 67  2  0  0  0
 40 52  1  0  0  0
 40 53  2  0  0  0
 40 58  1  0  0  0
 41114  1  0  0  0
 41115  1  0  0  0
 41116  1  0  0  0
 41 48  1  0  0  0
 42 43  1  0  0  0
 42 66  1  0  0  0
 42117  1  0  0  0
 42118  1  0  0  0
 43 44  1  0  0  0
 44119  1  0  0  0
 45 46  2  0  0  0
 45120  1  0  0  0
 46121  1  0  0  0
 47122  1  0  0  0
 47123  1  0  0  0
 48 56  1  0  0  0
 48 65  1  0  0  0
 48124  1  0  0  0
 49 50  1  0  0  0
 49 53  1  0  0  0
 49 64  1  0  0  0
 49125  1  0  0  0
 50 51  1  0  0  0
 50126  1  0  0  0
 50127  1  0  0  0
 51 52  1  0  0  0
 51128  1  0  0  0
 51129  1  0  0  0
 52130  1  0  0  0
 52131  1  0  0  0
 53 54  1  0  0  0
 54 55  2  0  0  0
 54132  1  0  0  0
 55 57  1  0  0  0
 55133  1  0  0  0
 56 69  2  0  0  0
 57 58  2  0  0  0
 57134  1  0  0  0
 58135  1  0  0  0
 59 60  1  0  0  0
 59 61  1  0  0  0
 59 62  1  0  0  0
 60136  1  0  0  0
 60137  1  0  0  0
 60138  1  0  0  0
 61139  1  0  0  0
 61140  1  0  0  0
 61141  1  0  0  0
 62142  1  0  0  0
 62143  1  0  0  0
 62144  1  0  0  0
 63 65  1  0  0  0
 63145  1  0  0  0
 63146  1  0  0  0
 63147  1  0  0  0
 64148  1  0  0  0
 65149  1  0  0  0
 68 89  1  0  0  0
 71 72  1  0  0  0
 71 74  2  0  0  0
 72 73  2  0  0  0
 72 81  1  0  0  0
 73 75  1  0  0  0
 73 82  1  0  0  0
 74 76  1  0  0  0
 74 84  1  0  0  0
 75 76  2  0  0  0
 75 85  1  0  0  0
 76 86  1  0  0  0
 77 78  1  0  0  0
 77 82  1  0  0  0
 77150  1  0  0  0
 77151  1  0  0  0
 78 82  1  0  0  0
 78152  1  0  0  0
 78153  1  0  0  0
 79 81  1  0  0  0
 79 90  1  0  0  0
 79154  1  0  0  0
 79155  1  0  0  0
 80 83  1  0  0  0
 80 90  1  0  0  0
 80156  1  0  0  0
 80157  1  0  0  0
 81 83  1  0  0  0
 81158  1  0  0  0
 82159  1  0  0  0
 83 87  1  0  0  0
 83160  1  0  0  0
 84161  1  0  0  0
 84162  1  0  0  0
 84163  1  0  0  0
 85164  1  0  0  0
 85165  1  0  0  0
 85166  1  0  0  0
 86167  1  0  0  0
 86168  1  0  0  0
 86169  1  0  0  0
 87170  1  0  0  0
 87171  1  0  0  0
 87172  1  0  0  0
 88 89  1  0  0  0
 88173  1  0  0  0
 88174  1  0  0  0
 88 90  1  0  0  0
 89175  1  0  0  0
 89176  1  0  0  0
 90177  1  0  0  0
M  CHG  1  90   1
M  ISO  4   1 100  68 101  71 100  89 101
M  END
> <chiral flag>
0

> <version>
0

> <s_m_source_file>
/data/baiqing/PycharmProjects/Reinvent-master-3.2/result/LINK_invent/BTK/process_docking_weight1_custom_sum_contain_oxygen_bond_distance_aromatic_linkinvent_7_9_3/rearranged_h_0168.sdf

> <i_m_source_file_index>
1

> <r_mmod_Potential_Energy-OPLS-2005>
1052.55505371094

> <r_mmod_Stretch_Energy-OPLS-2005>
301.050140380859

> <r_mmod_Bend_Energy-OPLS-2005>
364.5654296875

> <r_mmod_Torsional_Energy-OPLS-2005>
596.811218261719

> <r_mmod_Improper_Torsional_Energy-OPLS-2005>
32.9977035522461

> <r_mmod_Van_der_Waal_Energy-OPLS-2005>
144.633346557617

> <r_mmod_Electrostatic_Energy-OPLS-2005>
-206.703552246094

> <r_mmod_Solvation_Energy-OPLS-2005>
-396.060333251953

> <b_mmod_Minimization_Converged-OPLS-2005>
0

> <r_mmod_RMS_Derivative-OPLS-2005>
3.99317646026611

$$$$
1
                    3D
 Structure written by MMmdl.
175186  0  0  1  0            999 V2000
  -30.7642  -14.3604   20.6997 C   0  0  0  0  0  0
  -30.4182  -12.2966   19.3836 C   0  0  0  0  0  0
  -29.4794  -12.5356   18.1866 C   0  0  0  0  0  0
  -28.0041  -12.3876   18.6054 C   0  0  0  0  0  0
  -27.6671  -13.1968   19.8844 C   0  0  2  0  0  0
  -28.7078  -12.9085   20.9886 C   0  0  0  0  0  0
  -25.2616  -13.8148   20.5685 C   0  0  0  0  0  0
  -24.1849  -13.0440   20.9169 C   0  0  0  0  0  0
  -24.6386  -11.6901   20.8732 C   0  0  0  0  0  0
  -23.9048  -10.4292   21.0406 C   0  0  0  0  0  0
  -24.3607   -9.4210   21.9185 C   0  0  0  0  0  0
  -23.6289   -8.2241   22.0756 C   0  0  0  0  0  0
  -22.4271   -8.0277   21.3545 C   0  0  0  0  0  0
  -21.9902   -9.0248   20.4648 C   0  0  0  0  0  0
  -22.7223  -10.2131   20.3056 C   0  0  0  0  0  0
  -21.6848   -6.0733   22.5280 C   0  0  0  0  0  0
  -21.4011   -6.5637   23.8214 C   0  0  0  0  0  0
  -21.3660   -5.6788   24.9175 C   0  0  0  0  0  0
  -21.6046   -4.3052   24.7224 C   0  0  0  0  0  0
  -21.8817   -3.8146   23.4343 C   0  0  0  0  0  0
  -21.9192   -4.6964   22.3401 C   0  0  0  0  0  0
  -22.7874  -13.5248   21.1830 C   0  0  0  0  0  0
  -22.1661   -4.2150   21.0980 F   0  0  0  0  0  0
  -21.5629   -3.4539   25.7738 F   0  0  0  0  0  0
  -30.0457  -13.2291   20.4587 N   0  0  0  0  0  0
  -26.3049  -12.9297   20.3408 N   0  0  0  0  0  0
  -25.9309  -11.6464   20.5770 N   0  0  0  0  0  0
  -22.0504  -12.8249   22.0391 N   0  0  0  0  0  0
  -25.4361  -15.1864   20.4093 N   0  0  0  0  0  0
  -31.7953  -14.6353   20.0736 O   0  0  0  0  0  0
  -21.6636   -6.8875   21.4242 O   0  0  0  0  0  0
  -22.3566  -14.5558   20.6685 O   0  0  0  0  0  0
  -24.6104  -31.8706   23.2127 C   0  0  0  0  0  0
  -25.9011  -32.4837   23.8414 C   0  0  1  0  0  0
  -27.2368  -27.4772   20.0912 C   0  0  0  0  0  0
  -25.5879  -33.8637   24.2347 N   0  0  0  0  0  0
  -23.3965  -30.4929   21.5524 C   0  0  2  0  0  0
  -24.8443  -28.9613   20.1172 C   0  0  0  0  0  0
  -22.7384  -29.4669   22.5020 C   0  0  0  0  0  0
  -18.0264  -28.1376   22.8499 C   0  0  0  0  0  0
  -24.1487  -36.7327   23.2642 C   0  0  0  0  0  0
  -25.9200  -30.8494   21.3585 C   0  0  0  0  0  0
  -26.0008  -29.4855   20.7093 C   0  0  0  0  0  0
  -27.2034  -28.7500   20.6938 C   0  0  0  0  0  0
  -26.0697  -26.9537   19.4975 C   0  0  0  0  0  0
  -24.8709  -27.6922   19.5104 C   0  0  0  0  0  0
  -23.6026  -29.8219   20.1675 C   0  0  0  0  0  0
  -25.4105  -36.3127   24.0344 C   0  0  1  0  0  0
  -20.5849  -28.3655   23.1339 C   0  0  2  0  0  0
  -20.6752  -26.9395   22.5432 C   0  0  0  0  0  0
  -19.5737  -26.6387   21.5219 C   0  0  0  0  0  0
  -18.1909  -26.7929   22.1619 C   0  0  0  0  0  0
  -19.1512  -28.8833   23.2917 C   0  0  0  0  0  0
  -18.9442  -30.1441   23.8924 C   0  0  0  0  0  0
  -17.6445  -30.6584   24.0570 C   0  0  0  0  0  0
  -25.9027  -34.9487   23.5145 C   0  0  0  0  0  0
  -16.5337  -29.9088   23.6325 C   0  0  0  0  0  0
  -16.7254  -28.6505   23.0345 C   0  0  0  0  0  0
  -26.4458  -31.6603   25.0725 C   0  0  0  0  0  0
  -25.3745  -31.3688   26.1488 C   0  0  0  0  0  0
  -27.0279  -30.3053   24.6069 C   0  0  0  0  0  0
  -27.6046  -32.4313   25.7477 C   0  0  0  0  0  0
  -27.5587  -37.1816   24.8464 C   0  0  0  0  0  0
  -21.4117  -29.3029   22.3754 N   0  0  0  0  0  0
  -26.4297  -37.3805   23.9414 N   0  0  0  0  0  0
  -24.6604  -31.0840   22.1006 N   0  0  0  0  0  0
  -23.4172  -28.8216   23.3053 O   0  0  0  0  0  0
  -28.4001  -26.7559   20.0706 O   0  0  0  0  0  0
  -26.5592  -34.8929   22.4708 O   0  0  0  0  0  0
  -23.5307  -32.1439   23.7548 O   0  0  0  0  0  0
  -29.5595  -20.2055   21.8953 C   0  0  0  0  0  0
  -29.3280  -20.9298   19.1794 C   0  0  0  0  0  0
  -29.0053  -21.8782   20.1907 C   0  0  0  0  0  0
  -29.7936  -19.6358   19.5393 C   0  0  0  0  0  0
  -29.1007  -21.4903   21.5533 C   0  0  0  0  0  0
  -29.8952  -19.2705   20.8972 C   0  0  0  0  0  0
  -29.1622  -21.2964   17.7028 C   0  0  0  0  0  0
  -30.1422  -18.5825   18.4883 C   0  0  0  0  0  0
  -29.0927  -20.0873   16.7642 C   0  0  0  0  0  0
  -30.2363  -19.1187   17.0564 C   0  0  0  0  0  0
  -30.7533  -16.9192   23.2939 C   0  0  0  0  0  0
  -29.2710  -24.2085   18.9106 C   0  0  0  0  0  0
  -31.3900  -15.6648   22.6918 C   0  0  0  0  0  0
  -29.2371  -15.9764   21.7124 C   0  0  0  0  0  0
  -28.5248  -23.2667   19.8349 C   0  0  2  0  0  0
  -29.2124  -24.5011   20.3878 C   0  0  2  0  0  0
  -29.7029  -17.3150   22.2710 C   0  0  2  0  0  0
  -28.6947  -22.4231   22.6844 C   0  0  0  0  0  0
  -28.3900  -25.6396   20.9549 C   0  0  0  0  0  0
  -30.3926  -15.0725   21.7871 N   0  0  0  0  0  0
  -30.3334  -18.0019   21.1940 O   0  0  0  0  0  0
  -31.4589  -12.4064   19.0737 H   0  0  0  0  0  0
  -30.3276  -11.2688   19.7384 H   0  0  0  0  0  0
  -29.7099  -11.8374   17.3808 H   0  0  0  0  0  0
  -29.6466  -13.5355   17.7828 H   0  0  0  0  0  0
  -27.8091  -11.3281   18.7753 H   0  0  0  0  0  0
  -27.3486  -12.6890   17.7872 H   0  0  0  0  0  0
  -27.7298  -14.2529   19.6240 H   0  0  0  0  0  0
  -28.6781  -11.8516   21.2578 H   0  0  0  0  0  0
  -28.4606  -13.4281   21.9115 H   0  0  0  0  0  0
  -25.2753   -9.5687   22.4758 H   0  0  0  0  0  0
  -24.0004   -7.4632   22.7472 H   0  0  0  0  0  0
  -21.0834   -8.8760   19.8952 H   0  0  0  0  0  0
  -22.3683  -10.9667   19.6166 H   0  0  0  0  0  0
  -21.2000   -7.6143   23.9718 H   0  0  0  0  0  0
  -21.1483   -6.0517   25.9078 H   0  0  0  0  0  0
  -22.0595   -2.7607   23.2844 H   0  0  0  0  0  0
  -22.4105  -11.9906   22.4778 H   0  0  0  0  0  0
  -21.1127  -13.1290   22.2594 H   0  0  0  0  0  0
  -24.6722  -15.8443   20.5182 H   0  0  0  0  0  0
  -26.2908  -15.6229   20.0888 H   0  0  0  0  0  0
  -26.7087  -32.5573   23.1189 H   0  0  0  0  0  0
  -25.0018  -33.9804   25.0484 H   0  0  0  0  0  0
  -22.6838  -31.3083   21.4135 H   0  0  0  0  0  0
  -23.3743  -35.9664   23.3307 H   0  0  0  0  0  0
  -24.3585  -36.8940   22.2055 H   0  0  0  0  0  0
  -23.7235  -37.6533   23.6650 H   0  0  0  0  0  0
  -26.0229  -31.6151   20.5884 H   0  0  0  0  0  0
  -26.8112  -30.9076   21.9714 H   0  0  0  0  0  0
  -28.1003  -29.1513   21.1450 H   0  0  0  0  0  0
  -26.0920  -25.9810   19.0261 H   0  0  0  0  0  0
  -23.9815  -27.2827   19.0518 H   0  0  0  0  0  0
  -23.7042  -30.5946   19.4047 H   0  0  0  0  0  0
  -22.7286  -29.2363   19.8765 H   0  0  0  0  0  0
  -25.1279  -36.2003   25.0838 H   0  0  0  0  0  0
  -20.9941  -28.3216   24.1459 H   0  0  0  0  0  0
  -20.5650  -26.2263   23.3614 H   0  0  0  0  0  0
  -21.6626  -26.7438   22.1231 H   0  0  0  0  0  0
  -19.6895  -25.6301   21.1236 H   0  0  0  0  0  0
  -19.6682  -27.3212   20.6763 H   0  0  0  0  0  0
  -17.4188  -26.6701   21.4007 H   0  0  0  0  0  0
  -18.0289  -26.0059   22.9000 H   0  0  0  0  0  0
  -19.7916  -30.7255   24.2302 H   0  0  0  0  0  0
  -17.4996  -31.6267   24.5170 H   0  0  0  0  0  0
  -15.5338  -30.2997   23.7634 H   0  0  0  0  0  0
  -15.8655  -28.0836   22.7042 H   0  0  0  0  0  0
  -24.5924  -30.7022   25.7834 H   0  0  0  0  0  0
  -24.8925  -32.2832   26.4959 H   0  0  0  0  0  0
  -25.8123  -30.8851   27.0230 H   0  0  0  0  0  0
  -26.2804  -29.6820   24.1145 H   0  0  0  0  0  0
  -27.4083  -29.7282   25.4508 H   0  0  0  0  0  0
  -27.8624  -30.4381   23.9181 H   0  0  0  0  0  0
  -27.2674  -33.3590   26.2110 H   0  0  0  0  0  0
  -28.3820  -32.6912   25.0279 H   0  0  0  0  0  0
  -28.0755  -31.8406   26.5345 H   0  0  0  0  0  0
  -28.2611  -38.0109   24.7512 H   0  0  0  0  0  0
  -28.1078  -36.2643   24.6281 H   0  0  0  0  0  0
  -27.2312  -37.1463   25.8870 H   0  0  0  0  0  0
  -20.9274  -29.8751   21.6981 H   0  0  0  0  0  0
  -26.0193  -38.2888   24.1414 H   0  0  0  0  0  0
  -29.6517  -19.9395   22.9388 H   0  0  0  0  0  0
  -30.0108  -21.9148   17.4109 H   0  0  0  0  0  0
  -28.2652  -21.8994   17.5601 H   0  0  0  0  0  0
  -29.3735  -17.8098   18.5337 H   0  0  0  0  0  0
  -31.0818  -18.0945   18.7519 H   0  0  0  0  0  0
  -29.1259  -20.4186   15.7256 H   0  0  0  0  0  0
  -28.1399  -19.5726   16.8961 H   0  0  0  0  0  0
  -30.2405  -18.2918   16.3454 H   0  0  0  0  0  0
  -31.1853  -19.6415   16.9274 H   0  0  0  0  0  0
  -31.4746  -17.7121   23.4957 H   0  0  0  0  0  0
  -30.2662  -16.6677   24.2372 H   0  0  0  0  0  0
  -28.6781  -24.8393   18.2511 H   0  0  0  0  0  0
  -30.2421  -23.9104   18.5223 H   0  0  0  0  0  0
  -31.6804  -14.9529   23.4653 H   0  0  0  0  0  0
  -32.2965  -15.9468   22.1523 H   0  0  0  0  0  0
  -28.8350  -16.0874   20.7034 H   0  0  0  0  0  0
  -28.4366  -15.5872   22.3416 H   0  0  0  0  0  0
  -27.4379  -23.2779   19.7714 H   0  0  0  0  0  0
  -30.1610  -24.3563   20.9014 H   0  0  0  0  0  0
  -28.8645  -17.8535   22.7150 H   0  0  0  0  0  0
  -28.5187  -21.8708   23.6083 H   0  0  0  0  0  0
  -27.7713  -22.9522   22.4482 H   0  0  0  0  0  0
  -29.4775  -23.1547   22.8833 H   0  0  0  0  0  0
  -28.8114  -25.9388   21.9152 H   0  0  0  0  0  0
  -27.3817  -25.2743   21.1604 H   0  0  0  0  0  0
  1 25  1  0  0  0
  1 30  2  0  0  0
  1 90  1  0  0  0
  2  3  1  0  0  0
  2 25  1  0  0  0
  2 92  1  0  0  0
  2 93  1  0  0  0
  3  4  1  0  0  0
  3 94  1  0  0  0
  3 95  1  0  0  0
  4  5  1  0  0  0
  4 96  1  0  0  0
  4 97  1  0  0  0
  5  6  1  0  0  0
  5 26  1  0  0  0
  5 98  1  0  0  0
  6 25  1  0  0  0
  6 99  1  0  0  0
  6100  1  0  0  0
  7  8  2  0  0  0
  7 26  1  0  0  0
  7 29  1  0  0  0
  8  9  1  0  0  0
  8 22  1  0  0  0
  9 10  1  0  0  0
  9 27  2  0  0  0
 10 11  2  0  0  0
 10 15  1  0  0  0
 11 12  1  0  0  0
 11101  1  0  0  0
 12 13  2  0  0  0
 12102  1  0  0  0
 13 14  1  0  0  0
 13 31  1  0  0  0
 14 15  2  0  0  0
 14103  1  0  0  0
 15104  1  0  0  0
 16 17  2  0  0  0
 16 21  1  0  0  0
 16 31  1  0  0  0
 17 18  1  0  0  0
 17105  1  0  0  0
 18 19  2  0  0  0
 18106  1  0  0  0
 19 20  1  0  0  0
 19 24  1  0  0  0
 20 21  2  0  0  0
 20107  1  0  0  0
 21 23  1  0  0  0
 22 28  1  0  0  0
 22 32  2  0  0  0
 26 27  1  0  0  0
 28108  1  0  0  0
 28109  1  0  0  0
 29110  1  0  0  0
 29111  1  0  0  0
 33 34  1  0  0  0
 33 66  1  0  0  0
 33 70  2  0  0  0
 34 36  1  0  0  0
 34 59  1  0  0  0
 34112  1  0  0  0
 35 44  2  0  0  0
 35 45  1  0  0  0
 35 68  1  0  0  0
 36 56  1  0  0  0
 36113  1  0  0  0
 37 39  1  0  0  0
 37 47  1  0  0  0
 37 66  1  0  0  0
 37114  1  0  0  0
 38 43  2  0  0  0
 38 46  1  0  0  0
 38 47  1  0  0  0
 39 64  1  0  0  0
 39 67  2  0  0  0
 40 52  1  0  0  0
 40 53  2  0  0  0
 40 58  1  0  0  0
 41115  1  0  0  0
 41116  1  0  0  0
 41117  1  0  0  0
 41 48  1  0  0  0
 42 43  1  0  0  0
 42 66  1  0  0  0
 42118  1  0  0  0
 42119  1  0  0  0
 43 44  1  0  0  0
 44120  1  0  0  0
 45 46  2  0  0  0
 45121  1  0  0  0
 46122  1  0  0  0
 47123  1  0  0  0
 47124  1  0  0  0
 48 56  1  0  0  0
 48 65  1  0  0  0
 48125  1  0  0  0
 49 50  1  0  0  0
 49 53  1  0  0  0
 49 64  1  0  0  0
 49126  1  0  0  0
 50 51  1  0  0  0
 50127  1  0  0  0
 50128  1  0  0  0
 51 52  1  0  0  0
 51129  1  0  0  0
 51130  1  0  0  0
 52131  1  0  0  0
 52132  1  0  0  0
 53 54  1  0  0  0
 54 55  2  0  0  0
 54133  1  0  0  0
 55 57  1  0  0  0
 55134  1  0  0  0
 56 69  2  0  0  0
 57 58  2  0  0  0
 57135  1  0  0  0
 58136  1  0  0  0
 59 60  1  0  0  0
 59 61  1  0  0  0
 59 62  1  0  0  0
 60137  1  0  0  0
 60138  1  0  0  0
 60139  1  0  0  0
 61140  1  0  0  0
 61141  1  0  0  0
 61142  1  0  0  0
 62143  1  0  0  0
 62144  1  0  0  0
 62145  1  0  0  0
 63 65  1  0  0  0
 63146  1  0  0  0
 63147  1  0  0  0
 63148  1  0  0  0
 64149  1  0  0  0
 65150  1  0  0  0
 68 89  1  0  0  0
 71 75  2  0  0  0
 71 76  1  0  0  0
 71151  1  0  0  0
 72 73  2  0  0  0
 72 74  1  0  0  0
 72 77  1  0  0  0
 73 75  1  0  0  0
 73 85  1  0  0  0
 74 76  2  0  0  0
 74 78  1  0  0  0
 75 88  1  0  0  0
 76 91  1  0  0  0
 77 79  1  0  0  0
 77152  1  0  0  0
 77153  1  0  0  0
 78 80  1  0  0  0
 78154  1  0  0  0
 78155  1  0  0  0
 79 80  1  0  0  0
 79156  1  0  0  0
 79157  1  0  0  0
 80158  1  0  0  0
 80159  1  0  0  0
 81 83  1  0  0  0
 81 87  1  0  0  0
 81160  1  0  0  0
 81161  1  0  0  0
 82 85  1  0  0  0
 82 86  1  0  0  0
 82162  1  0  0  0
 82163  1  0  0  0
 83 90  1  0  0  0
 83164  1  0  0  0
 83165  1  0  0  0
 84 87  1  0  0  0
 84 90  1  0  0  0
 84166  1  0  0  0
 84167  1  0  0  0
 85 86  1  0  0  0
 85168  1  0  0  0
 86 89  1  0  0  0
 86169  1  0  0  0
 87 91  1  0  0  0
 87170  1  0  0  0
 88171  1  0  0  0
 88172  1  0  0  0
 88173  1  0  0  0
 89174  1  0  0  0
 89175  1  0  0  0
M  ISO  4   1 100  68 101  89 101  90 100
M  END
> <chiral flag>
0

> <version>
0

> <s_m_source_file>
/data/baiqing/PycharmProjects/Reinvent-master-3.2/result/LINK_invent/BTK/process_docking_weight1_custom_sum_contain_oxygen_bond_distance_aromatic_linkinvent_7_9_3/rearranged_h_0168.sdf

> <i_m_source_file_index>
2

> <r_mmod_Potential_Energy-OPLS-2005>
179.304122924805

> <r_mmod_Stretch_Energy-OPLS-2005>
36.2321891784668

> <r_mmod_Bend_Energy-OPLS-2005>
117.557914733887

> <r_mmod_Torsional_Energy-OPLS-2005>
402.480072021484

> <r_mmod_Improper_Torsional_Energy-OPLS-2005>
7.10887861251831

> <r_mmod_Van_der_Waal_Energy-OPLS-2005>
156.253814697266

> <r_mmod_Electrostatic_Energy-OPLS-2005>
-346.510437011719

> <r_mmod_Solvation_Energy-OPLS-2005>
-200.691619873047

> <b_mmod_Minimization_Converged-OPLS-2005>
0

> <r_mmod_RMS_Derivative-OPLS-2005>
0.598509430885315

$$$$
2
                    3D
 Structure written by MMmdl.
164174  0  0  1  0            999 V2000
  -30.6950  -14.4871   20.4945 C   0  0  0  0  0  0
  -30.4240  -12.2887   19.4464 C   0  0  0  0  0  0
  -29.5110  -12.4929   18.2160 C   0  0  0  0  0  0
  -28.0236  -12.3549   18.6079 C   0  0  0  0  0  0
  -27.6589  -13.1937   19.8637 C   0  0  2  0  0  0
  -28.6982  -13.0230   20.9982 C   0  0  0  0  0  0
  -25.2547  -13.8051   20.5621 C   0  0  0  0  0  0
  -24.1786  -13.0364   20.9292 C   0  0  0  0  0  0
  -24.6297  -11.6806   20.8759 C   0  0  0  0  0  0
  -23.8936  -10.4253   21.0425 C   0  0  0  0  0  0
  -24.3518   -9.4181   21.9173 C   0  0  0  0  0  0
  -23.6226   -8.2216   22.0657 C   0  0  0  0  0  0
  -22.4198   -8.0283   21.3478 C   0  0  0  0  0  0
  -21.9832   -9.0238   20.4530 C   0  0  0  0  0  0
  -22.7153  -10.2125   20.3033 C   0  0  0  0  0  0
  -21.6817   -6.0712   22.5302 C   0  0  0  0  0  0
  -21.4045   -6.5621   23.8240 C   0  0  0  0  0  0
  -21.3719   -5.6811   24.9230 C   0  0  0  0  0  0
  -21.6039   -4.3066   24.7268 C   0  0  0  0  0  0
  -21.8792   -3.8139   23.4388 C   0  0  0  0  0  0
  -21.9137   -4.6930   22.3425 C   0  0  0  0  0  0
  -22.7789  -13.5164   21.1922 C   0  0  0  0  0  0
  -22.1585   -4.2099   21.0995 F   0  0  0  0  0  0
  -21.5635   -3.4540   25.7788 F   0  0  0  0  0  0
  -30.0334  -13.2980   20.4466 N   0  0  0  0  0  0
  -26.2933  -12.9182   20.3244 N   0  0  0  0  0  0
  -25.9206  -11.6340   20.5686 N   0  0  0  0  0  0
  -22.0418  -12.8086   22.0457 N   0  0  0  0  0  0
  -25.4432  -15.1685   20.3819 N   0  0  0  0  0  0
  -31.8490  -14.6117   20.0900 O   0  0  0  0  0  0
  -21.6545   -6.8878   21.4291 O   0  0  0  0  0  0
  -22.3456  -14.5461   20.6842 O   0  0  0  0  0  0
  -24.6173  -31.8660   23.2099 C   0  0  0  0  0  0
  -25.9054  -32.4804   23.8343 C   0  0  1  0  0  0
  -27.2119  -27.3919   20.0663 C   0  0  0  0  0  0
  -25.5913  -33.8605   24.2264 N   0  0  0  0  0  0
  -23.3997  -30.4974   21.5589 C   0  0  2  0  0  0
  -24.8311  -28.9605   20.1079 C   0  0  0  0  0  0
  -22.7370  -29.4670   22.5004 C   0  0  0  0  0  0
  -18.0268  -28.1350   22.8525 C   0  0  0  0  0  0
  -24.1490  -36.7336   23.2642 C   0  0  0  0  0  0
  -25.9364  -30.8121   21.3697 C   0  0  0  0  0  0
  -26.0012  -29.4492   20.7043 C   0  0  0  0  0  0
  -27.1890  -28.6757   20.6761 C   0  0  0  0  0  0
  -26.0137  -26.9246   19.4754 C   0  0  0  0  0  0
  -24.8371  -27.6981   19.4882 C   0  0  0  0  0  0
  -23.5977  -29.8404   20.1708 C   0  0  0  0  0  0
  -25.4115  -36.3116   24.0320 C   0  0  1  0  0  0
  -20.5856  -28.3652   23.1331 C   0  0  2  0  0  0
  -20.6771  -26.9386   22.5436 C   0  0  0  0  0  0
  -19.5730  -26.6362   21.5236 C   0  0  0  0  0  0
  -18.1909  -26.7899   22.1654 C   0  0  0  0  0  0
  -19.1520  -28.8803   23.2933 C   0  0  0  0  0  0
  -18.9450  -30.1426   23.8916 C   0  0  0  0  0  0
  -17.6455  -30.6576   24.0552 C   0  0  0  0  0  0
  -25.9048  -34.9475   23.5082 C   0  0  0  0  0  0
  -16.5344  -29.9069   23.6341 C   0  0  0  0  0  0
  -16.7257  -28.6482   23.0363 C   0  0  0  0  0  0
  -26.4426  -31.6634   25.0720 C   0  0  0  0  0  0
  -25.3672  -31.3826   26.1469 C   0  0  0  0  0  0
  -27.0260  -30.3061   24.6176 C   0  0  0  0  0  0
  -27.5956  -32.4384   25.7540 C   0  0  0  0  0  0
  -27.5567  -37.1834   24.8448 C   0  0  0  0  0  0
  -21.4105  -29.3037   22.3734 N   0  0  0  0  0  0
  -26.4293  -37.3803   23.9377 N   0  0  0  0  0  0
  -24.6720  -31.0695   22.1054 N   0  0  0  0  0  0
  -23.4142  -28.8180   23.3012 O   0  0  0  0  0  0
  -28.3817  -26.6395   20.0798 O   0  0  0  0  0  0
  -26.5612  -34.8927   22.4655 O   0  0  0  0  0  0
  -23.5392  -32.1423   23.7547 O   0  0  0  0  0  0
  -29.6134  -19.3597   19.9129 C   0  0  0  0  0  0
  -28.2812  -17.9732   21.3749 C   0  0  0  0  0  0
  -28.8309  -20.4627   20.3155 C   0  0  0  0  0  0
  -29.3822  -18.0906   20.5077 C   0  0  0  0  0  0
  -27.8531  -20.2512   21.3051 C   0  0  0  0  0  0
  -27.2762  -21.4314   22.0324 C   0  0  0  0  0  0
  -29.0497  -21.8964   19.7896 C   0  0  0  0  0  0
  -28.4423  -22.3806   24.6565 C   0  0  0  0  0  0
  -29.7938  -22.5845   24.0148 C   0  0  0  0  0  0
  -28.5479  -23.0957   23.3145 C   0  0  0  0  0  0
  -28.7304  -23.0224   20.8479 C   0  0  1  0  0  0
  -30.3007  -16.9017   20.1816 C   0  0  0  0  0  0
  -27.7920  -24.1721   20.3307 C   0  0  0  0  0  0
  -28.4265  -25.3160   19.4779 C   0  0  0  0  0  0
  -27.5342  -19.0187   21.7583 N   0  0  0  0  0  0
  -28.1498  -22.4572   22.0866 N   0  0  0  0  0  0
  -29.9498  -15.5838   20.7336 N   0  0  0  0  0  0
  -26.2722  -21.3337   22.7481 O   0  0  0  0  0  0
  -31.4752  -12.3703   19.1622 H   0  0  0  0  0  0
  -30.3248  -11.2809   19.8581 H   0  0  0  0  0  0
  -29.7619  -11.7911   17.4162 H   0  0  0  0  0  0
  -29.7038  -13.4916   17.8149 H   0  0  0  0  0  0
  -27.8071  -11.2983   18.7986 H   0  0  0  0  0  0
  -27.3952  -12.6472   17.7619 H   0  0  0  0  0  0
  -27.6938  -14.2343   19.5454 H   0  0  0  0  0  0
  -28.6688  -12.0019   21.3891 H   0  0  0  0  0  0
  -28.4747  -13.6640   21.8516 H   0  0  0  0  0  0
  -25.2677   -9.5522   22.4746 H   0  0  0  0  0  0
  -23.9853   -7.4529   22.7334 H   0  0  0  0  0  0
  -21.0774   -8.8742   19.8737 H   0  0  0  0  0  0
  -22.3639  -10.9652   19.6106 H   0  0  0  0  0  0
  -21.2095   -7.6140   23.9719 H   0  0  0  0  0  0
  -21.1611   -6.0573   25.9106 H   0  0  0  0  0  0
  -22.0491   -2.7595   23.2928 H   0  0  0  0  0  0
  -22.3958  -11.9717   22.4851 H   0  0  0  0  0  0
  -21.1050  -13.1163   22.2616 H   0  0  0  0  0  0
  -24.7130  -15.8606   20.5092 H   0  0  0  0  0  0
  -26.2615  -15.5334   19.9129 H   0  0  0  0  0  0
  -26.7107  -32.5436   23.1084 H   0  0  0  0  0  0
  -25.0039  -33.9742   25.0385 H   0  0  0  0  0  0
  -22.6906  -31.3200   21.4378 H   0  0  0  0  0  0
  -23.3733  -35.9689   23.3331 H   0  0  0  0  0  0
  -24.3580  -36.8945   22.2051 H   0  0  0  0  0  0
  -23.7253  -37.6554   23.6651 H   0  0  0  0  0  0
  -26.0513  -31.5778   20.6036 H   0  0  0  0  0  0
  -26.8257  -30.8528   21.9884 H   0  0  0  0  0  0
  -28.0940  -29.0593   21.1249 H   0  0  0  0  0  0
  -25.9572  -25.9568   19.0014 H   0  0  0  0  0  0
  -23.9419  -27.3101   19.0184 H   0  0  0  0  0  0
  -23.7015  -30.6292   19.4280 H   0  0  0  0  0  0
  -22.7111  -29.2822   19.8700 H   0  0  0  0  0  0
  -25.1306  -36.1992   25.0818 H   0  0  0  0  0  0
  -20.9965  -28.3222   24.1432 H   0  0  0  0  0  0
  -20.5708  -26.2224   23.3605 H   0  0  0  0  0  0
  -21.6622  -26.7432   22.1173 H   0  0  0  0  0  0
  -19.6891  -25.6271   21.1238 H   0  0  0  0  0  0
  -19.6674  -27.3188   20.6773 H   0  0  0  0  0  0
  -17.4174  -26.6655   21.4071 H   0  0  0  0  0  0
  -18.0328  -26.0032   22.9040 H   0  0  0  0  0  0
  -19.7935  -30.7250   24.2264 H   0  0  0  0  0  0
  -17.5016  -31.6271   24.5119 H   0  0  0  0  0  0
  -15.5343  -30.2964   23.7668 H   0  0  0  0  0  0
  -15.8664  -28.0808   22.7060 H   0  0  0  0  0  0
  -24.5778  -30.7232   25.7843 H   0  0  0  0  0  0
  -24.8922  -32.3031   26.4887 H   0  0  0  0  0  0
  -25.7981  -30.9008   27.0252 H   0  0  0  0  0  0
  -26.2849  -29.6886   24.1089 H   0  0  0  0  0  0
  -27.3824  -29.7244   25.4686 H   0  0  0  0  0  0
  -27.8762  -30.4345   23.9474 H   0  0  0  0  0  0
  -27.2475  -33.3638   26.2158 H   0  0  0  0  0  0
  -28.3775  -32.7050   25.0416 H   0  0  0  0  0  0
  -28.0603  -31.8493   26.5464 H   0  0  0  0  0  0
  -28.2605  -38.0115   24.7467 H   0  0  0  0  0  0
  -28.1046  -36.2631   24.6332 H   0  0  0  0  0  0
  -27.2259  -37.1563   25.8848 H   0  0  0  0  0  0
  -20.9203  -29.8787   21.7026 H   0  0  0  0  0  0
  -26.0191  -38.2889   24.1375 H   0  0  0  0  0  0
  -30.4073  -19.4926   19.1945 H   0  0  0  0  0  0
  -27.9706  -17.0283   21.7961 H   0  0  0  0  0  0
  -28.4141  -22.0159   18.9075 H   0  0  0  0  0  0
  -30.0700  -21.9938   19.4176 H   0  0  0  0  0  0
  -28.2257  -22.9752   25.5428 H   0  0  0  0  0  0
  -28.0653  -21.3573   24.7054 H   0  0  0  0  0  0
  -30.2971  -21.7094   23.6093 H   0  0  0  0  0  0
  -30.4443  -23.3275   24.4683 H   0  0  0  0  0  0
  -28.4218  -24.1698   23.3370 H   0  0  0  0  0  0
  -29.6883  -23.4600   21.1348 H   0  0  0  0  0  0
  -31.3195  -17.1317   20.5027 H   0  0  0  0  0  0
  -30.3398  -16.8191   19.0953 H   0  0  0  0  0  0
  -27.2933  -24.6398   21.1815 H   0  0  0  0  0  0
  -26.9670  -23.7355   19.7630 H   0  0  0  0  0  0
  -27.9865  -25.3312   18.4784 H   0  0  0  0  0  0
  -29.4785  -25.0840   19.3048 H   0  0  0  0  0  0
  -29.0321  -15.4464   21.1219 H   0  0  0  0  0  0
  1 25  1  0  0  0
  1 30  2  0  0  0
  1 87  1  0  0  0
  2  3  1  0  0  0
  2 25  1  0  0  0
  2 89  1  0  0  0
  2 90  1  0  0  0
  3  4  1  0  0  0
  3 91  1  0  0  0
  3 92  1  0  0  0
  4  5  1  0  0  0
  4 93  1  0  0  0
  4 94  1  0  0  0
  5  6  1  0  0  0
  5 26  1  0  0  0
  5 95  1  0  0  0
  6 25  1  0  0  0
  6 96  1  0  0  0
  6 97  1  0  0  0
  7  8  2  0  0  0
  7 26  1  0  0  0
  7 29  1  0  0  0
  8  9  1  0  0  0
  8 22  1  0  0  0
  9 10  1  0  0  0
  9 27  2  0  0  0
 10 11  2  0  0  0
 10 15  1  0  0  0
 11 12  1  0  0  0
 11 98  1  0  0  0
 12 13  2  0  0  0
 12 99  1  0  0  0
 13 14  1  0  0  0
 13 31  1  0  0  0
 14 15  2  0  0  0
 14100  1  0  0  0
 15101  1  0  0  0
 16 17  2  0  0  0
 16 21  1  0  0  0
 16 31  1  0  0  0
 17 18  1  0  0  0
 17102  1  0  0  0
 18 19  2  0  0  0
 18103  1  0  0  0
 19 20  1  0  0  0
 19 24  1  0  0  0
 20 21  2  0  0  0
 20104  1  0  0  0
 21 23  1  0  0  0
 22 28  1  0  0  0
 22 32  2  0  0  0
 26 27  1  0  0  0
 28105  1  0  0  0
 28106  1  0  0  0
 29107  1  0  0  0
 29108  1  0  0  0
 33 34  1  0  0  0
 33 66  1  0  0  0
 33 70  2  0  0  0
 34 36  1  0  0  0
 34 59  1  0  0  0
 34109  1  0  0  0
 35 44  2  0  0  0
 35 45  1  0  0  0
 35 68  1  0  0  0
 36 56  1  0  0  0
 36110  1  0  0  0
 37 39  1  0  0  0
 37 47  1  0  0  0
 37 66  1  0  0  0
 37111  1  0  0  0
 38 43  2  0  0  0
 38 46  1  0  0  0
 38 47  1  0  0  0
 39 64  1  0  0  0
 39 67  2  0  0  0
 40 52  1  0  0  0
 40 53  2  0  0  0
 40 58  1  0  0  0
 41112  1  0  0  0
 41113  1  0  0  0
 41114  1  0  0  0
 41 48  1  0  0  0
 42 43  1  0  0  0
 42 66  1  0  0  0
 42115  1  0  0  0
 42116  1  0  0  0
 43 44  1  0  0  0
 44117  1  0  0  0
 45 46  2  0  0  0
 45118  1  0  0  0
 46119  1  0  0  0
 47120  1  0  0  0
 47121  1  0  0  0
 48 56  1  0  0  0
 48 65  1  0  0  0
 48122  1  0  0  0
 49 50  1  0  0  0
 49 53  1  0  0  0
 49 64  1  0  0  0
 49123  1  0  0  0
 50 51  1  0  0  0
 50124  1  0  0  0
 50125  1  0  0  0
 51 52  1  0  0  0
 51126  1  0  0  0
 51127  1  0  0  0
 52128  1  0  0  0
 52129  1  0  0  0
 53 54  1  0  0  0
 54 55  2  0  0  0
 54130  1  0  0  0
 55 57  1  0  0  0
 55131  1  0  0  0
 56 69  2  0  0  0
 57 58  2  0  0  0
 57132  1  0  0  0
 58133  1  0  0  0
 59 60  1  0  0  0
 59 61  1  0  0  0
 59 62  1  0  0  0
 60134  1  0  0  0
 60135  1  0  0  0
 60136  1  0  0  0
 61137  1  0  0  0
 61138  1  0  0  0
 61139  1  0  0  0
 62140  1  0  0  0
 62141  1  0  0  0
 62142  1  0  0  0
 63 65  1  0  0  0
 63143  1  0  0  0
 63144  1  0  0  0
 63145  1  0  0  0
 64146  1  0  0  0
 65147  1  0  0  0
 68 84  1  0  0  0
 71 73  2  0  0  0
 71 74  1  0  0  0
 71148  1  0  0  0
 72 74  2  0  0  0
 72 85  1  0  0  0
 72149  1  0  0  0
 73 75  1  0  0  0
 73 77  1  0  0  0
 74 82  1  0  0  0
 75 76  1  0  0  0
 75 85  2  0  0  0
 76 86  1  0  0  0
 76 88  2  0  0  0
 77 81  1  0  0  0
 77150  1  0  0  0
 77151  1  0  0  0
 78 79  1  0  0  0
 78 80  1  0  0  0
 78152  1  0  0  0
 78153  1  0  0  0
 79 80  1  0  0  0
 79154  1  0  0  0
 79155  1  0  0  0
 80 86  1  0  0  0
 80156  1  0  0  0
 81 83  1  0  0  0
 81 86  1  0  0  0
 81157  1  0  0  0
 82 87  1  0  0  0
 82158  1  0  0  0
 82159  1  0  0  0
 83 84  1  0  0  0
 83160  1  0  0  0
 83161  1  0  0  0
 84162  1  0  0  0
 84163  1  0  0  0
 87164  1  0  0  0
M  ISO  4   1 100  68 101  84 101  87 100
M  END
> <chiral flag>
0

> <version>
0

> <s_m_source_file>
/data/baiqing/PycharmProjects/Reinvent-master-3.2/result/LINK_invent/BTK/process_docking_weight1_custom_sum_contain_oxygen_bond_distance_aromatic_linkinvent_7_9_3/rearranged_h_0168.sdf

> <i_m_source_file_index>
3

> <r_mmod_Potential_Energy-OPLS-2005>
154.370346069336

> <r_mmod_Stretch_Energy-OPLS-2005>
48.4157295227051

> <r_mmod_Bend_Energy-OPLS-2005>
111.791030883789

> <r_mmod_Torsional_Energy-OPLS-2005>
380.792144775391

> <r_mmod_Improper_Torsional_Energy-OPLS-2005>
15.9868135452271

> <r_mmod_Van_der_Waal_Energy-OPLS-2005>
167.203033447266

> <r_mmod_Electrostatic_Energy-OPLS-2005>
-352.372222900391

> <r_mmod_Solvation_Energy-OPLS-2005>
-238.694366455078

> <b_mmod_Minimization_Converged-OPLS-2005>
0

> <r_mmod_RMS_Derivative-OPLS-2005>
10.5739488601685

$$$$
3
                    3D
 Structure written by MMmdl.
174183  0  0  1  0            999 V2000
  -30.1381  -14.6871   19.1614 C   0  0  0  0  0  0
  -31.2670  -12.6639   19.3580 C   0  0  0  0  0  0
  -30.2542  -11.8147   18.6036 C   0  0  0  0  0  0
  -29.3410  -11.7092   19.8815 C   0  0  0  0  0  0
  -28.6958  -13.2175   20.5992 C   0  0  2  0  0  0
  -29.8640  -13.6577   21.2933 C   0  0  0  0  0  0
  -24.7758  -14.1919   20.3408 C   0  0  0  0  0  0
  -23.7488  -13.2841   20.5563 C   0  0  0  0  0  0
  -24.2579  -11.9868   20.7062 C   0  0  0  0  0  0
  -23.7216  -10.5968   20.9667 C   0  0  0  0  0  0
  -24.2192   -9.6169   21.8793 C   0  0  0  0  0  0
  -23.5879   -8.3535   22.0545 C   0  0  0  0  0  0
  -22.4040   -8.0598   21.3328 C   0  0  0  0  0  0
  -21.9295   -9.0113   20.4154 C   0  0  0  0  0  0
  -22.5868  -10.2385   20.2210 C   0  0  0  0  0  0
  -21.7015   -6.0781   22.5219 C   0  0  0  0  0  0
  -21.4168   -6.5710   23.8139 C   0  0  0  0  0  0
  -21.3751   -5.6879   24.9122 C   0  0  0  0  0  0
  -21.6066   -4.3115   24.7232 C   0  0  0  0  0  0
  -21.8796   -3.8185   23.4388 C   0  0  0  0  0  0
  -21.9258   -4.6995   22.3425 C   0  0  0  0  0  0
  -22.4112  -13.6732   21.0042 C   0  0  0  0  0  0
  -22.1618   -4.2116   21.1002 F   0  0  0  0  0  0
  -21.5617   -3.4626   25.7745 F   0  0  0  0  0  0
  -30.6170  -13.8074   20.0586 N   0  0  0  0  0  0
  -25.8783  -13.5880   20.8266 N   0  0  0  0  0  0
  -25.0255  -12.6003   21.4907 N   0  0  0  0  0  0
  -21.8478  -12.9453   21.9671 N   0  0  0  0  0  0
  -24.8131  -15.5128   19.9765 N   0  0  0  0  0  0
  -31.0548  -15.5053   19.0595 O   0  0  0  0  0  0
  -21.6880   -6.8835   21.4095 O   0  0  0  0  0  0
  -21.9372  -14.7162   20.6032 O   0  0  0  0  0  0
  -24.6779  -31.8080   23.1585 C   0  0  0  0  0  0
  -25.9402  -32.4488   23.8067 C   0  0  1  0  0  0
  -27.0041  -26.6237   20.3480 C   0  0  0  0  0  0
  -25.6009  -33.8323   24.1953 N   0  0  0  0  0  0
  -23.4894  -30.4255   21.5146 C   0  0  2  0  0  0
  -24.9162  -28.7742   20.1053 C   0  0  0  0  0  0
  -22.7686  -29.4425   22.4748 C   0  0  0  0  0  0
  -18.0356  -28.1393   22.8491 C   0  0  0  0  0  0
  -24.1530  -36.7194   23.2639 C   0  0  0  0  0  0
  -26.0682  -30.5216   21.4330 C   0  0  0  0  0  0
  -26.0945  -29.0839   20.7905 C   0  0  0  0  0  0
  -27.1422  -28.0339   20.8731 C   0  0  0  0  0  0
  -25.8622  -26.5530   19.5251 C   0  0  0  0  0  0
  -24.8513  -27.5477   19.4264 C   0  0  0  0  0  0
  -23.7311  -29.7424   20.1369 C   0  0  0  0  0  0
  -25.4174  -36.2916   24.0260 C   0  0  1  0  0  0
  -20.5980  -28.3774   23.1192 C   0  0  2  0  0  0
  -20.6818  -26.9448   22.5423 C   0  0  0  0  0  0
  -19.5790  -26.6371   21.5246 C   0  0  0  0  0  0
  -18.1977  -26.7941   22.1659 C   0  0  0  0  0  0
  -19.1601  -28.8920   23.2830 C   0  0  0  0  0  0
  -18.9496  -30.1527   23.8845 C   0  0  0  0  0  0
  -17.6473  -30.6583   24.0575 C   0  0  0  0  0  0
  -25.9150  -34.9310   23.4950 C   0  0  0  0  0  0
  -16.5386  -29.9043   23.6348 C   0  0  0  0  0  0
  -16.7339  -28.6469   23.0365 C   0  0  0  0  0  0
  -26.4581  -31.6473   25.0635 C   0  0  0  0  0  0
  -25.3584  -31.3783   26.1170 C   0  0  0  0  0  0
  -27.0477  -30.2797   24.6526 C   0  0  0  0  0  0
  -27.6075  -32.4302   25.7381 C   0  0  0  0  0  0
  -27.5591  -37.1755   24.8440 C   0  0  0  0  0  0
  -21.4368  -29.3040   22.3494 N   0  0  0  0  0  0
  -26.4311  -37.3662   23.9365 N   0  0  0  0  0  0
  -24.7706  -30.9488   22.0891 N   0  0  0  0  0  0
  -23.4184  -28.8039   23.3058 O   0  0  0  0  0  0
  -27.7744  -25.3090   20.5927 O   0  0  0  0  0  0
  -26.5797  -34.8900   22.4578 O   0  0  0  0  0  0
  -23.5834  -32.1257   23.6515 O   0  0  0  0  0  0
  -27.4437  -13.5820   22.4678 C   0  0  0  0  0  0
  -27.4443  -15.1335   19.8890 C   0  0  0  0  0  0
  -27.4970  -15.2088   21.5390 C   0  0  0  0  0  0
  -27.2271  -11.8926   21.5300 C   0  0  0  0  0  0
  -27.3147  -13.7870   18.8980 C   0  0  0  0  0  0
  -28.1253  -17.8506   22.9240 C   0  0  0  0  0  0
  -27.4490  -18.6447   20.9490 C   0  0  0  0  0  0
  -27.2601  -17.0513   21.8967 C   0  0  1  0  0  0
  -27.7995  -19.4772   23.0439 C   0  0  0  0  0  0
  -27.4586  -10.5766   22.2466 C   0  0  0  0  0  0
  -25.8090  -17.0665   22.4348 C   0  0  0  0  0  0
  -29.1489  -20.0485   23.5606 C   0  0  0  0  0  0
  -26.7231  -19.6699   24.1541 C   0  0  0  0  0  0
  -27.0447  -22.5786   22.7880 C   0  0  0  0  0  0
  -27.3685  -23.5732   20.5129 C   0  0  0  0  0  0
  -27.6911  -21.9354   21.5263 C   0  0  2  0  0  0
  -26.9771  -12.0945   19.6323 N   0  0  0  0  0  0
  -28.7972  -14.4610   18.4289 N   0  0  0  0  0  0
  -27.3348  -20.1511   21.7120 N   0  3  1  0  0  0
  -32.0254  -13.0188   18.6569 H   0  0  0  0  0  0
  -31.8386  -12.0761   20.0786 H   0  0  0  0  0  0
  -30.6799  -10.8478   18.3259 H   0  0  0  0  0  0
  -29.8035  -12.2539   17.7169 H   0  0  0  0  0  0
  -29.9275  -11.2312   20.6786 H   0  0  0  0  0  0
  -28.7662  -10.7887   19.7148 H   0  0  0  0  0  0
  -28.9280  -12.7550   19.7256 H   0  0  0  0  0  0
  -30.3034  -12.9148   21.9516 H   0  0  0  0  0  0
  -29.8324  -14.6088   21.8299 H   0  0  0  0  0  0
  -25.0567   -9.8466   22.4949 H   0  0  0  0  0  0
  -23.9863   -7.6301   22.7565 H   0  0  0  0  0  0
  -21.0458   -8.7952   19.8321 H   0  0  0  0  0  0
  -22.1857  -10.9296   19.4971 H   0  0  0  0  0  0
  -21.2152   -7.6240   23.9661 H   0  0  0  0  0  0
  -21.1551   -6.0606   25.9017 H   0  0  0  0  0  0
  -22.0493   -2.7612   23.2893 H   0  0  0  0  0  0
  -22.3441  -12.1680   22.3708 H   0  0  0  0  0  0
  -20.9408  -13.2029   22.3293 H   0  0  0  0  0  0
  -24.0424  -16.0334   19.5798 H   0  0  0  0  0  0
  -25.7178  -15.9669   19.9238 H   0  0  0  0  0  0
  -26.7396  -32.4913   23.0701 H   0  0  0  0  0  0
  -24.9941  -33.9349   24.9949 H   0  0  0  0  0  0
  -22.8158  -31.2688   21.3441 H   0  0  0  0  0  0
  -23.3794  -35.9511   23.3221 H   0  0  0  0  0  0
  -24.3629  -36.8939   22.2068 H   0  0  0  0  0  0
  -23.7291  -37.6365   23.6770 H   0  0  0  0  0  0
  -26.2891  -31.2382   20.6396 H   0  0  0  0  0  0
  -26.9193  -30.5718   22.0944 H   0  0  0  0  0  0
  -28.0181  -28.2520   21.4655 H   0  0  0  0  0  0
  -25.6662  -25.6175   19.0188 H   0  0  0  0  0  0
  -23.9703  -27.3206   18.8402 H   0  0  0  0  0  0
  -23.9049  -30.5140   19.3886 H   0  0  0  0  0  0
  -22.8266  -29.2232   19.8133 H   0  0  0  0  0  0
  -25.1391  -36.1686   25.0746 H   0  0  0  0  0  0
  -21.0124  -28.3373   24.1313 H   0  0  0  0  0  0
  -20.5719  -26.2399   23.3666 H   0  0  0  0  0  0
  -21.6658  -26.7385   22.1226 H   0  0  0  0  0  0
  -19.6914  -25.6260   21.1314 H   0  0  0  0  0  0
  -19.6699  -27.3158   20.6745 H   0  0  0  0  0  0
  -17.4257  -26.6774   21.4054 H   0  0  0  0  0  0
  -18.0315  -26.0078   22.9034 H   0  0  0  0  0  0
  -19.7954  -30.7400   24.2155 H   0  0  0  0  0  0
  -17.4985  -31.6256   24.5188 H   0  0  0  0  0  0
  -15.5365  -30.2892   23.7679 H   0  0  0  0  0  0
  -15.8768  -28.0752   22.7053 H   0  0  0  0  0  0
  -24.5870  -30.7048   25.7404 H   0  0  0  0  0  0
  -24.8628  -32.2981   26.4286 H   0  0  0  0  0  0
  -25.7680  -30.9115   27.0122 H   0  0  0  0  0  0
  -26.3175  -29.6441   24.1496 H   0  0  0  0  0  0
  -27.3864  -29.7199   25.5253 H   0  0  0  0  0  0
  -27.9196  -30.3911   24.0068 H   0  0  0  0  0  0
  -27.2707  -33.3742   26.1670 H   0  0  0  0  0  0
  -28.3978  -32.6624   25.0224 H   0  0  0  0  0  0
  -28.0617  -31.8575   26.5471 H   0  0  0  0  0  0
  -28.2545  -38.0121   24.7530 H   0  0  0  0  0  0
  -28.1169  -36.2641   24.6215 H   0  0  0  0  0  0
  -27.2304  -37.1299   25.8847 H   0  0  0  0  0  0
  -20.9604  -29.8672   21.6560 H   0  0  0  0  0  0
  -26.0145  -38.2720   24.1356 H   0  0  0  0  0  0
  -27.4532  -13.5877   23.5465 H   0  0  0  0  0  0
  -27.5109  -16.0960   19.3908 H   0  0  0  0  0  0
  -29.1611  -17.7349   22.5951 H   0  0  0  0  0  0
  -28.1027  -17.3656   23.9009 H   0  0  0  0  0  0
  -26.7678  -18.6488   20.0986 H   0  0  0  0  0  0
  -28.4408  -18.6354   20.4962 H   0  0  0  0  0  0
  -27.2909   -9.7043   21.6142 H   0  0  0  0  0  0
  -26.8467  -10.5281   23.1484 H   0  0  0  0  0  0
  -28.4902  -10.5651   22.6027 H   0  0  0  0  0  0
  -25.3635  -16.0780   22.4193 H   0  0  0  0  0  0
  -25.1609  -17.7187   21.8561 H   0  0  0  0  0  0
  -25.7275  -17.3620   23.4760 H   0  0  0  0  0  0
  -29.4671  -19.5103   24.4598 H   0  0  0  0  0  0
  -29.1314  -21.0947   23.8520 H   0  0  0  0  0  0
  -29.9420  -19.9376   22.8182 H   0  0  0  0  0  0
  -26.8209  -18.9098   24.9335 H   0  0  0  0  0  0
  -25.6992  -19.6071   23.7796 H   0  0  0  0  0  0
  -26.7979  -20.6130   24.6952 H   0  0  0  0  0  0
  -27.1279  -23.6668   22.8114 H   0  0  0  0  0  0
  -27.4859  -22.2955   23.7298 H   0  0  0  0  0  0
  -25.9720  -22.3720   22.8350 H   0  0  0  0  0  0
  -27.7545  -23.3267   19.5224 H   0  0  0  0  0  0
  -26.2882  -23.5964   20.3513 H   0  0  0  0  0  0
  -28.7758  -21.9640   21.6336 H   0  0  0  0  0  0
  -28.7009  -15.1091   17.6644 H   0  0  0  0  0  0
  -26.3285  -20.1975   21.7705 H   0  0  0  0  0  0
  1 25  1  0  0  0
  1 30  2  0  0  0
  1 88  1  0  0  0
  2  3  1  0  0  0
  2 25  1  0  0  0
  2 90  1  0  0  0
  2 91  1  0  0  0
  3  4  1  0  0  0
  3 92  1  0  0  0
  3 93  1  0  0  0
  4  5  1  0  0  0
  4 94  1  0  0  0
  4 95  1  0  0  0
  5  6  1  0  0  0
  5 26  1  0  0  0
  5 96  1  0  0  0
  6 25  1  0  0  0
  6 97  1  0  0  0
  6 98  1  0  0  0
  7  8  2  0  0  0
  7 26  1  0  0  0
  7 29  1  0  0  0
  8  9  1  0  0  0
  8 22  1  0  0  0
  9 10  1  0  0  0
  9 27  2  0  0  0
 10 11  2  0  0  0
 10 15  1  0  0  0
 11 12  1  0  0  0
 11 99  1  0  0  0
 12 13  2  0  0  0
 12100  1  0  0  0
 13 14  1  0  0  0
 13 31  1  0  0  0
 14 15  2  0  0  0
 14101  1  0  0  0
 15102  1  0  0  0
 16 17  2  0  0  0
 16 21  1  0  0  0
 16 31  1  0  0  0
 17 18  1  0  0  0
 17103  1  0  0  0
 18 19  2  0  0  0
 18104  1  0  0  0
 19 20  1  0  0  0
 19 24  1  0  0  0
 20 21  2  0  0  0
 20105  1  0  0  0
 21 23  1  0  0  0
 22 28  1  0  0  0
 22 32  2  0  0  0
 26 27  1  0  0  0
 28106  1  0  0  0
 28107  1  0  0  0
 29108  1  0  0  0
 29109  1  0  0  0
 33 34  1  0  0  0
 33 66  1  0  0  0
 33 70  2  0  0  0
 34 36  1  0  0  0
 34 59  1  0  0  0
 34110  1  0  0  0
 35 44  2  0  0  0
 35 45  1  0  0  0
 35 68  1  0  0  0
 36 56  1  0  0  0
 36111  1  0  0  0
 37 39  1  0  0  0
 37 47  1  0  0  0
 37 66  1  0  0  0
 37112  1  0  0  0
 38 43  2  0  0  0
 38 46  1  0  0  0
 38 47  1  0  0  0
 39 64  1  0  0  0
 39 67  2  0  0  0
 40 52  1  0  0  0
 40 53  2  0  0  0
 40 58  1  0  0  0
 41113  1  0  0  0
 41114  1  0  0  0
 41115  1  0  0  0
 41 48  1  0  0  0
 42 43  1  0  0  0
 42 66  1  0  0  0
 42116  1  0  0  0
 42117  1  0  0  0
 43 44  1  0  0  0
 44118  1  0  0  0
 45 46  2  0  0  0
 45119  1  0  0  0
 46120  1  0  0  0
 47121  1  0  0  0
 47122  1  0  0  0
 48 56  1  0  0  0
 48 65  1  0  0  0
 48123  1  0  0  0
 49 50  1  0  0  0
 49 53  1  0  0  0
 49 64  1  0  0  0
 49124  1  0  0  0
 50 51  1  0  0  0
 50125  1  0  0  0
 50126  1  0  0  0
 51 52  1  0  0  0
 51127  1  0  0  0
 51128  1  0  0  0
 52129  1  0  0  0
 52130  1  0  0  0
 53 54  1  0  0  0
 54 55  2  0  0  0
 54131  1  0  0  0
 55 57  1  0  0  0
 55132  1  0  0  0
 56 69  2  0  0  0
 57 58  2  0  0  0
 57133  1  0  0  0
 58134  1  0  0  0
 59 60  1  0  0  0
 59 61  1  0  0  0
 59 62  1  0  0  0
 60135  1  0  0  0
 60136  1  0  0  0
 60137  1  0  0  0
 61138  1  0  0  0
 61139  1  0  0  0
 61140  1  0  0  0
 62141  1  0  0  0
 62142  1  0  0  0
 62143  1  0  0  0
 63 65  1  0  0  0
 63144  1  0  0  0
 63145  1  0  0  0
 63146  1  0  0  0
 64147  1  0  0  0
 65148  1  0  0  0
 68 85  1  0  0  0
 71 73  2  0  0  0
 71 74  1  0  0  0
 71149  1  0  0  0
 72 73  1  0  0  0
 72 75  2  0  0  0
 72150  1  0  0  0
 73 78  1  0  0  0
 74 80  1  0  0  0
 74 87  2  0  0  0
 75 87  1  0  0  0
 75 88  1  0  0  0
 76 78  1  0  0  0
 76 79  1  0  0  0
 76151  1  0  0  0
 76152  1  0  0  0
 77 78  1  0  0  0
 77153  1  0  0  0
 77154  1  0  0  0
 77 89  1  0  0  0
 78 81  1  0  0  0
 79 82  1  0  0  0
 79 83  1  0  0  0
 79 89  1  0  0  0
 80155  1  0  0  0
 80156  1  0  0  0
 80157  1  0  0  0
 81158  1  0  0  0
 81159  1  0  0  0
 81160  1  0  0  0
 82161  1  0  0  0
 82162  1  0  0  0
 82163  1  0  0  0
 83164  1  0  0  0
 83165  1  0  0  0
 83166  1  0  0  0
 84167  1  0  0  0
 84168  1  0  0  0
 84169  1  0  0  0
 84 86  1  0  0  0
 85 86  1  0  0  0
 85170  1  0  0  0
 85171  1  0  0  0
 86 89  1  0  0  0
 86172  1  0  0  0
 88173  1  0  0  0
 89174  1  0  0  0
M  CHG  1  89   1
M  ISO  4   1 100  68 101  85 101  88 100
M  END
> <chiral flag>
0

> <version>
0

> <s_m_source_file>
/data/baiqing/PycharmProjects/Reinvent-master-3.2/result/LINK_invent/BTK/process_docking_weight1_custom_sum_contain_oxygen_bond_distance_aromatic_linkinvent_7_9_3/rearranged_h_0168.sdf

> <i_m_source_file_index>
4

> <r_mmod_Potential_Energy-OPLS-2005>
14077.82421875

> <r_mmod_Stretch_Energy-OPLS-2005>
6741.892578125

> <r_mmod_Bend_Energy-OPLS-2005>
1745.26403808594

> <r_mmod_Torsional_Energy-OPLS-2005>
676.369079589844

> <r_mmod_Improper_Torsional_Energy-OPLS-2005>
57.9651985168457

> <r_mmod_Van_der_Waal_Energy-OPLS-2005>
3042.78564453125

> <r_mmod_Electrostatic_Energy-OPLS-2005>
-377.603057861328

> <r_mmod_Solvation_Energy-OPLS-2005>
-432.713745117188

> <b_mmod_Minimization_Converged-OPLS-2005>
0

> <r_mmod_RMS_Derivative-OPLS-2005>
15.345516204834

$$$$
4
                    3D
 Structure written by MMmdl.
170180  0  0  1  0            999 V2000
  -30.7030  -14.5915   20.4843 C   0  0  0  0  0  0
  -30.4144  -12.3633   19.4512 C   0  0  0  0  0  0
  -29.4966  -12.4897   18.2192 C   0  0  0  0  0  0
  -28.0207  -12.3424   18.6352 C   0  0  0  0  0  0
  -27.6465  -13.2251   19.8572 C   0  0  2  0  0  0
  -28.6950  -13.1239   20.9869 C   0  0  0  0  0  0
  -25.2541  -13.8193   20.5713 C   0  0  0  0  0  0
  -24.1810  -13.0447   20.9196 C   0  0  0  0  0  0
  -24.6390  -11.6921   20.8745 C   0  0  0  0  0  0
  -23.9064  -10.4297   21.0403 C   0  0  0  0  0  0
  -24.3614   -9.4211   21.9181 C   0  0  0  0  0  0
  -23.6294   -8.2244   22.0751 C   0  0  0  0  0  0
  -22.4277   -8.0280   21.3542 C   0  0  0  0  0  0
  -21.9911   -9.0254   20.4646 C   0  0  0  0  0  0
  -22.7236  -10.2135   20.3055 C   0  0  0  0  0  0
  -21.6855   -6.0735   22.5277 C   0  0  0  0  0  0
  -21.4014   -6.5638   23.8211 C   0  0  0  0  0  0
  -21.3659   -5.6791   24.9174 C   0  0  0  0  0  0
  -21.6045   -4.3054   24.7223 C   0  0  0  0  0  0
  -21.8819   -3.8146   23.4344 C   0  0  0  0  0  0
  -21.9193   -4.6963   22.3400 C   0  0  0  0  0  0
  -22.7831  -13.5233   21.1853 C   0  0  0  0  0  0
  -22.1664   -4.2150   21.0977 F   0  0  0  0  0  0
  -21.5629   -3.4537   25.7734 F   0  0  0  0  0  0
  -30.0086  -13.4161   20.4015 N   0  0  0  0  0  0
  -26.2968  -12.9390   20.3340 N   0  0  0  0  0  0
  -25.9324  -11.6535   20.5775 N   0  0  0  0  0  0
  -22.0477  -12.8225   22.0412 N   0  0  0  0  0  0
  -25.4274  -15.1913   20.4156 N   0  0  0  0  0  0
  -31.8954  -14.6466   20.1682 O   0  0  0  0  0  0
  -21.6643   -6.8876   21.4237 O   0  0  0  0  0  0
  -22.3516  -14.5536   20.6698 O   0  0  0  0  0  0
  -24.6250  -31.8634   23.2081 C   0  0  0  0  0  0
  -25.9110  -32.4797   23.8390 C   0  0  1  0  0  0
  -27.2121  -27.3403   20.0987 C   0  0  0  0  0  0
  -25.5939  -33.8596   24.2308 N   0  0  0  0  0  0
  -23.4158  -30.4922   21.5517 C   0  0  2  0  0  0
  -24.8578  -28.9606   20.1096 C   0  0  0  0  0  0
  -22.7470  -29.4647   22.4958 C   0  0  0  0  0  0
  -18.0285  -28.1383   22.8491 C   0  0  0  0  0  0
  -24.1490  -36.7298   23.2636 C   0  0  0  0  0  0
  -25.9588  -30.7993   21.3789 C   0  0  0  0  0  0
  -26.0297  -29.4319   20.7150 C   0  0  0  0  0  0
  -27.2104  -28.6322   20.7049 C   0  0  0  0  0  0
  -26.0137  -26.9299   19.4613 C   0  0  0  0  0  0
  -24.8507  -27.7131   19.4764 C   0  0  0  0  0  0
  -23.6271  -29.8379   20.1637 C   0  0  0  0  0  0
  -25.4112  -36.3092   24.0332 C   0  0  1  0  0  0
  -20.5886  -28.3683   23.1292 C   0  0  2  0  0  0
  -20.6776  -26.9409   22.5410 C   0  0  0  0  0  0
  -19.5750  -26.6384   21.5216 C   0  0  0  0  0  0
  -18.1929  -26.7928   22.1624 C   0  0  0  0  0  0
  -19.1537  -28.8849   23.2885 C   0  0  0  0  0  0
  -18.9457  -30.1457   23.8894 C   0  0  0  0  0  0
  -17.6456  -30.6587   24.0559 C   0  0  0  0  0  0
  -25.9049  -34.9462   23.5115 C   0  0  0  0  0  0
  -16.5348  -29.9083   23.6333 C   0  0  0  0  0  0
  -16.7272  -28.6501   23.0353 C   0  0  0  0  0  0
  -26.4497  -31.6598   25.0751 C   0  0  0  0  0  0
  -25.3738  -31.3742   26.1489 C   0  0  0  0  0  0
  -27.0324  -30.3014   24.6198 C   0  0  0  0  0  0
  -27.6061  -32.4330   25.7514 C   0  0  0  0  0  0
  -27.5582  -37.1802   24.8461 C   0  0  0  0  0  0
  -21.4185  -29.3043   22.3695 N   0  0  0  0  0  0
  -26.4290  -37.3785   23.9412 N   0  0  0  0  0  0
  -24.6856  -31.0670   22.1028 N   0  0  0  0  0  0
  -23.4207  -28.8173   23.3013 O   0  0  0  0  0  0
  -28.3182  -26.4772   20.1565 O   0  0  0  0  0  0
  -26.5603  -34.8920   22.4672 O   0  0  0  0  0  0
  -23.5418  -32.1425   23.7420 O   0  0  0  0  0  0
  -30.8229  -21.7088   20.5307 C   0  0  0  0  0  0
  -28.5745  -22.5797   20.3587 C   0  0  0  0  0  0
  -31.3278  -23.0215   20.3649 C   0  0  0  0  0  0
  -29.0538  -23.9199   20.1947 C   0  0  0  0  0  0
  -29.4356  -21.4519   20.5164 C   0  0  0  0  0  0
  -30.4514  -24.1314   20.1908 C   0  0  0  0  0  0
  -28.9240  -17.8490   19.5749 C   0  0  0  0  0  0
  -29.8124  -18.0819   21.8318 C   0  0  0  0  0  0
  -33.1946  -24.5701   19.6998 C   0  0  0  0  0  0
  -29.6977  -16.5035   19.4118 C   0  0  0  0  0  0
  -30.5608  -16.7160   21.6708 C   0  0  0  0  0  0
  -32.2869  -25.6718   20.2521 C   0  0  0  0  0  0
  -32.8371  -23.2181   20.3298 C   0  0  1  0  0  0
  -29.6407  -18.8531   20.5035 C   0  0  0  0  0  0
  -33.4549  -23.0484   21.7287 C   0  0  0  0  0  0
  -28.0300  -25.0542   19.8957 C   0  0  0  0  0  0
  -30.0077  -15.7662   20.6662 N   0  0  0  0  0  0
  -28.8959  -20.1363   20.6447 N   0  0  0  0  0  0
  -30.9199  -25.4068   19.9565 O   0  0  0  0  0  0
  -31.4607  -12.4443   19.1511 H   0  0  0  0  0  0
  -30.3119  -11.3792   19.9114 H   0  0  0  0  0  0
  -29.7529  -11.7318   17.4779 H   0  0  0  0  0  0
  -29.6512  -13.4556   17.7357 H   0  0  0  0  0  0
  -27.8526  -11.2915   18.8737 H   0  0  0  0  0  0
  -27.3660  -12.5692   17.7928 H   0  0  0  0  0  0
  -27.6493  -14.2539   19.5008 H   0  0  0  0  0  0
  -28.6940  -12.1276   21.4314 H   0  0  0  0  0  0
  -28.4606  -13.8224   21.7918 H   0  0  0  0  0  0
  -25.2758   -9.5690   22.4756 H   0  0  0  0  0  0
  -24.0007   -7.4634   22.7467 H   0  0  0  0  0  0
  -21.0841   -8.8768   19.8954 H   0  0  0  0  0  0
  -22.3689  -10.9671   19.6164 H   0  0  0  0  0  0
  -21.2004   -7.6147   23.9714 H   0  0  0  0  0  0
  -21.1484   -6.0521   25.9077 H   0  0  0  0  0  0
  -22.0598   -2.7610   23.2840 H   0  0  0  0  0  0
  -22.4091  -11.9887   22.4802 H   0  0  0  0  0  0
  -21.1093  -13.1249   22.2615 H   0  0  0  0  0  0
  -24.6693  -15.8538   20.5374 H   0  0  0  0  0  0
  -26.2969  -15.6288   20.1377 H   0  0  0  0  0  0
  -26.7178  -32.5468   23.1140 H   0  0  0  0  0  0
  -25.0114  -33.9748   25.0471 H   0  0  0  0  0  0
  -22.7082  -31.3130   21.4159 H   0  0  0  0  0  0
  -23.3753  -35.9630   23.3299 H   0  0  0  0  0  0
  -24.3584  -36.8914   22.2051 H   0  0  0  0  0  0
  -23.7242  -37.6501   23.6654 H   0  0  0  0  0  0
  -26.0924  -31.5673   20.6157 H   0  0  0  0  0  0
  -26.8391  -30.8403   22.0090 H   0  0  0  0  0  0
  -28.1068  -28.9865   21.1944 H   0  0  0  0  0  0
  -25.9248  -25.9853   18.9478 H   0  0  0  0  0  0
  -23.9537  -27.3477   18.9952 H   0  0  0  0  0  0
  -23.7451  -30.6195   19.4122 H   0  0  0  0  0  0
  -22.7465  -29.2691   19.8594 H   0  0  0  0  0  0
  -25.1291  -36.1947   25.0824 H   0  0  0  0  0  0
  -20.9972  -28.3246   24.1415 H   0  0  0  0  0  0
  -20.5692  -26.2287   23.3603 H   0  0  0  0  0  0
  -21.6642  -26.7450   22.1192 H   0  0  0  0  0  0
  -19.6909  -25.6296   21.1245 H   0  0  0  0  0  0
  -19.6691  -27.3195   20.6747 H   0  0  0  0  0  0
  -17.4203  -26.6684   21.4021 H   0  0  0  0  0  0
  -18.0318  -26.0068   22.9018 H   0  0  0  0  0  0
  -19.7931  -30.7277   24.2255 H   0  0  0  0  0  0
  -17.5010  -31.6267   24.5161 H   0  0  0  0  0  0
  -15.5348  -30.2979   23.7666 H   0  0  0  0  0  0
  -15.8671  -28.0825   22.7063 H   0  0  0  0  0  0
  -24.5897  -30.7105   25.7831 H   0  0  0  0  0  0
  -24.8954  -32.2915   26.4932 H   0  0  0  0  0  0
  -25.8072  -30.8910   27.0255 H   0  0  0  0  0  0
  -26.2889  -29.6780   24.1214 H   0  0  0  0  0  0
  -27.4003  -29.7258   25.4702 H   0  0  0  0  0  0
  -27.8780  -30.4291   23.9434 H   0  0  0  0  0  0
  -27.2670  -33.3626   26.2099 H   0  0  0  0  0  0
  -28.3869  -32.6893   25.0341 H   0  0  0  0  0  0
  -28.0735  -31.8453   26.5426 H   0  0  0  0  0  0
  -28.2593  -38.0104   24.7513 H   0  0  0  0  0  0
  -28.1082  -36.2635   24.6276 H   0  0  0  0  0  0
  -27.2304  -37.1441   25.8864 H   0  0  0  0  0  0
  -20.9357  -29.8780   21.6924 H   0  0  0  0  0  0
  -26.0173  -38.2862   24.1412 H   0  0  0  0  0  0
  -31.5275  -20.9008   20.6604 H   0  0  0  0  0  0
  -27.5067  -22.4161   20.3307 H   0  0  0  0  0  0
  -27.9211  -17.6399   19.9507 H   0  0  0  0  0  0
  -28.7884  -18.2976   18.5896 H   0  0  0  0  0  0
  -30.3554  -18.7027   22.5458 H   0  0  0  0  0  0
  -28.8343  -17.8972   22.2792 H   0  0  0  0  0  0
  -34.2467  -24.8105   19.8576 H   0  0  0  0  0  0
  -33.0528  -24.5152   18.6195 H   0  0  0  0  0  0
  -30.6336  -16.7097   18.8877 H   0  0  0  0  0  0
  -29.1293  -15.8544   18.7443 H   0  0  0  0  0  0
  -30.5897  -16.2157   22.6403 H   0  0  0  0  0  0
  -31.6007  -16.9317   21.4164 H   0  0  0  0  0  0
  -32.5556  -26.6313   19.8092 H   0  0  0  0  0  0
  -32.4121  -25.7806   21.3298 H   0  0  0  0  0  0
  -33.2576  -22.4399   19.6906 H   0  0  0  0  0  0
  -30.6248  -19.0507   20.0782 H   0  0  0  0  0  0
  -33.0511  -23.7705   22.4386 H   0  0  0  0  0  0
  -34.5366  -23.1804   21.6991 H   0  0  0  0  0  0
  -33.2617  -22.0527   22.1288 H   0  0  0  0  0  0
  -27.1306  -24.7770   20.4488 H   0  0  0  0  0  0
  -27.8056  -24.9466   18.8337 H   0  0  0  0  0  0
  -27.8822  -20.0596   20.6370 H   0  0  0  0  0  0
  1 25  1  0  0  0
  1 30  2  0  0  0
  1 87  1  0  0  0
  2  3  1  0  0  0
  2 25  1  0  0  0
  2 90  1  0  0  0
  2 91  1  0  0  0
  3  4  1  0  0  0
  3 92  1  0  0  0
  3 93  1  0  0  0
  4  5  1  0  0  0
  4 94  1  0  0  0
  4 95  1  0  0  0
  5  6  1  0  0  0
  5 26  1  0  0  0
  5 96  1  0  0  0
  6 25  1  0  0  0
  6 97  1  0  0  0
  6 98  1  0  0  0
  7  8  2  0  0  0
  7 26  1  0  0  0
  7 29  1  0  0  0
  8  9  1  0  0  0
  8 22  1  0  0  0
  9 10  1  0  0  0
  9 27  2  0  0  0
 10 11  2  0  0  0
 10 15  1  0  0  0
 11 12  1  0  0  0
 11 99  1  0  0  0
 12 13  2  0  0  0
 12100  1  0  0  0
 13 14  1  0  0  0
 13 31  1  0  0  0
 14 15  2  0  0  0
 14101  1  0  0  0
 15102  1  0  0  0
 16 17  2  0  0  0
 16 21  1  0  0  0
 16 31  1  0  0  0
 17 18  1  0  0  0
 17103  1  0  0  0
 18 19  2  0  0  0
 18104  1  0  0  0
 19 20  1  0  0  0
 19 24  1  0  0  0
 20 21  2  0  0  0
 20105  1  0  0  0
 21 23  1  0  0  0
 22 28  1  0  0  0
 22 32  2  0  0  0
 26 27  1  0  0  0
 28106  1  0  0  0
 28107  1  0  0  0
 29108  1  0  0  0
 29109  1  0  0  0
 33 34  1  0  0  0
 33 66  1  0  0  0
 33 70  2  0  0  0
 34 36  1  0  0  0
 34 59  1  0  0  0
 34110  1  0  0  0
 35 44  2  0  0  0
 35 45  1  0  0  0
 35 68  1  0  0  0
 36 56  1  0  0  0
 36111  1  0  0  0
 37 39  1  0  0  0
 37 47  1  0  0  0
 37 66  1  0  0  0
 37112  1  0  0  0
 38 43  2  0  0  0
 38 46  1  0  0  0
 38 47  1  0  0  0
 39 64  1  0  0  0
 39 67  2  0  0  0
 40 52  1  0  0  0
 40 53  2  0  0  0
 40 58  1  0  0  0
 41113  1  0  0  0
 41114  1  0  0  0
 41115  1  0  0  0
 41 48  1  0  0  0
 42 43  1  0  0  0
 42 66  1  0  0  0
 42116  1  0  0  0
 42117  1  0  0  0
 43 44  1  0  0  0
 44118  1  0  0  0
 45 46  2  0  0  0
 45119  1  0  0  0
 46120  1  0  0  0
 47121  1  0  0  0
 47122  1  0  0  0
 48 56  1  0  0  0
 48 65  1  0  0  0
 48123  1  0  0  0
 49 50  1  0  0  0
 49 53  1  0  0  0
 49 64  1  0  0  0
 49124  1  0  0  0
 50 51  1  0  0  0
 50125  1  0  0  0
 50126  1  0  0  0
 51 52  1  0  0  0
 51127  1  0  0  0
 51128  1  0  0  0
 52129  1  0  0  0
 52130  1  0  0  0
 53 54  1  0  0  0
 54 55  2  0  0  0
 54131  1  0  0  0
 55 57  1  0  0  0
 55132  1  0  0  0
 56 69  2  0  0  0
 57 58  2  0  0  0
 57133  1  0  0  0
 58134  1  0  0  0
 59 60  1  0  0  0
 59 61  1  0  0  0
 59 62  1  0  0  0
 60135  1  0  0  0
 60136  1  0  0  0
 60137  1  0  0  0
 61138  1  0  0  0
 61139  1  0  0  0
 61140  1  0  0  0
 62141  1  0  0  0
 62142  1  0  0  0
 62143  1  0  0  0
 63 65  1  0  0  0
 63144  1  0  0  0
 63145  1  0  0  0
 63146  1  0  0  0
 64147  1  0  0  0
 65148  1  0  0  0
 68 86  1  0  0  0
 71 73  2  0  0  0
 71 75  1  0  0  0
 71149  1  0  0  0
 72 74  1  0  0  0
 72 75  2  0  0  0
 72150  1  0  0  0
 73 76  1  0  0  0
 73 83  1  0  0  0
 74 76  2  0  0  0
 74 86  1  0  0  0
 75 88  1  0  0  0
 76 89  1  0  0  0
 77 80  1  0  0  0
 77 84  1  0  0  0
 77151  1  0  0  0
 77152  1  0  0  0
 78 81  1  0  0  0
 78 84  1  0  0  0
 78153  1  0  0  0
 78154  1  0  0  0
 79 82  1  0  0  0
 79 83  1  0  0  0
 79155  1  0  0  0
 79156  1  0  0  0
 80 87  1  0  0  0
 80157  1  0  0  0
 80158  1  0  0  0
 81 87  1  0  0  0
 81159  1  0  0  0
 81160  1  0  0  0
 82 89  1  0  0  0
 82161  1  0  0  0
 82162  1  0  0  0
 83 85  1  0  0  0
 83163  1  0  0  0
 84 88  1  0  0  0
 84164  1  0  0  0
 85165  1  0  0  0
 85166  1  0  0  0
 85167  1  0  0  0
 86168  1  0  0  0
 86169  1  0  0  0
 88170  1  0  0  0
M  ISO  4   1 100  68 101  86 101  87 100
M  END
> <chiral flag>
0

> <version>
0

> <s_m_source_file>
/data/baiqing/PycharmProjects/Reinvent-master-3.2/result/LINK_invent/BTK/process_docking_weight1_custom_sum_contain_oxygen_bond_distance_aromatic_linkinvent_7_9_3/rearranged_h_0168.sdf

> <i_m_source_file_index>
5

> <r_mmod_Potential_Energy-OPLS-2005>
234.80290222168

> <r_mmod_Stretch_Energy-OPLS-2005>
67.9707946777344

> <r_mmod_Bend_Energy-OPLS-2005>
158.664932250977

> <r_mmod_Torsional_Energy-OPLS-2005>
326.512969970703

> <r_mmod_Improper_Torsional_Energy-OPLS-2005>
11.6931715011597

> <r_mmod_Van_der_Waal_Energy-OPLS-2005>
162.942520141602

> <r_mmod_Electrostatic_Energy-OPLS-2005>
-325.055358886719

> <r_mmod_Solvation_Energy-OPLS-2005>
-213.092651367188

> <b_mmod_Minimization_Converged-OPLS-2005>
0

> <r_mmod_RMS_Derivative-OPLS-2005>
0.582084119319916

$$$$
5
                    3D
 Structure written by MMmdl.
163173  0  0  1  0            999 V2000
  -30.6728  -14.6316   20.4877 C   0  0  0  0  0  0
  -30.4121  -12.3767   19.4760 C   0  0  0  0  0  0
  -29.5039  -12.5004   18.2344 C   0  0  0  0  0  0
  -28.0232  -12.3485   18.6402 C   0  0  0  0  0  0
  -27.6420  -13.2313   19.8597 C   0  0  2  0  0  0
  -28.6877  -13.1241   20.9932 C   0  0  0  0  0  0
  -25.2461  -13.8183   20.5708 C   0  0  0  0  0  0
  -24.1756  -13.0404   20.9249 C   0  0  0  0  0  0
  -24.6377  -11.6906   20.8772 C   0  0  0  0  0  0
  -23.9053  -10.4275   21.0406 C   0  0  0  0  0  0
  -24.3586   -9.4194   21.9187 C   0  0  0  0  0  0
  -23.6263   -8.2229   22.0751 C   0  0  0  0  0  0
  -22.4257   -8.0257   21.3526 C   0  0  0  0  0  0
  -21.9887   -9.0236   20.4641 C   0  0  0  0  0  0
  -22.7218  -10.2125   20.3059 C   0  0  0  0  0  0
  -21.6843   -6.0719   22.5272 C   0  0  0  0  0  0
  -21.4000   -6.5620   23.8212 C   0  0  0  0  0  0
  -21.3651   -5.6771   24.9172 C   0  0  0  0  0  0
  -21.6046   -4.3043   24.7226 C   0  0  0  0  0  0
  -21.8825   -3.8135   23.4349 C   0  0  0  0  0  0
  -21.9186   -4.6945   22.3395 C   0  0  0  0  0  0
  -22.7786  -13.5210   21.1883 C   0  0  0  0  0  0
  -22.1661   -4.2122   21.0973 F   0  0  0  0  0  0
  -21.5628   -3.4538   25.7738 F   0  0  0  0  0  0
  -29.9990  -13.4389   20.4201 N   0  0  0  0  0  0
  -26.2918  -12.9415   20.3352 N   0  0  0  0  0  0
  -25.9306  -11.6554   20.5793 N   0  0  0  0  0  0
  -22.0424  -12.8186   22.0442 N   0  0  0  0  0  0
  -25.4068  -15.1887   20.4056 N   0  0  0  0  0  0
  -31.8465  -14.6896   20.1078 O   0  0  0  0  0  0
  -21.6613   -6.8855   21.4225 O   0  0  0  0  0  0
  -22.3467  -14.5496   20.6722 O   0  0  0  0  0  0
  -24.6363  -31.8513   23.2030 C   0  0  0  0  0  0
  -25.9188  -32.4731   23.8331 C   0  0  1  0  0  0
  -27.2271  -27.2616   20.0668 C   0  0  0  0  0  0
  -25.5997  -33.8535   24.2244 N   0  0  0  0  0  0
  -23.4332  -30.4744   21.5511 C   0  0  2  0  0  0
  -24.8741  -28.9192   20.1161 C   0  0  0  0  0  0
  -22.7493  -29.4563   22.4959 C   0  0  0  0  0  0
  -18.0286  -28.1376   22.8440 C   0  0  0  0  0  0
  -24.1492  -36.7248   23.2646 C   0  0  0  0  0  0
  -25.9821  -30.7494   21.3904 C   0  0  0  0  0  0
  -26.0523  -29.3780   20.7169 C   0  0  0  0  0  0
  -27.2290  -28.5603   20.6844 C   0  0  0  0  0  0
  -26.0087  -26.8633   19.4618 C   0  0  0  0  0  0
  -24.8560  -27.6650   19.4922 C   0  0  0  0  0  0
  -23.6490  -29.8090   20.1673 C   0  0  0  0  0  0
  -25.4121  -36.3035   24.0313 C   0  0  1  0  0  0
  -20.5890  -28.3703   23.1219 C   0  0  2  0  0  0
  -20.6789  -26.9403   22.5379 C   0  0  0  0  0  0
  -19.5756  -26.6378   21.5182 C   0  0  0  0  0  0
  -18.1917  -26.7908   22.1575 C   0  0  0  0  0  0
  -19.1534  -28.8855   23.2818 C   0  0  0  0  0  0
  -18.9463  -30.1446   23.8853 C   0  0  0  0  0  0
  -17.6482  -30.6592   24.0525 C   0  0  0  0  0  0
  -25.9087  -34.9418   23.5070 C   0  0  0  0  0  0
  -16.5365  -29.9070   23.6359 C   0  0  0  0  0  0
  -16.7277  -28.6488   23.0355 C   0  0  0  0  0  0
  -26.4571  -31.6566   25.0713 C   0  0  0  0  0  0
  -25.3804  -31.3691   26.1424 C   0  0  0  0  0  0
  -27.0439  -30.2972   24.6233 C   0  0  0  0  0  0
  -27.6077  -32.4360   25.7514 C   0  0  0  0  0  0
  -27.5579  -37.1768   24.8457 C   0  0  0  0  0  0
  -21.4213  -29.3043   22.3625 N   0  0  0  0  0  0
  -26.4277  -37.3744   23.9424 N   0  0  0  0  0  0
  -24.7035  -31.0398   22.1055 N   0  0  0  0  0  0
  -23.4176  -28.8082   23.3061 O   0  0  0  0  0  0
  -28.3632  -26.4110   20.0611 O   0  0  0  0  0  0
  -26.5605  -34.8903   22.4615 O   0  0  0  0  0  0
  -23.5512  -32.1348   23.7341 O   0  0  0  0  0  0
  -29.2922  -19.3981   20.6140 C   0  0  0  0  0  0
  -28.1222  -20.1362   20.9960 C   0  0  0  0  0  0
  -28.0666  -21.5683   20.8462 C   0  0  0  0  0  0
  -29.1432  -22.2833   20.2606 C   0  0  0  0  0  0
  -30.2844  -20.2014   19.9732 C   0  0  0  0  0  0
  -29.4904  -24.5316   18.8495 C   0  0  0  0  0  0
  -28.9465  -16.5669   20.3103 C   0  0  0  0  0  0
  -30.8092  -17.0481   21.0787 C   0  0  0  0  0  0
  -29.4934  -17.8529   20.9886 C   0  0  0  0  0  0
  -29.2940  -23.8558   20.1899 C   0  0  1  0  0  0
  -28.2846  -24.9598   19.6598 C   0  0  1  0  0  0
  -26.8982  -19.4208   21.5620 C   0  0  0  0  0  0
  -26.8675  -22.3467   21.3766 C   0  0  0  0  0  0
  -31.5532  -19.6071   19.3918 C   0  0  0  0  0  0
  -30.2080  -21.5606   19.8207 N   0  0  0  0  0  0
  -30.0481  -15.7793   20.9374 N   0  0  0  0  0  0
  -31.4635  -12.4409   19.1890 H   0  0  0  0  0  0
  -30.2986  -11.3957   19.9419 H   0  0  0  0  0  0
  -29.7702  -11.7436   17.4942 H   0  0  0  0  0  0
  -29.6608  -13.4704   17.7568 H   0  0  0  0  0  0
  -27.8586  -11.2971   18.8832 H   0  0  0  0  0  0
  -27.3739  -12.5757   17.7936 H   0  0  0  0  0  0
  -27.6463  -14.2577   19.4970 H   0  0  0  0  0  0
  -28.6965  -12.1156   21.4081 H   0  0  0  0  0  0
  -28.4513  -13.7937   21.8212 H   0  0  0  0  0  0
  -25.2713   -9.5667   22.4773 H   0  0  0  0  0  0
  -23.9951   -7.4624   22.7476 H   0  0  0  0  0  0
  -21.0812   -8.8759   19.8951 H   0  0  0  0  0  0
  -22.3656  -10.9659   19.6170 H   0  0  0  0  0  0
  -21.1994   -7.6131   23.9692 H   0  0  0  0  0  0
  -21.1466   -6.0512   25.9060 H   0  0  0  0  0  0
  -22.0615   -2.7596   23.2855 H   0  0  0  0  0  0
  -22.4007  -11.9840   22.4822 H   0  0  0  0  0  0
  -21.1062  -13.1236   22.2659 H   0  0  0  0  0  0
  -24.6309  -15.8349   20.4971 H   0  0  0  0  0  0
  -26.2375  -15.6201   20.0251 H   0  0  0  0  0  0
  -26.7210  -32.5354   23.1010 H   0  0  0  0  0  0
  -25.0158  -33.9662   25.0412 H   0  0  0  0  0  0
  -22.7367  -31.3032   21.4060 H   0  0  0  0  0  0
  -23.3764  -35.9581   23.3283 H   0  0  0  0  0  0
  -24.3565  -36.8895   22.2063 H   0  0  0  0  0  0
  -23.7224  -37.6426   23.6702 H   0  0  0  0  0  0
  -26.1209  -31.5191   20.6301 H   0  0  0  0  0  0
  -26.8597  -30.7887   22.0212 H   0  0  0  0  0  0
  -28.1432  -28.9057   21.1475 H   0  0  0  0  0  0
  -25.8848  -25.9284   18.9401 H   0  0  0  0  0  0
  -23.9461  -27.3005   19.0297 H   0  0  0  0  0  0
  -23.7800  -30.5862   19.4123 H   0  0  0  0  0  0
  -22.7672  -29.2417   19.8667 H   0  0  0  0  0  0
  -25.1299  -36.1856   25.0799 H   0  0  0  0  0  0
  -20.9965  -28.3351   24.1342 H   0  0  0  0  0  0
  -20.5719  -26.2316   23.3630 H   0  0  0  0  0  0
  -21.6655  -26.7449   22.1124 H   0  0  0  0  0  0
  -19.6945  -25.6291   21.1216 H   0  0  0  0  0  0
  -19.6717  -27.3210   20.6729 H   0  0  0  0  0  0
  -17.4191  -26.6645   21.3970 H   0  0  0  0  0  0
  -18.0255  -26.0091   22.9007 H   0  0  0  0  0  0
  -19.7968  -30.7184   24.2270 H   0  0  0  0  0  0
  -17.5070  -31.6302   24.5086 H   0  0  0  0  0  0
  -15.5366  -30.2950   23.7781 H   0  0  0  0  0  0
  -15.8644  -28.0836   22.7115 H   0  0  0  0  0  0
  -24.5999  -30.7038   25.7726 H   0  0  0  0  0  0
  -24.8986  -32.2853   26.4865 H   0  0  0  0  0  0
  -25.8136  -30.8851   27.0171 H   0  0  0  0  0  0
  -26.2984  -29.6659   24.1379 H   0  0  0  0  0  0
  -27.4177  -29.7334   25.4773 H   0  0  0  0  0  0
  -27.8869  -30.4163   23.9414 H   0  0  0  0  0  0
  -27.2592  -33.3668   26.1989 H   0  0  0  0  0  0
  -28.3932  -32.6898   25.0397 H   0  0  0  0  0  0
  -28.0658  -31.8544   26.5496 H   0  0  0  0  0  0
  -28.2531  -38.0137   24.7577 H   0  0  0  0  0  0
  -28.1126  -36.2643   24.6196 H   0  0  0  0  0  0
  -27.2270  -37.1281   25.8852 H   0  0  0  0  0  0
  -20.9460  -29.8720   21.6734 H   0  0  0  0  0  0
  -26.0152  -38.2795   24.1532 H   0  0  0  0  0  0
  -29.3185  -23.9143   17.9712 H   0  0  0  0  0  0
  -30.3355  -25.2089   18.7578 H   0  0  0  0  0  0
  -28.9672  -16.5879   19.2188 H   0  0  0  0  0  0
  -27.9551  -16.2904   20.6738 H   0  0  0  0  0  0
  -31.3232  -17.1744   22.0317 H   0  0  0  0  0  0
  -31.5096  -17.1858   20.2571 H   0  0  0  0  0  0
  -29.1240  -17.8254   22.0173 H   0  0  0  0  0  0
  -29.9942  -24.1585   20.9636 H   0  0  0  0  0  0
  -27.3406  -24.6069   19.2539 H   0  0  0  0  0  0
  -27.0963  -18.4226   21.9371 H   0  0  0  0  0  0
  -26.1447  -19.3283   20.7775 H   0  0  0  0  0  0
  -26.4524  -19.9745   22.3881 H   0  0  0  0  0  0
  -25.9274  -21.9423   21.0026 H   0  0  0  0  0  0
  -26.8815  -23.4000   21.1123 H   0  0  0  0  0  0
  -26.8542  -22.3056   22.4649 H   0  0  0  0  0  0
  -32.2320  -19.3021   20.1885 H   0  0  0  0  0  0
  -32.0806  -20.3242   18.7613 H   0  0  0  0  0  0
  -31.3245  -18.7493   18.7590 H   0  0  0  0  0  0
  1 25  1  0  0  0
  1 30  2  0  0  0
  1 86  1  0  0  0
  2  3  1  0  0  0
  2 25  1  0  0  0
  2 87  1  0  0  0
  2 88  1  0  0  0
  3  4  1  0  0  0
  3 89  1  0  0  0
  3 90  1  0  0  0
  4  5  1  0  0  0
  4 91  1  0  0  0
  4 92  1  0  0  0
  5  6  1  0  0  0
  5 26  1  0  0  0
  5 93  1  0  0  0
  6 25  1  0  0  0
  6 94  1  0  0  0
  6 95  1  0  0  0
  7  8  2  0  0  0
  7 26  1  0  0  0
  7 29  1  0  0  0
  8  9  1  0  0  0
  8 22  1  0  0  0
  9 10  1  0  0  0
  9 27  2  0  0  0
 10 11  2  0  0  0
 10 15  1  0  0  0
 11 12  1  0  0  0
 11 96  1  0  0  0
 12 13  2  0  0  0
 12 97  1  0  0  0
 13 14  1  0  0  0
 13 31  1  0  0  0
 14 15  2  0  0  0
 14 98  1  0  0  0
 15 99  1  0  0  0
 16 17  2  0  0  0
 16 21  1  0  0  0
 16 31  1  0  0  0
 17 18  1  0  0  0
 17100  1  0  0  0
 18 19  2  0  0  0
 18101  1  0  0  0
 19 20  1  0  0  0
 19 24  1  0  0  0
 20 21  2  0  0  0
 20102  1  0  0  0
 21 23  1  0  0  0
 22 28  1  0  0  0
 22 32  2  0  0  0
 26 27  1  0  0  0
 28103  1  0  0  0
 28104  1  0  0  0
 29105  1  0  0  0
 29106  1  0  0  0
 33 34  1  0  0  0
 33 66  1  0  0  0
 33 70  2  0  0  0
 34 36  1  0  0  0
 34 59  1  0  0  0
 34107  1  0  0  0
 35 44  2  0  0  0
 35 45  1  0  0  0
 35 68  1  0  0  0
 36 56  1  0  0  0
 36108  1  0  0  0
 37 39  1  0  0  0
 37 47  1  0  0  0
 37 66  1  0  0  0
 37109  1  0  0  0
 38 43  2  0  0  0
 38 46  1  0  0  0
 38 47  1  0  0  0
 39 64  1  0  0  0
 39 67  2  0  0  0
 40 52  1  0  0  0
 40 53  2  0  0  0
 40 58  1  0  0  0
 41110  1  0  0  0
 41111  1  0  0  0
 41112  1  0  0  0
 41 48  1  0  0  0
 42 43  1  0  0  0
 42 66  1  0  0  0
 42113  1  0  0  0
 42114  1  0  0  0
 43 44  1  0  0  0
 44115  1  0  0  0
 45 46  2  0  0  0
 45116  1  0  0  0
 46117  1  0  0  0
 47118  1  0  0  0
 47119  1  0  0  0
 48 56  1  0  0  0
 48 65  1  0  0  0
 48120  1  0  0  0
 49 50  1  0  0  0
 49 53  1  0  0  0
 49 64  1  0  0  0
 49121  1  0  0  0
 50 51  1  0  0  0
 50122  1  0  0  0
 50123  1  0  0  0
 51 52  1  0  0  0
 51124  1  0  0  0
 51125  1  0  0  0
 52126  1  0  0  0
 52127  1  0  0  0
 53 54  1  0  0  0
 54 55  2  0  0  0
 54128  1  0  0  0
 55 57  1  0  0  0
 55129  1  0  0  0
 56 69  2  0  0  0
 57 58  2  0  0  0
 57130  1  0  0  0
 58131  1  0  0  0
 59 60  1  0  0  0
 59 61  1  0  0  0
 59 62  1  0  0  0
 60132  1  0  0  0
 60133  1  0  0  0
 60134  1  0  0  0
 61135  1  0  0  0
 61136  1  0  0  0
 61137  1  0  0  0
 62138  1  0  0  0
 62139  1  0  0  0
 62140  1  0  0  0
 63 65  1  0  0  0
 63141  1  0  0  0
 63142  1  0  0  0
 63143  1  0  0  0
 64144  1  0  0  0
 65145  1  0  0  0
 68 81  1  0  0  0
 71 72  2  0  0  0
 71 75  1  0  0  0
 71 79  1  0  0  0
 72 73  1  0  0  0
 72 82  1  0  0  0
 73 74  2  0  0  0
 73 83  1  0  0  0
 74 85  1  0  0  0
 74 80  1  0  0  0
 75 84  1  0  0  0
 75 85  2  0  0  0
 76 80  1  0  0  0
 76 81  1  0  0  0
 76146  1  0  0  0
 76147  1  0  0  0
 77 79  1  0  0  0
 77 86  1  0  0  0
 77148  1  0  0  0
 77149  1  0  0  0
 78 79  1  0  0  0
 78 86  1  0  0  0
 78150  1  0  0  0
 78151  1  0  0  0
 79152  1  0  0  0
 80 81  1  0  0  0
 80153  1  0  0  0
 81154  1  0  0  0
 82155  1  0  0  0
 82156  1  0  0  0
 82157  1  0  0  0
 83158  1  0  0  0
 83159  1  0  0  0
 83160  1  0  0  0
 84161  1  0  0  0
 84162  1  0  0  0
 84163  1  0  0  0
M  ISO  4   1 100  68 101  81 101  86 100
M  END
> <chiral flag>
0

> <version>
0

> <s_m_source_file>
/data/baiqing/PycharmProjects/Reinvent-master-3.2/result/LINK_invent/BTK/process_docking_weight1_custom_sum_contain_oxygen_bond_distance_aromatic_linkinvent_7_9_3/rearranged_h_0168.sdf

> <i_m_source_file_index>
6

> <r_mmod_Potential_Energy-OPLS-2005>
81.0557174682617

> <r_mmod_Stretch_Energy-OPLS-2005>
105.129745483398

> <r_mmod_Bend_Energy-OPLS-2005>
187.0732421875

> <r_mmod_Torsional_Energy-OPLS-2005>
281.635894775391

> <r_mmod_Improper_Torsional_Energy-OPLS-2005>
9.54014205932617

> <r_mmod_Van_der_Waal_Energy-OPLS-2005>
158.670135498047

> <r_mmod_Electrostatic_Energy-OPLS-2005>
-495.471710205078

> <r_mmod_Solvation_Energy-OPLS-2005>
-225.210296630859

> <b_mmod_Minimization_Converged-OPLS-2005>
0

> <r_mmod_RMS_Derivative-OPLS-2005>
6.7229208946228

$$$$
6
                    3D
 Structure written by MMmdl.
164173  0  0  1  0            999 V2000
  -29.7513  -15.2555   20.7228 C   0  0  0  0  0  0
  -30.3709  -12.9069   19.6312 C   0  0  0  0  0  0
  -29.5278  -12.6418   18.3451 C   0  0  0  0  0  0
  -28.0636  -12.2933   18.6887 C   0  0  0  0  0  0
  -27.5485  -13.1924   19.8356 C   0  0  2  0  0  0
  -28.4804  -13.1517   21.0429 C   0  0  0  0  0  0
  -25.2088  -13.8033   20.5540 C   0  0  0  0  0  0
  -24.1466  -13.0332   20.9237 C   0  0  0  0  0  0
  -24.6027  -11.6798   20.8744 C   0  0  0  0  0  0
  -23.8814  -10.4213   21.0461 C   0  0  0  0  0  0
  -24.3477   -9.4167   21.9211 C   0  0  0  0  0  0
  -23.6218   -8.2175   22.0758 C   0  0  0  0  0  0
  -22.4206   -8.0198   21.3542 C   0  0  0  0  0  0
  -21.9778   -9.0143   20.4651 C   0  0  0  0  0  0
  -22.7033  -10.2047   20.3077 C   0  0  0  0  0  0
  -21.6824   -6.0686   22.5286 C   0  0  0  0  0  0
  -21.3994   -6.5612   23.8213 C   0  0  0  0  0  0
  -21.3655   -5.6776   24.9182 C   0  0  0  0  0  0
  -21.6044   -4.3038   24.7240 C   0  0  0  0  0  0
  -21.8823   -3.8118   23.4366 C   0  0  0  0  0  0
  -21.9186   -4.6923   22.3416 C   0  0  0  0  0  0
  -22.7577  -13.5201   21.1976 C   0  0  0  0  0  0
  -22.1660   -4.2110   21.0993 F   0  0  0  0  0  0
  -21.5634   -3.4532   25.7759 F   0  0  0  0  0  0
  -29.6285  -13.8563   20.5598 N   0  0  0  0  0  0
  -26.2194  -12.9054   20.2769 N   0  0  0  0  0  0
  -25.8819  -11.6275   20.5460 N   0  0  0  0  0  0
  -22.0247  -12.8201   22.0545 N   0  0  0  0  0  0
  -25.3931  -15.1763   20.4034 N   0  0  0  0  0  0
  -30.9256  -15.5929   20.4150 O   0  0  0  0  0  0
  -21.6599   -6.8794   21.4234 O   0  0  0  0  0  0
  -22.3333  -14.5541   20.6833 O   0  0  0  0  0  0
  -24.6583  -31.9388   23.2335 C   0  0  0  0  0  0
  -25.9494  -32.5088   23.8670 C   0  0  1  0  0  0
  -26.1325  -27.2335   20.3850 C   0  0  0  0  0  0
  -25.6359  -33.8842   24.2614 N   0  0  0  0  0  0
  -23.4638  -30.5925   21.5952 C   0  0  2  0  0  0
  -24.8714  -29.3673   19.7875 C   0  0  0  0  0  0
  -23.0816  -29.4856   22.6186 C   0  0  0  0  0  0
  -18.5899  -27.7330   22.4624 C   0  0  0  0  0  0
  -24.1519  -36.7356   23.2598 C   0  0  0  0  0  0
  -25.9923  -30.8446   21.4373 C   0  0  0  0  0  0
  -25.9300  -29.5446   20.6756 C   0  0  0  0  0  0
  -26.7547  -28.4256   20.8789 C   0  0  0  0  0  0
  -25.8965  -27.2757   19.0417 C   0  0  0  0  0  0
  -24.9960  -28.3303   18.8102 C   0  0  0  0  0  0
  -23.6220  -30.1723   20.0845 C   0  0  0  0  0  0
  -25.4136  -36.3214   24.0332 C   0  0  1  0  0  0
  -21.3300  -28.0564   23.5037 C   0  0  2  0  0  0
  -22.2436  -26.3818   22.7237 C   0  0  0  0  0  0
  -20.7371  -25.3540   21.2655 C   0  0  0  0  0  0
  -18.9110  -26.2953   21.4332 C   0  0  0  0  0  0
  -19.6326  -28.4814   23.2815 C   0  0  0  0  0  0
  -19.1989  -29.7226   23.9112 C   0  0  0  0  0  0
  -17.8758  -30.2321   23.9321 C   0  0  0  0  0  0
  -25.9142  -34.9607   23.5177 C   0  0  0  0  0  0
  -16.8703  -29.4654   23.3318 C   0  0  0  0  0  0
  -17.2305  -28.2674   22.6296 C   0  0  0  0  0  0
  -26.4616  -31.6677   25.0976 C   0  0  0  0  0  0
  -25.3731  -31.3802   26.1577 C   0  0  0  0  0  0
  -27.0409  -30.3067   24.6457 C   0  0  0  0  0  0
  -27.6176  -32.4290   25.7838 C   0  0  0  0  0  0
  -27.5604  -37.1887   24.8465 C   0  0  0  0  0  0
  -21.8455  -29.3513   23.0134 N   0  0  0  0  0  0
  -26.4310  -37.3897   23.9420 N   0  0  0  0  0  0
  -24.7185  -31.1898   22.1049 N   0  0  0  0  0  0
  -23.9114  -28.7854   23.1783 O   0  0  0  0  0  0
  -24.8069  -26.9587   20.9363 O   0  0  0  0  0  0
  -26.5510  -34.8991   22.4623 O   0  0  0  0  0  0
  -23.5758  -32.2048   23.7783 O   0  0  0  0  0  0
  -23.5706  -22.1316   22.9179 C   0  0  0  0  0  0
  -21.3590  -21.8788   22.1444 C   0  0  0  0  0  0
  -23.0282  -20.2004   21.6425 C   0  0  0  0  0  0
  -22.1274  -22.7974   22.8986 C   0  0  0  0  0  0
  -24.1399  -20.7822   22.2915 C   0  0  0  0  0  0
  -19.6685  -24.4068   23.5809 C   0  0  0  0  0  0
  -21.1512  -24.1933   23.6649 C   0  0  2  0  0  0
  -20.1919  -25.8921   23.3678 C   0  0  2  0  0  0
  -20.3929  -27.7842   19.7805 C   0  0  0  0  0  0
  -26.1595  -18.4705   21.7131 C   0  0  0  0  0  0
  -27.8793  -17.7134   21.4246 C   0  0  0  0  0  0
  -23.0335  -27.2233   20.5024 C   0  0  0  0  0  0
  -21.1012  -27.5464   21.1978 C   0  0  2  0  0  0
  -21.7630  -20.7060   21.5721 N   0  0  0  0  0  0
  -25.5370  -19.9883   22.2062 N   0  0  0  0  0  0
  -28.5323  -16.1257   21.1092 N   0  0  0  0  0  0
  -31.3418  -13.3210   19.3565 H   0  0  0  0  0  0
  -30.5872  -11.9690   20.1450 H   0  0  0  0  0  0
  -29.9796  -11.8534   17.7420 H   0  0  0  0  0  0
  -29.5385  -13.5413   17.7276 H   0  0  0  0  0  0
  -28.0192  -11.2469   18.9936 H   0  0  0  0  0  0
  -27.4279  -12.3861   17.8072 H   0  0  0  0  0  0
  -27.5137  -14.1963   19.4116 H   0  0  0  0  0  0
  -28.7041  -12.1297   21.3548 H   0  0  0  0  0  0
  -28.0469  -13.6475   21.9137 H   0  0  0  0  0  0
  -25.2627   -9.5691   22.4765 H   0  0  0  0  0  0
  -23.9962   -7.4565   22.7457 H   0  0  0  0  0  0
  -21.0716   -8.8616   19.8958 H   0  0  0  0  0  0
  -22.3471  -10.9585   19.6193 H   0  0  0  0  0  0
  -21.1979   -7.6121   23.9701 H   0  0  0  0  0  0
  -21.1478   -6.0514   25.9082 H   0  0  0  0  0  0
  -22.0611   -2.7581   23.2878 H   0  0  0  0  0  0
  -22.3857  -11.9834   22.4879 H   0  0  0  0  0  0
  -21.0893  -13.1264   22.2821 H   0  0  0  0  0  0
  -24.5903  -15.7912   20.4738 H   0  0  0  0  0  0
  -26.1348  -15.5711   19.8399 H   0  0  0  0  0  0
  -26.7610  -32.5626   23.1440 H   0  0  0  0  0  0
  -25.0676  -34.0024   25.0874 H   0  0  0  0  0  0
  -22.6721  -31.3448   21.6140 H   0  0  0  0  0  0
  -23.3804  -35.9665   23.3261 H   0  0  0  0  0  0
  -24.3633  -36.8956   22.2013 H   0  0  0  0  0  0
  -23.7237  -37.6557   23.6582 H   0  0  0  0  0  0
  -26.2452  -31.6439   20.7394 H   0  0  0  0  0  0
  -26.8385  -30.7496   22.1054 H   0  0  0  0  0  0
  -27.4854  -28.4097   21.6755 H   0  0  0  0  0  0
  -25.7836  -26.3812   18.4449 H   0  0  0  0  0  0
  -24.3062  -28.2623   17.9799 H   0  0  0  0  0  0
  -23.7058  -31.0847   19.4932 H   0  0  0  0  0  0
  -22.7148  -29.7082   19.7152 H   0  0  0  0  0  0
  -25.1284  -36.2100   25.0819 H   0  0  0  0  0  0
  -21.5209  -28.0524   24.5787 H   0  0  0  0  0  0
  -22.5521  -25.9113   23.6545 H   0  0  0  0  0  0
  -23.3094  -26.3715   22.5454 H   0  0  0  0  0  0
  -20.6573  -24.2747   21.2980 H   0  0  0  0  0  0
  -21.0776  -25.3372   20.2318 H   0  0  0  0  0  0
  -18.4551  -26.4344   20.4540 H   0  0  0  0  0  0
  -18.1890  -25.5659   21.7986 H   0  0  0  0  0  0
  -19.9333  -30.2952   24.4620 H   0  0  0  0  0  0
  -17.6399  -31.1529   24.4482 H   0  0  0  0  0  0
  -15.8397  -29.7915   23.3645 H   0  0  0  0  0  0
  -16.4313  -27.7371   22.1302 H   0  0  0  0  0  0
  -24.5937  -30.7175   25.7800 H   0  0  0  0  0  0
  -24.8906  -32.2964   26.4987 H   0  0  0  0  0  0
  -25.7954  -30.8941   27.0382 H   0  0  0  0  0  0
  -26.3033  -29.6920   24.1301 H   0  0  0  0  0  0
  -27.3845  -29.7228   25.5007 H   0  0  0  0  0  0
  -27.9052  -30.4297   23.9926 H   0  0  0  0  0  0
  -27.2830  -33.3590   26.2448 H   0  0  0  0  0  0
  -28.4051  -32.6830   25.0726 H   0  0  0  0  0  0
  -28.0756  -31.8345   26.5756 H   0  0  0  0  0  0
  -28.2599  -38.0208   24.7559 H   0  0  0  0  0  0
  -28.1132  -36.2747   24.6239 H   0  0  0  0  0  0
  -27.2327  -37.1469   25.8866 H   0  0  0  0  0  0
  -21.1551  -30.0090   22.6791 H   0  0  0  0  0  0
  -26.0198  -38.2967   24.1452 H   0  0  0  0  0  0
  -24.2978  -22.6922   23.4865 H   0  0  0  0  0  0
  -20.3059  -22.0729   22.0094 H   0  0  0  0  0  0
  -23.1568  -19.2565   21.1330 H   0  0  0  0  0  0
  -19.1406  -24.2303   24.5167 H   0  0  0  0  0  0
  -19.1449  -23.9094   22.7693 H   0  0  0  0  0  0
  -21.5320  -24.1493   24.6844 H   0  0  0  0  0  0
  -19.8966  -26.3729   24.3031 H   0  0  0  0  0  0
  -19.4106  -28.2572   19.8517 H   0  0  0  0  0  0
  -20.2915  -26.9052   19.1473 H   0  0  0  0  0  0
  -20.9564  -28.4868   19.1679 H   0  0  0  0  0  0
  -25.7072  -17.7917   22.4381 H   0  0  0  0  0  0
  -25.6124  -18.2587   20.7937 H   0  0  0  0  0  0
  -28.4495  -18.0199   22.3018 H   0  0  0  0  0  0
  -28.3059  -18.3123   20.6198 H   0  0  0  0  0  0
  -22.9226  -27.6078   19.5051 H   0  0  0  0  0  0
  -22.9604  -26.1847   20.1931 H   0  0  0  0  0  0
  -20.8486  -28.5932   21.2376 H   0  0  0  0  0  0
  -26.2859  -20.5366   22.6272 H   0  0  0  0  0  0
  -27.7769  -15.4732   21.2684 H   0  0  0  0  0  0
  1 25  1  0  0  0
  1 30  2  0  0  0
  1 86  1  0  0  0
  2  3  1  0  0  0
  2 25  1  0  0  0
  2 87  1  0  0  0
  2 88  1  0  0  0
  3  4  1  0  0  0
  3 89  1  0  0  0
  3 90  1  0  0  0
  4  5  1  0  0  0
  4 91  1  0  0  0
  4 92  1  0  0  0
  5  6  1  0  0  0
  5 26  1  0  0  0
  5 93  1  0  0  0
  6 25  1  0  0  0
  6 94  1  0  0  0
  6 95  1  0  0  0
  7  8  2  0  0  0
  7 26  1  0  0  0
  7 29  1  0  0  0
  8  9  1  0  0  0
  8 22  1  0  0  0
  9 10  1  0  0  0
  9 27  2  0  0  0
 10 11  2  0  0  0
 10 15  1  0  0  0
 11 12  1  0  0  0
 11 96  1  0  0  0
 12 13  2  0  0  0
 12 97  1  0  0  0
 13 14  1  0  0  0
 13 31  1  0  0  0
 14 15  2  0  0  0
 14 98  1  0  0  0
 15 99  1  0  0  0
 16 17  2  0  0  0
 16 21  1  0  0  0
 16 31  1  0  0  0
 17 18  1  0  0  0
 17100  1  0  0  0
 18 19  2  0  0  0
 18101  1  0  0  0
 19 20  1  0  0  0
 19 24  1  0  0  0
 20 21  2  0  0  0
 20102  1  0  0  0
 21 23  1  0  0  0
 22 28  1  0  0  0
 22 32  2  0  0  0
 26 27  1  0  0  0
 28103  1  0  0  0
 28104  1  0  0  0
 29105  1  0  0  0
 29106  1  0  0  0
 33 34  1  0  0  0
 33 66  1  0  0  0
 33 70  2  0  0  0
 34 36  1  0  0  0
 34 59  1  0  0  0
 34107  1  0  0  0
 35 44  2  0  0  0
 35 45  1  0  0  0
 35 68  1  0  0  0
 36 56  1  0  0  0
 36108  1  0  0  0
 37 39  1  0  0  0
 37 47  1  0  0  0
 37 66  1  0  0  0
 37109  1  0  0  0
 38 43  2  0  0  0
 38 46  1  0  0  0
 38 47  1  0  0  0
 39 64  1  0  0  0
 39 67  2  0  0  0
 40 52  1  0  0  0
 40 53  2  0  0  0
 40 58  1  0  0  0
 41110  1  0  0  0
 41111  1  0  0  0
 41112  1  0  0  0
 41 48  1  0  0  0
 42 43  1  0  0  0
 42 66  1  0  0  0
 42113  1  0  0  0
 42114  1  0  0  0
 43 44  1  0  0  0
 44115  1  0  0  0
 45 46  2  0  0  0
 45116  1  0  0  0
 46117  1  0  0  0
 47118  1  0  0  0
 47119  1  0  0  0
 48 56  1  0  0  0
 48 65  1  0  0  0
 48120  1  0  0  0
 49 50  1  0  0  0
 49 53  1  0  0  0
 49 64  1  0  0  0
 49121  1  0  0  0
 50 51  1  0  0  0
 50122  1  0  0  0
 50123  1  0  0  0
 51 52  1  0  0  0
 51124  1  0  0  0
 51125  1  0  0  0
 52126  1  0  0  0
 52127  1  0  0  0
 53 54  1  0  0  0
 54 55  2  0  0  0
 54128  1  0  0  0
 55 57  1  0  0  0
 55129  1  0  0  0
 56 69  2  0  0  0
 57 58  2  0  0  0
 57130  1  0  0  0
 58131  1  0  0  0
 59 60  1  0  0  0
 59 61  1  0  0  0
 59 62  1  0  0  0
 60132  1  0  0  0
 60133  1  0  0  0
 60134  1  0  0  0
 61135  1  0  0  0
 61136  1  0  0  0
 61137  1  0  0  0
 62138  1  0  0  0
 62139  1  0  0  0
 62140  1  0  0  0
 63 65  1  0  0  0
 63141  1  0  0  0
 63142  1  0  0  0
 63143  1  0  0  0
 64144  1  0  0  0
 65145  1  0  0  0
 68 82  1  0  0  0
 71 74  2  0  0  0
 71 75  1  0  0  0
 71146  1  0  0  0
 72 74  1  0  0  0
 72 84  2  0  0  0
 72147  1  0  0  0
 73 75  2  0  0  0
 73 84  1  0  0  0
 73148  1  0  0  0
 74 77  1  0  0  0
 75 85  1  0  0  0
 76 77  1  0  0  0
 76149  1  0  0  0
 76150  1  0  0  0
 76 78  1  0  0  0
 77 78  1  0  0  0
 77151  1  0  0  0
 78 83  1  0  0  0
 78152  1  0  0  0
 79153  1  0  0  0
 79154  1  0  0  0
 79155  1  0  0  0
 79 83  1  0  0  0
 80 81  1  0  0  0
 80 85  1  0  0  0
 80156  1  0  0  0
 80157  1  0  0  0
 81 86  1  0  0  0
 81158  1  0  0  0
 81159  1  0  0  0
 82 83  1  0  0  0
 82160  1  0  0  0
 82161  1  0  0  0
 83162  1  0  0  0
 85163  1  0  0  0
 86164  1  0  0  0
M  ISO  4   1 100  68 101  82 101  86 100
M  END
> <chiral flag>
0

> <version>
0

> <s_m_source_file>
/data/baiqing/PycharmProjects/Reinvent-master-3.2/result/LINK_invent/BTK/process_docking_weight1_custom_sum_contain_oxygen_bond_distance_aromatic_linkinvent_7_9_3/rearranged_h_0168.sdf

> <i_m_source_file_index>
7

> <r_mmod_Potential_Energy-OPLS-2005>
11919.7197265625

> <r_mmod_Stretch_Energy-OPLS-2005>
5558.7158203125

> <r_mmod_Bend_Energy-OPLS-2005>
1160.83349609375

> <r_mmod_Torsional_Energy-OPLS-2005>
520.810668945312

> <r_mmod_Improper_Torsional_Energy-OPLS-2005>
40.0931930541992

> <r_mmod_Van_der_Waal_Energy-OPLS-2005>
1950.93298339844

> <r_mmod_Electrostatic_Energy-OPLS-2005>
-454.271331787109

> <r_mmod_Solvation_Energy-OPLS-2005>
-234.789093017578

> <b_mmod_Minimization_Converged-OPLS-2005>
0

> <r_mmod_RMS_Derivative-OPLS-2005>
1.25730919837952

$$$$
7
                    3D
 Structure written by MMmdl.
171180  0  0  1  0            999 V2000
  -30.5988  -14.9078   20.4397 C   0  0  0  0  0  0
  -30.4244  -12.5665   19.5025 C   0  0  0  0  0  0
  -29.5180  -12.5326   18.2544 C   0  0  0  0  0  0
  -28.0528  -12.3166   18.6739 C   0  0  0  0  0  0
  -27.6276  -13.2508   19.8386 C   0  0  2  0  0  0
  -28.6679  -13.2931   20.9776 C   0  0  0  0  0  0
  -25.2439  -13.8230   20.5706 C   0  0  0  0  0  0
  -24.1760  -13.0450   20.9228 C   0  0  0  0  0  0
  -24.6375  -11.6943   20.8749 C   0  0  0  0  0  0
  -23.9068  -10.4304   21.0403 C   0  0  0  0  0  0
  -24.3623   -9.4223   21.9179 C   0  0  0  0  0  0
  -23.6311   -8.2245   22.0752 C   0  0  0  0  0  0
  -22.4295   -8.0278   21.3538 C   0  0  0  0  0  0
  -21.9921   -9.0247   20.4642 C   0  0  0  0  0  0
  -22.7238  -10.2130   20.3052 C   0  0  0  0  0  0
  -21.6852   -6.0735   22.5281 C   0  0  0  0  0  0
  -21.4012   -6.5639   23.8215 C   0  0  0  0  0  0
  -21.3663   -5.6781   24.9171 C   0  0  0  0  0  0
  -21.6053   -4.3047   24.7211 C   0  0  0  0  0  0
  -21.8819   -3.8142   23.4327 C   0  0  0  0  0  0
  -21.9193   -4.6962   22.3391 C   0  0  0  0  0  0
  -22.7788  -13.5221   21.1877 C   0  0  0  0  0  0
  -22.1659   -4.2154   21.0967 F   0  0  0  0  0  0
  -21.5644   -3.4529   25.7721 F   0  0  0  0  0  0
  -29.9482  -13.6795   20.3742 N   0  0  0  0  0  0
  -26.2870  -12.9465   20.3244 N   0  0  0  0  0  0
  -25.9316  -11.6593   20.5740 N   0  0  0  0  0  0
  -22.0413  -12.8241   22.0438 N   0  0  0  0  0  0
  -25.4116  -15.1956   20.4143 N   0  0  0  0  0  0
  -31.8072  -14.9030   20.1746 O   0  0  0  0  0  0
  -21.6653   -6.8880   21.4241 O   0  0  0  0  0  0
  -22.3481  -14.5520   20.6701 O   0  0  0  0  0  0
  -24.6419  -31.8470   23.1916 C   0  0  0  0  0  0
  -25.9212  -32.4694   23.8283 C   0  0  1  0  0  0
  -27.2123  -27.1672   20.1385 C   0  0  0  0  0  0
  -25.5980  -33.8500   24.2210 N   0  0  0  0  0  0
  -23.4410  -30.4703   21.5377 C   0  0  2  0  0  0
  -24.8873  -28.9035   20.1099 C   0  0  0  0  0  0
  -22.7553  -29.4582   22.4892 C   0  0  0  0  0  0
  -18.0303  -28.1390   22.8484 C   0  0  0  0  0  0
  -24.1505  -36.7251   23.2641 C   0  0  0  0  0  0
  -25.9957  -30.7311   21.3846 C   0  0  0  0  0  0
  -26.0658  -29.3460   20.7239 C   0  0  0  0  0  0
  -27.2307  -28.4943   20.7209 C   0  0  0  0  0  0
  -26.0073  -26.8235   19.4830 C   0  0  0  0  0  0
  -24.8700  -27.6557   19.4737 C   0  0  0  0  0  0
  -23.6624  -29.8016   20.1560 C   0  0  0  0  0  0
  -25.4129  -36.3020   24.0316 C   0  0  1  0  0  0
  -20.5918  -28.3711   23.1255 C   0  0  2  0  0  0
  -20.6794  -26.9423   22.5407 C   0  0  0  0  0  0
  -19.5767  -26.6381   21.5220 C   0  0  0  0  0  0
  -18.1946  -26.7938   22.1619 C   0  0  0  0  0  0
  -19.1554  -28.8872   23.2858 C   0  0  0  0  0  0
  -18.9465  -30.1463   23.8879 C   0  0  0  0  0  0
  -17.6455  -30.6593   24.0554 C   0  0  0  0  0  0
  -25.9085  -34.9398   23.5060 C   0  0  0  0  0  0
  -16.5350  -29.9076   23.6339 C   0  0  0  0  0  0
  -16.7280  -28.6496   23.0366 C   0  0  0  0  0  0
  -26.4551  -31.6542   25.0711 C   0  0  0  0  0  0
  -25.3744  -31.3689   26.1405 C   0  0  0  0  0  0
  -27.0400  -30.2940   24.6256 C   0  0  0  0  0  0
  -27.6094  -32.4287   25.7488 C   0  0  0  0  0  0
  -27.5582  -37.1770   24.8456 C   0  0  0  0  0  0
  -21.4252  -29.3038   22.3635 N   0  0  0  0  0  0
  -26.4281  -37.3739   23.9419 N   0  0  0  0  0  0
  -24.7124  -31.0370   22.0927 N   0  0  0  0  0  0
  -23.4208  -28.8135   23.3041 O   0  0  0  0  0  0
  -28.2705  -26.1957   20.2026 O   0  0  0  0  0  0
  -26.5655  -34.8892   22.4631 O   0  0  0  0  0  0
  -23.5548  -32.1334   23.7170 O   0  0  0  0  0  0
  -30.4165  -23.6876   19.9113 C   0  0  0  0  0  0
  -31.3771  -22.6325   19.9336 C   0  0  0  0  0  0
  -29.0445  -23.4339   20.1662 C   0  0  0  0  0  0
  -31.0053  -21.2585   20.0846 C   0  0  0  0  0  0
  -28.7012  -22.0010   20.3789 C   0  0  0  0  0  0
  -29.6535  -20.8605   20.3286 C   0  0  0  0  0  0
  -29.2215  -18.4293   19.4057 C   0  0  0  0  0  0
  -29.0090  -16.8585   19.7716 C   0  0  0  0  0  0
  -29.8411  -18.6646   21.7201 C   0  0  0  0  0  0
  -30.6082  -17.2504   21.5205 C   0  0  1  0  0  0
  -30.8535  -25.1173   19.5724 C   0  0  0  0  0  0
  -32.8604  -22.9920   19.7722 C   0  0  0  0  0  0
  -32.1166  -20.2136   19.9562 C   0  0  0  0  0  0
  -27.2413  -21.6940   20.6728 C   0  0  0  0  0  0
  -31.0097  -16.7325   22.9153 C   0  0  0  0  0  0
  -27.9654  -24.6777   20.0979 C   0  0  0  0  0  0
  -29.3553  -19.4098   20.5253 N   0  0  0  0  0  0
  -29.9460  -16.1494   20.7198 N   0  0  0  0  0  0
  -31.4656  -12.6910   19.2014 H   0  0  0  0  0  0
  -30.3840  -11.6144   20.0362 H   0  0  0  0  0  0
  -29.8410  -11.7447   17.5726 H   0  0  0  0  0  0
  -29.6083  -13.4720   17.7064 H   0  0  0  0  0  0
  -27.9541  -11.2758   18.9841 H   0  0  0  0  0  0
  -27.3880  -12.4431   17.8191 H   0  0  0  0  0  0
  -27.5881  -14.2518   19.4084 H   0  0  0  0  0  0
  -28.7442  -12.3313   21.4877 H   0  0  0  0  0  0
  -28.3731  -14.0237   21.7333 H   0  0  0  0  0  0
  -25.2758   -9.5721   22.4757 H   0  0  0  0  0  0
  -24.0029   -7.4644   22.7474 H   0  0  0  0  0  0
  -21.0855   -8.8760   19.8952 H   0  0  0  0  0  0
  -22.3694  -10.9664   19.6164 H   0  0  0  0  0  0
  -21.1991   -7.6143   23.9729 H   0  0  0  0  0  0
  -21.1499   -6.0500   25.9082 H   0  0  0  0  0  0
  -22.0595   -2.7605   23.2816 H   0  0  0  0  0  0
  -22.4024  -11.9907   22.4844 H   0  0  0  0  0  0
  -21.1026  -13.1283   22.2593 H   0  0  0  0  0  0
  -24.6463  -15.8501   20.5359 H   0  0  0  0  0  0
  -26.2681  -15.6364   20.1081 H   0  0  0  0  0  0
  -26.7279  -32.5320   23.1011 H   0  0  0  0  0  0
  -25.0127  -33.9621   25.0356 H   0  0  0  0  0  0
  -22.7409  -31.2955   21.3888 H   0  0  0  0  0  0
  -23.3775  -35.9572   23.3249 H   0  0  0  0  0  0
  -24.3607  -36.8937   22.2066 H   0  0  0  0  0  0
  -23.7239  -37.6421   23.6715 H   0  0  0  0  0  0
  -26.1495  -31.4886   20.6151 H   0  0  0  0  0  0
  -26.8672  -30.7774   22.0255 H   0  0  0  0  0  0
  -28.1301  -28.8304   21.2175 H   0  0  0  0  0  0
  -25.9022  -25.8767   18.9787 H   0  0  0  0  0  0
  -23.9713  -27.3180   18.9747 H   0  0  0  0  0  0
  -23.7895  -30.5763   19.3985 H   0  0  0  0  0  0
  -22.7776  -29.2387   19.8531 H   0  0  0  0  0  0
  -25.1316  -36.1834   25.0805 H   0  0  0  0  0  0
  -20.9998  -28.3287   24.1381 H   0  0  0  0  0  0
  -20.5711  -26.2319   23.3616 H   0  0  0  0  0  0
  -21.6657  -26.7463   22.1181 H   0  0  0  0  0  0
  -19.6926  -25.6290   21.1259 H   0  0  0  0  0  0
  -19.6705  -27.3184   20.6745 H   0  0  0  0  0  0
  -17.4229  -26.6704   21.4007 H   0  0  0  0  0  0
  -18.0317  -26.0075   22.8999 H   0  0  0  0  0  0
  -19.7933  -30.7295   24.2240 H   0  0  0  0  0  0
  -17.5004  -31.6274   24.5132 H   0  0  0  0  0  0
  -15.5345  -30.2946   23.7694 H   0  0  0  0  0  0
  -15.8688  -28.0794   22.7089 H   0  0  0  0  0  0
  -24.5961  -30.7005   25.7708 H   0  0  0  0  0  0
  -24.8896  -32.2845   26.4797 H   0  0  0  0  0  0
  -25.8051  -30.8880   27.0196 H   0  0  0  0  0  0
  -26.2989  -29.6655   24.1305 H   0  0  0  0  0  0
  -27.4063  -29.7250   25.4811 H   0  0  0  0  0  0
  -27.8889  -30.4173   23.9528 H   0  0  0  0  0  0
  -27.2716  -33.3611   26.2016 H   0  0  0  0  0  0
  -28.3935  -32.6791   25.0332 H   0  0  0  0  0  0
  -28.0728  -31.8430   26.5435 H   0  0  0  0  0  0
  -28.2553  -38.0113   24.7554 H   0  0  0  0  0  0
  -28.1122  -36.2643   24.6212 H   0  0  0  0  0  0
  -27.2313  -37.1322   25.8858 H   0  0  0  0  0  0
  -20.9467  -29.8703   21.6778 H   0  0  0  0  0  0
  -26.0141  -38.2803   24.1422 H   0  0  0  0  0  0
  -28.3681  -18.7538   18.8077 H   0  0  0  0  0  0
  -30.0749  -18.5247   18.7354 H   0  0  0  0  0  0
  -28.9802  -16.2964   18.8364 H   0  0  0  0  0  0
  -28.0126  -16.7495   20.2010 H   0  0  0  0  0  0
  -30.4870  -19.3337   22.2908 H   0  0  0  0  0  0
  -28.9714  -18.4925   22.3571 H   0  0  0  0  0  0
  -31.5439  -17.4586   21.0063 H   0  0  0  0  0  0
  -31.8443  -25.2032   19.1333 H   0  0  0  0  0  0
  -30.8292  -25.7484   20.4613 H   0  0  0  0  0  0
  -30.1936  -25.5485   18.8201 H   0  0  0  0  0  0
  -33.1136  -23.9138   20.2958 H   0  0  0  0  0  0
  -33.1100  -23.1127   18.7170 H   0  0  0  0  0  0
  -33.5442  -22.2594   20.1957 H   0  0  0  0  0  0
  -32.7361  -20.1984   20.8541 H   0  0  0  0  0  0
  -32.7479  -20.4324   19.0948 H   0  0  0  0  0  0
  -31.7702  -19.2052   19.7823 H   0  0  0  0  0  0
  -26.6059  -22.0177   19.8486 H   0  0  0  0  0  0
  -26.9240  -22.2147   21.5770 H   0  0  0  0  0  0
  -27.0627  -20.6321   20.8338 H   0  0  0  0  0  0
  -30.1362  -16.4214   23.4894 H   0  0  0  0  0  0
  -31.5128  -17.5124   23.4861 H   0  0  0  0  0  0
  -31.6995  -15.8897   22.8651 H   0  0  0  0  0  0
  -27.1940  -24.4719   20.8387 H   0  0  0  0  0  0
  -27.4955  -24.5218   19.1278 H   0  0  0  0  0  0
  1 25  1  0  0  0
  1 30  2  0  0  0
  1 88  1  0  0  0
  2  3  1  0  0  0
  2 25  1  0  0  0
  2 89  1  0  0  0
  2 90  1  0  0  0
  3  4  1  0  0  0
  3 91  1  0  0  0
  3 92  1  0  0  0
  4  5  1  0  0  0
  4 93  1  0  0  0
  4 94  1  0  0  0
  5  6  1  0  0  0
  5 26  1  0  0  0
  5 95  1  0  0  0
  6 25  1  0  0  0
  6 96  1  0  0  0
  6 97  1  0  0  0
  7  8  2  0  0  0
  7 26  1  0  0  0
  7 29  1  0  0  0
  8  9  1  0  0  0
  8 22  1  0  0  0
  9 10  1  0  0  0
  9 27  2  0  0  0
 10 11  2  0  0  0
 10 15  1  0  0  0
 11 12  1  0  0  0
 11 98  1  0  0  0
 12 13  2  0  0  0
 12 99  1  0  0  0
 13 14  1  0  0  0
 13 31  1  0  0  0
 14 15  2  0  0  0
 14100  1  0  0  0
 15101  1  0  0  0
 16 17  2  0  0  0
 16 21  1  0  0  0
 16 31  1  0  0  0
 17 18  1  0  0  0
 17102  1  0  0  0
 18 19  2  0  0  0
 18103  1  0  0  0
 19 20  1  0  0  0
 19 24  1  0  0  0
 20 21  2  0  0  0
 20104  1  0  0  0
 21 23  1  0  0  0
 22 28  1  0  0  0
 22 32  2  0  0  0
 26 27  1  0  0  0
 28105  1  0  0  0
 28106  1  0  0  0
 29107  1  0  0  0
 29108  1  0  0  0
 33 34  1  0  0  0
 33 66  1  0  0  0
 33 70  2  0  0  0
 34 36  1  0  0  0
 34 59  1  0  0  0
 34109  1  0  0  0
 35 44  2  0  0  0
 35 45  1  0  0  0
 35 68  1  0  0  0
 36 56  1  0  0  0
 36110  1  0  0  0
 37 39  1  0  0  0
 37 47  1  0  0  0
 37 66  1  0  0  0
 37111  1  0  0  0
 38 43  2  0  0  0
 38 46  1  0  0  0
 38 47  1  0  0  0
 39 64  1  0  0  0
 39 67  2  0  0  0
 40 52  1  0  0  0
 40 53  2  0  0  0
 40 58  1  0  0  0
 41112  1  0  0  0
 41113  1  0  0  0
 41114  1  0  0  0
 41 48  1  0  0  0
 42 43  1  0  0  0
 42 66  1  0  0  0
 42115  1  0  0  0
 42116  1  0  0  0
 43 44  1  0  0  0
 44117  1  0  0  0
 45 46  2  0  0  0
 45118  1  0  0  0
 46119  1  0  0  0
 47120  1  0  0  0
 47121  1  0  0  0
 48 56  1  0  0  0
 48 65  1  0  0  0
 48122  1  0  0  0
 49 50  1  0  0  0
 49 53  1  0  0  0
 49 64  1  0  0  0
 49123  1  0  0  0
 50 51  1  0  0  0
 50124  1  0  0  0
 50125  1  0  0  0
 51 52  1  0  0  0
 51126  1  0  0  0
 51127  1  0  0  0
 52128  1  0  0  0
 52129  1  0  0  0
 53 54  1  0  0  0
 54 55  2  0  0  0
 54130  1  0  0  0
 55 57  1  0  0  0
 55131  1  0  0  0
 56 69  2  0  0  0
 57 58  2  0  0  0
 57132  1  0  0  0
 58133  1  0  0  0
 59 60  1  0  0  0
 59 61  1  0  0  0
 59 62  1  0  0  0
 60134  1  0  0  0
 60135  1  0  0  0
 60136  1  0  0  0
 61137  1  0  0  0
 61138  1  0  0  0
 61139  1  0  0  0
 62140  1  0  0  0
 62141  1  0  0  0
 62142  1  0  0  0
 63 65  1  0  0  0
 63143  1  0  0  0
 63144  1  0  0  0
 63145  1  0  0  0
 64146  1  0  0  0
 65147  1  0  0  0
 68 86  1  0  0  0
 71 72  2  0  0  0
 71 73  1  0  0  0
 71 81  1  0  0  0
 72 74  1  0  0  0
 72 82  1  0  0  0
 73 75  2  0  0  0
 73 86  1  0  0  0
 74 76  2  0  0  0
 74 83  1  0  0  0
 75 76  1  0  0  0
 75 84  1  0  0  0
 76 87  1  0  0  0
 77 78  1  0  0  0
 77 87  1  0  0  0
 77148  1  0  0  0
 77149  1  0  0  0
 78 88  1  0  0  0
 78150  1  0  0  0
 78151  1  0  0  0
 79 80  1  0  0  0
 79 87  1  0  0  0
 79152  1  0  0  0
 79153  1  0  0  0
 80 85  1  0  0  0
 80 88  1  0  0  0
 80154  1  0  0  0
 81155  1  0  0  0
 81156  1  0  0  0
 81157  1  0  0  0
 82158  1  0  0  0
 82159  1  0  0  0
 82160  1  0  0  0
 83161  1  0  0  0
 83162  1  0  0  0
 83163  1  0  0  0
 84164  1  0  0  0
 84165  1  0  0  0
 84166  1  0  0  0
 85167  1  0  0  0
 85168  1  0  0  0
 85169  1  0  0  0
 86170  1  0  0  0
 86171  1  0  0  0
M  ISO  4   1 100  68 101  86 101  88 100
M  END
> <chiral flag>
0

> <version>
0

> <s_m_source_file>
/data/baiqing/PycharmProjects/Reinvent-master-3.2/result/LINK_invent/BTK/process_docking_weight1_custom_sum_contain_oxygen_bond_distance_aromatic_linkinvent_7_9_3/rearranged_h_0168.sdf

> <i_m_source_file_index>
8

> <r_mmod_Potential_Energy-OPLS-2005>
641.98046875

> <r_mmod_Stretch_Energy-OPLS-2005>
225.142547607422

> <r_mmod_Bend_Energy-OPLS-2005>
249.611694335938

> <r_mmod_Torsional_Energy-OPLS-2005>
387.216339111328

> <r_mmod_Improper_Torsional_Energy-OPLS-2005>
7.23827219009399

> <r_mmod_Van_der_Waal_Energy-OPLS-2005>
165.274505615234

> <r_mmod_Electrostatic_Energy-OPLS-2005>
-363.043548583984

> <r_mmod_Solvation_Energy-OPLS-2005>
-195.147171020508

> <b_mmod_Minimization_Converged-OPLS-2005>
0

> <r_mmod_RMS_Derivative-OPLS-2005>
2.33484649658203

$$$$
8
                    3D
 Structure written by MMmdl.
164173  0  0  1  0            999 V2000
  -30.6343  -14.8654   20.4293 C   0  0  0  0  0  0
  -30.4153  -12.5453   19.4769 C   0  0  0  0  0  0
  -29.4982  -12.5085   18.2376 C   0  0  0  0  0  0
  -28.0348  -12.2975   18.6653 C   0  0  0  0  0  0
  -27.6174  -13.2304   19.8306 C   0  0  2  0  0  0
  -28.6679  -13.2896   20.9605 C   0  0  0  0  0  0
  -25.2438  -13.8170   20.5750 C   0  0  0  0  0  0
  -24.1742  -13.0408   20.9259 C   0  0  0  0  0  0
  -24.6350  -11.6894   20.8793 C   0  0  0  0  0  0
  -23.9046  -10.4273   21.0435 C   0  0  0  0  0  0
  -24.3605   -9.4190   21.9204 C   0  0  0  0  0  0
  -23.6284   -8.2225   22.0761 C   0  0  0  0  0  0
  -22.4269   -8.0270   21.3549 C   0  0  0  0  0  0
  -21.9907   -9.0242   20.4654 C   0  0  0  0  0  0
  -22.7230  -10.2121   20.3076 C   0  0  0  0  0  0
  -21.6841   -6.0734   22.5286 C   0  0  0  0  0  0
  -21.4008   -6.5641   23.8220 C   0  0  0  0  0  0
  -21.3660   -5.6796   24.9185 C   0  0  0  0  0  0
  -21.6043   -4.3058   24.7237 C   0  0  0  0  0  0
  -21.8821   -3.8149   23.4358 C   0  0  0  0  0  0
  -21.9192   -4.6964   22.3413 C   0  0  0  0  0  0
  -22.7774  -13.5195   21.1897 C   0  0  0  0  0  0
  -22.1659   -4.2149   21.0989 F   0  0  0  0  0  0
  -21.5629   -3.4546   25.7752 F   0  0  0  0  0  0
  -29.9454  -13.6618   20.3424 N   0  0  0  0  0  0
  -26.2825  -12.9355   20.3279 N   0  0  0  0  0  0
  -25.9273  -11.6507   20.5791 N   0  0  0  0  0  0
  -22.0413  -12.8185   22.0444 N   0  0  0  0  0  0
  -25.4127  -15.1891   20.4171 N   0  0  0  0  0  0
  -31.8494  -14.8253   20.2117 O   0  0  0  0  0  0
  -21.6632   -6.8870   21.4246 O   0  0  0  0  0  0
  -22.3467  -14.5500   20.6740 O   0  0  0  0  0  0
  -24.6383  -31.8504   23.1913 C   0  0  0  0  0  0
  -25.9171  -32.4724   23.8308 C   0  0  1  0  0  0
  -27.2175  -27.1944   20.1471 C   0  0  0  0  0  0
  -25.5931  -33.8529   24.2214 N   0  0  0  0  0  0
  -23.4396  -30.4687   21.5381 C   0  0  2  0  0  0
  -24.8881  -28.9012   20.1145 C   0  0  0  0  0  0
  -22.7538  -29.4584   22.4902 C   0  0  0  0  0  0
  -18.0297  -28.1403   22.8503 C   0  0  0  0  0  0
  -24.1484  -36.7271   23.2641 C   0  0  0  0  0  0
  -25.9902  -30.7417   21.3820 C   0  0  0  0  0  0
  -26.0634  -29.3560   20.7283 C   0  0  0  0  0  0
  -27.2339  -28.5181   20.7264 C   0  0  0  0  0  0
  -26.0219  -26.8264   19.4975 C   0  0  0  0  0  0
  -24.8761  -27.6476   19.4842 C   0  0  0  0  0  0
  -23.6619  -29.7962   20.1584 C   0  0  0  0  0  0
  -25.4112  -36.3056   24.0321 C   0  0  1  0  0  0
  -20.5905  -28.3733   23.1257 C   0  0  2  0  0  0
  -20.6787  -26.9443   22.5415 C   0  0  0  0  0  0
  -19.5752  -26.6400   21.5231 C   0  0  0  0  0  0
  -18.1933  -26.7949   22.1641 C   0  0  0  0  0  0
  -19.1552  -28.8884   23.2875 C   0  0  0  0  0  0
  -18.9467  -30.1483   23.8900 C   0  0  0  0  0  0
  -17.6462  -30.6601   24.0577 C   0  0  0  0  0  0
  -25.9064  -34.9426   23.5075 C   0  0  0  0  0  0
  -16.5353  -29.9100   23.6339 C   0  0  0  0  0  0
  -16.7283  -28.6514   23.0371 C   0  0  0  0  0  0
  -26.4505  -31.6573   25.0732 C   0  0  0  0  0  0
  -25.3691  -31.3741   26.1423 C   0  0  0  0  0  0
  -27.0366  -30.2981   24.6269 C   0  0  0  0  0  0
  -27.6048  -32.4330   25.7501 C   0  0  0  0  0  0
  -27.5578  -37.1781   24.8460 C   0  0  0  0  0  0
  -21.4236  -29.3061   22.3632 N   0  0  0  0  0  0
  -26.4284  -37.3763   23.9412 N   0  0  0  0  0  0
  -24.7091  -31.0402   22.0930 N   0  0  0  0  0  0
  -23.4200  -28.8143   23.3052 O   0  0  0  0  0  0
  -28.2818  -26.2450   20.1544 O   0  0  0  0  0  0
  -26.5660  -34.8904   22.4659 O   0  0  0  0  0  0
  -23.5510  -32.1364   23.7154 O   0  0  0  0  0  0
  -29.2587  -20.9250   19.9740 C   0  0  0  0  0  0
  -28.6699  -22.1070   20.6300 C   0  0  0  0  0  0
  -29.8442  -21.2407   18.7122 C   0  0  0  0  0  0
  -28.6964  -23.4669   20.0512 C   0  0  0  0  0  0
  -29.8273  -22.5761   18.2171 C   0  0  0  0  0  0
  -28.6127  -18.2245   19.7053 C   0  0  0  0  0  0
  -30.7044  -18.7249   20.8053 C   0  0  0  0  0  0
  -28.7262  -16.6814   20.1671 C   0  0  0  0  0  0
  -30.7376  -17.2414   21.3940 C   0  0  0  0  0  0
  -29.2987  -19.3777   20.5460 C   0  0  0  0  0  0
  -27.9998  -21.9074   21.9808 C   0  0  0  0  0  0
  -30.4344  -22.9077   16.8635 C   0  0  0  0  0  0
  -28.0169  -24.8187   20.6549 C   0  0  0  0  0  0
  -29.2857  -23.6368   18.8539 N   0  0  0  0  0  0
  -30.0283  -16.1308   20.6697 N   0  0  0  0  0  0
  -30.4473  -20.2542   17.9259 N   0  0  0  0  0  0
  -31.4507  -12.6675   19.1571 H   0  0  0  0  0  0
  -30.3818  -11.5988   20.0186 H   0  0  0  0  0  0
  -29.8070  -11.7135   17.5573 H   0  0  0  0  0  0
  -29.5902  -13.4429   17.6810 H   0  0  0  0  0  0
  -27.9251  -11.2550   18.9666 H   0  0  0  0  0  0
  -27.3692  -12.4394   17.8134 H   0  0  0  0  0  0
  -27.5542  -14.2123   19.3764 H   0  0  0  0  0  0
  -28.7486  -12.3326   21.4760 H   0  0  0  0  0  0
  -28.3799  -14.0270   21.7115 H   0  0  0  0  0  0
  -25.2749   -9.5660   22.4778 H   0  0  0  0  0  0
  -23.9996   -7.4610   22.7472 H   0  0  0  0  0  0
  -21.0849   -8.8760   19.8948 H   0  0  0  0  0  0
  -22.3697  -10.9665   19.6187 H   0  0  0  0  0  0
  -21.1992   -7.6147   23.9720 H   0  0  0  0  0  0
  -21.1476   -6.0529   25.9083 H   0  0  0  0  0  0
  -22.0599   -2.7612   23.2864 H   0  0  0  0  0  0
  -22.4039  -11.9857   22.4837 H   0  0  0  0  0  0
  -21.1026  -13.1203   22.2646 H   0  0  0  0  0  0
  -24.6486  -15.8444   20.5392 H   0  0  0  0  0  0
  -26.2649  -15.6296   20.0970 H   0  0  0  0  0  0
  -26.7242  -32.5357   23.1050 H   0  0  0  0  0  0
  -25.0033  -33.9654   25.0324 H   0  0  0  0  0  0
  -22.7409  -31.2933   21.3848 H   0  0  0  0  0  0
  -23.3765  -35.9586   23.3277 H   0  0  0  0  0  0
  -24.3578  -36.8938   22.2061 H   0  0  0  0  0  0
  -23.7207  -37.6441   23.6701 H   0  0  0  0  0  0
  -26.1331  -31.4952   20.6067 H   0  0  0  0  0  0
  -26.8661  -30.7970   22.0178 H   0  0  0  0  0  0
  -28.1351  -28.8633   21.2139 H   0  0  0  0  0  0
  -25.9625  -25.8693   18.9996 H   0  0  0  0  0  0
  -23.9811  -27.2962   18.9895 H   0  0  0  0  0  0
  -23.7884  -30.5686   19.3992 H   0  0  0  0  0  0
  -22.7799  -29.2298   19.8568 H   0  0  0  0  0  0
  -25.1289  -36.1903   25.0813 H   0  0  0  0  0  0
  -20.9991  -28.3332   24.1383 H   0  0  0  0  0  0
  -20.5709  -26.2349   23.3634 H   0  0  0  0  0  0
  -21.6650  -26.7472   22.1192 H   0  0  0  0  0  0
  -19.6917  -25.6307   21.1269 H   0  0  0  0  0  0
  -19.6681  -27.3208   20.6755 H   0  0  0  0  0  0
  -17.4204  -26.6716   21.4039 H   0  0  0  0  0  0
  -18.0319  -26.0096   22.9036 H   0  0  0  0  0  0
  -19.7937  -30.7309   24.2268 H   0  0  0  0  0  0
  -17.5009  -31.6279   24.5181 H   0  0  0  0  0  0
  -15.5351  -30.2996   23.7653 H   0  0  0  0  0  0
  -15.8692  -28.0818   22.7090 H   0  0  0  0  0  0
  -24.5871  -30.7098   25.7721 H   0  0  0  0  0  0
  -24.8866  -32.2913   26.4810 H   0  0  0  0  0  0
  -25.7956  -30.8922   27.0229 H   0  0  0  0  0  0
  -26.2979  -29.6710   24.1262 H   0  0  0  0  0  0
  -27.3995  -29.7259   25.4818 H   0  0  0  0  0  0
  -27.8872  -30.4240   23.9568 H   0  0  0  0  0  0
  -27.2668  -33.3665   26.2009 H   0  0  0  0  0  0
  -28.3877  -32.6835   25.0332 H   0  0  0  0  0  0
  -28.0704  -31.8510   26.5465 H   0  0  0  0  0  0
  -28.2561  -38.0106   24.7540 H   0  0  0  0  0  0
  -28.1103  -36.2637   24.6247 H   0  0  0  0  0  0
  -27.2305  -37.1378   25.8863 H   0  0  0  0  0  0
  -20.9447  -29.8757   21.6792 H   0  0  0  0  0  0
  -26.0162  -38.2829   24.1445 H   0  0  0  0  0  0
  -27.5549  -18.4700   19.5989 H   0  0  0  0  0  0
  -28.9969  -18.2620   18.6880 H   0  0  0  0  0  0
  -31.2886  -18.7235   19.8873 H   0  0  0  0  0  0
  -31.2542  -19.3743   21.4873 H   0  0  0  0  0  0
  -28.4336  -16.0952   19.3000 H   0  0  0  0  0  0
  -27.9827  -16.4906   20.9417 H   0  0  0  0  0  0
  -30.3061  -17.2710   22.3954 H   0  0  0  0  0  0
  -31.7823  -16.9694   21.5514 H   0  0  0  0  0  0
  -28.7945  -19.3942   21.5111 H   0  0  0  0  0  0
  -28.7506  -21.6886   22.7409 H   0  0  0  0  0  0
  -27.2952  -21.0761   21.9427 H   0  0  0  0  0  0
  -27.4383  -22.7818   22.3062 H   0  0  0  0  0  0
  -31.5007  -22.6837   16.8620 H   0  0  0  0  0  0
  -30.3136  -23.9610   16.6116 H   0  0  0  0  0  0
  -29.9576  -22.3220   16.0772 H   0  0  0  0  0  0
  -28.3023  -24.8481   21.7061 H   0  0  0  0  0  0
  -26.9441  -24.6294   20.6718 H   0  0  0  0  0  0
  -30.6028  -19.3207   18.2900 H   0  0  0  0  0  0
  -31.0011  -20.4958   17.1101 H   0  0  0  0  0  0
  1 25  1  0  0  0
  1 30  2  0  0  0
  1 85  1  0  0  0
  2  3  1  0  0  0
  2 25  1  0  0  0
  2 87  1  0  0  0
  2 88  1  0  0  0
  3  4  1  0  0  0
  3 89  1  0  0  0
  3 90  1  0  0  0
  4  5  1  0  0  0
  4 91  1  0  0  0
  4 92  1  0  0  0
  5  6  1  0  0  0
  5 26  1  0  0  0
  5 93  1  0  0  0
  6 25  1  0  0  0
  6 94  1  0  0  0
  6 95  1  0  0  0
  7  8  2  0  0  0
  7 26  1  0  0  0
  7 29  1  0  0  0
  8  9  1  0  0  0
  8 22  1  0  0  0
  9 10  1  0  0  0
  9 27  2  0  0  0
 10 11  2  0  0  0
 10 15  1  0  0  0
 11 12  1  0  0  0
 11 96  1  0  0  0
 12 13  2  0  0  0
 12 97  1  0  0  0
 13 14  1  0  0  0
 13 31  1  0  0  0
 14 15  2  0  0  0
 14 98  1  0  0  0
 15 99  1  0  0  0
 16 17  2  0  0  0
 16 21  1  0  0  0
 16 31  1  0  0  0
 17 18  1  0  0  0
 17100  1  0  0  0
 18 19  2  0  0  0
 18101  1  0  0  0
 19 20  1  0  0  0
 19 24  1  0  0  0
 20 21  2  0  0  0
 20102  1  0  0  0
 21 23  1  0  0  0
 22 28  1  0  0  0
 22 32  2  0  0  0
 26 27  1  0  0  0
 28103  1  0  0  0
 28104  1  0  0  0
 29105  1  0  0  0
 29106  1  0  0  0
 33 34  1  0  0  0
 33 66  1  0  0  0
 33 70  2  0  0  0
 34 36  1  0  0  0
 34 59  1  0  0  0
 34107  1  0  0  0
 35 44  2  0  0  0
 35 45  1  0  0  0
 35 68  1  0  0  0
 36 56  1  0  0  0
 36108  1  0  0  0
 37 39  1  0  0  0
 37 47  1  0  0  0
 37 66  1  0  0  0
 37109  1  0  0  0
 38 43  2  0  0  0
 38 46  1  0  0  0
 38 47  1  0  0  0
 39 64  1  0  0  0
 39 67  2  0  0  0
 40 52  1  0  0  0
 40 53  2  0  0  0
 40 58  1  0  0  0
 41110  1  0  0  0
 41111  1  0  0  0
 41112  1  0  0  0
 41 48  1  0  0  0
 42 43  1  0  0  0
 42 66  1  0  0  0
 42113  1  0  0  0
 42114  1  0  0  0
 43 44  1  0  0  0
 44115  1  0  0  0
 45 46  2  0  0  0
 45116  1  0  0  0
 46117  1  0  0  0
 47118  1  0  0  0
 47119  1  0  0  0
 48 56  1  0  0  0
 48 65  1  0  0  0
 48120  1  0  0  0
 49 50  1  0  0  0
 49 53  1  0  0  0
 49 64  1  0  0  0
 49121  1  0  0  0
 50 51  1  0  0  0
 50122  1  0  0  0
 50123  1  0  0  0
 51 52  1  0  0  0
 51124  1  0  0  0
 51125  1  0  0  0
 52126  1  0  0  0
 52127  1  0  0  0
 53 54  1  0  0  0
 54 55  2  0  0  0
 54128  1  0  0  0
 55 57  1  0  0  0
 55129  1  0  0  0
 56 69  2  0  0  0
 57 58  2  0  0  0
 57130  1  0  0  0
 58131  1  0  0  0
 59 60  1  0  0  0
 59 61  1  0  0  0
 59 62  1  0  0  0
 60132  1  0  0  0
 60133  1  0  0  0
 60134  1  0  0  0
 61135  1  0  0  0
 61136  1  0  0  0
 61137  1  0  0  0
 62138  1  0  0  0
 62139  1  0  0  0
 62140  1  0  0  0
 63 65  1  0  0  0
 63141  1  0  0  0
 63142  1  0  0  0
 63143  1  0  0  0
 64144  1  0  0  0
 65145  1  0  0  0
 68 83  1  0  0  0
 71 72  2  0  0  0
 71 73  1  0  0  0
 71 80  1  0  0  0
 72 74  1  0  0  0
 72 81  1  0  0  0
 73 75  2  0  0  0
 73 86  1  0  0  0
 74 83  1  0  0  0
 74 84  2  0  0  0
 75 82  1  0  0  0
 75 84  1  0  0  0
 76 78  1  0  0  0
 76 80  1  0  0  0
 76146  1  0  0  0
 76147  1  0  0  0
 77 79  1  0  0  0
 77 80  1  0  0  0
 77148  1  0  0  0
 77149  1  0  0  0
 78 85  1  0  0  0
 78150  1  0  0  0
 78151  1  0  0  0
 79 85  1  0  0  0
 79152  1  0  0  0
 79153  1  0  0  0
 80154  1  0  0  0
 81155  1  0  0  0
 81156  1  0  0  0
 81157  1  0  0  0
 82158  1  0  0  0
 82159  1  0  0  0
 82160  1  0  0  0
 83161  1  0  0  0
 83162  1  0  0  0
 86163  1  0  0  0
 86164  1  0  0  0
M  ISO  4   1 100  68 101  83 101  85 100
M  END
> <chiral flag>
0

> <version>
0

> <s_m_source_file>
/data/baiqing/PycharmProjects/Reinvent-master-3.2/result/LINK_invent/BTK/process_docking_weight1_custom_sum_contain_oxygen_bond_distance_aromatic_linkinvent_7_9_3/rearranged_h_0168.sdf

> <i_m_source_file_index>
9

> <r_mmod_Potential_Energy-OPLS-2005>
452.533660888672

> <r_mmod_Stretch_Energy-OPLS-2005>
185.47346496582

> <r_mmod_Bend_Energy-OPLS-2005>
235.947006225586

> <r_mmod_Torsional_Energy-OPLS-2005>
334.388763427734

> <r_mmod_Improper_Torsional_Energy-OPLS-2005>
2.86989593505859

> <r_mmod_Van_der_Waal_Energy-OPLS-2005>
146.160217285156

> <r_mmod_Electrostatic_Energy-OPLS-2005>
-372.132965087891

> <r_mmod_Solvation_Energy-OPLS-2005>
-224.900665283203

> <b_mmod_Minimization_Converged-OPLS-2005>
0

> <r_mmod_RMS_Derivative-OPLS-2005>
1.57125151157379

$$$$
9
                    3D
 Structure written by MMmdl.
165174  0  0  1  0            999 V2000
  -30.5872  -14.8617   20.4354 C   0  0  0  0  0  0
  -30.4323  -12.5289   19.5001 C   0  0  0  0  0  0
  -29.5169  -12.5187   18.2551 C   0  0  0  0  0  0
  -28.0473  -12.3220   18.6699 C   0  0  0  0  0  0
  -27.6349  -13.2449   19.8474 C   0  0  2  0  0  0
  -28.6766  -13.2421   20.9883 C   0  0  0  0  0  0
  -25.2473  -13.8218   20.5712 C   0  0  0  0  0  0
  -24.1787  -13.0448   20.9227 C   0  0  0  0  0  0
  -24.6395  -11.6929   20.8763 C   0  0  0  0  0  0
  -23.9079  -10.4299   21.0410 C   0  0  0  0  0  0
  -24.3626   -9.4211   21.9188 C   0  0  0  0  0  0
  -23.6297   -8.2249   22.0759 C   0  0  0  0  0  0
  -22.4281   -8.0286   21.3544 C   0  0  0  0  0  0
  -21.9920   -9.0260   20.4645 C   0  0  0  0  0  0
  -22.7254  -10.2138   20.3054 C   0  0  0  0  0  0
  -21.6851   -6.0736   22.5275 C   0  0  0  0  0  0
  -21.4014   -6.5640   23.8208 C   0  0  0  0  0  0
  -21.3661   -5.6795   24.9172 C   0  0  0  0  0  0
  -21.6039   -4.3055   24.7221 C   0  0  0  0  0  0
  -21.8823   -3.8147   23.4343 C   0  0  0  0  0  0
  -21.9196   -4.6965   22.3399 C   0  0  0  0  0  0
  -22.7804  -13.5218   21.1875 C   0  0  0  0  0  0
  -22.1662   -4.2150   21.0976 F   0  0  0  0  0  0
  -21.5630   -3.4540   25.7733 F   0  0  0  0  0  0
  -29.9668  -13.6206   20.3996 N   0  0  0  0  0  0
  -26.2907  -12.9450   20.3279 N   0  0  0  0  0  0
  -25.9328  -11.6580   20.5762 N   0  0  0  0  0  0
  -22.0445  -12.8203   22.0419 N   0  0  0  0  0  0
  -25.4144  -15.1947   20.4121 N   0  0  0  0  0  0
  -31.7690  -14.9170   20.0874 O   0  0  0  0  0  0
  -21.6644   -6.8884   21.4237 O   0  0  0  0  0  0
  -22.3491  -14.5525   20.6719 O   0  0  0  0  0  0
  -24.6410  -31.8480   23.1955 C   0  0  0  0  0  0
  -25.9190  -32.4720   23.8321 C   0  0  1  0  0  0
  -27.2036  -27.1631   20.1377 C   0  0  0  0  0  0
  -25.5954  -33.8528   24.2236 N   0  0  0  0  0  0
  -23.4426  -30.4737   21.5404 C   0  0  2  0  0  0
  -24.8908  -28.9181   20.1048 C   0  0  0  0  0  0
  -22.7562  -29.4572   22.4869 C   0  0  0  0  0  0
  -18.0304  -28.1402   22.8484 C   0  0  0  0  0  0
  -24.1491  -36.7265   23.2636 C   0  0  0  0  0  0
  -25.9987  -30.7290   21.3948 C   0  0  0  0  0  0
  -26.0674  -29.3451   20.7335 C   0  0  0  0  0  0
  -27.2230  -28.4798   20.7453 C   0  0  0  0  0  0
  -26.0105  -26.8578   19.4386 C   0  0  0  0  0  0
  -24.8751  -27.6873   19.4411 C   0  0  0  0  0  0
  -23.6676  -29.8166   20.1547 C   0  0  0  0  0  0
  -25.4119  -36.3047   24.0318 C   0  0  1  0  0  0
  -20.5922  -28.3725   23.1244 C   0  0  2  0  0  0
  -20.6798  -26.9433   22.5403 C   0  0  0  0  0  0
  -19.5764  -26.6395   21.5219 C   0  0  0  0  0  0
  -18.1945  -26.7944   22.1627 C   0  0  0  0  0  0
  -19.1564  -28.8881   23.2854 C   0  0  0  0  0  0
  -18.9476  -30.1477   23.8882 C   0  0  0  0  0  0
  -17.6473  -30.6597   24.0570 C   0  0  0  0  0  0
  -25.9068  -34.9420   23.5084 C   0  0  0  0  0  0
  -16.5363  -29.9094   23.6340 C   0  0  0  0  0  0
  -16.7289  -28.6514   23.0358 C   0  0  0  0  0  0
  -26.4530  -31.6569   25.0735 C   0  0  0  0  0  0
  -25.3726  -31.3716   26.1431 C   0  0  0  0  0  0
  -27.0404  -30.2979   24.6283 C   0  0  0  0  0  0
  -27.6068  -32.4324   25.7519 C   0  0  0  0  0  0
  -27.5580  -37.1784   24.8460 C   0  0  0  0  0  0
  -21.4257  -29.3058   22.3618 N   0  0  0  0  0  0
  -26.4287  -37.3755   23.9409 N   0  0  0  0  0  0
  -24.7138  -31.0367   22.0984 N   0  0  0  0  0  0
  -23.4221  -28.8098   23.2990 O   0  0  0  0  0  0
  -28.2238  -26.1513   20.2409 O   0  0  0  0  0  0
  -26.5650  -34.8906   22.4661 O   0  0  0  0  0  0
  -23.5534  -32.1341   23.7188 O   0  0  0  0  0  0
  -29.7207  -21.0884   19.7329 C   0  0  0  0  0  0
  -29.0862  -20.3468   20.7790 C   0  0  0  0  0  0
  -29.4573  -22.4961   19.4879 C   0  0  0  0  0  0
  -28.1877  -21.2012   21.5165 C   0  0  0  0  0  0
  -28.5462  -23.2666   20.2896 C   0  0  0  0  0  0
  -30.3255  -18.8745   22.4127 C   0  0  0  0  0  0
  -31.6371  -17.9011   20.7191 C   0  0  0  0  0  0
  -29.3570  -18.7807   21.2292 C   0  0  2  0  0  0
  -30.1477  -17.5751   20.4074 C   0  0  2  0  0  0
  -30.1299  -23.1540   18.2968 C   0  0  0  0  0  0
  -25.9723  -20.1530   22.1809 C   0  0  0  0  0  0
  -27.3393  -20.6577   22.6608 C   0  0  0  0  0  0
  -27.8570  -24.6975   19.8710 C   0  0  0  0  0  0
  -27.9442  -22.5414   21.2787 N   0  0  0  0  0  0
  -29.8471  -16.0449   20.6597 N   0  0  0  0  0  0
  -31.6415  -18.9302   21.7709 N   0  3  0  0  0  0
  -31.4717  -12.6573   19.1934 H   0  0  0  0  0  0
  -30.3948  -11.5682   20.0163 H   0  0  0  0  0  0
  -29.8213  -11.7275   17.5685 H   0  0  0  0  0  0
  -29.6241  -13.4580   17.7104 H   0  0  0  0  0  0
  -27.9281  -11.2780   18.9629 H   0  0  0  0  0  0
  -27.3870  -12.4757   17.8159 H   0  0  0  0  0  0
  -27.6109  -14.2543   19.4359 H   0  0  0  0  0  0
  -28.7383  -12.2616   21.4621 H   0  0  0  0  0  0
  -28.3896  -13.9453   21.7717 H   0  0  0  0  0  0
  -25.2764   -9.5688   22.4769 H   0  0  0  0  0  0
  -23.9999   -7.4641   22.7482 H   0  0  0  0  0  0
  -21.0853   -8.8781   19.8948 H   0  0  0  0  0  0
  -22.3710  -10.9678   19.6167 H   0  0  0  0  0  0
  -21.2006   -7.6148   23.9710 H   0  0  0  0  0  0
  -21.1476   -6.0524   25.9074 H   0  0  0  0  0  0
  -22.0602   -2.7608   23.2841 H   0  0  0  0  0  0
  -22.4058  -11.9860   22.4800 H   0  0  0  0  0  0
  -21.1055  -13.1217   22.2610 H   0  0  0  0  0  0
  -24.6400  -15.8419   20.5127 H   0  0  0  0  0  0
  -26.2491  -15.6321   20.0444 H   0  0  0  0  0  0
  -26.7254  -32.5349   23.1050 H   0  0  0  0  0  0
  -25.0086  -33.9646   25.0374 H   0  0  0  0  0  0
  -22.7428  -31.2993   21.3950 H   0  0  0  0  0  0
  -23.3763  -35.9587   23.3283 H   0  0  0  0  0  0
  -24.3569  -36.8911   22.2053 H   0  0  0  0  0  0
  -23.7240  -37.6454   23.6683 H   0  0  0  0  0  0
  -26.1520  -31.4841   20.6224 H   0  0  0  0  0  0
  -26.8698  -30.7771   22.0362 H   0  0  0  0  0  0
  -28.1112  -28.7919   21.2774 H   0  0  0  0  0  0
  -25.8993  -25.9369   18.8896 H   0  0  0  0  0  0
  -23.9845  -27.3654   18.9193 H   0  0  0  0  0  0
  -23.8015  -30.5976   19.4054 H   0  0  0  0  0  0
  -22.7823  -29.2594   19.8422 H   0  0  0  0  0  0
  -25.1307  -36.1881   25.0809 H   0  0  0  0  0  0
  -21.0013  -28.3319   24.1367 H   0  0  0  0  0  0
  -20.5721  -26.2333   23.3614 H   0  0  0  0  0  0
  -21.6660  -26.7464   22.1179 H   0  0  0  0  0  0
  -19.6916  -25.6304   21.1252 H   0  0  0  0  0  0
  -19.6697  -27.3205   20.6749 H   0  0  0  0  0  0
  -17.4216  -26.6703   21.4025 H   0  0  0  0  0  0
  -18.0323  -26.0090   22.9023 H   0  0  0  0  0  0
  -19.7953  -30.7299   24.2245 H   0  0  0  0  0  0
  -17.5028  -31.6275   24.5173 H   0  0  0  0  0  0
  -15.5362  -30.2988   23.7680 H   0  0  0  0  0  0
  -15.8690  -28.0831   22.7074 H   0  0  0  0  0  0
  -24.5940  -30.7028   25.7742 H   0  0  0  0  0  0
  -24.8873  -32.2874   26.4812 H   0  0  0  0  0  0
  -25.8026  -30.8926   27.0236 H   0  0  0  0  0  0
  -26.3022  -29.6687   24.1297 H   0  0  0  0  0  0
  -27.4053  -29.7275   25.4831 H   0  0  0  0  0  0
  -27.8916  -30.4235   23.9588 H   0  0  0  0  0  0
  -27.2691  -33.3666   26.2021 H   0  0  0  0  0  0
  -28.3928  -32.6808   25.0374 H   0  0  0  0  0  0
  -28.0682  -31.8489   26.5491 H   0  0  0  0  0  0
  -28.2571  -38.0109   24.7545 H   0  0  0  0  0  0
  -28.1110  -36.2638   24.6258 H   0  0  0  0  0  0
  -27.2291  -37.1396   25.8860 H   0  0  0  0  0  0
  -20.9444  -29.8794   21.6833 H   0  0  0  0  0  0
  -26.0157  -38.2822   24.1434 H   0  0  0  0  0  0
  -30.4197  -20.5718   19.0902 H   0  0  0  0  0  0
  -30.2658  -17.9763   23.0310 H   0  0  0  0  0  0
  -30.1607  -19.7320   23.0653 H   0  0  0  0  0  0
  -32.1603  -18.2691   19.8362 H   0  0  0  0  0  0
  -32.2053  -17.0610   21.1089 H   0  0  0  0  0  0
  -28.3962  -18.3780   21.5487 H   0  0  0  0  0  0
  -29.9564  -17.7238   19.3440 H   0  0  0  0  0  0
  -31.0334  -22.6168   18.0058 H   0  0  0  0  0  0
  -30.4157  -24.1803   18.5289 H   0  0  0  0  0  0
  -29.4556  -23.1693   17.4397 H   0  0  0  0  0  0
  -25.3830  -19.7769   23.0173 H   0  0  0  0  0  0
  -26.0804  -19.3464   21.4555 H   0  0  0  0  0  0
  -25.4044  -20.9534   21.7069 H   0  0  0  0  0  0
  -27.1891  -21.4494   23.3963 H   0  0  0  0  0  0
  -27.8542  -19.8685   23.2041 H   0  0  0  0  0  0
  -26.8372  -24.5483   20.2260 H   0  0  0  0  0  0
  -27.7879  -24.6770   18.7832 H   0  0  0  0  0  0
  -28.8919  -15.8593   20.9267 H   0  0  0  0  0  0
  -32.3851  -18.7787   22.4322 H   0  0  0  0  0  0
  -31.7576  -19.8387   21.3538 H   0  0  0  0  0  0
  1 25  1  0  0  0
  1 30  2  0  0  0
  1 85  1  0  0  0
  2  3  1  0  0  0
  2 25  1  0  0  0
  2 87  1  0  0  0
  2 88  1  0  0  0
  3  4  1  0  0  0
  3 89  1  0  0  0
  3 90  1  0  0  0
  4  5  1  0  0  0
  4 91  1  0  0  0
  4 92  1  0  0  0
  5  6  1  0  0  0
  5 26  1  0  0  0
  5 93  1  0  0  0
  6 25  1  0  0  0
  6 94  1  0  0  0
  6 95  1  0  0  0
  7  8  2  0  0  0
  7 26  1  0  0  0
  7 29  1  0  0  0
  8  9  1  0  0  0
  8 22  1  0  0  0
  9 10  1  0  0  0
  9 27  2  0  0  0
 10 11  2  0  0  0
 10 15  1  0  0  0
 11 12  1  0  0  0
 11 96  1  0  0  0
 12 13  2  0  0  0
 12 97  1  0  0  0
 13 14  1  0  0  0
 13 31  1  0  0  0
 14 15  2  0  0  0
 14 98  1  0  0  0
 15 99  1  0  0  0
 16 17  2  0  0  0
 16 21  1  0  0  0
 16 31  1  0  0  0
 17 18  1  0  0  0
 17100  1  0  0  0
 18 19  2  0  0  0
 18101  1  0  0  0
 19 20  1  0  0  0
 19 24  1  0  0  0
 20 21  2  0  0  0
 20102  1  0  0  0
 21 23  1  0  0  0
 22 28  1  0  0  0
 22 32  2  0  0  0
 26 27  1  0  0  0
 28103  1  0  0  0
 28104  1  0  0  0
 29105  1  0  0  0
 29106  1  0  0  0
 33 34  1  0  0  0
 33 66  1  0  0  0
 33 70  2  0  0  0
 34 36  1  0  0  0
 34 59  1  0  0  0
 34107  1  0  0  0
 35 44  2  0  0  0
 35 45  1  0  0  0
 35 68  1  0  0  0
 36 56  1  0  0  0
 36108  1  0  0  0
 37 39  1  0  0  0
 37 47  1  0  0  0
 37 66  1  0  0  0
 37109  1  0  0  0
 38 43  2  0  0  0
 38 46  1  0  0  0
 38 47  1  0  0  0
 39 64  1  0  0  0
 39 67  2  0  0  0
 40 52  1  0  0  0
 40 53  2  0  0  0
 40 58  1  0  0  0
 41110  1  0  0  0
 41111  1  0  0  0
 41112  1  0  0  0
 41 48  1  0  0  0
 42 43  1  0  0  0
 42 66  1  0  0  0
 42113  1  0  0  0
 42114  1  0  0  0
 43 44  1  0  0  0
 44115  1  0  0  0
 45 46  2  0  0  0
 45116  1  0  0  0
 46117  1  0  0  0
 47118  1  0  0  0
 47119  1  0  0  0
 48 56  1  0  0  0
 48 65  1  0  0  0
 48120  1  0  0  0
 49 50  1  0  0  0
 49 53  1  0  0  0
 49 64  1  0  0  0
 49121  1  0  0  0
 50 51  1  0  0  0
 50122  1  0  0  0
 50123  1  0  0  0
 51 52  1  0  0  0
 51124  1  0  0  0
 51125  1  0  0  0
 52126  1  0  0  0
 52127  1  0  0  0
 53 54  1  0  0  0
 54 55  2  0  0  0
 54128  1  0  0  0
 55 57  1  0  0  0
 55129  1  0  0  0
 56 69  2  0  0  0
 57 58  2  0  0  0
 57130  1  0  0  0
 58131  1  0  0  0
 59 60  1  0  0  0
 59 61  1  0  0  0
 59 62  1  0  0  0
 60132  1  0  0  0
 60133  1  0  0  0
 60134  1  0  0  0
 61135  1  0  0  0
 61136  1  0  0  0
 61137  1  0  0  0
 62138  1  0  0  0
 62139  1  0  0  0
 62140  1  0  0  0
 63 65  1  0  0  0
 63141  1  0  0  0
 63142  1  0  0  0
 63143  1  0  0  0
 64144  1  0  0  0
 65145  1  0  0  0
 68 83  1  0  0  0
 71 72  2  0  0  0
 71 73  1  0  0  0
 71146  1  0  0  0
 72 74  1  0  0  0
 72 78  1  0  0  0
 73 75  2  0  0  0
 73 80  1  0  0  0
 74 82  1  0  0  0
 74 84  2  0  0  0
 75 83  1  0  0  0
 75 84  1  0  0  0
 76 78  1  0  0  0
 76 86  1  0  0  0
 76147  1  0  0  0
 76148  1  0  0  0
 77 79  1  0  0  0
 77 86  1  0  0  0
 77149  1  0  0  0
 77150  1  0  0  0
 78 79  1  0  0  0
 78151  1  0  0  0
 79 85  1  0  0  0
 79152  1  0  0  0
 80153  1  0  0  0
 80154  1  0  0  0
 80155  1  0  0  0
 81 82  1  0  0  0
 81156  1  0  0  0
 81157  1  0  0  0
 81158  1  0  0  0
 82159  1  0  0  0
 82160  1  0  0  0
 83161  1  0  0  0
 83162  1  0  0  0
 85163  1  0  0  0
 86164  1  0  0  0
 86165  1  0  0  0
M  CHG  1  86   1
M  ISO  4   1 100  68 101  83 101  85 100
M  END
> <chiral flag>
0

> <version>
0

> <s_m_source_file>
/data/baiqing/PycharmProjects/Reinvent-master-3.2/result/LINK_invent/BTK/process_docking_weight1_custom_sum_contain_oxygen_bond_distance_aromatic_linkinvent_7_9_3/rearranged_h_0168.sdf

> <i_m_source_file_index>
10

> <r_mmod_Potential_Energy-OPLS-2005>
102.957130432129

> <r_mmod_Stretch_Energy-OPLS-2005>
207.428512573242

> <r_mmod_Bend_Energy-OPLS-2005>
289.041259765625

> <r_mmod_Torsional_Energy-OPLS-2005>
301.524841308594

> <r_mmod_Improper_Torsional_Energy-OPLS-2005>
8.18155097961426

> <r_mmod_Van_der_Waal_Energy-OPLS-2005>
145.301879882812

> <r_mmod_Electrostatic_Energy-OPLS-2005>
-527.871215820312

> <r_mmod_Solvation_Energy-OPLS-2005>
-478.505004882812

> <b_mmod_Minimization_Converged-OPLS-2005>
0

> <r_mmod_RMS_Derivative-OPLS-2005>
1.11257565021515

$$$$
10
                    3D
 Structure written by MMmdl.
165174  0  0  1  0            999 V2000
  -30.4226  -15.2141   20.3874 C   0  0  0  0  0  0
  -30.4481  -12.7707   19.5238 C   0  0  0  0  0  0
  -29.5394  -12.5778   18.2826 C   0  0  0  0  0  0
  -28.0838  -12.3044   18.7049 C   0  0  0  0  0  0
  -27.6170  -13.2634   19.8278 C   0  0  2  0  0  0
  -28.6520  -13.3966   20.9658 C   0  0  0  0  0  0
  -25.2373  -13.8115   20.5648 C   0  0  0  0  0  0
  -24.1742  -13.0362   20.9262 C   0  0  0  0  0  0
  -24.6401  -11.6869   20.8780 C   0  0  0  0  0  0
  -23.9084  -10.4257   21.0428 C   0  0  0  0  0  0
  -24.3630   -9.4177   21.9202 C   0  0  0  0  0  0
  -23.6297   -8.2218   22.0760 C   0  0  0  0  0  0
  -22.4278   -8.0270   21.3549 C   0  0  0  0  0  0
  -21.9923   -9.0244   20.4649 C   0  0  0  0  0  0
  -22.7260  -10.2118   20.3066 C   0  0  0  0  0  0
  -21.6846   -6.0732   22.5284 C   0  0  0  0  0  0
  -21.4006   -6.5637   23.8217 C   0  0  0  0  0  0
  -21.3656   -5.6789   24.9180 C   0  0  0  0  0  0
  -21.6048   -4.3054   24.7225 C   0  0  0  0  0  0
  -21.8815   -3.8145   23.4345 C   0  0  0  0  0  0
  -21.9187   -4.6962   22.3403 C   0  0  0  0  0  0
  -22.7768  -13.5163   21.1893 C   0  0  0  0  0  0
  -22.1661   -4.2150   21.0979 F   0  0  0  0  0  0
  -21.5631   -3.4539   25.7736 F   0  0  0  0  0  0
  -29.8945  -13.8974   20.3544 N   0  0  0  0  0  0
  -26.2831  -12.9414   20.3191 N   0  0  0  0  0  0
  -25.9342  -11.6540   20.5739 N   0  0  0  0  0  0
  -22.0404  -12.8178   22.0452 N   0  0  0  0  0  0
  -25.3923  -15.1784   20.3856 N   0  0  0  0  0  0
  -31.6378  -15.2750   20.1510 O   0  0  0  0  0  0
  -21.6631   -6.8879   21.4246 O   0  0  0  0  0  0
  -22.3476  -14.5473   20.6725 O   0  0  0  0  0  0
  -24.6587  -31.8268   23.1721 C   0  0  0  0  0  0
  -25.9284  -32.4604   23.8176 C   0  0  1  0  0  0
  -27.2293  -26.9676   20.1880 C   0  0  0  0  0  0
  -25.5964  -33.8417   24.2087 N   0  0  0  0  0  0
  -23.4720  -30.4374   21.5209 C   0  0  2  0  0  0
  -24.9271  -28.8266   20.1176 C   0  0  0  0  0  0
  -22.7644  -29.4453   22.4799 C   0  0  0  0  0  0
  -18.0313  -28.1403   22.8459 C   0  0  0  0  0  0
  -24.1498  -36.7224   23.2642 C   0  0  0  0  0  0
  -26.0380  -30.6475   21.3948 C   0  0  0  0  0  0
  -26.1094  -29.2390   20.7443 C   0  0  0  0  0  0
  -27.2571  -28.3317   20.7508 C   0  0  0  0  0  0
  -26.0147  -26.6934   19.5204 C   0  0  0  0  0  0
  -24.9019  -27.5726   19.4857 C   0  0  0  0  0  0
  -23.7111  -29.7501   20.1482 C   0  0  0  0  0  0
  -25.4136  -36.2980   24.0298 C   0  0  1  0  0  0
  -20.5934  -28.3746   23.1196 C   0  0  2  0  0  0
  -20.6795  -26.9433   22.5402 C   0  0  0  0  0  0
  -19.5776  -26.6378   21.5206 C   0  0  0  0  0  0
  -18.1953  -26.7938   22.1611 C   0  0  0  0  0  0
  -19.1572  -28.8895   23.2816 C   0  0  0  0  0  0
  -18.9485  -30.1484   23.8852 C   0  0  0  0  0  0
  -17.6480  -30.6596   24.0551 C   0  0  0  0  0  0
  -25.9095  -34.9360   23.5018 C   0  0  0  0  0  0
  -16.5370  -29.9085   23.6340 C   0  0  0  0  0  0
  -16.7294  -28.6506   23.0355 C   0  0  0  0  0  0
  -26.4550  -31.6527   25.0686 C   0  0  0  0  0  0
  -25.3687  -31.3763   26.1348 C   0  0  0  0  0  0
  -27.0437  -30.2896   24.6385 C   0  0  0  0  0  0
  -27.6049  -32.4323   25.7489 C   0  0  0  0  0  0
  -27.5577  -37.1768   24.8460 C   0  0  0  0  0  0
  -21.4316  -29.3045   22.3552 N   0  0  0  0  0  0
  -26.4286  -37.3711   23.9402 N   0  0  0  0  0  0
  -24.7440  -30.9965   22.0835 N   0  0  0  0  0  0
  -23.4210  -28.8023   23.3029 O   0  0  0  0  0  0
  -28.2710  -25.9118   20.2178 O   0  0  0  0  0  0
  -26.5704  -34.8890   22.4613 O   0  0  0  0  0  0
  -23.5667  -32.1217   23.6835 O   0  0  0  0  0  0
  -30.6375  -18.9729   20.4814 C   0  0  0  0  0  0
  -30.5280  -20.4548   20.4147 C   0  0  0  0  0  0
  -29.5550  -18.0219   20.4022 C   0  0  0  0  0  0
  -28.3577  -18.8644   20.2719 C   0  0  0  0  0  0
  -29.2705  -21.2115   20.2873 C   0  0  0  0  0  0
  -25.6853  -18.9199   20.1870 C   0  0  0  0  0  0
  -26.1328  -18.2907   21.4852 C   0  0  0  0  0  0
  -27.0144  -18.1900   20.2585 C   0  0  0  0  0  0
  -33.0013  -20.5659   19.6767 C   0  0  0  0  0  0
  -32.2658  -21.5186   21.9101 C   0  0  0  0  0  0
  -29.3168  -23.0545   18.4250 C   0  0  0  0  0  0
  -28.0784  -24.2911   20.3777 C   0  0  0  0  0  0
  -31.8524  -21.2311   20.4600 C   0  0  0  0  0  0
  -29.1349  -22.9277   19.9437 C   0  0  1  0  0  0
  -28.2450  -20.2837   20.1796 N   0  0  0  0  0  0
  -29.5678  -16.4079   20.4908 N   0  0  0  0  0  0
  -31.4683  -12.9803   19.1995 H   0  0  0  0  0  0
  -30.5094  -11.8505   20.1070 H   0  0  0  0  0  0
  -29.9133  -11.7646   17.6585 H   0  0  0  0  0  0
  -29.5764  -13.4776   17.6665 H   0  0  0  0  0  0
  -28.0305  -11.2747   19.0595 H   0  0  0  0  0  0
  -27.4174  -12.3652   17.8436 H   0  0  0  0  0  0
  -27.5447  -14.2409   19.3502 H   0  0  0  0  0  0
  -28.8049  -12.4456   21.4785 H   0  0  0  0  0  0
  -28.2985  -14.1017   21.7200 H   0  0  0  0  0  0
  -25.2766   -9.5649   22.4788 H   0  0  0  0  0  0
  -23.9994   -7.4602   22.7481 H   0  0  0  0  0  0
  -21.0850   -8.8773   19.8954 H   0  0  0  0  0  0
  -22.3726  -10.9662   19.6181 H   0  0  0  0  0  0
  -21.2004   -7.6146   23.9724 H   0  0  0  0  0  0
  -21.1482   -6.0518   25.9083 H   0  0  0  0  0  0
  -22.0598   -2.7607   23.2842 H   0  0  0  0  0  0
  -22.4001  -11.9844   22.4862 H   0  0  0  0  0  0
  -21.1023  -13.1226   22.2642 H   0  0  0  0  0  0
  -24.5989  -15.8059   20.4506 H   0  0  0  0  0  0
  -26.1853  -15.5835   19.9113 H   0  0  0  0  0  0
  -26.7350  -32.5165   23.0891 H   0  0  0  0  0  0
  -25.0058  -33.9504   25.0199 H   0  0  0  0  0  0
  -22.7828  -31.2670   21.3497 H   0  0  0  0  0  0
  -23.3771  -35.9545   23.3268 H   0  0  0  0  0  0
  -24.3579  -36.8906   22.2066 H   0  0  0  0  0  0
  -23.7250  -37.6399   23.6721 H   0  0  0  0  0  0
  -26.2087  -31.3883   20.6122 H   0  0  0  0  0  0
  -26.9017  -30.7083   22.0453 H   0  0  0  0  0  0
  -28.1586  -28.6509   21.2542 H   0  0  0  0  0  0
  -25.9017  -25.7394   19.0266 H   0  0  0  0  0  0
  -24.0032  -27.2505   18.9775 H   0  0  0  0  0  0
  -23.8643  -30.5165   19.3877 H   0  0  0  0  0  0
  -22.8222  -29.2006   19.8329 H   0  0  0  0  0  0
  -25.1334  -36.1780   25.0790 H   0  0  0  0  0  0
  -21.0014  -28.3351   24.1322 H   0  0  0  0  0  0
  -20.5671  -26.2364   23.3637 H   0  0  0  0  0  0
  -21.6662  -26.7419   22.1212 H   0  0  0  0  0  0
  -19.6942  -25.6277   21.1265 H   0  0  0  0  0  0
  -19.6718  -27.3162   20.6715 H   0  0  0  0  0  0
  -17.4223  -26.6666   21.4016 H   0  0  0  0  0  0
  -18.0357  -26.0093   22.9022 H   0  0  0  0  0  0
  -19.7962  -30.7307   24.2206 H   0  0  0  0  0  0
  -17.5035  -31.6272   24.5163 H   0  0  0  0  0  0
  -15.5371  -30.2974   23.7695 H   0  0  0  0  0  0
  -15.8691  -28.0816   22.7094 H   0  0  0  0  0  0
  -24.5890  -30.7089   25.7655 H   0  0  0  0  0  0
  -24.8854  -32.2962   26.4651 H   0  0  0  0  0  0
  -25.7932  -30.9011   27.0202 H   0  0  0  0  0  0
  -26.3089  -29.6574   24.1387 H   0  0  0  0  0  0
  -27.3977  -29.7251   25.5021 H   0  0  0  0  0  0
  -27.9029  -30.4076   23.9778 H   0  0  0  0  0  0
  -27.2622  -33.3665   26.1950 H   0  0  0  0  0  0
  -28.3925  -32.6811   25.0364 H   0  0  0  0  0  0
  -28.0642  -31.8521   26.5502 H   0  0  0  0  0  0
  -28.2563  -38.0091   24.7517 H   0  0  0  0  0  0
  -28.1103  -36.2618   24.6274 H   0  0  0  0  0  0
  -27.2294  -37.1395   25.8860 H   0  0  0  0  0  0
  -20.9558  -29.8744   21.6692 H   0  0  0  0  0  0
  -26.0137  -38.2772   24.1406 H   0  0  0  0  0  0
  -31.6138  -18.5337   20.6079 H   0  0  0  0  0  0
  -25.6745  -20.0064   20.1359 H   0  0  0  0  0  0
  -24.8724  -18.4265   19.6586 H   0  0  0  0  0  0
  -25.5988  -17.4056   21.8205 H   0  0  0  0  0  0
  -26.4481  -18.9683   22.2762 H   0  0  0  0  0  0
  -27.0650  -17.2466   19.7219 H   0  0  0  0  0  0
  -32.6969  -20.3185   18.6586 H   0  0  0  0  0  0
  -33.3740  -19.6590   20.1521 H   0  0  0  0  0  0
  -33.8520  -21.2434   19.6002 H   0  0  0  0  0  0
  -31.4947  -22.0798   22.4379 H   0  0  0  0  0  0
  -33.1812  -22.1099   21.9485 H   0  0  0  0  0  0
  -32.4441  -20.5973   22.4662 H   0  0  0  0  0  0
  -30.2096  -22.5286   18.0876 H   0  0  0  0  0  0
  -29.4113  -24.0962   18.1186 H   0  0  0  0  0  0
  -28.4636  -22.6260   17.8998 H   0  0  0  0  0  0
  -27.8980  -24.1725   21.4458 H   0  0  0  0  0  0
  -27.1149  -24.0599   19.9256 H   0  0  0  0  0  0
  -31.7212  -22.1844   19.9558 H   0  0  0  0  0  0
  -30.0429  -23.3044   20.4060 H   0  0  0  0  0  0
  -28.6290  -16.0632   20.6271 H   0  0  0  0  0  0
  1 25  1  0  0  0
  1 30  2  0  0  0
  1 86  1  0  0  0
  2  3  1  0  0  0
  2 25  1  0  0  0
  2 87  1  0  0  0
  2 88  1  0  0  0
  3  4  1  0  0  0
  3 89  1  0  0  0
  3 90  1  0  0  0
  4  5  1  0  0  0
  4 91  1  0  0  0
  4 92  1  0  0  0
  5  6  1  0  0  0
  5 26  1  0  0  0
  5 93  1  0  0  0
  6 25  1  0  0  0
  6 94  1  0  0  0
  6 95  1  0  0  0
  7  8  2  0  0  0
  7 26  1  0  0  0
  7 29  1  0  0  0
  8  9  1  0  0  0
  8 22  1  0  0  0
  9 10  1  0  0  0
  9 27  2  0  0  0
 10 11  2  0  0  0
 10 15  1  0  0  0
 11 12  1  0  0  0
 11 96  1  0  0  0
 12 13  2  0  0  0
 12 97  1  0  0  0
 13 14  1  0  0  0
 13 31  1  0  0  0
 14 15  2  0  0  0
 14 98  1  0  0  0
 15 99  1  0  0  0
 16 17  2  0  0  0
 16 21  1  0  0  0
 16 31  1  0  0  0
 17 18  1  0  0  0
 17100  1  0  0  0
 18 19  2  0  0  0
 18101  1  0  0  0
 19 20  1  0  0  0
 19 24  1  0  0  0
 20 21  2  0  0  0
 20102  1  0  0  0
 21 23  1  0  0  0
 22 28  1  0  0  0
 22 32  2  0  0  0
 26 27  1  0  0  0
 28103  1  0  0  0
 28104  1  0  0  0
 29105  1  0  0  0
 29106  1  0  0  0
 33 34  1  0  0  0
 33 66  1  0  0  0
 33 70  2  0  0  0
 34 36  1  0  0  0
 34 59  1  0  0  0
 34107  1  0  0  0
 35 44  2  0  0  0
 35 45  1  0  0  0
 35 68  1  0  0  0
 36 56  1  0  0  0
 36108  1  0  0  0
 37 39  1  0  0  0
 37 47  1  0  0  0
 37 66  1  0  0  0
 37109  1  0  0  0
 38 43  2  0  0  0
 38 46  1  0  0  0
 38 47  1  0  0  0
 39 64  1  0  0  0
 39 67  2  0  0  0
 40 52  1  0  0  0
 40 53  2  0  0  0
 40 58  1  0  0  0
 41110  1  0  0  0
 41111  1  0  0  0
 41112  1  0  0  0
 41 48  1  0  0  0
 42 43  1  0  0  0
 42 66  1  0  0  0
 42113  1  0  0  0
 42114  1  0  0  0
 43 44  1  0  0  0
 44115  1  0  0  0
 45 46  2  0  0  0
 45116  1  0  0  0
 46117  1  0  0  0
 47118  1  0  0  0
 47119  1  0  0  0
 48 56  1  0  0  0
 48 65  1  0  0  0
 48120  1  0  0  0
 49 50  1  0  0  0
 49 53  1  0  0  0
 49 64  1  0  0  0
 49121  1  0  0  0
 50 51  1  0  0  0
 50122  1  0  0  0
 50123  1  0  0  0
 51 52  1  0  0  0
 51124  1  0  0  0
 51125  1  0  0  0
 52126  1  0  0  0
 52127  1  0  0  0
 53 54  1  0  0  0
 54 55  2  0  0  0
 54128  1  0  0  0
 55 57  1  0  0  0
 55129  1  0  0  0
 56 69  2  0  0  0
 57 58  2  0  0  0
 57130  1  0  0  0
 58131  1  0  0  0
 59 60  1  0  0  0
 59 61  1  0  0  0
 59 62  1  0  0  0
 60132  1  0  0  0
 60133  1  0  0  0
 60134  1  0  0  0
 61135  1  0  0  0
 61136  1  0  0  0
 61137  1  0  0  0
 62138  1  0  0  0
 62139  1  0  0  0
 62140  1  0  0  0
 63 65  1  0  0  0
 63141  1  0  0  0
 63142  1  0  0  0
 63143  1  0  0  0
 64144  1  0  0  0
 65145  1  0  0  0
 68 82  1  0  0  0
 71 72  2  0  0  0
 71 73  1  0  0  0
 71146  1  0  0  0
 72 75  1  0  0  0
 72 83  1  0  0  0
 73 74  2  0  0  0
 73 86  1  0  0  0
 74 85  1  0  0  0
 74 78  1  0  0  0
 75 84  1  0  0  0
 75 85  2  0  0  0
 76 77  1  0  0  0
 76 78  1  0  0  0
 76147  1  0  0  0
 76148  1  0  0  0
 77 78  1  0  0  0
 77149  1  0  0  0
 77150  1  0  0  0
 78151  1  0  0  0
 79152  1  0  0  0
 79153  1  0  0  0
 79154  1  0  0  0
 79 83  1  0  0  0
 80 83  1  0  0  0
 80155  1  0  0  0
 80156  1  0  0  0
 80157  1  0  0  0
 81158  1  0  0  0
 81159  1  0  0  0
 81160  1  0  0  0
 81 84  1  0  0  0
 82 84  1  0  0  0
 82161  1  0  0  0
 82162  1  0  0  0
 83163  1  0  0  0
 84164  1  0  0  0
 86165  1  0  0  0
M  ISO  4   1 100  68 101  82 101  86 100
M  END
> <chiral flag>
0

> <version>
0

> <s_m_source_file>
/data/baiqing/PycharmProjects/Reinvent-master-3.2/result/LINK_invent/BTK/process_docking_weight1_custom_sum_contain_oxygen_bond_distance_aromatic_linkinvent_7_9_3/rearranged_h_0168.sdf

> <i_m_source_file_index>
11

> <r_mmod_Potential_Energy-OPLS-2005>
975.767761230469

> <r_mmod_Stretch_Energy-OPLS-2005>
487.609954833984

> <r_mmod_Bend_Energy-OPLS-2005>
433.493469238281

> <r_mmod_Torsional_Energy-OPLS-2005>
250.089111328125

> <r_mmod_Improper_Torsional_Energy-OPLS-2005>
6.75990581512451

> <r_mmod_Van_der_Waal_Energy-OPLS-2005>
128.682403564453

> <r_mmod_Electrostatic_Energy-OPLS-2005>
-517.879760742188

> <r_mmod_Solvation_Energy-OPLS-2005>
-212.997100830078

> <b_mmod_Minimization_Converged-OPLS-2005>
0

> <r_mmod_RMS_Derivative-OPLS-2005>
0.998504102230072

$$$$
11
                    3D
 Structure written by MMmdl.
174184  0  0  1  0            999 V2000
  -30.7712  -14.3865   20.5895 C   0  0  0  0  0  0
  -30.3958  -12.2544   19.4199 C   0  0  0  0  0  0
  -29.4848  -12.4932   18.2027 C   0  0  0  0  0  0
  -28.0080  -12.3656   18.6186 C   0  0  0  0  0  0
  -27.6615  -13.2086   19.8760 C   0  0  2  0  0  0
  -28.7020  -12.9889   20.9986 C   0  0  0  0  0  0
  -25.2596  -13.8169   20.5688 C   0  0  0  0  0  0
  -24.1850  -13.0445   20.9179 C   0  0  0  0  0  0
  -24.6390  -11.6903   20.8729 C   0  0  0  0  0  0
  -23.9056  -10.4298   21.0401 C   0  0  0  0  0  0
  -24.3604   -9.4202   21.9191 C   0  0  0  0  0  0
  -23.6287   -8.2246   22.0758 C   0  0  0  0  0  0
  -22.4266   -8.0282   21.3547 C   0  0  0  0  0  0
  -21.9904   -9.0247   20.4640 C   0  0  0  0  0  0
  -22.7232  -10.2133   20.3052 C   0  0  0  0  0  0
  -21.6856   -6.0733   22.5283 C   0  0  0  0  0  0
  -21.4011   -6.5638   23.8211 C   0  0  0  0  0  0
  -21.3668   -5.6789   24.9184 C   0  0  0  0  0  0
  -21.6048   -4.3053   24.7224 C   0  0  0  0  0  0
  -21.8818   -3.8142   23.4351 C   0  0  0  0  0  0
  -21.9187   -4.6962   22.3407 C   0  0  0  0  0  0
  -22.7868  -13.5247   21.1841 C   0  0  0  0  0  0
  -22.1657   -4.2149   21.0990 F   0  0  0  0  0  0
  -21.5634   -3.4539   25.7739 F   0  0  0  0  0  0
  -30.0400  -13.2505   20.4406 N   0  0  0  0  0  0
  -26.3027  -12.9334   20.3361 N   0  0  0  0  0  0
  -25.9321  -11.6492   20.5771 N   0  0  0  0  0  0
  -22.0509  -12.8241   22.0384 N   0  0  0  0  0  0
  -25.4356  -15.1889   20.4125 N   0  0  0  0  0  0
  -31.8632  -14.5554   20.0427 O   0  0  0  0  0  0
  -21.6636   -6.8880   21.4242 O   0  0  0  0  0  0
  -22.3550  -14.5578   20.6722 O   0  0  0  0  0  0
  -24.6136  -31.8743   23.2176 C   0  0  0  0  0  0
  -25.9046  -32.4844   23.8484 C   0  0  1  0  0  0
  -27.2058  -27.4394   20.0948 C   0  0  0  0  0  0
  -25.5956  -33.8662   24.2408 N   0  0  0  0  0  0
  -23.3992  -30.5022   21.5575 C   0  0  2  0  0  0
  -24.8344  -28.9793   20.1141 C   0  0  0  0  0  0
  -22.7387  -29.4691   22.5004 C   0  0  0  0  0  0
  -18.0290  -28.1345   22.8469 C   0  0  0  0  0  0
  -24.1479  -36.7336   23.2640 C   0  0  0  0  0  0
  -25.9289  -30.8425   21.3679 C   0  0  0  0  0  0
  -25.9985  -29.4768   20.7164 C   0  0  0  0  0  0
  -27.1881  -28.7149   20.7041 C   0  0  0  0  0  0
  -26.0341  -26.9808   19.4590 C   0  0  0  0  0  0
  -24.8460  -27.7268   19.4826 C   0  0  0  0  0  0
  -23.6017  -29.8469   20.1665 C   0  0  0  0  0  0
  -25.4077  -36.3122   24.0357 C   0  0  1  0  0  0
  -20.5860  -28.3657   23.1306 C   0  0  2  0  0  0
  -20.6768  -26.9403   22.5377 C   0  0  0  0  0  0
  -19.5745  -26.6358   21.5169 C   0  0  0  0  0  0
  -18.1920  -26.7901   22.1579 C   0  0  0  0  0  0
  -19.1530  -28.8800   23.2896 C   0  0  0  0  0  0
  -18.9457  -30.1392   23.8915 C   0  0  0  0  0  0
  -17.6479  -30.6573   24.0513 C   0  0  0  0  0  0
  -25.9003  -34.9493   23.5155 C   0  0  0  0  0  0
  -16.5359  -29.9057   23.6297 C   0  0  0  0  0  0
  -16.7275  -28.6465   23.0352 C   0  0  0  0  0  0
  -26.4438  -31.6646   25.0790 C   0  0  0  0  0  0
  -25.3700  -31.3745   26.1534 C   0  0  0  0  0  0
  -27.0263  -30.3118   24.6109 C   0  0  0  0  0  0
  -27.6018  -32.4374   25.7523 C   0  0  0  0  0  0
  -27.5577  -37.1797   24.8462 C   0  0  0  0  0  0
  -21.4119  -29.3056   22.3726 N   0  0  0  0  0  0
  -26.4273  -37.3784   23.9424 N   0  0  0  0  0  0
  -24.6666  -31.0857   22.1071 N   0  0  0  0  0  0
  -23.4169  -28.8195   23.3014 O   0  0  0  0  0  0
  -28.3614  -26.6889   20.1044 O   0  0  0  0  0  0
  -26.5480  -34.8945   22.4663 O   0  0  0  0  0  0
  -23.5332  -32.1509   23.7543 O   0  0  0  0  0  0
  -30.2843  -22.7037   21.3908 C   0  0  0  0  0  0
  -29.4128  -20.7918   20.5551 C   0  0  0  0  0  0
  -29.4433  -22.1473   20.3902 C   0  0  0  0  0  0
  -30.6949  -21.6653   22.1924 C   0  0  0  0  0  0
  -29.0718  -18.3485   22.4060 C   0  0  0  0  0  0
  -26.9689  -23.8057   18.5979 C   0  0  0  0  0  0
  -28.7810  -22.8547   19.2013 C   0  0  1  0  0  0
  -30.0975  -17.9004   21.3891 C   0  0  1  0  0  0
  -30.3615  -19.1291   22.2493 C   0  0  1  0  0  0
  -27.3987  -22.3499   18.7033 C   0  0  0  0  0  0
  -28.3198  -24.3561   19.0830 C   0  0  1  0  0  0
  -31.5699  -21.7236   23.4129 C   0  0  0  0  0  0
  -26.5223  -21.5303   19.6638 C   0  0  0  0  0  0
  -27.4150  -21.5935   17.3692 C   0  0  0  0  0  0
  -29.0799  -25.1552   18.0115 C   0  0  0  0  0  0
  -30.8955  -16.6318   21.6392 C   0  0  0  0  0  0
  -28.2447  -25.2682   20.3419 C   0  0  0  0  0  0
  -30.1634  -20.4733   21.6799 N   0  0  0  0  0  0
  -30.2226  -15.3646   21.3199 N   0  0  0  0  0  0
  -31.4481  -12.2910   19.1321 H   0  0  0  0  0  0
  -30.2388  -11.2481   19.8139 H   0  0  0  0  0  0
  -29.7139  -11.7760   17.4136 H   0  0  0  0  0  0
  -29.6741  -13.4825   17.7858 H   0  0  0  0  0  0
  -27.8169  -11.3110   18.8178 H   0  0  0  0  0  0
  -27.3559  -12.6383   17.7877 H   0  0  0  0  0  0
  -27.7107  -14.2563   19.5788 H   0  0  0  0  0  0
  -28.6528  -11.9610   21.3610 H   0  0  0  0  0  0
  -28.4721  -13.6111   21.8637 H   0  0  0  0  0  0
  -25.2748   -9.5695   22.4762 H   0  0  0  0  0  0
  -23.9991   -7.4646   22.7487 H   0  0  0  0  0  0
  -21.0841   -8.8773   19.8943 H   0  0  0  0  0  0
  -22.3694  -10.9673   19.6158 H   0  0  0  0  0  0
  -21.2003   -7.6146   23.9726 H   0  0  0  0  0  0
  -21.1496   -6.0520   25.9091 H   0  0  0  0  0  0
  -22.0586   -2.7606   23.2853 H   0  0  0  0  0  0
  -22.4090  -11.9856   22.4727 H   0  0  0  0  0  0
  -21.1143  -13.1283   22.2631 H   0  0  0  0  0  0
  -24.6776  -15.8523   20.5313 H   0  0  0  0  0  0
  -26.3017  -15.6228   20.1196 H   0  0  0  0  0  0
  -26.7102  -32.5509   23.1258 H   0  0  0  0  0  0
  -25.0292  -33.9870   25.0652 H   0  0  0  0  0  0
  -22.6892  -31.3191   21.4219 H   0  0  0  0  0  0
  -23.3753  -35.9672   23.3271 H   0  0  0  0  0  0
  -24.3583  -36.8950   22.2064 H   0  0  0  0  0  0
  -23.7230  -37.6538   23.6647 H   0  0  0  0  0  0
  -26.0357  -31.6071   20.5981 H   0  0  0  0  0  0
  -26.8286  -30.9072   21.9695 H   0  0  0  0  0  0
  -28.0857  -29.0947   21.1717 H   0  0  0  0  0  0
  -26.0246  -26.0672   18.9012 H   0  0  0  0  0  0
  -23.9582  -27.3462   18.9934 H   0  0  0  0  0  0
  -23.7109  -30.6283   19.4141 H   0  0  0  0  0  0
  -22.7273  -29.2709   19.8632 H   0  0  0  0  0  0
  -25.1237  -36.2020   25.0848 H   0  0  0  0  0  0
  -20.9937  -28.3209   24.1441 H   0  0  0  0  0  0
  -20.5650  -26.2258   23.3536 H   0  0  0  0  0  0
  -21.6627  -26.7420   22.1167 H   0  0  0  0  0  0
  -19.6886  -25.6247   21.1235 H   0  0  0  0  0  0
  -19.6703  -27.3095   20.6639 H   0  0  0  0  0  0
  -17.4176  -26.6654   21.3993 H   0  0  0  0  0  0
  -18.0340  -26.0046   22.8976 H   0  0  0  0  0  0
  -19.7950  -30.7173   24.2323 H   0  0  0  0  0  0
  -17.5047  -31.6258   24.5093 H   0  0  0  0  0  0
  -15.5344  -30.2968   23.7626 H   0  0  0  0  0  0
  -15.8674  -28.0750   22.7128 H   0  0  0  0  0  0
  -24.5840  -30.7118   25.7889 H   0  0  0  0  0  0
  -24.8894  -32.2888   26.5038 H   0  0  0  0  0  0
  -25.8056  -30.8876   27.0260 H   0  0  0  0  0  0
  -26.2792  -29.6889   24.1159 H   0  0  0  0  0  0
  -27.4081  -29.7347   25.4535 H   0  0  0  0  0  0
  -27.8632  -30.4504   23.9257 H   0  0  0  0  0  0
  -27.2676  -33.3698   26.2097 H   0  0  0  0  0  0
  -28.3828  -32.6890   25.0340 H   0  0  0  0  0  0
  -28.0693  -31.8494   26.5417 H   0  0  0  0  0  0
  -28.2558  -38.0127   24.7527 H   0  0  0  0  0  0
  -28.1095  -36.2640   24.6258 H   0  0  0  0  0  0
  -27.2276  -37.1431   25.8859 H   0  0  0  0  0  0
  -20.9237  -29.8896   21.7070 H   0  0  0  0  0  0
  -26.0179  -38.2871   24.1421 H   0  0  0  0  0  0
  -30.5807  -23.7300   21.5336 H   0  0  0  0  0  0
  -28.9239  -20.0254   19.9723 H   0  0  0  0  0  0
  -28.9566  -17.7285   23.2923 H   0  0  0  0  0  0
  -28.1485  -18.7830   22.0274 H   0  0  0  0  0  0
  -26.1313  -24.0132   19.2665 H   0  0  0  0  0  0
  -26.7248  -24.1097   17.5799 H   0  0  0  0  0  0
  -29.4953  -22.6854   18.3944 H   0  0  0  0  0  0
  -29.8716  -18.0604   20.3369 H   0  0  0  0  0  0
  -31.1479  -19.0750   22.9966 H   0  0  0  0  0  0
  -31.3990  -22.6485   23.9629 H   0  0  0  0  0  0
  -32.6248  -21.7048   23.1422 H   0  0  0  0  0  0
  -31.3827  -20.9108   24.1140 H   0  0  0  0  0  0
  -26.6614  -21.8253   20.7059 H   0  0  0  0  0  0
  -26.7248  -20.4623   19.5982 H   0  0  0  0  0  0
  -25.4634  -21.6657   19.4407 H   0  0  0  0  0  0
  -27.8649  -22.1870   16.5708 H   0  0  0  0  0  0
  -26.4095  -21.3334   17.0379 H   0  0  0  0  0  0
  -27.9940  -20.6731   17.4432 H   0  0  0  0  0  0
  -29.2105  -24.5832   17.0932 H   0  0  0  0  0  0
  -30.0668  -25.4578   18.3611 H   0  0  0  0  0  0
  -28.5386  -26.0598   17.7296 H   0  0  0  0  0  0
  -31.1890  -16.5950   22.6877 H   0  0  0  0  0  0
  -31.8319  -16.7361   21.0878 H   0  0  0  0  0  0
  -29.0740  -25.0484   21.0016 H   0  0  0  0  0  0
  -27.3529  -25.0538   20.9365 H   0  0  0  0  0  0
  -29.3013  -15.2029   21.6980 H   0  0  0  0  0  0
  1 25  1  0  0  0
  1 30  2  0  0  0
  1 89  1  0  0  0
  2  3  1  0  0  0
  2 25  1  0  0  0
  2 90  1  0  0  0
  2 91  1  0  0  0
  3  4  1  0  0  0
  3 92  1  0  0  0
  3 93  1  0  0  0
  4  5  1  0  0  0
  4 94  1  0  0  0
  4 95  1  0  0  0
  5  6  1  0  0  0
  5 26  1  0  0  0
  5 96  1  0  0  0
  6 25  1  0  0  0
  6 97  1  0  0  0
  6 98  1  0  0  0
  7  8  2  0  0  0
  7 26  1  0  0  0
  7 29  1  0  0  0
  8  9  1  0  0  0
  8 22  1  0  0  0
  9 10  1  0  0  0
  9 27  2  0  0  0
 10 11  2  0  0  0
 10 15  1  0  0  0
 11 12  1  0  0  0
 11 99  1  0  0  0
 12 13  2  0  0  0
 12100  1  0  0  0
 13 14  1  0  0  0
 13 31  1  0  0  0
 14 15  2  0  0  0
 14101  1  0  0  0
 15102  1  0  0  0
 16 17  2  0  0  0
 16 21  1  0  0  0
 16 31  1  0  0  0
 17 18  1  0  0  0
 17103  1  0  0  0
 18 19  2  0  0  0
 18104  1  0  0  0
 19 20  1  0  0  0
 19 24  1  0  0  0
 20 21  2  0  0  0
 20105  1  0  0  0
 21 23  1  0  0  0
 22 28  1  0  0  0
 22 32  2  0  0  0
 26 27  1  0  0  0
 28106  1  0  0  0
 28107  1  0  0  0
 29108  1  0  0  0
 29109  1  0  0  0
 33 34  1  0  0  0
 33 66  1  0  0  0
 33 70  2  0  0  0
 34 36  1  0  0  0
 34 59  1  0  0  0
 34110  1  0  0  0
 35 44  2  0  0  0
 35 45  1  0  0  0
 35 68  1  0  0  0
 36 56  1  0  0  0
 36111  1  0  0  0
 37 39  1  0  0  0
 37 47  1  0  0  0
 37 66  1  0  0  0
 37112  1  0  0  0
 38 43  2  0  0  0
 38 46  1  0  0  0
 38 47  1  0  0  0
 39 64  1  0  0  0
 39 67  2  0  0  0
 40 52  1  0  0  0
 40 53  2  0  0  0
 40 58  1  0  0  0
 41113  1  0  0  0
 41114  1  0  0  0
 41115  1  0  0  0
 41 48  1  0  0  0
 42 43  1  0  0  0
 42 66  1  0  0  0
 42116  1  0  0  0
 42117  1  0  0  0
 43 44  1  0  0  0
 44118  1  0  0  0
 45 46  2  0  0  0
 45119  1  0  0  0
 46120  1  0  0  0
 47121  1  0  0  0
 47122  1  0  0  0
 48 56  1  0  0  0
 48 65  1  0  0  0
 48123  1  0  0  0
 49 50  1  0  0  0
 49 53  1  0  0  0
 49 64  1  0  0  0
 49124  1  0  0  0
 50 51  1  0  0  0
 50125  1  0  0  0
 50126  1  0  0  0
 51 52  1  0  0  0
 51127  1  0  0  0
 51128  1  0  0  0
 52129  1  0  0  0
 52130  1  0  0  0
 53 54  1  0  0  0
 54 55  2  0  0  0
 54131  1  0  0  0
 55 57  1  0  0  0
 55132  1  0  0  0
 56 69  2  0  0  0
 57 58  2  0  0  0
 57133  1  0  0  0
 58134  1  0  0  0
 59 60  1  0  0  0
 59 61  1  0  0  0
 59 62  1  0  0  0
 60135  1  0  0  0
 60136  1  0  0  0
 60137  1  0  0  0
 61138  1  0  0  0
 61139  1  0  0  0
 61140  1  0  0  0
 62141  1  0  0  0
 62142  1  0  0  0
 62143  1  0  0  0
 63 65  1  0  0  0
 63144  1  0  0  0
 63145  1  0  0  0
 63146  1  0  0  0
 64147  1  0  0  0
 65148  1  0  0  0
 68 87  1  0  0  0
 71 73  1  0  0  0
 71 74  2  0  0  0
 71149  1  0  0  0
 72 73  2  0  0  0
 72 88  1  0  0  0
 72150  1  0  0  0
 73 77  1  0  0  0
 74 82  1  0  0  0
 74 88  1  0  0  0
 75 78  1  0  0  0
 75 79  1  0  0  0
 75151  1  0  0  0
 75152  1  0  0  0
 76 80  1  0  0  0
 76 81  1  0  0  0
 76153  1  0  0  0
 76154  1  0  0  0
 77 80  1  0  0  0
 77 81  1  0  0  0
 77155  1  0  0  0
 78 79  1  0  0  0
 78 86  1  0  0  0
 78156  1  0  0  0
 79 88  1  0  0  0
 79157  1  0  0  0
 80 83  1  0  0  0
 80 84  1  0  0  0
 81 85  1  0  0  0
 81 87  1  0  0  0
 82158  1  0  0  0
 82159  1  0  0  0
 82160  1  0  0  0
 83161  1  0  0  0
 83162  1  0  0  0
 83163  1  0  0  0
 84164  1  0  0  0
 84165  1  0  0  0
 84166  1  0  0  0
 85167  1  0  0  0
 85168  1  0  0  0
 85169  1  0  0  0
 86 89  1  0  0  0
 86170  1  0  0  0
 86171  1  0  0  0
 87172  1  0  0  0
 87173  1  0  0  0
 89174  1  0  0  0
M  ISO  4   1 100  68 101  87 101  89 100
M  END
> <chiral flag>
0

> <version>
0

> <s_m_source_file>
/data/baiqing/PycharmProjects/Reinvent-master-3.2/result/LINK_invent/BTK/process_docking_weight1_custom_sum_contain_oxygen_bond_distance_aromatic_linkinvent_7_9_3/rearranged_h_0168.sdf

> <i_m_source_file_index>
12

> <r_mmod_Potential_Energy-OPLS-2005>
56.6181945800781

> <r_mmod_Stretch_Energy-OPLS-2005>
40.5971946716309

> <r_mmod_Bend_Energy-OPLS-2005>
154.792526245117

> <r_mmod_Torsional_Energy-OPLS-2005>
297.287384033203

> <r_mmod_Improper_Torsional_Energy-OPLS-2005>
2.52473139762878

> <r_mmod_Van_der_Waal_Energy-OPLS-2005>
146.475067138672

> <r_mmod_Electrostatic_Energy-OPLS-2005>
-402.145721435547

> <r_mmod_Solvation_Energy-OPLS-2005>
-195.62483215332

> <b_mmod_Minimization_Converged-OPLS-2005>
0

> <r_mmod_RMS_Derivative-OPLS-2005>
4.56649494171143

$$$$
12
                    3D
 Structure written by MMmdl.
157165  0  0  1  0            999 V2000
  -30.5230  -14.9981   20.4357 C   0  0  0  0  0  0
  -30.4371  -12.6191   19.5150 C   0  0  0  0  0  0
  -29.5269  -12.5465   18.2670 C   0  0  0  0  0  0
  -28.0596  -12.3244   18.6797 C   0  0  0  0  0  0
  -27.6286  -13.2551   19.8445 C   0  0  2  0  0  0
  -28.6691  -13.2951   20.9851 C   0  0  0  0  0  0
  -25.2422  -13.8229   20.5688 C   0  0  0  0  0  0
  -24.1760  -13.0444   20.9233 C   0  0  0  0  0  0
  -24.6385  -11.6927   20.8757 C   0  0  0  0  0  0
  -23.9082  -10.4296   21.0414 C   0  0  0  0  0  0
  -24.3646   -9.4199   21.9181 C   0  0  0  0  0  0
  -23.6316   -8.2241   22.0739 C   0  0  0  0  0  0
  -22.4279   -8.0285   21.3539 C   0  0  0  0  0  0
  -21.9943   -9.0248   20.4630 C   0  0  0  0  0  0
  -22.7279  -10.2132   20.3040 C   0  0  0  0  0  0
  -21.6853   -6.0748   22.5265 C   0  0  0  0  0  0
  -21.4023   -6.5645   23.8203 C   0  0  0  0  0  0
  -21.3669   -5.6784   24.9168 C   0  0  0  0  0  0
  -21.6053   -4.3049   24.7207 C   0  0  0  0  0  0
  -21.8823   -3.8146   23.4316 C   0  0  0  0  0  0
  -21.9197   -4.6970   22.3384 C   0  0  0  0  0  0
  -22.7782  -13.5199   21.1923 C   0  0  0  0  0  0
  -22.1660   -4.2169   21.0958 F   0  0  0  0  0  0
  -21.5650   -3.4522   25.7713 F   0  0  0  0  0  0
  -29.9387  -13.7271   20.3857 N   0  0  0  0  0  0
  -26.2865  -12.9463   20.3265 N   0  0  0  0  0  0
  -25.9322  -11.6587   20.5762 N   0  0  0  0  0  0
  -22.0458  -12.8119   22.0458 N   0  0  0  0  0  0
  -25.4093  -15.1951   20.4081 N   0  0  0  0  0  0
  -31.7277  -15.0574   20.1650 O   0  0  0  0  0  0
  -21.6635   -6.8884   21.4229 O   0  0  0  0  0  0
  -22.3455  -14.5516   20.6803 O   0  0  0  0  0  0
  -24.6492  -31.8433   23.1816 C   0  0  0  0  0  0
  -25.9223  -32.4718   23.8245 C   0  0  1  0  0  0
  -27.2051  -27.0784   20.1758 C   0  0  0  0  0  0
  -25.5960  -33.8528   24.2162 N   0  0  0  0  0  0
  -23.4586  -30.4596   21.5290 C   0  0  2  0  0  0
  -24.9076  -28.8839   20.1055 C   0  0  0  0  0  0
  -22.7634  -29.4549   22.4855 C   0  0  0  0  0  0
  -18.0315  -28.1428   22.8524 C   0  0  0  0  0  0
  -24.1441  -36.7236   23.2642 C   0  0  0  0  0  0
  -26.0184  -30.7010   21.3891 C   0  0  0  0  0  0
  -26.0857  -29.3047   20.7363 C   0  0  0  0  0  0
  -27.2351  -28.4197   20.7526 C   0  0  0  0  0  0
  -26.0049  -26.7882   19.4815 C   0  0  0  0  0  0
  -24.8837  -27.6429   19.4591 C   0  0  0  0  0  0
  -23.6875  -29.7887   20.1480 C   0  0  0  0  0  0
  -25.4097  -36.3067   24.0329 C   0  0  1  0  0  0
  -20.5935  -28.3743   23.1252 C   0  0  2  0  0  0
  -20.6808  -26.9445   22.5416 C   0  0  0  0  0  0
  -19.5758  -26.6382   21.5247 C   0  0  0  0  0  0
  -18.1931  -26.7980   22.1629 C   0  0  0  0  0  0
  -19.1574  -28.8910   23.2868 C   0  0  0  0  0  0
  -18.9501  -30.1517   23.8888 C   0  0  0  0  0  0
  -17.6493  -30.6640   24.0567 C   0  0  0  0  0  0
  -25.9077  -34.9455   23.5048 C   0  0  0  0  0  0
  -16.5391  -29.9130   23.6364 C   0  0  0  0  0  0
  -16.7289  -28.6521   23.0413 C   0  0  0  0  0  0
  -26.4502  -31.6637   25.0741 C   0  0  0  0  0  0
  -25.3627  -31.3892   26.1405 C   0  0  0  0  0  0
  -27.0388  -30.3054   24.6366 C   0  0  0  0  0  0
  -27.6021  -32.4425   25.7555 C   0  0  0  0  0  0
  -27.5548  -37.1801   24.8484 C   0  0  0  0  0  0
  -21.4314  -29.3069   22.3655 N   0  0  0  0  0  0
  -26.4244  -37.3815   23.9443 N   0  0  0  0  0  0
  -24.7282  -31.0264   22.0865 N   0  0  0  0  0  0
  -23.4286  -28.8116   23.3012 O   0  0  0  0  0  0
  -28.2045  -26.0241   20.2988 O   0  0  0  0  0  0
  -26.5653  -34.8972   22.4635 O   0  0  0  0  0  0
  -23.5592  -32.1272   23.7014 O   0  0  0  0  0  0
  -29.1608  -22.6611   21.7037 C   0  0  0  0  0  0
  -28.5329  -23.0414   20.4641 C   0  0  0  0  0  0
  -29.3693  -21.2775   21.7734 C   0  0  0  0  0  0
  -28.4879  -21.7615   19.8213 C   0  0  0  0  0  0
  -29.4472  -23.6329   22.8257 C   0  0  0  0  0  0
  -29.8240  -20.4695   22.9520 C   0  0  0  0  0  0
  -27.8764  -21.4899   18.4799 C   0  0  0  0  0  0
  -27.8204  -24.5179   20.0316 C   0  0  0  0  0  0
  -28.9209  -19.0232   20.3265 C   0  0  0  0  0  0
  -30.0478  -17.7683   20.6372 C   0  0  0  0  0  0
  -29.0013  -20.6239   20.5908 N   0  0  0  0  0  0
  -29.7411  -16.1910   20.5962 N   0  0  0  0  0  0
  -31.4777  -12.7667   19.2187 H   0  0  0  0  0  0
  -30.4172  -11.6722   20.0570 H   0  0  0  0  0  0
  -29.8570  -11.7462   17.6043 H   0  0  0  0  0  0
  -29.6124  -13.4754   17.6994 H   0  0  0  0  0  0
  -27.9608  -11.2813   18.9846 H   0  0  0  0  0  0
  -27.3985  -12.4597   17.8219 H   0  0  0  0  0  0
  -27.5877  -14.2573   19.4146 H   0  0  0  0  0  0
  -28.7689  -12.3181   21.4602 H   0  0  0  0  0  0
  -28.3587  -13.9874   21.7695 H   0  0  0  0  0  0
  -25.2802   -9.5669   22.4753 H   0  0  0  0  0  0
  -24.0025   -7.4628   22.7434 H   0  0  0  0  0  0
  -21.0903   -8.8772   19.8911 H   0  0  0  0  0  0
  -22.3754  -10.9670   19.6135 H   0  0  0  0  0  0
  -21.1996   -7.6147   23.9722 H   0  0  0  0  0  0
  -21.1507   -6.0505   25.9080 H   0  0  0  0  0  0
  -22.0595   -2.7607   23.2792 H   0  0  0  0  0  0
  -22.4122  -11.9743   22.4756 H   0  0  0  0  0  0
  -21.1088  -13.1106   22.2767 H   0  0  0  0  0  0
  -24.6354  -15.8433   20.4977 H   0  0  0  0  0  0
  -26.2453  -15.6287   20.0411 H   0  0  0  0  0  0
  -26.7333  -32.5332   23.1007 H   0  0  0  0  0  0
  -25.0247  -33.9635   25.0408 H   0  0  0  0  0  0
  -22.7606  -31.2842   21.3700 H   0  0  0  0  0  0
  -23.3754  -35.9516   23.3321 H   0  0  0  0  0  0
  -24.3486  -36.8837   22.2041 H   0  0  0  0  0  0
  -23.7138  -37.6411   23.6672 H   0  0  0  0  0  0
  -26.1805  -31.4460   20.6098 H   0  0  0  0  0  0
  -26.8883  -30.7556   22.0327 H   0  0  0  0  0  0
  -28.1276  -28.7319   21.2791 H   0  0  0  0  0  0
  -25.8797  -25.8447   18.9751 H   0  0  0  0  0  0
  -23.9862  -27.3194   18.9478 H   0  0  0  0  0  0
  -23.8203  -30.5550   19.3840 H   0  0  0  0  0  0
  -22.8052  -29.2251   19.8418 H   0  0  0  0  0  0
  -25.1284  -36.1873   25.0821 H   0  0  0  0  0  0
  -21.0011  -28.3310   24.1368 H   0  0  0  0  0  0
  -20.5741  -26.2355   23.3635 H   0  0  0  0  0  0
  -21.6673  -26.7464   22.1194 H   0  0  0  0  0  0
  -19.6875  -25.6268   21.1294 H   0  0  0  0  0  0
  -19.6687  -27.3200   20.6780 H   0  0  0  0  0  0
  -17.4231  -26.6808   21.3983 H   0  0  0  0  0  0
  -18.0243  -26.0120   22.8989 H   0  0  0  0  0  0
  -19.7972  -30.7344   24.2240 H   0  0  0  0  0  0
  -17.5047  -31.6307   24.5169 H   0  0  0  0  0  0
  -15.5385  -30.3029   23.7691 H   0  0  0  0  0  0
  -15.8685  -28.0809   22.7196 H   0  0  0  0  0  0
  -24.5858  -30.7170   25.7752 H   0  0  0  0  0  0
  -24.8736  -32.3097   26.4625 H   0  0  0  0  0  0
  -25.7852  -30.9233   27.0322 H   0  0  0  0  0  0
  -26.3033  -29.6820   24.1298 H   0  0  0  0  0  0
  -27.3925  -29.7352   25.4955 H   0  0  0  0  0  0
  -27.8958  -30.4331   23.9769 H   0  0  0  0  0  0
  -27.2636  -33.3811   26.1966 H   0  0  0  0  0  0
  -28.3952  -32.6847   25.0469 H   0  0  0  0  0  0
  -28.0565  -31.8648   26.5600 H   0  0  0  0  0  0
  -28.2637  -38.0048   24.7583 H   0  0  0  0  0  0
  -28.0978  -36.2606   24.6258 H   0  0  0  0  0  0
  -27.2287  -37.1410   25.8894 H   0  0  0  0  0  0
  -20.9552  -29.8740   21.6775 H   0  0  0  0  0  0
  -26.0085  -38.2878   24.1462 H   0  0  0  0  0  0
  -29.8172  -24.5814   22.4347 H   0  0  0  0  0  0
  -30.1991  -23.2449   23.5129 H   0  0  0  0  0  0
  -28.5391  -23.8271   23.3983 H   0  0  0  0  0  0
  -29.6811  -21.0134   23.8863 H   0  0  0  0  0  0
  -30.8777  -20.2054   22.8728 H   0  0  0  0  0  0
  -29.2470  -19.5483   23.0521 H   0  0  0  0  0  0
  -27.7607  -22.4071   17.9037 H   0  0  0  0  0  0
  -26.8859  -21.0467   18.5822 H   0  0  0  0  0  0
  -28.4888  -20.8130   17.8849 H   0  0  0  0  0  0
  -26.8299  -24.4195   20.4801 H   0  0  0  0  0  0
  -27.6506  -24.4519   18.9570 H   0  0  0  0  0  0
  -28.0253  -18.7114   20.8644 H   0  0  0  0  0  0
  -28.6441  -18.9066   19.2797 H   0  0  0  0  0  0
  -30.4552  -17.9459   21.6317 H   0  0  0  0  0  0
  -30.8966  -17.9315   19.9742 H   0  0  0  0  0  0
  -28.7690  -15.9744   20.7670 H   0  0  0  0  0  0
  1 25  1  0  0  0
  1 30  2  0  0  0
  1 82  1  0  0  0
  2  3  1  0  0  0
  2 25  1  0  0  0
  2 83  1  0  0  0
  2 84  1  0  0  0
  3  4  1  0  0  0
  3 85  1  0  0  0
  3 86  1  0  0  0
  4  5  1  0  0  0
  4 87  1  0  0  0
  4 88  1  0  0  0
  5  6  1  0  0  0
  5 26  1  0  0  0
  5 89  1  0  0  0
  6 25  1  0  0  0
  6 90  1  0  0  0
  6 91  1  0  0  0
  7  8  2  0  0  0
  7 26  1  0  0  0
  7 29  1  0  0  0
  8  9  1  0  0  0
  8 22  1  0  0  0
  9 10  1  0  0  0
  9 27  2  0  0  0
 10 11  2  0  0  0
 10 15  1  0  0  0
 11 12  1  0  0  0
 11 92  1  0  0  0
 12 13  2  0  0  0
 12 93  1  0  0  0
 13 14  1  0  0  0
 13 31  1  0  0  0
 14 15  2  0  0  0
 14 94  1  0  0  0
 15 95  1  0  0  0
 16 17  2  0  0  0
 16 21  1  0  0  0
 16 31  1  0  0  0
 17 18  1  0  0  0
 17 96  1  0  0  0
 18 19  2  0  0  0
 18 97  1  0  0  0
 19 20  1  0  0  0
 19 24  1  0  0  0
 20 21  2  0  0  0
 20 98  1  0  0  0
 21 23  1  0  0  0
 22 28  1  0  0  0
 22 32  2  0  0  0
 26 27  1  0  0  0
 28 99  1  0  0  0
 28100  1  0  0  0
 29101  1  0  0  0
 29102  1  0  0  0
 33 34  1  0  0  0
 33 66  1  0  0  0
 33 70  2  0  0  0
 34 36  1  0  0  0
 34 59  1  0  0  0
 34103  1  0  0  0
 35 44  2  0  0  0
 35 45  1  0  0  0
 35 68  1  0  0  0
 36 56  1  0  0  0
 36104  1  0  0  0
 37 39  1  0  0  0
 37 47  1  0  0  0
 37 66  1  0  0  0
 37105  1  0  0  0
 38 43  2  0  0  0
 38 46  1  0  0  0
 38 47  1  0  0  0
 39 64  1  0  0  0
 39 67  2  0  0  0
 40 52  1  0  0  0
 40 53  2  0  0  0
 40 58  1  0  0  0
 41106  1  0  0  0
 41107  1  0  0  0
 41108  1  0  0  0
 41 48  1  0  0  0
 42 43  1  0  0  0
 42 66  1  0  0  0
 42109  1  0  0  0
 42110  1  0  0  0
 43 44  1  0  0  0
 44111  1  0  0  0
 45 46  2  0  0  0
 45112  1  0  0  0
 46113  1  0  0  0
 47114  1  0  0  0
 47115  1  0  0  0
 48 56  1  0  0  0
 48 65  1  0  0  0
 48116  1  0  0  0
 49 50  1  0  0  0
 49 53  1  0  0  0
 49 64  1  0  0  0
 49117  1  0  0  0
 50 51  1  0  0  0
 50118  1  0  0  0
 50119  1  0  0  0
 51 52  1  0  0  0
 51120  1  0  0  0
 51121  1  0  0  0
 52122  1  0  0  0
 52123  1  0  0  0
 53 54  1  0  0  0
 54 55  2  0  0  0
 54124  1  0  0  0
 55 57  1  0  0  0
 55125  1  0  0  0
 56 69  2  0  0  0
 57 58  2  0  0  0
 57126  1  0  0  0
 58127  1  0  0  0
 59 60  1  0  0  0
 59 61  1  0  0  0
 59 62  1  0  0  0
 60128  1  0  0  0
 60129  1  0  0  0
 60130  1  0  0  0
 61131  1  0  0  0
 61132  1  0  0  0
 61133  1  0  0  0
 62134  1  0  0  0
 62135  1  0  0  0
 62136  1  0  0  0
 63 65  1  0  0  0
 63137  1  0  0  0
 63138  1  0  0  0
 63139  1  0  0  0
 64140  1  0  0  0
 65141  1  0  0  0
 68 78  1  0  0  0
 71 72  1  0  0  0
 71 73  2  0  0  0
 71 75  1  0  0  0
 72 74  2  0  0  0
 72 78  1  0  0  0
 73 76  1  0  0  0
 73 81  1  0  0  0
 74 77  1  0  0  0
 74 81  1  0  0  0
 75142  1  0  0  0
 75143  1  0  0  0
 75144  1  0  0  0
 76145  1  0  0  0
 76146  1  0  0  0
 76147  1  0  0  0
 77148  1  0  0  0
 77149  1  0  0  0
 77150  1  0  0  0
 78151  1  0  0  0
 78152  1  0  0  0
 79 80  1  0  0  0
 79 81  1  0  0  0
 79153  1  0  0  0
 79154  1  0  0  0
 80 82  1  0  0  0
 80155  1  0  0  0
 80156  1  0  0  0
 82157  1  0  0  0
M  ISO  4   1 100  68 101  78 101  82 100
M  END
> <chiral flag>
0

> <version>
0

> <s_m_source_file>
/data/baiqing/PycharmProjects/Reinvent-master-3.2/result/LINK_invent/BTK/process_docking_weight1_custom_sum_contain_oxygen_bond_distance_aromatic_linkinvent_7_9_3/rearranged_h_0168.sdf

> <i_m_source_file_index>
13

> <r_mmod_Potential_Energy-OPLS-2005>
601.12060546875

> <r_mmod_Stretch_Energy-OPLS-2005>
320.616668701172

> <r_mmod_Bend_Energy-OPLS-2005>
303.126647949219

> <r_mmod_Torsional_Energy-OPLS-2005>
226.69775390625

> <r_mmod_Improper_Torsional_Energy-OPLS-2005>
8.1467170715332

> <r_mmod_Van_der_Waal_Energy-OPLS-2005>
109.648483276367

> <r_mmod_Electrostatic_Energy-OPLS-2005>
-383.965942382812

> <r_mmod_Solvation_Energy-OPLS-2005>
-228.772125244141

> <b_mmod_Minimization_Converged-OPLS-2005>
0

> <r_mmod_RMS_Derivative-OPLS-2005>
4.42801380157471

$$$$
13
                    3D
 Structure written by MMmdl.
165175  0  0  1  0            999 V2000
  -30.5810  -15.0232   20.4097 C   0  0  0  0  0  0
  -30.4247  -12.6516   19.4971 C   0  0  0  0  0  0
  -29.5164  -12.5458   18.2533 C   0  0  0  0  0  0
  -28.0543  -12.3213   18.6767 C   0  0  0  0  0  0
  -27.6199  -13.2663   19.8280 C   0  0  2  0  0  0
  -28.6646  -13.3607   20.9596 C   0  0  0  0  0  0
  -25.2413  -13.8246   20.5729 C   0  0  0  0  0  0
  -24.1751  -13.0445   20.9241 C   0  0  0  0  0  0
  -24.6388  -11.6939   20.8747 C   0  0  0  0  0  0
  -23.9085  -10.4295   21.0407 C   0  0  0  0  0  0
  -24.3625   -9.4208   21.9183 C   0  0  0  0  0  0
  -23.6294   -8.2243   22.0750 C   0  0  0  0  0  0
  -22.4273   -8.0277   21.3549 C   0  0  0  0  0  0
  -21.9916   -9.0252   20.4655 C   0  0  0  0  0  0
  -22.7247  -10.2132   20.3056 C   0  0  0  0  0  0
  -21.6858   -6.0726   22.5279 C   0  0  0  0  0  0
  -21.4022   -6.5636   23.8214 C   0  0  0  0  0  0
  -21.3659   -5.6783   24.9174 C   0  0  0  0  0  0
  -21.6042   -4.3044   24.7227 C   0  0  0  0  0  0
  -21.8818   -3.8139   23.4350 C   0  0  0  0  0  0
  -21.9199   -4.6955   22.3400 C   0  0  0  0  0  0
  -22.7775  -13.5209   21.1885 C   0  0  0  0  0  0
  -22.1667   -4.2139   21.0979 F   0  0  0  0  0  0
  -21.5629   -3.4528   25.7745 F   0  0  0  0  0  0
  -29.9205  -13.7887   20.3325 N   0  0  0  0  0  0
  -26.2852  -12.9520   20.3238 N   0  0  0  0  0  0
  -25.9331  -11.6629   20.5730 N   0  0  0  0  0  0
  -22.0421  -12.8199   22.0436 N   0  0  0  0  0  0
  -25.4044  -15.1972   20.4159 N   0  0  0  0  0  0
  -31.7961  -14.9754   20.1954 O   0  0  0  0  0  0
  -21.6640   -6.8865   21.4240 O   0  0  0  0  0  0
  -22.3453  -14.5503   20.6702 O   0  0  0  0  0  0
  -24.6508  -31.8386   23.1839 C   0  0  0  0  0  0
  -25.9252  -32.4660   23.8249 C   0  0  1  0  0  0
  -27.2009  -27.0689   20.1558 C   0  0  0  0  0  0
  -25.5971  -33.8468   24.2157 N   0  0  0  0  0  0
  -23.4563  -30.4604   21.5296 C   0  0  2  0  0  0
  -24.9054  -28.8839   20.1030 C   0  0  0  0  0  0
  -22.7606  -29.4526   22.4806 C   0  0  0  0  0  0
  -18.0314  -28.1402   22.8472 C   0  0  0  0  0  0
  -24.1490  -36.7238   23.2639 C   0  0  0  0  0  0
  -26.0188  -30.6905   21.3955 C   0  0  0  0  0  0
  -26.0855  -29.2977   20.7345 C   0  0  0  0  0  0
  -27.2330  -28.4058   20.7465 C   0  0  0  0  0  0
  -26.0027  -26.7921   19.4569 C   0  0  0  0  0  0
  -24.8822  -27.6491   19.4446 C   0  0  0  0  0  0
  -23.6854  -29.7925   20.1486 C   0  0  0  0  0  0
  -25.4126  -36.3006   24.0303 C   0  0  1  0  0  0
  -20.5932  -28.3735   23.1213 C   0  0  2  0  0  0
  -20.6787  -26.9430   22.5401 C   0  0  0  0  0  0
  -19.5758  -26.6385   21.5210 C   0  0  0  0  0  0
  -18.1946  -26.7936   22.1627 C   0  0  0  0  0  0
  -19.1574  -28.8886   23.2834 C   0  0  0  0  0  0
  -18.9482  -30.1477   23.8865 C   0  0  0  0  0  0
  -17.6477  -30.6594   24.0558 C   0  0  0  0  0  0
  -25.9083  -34.9383   23.5039 C   0  0  0  0  0  0
  -16.5368  -29.9085   23.6339 C   0  0  0  0  0  0
  -16.7300  -28.6506   23.0362 C   0  0  0  0  0  0
  -26.4541  -31.6551   25.0720 C   0  0  0  0  0  0
  -25.3704  -31.3773   26.1404 C   0  0  0  0  0  0
  -27.0397  -30.2922   24.6369 C   0  0  0  0  0  0
  -27.6065  -32.4323   25.7513 C   0  0  0  0  0  0
  -27.5573  -37.1782   24.8463 C   0  0  0  0  0  0
  -21.4289  -29.3054   22.3575 N   0  0  0  0  0  0
  -26.4281  -37.3730   23.9403 N   0  0  0  0  0  0
  -24.7285  -31.0192   22.0903 N   0  0  0  0  0  0
  -23.4227  -28.8072   23.2970 O   0  0  0  0  0  0
  -28.1954  -26.0044   20.2702 O   0  0  0  0  0  0
  -26.5684  -34.8895   22.4628 O   0  0  0  0  0  0
  -23.5613  -32.1288   23.7029 O   0  0  0  0  0  0
  -29.1372  -22.0859   19.3870 C   0  0  0  0  0  0
  -28.1224  -22.2812   21.4929 C   0  0  0  0  0  0
  -29.4170  -20.6452   19.6004 C   0  0  0  0  0  0
  -29.0079  -19.9729   20.7932 C   0  0  0  0  0  0
  -28.4783  -23.0059   20.3057 C   0  0  0  0  0  0
  -28.3620  -20.8616   21.7299 C   0  0  0  0  0  0
  -30.0486  -19.7761   18.5204 C   0  0  0  0  0  0
  -28.6460  -17.0077   20.7204 C   0  0  0  0  0  0
  -29.3696  -18.3934   21.0588 C   0  0  1  0  0  0
  -30.6892  -18.3378   18.8253 C   0  0  2  0  0  0
  -30.5300  -17.7620   20.2696 C   0  0  2  0  0  0
  -27.8733  -20.2821   23.0461 C   0  0  0  0  0  0
  -32.1969  -18.3120   18.4786 C   0  0  0  0  0  0
  -30.5723  -20.1353   15.1313 C   0  0  0  0  0  0
  -27.8344  -24.5098   19.9017 C   0  0  0  0  0  0
  -30.0007  -20.2435   17.3298 N   0  0  0  0  0  0
  -29.9624  -16.3343   20.4262 N   0  0  0  0  0  0
  -30.4515  -19.3771   16.3265 O   0  0  0  0  0  0
  -31.4582  -12.7951   19.1784 H   0  0  0  0  0  0
  -30.4203  -11.7181   20.0616 H   0  0  0  0  0  0
  -29.8491  -11.7384   17.5992 H   0  0  0  0  0  0
  -29.5914  -13.4644   17.6686 H   0  0  0  0  0  0
  -27.9594  -11.2839   18.9978 H   0  0  0  0  0  0
  -27.3897  -12.4365   17.8200 H   0  0  0  0  0  0
  -27.5613  -14.2565   19.3739 H   0  0  0  0  0  0
  -28.7789  -12.4087   21.4794 H   0  0  0  0  0  0
  -28.3535  -14.0915   21.7070 H   0  0  0  0  0  0
  -25.2774   -9.5684   22.4759 H   0  0  0  0  0  0
  -24.0012   -7.4631   22.7461 H   0  0  0  0  0  0
  -21.0849   -8.8769   19.8960 H   0  0  0  0  0  0
  -22.3707  -10.9664   19.6160 H   0  0  0  0  0  0
  -21.2018   -7.6145   23.9712 H   0  0  0  0  0  0
  -21.1480   -6.0517   25.9076 H   0  0  0  0  0  0
  -22.0598   -2.7600   23.2847 H   0  0  0  0  0  0
  -22.4056  -11.9892   22.4871 H   0  0  0  0  0  0
  -21.1027  -13.1217   22.2609 H   0  0  0  0  0  0
  -24.6305  -15.8445   20.5188 H   0  0  0  0  0  0
  -26.2471  -15.6359   20.0711 H   0  0  0  0  0  0
  -26.7314  -32.5229   23.0969 H   0  0  0  0  0  0
  -25.0064  -33.9563   25.0268 H   0  0  0  0  0  0
  -22.7612  -31.2881   21.3740 H   0  0  0  0  0  0
  -23.3753  -35.9568   23.3283 H   0  0  0  0  0  0
  -24.3576  -36.8900   22.2058 H   0  0  0  0  0  0
  -23.7247  -37.6425   23.6699 H   0  0  0  0  0  0
  -26.1879  -31.4422   20.6230 H   0  0  0  0  0  0
  -26.8836  -30.7379   22.0456 H   0  0  0  0  0  0
  -28.1250  -28.7117   21.2748 H   0  0  0  0  0  0
  -25.8776  -25.8599   18.9283 H   0  0  0  0  0  0
  -23.9880  -27.3350   18.9239 H   0  0  0  0  0  0
  -23.8270  -30.5664   19.3935 H   0  0  0  0  0  0
  -22.7971  -29.2400   19.8359 H   0  0  0  0  0  0
  -25.1318  -36.1817   25.0794 H   0  0  0  0  0  0
  -21.0033  -28.3329   24.1330 H   0  0  0  0  0  0
  -20.5668  -26.2351   23.3631 H   0  0  0  0  0  0
  -21.6651  -26.7414   22.1209 H   0  0  0  0  0  0
  -19.6914  -25.6288   21.1264 H   0  0  0  0  0  0
  -19.6688  -27.3174   20.6721 H   0  0  0  0  0  0
  -17.4211  -26.6679   21.4036 H   0  0  0  0  0  0
  -18.0345  -26.0089   22.9037 H   0  0  0  0  0  0
  -19.7953  -30.7306   24.2221 H   0  0  0  0  0  0
  -17.5028  -31.6267   24.5172 H   0  0  0  0  0  0
  -15.5368  -30.2981   23.7668 H   0  0  0  0  0  0
  -15.8702  -28.0816   22.7094 H   0  0  0  0  0  0
  -24.5884  -30.7122   25.7721 H   0  0  0  0  0  0
  -24.8891  -32.2962   26.4752 H   0  0  0  0  0  0
  -25.7965  -30.8990   27.0232 H   0  0  0  0  0  0
  -26.3021  -29.6641   24.1359 H   0  0  0  0  0  0
  -27.3929  -29.7241   25.4984 H   0  0  0  0  0  0
  -27.8970  -30.4098   23.9742 H   0  0  0  0  0  0
  -27.2659  -33.3656   26.2009 H   0  0  0  0  0  0
  -28.3924  -32.6837   25.0378 H   0  0  0  0  0  0
  -28.0680  -31.8502   26.5500 H   0  0  0  0  0  0
  -28.2578  -38.0090   24.7508 H   0  0  0  0  0  0
  -28.1080  -36.2619   24.6284 H   0  0  0  0  0  0
  -27.2293  -37.1419   25.8867 H   0  0  0  0  0  0
  -20.9510  -29.8766   21.6745 H   0  0  0  0  0  0
  -26.0135  -38.2789   24.1416 H   0  0  0  0  0  0
  -29.3960  -22.5002   18.4242 H   0  0  0  0  0  0
  -27.5755  -22.8310   22.2464 H   0  0  0  0  0  0
  -28.0035  -17.0719   19.8410 H   0  0  0  0  0  0
  -28.0955  -16.5962   21.5671 H   0  0  0  0  0  0
  -29.6363  -18.3445   22.1156 H   0  0  0  0  0  0
  -30.1926  -17.6450   18.1453 H   0  0  0  0  0  0
  -31.4419  -17.9022   20.8542 H   0  0  0  0  0  0
  -27.1500  -20.9379   23.5323 H   0  0  0  0  0  0
  -28.7083  -20.1352   23.7316 H   0  0  0  0  0  0
  -27.3843  -19.3194   22.8916 H   0  0  0  0  0  0
  -32.7512  -19.0349   19.0791 H   0  0  0  0  0  0
  -32.4011  -18.5361   17.4333 H   0  0  0  0  0  0
  -32.6254  -17.3290   18.6751 H   0  0  0  0  0  0
  -30.9140  -19.4999   14.3136 H   0  0  0  0  0  0
  -31.2994  -20.9416   15.2467 H   0  0  0  0  0  0
  -29.6181  -20.5742   14.8332 H   0  0  0  0  0  0
  -26.8028  -24.3867   20.2319 H   0  0  0  0  0  0
  -27.7840  -24.4958   18.8124 H   0  0  0  0  0  0
  1 25  1  0  0  0
  1 30  2  0  0  0
  1 87  1  0  0  0
  2  3  1  0  0  0
  2 25  1  0  0  0
  2 89  1  0  0  0
  2 90  1  0  0  0
  3  4  1  0  0  0
  3 91  1  0  0  0
  3 92  1  0  0  0
  4  5  1  0  0  0
  4 93  1  0  0  0
  4 94  1  0  0  0
  5  6  1  0  0  0
  5 26  1  0  0  0
  5 95  1  0  0  0
  6 25  1  0  0  0
  6 96  1  0  0  0
  6 97  1  0  0  0
  7  8  2  0  0  0
  7 26  1  0  0  0
  7 29  1  0  0  0
  8  9  1  0  0  0
  8 22  1  0  0  0
  9 10  1  0  0  0
  9 27  2  0  0  0
 10 11  2  0  0  0
 10 15  1  0  0  0
 11 12  1  0  0  0
 11 98  1  0  0  0
 12 13  2  0  0  0
 12 99  1  0  0  0
 13 14  1  0  0  0
 13 31  1  0  0  0
 14 15  2  0  0  0
 14100  1  0  0  0
 15101  1  0  0  0
 16 17  2  0  0  0
 16 21  1  0  0  0
 16 31  1  0  0  0
 17 18  1  0  0  0
 17102  1  0  0  0
 18 19  2  0  0  0
 18103  1  0  0  0
 19 20  1  0  0  0
 19 24  1  0  0  0
 20 21  2  0  0  0
 20104  1  0  0  0
 21 23  1  0  0  0
 22 28  1  0  0  0
 22 32  2  0  0  0
 26 27  1  0  0  0
 28105  1  0  0  0
 28106  1  0  0  0
 29107  1  0  0  0
 29108  1  0  0  0
 33 34  1  0  0  0
 33 66  1  0  0  0
 33 70  2  0  0  0
 34 36  1  0  0  0
 34 59  1  0  0  0
 34109  1  0  0  0
 35 44  2  0  0  0
 35 45  1  0  0  0
 35 68  1  0  0  0
 36 56  1  0  0  0
 36110  1  0  0  0
 37 39  1  0  0  0
 37 47  1  0  0  0
 37 66  1  0  0  0
 37111  1  0  0  0
 38 43  2  0  0  0
 38 46  1  0  0  0
 38 47  1  0  0  0
 39 64  1  0  0  0
 39 67  2  0  0  0
 40 52  1  0  0  0
 40 53  2  0  0  0
 40 58  1  0  0  0
 41112  1  0  0  0
 41113  1  0  0  0
 41114  1  0  0  0
 41 48  1  0  0  0
 42 43  1  0  0  0
 42 66  1  0  0  0
 42115  1  0  0  0
 42116  1  0  0  0
 43 44  1  0  0  0
 44117  1  0  0  0
 45 46  2  0  0  0
 45118  1  0  0  0
 46119  1  0  0  0
 47120  1  0  0  0
 47121  1  0  0  0
 48 56  1  0  0  0
 48 65  1  0  0  0
 48122  1  0  0  0
 49 50  1  0  0  0
 49 53  1  0  0  0
 49 64  1  0  0  0
 49123  1  0  0  0
 50 51  1  0  0  0
 50124  1  0  0  0
 50125  1  0  0  0
 51 52  1  0  0  0
 51126  1  0  0  0
 51127  1  0  0  0
 52128  1  0  0  0
 52129  1  0  0  0
 53 54  1  0  0  0
 54 55  2  0  0  0
 54130  1  0  0  0
 55 57  1  0  0  0
 55131  1  0  0  0
 56 69  2  0  0  0
 57 58  2  0  0  0
 57132  1  0  0  0
 58133  1  0  0  0
 59 60  1  0  0  0
 59 61  1  0  0  0
 59 62  1  0  0  0
 60134  1  0  0  0
 60135  1  0  0  0
 60136  1  0  0  0
 61137  1  0  0  0
 61138  1  0  0  0
 61139  1  0  0  0
 62140  1  0  0  0
 62141  1  0  0  0
 62142  1  0  0  0
 63 65  1  0  0  0
 63143  1  0  0  0
 63144  1  0  0  0
 63145  1  0  0  0
 64146  1  0  0  0
 65147  1  0  0  0
 68 85  1  0  0  0
 71 73  2  0  0  0
 71 75  1  0  0  0
 71148  1  0  0  0
 72 75  2  0  0  0
 72 76  1  0  0  0
 72149  1  0  0  0
 73 74  1  0  0  0
 73 77  1  0  0  0
 74 76  2  0  0  0
 74 79  1  0  0  0
 75 85  1  0  0  0
 76 82  1  0  0  0
 77 80  1  0  0  0
 77 86  2  0  0  0
 78 87  1  0  0  0
 78150  1  0  0  0
 78151  1  0  0  0
 78 79  1  0  0  0
 79 81  1  0  0  0
 79152  1  0  0  0
 80 81  1  0  0  0
 80 83  1  0  0  0
 80153  1  0  0  0
 81 87  1  0  0  0
 81154  1  0  0  0
 82155  1  0  0  0
 82156  1  0  0  0
 82157  1  0  0  0
 83158  1  0  0  0
 83159  1  0  0  0
 83160  1  0  0  0
 84 88  1  0  0  0
 84161  1  0  0  0
 84162  1  0  0  0
 84163  1  0  0  0
 85164  1  0  0  0
 85165  1  0  0  0
 86 88  1  0  0  0
M  ISO  4   1 100  68 101  85 101  87 100
M  END
> <chiral flag>
0

> <version>
0

> <s_m_source_file>
/data/baiqing/PycharmProjects/Reinvent-master-3.2/result/LINK_invent/BTK/process_docking_weight1_custom_sum_contain_oxygen_bond_distance_aromatic_linkinvent_7_9_3/rearranged_h_0168.sdf

> <i_m_source_file_index>
14

> <r_mmod_Potential_Energy-OPLS-2005>
829.62353515625

> <r_mmod_Stretch_Energy-OPLS-2005>
281.348571777344

> <r_mmod_Bend_Energy-OPLS-2005>
339.863037109375

> <r_mmod_Torsional_Energy-OPLS-2005>
289.2646484375

> <r_mmod_Improper_Torsional_Energy-OPLS-2005>
11.3972454071045

> <r_mmod_Van_der_Waal_Energy-OPLS-2005>
140.032653808594

> <r_mmod_Electrostatic_Energy-OPLS-2005>
-279.771209716797

> <r_mmod_Solvation_Energy-OPLS-2005>
-214.507308959961

> <b_mmod_Minimization_Converged-OPLS-2005>
0

> <r_mmod_RMS_Derivative-OPLS-2005>
1.67639219760895

$$$$
14
                    3D
 Structure written by MMmdl.
178187  0  0  1  0            999 V2000
  -30.5176  -14.9852   20.4185 C   0  0  0  0  0  0
  -30.4437  -12.6150   19.4915 C   0  0  0  0  0  0
  -29.5256  -12.5369   18.2503 C   0  0  0  0  0  0
  -28.0591  -12.3129   18.6674 C   0  0  0  0  0  0
  -27.6262  -13.2488   19.8264 C   0  0  2  0  0  0
  -28.6686  -13.2923   20.9612 C   0  0  0  0  0  0
  -25.2480  -13.8192   20.5718 C   0  0  0  0  0  0
  -24.1796  -13.0428   20.9221 C   0  0  0  0  0  0
  -24.6415  -11.6912   20.8718 C   0  0  0  0  0  0
  -23.9095  -10.4293   21.0388 C   0  0  0  0  0  0
  -24.3645   -9.4214   21.9159 C   0  0  0  0  0  0
  -23.6314   -8.2252   22.0747 C   0  0  0  0  0  0
  -22.4291   -8.0278   21.3539 C   0  0  0  0  0  0
  -21.9930   -9.0254   20.4639 C   0  0  0  0  0  0
  -22.7267  -10.2136   20.3035 C   0  0  0  0  0  0
  -21.6853   -6.0735   22.5278 C   0  0  0  0  0  0
  -21.4017   -6.5637   23.8215 C   0  0  0  0  0  0
  -21.3667   -5.6786   24.9171 C   0  0  0  0  0  0
  -21.6044   -4.3052   24.7210 C   0  0  0  0  0  0
  -21.8828   -3.8148   23.4337 C   0  0  0  0  0  0
  -21.9204   -4.6968   22.3399 C   0  0  0  0  0  0
  -22.7810  -13.5199   21.1855 C   0  0  0  0  0  0
  -22.1658   -4.2168   21.0967 F   0  0  0  0  0  0
  -21.5641   -3.4529   25.7724 F   0  0  0  0  0  0
  -29.9364  -13.7169   20.3581 N   0  0  0  0  0  0
  -26.2881  -12.9424   20.3172 N   0  0  0  0  0  0
  -25.9341  -11.6560   20.5688 N   0  0  0  0  0  0
  -22.0438  -12.8213   22.0418 N   0  0  0  0  0  0
  -25.4170  -15.1904   20.4236 N   0  0  0  0  0  0
  -31.7308  -15.0556   20.1938 O   0  0  0  0  0  0
  -21.6647   -6.8877   21.4235 O   0  0  0  0  0  0
  -22.3496  -14.5490   20.6669 O   0  0  0  0  0  0
  -24.6449  -31.8412   23.1832 C   0  0  0  0  0  0
  -25.9205  -32.4681   23.8239 C   0  0  1  0  0  0
  -27.2276  -27.1205   20.1585 C   0  0  0  0  0  0
  -25.5936  -33.8491   24.2163 N   0  0  0  0  0  0
  -23.4498  -30.4587   21.5271 C   0  0  2  0  0  0
  -24.9037  -28.8794   20.1099 C   0  0  0  0  0  0
  -22.7567  -29.4540   22.4828 C   0  0  0  0  0  0
  -18.0295  -28.1405   22.8468 C   0  0  0  0  0  0
  -24.1493  -36.7271   23.2639 C   0  0  0  0  0  0
  -26.0053  -30.7100   21.3831 C   0  0  0  0  0  0
  -26.0785  -29.3173   20.7312 C   0  0  0  0  0  0
  -27.2392  -28.4535   20.7424 C   0  0  0  0  0  0
  -26.0262  -26.7876   19.4934 C   0  0  0  0  0  0
  -24.8927  -27.6282   19.4722 C   0  0  0  0  0  0
  -23.6784  -29.7802   20.1485 C   0  0  0  0  0  0
  -25.4119  -36.3027   24.0313 C   0  0  1  0  0  0
  -20.5914  -28.3744   23.1220 C   0  0  2  0  0  0
  -20.6790  -26.9444   22.5406 C   0  0  0  0  0  0
  -19.5767  -26.6376   21.5217 C   0  0  0  0  0  0
  -18.1940  -26.7939   22.1623 C   0  0  0  0  0  0
  -19.1562  -28.8889   23.2828 C   0  0  0  0  0  0
  -18.9475  -30.1470   23.8871 C   0  0  0  0  0  0
  -17.6474  -30.6592   24.0563 C   0  0  0  0  0  0
  -25.9072  -34.9405   23.5054 C   0  0  0  0  0  0
  -16.5361  -29.9085   23.6338 C   0  0  0  0  0  0
  -16.7278  -28.6508   23.0355 C   0  0  0  0  0  0
  -26.4514  -31.6548   25.0689 C   0  0  0  0  0  0
  -25.3702  -31.3749   26.1385 C   0  0  0  0  0  0
  -27.0369  -30.2937   24.6284 C   0  0  0  0  0  0
  -27.6031  -32.4323   25.7490 C   0  0  0  0  0  0
  -27.5574  -37.1797   24.8456 C   0  0  0  0  0  0
  -21.4256  -29.3077   22.3604 N   0  0  0  0  0  0
  -26.4278  -37.3749   23.9405 N   0  0  0  0  0  0
  -24.7201  -31.0246   22.0862 N   0  0  0  0  0  0
  -23.4196  -28.8064   23.2978 O   0  0  0  0  0  0
  -28.2803  -26.1298   20.2357 O   0  0  0  0  0  0
  -26.5668  -34.8917   22.4638 O   0  0  0  0  0  0
  -23.5567  -32.1285   23.7033 O   0  0  0  0  0  0
  -27.9281  -19.0007   22.9175 C   0  0  0  0  0  0
  -25.2567  -18.8039   22.0870 C   0  0  0  0  0  0
  -27.6426  -18.8366   21.5410 C   0  0  0  0  0  0
  -26.8925  -19.0977   23.8705 C   0  0  0  0  0  0
  -26.2890  -18.7190   21.1288 C   0  0  0  0  0  0
  -25.5460  -19.0144   23.4496 C   0  0  0  0  0  0
  -30.9996  -18.4956   19.9011 C   0  0  0  0  0  0
  -28.7959  -18.9103   20.5386 C   0  0  2  0  0  0
  -29.9380  -17.7316   20.7229 C   0  0  1  0  0  0
  -30.8254  -20.0537   20.2029 C   0  0  2  0  0  0
  -27.2349  -19.3228   25.3343 C   0  0  0  0  0  0
  -25.9013  -18.5405   19.6678 C   0  0  0  0  0  0
  -24.4002  -19.1679   24.4369 C   0  0  0  0  0  0
  -31.7634  -20.4805   21.3489 C   0  0  0  0  0  0
  -30.3777  -23.6137   19.6897 C   0  0  0  0  0  0
  -28.6604  -21.6452   20.0407 C   0  0  0  0  0  0
  -28.0228  -24.5965   20.0348 C   0  0  0  0  0  0
  -29.0434  -23.2777   20.3717 C   0  0  2  0  0  0
  -29.7109  -16.1589   20.5268 N   0  0  0  0  0  0
  -29.4107  -20.3390   20.5980 N   0  3  1  0  0  0
  -31.4744  -12.7862   19.1797 H   0  0  0  0  0  0
  -30.4482  -11.6664   20.0318 H   0  0  0  0  0  0
  -29.8575  -11.7391   17.5846 H   0  0  0  0  0  0
  -29.6065  -13.4642   17.6791 H   0  0  0  0  0  0
  -27.9638  -11.2722   18.9795 H   0  0  0  0  0  0
  -27.3964  -12.4366   17.8101 H   0  0  0  0  0  0
  -27.5781  -14.2475   19.3905 H   0  0  0  0  0  0
  -28.7653  -12.3191   21.4432 H   0  0  0  0  0  0
  -28.3604  -13.9937   21.7378 H   0  0  0  0  0  0
  -25.2783   -9.5704   22.4744 H   0  0  0  0  0  0
  -24.0031   -7.4653   22.7473 H   0  0  0  0  0  0
  -21.0857   -8.8774   19.8944 H   0  0  0  0  0  0
  -22.3705  -10.9678   19.6161 H   0  0  0  0  0  0
  -21.1984   -7.6149   23.9727 H   0  0  0  0  0  0
  -21.1477   -6.0502   25.9081 H   0  0  0  0  0  0
  -22.0601   -2.7614   23.2823 H   0  0  0  0  0  0
  -22.4023  -11.9881   22.4842 H   0  0  0  0  0  0
  -21.1047  -13.1244   22.2563 H   0  0  0  0  0  0
  -24.6669  -15.8484   20.5976 H   0  0  0  0  0  0
  -26.2787  -15.6397   20.1508 H   0  0  0  0  0  0
  -26.7280  -32.5291   23.0975 H   0  0  0  0  0  0
  -25.0055  -33.9603   25.0294 H   0  0  0  0  0  0
  -22.7546  -31.2840   21.3653 H   0  0  0  0  0  0
  -23.3759  -35.9598   23.3265 H   0  0  0  0  0  0
  -24.3592  -36.8944   22.2061 H   0  0  0  0  0  0
  -23.7257  -37.6461   23.6710 H   0  0  0  0  0  0
  -26.1557  -31.4569   20.6014 H   0  0  0  0  0  0
  -26.8778  -30.7706   22.0216 H   0  0  0  0  0  0
  -28.1288  -28.7822   21.2620 H   0  0  0  0  0  0
  -25.9341  -25.8325   18.9995 H   0  0  0  0  0  0
  -24.0002  -27.2893   18.9657 H   0  0  0  0  0  0
  -23.8107  -30.5472   19.3848 H   0  0  0  0  0  0
  -22.7969  -29.2138   19.8437 H   0  0  0  0  0  0
  -25.1322  -36.1844   25.0811 H   0  0  0  0  0  0
  -21.0006  -28.3344   24.1340 H   0  0  0  0  0  0
  -20.5665  -26.2369   23.3638 H   0  0  0  0  0  0
  -21.6654  -26.7436   22.1216 H   0  0  0  0  0  0
  -19.6927  -25.6269   21.1274 H   0  0  0  0  0  0
  -19.6698  -27.3160   20.6725 H   0  0  0  0  0  0
  -17.4215  -26.6671   21.4017 H   0  0  0  0  0  0
  -18.0330  -26.0071   22.9019 H   0  0  0  0  0  0
  -19.7957  -30.7286   24.2237 H   0  0  0  0  0  0
  -17.5037  -31.6287   24.5159 H   0  0  0  0  0  0
  -15.5367  -30.2998   23.7678 H   0  0  0  0  0  0
  -15.8671  -28.0824   22.7098 H   0  0  0  0  0  0
  -24.5875  -30.7097   25.7718 H   0  0  0  0  0  0
  -24.8895  -32.2933   26.4771 H   0  0  0  0  0  0
  -25.7981  -30.8950   27.0193 H   0  0  0  0  0  0
  -26.2975  -29.6658   24.1295 H   0  0  0  0  0  0
  -27.3963  -29.7247   25.4869 H   0  0  0  0  0  0
  -27.8897  -30.4151   23.9602 H   0  0  0  0  0  0
  -27.2597  -33.3633   26.2018 H   0  0  0  0  0  0
  -28.3875  -32.6871   25.0352 H   0  0  0  0  0  0
  -28.0657  -31.8481   26.5456 H   0  0  0  0  0  0
  -28.2576  -38.0109   24.7520 H   0  0  0  0  0  0
  -28.1089  -36.2648   24.6256 H   0  0  0  0  0  0
  -27.2302  -37.1403   25.8859 H   0  0  0  0  0  0
  -20.9460  -29.8835   21.6832 H   0  0  0  0  0  0
  -26.0141  -38.2818   24.1398 H   0  0  0  0  0  0
  -28.9531  -19.0951   23.2483 H   0  0  0  0  0  0
  -24.2255  -18.7338   21.7672 H   0  0  0  0  0  0
  -30.8253  -18.3154   18.8393 H   0  0  0  0  0  0
  -32.0103  -18.1431   20.1085 H   0  0  0  0  0  0
  -28.4138  -18.8093   19.5228 H   0  0  0  0  0  0
  -30.2673  -17.7921   21.7604 H   0  0  0  0  0  0
  -31.0735  -20.6216   19.3054 H   0  0  0  0  0  0
  -28.2985  -19.1804   25.5269 H   0  0  0  0  0  0
  -26.6895  -18.6271   25.9720 H   0  0  0  0  0  0
  -26.9745  -20.3376   25.6367 H   0  0  0  0  0  0
  -24.8347  -18.3452   19.5601 H   0  0  0  0  0  0
  -26.4290  -17.7000   19.2160 H   0  0  0  0  0  0
  -26.1274  -19.4410   19.0973 H   0  0  0  0  0  0
  -23.4541  -19.3408   23.9231 H   0  0  0  0  0  0
  -24.5642  -20.0155   25.1045 H   0  0  0  0  0  0
  -24.2956  -18.2672   25.0422 H   0  0  0  0  0  0
  -31.6058  -19.8701   22.2403 H   0  0  0  0  0  0
  -31.6055  -21.5166   21.6471 H   0  0  0  0  0  0
  -32.8115  -20.3818   21.0661 H   0  0  0  0  0  0
  -31.1631  -22.9075   19.9439 H   0  0  0  0  0  0
  -30.7329  -24.6003   19.9895 H   0  0  0  0  0  0
  -30.2760  -23.6144   18.6036 H   0  0  0  0  0  0
  -28.6107  -21.5340   18.9578 H   0  0  0  0  0  0
  -27.6271  -21.5232   20.3653 H   0  0  0  0  0  0
  -27.0940  -24.3867   20.5666 H   0  0  0  0  0  0
  -27.7720  -24.5022   18.9771 H   0  0  0  0  0  0
  -29.2162  -23.3225   21.4466 H   0  0  0  0  0  0
  -28.7332  -15.9167   20.5985 H   0  0  0  0  0  0
  -29.4557  -20.5128   21.5903 H   0  0  0  0  0  0
  1 25  1  0  0  0
  1 30  2  0  0  0
  1 89  1  0  0  0
  2  3  1  0  0  0
  2 25  1  0  0  0
  2 91  1  0  0  0
  2 92  1  0  0  0
  3  4  1  0  0  0
  3 93  1  0  0  0
  3 94  1  0  0  0
  4  5  1  0  0  0
  4 95  1  0  0  0
  4 96  1  0  0  0
  5  6  1  0  0  0
  5 26  1  0  0  0
  5 97  1  0  0  0
  6 25  1  0  0  0
  6 98  1  0  0  0
  6 99  1  0  0  0
  7  8  2  0  0  0
  7 26  1  0  0  0
  7 29  1  0  0  0
  8  9  1  0  0  0
  8 22  1  0  0  0
  9 10  1  0  0  0
  9 27  2  0  0  0
 10 11  2  0  0  0
 10 15  1  0  0  0
 11 12  1  0  0  0
 11100  1  0  0  0
 12 13  2  0  0  0
 12101  1  0  0  0
 13 14  1  0  0  0
 13 31  1  0  0  0
 14 15  2  0  0  0
 14102  1  0  0  0
 15103  1  0  0  0
 16 17  2  0  0  0
 16 21  1  0  0  0
 16 31  1  0  0  0
 17 18  1  0  0  0
 17104  1  0  0  0
 18 19  2  0  0  0
 18105  1  0  0  0
 19 20  1  0  0  0
 19 24  1  0  0  0
 20 21  2  0  0  0
 20106  1  0  0  0
 21 23  1  0  0  0
 22 28  1  0  0  0
 22 32  2  0  0  0
 26 27  1  0  0  0
 28107  1  0  0  0
 28108  1  0  0  0
 29109  1  0  0  0
 29110  1  0  0  0
 33 34  1  0  0  0
 33 66  1  0  0  0
 33 70  2  0  0  0
 34 36  1  0  0  0
 34 59  1  0  0  0
 34111  1  0  0  0
 35 44  2  0  0  0
 35 45  1  0  0  0
 35 68  1  0  0  0
 36 56  1  0  0  0
 36112  1  0  0  0
 37 39  1  0  0  0
 37 47  1  0  0  0
 37 66  1  0  0  0
 37113  1  0  0  0
 38 43  2  0  0  0
 38 46  1  0  0  0
 38 47  1  0  0  0
 39 64  1  0  0  0
 39 67  2  0  0  0
 40 52  1  0  0  0
 40 53  2  0  0  0
 40 58  1  0  0  0
 41114  1  0  0  0
 41115  1  0  0  0
 41116  1  0  0  0
 41 48  1  0  0  0
 42 43  1  0  0  0
 42 66  1  0  0  0
 42117  1  0  0  0
 42118  1  0  0  0
 43 44  1  0  0  0
 44119  1  0  0  0
 45 46  2  0  0  0
 45120  1  0  0  0
 46121  1  0  0  0
 47122  1  0  0  0
 47123  1  0  0  0
 48 56  1  0  0  0
 48 65  1  0  0  0
 48124  1  0  0  0
 49 50  1  0  0  0
 49 53  1  0  0  0
 49 64  1  0  0  0
 49125  1  0  0  0
 50 51  1  0  0  0
 50126  1  0  0  0
 50127  1  0  0  0
 51 52  1  0  0  0
 51128  1  0  0  0
 51129  1  0  0  0
 52130  1  0  0  0
 52131  1  0  0  0
 53 54  1  0  0  0
 54 55  2  0  0  0
 54132  1  0  0  0
 55 57  1  0  0  0
 55133  1  0  0  0
 56 69  2  0  0  0
 57 58  2  0  0  0
 57134  1  0  0  0
 58135  1  0  0  0
 59 60  1  0  0  0
 59 61  1  0  0  0
 59 62  1  0  0  0
 60136  1  0  0  0
 60137  1  0  0  0
 60138  1  0  0  0
 61139  1  0  0  0
 61140  1  0  0  0
 61141  1  0  0  0
 62142  1  0  0  0
 62143  1  0  0  0
 62144  1  0  0  0
 63 65  1  0  0  0
 63145  1  0  0  0
 63146  1  0  0  0
 63147  1  0  0  0
 64148  1  0  0  0
 65149  1  0  0  0
 68 87  1  0  0  0
 71 73  2  0  0  0
 71 74  1  0  0  0
 71150  1  0  0  0
 72 75  2  0  0  0
 72 76  1  0  0  0
 72151  1  0  0  0
 73 75  1  0  0  0
 73 78  1  0  0  0
 74 76  2  0  0  0
 74 81  1  0  0  0
 75 82  1  0  0  0
 76 83  1  0  0  0
 77 79  1  0  0  0
 77 80  1  0  0  0
 77152  1  0  0  0
 77153  1  0  0  0
 78 79  1  0  0  0
 78 90  1  0  0  0
 78154  1  0  0  0
 79 89  1  0  0  0
 79155  1  0  0  0
 80 84  1  0  0  0
 80 90  1  0  0  0
 80156  1  0  0  0
 81157  1  0  0  0
 81158  1  0  0  0
 81159  1  0  0  0
 82160  1  0  0  0
 82161  1  0  0  0
 82162  1  0  0  0
 83163  1  0  0  0
 83164  1  0  0  0
 83165  1  0  0  0
 84166  1  0  0  0
 84167  1  0  0  0
 84168  1  0  0  0
 85169  1  0  0  0
 85170  1  0  0  0
 85171  1  0  0  0
 85 88  1  0  0  0
 86 88  1  0  0  0
 86172  1  0  0  0
 86173  1  0  0  0
 86 90  1  0  0  0
 87 88  1  0  0  0
 87174  1  0  0  0
 87175  1  0  0  0
 88176  1  0  0  0
 89177  1  0  0  0
 90178  1  0  0  0
M  CHG  1  90   1
M  ISO  4   1 100  68 101  87 101  89 100
M  END
> <chiral flag>
0

> <version>
0

> <s_m_source_file>
/data/baiqing/PycharmProjects/Reinvent-master-3.2/result/LINK_invent/BTK/process_docking_weight1_custom_sum_contain_oxygen_bond_distance_aromatic_linkinvent_7_9_3/rearranged_h_0168.sdf

> <i_m_source_file_index>
15

> <r_mmod_Potential_Energy-OPLS-2005>
487.951507568359

> <r_mmod_Stretch_Energy-OPLS-2005>
283.646850585938

> <r_mmod_Bend_Energy-OPLS-2005>
326.208404541016

> <r_mmod_Torsional_Energy-OPLS-2005>
271.985260009766

> <r_mmod_Improper_Torsional_Energy-OPLS-2005>
4.54975318908691

> <r_mmod_Van_der_Waal_Energy-OPLS-2005>
112.835334777832

> <r_mmod_Electrostatic_Energy-OPLS-2005>
-297.472442626953

> <r_mmod_Solvation_Energy-OPLS-2005>
-429.870086669922

> <b_mmod_Minimization_Converged-OPLS-2005>
0

> <r_mmod_RMS_Derivative-OPLS-2005>
2.97427129745483

$$$$
15
                    3D
 Structure written by MMmdl.
165174  0  0  1  0            999 V2000
  -30.4102  -15.3383   20.3378 C   0  0  0  0  0  0
  -30.4395  -12.8669   19.4953 C   0  0  0  0  0  0
  -29.5321  -12.5723   18.2740 C   0  0  0  0  0  0
  -28.0865  -12.2841   18.7190 C   0  0  0  0  0  0
  -27.6038  -13.2701   19.8112 C   0  0  2  0  0  0
  -28.6457  -13.4876   20.9266 C   0  0  0  0  0  0
  -25.2396  -13.8228   20.5759 C   0  0  0  0  0  0
  -24.1743  -13.0424   20.9258 C   0  0  0  0  0  0
  -24.6393  -11.6917   20.8766 C   0  0  0  0  0  0
  -23.9085  -10.4282   21.0406 C   0  0  0  0  0  0
  -24.3633   -9.4203   21.9184 C   0  0  0  0  0  0
  -23.6301   -8.2241   22.0748 C   0  0  0  0  0  0
  -22.4277   -8.0279   21.3543 C   0  0  0  0  0  0
  -21.9921   -9.0254   20.4641 C   0  0  0  0  0  0
  -22.7254  -10.2127   20.3052 C   0  0  0  0  0  0
  -21.6854   -6.0738   22.5278 C   0  0  0  0  0  0
  -21.4022   -6.5640   23.8214 C   0  0  0  0  0  0
  -21.3661   -5.6785   24.9171 C   0  0  0  0  0  0
  -21.6044   -4.3052   24.7220 C   0  0  0  0  0  0
  -21.8827   -3.8144   23.4341 C   0  0  0  0  0  0
  -21.9200   -4.6963   22.3399 C   0  0  0  0  0  0
  -22.7770  -13.5196   21.1898 C   0  0  0  0  0  0
  -22.1661   -4.2157   21.0972 F   0  0  0  0  0  0
  -21.5635   -3.4530   25.7731 F   0  0  0  0  0  0
  -29.8482  -14.0242   20.2647 N   0  0  0  0  0  0
  -26.2806  -12.9482   20.3229 N   0  0  0  0  0  0
  -25.9328  -11.6595   20.5734 N   0  0  0  0  0  0
  -22.0411  -12.8188   22.0449 N   0  0  0  0  0  0
  -25.4046  -15.1966   20.4225 N   0  0  0  0  0  0
  -31.6494  -15.3029   20.2945 O   0  0  0  0  0  0
  -21.6631   -6.8880   21.4241 O   0  0  0  0  0  0
  -22.3458  -14.5494   20.6720 O   0  0  0  0  0  0
  -24.6668  -31.8209   23.1670 C   0  0  0  0  0  0
  -25.9338  -32.4569   23.8148 C   0  0  1  0  0  0
  -27.2256  -26.9004   20.1913 C   0  0  0  0  0  0
  -25.5995  -33.8381   24.2059 N   0  0  0  0  0  0
  -23.4825  -30.4291   21.5187 C   0  0  2  0  0  0
  -24.9351  -28.8044   20.1189 C   0  0  0  0  0  0
  -22.7682  -29.4428   22.4798 C   0  0  0  0  0  0
  -18.0322  -28.1409   22.8475 C   0  0  0  0  0  0
  -24.1495  -36.7186   23.2652 C   0  0  0  0  0  0
  -26.0529  -30.6182   21.3992 C   0  0  0  0  0  0
  -26.1217  -29.2031   20.7473 C   0  0  0  0  0  0
  -27.2627  -28.2761   20.7499 C   0  0  0  0  0  0
  -26.0055  -26.6537   19.5238 C   0  0  0  0  0  0
  -24.9040  -27.5503   19.4858 C   0  0  0  0  0  0
  -23.7230  -29.7373   20.1481 C   0  0  0  0  0  0
  -25.4137  -36.2948   24.0301 C   0  0  1  0  0  0
  -20.5950  -28.3759   23.1194 C   0  0  2  0  0  0
  -20.6806  -26.9439   22.5408 C   0  0  0  0  0  0
  -19.5778  -26.6378   21.5224 C   0  0  0  0  0  0
  -18.1958  -26.7945   22.1627 C   0  0  0  0  0  0
  -19.1584  -28.8904   23.2817 C   0  0  0  0  0  0
  -18.9494  -30.1494   23.8850 C   0  0  0  0  0  0
  -17.6486  -30.6601   24.0552 C   0  0  0  0  0  0
  -25.9106  -34.9336   23.4999 C   0  0  0  0  0  0
  -16.5376  -29.9084   23.6348 C   0  0  0  0  0  0
  -16.7303  -28.6502   23.0375 C   0  0  0  0  0  0
  -26.4582  -31.6520   25.0684 C   0  0  0  0  0  0
  -25.3706  -31.3767   26.1337 C   0  0  0  0  0  0
  -27.0489  -30.2890   24.6426 C   0  0  0  0  0  0
  -27.6063  -32.4340   25.7487 C   0  0  0  0  0  0
  -27.5567  -37.1751   24.8470 C   0  0  0  0  0  0
  -21.4349  -29.3041   22.3536 N   0  0  0  0  0  0
  -26.4274  -37.3692   23.9412 N   0  0  0  0  0  0
  -24.7560  -30.9846   22.0816 N   0  0  0  0  0  0
  -23.4219  -28.8017   23.3062 O   0  0  0  0  0  0
  -28.2469  -25.8031   20.2120 O   0  0  0  0  0  0
  -26.5710  -34.8884   22.4591 O   0  0  0  0  0  0
  -23.5733  -32.1188   23.6750 O   0  0  0  0  0  0
  -28.9698  -20.9221   20.5829 C   0  0  0  0  0  0
  -29.3656  -19.5674   19.9290 C   0  0  0  0  0  0
  -29.4794  -18.1480   20.5749 C   0  0  0  0  0  0
  -28.7030  -20.6580   21.9467 C   0  0  0  0  0  0
  -29.1802  -18.2877   21.9522 C   0  0  0  0  0  0
  -28.9314  -22.6415   20.0900 C   0  0  2  0  0  0
  -28.0501  -24.1635   20.4447 C   0  0  2  0  0  0
  -27.8635  -23.2882   19.2057 C   0  0  0  0  0  0
  -29.7308  -19.6758   18.4610 C   0  0  0  0  0  0
  -28.2738  -21.7767   22.8772 C   0  0  0  0  0  0
  -29.1607  -17.0892   22.8826 C   0  0  0  0  0  0
  -26.5530  -22.5466   19.0242 C   0  0  0  0  0  0
  -28.3163  -23.8407   17.8653 C   0  0  0  0  0  0
  -29.2462  -16.5429   18.6006 C   0  0  0  0  0  0
  -28.8164  -19.4490   22.5636 N   0  0  0  0  0  0
  -29.6860  -16.6209   19.9976 N   0  0  0  0  0  0
  -31.4447  -13.1032   19.1428 H   0  0  0  0  0  0
  -30.5440  -11.9826   20.1259 H   0  0  0  0  0  0
  -29.9235  -11.7308   17.7013 H   0  0  0  0  0  0
  -29.5455  -13.4275   17.5968 H   0  0  0  0  0  0
  -28.0612  -11.2667   19.1117 H   0  0  0  0  0  0
  -27.4124  -12.2974   17.8624 H   0  0  0  0  0  0
  -27.4906  -14.2223   19.2964 H   0  0  0  0  0  0
  -28.8487  -12.5679   21.4772 H   0  0  0  0  0  0
  -28.2714  -14.2091   21.6526 H   0  0  0  0  0  0
  -25.2777   -9.5696   22.4762 H   0  0  0  0  0  0
  -24.0018   -7.4638   22.7469 H   0  0  0  0  0  0
  -21.0851   -8.8766   19.8952 H   0  0  0  0  0  0
  -22.3700  -10.9664   19.6163 H   0  0  0  0  0  0
  -21.2009   -7.6144   23.9719 H   0  0  0  0  0  0
  -21.1466   -6.0511   25.9073 H   0  0  0  0  0  0
  -22.0601   -2.7607   23.2836 H   0  0  0  0  0  0
  -22.4024  -11.9873   22.4888 H   0  0  0  0  0  0
  -21.1017  -13.1206   22.2599 H   0  0  0  0  0  0
  -24.6375  -15.8487   20.5441 H   0  0  0  0  0  0
  -26.2632  -15.6451   20.1294 H   0  0  0  0  0  0
  -26.7403  -32.5092   23.0855 H   0  0  0  0  0  0
  -25.0120  -33.9452   25.0197 H   0  0  0  0  0  0
  -22.7967  -31.2602   21.3439 H   0  0  0  0  0  0
  -23.3776  -35.9495   23.3272 H   0  0  0  0  0  0
  -24.3579  -36.8875   22.2075 H   0  0  0  0  0  0
  -23.7233  -37.6354   23.6734 H   0  0  0  0  0  0
  -26.2353  -31.3574   20.6178 H   0  0  0  0  0  0
  -26.9109  -30.6766   22.0566 H   0  0  0  0  0  0
  -28.1654  -28.5893   21.2547 H   0  0  0  0  0  0
  -25.8808  -25.6960   19.0389 H   0  0  0  0  0  0
  -24.0038  -27.2380   18.9751 H   0  0  0  0  0  0
  -23.8806  -30.5024   19.3871 H   0  0  0  0  0  0
  -22.8312  -29.1935   19.8310 H   0  0  0  0  0  0
  -25.1340  -36.1734   25.0792 H   0  0  0  0  0  0
  -21.0028  -28.3364   24.1322 H   0  0  0  0  0  0
  -20.5712  -26.2372   23.3651 H   0  0  0  0  0  0
  -21.6666  -26.7433   22.1196 H   0  0  0  0  0  0
  -19.6938  -25.6280   21.1281 H   0  0  0  0  0  0
  -19.6713  -27.3162   20.6736 H   0  0  0  0  0  0
  -17.4233  -26.6707   21.4019 H   0  0  0  0  0  0
  -18.0331  -26.0091   22.9024 H   0  0  0  0  0  0
  -19.7965  -30.7322   24.2207 H   0  0  0  0  0  0
  -17.5033  -31.6281   24.5155 H   0  0  0  0  0  0
  -15.5373  -30.2967   23.7701 H   0  0  0  0  0  0
  -15.8707  -28.0796   22.7133 H   0  0  0  0  0  0
  -24.5909  -30.7096   25.7646 H   0  0  0  0  0  0
  -24.8879  -32.2964   26.4645 H   0  0  0  0  0  0
  -25.7945  -30.9016   27.0190 H   0  0  0  0  0  0
  -26.3167  -29.6554   24.1412 H   0  0  0  0  0  0
  -27.4002  -29.7266   25.5085 H   0  0  0  0  0  0
  -27.9106  -30.4079   23.9855 H   0  0  0  0  0  0
  -27.2628  -33.3693   26.1909 H   0  0  0  0  0  0
  -28.3947  -32.6813   25.0366 H   0  0  0  0  0  0
  -28.0639  -31.8570   26.5530 H   0  0  0  0  0  0
  -28.2562  -38.0071   24.7522 H   0  0  0  0  0  0
  -28.1087  -36.2595   24.6287 H   0  0  0  0  0  0
  -27.2283  -37.1369   25.8875 H   0  0  0  0  0  0
  -20.9621  -29.8694   21.6621 H   0  0  0  0  0  0
  -26.0117  -38.2746   24.1425 H   0  0  0  0  0  0
  -29.9643  -22.8394   19.8100 H   0  0  0  0  0  0
  -27.3056  -24.0688   21.2329 H   0  0  0  0  0  0
  -29.9805  -20.7005   18.1873 H   0  0  0  0  0  0
  -28.9033  -19.3526   17.8304 H   0  0  0  0  0  0
  -30.6041  -19.0642   18.2365 H   0  0  0  0  0  0
  -28.9910  -22.5968   22.8592 H   0  0  0  0  0  0
  -28.1919  -21.4358   23.9098 H   0  0  0  0  0  0
  -27.2961  -22.1562   22.5818 H   0  0  0  0  0  0
  -28.4176  -16.3661   22.5518 H   0  0  0  0  0  0
  -28.9038  -17.3750   23.9036 H   0  0  0  0  0  0
  -30.1372  -16.6078   22.9144 H   0  0  0  0  0  0
  -26.2025  -22.1531   19.9797 H   0  0  0  0  0  0
  -26.6840  -21.7063   18.3415 H   0  0  0  0  0  0
  -25.7860  -23.2106   18.6245 H   0  0  0  0  0  0
  -29.2685  -24.3626   17.9676 H   0  0  0  0  0  0
  -27.5835  -24.5477   17.4746 H   0  0  0  0  0  0
  -28.4467  -23.0351   17.1419 H   0  0  0  0  0  0
  -30.0499  -16.8381   17.9258 H   0  0  0  0  0  0
  -28.3881  -17.1916   18.4289 H   0  0  0  0  0  0
  -28.9253  -15.5512   18.2880 H   0  0  0  0  0  0
  1 25  1  0  0  0
  1 30  2  0  0  0
  1 86  1  0  0  0
  2  3  1  0  0  0
  2 25  1  0  0  0
  2 87  1  0  0  0
  2 88  1  0  0  0
  3  4  1  0  0  0
  3 89  1  0  0  0
  3 90  1  0  0  0
  4  5  1  0  0  0
  4 91  1  0  0  0
  4 92  1  0  0  0
  5  6  1  0  0  0
  5 26  1  0  0  0
  5 93  1  0  0  0
  6 25  1  0  0  0
  6 94  1  0  0  0
  6 95  1  0  0  0
  7  8  2  0  0  0
  7 26  1  0  0  0
  7 29  1  0  0  0
  8  9  1  0  0  0
  8 22  1  0  0  0
  9 10  1  0  0  0
  9 27  2  0  0  0
 10 11  2  0  0  0
 10 15  1  0  0  0
 11 12  1  0  0  0
 11 96  1  0  0  0
 12 13  2  0  0  0
 12 97  1  0  0  0
 13 14  1  0  0  0
 13 31  1  0  0  0
 14 15  2  0  0  0
 14 98  1  0  0  0
 15 99  1  0  0  0
 16 17  2  0  0  0
 16 21  1  0  0  0
 16 31  1  0  0  0
 17 18  1  0  0  0
 17100  1  0  0  0
 18 19  2  0  0  0
 18101  1  0  0  0
 19 20  1  0  0  0
 19 24  1  0  0  0
 20 21  2  0  0  0
 20102  1  0  0  0
 21 23  1  0  0  0
 22 28  1  0  0  0
 22 32  2  0  0  0
 26 27  1  0  0  0
 28103  1  0  0  0
 28104  1  0  0  0
 29105  1  0  0  0
 29106  1  0  0  0
 33 34  1  0  0  0
 33 66  1  0  0  0
 33 70  2  0  0  0
 34 36  1  0  0  0
 34 59  1  0  0  0
 34107  1  0  0  0
 35 44  2  0  0  0
 35 45  1  0  0  0
 35 68  1  0  0  0
 36 56  1  0  0  0
 36108  1  0  0  0
 37 39  1  0  0  0
 37 47  1  0  0  0
 37 66  1  0  0  0
 37109  1  0  0  0
 38 43  2  0  0  0
 38 46  1  0  0  0
 38 47  1  0  0  0
 39 64  1  0  0  0
 39 67  2  0  0  0
 40 52  1  0  0  0
 40 53  2  0  0  0
 40 58  1  0  0  0
 41110  1  0  0  0
 41111  1  0  0  0
 41112  1  0  0  0
 41 48  1  0  0  0
 42 43  1  0  0  0
 42 66  1  0  0  0
 42113  1  0  0  0
 42114  1  0  0  0
 43 44  1  0  0  0
 44115  1  0  0  0
 45 46  2  0  0  0
 45116  1  0  0  0
 46117  1  0  0  0
 47118  1  0  0  0
 47119  1  0  0  0
 48 56  1  0  0  0
 48 65  1  0  0  0
 48120  1  0  0  0
 49 50  1  0  0  0
 49 53  1  0  0  0
 49 64  1  0  0  0
 49121  1  0  0  0
 50 51  1  0  0  0
 50122  1  0  0  0
 50123  1  0  0  0
 51 52  1  0  0  0
 51124  1  0  0  0
 51125  1  0  0  0
 52126  1  0  0  0
 52127  1  0  0  0
 53 54  1  0  0  0
 54 55  2  0  0  0
 54128  1  0  0  0
 55 57  1  0  0  0
 55129  1  0  0  0
 56 69  2  0  0  0
 57 58  2  0  0  0
 57130  1  0  0  0
 58131  1  0  0  0
 59 60  1  0  0  0
 59 61  1  0  0  0
 59 62  1  0  0  0
 60132  1  0  0  0
 60133  1  0  0  0
 60134  1  0  0  0
 61135  1  0  0  0
 61136  1  0  0  0
 61137  1  0  0  0
 62138  1  0  0  0
 62139  1  0  0  0
 62140  1  0  0  0
 63 65  1  0  0  0
 63141  1  0  0  0
 63142  1  0  0  0
 63143  1  0  0  0
 64144  1  0  0  0
 65145  1  0  0  0
 68 77  1  0  0  0
 71 72  2  0  0  0
 71 74  1  0  0  0
 71 76  1  0  0  0
 72 73  1  0  0  0
 72 79  1  0  0  0
 73 75  2  0  0  0
 73 86  1  0  0  0
 74 80  1  0  0  0
 74 85  2  0  0  0
 75 81  1  0  0  0
 75 85  1  0  0  0
 76 77  1  0  0  0
 76 78  1  0  0  0
 76146  1  0  0  0
 77 78  1  0  0  0
 77147  1  0  0  0
 78 82  1  0  0  0
 78 83  1  0  0  0
 79148  1  0  0  0
 79149  1  0  0  0
 79150  1  0  0  0
 80151  1  0  0  0
 80152  1  0  0  0
 80153  1  0  0  0
 81154  1  0  0  0
 81155  1  0  0  0
 81156  1  0  0  0
 82157  1  0  0  0
 82158  1  0  0  0
 82159  1  0  0  0
 83160  1  0  0  0
 83161  1  0  0  0
 83162  1  0  0  0
 84 86  1  0  0  0
 84163  1  0  0  0
 84164  1  0  0  0
 84165  1  0  0  0
M  ISO  4   1 100  68 101  77 101  86 100
M  END
> <chiral flag>
0

> <version>
0

> <s_m_source_file>
/data/baiqing/PycharmProjects/Reinvent-master-3.2/result/LINK_invent/BTK/process_docking_weight1_custom_sum_contain_oxygen_bond_distance_aromatic_linkinvent_7_9_3/rearranged_h_0168.sdf

> <i_m_source_file_index>
16

> <r_mmod_Potential_Energy-OPLS-2005>
1409.20129394531

> <r_mmod_Stretch_Energy-OPLS-2005>
659.827087402344

> <r_mmod_Bend_Energy-OPLS-2005>
434.348846435547

> <r_mmod_Torsional_Energy-OPLS-2005>
351.485534667969

> <r_mmod_Improper_Torsional_Energy-OPLS-2005>
16.9249324798584

> <r_mmod_Van_der_Waal_Energy-OPLS-2005>
116.481239318848

> <r_mmod_Electrostatic_Energy-OPLS-2005>
-491.740966796875

> <r_mmod_Solvation_Energy-OPLS-2005>
-199.182159423828

> <b_mmod_Minimization_Converged-OPLS-2005>
0

> <r_mmod_RMS_Derivative-OPLS-2005>
1.42062151432037

$$$$
16
                    3D
 Structure written by MMmdl.
161170  0  0  1  0            999 V2000
  -30.6667  -14.6744   20.5022 C   0  0  0  0  0  0
  -30.4230  -12.4226   19.4594 C   0  0  0  0  0  0
  -29.4994  -12.5104   18.2258 C   0  0  0  0  0  0
  -28.0242  -12.3470   18.6394 C   0  0  0  0  0  0
  -27.6454  -13.2265   19.8612 C   0  0  2  0  0  0
  -28.6938  -13.1064   20.9887 C   0  0  0  0  0  0
  -25.2505  -13.8187   20.5690 C   0  0  0  0  0  0
  -24.1797  -13.0438   20.9205 C   0  0  0  0  0  0
  -24.6388  -11.6916   20.8761 C   0  0  0  0  0  0
  -23.9067  -10.4293   21.0417 C   0  0  0  0  0  0
  -24.3619   -9.4205   21.9191 C   0  0  0  0  0  0
  -23.6292   -8.2242   22.0756 C   0  0  0  0  0  0
  -22.4276   -8.0283   21.3543 C   0  0  0  0  0  0
  -21.9912   -9.0258   20.4646 C   0  0  0  0  0  0
  -22.7242  -10.2136   20.3059 C   0  0  0  0  0  0
  -21.6852   -6.0734   22.5275 C   0  0  0  0  0  0
  -21.4015   -6.5639   23.8210 C   0  0  0  0  0  0
  -21.3660   -5.6792   24.9173 C   0  0  0  0  0  0
  -21.6044   -4.3054   24.7226 C   0  0  0  0  0  0
  -21.8818   -3.8146   23.4347 C   0  0  0  0  0  0
  -21.9194   -4.6962   22.3401 C   0  0  0  0  0  0
  -22.7820  -13.5223   21.1863 C   0  0  0  0  0  0
  -22.1661   -4.2147   21.0978 F   0  0  0  0  0  0
  -21.5630   -3.4540   25.7740 F   0  0  0  0  0  0
  -29.9925  -13.4754   20.4095 N   0  0  0  0  0  0
  -26.2949  -12.9395   20.3341 N   0  0  0  0  0  0
  -25.9320  -11.6539   20.5787 N   0  0  0  0  0  0
  -22.0471  -12.8212   22.0422 N   0  0  0  0  0  0
  -25.4165  -15.1906   20.4058 N   0  0  0  0  0  0
  -31.8453  -14.7262   20.1341 O   0  0  0  0  0  0
  -21.6643   -6.8879   21.4236 O   0  0  0  0  0  0
  -22.3507  -14.5532   20.6715 O   0  0  0  0  0  0
  -24.6273  -31.8590   23.2026 C   0  0  0  0  0  0
  -25.9114  -32.4779   23.8360 C   0  0  1  0  0  0
  -27.2202  -27.3120   20.1260 C   0  0  0  0  0  0
  -25.5926  -33.8580   24.2284 N   0  0  0  0  0  0
  -23.4225  -30.4820   21.5451 C   0  0  2  0  0  0
  -24.8715  -28.9388   20.1091 C   0  0  0  0  0  0
  -22.7482  -29.4616   22.4932 C   0  0  0  0  0  0
  -18.0287  -28.1386   22.8490 C   0  0  0  0  0  0
  -24.1487  -36.7291   23.2635 C   0  0  0  0  0  0
  -25.9646  -30.7884   21.3757 C   0  0  0  0  0  0
  -26.0409  -29.4151   20.7181 C   0  0  0  0  0  0
  -27.2230  -28.6131   20.7177 C   0  0  0  0  0  0
  -26.0377  -26.8972   19.4783 C   0  0  0  0  0  0
  -24.8722  -27.6852   19.4782 C   0  0  0  0  0  0
  -23.6383  -29.8180   20.1601 C   0  0  0  0  0  0
  -25.4109  -36.3083   24.0331 C   0  0  1  0  0  0
  -20.5887  -28.3691   23.1282 C   0  0  2  0  0  0
  -20.6777  -26.9412   22.5412 C   0  0  0  0  0  0
  -19.5752  -26.6387   21.5215 C   0  0  0  0  0  0
  -18.1930  -26.7933   22.1624 C   0  0  0  0  0  0
  -19.1541  -28.8856   23.2882 C   0  0  0  0  0  0
  -18.9463  -30.1459   23.8897 C   0  0  0  0  0  0
  -17.6462  -30.6589   24.0564 C   0  0  0  0  0  0
  -25.9052  -34.9452   23.5109 C   0  0  0  0  0  0
  -16.5353  -29.9086   23.6332 C   0  0  0  0  0  0
  -16.7275  -28.6501   23.0357 C   0  0  0  0  0  0
  -26.4497  -31.6589   25.0729 C   0  0  0  0  0  0
  -25.3728  -31.3726   26.1454 C   0  0  0  0  0  0
  -27.0339  -30.3012   24.6188 C   0  0  0  0  0  0
  -27.6059  -32.4320   25.7496 C   0  0  0  0  0  0
  -27.5589  -37.1786   24.8453 C   0  0  0  0  0  0
  -21.4192  -29.3042   22.3677 N   0  0  0  0  0  0
  -26.4281  -37.3787   23.9426 N   0  0  0  0  0  0
  -24.6903  -31.0593   22.0983 N   0  0  0  0  0  0
  -23.4200  -28.8152   23.3015 O   0  0  0  0  0  0
  -28.2913  -26.4073   20.1713 O   0  0  0  0  0  0
  -26.5620  -34.8920   22.4676 O   0  0  0  0  0  0
  -23.5432  -32.1391   23.7342 O   0  0  0  0  0  0
  -28.3140  -21.3993   20.4179 C   0  0  0  0  0  0
  -30.5747  -22.1535   20.6086 C   0  0  0  0  0  0
  -30.0783  -23.5018   20.6625 C   0  0  0  0  0  0
  -29.6823  -21.0366   20.5225 C   0  0  0  0  0  0
  -28.6813  -23.7511   20.5794 C   0  0  0  0  0  0
  -29.0205  -17.7977   21.7951 C   0  0  0  0  0  0
  -28.9797  -16.2523   21.6313 C   0  0  0  0  0  0
  -30.4324  -17.1640   20.0125 C   0  0  0  0  0  0
  -29.5115  -18.3595   20.4605 C   0  0  2  0  0  0
  -32.0797  -21.9052   20.6847 C   0  0  0  0  0  0
  -31.0413  -24.6714   20.8524 C   0  0  0  0  0  0
  -27.9875  -25.1442   20.8957 C   0  0  0  0  0  0
  -27.8427  -22.6840   20.4417 N   0  0  0  0  0  0
  -29.9637  -15.8701   20.6081 N   0  0  0  0  0  0
  -30.1978  -19.6872   20.5540 N   0  0  0  0  0  0
  -31.4646  -12.5275   19.1516 H   0  0  0  0  0  0
  -30.3545  -11.4370   19.9232 H   0  0  0  0  0  0
  -29.7684  -11.7466   17.4952 H   0  0  0  0  0  0
  -29.6371  -13.4722   17.7289 H   0  0  0  0  0  0
  -27.8653  -11.2950   18.8788 H   0  0  0  0  0  0
  -27.3685  -12.5675   17.7961 H   0  0  0  0  0  0
  -27.6552  -14.2583   19.5100 H   0  0  0  0  0  0
  -28.7257  -12.0847   21.3698 H   0  0  0  0  0  0
  -28.4322  -13.7211   21.8468 H   0  0  0  0  0  0
  -25.2762   -9.5680   22.4771 H   0  0  0  0  0  0
  -23.9998   -7.4634   22.7475 H   0  0  0  0  0  0
  -21.0843   -8.8777   19.8953 H   0  0  0  0  0  0
  -22.3699  -10.9678   19.6172 H   0  0  0  0  0  0
  -21.2003   -7.6147   23.9715 H   0  0  0  0  0  0
  -21.1485   -6.0522   25.9076 H   0  0  0  0  0  0
  -22.0595   -2.7607   23.2853 H   0  0  0  0  0  0
  -22.4090  -11.9866   22.4792 H   0  0  0  0  0  0
  -21.1093  -13.1240   22.2647 H   0  0  0  0  0  0
  -24.6470  -15.8425   20.5112 H   0  0  0  0  0  0
  -26.2643  -15.6289   20.0694 H   0  0  0  0  0  0
  -26.7188  -32.5450   23.1116 H   0  0  0  0  0  0
  -25.0075  -33.9729   25.0430 H   0  0  0  0  0  0
  -22.7167  -31.3029   21.4016 H   0  0  0  0  0  0
  -23.3764  -35.9605   23.3264 H   0  0  0  0  0  0
  -24.3590  -36.8946   22.2057 H   0  0  0  0  0  0
  -23.7216  -37.6471   23.6680 H   0  0  0  0  0  0
  -26.0952  -31.5511   20.6068 H   0  0  0  0  0  0
  -26.8450  -30.8389   22.0049 H   0  0  0  0  0  0
  -28.1179  -28.9685   21.2091 H   0  0  0  0  0  0
  -26.0046  -25.9332   18.9898 H   0  0  0  0  0  0
  -23.9786  -27.3161   18.9934 H   0  0  0  0  0  0
  -23.7553  -30.5954   19.4045 H   0  0  0  0  0  0
  -22.7590  -29.2463   19.8578 H   0  0  0  0  0  0
  -25.1281  -36.1932   25.0821 H   0  0  0  0  0  0
  -20.9980  -28.3268   24.1403 H   0  0  0  0  0  0
  -20.5680  -26.2299   23.3613 H   0  0  0  0  0  0
  -21.6646  -26.7439   22.1206 H   0  0  0  0  0  0
  -19.6911  -25.6296   21.1249 H   0  0  0  0  0  0
  -19.6695  -27.3196   20.6745 H   0  0  0  0  0  0
  -17.4201  -26.6687   21.4023 H   0  0  0  0  0  0
  -18.0321  -26.0071   22.9014 H   0  0  0  0  0  0
  -19.7936  -30.7276   24.2268 H   0  0  0  0  0  0
  -17.5014  -31.6269   24.5165 H   0  0  0  0  0  0
  -15.5353  -30.2987   23.7655 H   0  0  0  0  0  0
  -15.8676  -28.0819   22.7076 H   0  0  0  0  0  0
  -24.5912  -30.7067   25.7783 H   0  0  0  0  0  0
  -24.8911  -32.2890   26.4871 H   0  0  0  0  0  0
  -25.8052  -30.8913   27.0234 H   0  0  0  0  0  0
  -26.2916  -29.6763   24.1212 H   0  0  0  0  0  0
  -27.4032  -29.7271   25.4697 H   0  0  0  0  0  0
  -27.8789  -30.4300   23.9420 H   0  0  0  0  0  0
  -27.2681  -33.3626   26.2072 H   0  0  0  0  0  0
  -28.3869  -32.6870   25.0320 H   0  0  0  0  0  0
  -28.0729  -31.8443   26.5412 H   0  0  0  0  0  0
  -28.2559  -38.0132   24.7578 H   0  0  0  0  0  0
  -28.1135  -36.2669   24.6175 H   0  0  0  0  0  0
  -27.2324  -37.1309   25.8856 H   0  0  0  0  0  0
  -20.9370  -29.8763   21.6886 H   0  0  0  0  0  0
  -26.0158  -38.2849   24.1479 H   0  0  0  0  0  0
  -27.5588  -20.6315   20.3348 H   0  0  0  0  0  0
  -29.7296  -18.0480   22.5865 H   0  0  0  0  0  0
  -28.0531  -18.2076   22.0886 H   0  0  0  0  0  0
  -27.9894  -15.9481   21.2963 H   0  0  0  0  0  0
  -29.1779  -15.7597   22.5842 H   0  0  0  0  0  0
  -31.4548  -17.3356   20.3541 H   0  0  0  0  0  0
  -30.4715  -17.0883   18.9249 H   0  0  0  0  0  0
  -28.6678  -18.4310   19.7714 H   0  0  0  0  0  0
  -32.6450  -22.6959   20.1936 H   0  0  0  0  0  0
  -32.3768  -20.9820   20.1887 H   0  0  0  0  0  0
  -32.3976  -21.8497   21.7259 H   0  0  0  0  0  0
  -31.8154  -24.4339   21.5826 H   0  0  0  0  0  0
  -30.5495  -25.5731   21.2139 H   0  0  0  0  0  0
  -31.5260  -24.9175   19.9070 H   0  0  0  0  0  0
  -28.2116  -25.3514   21.9426 H   0  0  0  0  0  0
  -26.9139  -24.9546   20.8994 H   0  0  0  0  0  0
  -31.2060  -19.6194   20.6582 H   0  0  0  0  0  0
  1 25  1  0  0  0
  1 30  2  0  0  0
  1 84  1  0  0  0
  2  3  1  0  0  0
  2 25  1  0  0  0
  2 86  1  0  0  0
  2 87  1  0  0  0
  3  4  1  0  0  0
  3 88  1  0  0  0
  3 89  1  0  0  0
  4  5  1  0  0  0
  4 90  1  0  0  0
  4 91  1  0  0  0
  5  6  1  0  0  0
  5 26  1  0  0  0
  5 92  1  0  0  0
  6 25  1  0  0  0
  6 93  1  0  0  0
  6 94  1  0  0  0
  7  8  2  0  0  0
  7 26  1  0  0  0
  7 29  1  0  0  0
  8  9  1  0  0  0
  8 22  1  0  0  0
  9 10  1  0  0  0
  9 27  2  0  0  0
 10 11  2  0  0  0
 10 15  1  0  0  0
 11 12  1  0  0  0
 11 95  1  0  0  0
 12 13  2  0  0  0
 12 96  1  0  0  0
 13 14  1  0  0  0
 13 31  1  0  0  0
 14 15  2  0  0  0
 14 97  1  0  0  0
 15 98  1  0  0  0
 16 17  2  0  0  0
 16 21  1  0  0  0
 16 31  1  0  0  0
 17 18  1  0  0  0
 17 99  1  0  0  0
 18 19  2  0  0  0
 18100  1  0  0  0
 19 20  1  0  0  0
 19 24  1  0  0  0
 20 21  2  0  0  0
 20101  1  0  0  0
 21 23  1  0  0  0
 22 28  1  0  0  0
 22 32  2  0  0  0
 26 27  1  0  0  0
 28102  1  0  0  0
 28103  1  0  0  0
 29104  1  0  0  0
 29105  1  0  0  0
 33 34  1  0  0  0
 33 66  1  0  0  0
 33 70  2  0  0  0
 34 36  1  0  0  0
 34 59  1  0  0  0
 34106  1  0  0  0
 35 44  2  0  0  0
 35 45  1  0  0  0
 35 68  1  0  0  0
 36 56  1  0  0  0
 36107  1  0  0  0
 37 39  1  0  0  0
 37 47  1  0  0  0
 37 66  1  0  0  0
 37108  1  0  0  0
 38 43  2  0  0  0
 38 46  1  0  0  0
 38 47  1  0  0  0
 39 64  1  0  0  0
 39 67  2  0  0  0
 40 52  1  0  0  0
 40 53  2  0  0  0
 40 58  1  0  0  0
 41109  1  0  0  0
 41110  1  0  0  0
 41111  1  0  0  0
 41 48  1  0  0  0
 42 43  1  0  0  0
 42 66  1  0  0  0
 42112  1  0  0  0
 42113  1  0  0  0
 43 44  1  0  0  0
 44114  1  0  0  0
 45 46  2  0  0  0
 45115  1  0  0  0
 46116  1  0  0  0
 47117  1  0  0  0
 47118  1  0  0  0
 48 56  1  0  0  0
 48 65  1  0  0  0
 48119  1  0  0  0
 49 50  1  0  0  0
 49 53  1  0  0  0
 49 64  1  0  0  0
 49120  1  0  0  0
 50 51  1  0  0  0
 50121  1  0  0  0
 50122  1  0  0  0
 51 52  1  0  0  0
 51123  1  0  0  0
 51124  1  0  0  0
 52125  1  0  0  0
 52126  1  0  0  0
 53 54  1  0  0  0
 54 55  2  0  0  0
 54127  1  0  0  0
 55 57  1  0  0  0
 55128  1  0  0  0
 56 69  2  0  0  0
 57 58  2  0  0  0
 57129  1  0  0  0
 58130  1  0  0  0
 59 60  1  0  0  0
 59 61  1  0  0  0
 59 62  1  0  0  0
 60131  1  0  0  0
 60132  1  0  0  0
 60133  1  0  0  0
 61134  1  0  0  0
 61135  1  0  0  0
 61136  1  0  0  0
 62137  1  0  0  0
 62138  1  0  0  0
 62139  1  0  0  0
 63 65  1  0  0  0
 63140  1  0  0  0
 63141  1  0  0  0
 63142  1  0  0  0
 64143  1  0  0  0
 65144  1  0  0  0
 68 82  1  0  0  0
 71 74  2  0  0  0
 71 83  1  0  0  0
 71145  1  0  0  0
 72 73  2  0  0  0
 72 74  1  0  0  0
 72 80  1  0  0  0
 73 75  1  0  0  0
 73 81  1  0  0  0
 74 85  1  0  0  0
 75 82  1  0  0  0
 75 83  2  0  0  0
 76 77  1  0  0  0
 76 79  1  0  0  0
 76146  1  0  0  0
 76147  1  0  0  0
 77 84  1  0  0  0
 77148  1  0  0  0
 77149  1  0  0  0
 78 79  1  0  0  0
 78 84  1  0  0  0
 78150  1  0  0  0
 78151  1  0  0  0
 79 85  1  0  0  0
 79152  1  0  0  0
 80153  1  0  0  0
 80154  1  0  0  0
 80155  1  0  0  0
 81156  1  0  0  0
 81157  1  0  0  0
 81158  1  0  0  0
 82159  1  0  0  0
 82160  1  0  0  0
 85161  1  0  0  0
M  ISO  4   1 100  68 101  82 101  84 100
M  END
> <chiral flag>
0

> <version>
0

> <s_m_source_file>
/data/baiqing/PycharmProjects/Reinvent-master-3.2/result/LINK_invent/BTK/process_docking_weight1_custom_sum_contain_oxygen_bond_distance_aromatic_linkinvent_7_9_3/rearranged_h_0168.sdf

> <i_m_source_file_index>
17

> <r_mmod_Potential_Energy-OPLS-2005>
208.109024047852

> <r_mmod_Stretch_Energy-OPLS-2005>
88.3559341430664

> <r_mmod_Bend_Energy-OPLS-2005>
193.026306152344

> <r_mmod_Torsional_Energy-OPLS-2005>
328.751251220703

> <r_mmod_Improper_Torsional_Energy-OPLS-2005>
13.7164039611816

> <r_mmod_Van_der_Waal_Energy-OPLS-2005>
147.715072631836

> <r_mmod_Electrostatic_Energy-OPLS-2005>
-406.712127685547

> <r_mmod_Solvation_Energy-OPLS-2005>
-216.326522827148

> <b_mmod_Minimization_Converged-OPLS-2005>
0

> <r_mmod_RMS_Derivative-OPLS-2005>
0.641836762428284

$$$$
17
                    3D
 Structure written by MMmdl.
166175  0  0  1  0            999 V2000
  -30.6306  -14.6379   20.5048 C   0  0  0  0  0  0
  -30.4353  -12.3885   19.4594 C   0  0  0  0  0  0
  -29.5112  -12.5165   18.2284 C   0  0  0  0  0  0
  -28.0332  -12.3550   18.6359 C   0  0  0  0  0  0
  -27.6554  -13.2200   19.8683 C   0  0  2  0  0  0
  -28.6986  -13.0724   20.9997 C   0  0  0  0  0  0
  -25.2556  -13.8167   20.5673 C   0  0  0  0  0  0
  -24.1825  -13.0432   20.9175 C   0  0  0  0  0  0
  -24.6396  -11.6905   20.8722 C   0  0  0  0  0  0
  -23.9065  -10.4290   21.0394 C   0  0  0  0  0  0
  -24.3612   -9.4211   21.9181 C   0  0  0  0  0  0
  -23.6292   -8.2247   22.0753 C   0  0  0  0  0  0
  -22.4277   -8.0275   21.3546 C   0  0  0  0  0  0
  -21.9907   -9.0249   20.4646 C   0  0  0  0  0  0
  -22.7234  -10.2132   20.3047 C   0  0  0  0  0  0
  -21.6854   -6.0732   22.5281 C   0  0  0  0  0  0
  -21.4008   -6.5637   23.8212 C   0  0  0  0  0  0
  -21.3660   -5.6788   24.9176 C   0  0  0  0  0  0
  -21.6046   -4.3051   24.7228 C   0  0  0  0  0  0
  -21.8822   -3.8143   23.4345 C   0  0  0  0  0  0
  -21.9192   -4.6957   22.3402 C   0  0  0  0  0  0
  -22.7848  -13.5229   21.1839 C   0  0  0  0  0  0
  -22.1665   -4.2143   21.0978 F   0  0  0  0  0  0
  -21.5631   -3.4530   25.7738 F   0  0  0  0  0  0
  -30.0172  -13.4116   20.4406 N   0  0  0  0  0  0
  -26.3005  -12.9363   20.3345 N   0  0  0  0  0  0
  -25.9332  -11.6513   20.5753 N   0  0  0  0  0  0
  -22.0485  -12.8224   22.0394 N   0  0  0  0  0  0
  -25.4246  -15.1885   20.4088 N   0  0  0  0  0  0
  -31.7894  -14.7829   20.0989 O   0  0  0  0  0  0
  -21.6639   -6.8875   21.4244 O   0  0  0  0  0  0
  -22.3534  -14.5538   20.6695 O   0  0  0  0  0  0
  -24.6243  -31.8614   23.2027 C   0  0  0  0  0  0
  -25.9099  -32.4782   23.8356 C   0  0  1  0  0  0
  -27.2224  -27.3303   20.1290 C   0  0  0  0  0  0
  -25.5924  -33.8582   24.2286 N   0  0  0  0  0  0
  -23.4178  -30.4834   21.5450 C   0  0  2  0  0  0
  -24.8647  -28.9366   20.1126 C   0  0  0  0  0  0
  -22.7466  -29.4627   22.4948 C   0  0  0  0  0  0
  -18.0286  -28.1379   22.8494 C   0  0  0  0  0  0
  -24.1486  -36.7286   23.2641 C   0  0  0  0  0  0
  -25.9565  -30.7959   21.3712 C   0  0  0  0  0  0
  -26.0321  -29.4227   20.7174 C   0  0  0  0  0  0
  -27.2163  -28.6320   20.7134 C   0  0  0  0  0  0
  -26.0398  -26.8936   19.4956 C   0  0  0  0  0  0
  -24.8703  -27.6779   19.4898 C   0  0  0  0  0  0
  -23.6318  -29.8155   20.1605 C   0  0  0  0  0  0
  -25.4110  -36.3080   24.0338 C   0  0  1  0  0  0
  -20.5888  -28.3678   23.1299 C   0  0  2  0  0  0
  -20.6769  -26.9405   22.5418 C   0  0  0  0  0  0
  -19.5745  -26.6386   21.5218 C   0  0  0  0  0  0
  -18.1924  -26.7928   22.1620 C   0  0  0  0  0  0
  -19.1539  -28.8845   23.2890 C   0  0  0  0  0  0
  -18.9460  -30.1452   23.8895 C   0  0  0  0  0  0
  -17.6462  -30.6584   24.0563 C   0  0  0  0  0  0
  -25.9050  -34.9454   23.5108 C   0  0  0  0  0  0
  -16.5352  -29.9080   23.6337 C   0  0  0  0  0  0
  -16.7276  -28.6497   23.0359 C   0  0  0  0  0  0
  -26.4489  -31.6581   25.0719 C   0  0  0  0  0  0
  -25.3724  -31.3708   26.1443 C   0  0  0  0  0  0
  -27.0332  -30.3012   24.6144 C   0  0  0  0  0  0
  -27.6060  -32.4307   25.7482 C   0  0  0  0  0  0
  -27.5581  -37.1792   24.8464 C   0  0  0  0  0  0
  -21.4180  -29.3037   22.3693 N   0  0  0  0  0  0
  -26.4287  -37.3778   23.9416 N   0  0  0  0  0  0
  -24.6849  -31.0637   22.0965 N   0  0  0  0  0  0
  -23.4197  -28.8175   23.3027 O   0  0  0  0  0  0
  -28.3361  -26.4865   20.1448 O   0  0  0  0  0  0
  -26.5616  -34.8925   22.4673 O   0  0  0  0  0  0
  -23.5411  -32.1401   23.7366 O   0  0  0  0  0  0
  -28.7270  -19.2869   20.9899 C   0  0  0  0  0  0
  -29.7531  -19.9747   20.3003 C   0  0  0  0  0  0
  -28.7887  -17.8665   21.1926 C   0  0  0  0  0  0
  -30.8258  -19.1443   19.8643 C   0  0  0  0  0  0
  -29.9020  -17.1249   20.7052 C   0  0  0  0  0  0
  -28.9064  -21.8666   18.6943 C   0  0  0  0  0  0
  -28.5285  -23.3716   18.7698 C   0  0  0  0  0  0
  -29.6940  -21.5205   19.9683 C   0  0  1  0  0  0
  -29.0076  -23.9201   20.1293 C   0  0  2  0  0  0
  -29.1315  -22.5872   20.9726 C   0  0  2  0  0  0
  -32.0015  -19.7137   19.0932 C   0  0  0  0  0  0
  -30.0196  -22.7418   22.2148 C   0  0  0  0  0  0
  -26.6547  -17.8458   22.3030 C   0  0  0  0  0  0
  -28.1419  -25.1300   20.6996 C   0  0  0  0  0  0
  -30.8931  -17.7946   20.0633 N   0  0  0  0  0  0
  -29.8470  -15.6820   20.9161 N   0  0  0  0  0  0
  -27.8007  -17.1450   21.8342 O   0  0  0  0  0  0
  -31.4791  -12.5008   19.1616 H   0  0  0  0  0  0
  -30.3564  -11.3905   19.8943 H   0  0  0  0  0  0
  -29.7783  -11.7724   17.4772 H   0  0  0  0  0  0
  -29.6581  -13.4910   17.7591 H   0  0  0  0  0  0
  -27.8674  -11.3004   18.8604 H   0  0  0  0  0  0
  -27.3809  -12.5929   17.7945 H   0  0  0  0  0  0
  -27.6754  -14.2574   19.5335 H   0  0  0  0  0  0
  -28.7063  -12.0511   21.3840 H   0  0  0  0  0  0
  -28.4402  -13.7062   21.8498 H   0  0  0  0  0  0
  -25.2759   -9.5693   22.4752 H   0  0  0  0  0  0
  -24.0006   -7.4632   22.7471 H   0  0  0  0  0  0
  -21.0841   -8.8763   19.8947 H   0  0  0  0  0  0
  -22.3694  -10.9664   19.6146 H   0  0  0  0  0  0
  -21.2001   -7.6146   23.9712 H   0  0  0  0  0  0
  -21.1483   -6.0520   25.9080 H   0  0  0  0  0  0
  -22.0599   -2.7602   23.2840 H   0  0  0  0  0  0
  -22.4089  -11.9876   22.4769 H   0  0  0  0  0  0
  -21.1105  -13.1260   22.2594 H   0  0  0  0  0  0
  -24.6556  -15.8397   20.5194 H   0  0  0  0  0  0
  -26.2909  -15.6395   20.1435 H   0  0  0  0  0  0
  -26.7168  -32.5456   23.1108 H   0  0  0  0  0  0
  -25.0081  -33.9727   25.0436 H   0  0  0  0  0  0
  -22.7111  -31.3036   21.4028 H   0  0  0  0  0  0
  -23.3762  -35.9604   23.3291 H   0  0  0  0  0  0
  -24.3583  -36.8915   22.2059 H   0  0  0  0  0  0
  -23.7219  -37.6478   23.6666 H   0  0  0  0  0  0
  -26.0882  -31.5573   20.6012 H   0  0  0  0  0  0
  -26.8379  -30.8453   21.9993 H   0  0  0  0  0  0
  -28.1144  -28.9995   21.1906 H   0  0  0  0  0  0
  -26.0157  -25.9294   19.0080 H   0  0  0  0  0  0
  -23.9782  -27.3046   19.0049 H   0  0  0  0  0  0
  -23.7471  -30.5904   19.4015 H   0  0  0  0  0  0
  -22.7525  -29.2416   19.8615 H   0  0  0  0  0  0
  -25.1288  -36.1928   25.0831 H   0  0  0  0  0  0
  -20.9995  -28.3242   24.1414 H   0  0  0  0  0  0
  -20.5687  -26.2280   23.3607 H   0  0  0  0  0  0
  -21.6634  -26.7437   22.1206 H   0  0  0  0  0  0
  -19.6904  -25.6299   21.1244 H   0  0  0  0  0  0
  -19.6692  -27.3199   20.6752 H   0  0  0  0  0  0
  -17.4208  -26.6711   21.4003 H   0  0  0  0  0  0
  -18.0301  -26.0060   22.9002 H   0  0  0  0  0  0
  -19.7936  -30.7271   24.2255 H   0  0  0  0  0  0
  -17.5018  -31.6265   24.5161 H   0  0  0  0  0  0
  -15.5352  -30.2978   23.7661 H   0  0  0  0  0  0
  -15.8679  -28.0817   22.7065 H   0  0  0  0  0  0
  -24.5904  -30.7052   25.7764 H   0  0  0  0  0  0
  -24.8906  -32.2870   26.4869 H   0  0  0  0  0  0
  -25.8050  -30.8883   27.0216 H   0  0  0  0  0  0
  -26.2891  -29.6757   24.1198 H   0  0  0  0  0  0
  -27.4083  -29.7261   25.4618 H   0  0  0  0  0  0
  -27.8741  -30.4317   23.9328 H   0  0  0  0  0  0
  -27.2688  -33.3621   26.2043 H   0  0  0  0  0  0
  -28.3876  -32.6837   25.0307 H   0  0  0  0  0  0
  -28.0721  -31.8438   26.5404 H   0  0  0  0  0  0
  -28.2586  -38.0103   24.7533 H   0  0  0  0  0  0
  -28.1089  -36.2632   24.6254 H   0  0  0  0  0  0
  -27.2312  -37.1403   25.8872 H   0  0  0  0  0  0
  -20.9352  -29.8742   21.6894 H   0  0  0  0  0  0
  -26.0167  -38.2856   24.1417 H   0  0  0  0  0  0
  -27.8854  -19.8639   21.3396 H   0  0  0  0  0  0
  -29.4728  -21.6296   17.7928 H   0  0  0  0  0  0
  -27.9886  -21.2776   18.6560 H   0  0  0  0  0  0
  -27.4468  -23.4758   18.6747 H   0  0  0  0  0  0
  -28.9700  -23.9372   17.9491 H   0  0  0  0  0  0
  -30.7216  -21.8391   19.7904 H   0  0  0  0  0  0
  -30.0226  -24.2954   19.9925 H   0  0  0  0  0  0
  -28.1317  -22.2863   21.2888 H   0  0  0  0  0  0
  -32.5840  -20.3845   19.7249 H   0  0  0  0  0  0
  -31.6567  -20.2679   18.2205 H   0  0  0  0  0  0
  -32.6686  -18.9263   18.7397 H   0  0  0  0  0  0
  -31.0266  -23.0620   21.9447 H   0  0  0  0  0  0
  -30.1071  -21.7987   22.7552 H   0  0  0  0  0  0
  -29.6120  -23.4807   22.9045 H   0  0  0  0  0  0
  -25.9738  -17.1421   22.7820 H   0  0  0  0  0  0
  -26.1126  -18.3147   21.4805 H   0  0  0  0  0  0
  -26.9193  -18.6026   23.0434 H   0  0  0  0  0  0
  -28.3774  -25.2293   21.7593 H   0  0  0  0  0  0
  -27.0932  -24.8328   20.6884 H   0  0  0  0  0  0
  -28.9737  -15.3940   21.3275 H   0  0  0  0  0  0
  1 25  1  0  0  0
  1 30  2  0  0  0
  1 86  1  0  0  0
  2  3  1  0  0  0
  2 25  1  0  0  0
  2 88  1  0  0  0
  2 89  1  0  0  0
  3  4  1  0  0  0
  3 90  1  0  0  0
  3 91  1  0  0  0
  4  5  1  0  0  0
  4 92  1  0  0  0
  4 93  1  0  0  0
  5  6  1  0  0  0
  5 26  1  0  0  0
  5 94  1  0  0  0
  6 25  1  0  0  0
  6 95  1  0  0  0
  6 96  1  0  0  0
  7  8  2  0  0  0
  7 26  1  0  0  0
  7 29  1  0  0  0
  8  9  1  0  0  0
  8 22  1  0  0  0
  9 10  1  0  0  0
  9 27  2  0  0  0
 10 11  2  0  0  0
 10 15  1  0  0  0
 11 12  1  0  0  0
 11 97  1  0  0  0
 12 13  2  0  0  0
 12 98  1  0  0  0
 13 14  1  0  0  0
 13 31  1  0  0  0
 14 15  2  0  0  0
 14 99  1  0  0  0
 15100  1  0  0  0
 16 17  2  0  0  0
 16 21  1  0  0  0
 16 31  1  0  0  0
 17 18  1  0  0  0
 17101  1  0  0  0
 18 19  2  0  0  0
 18102  1  0  0  0
 19 20  1  0  0  0
 19 24  1  0  0  0
 20 21  2  0  0  0
 20103  1  0  0  0
 21 23  1  0  0  0
 22 28  1  0  0  0
 22 32  2  0  0  0
 26 27  1  0  0  0
 28104  1  0  0  0
 28105  1  0  0  0
 29106  1  0  0  0
 29107  1  0  0  0
 33 34  1  0  0  0
 33 66  1  0  0  0
 33 70  2  0  0  0
 34 36  1  0  0  0
 34 59  1  0  0  0
 34108  1  0  0  0
 35 44  2  0  0  0
 35 45  1  0  0  0
 35 68  1  0  0  0
 36 56  1  0  0  0
 36109  1  0  0  0
 37 39  1  0  0  0
 37 47  1  0  0  0
 37 66  1  0  0  0
 37110  1  0  0  0
 38 43  2  0  0  0
 38 46  1  0  0  0
 38 47  1  0  0  0
 39 64  1  0  0  0
 39 67  2  0  0  0
 40 52  1  0  0  0
 40 53  2  0  0  0
 40 58  1  0  0  0
 41111  1  0  0  0
 41112  1  0  0  0
 41113  1  0  0  0
 41 48  1  0  0  0
 42 43  1  0  0  0
 42 66  1  0  0  0
 42114  1  0  0  0
 42115  1  0  0  0
 43 44  1  0  0  0
 44116  1  0  0  0
 45 46  2  0  0  0
 45117  1  0  0  0
 46118  1  0  0  0
 47119  1  0  0  0
 47120  1  0  0  0
 48 56  1  0  0  0
 48 65  1  0  0  0
 48121  1  0  0  0
 49 50  1  0  0  0
 49 53  1  0  0  0
 49 64  1  0  0  0
 49122  1  0  0  0
 50 51  1  0  0  0
 50123  1  0  0  0
 50124  1  0  0  0
 51 52  1  0  0  0
 51125  1  0  0  0
 51126  1  0  0  0
 52127  1  0  0  0
 52128  1  0  0  0
 53 54  1  0  0  0
 54 55  2  0  0  0
 54129  1  0  0  0
 55 57  1  0  0  0
 55130  1  0  0  0
 56 69  2  0  0  0
 57 58  2  0  0  0
 57131  1  0  0  0
 58132  1  0  0  0
 59 60  1  0  0  0
 59 61  1  0  0  0
 59 62  1  0  0  0
 60133  1  0  0  0
 60134  1  0  0  0
 60135  1  0  0  0
 61136  1  0  0  0
 61137  1  0  0  0
 61138  1  0  0  0
 62139  1  0  0  0
 62140  1  0  0  0
 62141  1  0  0  0
 63 65  1  0  0  0
 63142  1  0  0  0
 63143  1  0  0  0
 63144  1  0  0  0
 64145  1  0  0  0
 65146  1  0  0  0
 68 84  1  0  0  0
 71 72  2  0  0  0
 71 73  1  0  0  0
 71147  1  0  0  0
 72 74  1  0  0  0
 72 78  1  0  0  0
 73 75  2  0  0  0
 73 87  1  0  0  0
 74 81  1  0  0  0
 74 85  2  0  0  0
 75 85  1  0  0  0
 75 86  1  0  0  0
 76 77  1  0  0  0
 76 78  1  0  0  0
 76148  1  0  0  0
 76149  1  0  0  0
 77 79  1  0  0  0
 77150  1  0  0  0
 77151  1  0  0  0
 78 80  1  0  0  0
 78152  1  0  0  0
 79 80  1  0  0  0
 79 84  1  0  0  0
 79153  1  0  0  0
 80 82  1  0  0  0
 80154  1  0  0  0
 81155  1  0  0  0
 81156  1  0  0  0
 81157  1  0  0  0
 82158  1  0  0  0
 82159  1  0  0  0
 82160  1  0  0  0
 83 87  1  0  0  0
 83161  1  0  0  0
 83162  1  0  0  0
 83163  1  0  0  0
 84164  1  0  0  0
 84165  1  0  0  0
 86166  1  0  0  0
M  ISO  4   1 100  68 101  84 101  86 100
M  END
> <chiral flag>
0

> <version>
0

> <s_m_source_file>
/data/baiqing/PycharmProjects/Reinvent-master-3.2/result/LINK_invent/BTK/process_docking_weight1_custom_sum_contain_oxygen_bond_distance_aromatic_linkinvent_7_9_3/rearranged_h_0168.sdf

> <i_m_source_file_index>
18

> <r_mmod_Potential_Energy-OPLS-2005>
-23.1570911407471

> <r_mmod_Stretch_Energy-OPLS-2005>
75.2937698364258

> <r_mmod_Bend_Energy-OPLS-2005>
174.577255249023

> <r_mmod_Torsional_Energy-OPLS-2005>
271.493530273438

> <r_mmod_Improper_Torsional_Energy-OPLS-2005>
3.42703294754028

> <r_mmod_Van_der_Waal_Energy-OPLS-2005>
140.024108886719

> <r_mmod_Electrostatic_Energy-OPLS-2005>
-515.253967285156

> <r_mmod_Solvation_Energy-OPLS-2005>
-217.259246826172

> <b_mmod_Minimization_Converged-OPLS-2005>
0

> <r_mmod_RMS_Derivative-OPLS-2005>
1.46698617935181

$$$$
18
                    3D
 Structure written by MMmdl.
164173  0  0  1  0            999 V2000
  -30.6817  -14.8028   20.4411 C   0  0  0  0  0  0
  -30.4097  -12.5026   19.4808 C   0  0  0  0  0  0
  -29.4978  -12.4999   18.2381 C   0  0  0  0  0  0
  -28.0320  -12.3038   18.6618 C   0  0  0  0  0  0
  -27.6263  -13.2352   19.8338 C   0  0  2  0  0  0
  -28.6766  -13.2601   20.9696 C   0  0  0  0  0  0
  -25.2439  -13.8186   20.5685 C   0  0  0  0  0  0
  -24.1760  -13.0424   20.9236 C   0  0  0  0  0  0
  -24.6371  -11.6910   20.8780 C   0  0  0  0  0  0
  -23.9064  -10.4286   21.0424 C   0  0  0  0  0  0
  -24.3621   -9.4198   21.9195 C   0  0  0  0  0  0
  -23.6301   -8.2228   22.0752 C   0  0  0  0  0  0
  -22.4280   -8.0269   21.3537 C   0  0  0  0  0  0
  -21.9918   -9.0243   20.4642 C   0  0  0  0  0  0
  -22.7241  -10.2126   20.3060 C   0  0  0  0  0  0
  -21.6849   -6.0730   22.5281 C   0  0  0  0  0  0
  -21.4010   -6.5640   23.8218 C   0  0  0  0  0  0
  -21.3660   -5.6794   24.9178 C   0  0  0  0  0  0
  -21.6045   -4.3054   24.7228 C   0  0  0  0  0  0
  -21.8821   -3.8140   23.4349 C   0  0  0  0  0  0
  -21.9189   -4.6962   22.3406 C   0  0  0  0  0  0
  -22.7786  -13.5207   21.1888 C   0  0  0  0  0  0
  -22.1660   -4.2146   21.0984 F   0  0  0  0  0  0
  -21.5631   -3.4539   25.7738 F   0  0  0  0  0  0
  -29.9627  -13.6191   20.3604 N   0  0  0  0  0  0
  -26.2864  -12.9405   20.3256 N   0  0  0  0  0  0
  -25.9302  -11.6548   20.5789 N   0  0  0  0  0  0
  -22.0429  -12.8204   22.0443 N   0  0  0  0  0  0
  -25.4054  -15.1905   20.4049 N   0  0  0  0  0  0
  -31.8885  -14.7292   20.1874 O   0  0  0  0  0  0
  -21.6636   -6.8872   21.4241 O   0  0  0  0  0  0
  -22.3481  -14.5515   20.6728 O   0  0  0  0  0  0
  -24.6336  -31.8540   23.1982 C   0  0  0  0  0  0
  -25.9157  -32.4747   23.8329 C   0  0  1  0  0  0
  -27.2100  -27.2391   20.1410 C   0  0  0  0  0  0
  -25.5947  -33.8551   24.2246 N   0  0  0  0  0  0
  -23.4323  -30.4771   21.5412 C   0  0  2  0  0  0
  -24.8829  -28.9268   20.1060 C   0  0  0  0  0  0
  -22.7523  -29.4597   22.4899 C   0  0  0  0  0  0
  -18.0297  -28.1393   22.8485 C   0  0  0  0  0  0
  -24.1491  -36.7276   23.2640 C   0  0  0  0  0  0
  -25.9819  -30.7596   21.3849 C   0  0  0  0  0  0
  -26.0562  -29.3818   20.7243 C   0  0  0  0  0  0
  -27.2272  -28.5503   20.7331 C   0  0  0  0  0  0
  -26.0260  -26.8713   19.4681 C   0  0  0  0  0  0
  -24.8752  -27.6805   19.4633 C   0  0  0  0  0  0
  -23.6530  -29.8137   20.1567 C   0  0  0  0  0  0
  -25.4123  -36.3063   24.0325 C   0  0  1  0  0  0
  -20.5906  -28.3710   23.1261 C   0  0  2  0  0  0
  -20.6791  -26.9424   22.5410 C   0  0  0  0  0  0
  -19.5765  -26.6386   21.5219 C   0  0  0  0  0  0
  -18.1942  -26.7936   22.1622 C   0  0  0  0  0  0
  -19.1552  -28.8870   23.2866 C   0  0  0  0  0  0
  -18.9471  -30.1470   23.8885 C   0  0  0  0  0  0
  -17.6469  -30.6593   24.0561 C   0  0  0  0  0  0
  -25.9066  -34.9438   23.5087 C   0  0  0  0  0  0
  -16.5360  -29.9085   23.6336 C   0  0  0  0  0  0
  -16.7283  -28.6502   23.0359 C   0  0  0  0  0  0
  -26.4516  -31.6581   25.0731 C   0  0  0  0  0  0
  -25.3723  -31.3741   26.1438 C   0  0  0  0  0  0
  -27.0372  -30.2990   24.6251 C   0  0  0  0  0  0
  -27.6061  -32.4332   25.7507 C   0  0  0  0  0  0
  -27.5584  -37.1793   24.8465 C   0  0  0  0  0  0
  -21.4226  -29.3049   22.3642 N   0  0  0  0  0  0
  -26.4292  -37.3769   23.9408 N   0  0  0  0  0  0
  -24.7014  -31.0481   22.0972 N   0  0  0  0  0  0
  -23.4214  -28.8139   23.3009 O   0  0  0  0  0  0
  -28.2305  -26.2557   20.2127 O   0  0  0  0  0  0
  -26.5637  -34.8911   22.4653 O   0  0  0  0  0  0
  -23.5479  -32.1376   23.7258 O   0  0  0  0  0  0
  -28.3874  -21.1550   21.8570 C   0  0  0  0  0  0
  -28.0272  -22.5543   21.9236 C   0  0  0  0  0  0
  -29.0398  -20.6046   20.7033 C   0  0  0  0  0  0
  -28.3586  -23.4862   20.8819 C   0  0  0  0  0  0
  -29.3199  -21.6207   19.7176 C   0  0  0  0  0  0
  -30.5833  -18.6620   21.2125 C   0  0  0  0  0  0
  -28.3546  -18.1210   20.5473 C   0  0  0  0  0  0
  -31.0844  -17.2520   20.7109 C   0  0  0  0  0  0
  -28.7885  -16.6045   20.2395 C   0  0  0  0  0  0
  -28.0530  -20.2612   23.0498 C   0  0  0  0  0  0
  -27.2438  -23.0689   23.1390 C   0  0  0  0  0  0
  -30.0160  -21.2265   18.4299 C   0  0  0  0  0  0
  -27.8226  -25.0183   20.9788 C   0  0  0  0  0  0
  -29.0061  -22.9704   19.7970 N   0  0  0  0  0  0
  -29.3936  -19.1836   20.5227 N   0  0  0  0  0  0
  -30.1317  -16.0922   20.6517 N   0  0  0  0  0  0
  -31.4513  -12.5920   19.1673 H   0  0  0  0  0  0
  -30.3470  -11.5491   20.0077 H   0  0  0  0  0  0
  -29.7977  -11.7102   17.5480 H   0  0  0  0  0  0
  -29.6052  -13.4411   17.6967 H   0  0  0  0  0  0
  -27.9156  -11.2617   18.9625 H   0  0  0  0  0  0
  -27.3659  -12.4511   17.8101 H   0  0  0  0  0  0
  -27.5866  -14.2279   19.3910 H   0  0  0  0  0  0
  -28.7405  -12.2903   21.4644 H   0  0  0  0  0  0
  -28.4040  -13.9798   21.7427 H   0  0  0  0  0  0
  -25.2756   -9.5680   22.4791 H   0  0  0  0  0  0
  -24.0000   -7.4620   22.7477 H   0  0  0  0  0  0
  -21.0841   -8.8770   19.8958 H   0  0  0  0  0  0
  -22.3692  -10.9675   19.6183 H   0  0  0  0  0  0
  -21.2003   -7.6149   23.9724 H   0  0  0  0  0  0
  -21.1483   -6.0519   25.9087 H   0  0  0  0  0  0
  -22.0599   -2.7603   23.2846 H   0  0  0  0  0  0
  -22.4029  -11.9862   22.4838 H   0  0  0  0  0  0
  -21.1051  -13.1240   22.2643 H   0  0  0  0  0  0
  -24.6285  -15.8339   20.5097 H   0  0  0  0  0  0
  -26.2391  -15.6311   20.0423 H   0  0  0  0  0  0
  -26.7225  -32.5390   23.1070 H   0  0  0  0  0  0
  -25.0093  -33.9686   25.0391 H   0  0  0  0  0  0
  -22.7295  -31.3002   21.3954 H   0  0  0  0  0  0
  -23.3761  -35.9600   23.3295 H   0  0  0  0  0  0
  -24.3576  -36.8907   22.2054 H   0  0  0  0  0  0
  -23.7238  -37.6471   23.6671 H   0  0  0  0  0  0
  -26.1274  -31.5213   20.6176 H   0  0  0  0  0  0
  -26.8564  -30.8058   22.0223 H   0  0  0  0  0  0
  -28.1179  -28.8860   21.2454 H   0  0  0  0  0  0
  -25.9720  -25.9109   18.9744 H   0  0  0  0  0  0
  -23.9812  -27.3302   18.9652 H   0  0  0  0  0  0
  -23.7758  -30.5919   19.4027 H   0  0  0  0  0  0
  -22.7710  -29.2475   19.8506 H   0  0  0  0  0  0
  -25.1306  -36.1907   25.0818 H   0  0  0  0  0  0
  -20.9997  -28.3294   24.1383 H   0  0  0  0  0  0
  -20.5708  -26.2317   23.3619 H   0  0  0  0  0  0
  -21.6655  -26.7458   22.1190 H   0  0  0  0  0  0
  -19.6927  -25.6294   21.1255 H   0  0  0  0  0  0
  -19.6704  -27.3190   20.6744 H   0  0  0  0  0  0
  -17.4218  -26.6694   21.4017 H   0  0  0  0  0  0
  -18.0331  -26.0079   22.9015 H   0  0  0  0  0  0
  -19.7947  -30.7293   24.2244 H   0  0  0  0  0  0
  -17.5021  -31.6274   24.5162 H   0  0  0  0  0  0
  -15.5360  -30.2982   23.7675 H   0  0  0  0  0  0
  -15.8681  -28.0818   22.7081 H   0  0  0  0  0  0
  -24.5897  -30.7099   25.7755 H   0  0  0  0  0  0
  -24.8918  -32.2914   26.4850 H   0  0  0  0  0  0
  -25.8022  -30.8916   27.0225 H   0  0  0  0  0  0
  -26.2969  -29.6725   24.1258 H   0  0  0  0  0  0
  -27.4016  -29.7272   25.4798 H   0  0  0  0  0  0
  -27.8868  -30.4250   23.9535 H   0  0  0  0  0  0
  -27.2662  -33.3634   26.2071 H   0  0  0  0  0  0
  -28.3878  -32.6889   25.0342 H   0  0  0  0  0  0
  -28.0724  -31.8468   26.5434 H   0  0  0  0  0  0
  -28.2593  -38.0097   24.7518 H   0  0  0  0  0  0
  -28.1083  -36.2626   24.6281 H   0  0  0  0  0  0
  -27.2296  -37.1431   25.8866 H   0  0  0  0  0  0
  -20.9422  -29.8744   21.6818 H   0  0  0  0  0  0
  -26.0168  -38.2840   24.1410 H   0  0  0  0  0  0
  -31.3949  -19.3823   21.0962 H   0  0  0  0  0  0
  -30.4041  -18.5985   22.2847 H   0  0  0  0  0  0
  -27.8750  -18.1171   21.5239 H   0  0  0  0  0  0
  -27.5607  -18.4025   19.8535 H   0  0  0  0  0  0
  -31.9265  -16.9774   21.3489 H   0  0  0  0  0  0
  -31.5025  -17.3792   19.7107 H   0  0  0  0  0  0
  -28.7192  -16.4473   19.1624 H   0  0  0  0  0  0
  -28.0320  -15.9687   20.6887 H   0  0  0  0  0  0
  -28.2663  -20.7643   23.9926 H   0  0  0  0  0  0
  -28.6324  -19.3466   23.0888 H   0  0  0  0  0  0
  -26.9984  -19.9868   23.0292 H   0  0  0  0  0  0
  -26.6849  -22.2949   23.6624 H   0  0  0  0  0  0
  -26.4841  -23.7986   22.8623 H   0  0  0  0  0  0
  -27.9200  -23.5380   23.8552 H   0  0  0  0  0  0
  -29.4485  -20.4476   17.9215 H   0  0  0  0  0  0
  -31.0113  -20.8392   18.6451 H   0  0  0  0  0  0
  -30.1197  -22.0698   17.7475 H   0  0  0  0  0  0
  -28.0034  -25.3227   22.0105 H   0  0  0  0  0  0
  -26.7416  -24.9051   20.9108 H   0  0  0  0  0  0
  1 25  1  0  0  0
  1 30  2  0  0  0
  1 86  1  0  0  0
  2  3  1  0  0  0
  2 25  1  0  0  0
  2 87  1  0  0  0
  2 88  1  0  0  0
  3  4  1  0  0  0
  3 89  1  0  0  0
  3 90  1  0  0  0
  4  5  1  0  0  0
  4 91  1  0  0  0
  4 92  1  0  0  0
  5  6  1  0  0  0
  5 26  1  0  0  0
  5 93  1  0  0  0
  6 25  1  0  0  0
  6 94  1  0  0  0
  6 95  1  0  0  0
  7  8  2  0  0  0
  7 26  1  0  0  0
  7 29  1  0  0  0
  8  9  1  0  0  0
  8 22  1  0  0  0
  9 10  1  0  0  0
  9 27  2  0  0  0
 10 11  2  0  0  0
 10 15  1  0  0  0
 11 12  1  0  0  0
 11 96  1  0  0  0
 12 13  2  0  0  0
 12 97  1  0  0  0
 13 14  1  0  0  0
 13 31  1  0  0  0
 14 15  2  0  0  0
 14 98  1  0  0  0
 15 99  1  0  0  0
 16 17  2  0  0  0
 16 21  1  0  0  0
 16 31  1  0  0  0
 17 18  1  0  0  0
 17100  1  0  0  0
 18 19  2  0  0  0
 18101  1  0  0  0
 19 20  1  0  0  0
 19 24  1  0  0  0
 20 21  2  0  0  0
 20102  1  0  0  0
 21 23  1  0  0  0
 22 28  1  0  0  0
 22 32  2  0  0  0
 26 27  1  0  0  0
 28103  1  0  0  0
 28104  1  0  0  0
 29105  1  0  0  0
 29106  1  0  0  0
 33 34  1  0  0  0
 33 66  1  0  0  0
 33 70  2  0  0  0
 34 36  1  0  0  0
 34 59  1  0  0  0
 34107  1  0  0  0
 35 44  2  0  0  0
 35 45  1  0  0  0
 35 68  1  0  0  0
 36 56  1  0  0  0
 36108  1  0  0  0
 37 39  1  0  0  0
 37 47  1  0  0  0
 37 66  1  0  0  0
 37109  1  0  0  0
 38 43  2  0  0  0
 38 46  1  0  0  0
 38 47  1  0  0  0
 39 64  1  0  0  0
 39 67  2  0  0  0
 40 52  1  0  0  0
 40 53  2  0  0  0
 40 58  1  0  0  0
 41110  1  0  0  0
 41111  1  0  0  0
 41112  1  0  0  0
 41 48  1  0  0  0
 42 43  1  0  0  0
 42 66  1  0  0  0
 42113  1  0  0  0
 42114  1  0  0  0
 43 44  1  0  0  0
 44115  1  0  0  0
 45 46  2  0  0  0
 45116  1  0  0  0
 46117  1  0  0  0
 47118  1  0  0  0
 47119  1  0  0  0
 48 56  1  0  0  0
 48 65  1  0  0  0
 48120  1  0  0  0
 49 50  1  0  0  0
 49 53  1  0  0  0
 49 64  1  0  0  0
 49121  1  0  0  0
 50 51  1  0  0  0
 50122  1  0  0  0
 50123  1  0  0  0
 51 52  1  0  0  0
 51124  1  0  0  0
 51125  1  0  0  0
 52126  1  0  0  0
 52127  1  0  0  0
 53 54  1  0  0  0
 54 55  2  0  0  0
 54128  1  0  0  0
 55 57  1  0  0  0
 55129  1  0  0  0
 56 69  2  0  0  0
 57 58  2  0  0  0
 57130  1  0  0  0
 58131  1  0  0  0
 59 60  1  0  0  0
 59 61  1  0  0  0
 59 62  1  0  0  0
 60132  1  0  0  0
 60133  1  0  0  0
 60134  1  0  0  0
 61135  1  0  0  0
 61136  1  0  0  0
 61137  1  0  0  0
 62138  1  0  0  0
 62139  1  0  0  0
 62140  1  0  0  0
 63 65  1  0  0  0
 63141  1  0  0  0
 63142  1  0  0  0
 63143  1  0  0  0
 64144  1  0  0  0
 65145  1  0  0  0
 68 83  1  0  0  0
 71 72  2  0  0  0
 71 73  1  0  0  0
 71 80  1  0  0  0
 72 74  1  0  0  0
 72 81  1  0  0  0
 73 75  2  0  0  0
 73 85  1  0  0  0
 74 83  1  0  0  0
 74 84  2  0  0  0
 75 82  1  0  0  0
 75 84  1  0  0  0
 76 78  1  0  0  0
 76 85  1  0  0  0
 76146  1  0  0  0
 76147  1  0  0  0
 77 79  1  0  0  0
 77 85  1  0  0  0
 77148  1  0  0  0
 77149  1  0  0  0
 78 86  1  0  0  0
 78150  1  0  0  0
 78151  1  0  0  0
 79 86  1  0  0  0
 79152  1  0  0  0
 79153  1  0  0  0
 80154  1  0  0  0
 80155  1  0  0  0
 80156  1  0  0  0
 81157  1  0  0  0
 81158  1  0  0  0
 81159  1  0  0  0
 82160  1  0  0  0
 82161  1  0  0  0
 82162  1  0  0  0
 83163  1  0  0  0
 83164  1  0  0  0
M  ISO  4   1 100  68 101  83 101  86 100
M  END
> <chiral flag>
0

> <version>
0

> <s_m_source_file>
/data/baiqing/PycharmProjects/Reinvent-master-3.2/result/LINK_invent/BTK/process_docking_weight1_custom_sum_contain_oxygen_bond_distance_aromatic_linkinvent_7_9_3/rearranged_h_0168.sdf

> <i_m_source_file_index>
19

> <r_mmod_Potential_Energy-OPLS-2005>
422.524566650391

> <r_mmod_Stretch_Energy-OPLS-2005>
146.769653320312

> <r_mmod_Bend_Energy-OPLS-2005>
246.47135925293

> <r_mmod_Torsional_Energy-OPLS-2005>
373.521606445312

> <r_mmod_Improper_Torsional_Energy-OPLS-2005>
9.26957416534424

> <r_mmod_Van_der_Waal_Energy-OPLS-2005>
165.15283203125

> <r_mmod_Electrostatic_Energy-OPLS-2005>
-411.649719238281

> <r_mmod_Solvation_Energy-OPLS-2005>
-228.377792358398

> <b_mmod_Minimization_Converged-OPLS-2005>
0

> <r_mmod_RMS_Derivative-OPLS-2005>
1.02336752414703

$$$$
19
                    3D
 Structure written by MMmdl.
158167  0  0  1  0            999 V2000
  -30.5823  -14.8371   20.4430 C   0  0  0  0  0  0
  -30.4374  -12.5146   19.4850 C   0  0  0  0  0  0
  -29.5149  -12.5141   18.2452 C   0  0  0  0  0  0
  -28.0442  -12.3224   18.6619 C   0  0  0  0  0  0
  -27.6367  -13.2384   19.8459 C   0  0  2  0  0  0
  -28.6816  -13.2158   20.9826 C   0  0  0  0  0  0
  -25.2491  -13.8200   20.5701 C   0  0  0  0  0  0
  -24.1793  -13.0436   20.9222 C   0  0  0  0  0  0
  -24.6395  -11.6919   20.8756 C   0  0  0  0  0  0
  -23.9075  -10.4292   21.0408 C   0  0  0  0  0  0
  -24.3624   -9.4204   21.9185 C   0  0  0  0  0  0
  -23.6298   -8.2240   22.0753 C   0  0  0  0  0  0
  -22.4280   -8.0280   21.3542 C   0  0  0  0  0  0
  -21.9917   -9.0253   20.4645 C   0  0  0  0  0  0
  -22.7247  -10.2132   20.3054 C   0  0  0  0  0  0
  -21.6855   -6.0736   22.5279 C   0  0  0  0  0  0
  -21.4015   -6.5639   23.8210 C   0  0  0  0  0  0
  -21.3659   -5.6793   24.9174 C   0  0  0  0  0  0
  -21.6043   -4.3056   24.7227 C   0  0  0  0  0  0
  -21.8820   -3.8146   23.4347 C   0  0  0  0  0  0
  -21.9194   -4.6963   22.3403 C   0  0  0  0  0  0
  -22.7814  -13.5214   21.1877 C   0  0  0  0  0  0
  -22.1662   -4.2146   21.0981 F   0  0  0  0  0  0
  -21.5628   -3.4539   25.7739 F   0  0  0  0  0  0
  -29.9708  -13.5953   20.3917 N   0  0  0  0  0  0
  -26.2919  -12.9419   20.3274 N   0  0  0  0  0  0
  -25.9329  -11.6556   20.5757 N   0  0  0  0  0  0
  -22.0467  -12.8196   22.0431 N   0  0  0  0  0  0
  -25.4167  -15.1926   20.4108 N   0  0  0  0  0  0
  -31.7778  -14.9197   20.1464 O   0  0  0  0  0  0
  -21.6642   -6.8878   21.4238 O   0  0  0  0  0  0
  -22.3496  -14.5518   20.6727 O   0  0  0  0  0  0
  -24.6390  -31.8493   23.1945 C   0  0  0  0  0  0
  -25.9189  -32.4721   23.8308 C   0  0  1  0  0  0
  -27.2150  -27.1938   20.1368 C   0  0  0  0  0  0
  -25.5959  -33.8525   24.2227 N   0  0  0  0  0  0
  -23.4386  -30.4729   21.5395 C   0  0  2  0  0  0
  -24.8852  -28.9126   20.1108 C   0  0  0  0  0  0
  -22.7541  -29.4578   22.4881 C   0  0  0  0  0  0
  -18.0297  -28.1391   22.8479 C   0  0  0  0  0  0
  -24.1491  -36.7263   23.2641 C   0  0  0  0  0  0
  -25.9917  -30.7422   21.3844 C   0  0  0  0  0  0
  -26.0628  -29.3599   20.7236 C   0  0  0  0  0  0
  -27.2300  -28.5164   20.7208 C   0  0  0  0  0  0
  -26.0087  -26.8374   19.4898 C   0  0  0  0  0  0
  -24.8681  -27.6619   19.4803 C   0  0  0  0  0  0
  -23.6605  -29.8081   20.1562 C   0  0  0  0  0  0
  -25.4119  -36.3046   24.0325 C   0  0  1  0  0  0
  -20.5910  -28.3710   23.1247 C   0  0  2  0  0  0
  -20.6787  -26.9418   22.5403 C   0  0  0  0  0  0
  -19.5760  -26.6383   21.5210 C   0  0  0  0  0  0
  -18.1940  -26.7934   22.1622 C   0  0  0  0  0  0
  -19.1555  -28.8870   23.2857 C   0  0  0  0  0  0
  -18.9475  -30.1470   23.8875 C   0  0  0  0  0  0
  -17.6474  -30.6589   24.0562 C   0  0  0  0  0  0
  -25.9068  -34.9422   23.5077 C   0  0  0  0  0  0
  -16.5362  -29.9083   23.6341 C   0  0  0  0  0  0
  -16.7284  -28.6500   23.0358 C   0  0  0  0  0  0
  -26.4530  -31.6567   25.0725 C   0  0  0  0  0  0
  -25.3735  -31.3742   26.1433 C   0  0  0  0  0  0
  -27.0393  -30.2973   24.6266 C   0  0  0  0  0  0
  -27.6066  -32.4327   25.7503 C   0  0  0  0  0  0
  -27.5576  -37.1782   24.8463 C   0  0  0  0  0  0
  -21.4239  -29.3047   22.3627 N   0  0  0  0  0  0
  -26.4282  -37.3755   23.9420 N   0  0  0  0  0  0
  -24.7094  -31.0408   22.0948 N   0  0  0  0  0  0
  -23.4207  -28.8116   23.3004 O   0  0  0  0  0  0
  -28.2786  -26.2367   20.2032 O   0  0  0  0  0  0
  -26.5636  -34.8909   22.4644 O   0  0  0  0  0  0
  -23.5524  -32.1336   23.7207 O   0  0  0  0  0  0
  -28.6232  -22.0887   20.3083 C   0  0  0  0  0  0
  -28.9995  -23.5097   20.2492 C   0  0  0  0  0  0
  -29.5383  -20.9334   20.3938 C   0  0  0  0  0  0
  -30.3905  -23.7102   20.2796 C   0  0  0  0  0  0
  -30.8878  -21.3957   20.4077 C   0  0  0  0  0  0
  -29.5544  -18.5310   21.5487 C   0  0  0  0  0  0
  -29.5320  -18.4368   19.4470 C   0  0  0  0  0  0
  -30.1890  -17.5028   20.5351 C   0  0  0  0  0  0
  -31.0095  -25.0919   20.2048 C   0  0  0  0  0  0
  -32.0646  -20.4374   20.4679 C   0  0  0  0  0  0
  -27.9563  -24.7419   20.0721 C   0  0  0  0  0  0
  -31.2775  -22.6941   20.3603 N   0  0  0  0  0  0
  -29.1485  -19.4668   20.4585 N   0  0  0  0  0  0
  -29.8100  -15.9947   20.6204 N   0  0  0  0  0  0
  -31.4747  -12.6551   19.1774 H   0  0  0  0  0  0
  -30.4058  -11.5495   19.9934 H   0  0  0  0  0  0
  -29.8130  -11.7266   17.5521 H   0  0  0  0  0  0
  -29.6236  -13.4562   17.7053 H   0  0  0  0  0  0
  -27.9190  -11.2772   18.9465 H   0  0  0  0  0  0
  -27.3830  -12.4858   17.8101 H   0  0  0  0  0  0
  -27.6168  -14.2510   19.4424 H   0  0  0  0  0  0
  -28.7417  -12.2273   21.4407 H   0  0  0  0  0  0
  -28.4018  -13.9071   21.7792 H   0  0  0  0  0  0
  -25.2768   -9.5681   22.4762 H   0  0  0  0  0  0
  -24.0006   -7.4631   22.7470 H   0  0  0  0  0  0
  -21.0850   -8.8773   19.8949 H   0  0  0  0  0  0
  -22.3706  -10.9672   19.6165 H   0  0  0  0  0  0
  -21.2006   -7.6147   23.9713 H   0  0  0  0  0  0
  -21.1479   -6.0524   25.9077 H   0  0  0  0  0  0
  -22.0599   -2.7609   23.2849 H   0  0  0  0  0  0
  -22.4097  -11.9860   22.4814 H   0  0  0  0  0  0
  -21.1080  -13.1205   22.2641 H   0  0  0  0  0  0
  -24.6459  -15.8432   20.5176 H   0  0  0  0  0  0
  -26.2563  -15.6319   20.0562 H   0  0  0  0  0  0
  -26.7248  -32.5345   23.1036 H   0  0  0  0  0  0
  -25.0123  -33.9651   25.0384 H   0  0  0  0  0  0
  -22.7387  -31.2978   21.3914 H   0  0  0  0  0  0
  -23.3760  -35.9585   23.3285 H   0  0  0  0  0  0
  -24.3579  -36.8901   22.2057 H   0  0  0  0  0  0
  -23.7235  -37.6453   23.6680 H   0  0  0  0  0  0
  -26.1433  -31.5013   20.6158 H   0  0  0  0  0  0
  -26.8644  -30.7873   22.0243 H   0  0  0  0  0  0
  -28.1277  -28.8548   21.2194 H   0  0  0  0  0  0
  -25.9005  -25.8855   18.9949 H   0  0  0  0  0  0
  -23.9684  -27.3131   18.9918 H   0  0  0  0  0  0
  -23.7928  -30.5858   19.4029 H   0  0  0  0  0  0
  -22.7763  -29.2485   19.8454 H   0  0  0  0  0  0
  -25.1303  -36.1875   25.0816 H   0  0  0  0  0  0
  -21.0004  -28.3289   24.1369 H   0  0  0  0  0  0
  -20.5692  -26.2316   23.3615 H   0  0  0  0  0  0
  -21.6653  -26.7436   22.1196 H   0  0  0  0  0  0
  -19.6923  -25.6290   21.1252 H   0  0  0  0  0  0
  -19.6703  -27.3184   20.6735 H   0  0  0  0  0  0
  -17.4215  -26.6682   21.4023 H   0  0  0  0  0  0
  -18.0336  -26.0078   22.9020 H   0  0  0  0  0  0
  -19.7949  -30.7298   24.2228 H   0  0  0  0  0  0
  -17.5025  -31.6269   24.5164 H   0  0  0  0  0  0
  -15.5360  -30.2981   23.7682 H   0  0  0  0  0  0
  -15.8682  -28.0819   22.7085 H   0  0  0  0  0  0
  -24.5924  -30.7073   25.7771 H   0  0  0  0  0  0
  -24.8918  -32.2920   26.4811 H   0  0  0  0  0  0
  -25.8043  -30.8959   27.0238 H   0  0  0  0  0  0
  -26.3000  -29.6701   24.1277 H   0  0  0  0  0  0
  -27.4032  -29.7263   25.4817 H   0  0  0  0  0  0
  -27.8897  -30.4228   23.9560 H   0  0  0  0  0  0
  -27.2659  -33.3646   26.2026 H   0  0  0  0  0  0
  -28.3905  -32.6849   25.0352 H   0  0  0  0  0  0
  -28.0702  -31.8487   26.5463 H   0  0  0  0  0  0
  -28.2577  -38.0096   24.7532 H   0  0  0  0  0  0
  -28.1087  -36.2627   24.6260 H   0  0  0  0  0  0
  -27.2300  -37.1395   25.8866 H   0  0  0  0  0  0
  -20.9433  -29.8761   21.6818 H   0  0  0  0  0  0
  -26.0150  -38.2820   24.1435 H   0  0  0  0  0  0
  -27.5663  -21.8670   20.2749 H   0  0  0  0  0  0
  -30.2675  -18.9485   22.2604 H   0  0  0  0  0  0
  -28.6834  -18.1332   22.0723 H   0  0  0  0  0  0
  -28.6518  -17.9938   18.9783 H   0  0  0  0  0  0
  -30.2306  -18.7933   18.6892 H   0  0  0  0  0  0
  -31.2722  -17.6311   20.5207 H   0  0  0  0  0  0
  -30.6603  -25.6232   19.3196 H   0  0  0  0  0  0
  -32.0977  -25.0421   20.1499 H   0  0  0  0  0  0
  -30.7465  -25.6747   21.0877 H   0  0  0  0  0  0
  -32.0774  -19.8915   21.4090 H   0  0  0  0  0  0
  -33.0159  -20.9650   20.3897 H   0  0  0  0  0  0
  -32.0310  -19.7271   19.6446 H   0  0  0  0  0  0
  -27.1257  -24.5324   20.7473 H   0  0  0  0  0  0
  -27.5717  -24.5920   19.0641 H   0  0  0  0  0  0
  -28.8369  -15.8161   20.8166 H   0  0  0  0  0  0
  1 25  1  0  0  0
  1 30  2  0  0  0
  1 84  1  0  0  0
  2  3  1  0  0  0
  2 25  1  0  0  0
  2 85  1  0  0  0
  2 86  1  0  0  0
  3  4  1  0  0  0
  3 87  1  0  0  0
  3 88  1  0  0  0
  4  5  1  0  0  0
  4 89  1  0  0  0
  4 90  1  0  0  0
  5  6  1  0  0  0
  5 26  1  0  0  0
  5 91  1  0  0  0
  6 25  1  0  0  0
  6 92  1  0  0  0
  6 93  1  0  0  0
  7  8  2  0  0  0
  7 26  1  0  0  0
  7 29  1  0  0  0
  8  9  1  0  0  0
  8 22  1  0  0  0
  9 10  1  0  0  0
  9 27  2  0  0  0
 10 11  2  0  0  0
 10 15  1  0  0  0
 11 12  1  0  0  0
 11 94  1  0  0  0
 12 13  2  0  0  0
 12 95  1  0  0  0
 13 14  1  0  0  0
 13 31  1  0  0  0
 14 15  2  0  0  0
 14 96  1  0  0  0
 15 97  1  0  0  0
 16 17  2  0  0  0
 16 21  1  0  0  0
 16 31  1  0  0  0
 17 18  1  0  0  0
 17 98  1  0  0  0
 18 19  2  0  0  0
 18 99  1  0  0  0
 19 20  1  0  0  0
 19 24  1  0  0  0
 20 21  2  0  0  0
 20100  1  0  0  0
 21 23  1  0  0  0
 22 28  1  0  0  0
 22 32  2  0  0  0
 26 27  1  0  0  0
 28101  1  0  0  0
 28102  1  0  0  0
 29103  1  0  0  0
 29104  1  0  0  0
 33 34  1  0  0  0
 33 66  1  0  0  0
 33 70  2  0  0  0
 34 36  1  0  0  0
 34 59  1  0  0  0
 34105  1  0  0  0
 35 44  2  0  0  0
 35 45  1  0  0  0
 35 68  1  0  0  0
 36 56  1  0  0  0
 36106  1  0  0  0
 37 39  1  0  0  0
 37 47  1  0  0  0
 37 66  1  0  0  0
 37107  1  0  0  0
 38 43  2  0  0  0
 38 46  1  0  0  0
 38 47  1  0  0  0
 39 64  1  0  0  0
 39 67  2  0  0  0
 40 52  1  0  0  0
 40 53  2  0  0  0
 40 58  1  0  0  0
 41108  1  0  0  0
 41109  1  0  0  0
 41110  1  0  0  0
 41 48  1  0  0  0
 42 43  1  0  0  0
 42 66  1  0  0  0
 42111  1  0  0  0
 42112  1  0  0  0
 43 44  1  0  0  0
 44113  1  0  0  0
 45 46  2  0  0  0
 45114  1  0  0  0
 46115  1  0  0  0
 47116  1  0  0  0
 47117  1  0  0  0
 48 56  1  0  0  0
 48 65  1  0  0  0
 48118  1  0  0  0
 49 50  1  0  0  0
 49 53  1  0  0  0
 49 64  1  0  0  0
 49119  1  0  0  0
 50 51  1  0  0  0
 50120  1  0  0  0
 50121  1  0  0  0
 51 52  1  0  0  0
 51122  1  0  0  0
 51123  1  0  0  0
 52124  1  0  0  0
 52125  1  0  0  0
 53 54  1  0  0  0
 54 55  2  0  0  0
 54126  1  0  0  0
 55 57  1  0  0  0
 55127  1  0  0  0
 56 69  2  0  0  0
 57 58  2  0  0  0
 57128  1  0  0  0
 58129  1  0  0  0
 59 60  1  0  0  0
 59 61  1  0  0  0
 59 62  1  0  0  0
 60130  1  0  0  0
 60131  1  0  0  0
 60132  1  0  0  0
 61133  1  0  0  0
 61134  1  0  0  0
 61135  1  0  0  0
 62136  1  0  0  0
 62137  1  0  0  0
 62138  1  0  0  0
 63 65  1  0  0  0
 63139  1  0  0  0
 63140  1  0  0  0
 63141  1  0  0  0
 64142  1  0  0  0
 65143  1  0  0  0
 68 81  1  0  0  0
 71 72  2  0  0  0
 71 73  1  0  0  0
 71144  1  0  0  0
 72 74  1  0  0  0
 72 81  1  0  0  0
 73 75  2  0  0  0
 73 83  1  0  0  0
 74 79  1  0  0  0
 74 82  2  0  0  0
 75 80  1  0  0  0
 75 82  1  0  0  0
 76 78  1  0  0  0
 76 83  1  0  0  0
 76145  1  0  0  0
 76146  1  0  0  0
 77 78  1  0  0  0
 77 83  1  0  0  0
 77147  1  0  0  0
 77148  1  0  0  0
 78 84  1  0  0  0
 78149  1  0  0  0
 79150  1  0  0  0
 79151  1  0  0  0
 79152  1  0  0  0
 80153  1  0  0  0
 80154  1  0  0  0
 80155  1  0  0  0
 81156  1  0  0  0
 81157  1  0  0  0
 84158  1  0  0  0
M  ISO  4   1 100  68 101  81 101  84 100
M  END
> <chiral flag>
0

> <version>
0

> <s_m_source_file>
/data/baiqing/PycharmProjects/Reinvent-master-3.2/result/LINK_invent/BTK/process_docking_weight1_custom_sum_contain_oxygen_bond_distance_aromatic_linkinvent_7_9_3/rearranged_h_0168.sdf

> <i_m_source_file_index>
20

> <r_mmod_Potential_Energy-OPLS-2005>
223.765213012695

> <r_mmod_Stretch_Energy-OPLS-2005>
171.306823730469

> <r_mmod_Bend_Energy-OPLS-2005>
235.719802856445

> <r_mmod_Torsional_Energy-OPLS-2005>
276.351898193359

> <r_mmod_Improper_Torsional_Energy-OPLS-2005>
11.2024688720703

> <r_mmod_Van_der_Waal_Energy-OPLS-2005>
138.738616943359

> <r_mmod_Electrostatic_Energy-OPLS-2005>
-502.132080078125

> <r_mmod_Solvation_Energy-OPLS-2005>
-240.523178100586

> <b_mmod_Minimization_Converged-OPLS-2005>
0

> <r_mmod_RMS_Derivative-OPLS-2005>
0.806928038597107

$$$$
20
                    3D
 Structure written by MMmdl.
161170  0  0  1  0            999 V2000
  -30.6655  -14.6832   20.5110 C   0  0  0  0  0  0
  -30.4218  -12.4323   19.4616 C   0  0  0  0  0  0
  -29.5023  -12.5265   18.2253 C   0  0  0  0  0  0
  -28.0253  -12.3617   18.6335 C   0  0  0  0  0  0
  -27.6448  -13.2321   19.8621 C   0  0  2  0  0  0
  -28.6921  -13.1080   20.9892 C   0  0  0  0  0  0
  -25.2491  -13.8199   20.5684 C   0  0  0  0  0  0
  -24.1793  -13.0442   20.9203 C   0  0  0  0  0  0
  -24.6393  -11.6924   20.8754 C   0  0  0  0  0  0
  -23.9070  -10.4296   21.0402 C   0  0  0  0  0  0
  -24.3617   -9.4207   21.9182 C   0  0  0  0  0  0
  -23.6288   -8.2243   22.0752 C   0  0  0  0  0  0
  -22.4269   -8.0282   21.3544 C   0  0  0  0  0  0
  -21.9912   -9.0253   20.4641 C   0  0  0  0  0  0
  -22.7242  -10.2132   20.3048 C   0  0  0  0  0  0
  -21.6854   -6.0737   22.5278 C   0  0  0  0  0  0
  -21.4014   -6.5641   23.8213 C   0  0  0  0  0  0
  -21.3660   -5.6790   24.9176 C   0  0  0  0  0  0
  -21.6041   -4.3054   24.7223 C   0  0  0  0  0  0
  -21.8819   -3.8149   23.4345 C   0  0  0  0  0  0
  -21.9192   -4.6964   22.3400 C   0  0  0  0  0  0
  -22.7813  -13.5216   21.1865 C   0  0  0  0  0  0
  -22.1659   -4.2150   21.0979 F   0  0  0  0  0  0
  -21.5629   -3.4537   25.7736 F   0  0  0  0  0  0
  -29.9911  -13.4833   20.4146 N   0  0  0  0  0  0
  -26.2944  -12.9415   20.3331 N   0  0  0  0  0  0
  -25.9326  -11.6555   20.5776 N   0  0  0  0  0  0
  -22.0463  -12.8195   22.0416 N   0  0  0  0  0  0
  -25.4136  -15.1917   20.4035 N   0  0  0  0  0  0
  -31.8401  -14.7373   20.1309 O   0  0  0  0  0  0
  -21.6639   -6.8876   21.4240 O   0  0  0  0  0  0
  -22.3492  -14.5527   20.6724 O   0  0  0  0  0  0
  -24.6276  -31.8593   23.2021 C   0  0  0  0  0  0
  -25.9118  -32.4778   23.8360 C   0  0  1  0  0  0
  -27.2261  -27.3116   20.1294 C   0  0  0  0  0  0
  -25.5937  -33.8579   24.2287 N   0  0  0  0  0  0
  -23.4235  -30.4813   21.5444 C   0  0  2  0  0  0
  -24.8742  -28.9363   20.1094 C   0  0  0  0  0  0
  -22.7487  -29.4621   22.4931 C   0  0  0  0  0  0
  -18.0289  -28.1393   22.8492 C   0  0  0  0  0  0
  -24.1480  -36.7282   23.2630 C   0  0  0  0  0  0
  -25.9646  -30.7888   21.3737 C   0  0  0  0  0  0
  -26.0431  -29.4143   20.7181 C   0  0  0  0  0  0
  -27.2259  -28.6135   20.7200 C   0  0  0  0  0  0
  -26.0439  -26.8955   19.4806 C   0  0  0  0  0  0
  -24.8770  -27.6823   19.4793 C   0  0  0  0  0  0
  -23.6401  -29.8148   20.1601 C   0  0  0  0  0  0
  -25.4099  -36.3078   24.0333 C   0  0  1  0  0  0
  -20.5890  -28.3705   23.1281 C   0  0  2  0  0  0
  -20.6775  -26.9425   22.5416 C   0  0  0  0  0  0
  -19.5750  -26.6392   21.5218 C   0  0  0  0  0  0
  -18.1928  -26.7941   22.1622 C   0  0  0  0  0  0
  -19.1542  -28.8865   23.2884 C   0  0  0  0  0  0
  -18.9461  -30.1465   23.8905 C   0  0  0  0  0  0
  -17.6457  -30.6593   24.0570 C   0  0  0  0  0  0
  -25.9056  -34.9451   23.5108 C   0  0  0  0  0  0
  -16.5352  -29.9092   23.6332 C   0  0  0  0  0  0
  -16.7277  -28.6507   23.0359 C   0  0  0  0  0  0
  -26.4499  -31.6588   25.0731 C   0  0  0  0  0  0
  -25.3730  -31.3710   26.1456 C   0  0  0  0  0  0
  -27.0341  -30.3013   24.6179 C   0  0  0  0  0  0
  -27.6064  -32.4318   25.7497 C   0  0  0  0  0  0
  -27.5601  -37.1754   24.8429 C   0  0  0  0  0  0
  -21.4197  -29.3051   22.3670 N   0  0  0  0  0  0
  -26.4254  -37.3802   23.9465 N   0  0  0  0  0  0
  -24.6908  -31.0595   22.0973 N   0  0  0  0  0  0
  -23.4199  -28.8162   23.3022 O   0  0  0  0  0  0
  -28.2986  -26.4061   20.1786 O   0  0  0  0  0  0
  -26.5620  -34.8924   22.4673 O   0  0  0  0  0  0
  -23.5435  -32.1391   23.7341 O   0  0  0  0  0  0
  -30.5854  -22.1991   20.5214 C   0  0  0  0  0  0
  -27.9095  -22.5551   20.6655 C   0  0  0  0  0  0
  -30.0788  -23.5346   20.5246 C   0  0  0  0  0  0
  -28.6828  -23.7538   20.6234 C   0  0  0  0  0  0
  -29.7373  -21.0586   20.6301 C   0  0  0  0  0  0
  -29.0577  -17.7744   21.9250 C   0  0  0  0  0  0
  -28.9998  -16.2390   21.6966 C   0  0  0  0  0  0
  -30.4290  -17.1886   20.0663 C   0  0  0  0  0  0
  -29.5754  -18.3998   20.6230 C   0  0  2  0  0  0
  -31.0432  -24.7043   20.4735 C   0  0  0  0  0  0
  -31.5387  -19.7063   21.5363 C   0  0  0  0  0  0
  -27.9937  -25.1514   20.9142 C   0  0  0  0  0  0
  -28.4004  -21.2711   20.6630 N   0  0  0  0  0  0
  -29.9674  -15.8812   20.6481 N   0  0  0  0  0  0
  -30.2818  -19.7240   20.7823 N   0  0  0  0  0  0
  -31.4651  -12.5358   19.1577 H   0  0  0  0  0  0
  -30.3486  -11.4452   19.9206 H   0  0  0  0  0  0
  -29.7756  -11.7707   17.4874 H   0  0  0  0  0  0
  -29.6414  -13.4940   17.7395 H   0  0  0  0  0  0
  -27.8614  -11.3080   18.8616 H   0  0  0  0  0  0
  -27.3728  -12.5946   17.7913 H   0  0  0  0  0  0
  -27.6539  -14.2668   19.5182 H   0  0  0  0  0  0
  -28.7253  -12.0845   21.3651 H   0  0  0  0  0  0
  -28.4269  -13.7172   21.8497 H   0  0  0  0  0  0
  -25.2758   -9.5691   22.4760 H   0  0  0  0  0  0
  -23.9999   -7.4641   22.7476 H   0  0  0  0  0  0
  -21.0847   -8.8770   19.8943 H   0  0  0  0  0  0
  -22.3696  -10.9671   19.6158 H   0  0  0  0  0  0
  -21.2006   -7.6146   23.9715 H   0  0  0  0  0  0
  -21.1478   -6.0521   25.9076 H   0  0  0  0  0  0
  -22.0594   -2.7608   23.2847 H   0  0  0  0  0  0
  -22.4089  -11.9854   22.4793 H   0  0  0  0  0  0
  -21.1076  -13.1205   22.2626 H   0  0  0  0  0  0
  -24.6398  -15.8401   20.4973 H   0  0  0  0  0  0
  -26.2573  -15.6299   20.0571 H   0  0  0  0  0  0
  -26.7194  -32.5454   23.1120 H   0  0  0  0  0  0
  -25.0097  -33.9725   25.0441 H   0  0  0  0  0  0
  -22.7176  -31.3017   21.3994 H   0  0  0  0  0  0
  -23.3793  -35.9555   23.3168 H   0  0  0  0  0  0
  -24.3612  -36.9033   22.2073 H   0  0  0  0  0  0
  -23.7142  -37.6406   23.6734 H   0  0  0  0  0  0
  -26.0905  -31.5499   20.6028 H   0  0  0  0  0  0
  -26.8469  -30.8449   21.9998 H   0  0  0  0  0  0
  -28.1196  -28.9702   21.2128 H   0  0  0  0  0  0
  -26.0131  -25.9302   18.9942 H   0  0  0  0  0  0
  -23.9846  -27.3117   18.9944 H   0  0  0  0  0  0
  -23.7559  -30.5908   19.4023 H   0  0  0  0  0  0
  -22.7613  -29.2414   19.8599 H   0  0  0  0  0  0
  -25.1253  -36.1909   25.0816 H   0  0  0  0  0  0
  -20.9985  -28.3287   24.1402 H   0  0  0  0  0  0
  -20.5677  -26.2318   23.3617 H   0  0  0  0  0  0
  -21.6644  -26.7451   22.1213 H   0  0  0  0  0  0
  -19.6911  -25.6302   21.1248 H   0  0  0  0  0  0
  -19.6687  -27.3199   20.6742 H   0  0  0  0  0  0
  -17.4206  -26.6717   21.4013 H   0  0  0  0  0  0
  -18.0308  -26.0075   22.9001 H   0  0  0  0  0  0
  -19.7932  -30.7282   24.2285 H   0  0  0  0  0  0
  -17.5009  -31.6270   24.5176 H   0  0  0  0  0  0
  -15.5352  -30.2994   23.7648 H   0  0  0  0  0  0
  -15.8676  -28.0819   22.7081 H   0  0  0  0  0  0
  -24.5939  -30.7016   25.7788 H   0  0  0  0  0  0
  -24.8877  -32.2860   26.4861 H   0  0  0  0  0  0
  -25.8066  -30.8919   27.0245 H   0  0  0  0  0  0
  -26.2913  -29.6764   24.1207 H   0  0  0  0  0  0
  -27.4044  -29.7269   25.4683 H   0  0  0  0  0  0
  -27.8782  -30.4307   23.9399 H   0  0  0  0  0  0
  -27.2700  -33.3646   26.2039 H   0  0  0  0  0  0
  -28.3892  -32.6829   25.0326 H   0  0  0  0  0  0
  -28.0712  -31.8458   26.5438 H   0  0  0  0  0  0
  -28.2466  -38.0204   24.7723 H   0  0  0  0  0  0
  -28.1250  -36.2757   24.5931 H   0  0  0  0  0  0
  -27.2374  -37.1007   25.8830 H   0  0  0  0  0  0
  -20.9380  -29.8775   21.6876 H   0  0  0  0  0  0
  -26.0118  -38.2833   24.1633 H   0  0  0  0  0  0
  -31.6567  -22.0667   20.4670 H   0  0  0  0  0  0
  -26.8363  -22.6223   20.7686 H   0  0  0  0  0  0
  -29.7431  -17.9765   22.7480 H   0  0  0  0  0  0
  -28.0904  -18.1858   22.2170 H   0  0  0  0  0  0
  -28.0012  -15.9583   21.3642 H   0  0  0  0  0  0
  -29.2041  -15.7100   22.6287 H   0  0  0  0  0  0
  -31.4841  -17.3112   20.3099 H   0  0  0  0  0  0
  -30.3719  -17.1519   18.9779 H   0  0  0  0  0  0
  -28.7255  -18.5495   19.9546 H   0  0  0  0  0  0
  -32.0797  -24.3679   20.4418 H   0  0  0  0  0  0
  -30.9257  -25.3428   21.3491 H   0  0  0  0  0  0
  -30.8593  -25.3066   19.5836 H   0  0  0  0  0  0
  -31.5232  -20.4371   22.3470 H   0  0  0  0  0  0
  -32.3823  -19.9338   20.8846 H   0  0  0  0  0  0
  -31.7326  -18.7380   21.9958 H   0  0  0  0  0  0
  -28.2286  -25.3726   21.9562 H   0  0  0  0  0  0
  -26.9201  -24.9628   20.9251 H   0  0  0  0  0  0
  1 25  1  0  0  0
  1 30  2  0  0  0
  1 84  1  0  0  0
  2  3  1  0  0  0
  2 25  1  0  0  0
  2 86  1  0  0  0
  2 87  1  0  0  0
  3  4  1  0  0  0
  3 88  1  0  0  0
  3 89  1  0  0  0
  4  5  1  0  0  0
  4 90  1  0  0  0
  4 91  1  0  0  0
  5  6  1  0  0  0
  5 26  1  0  0  0
  5 92  1  0  0  0
  6 25  1  0  0  0
  6 93  1  0  0  0
  6 94  1  0  0  0
  7  8  2  0  0  0
  7 26  1  0  0  0
  7 29  1  0  0  0
  8  9  1  0  0  0
  8 22  1  0  0  0
  9 10  1  0  0  0
  9 27  2  0  0  0
 10 11  2  0  0  0
 10 15  1  0  0  0
 11 12  1  0  0  0
 11 95  1  0  0  0
 12 13  2  0  0  0
 12 96  1  0  0  0
 13 14  1  0  0  0
 13 31  1  0  0  0
 14 15  2  0  0  0
 14 97  1  0  0  0
 15 98  1  0  0  0
 16 17  2  0  0  0
 16 21  1  0  0  0
 16 31  1  0  0  0
 17 18  1  0  0  0
 17 99  1  0  0  0
 18 19  2  0  0  0
 18100  1  0  0  0
 19 20  1  0  0  0
 19 24  1  0  0  0
 20 21  2  0  0  0
 20101  1  0  0  0
 21 23  1  0  0  0
 22 28  1  0  0  0
 22 32  2  0  0  0
 26 27  1  0  0  0
 28102  1  0  0  0
 28103  1  0  0  0
 29104  1  0  0  0
 29105  1  0  0  0
 33 34  1  0  0  0
 33 66  1  0  0  0
 33 70  2  0  0  0
 34 36  1  0  0  0
 34 59  1  0  0  0
 34106  1  0  0  0
 35 44  2  0  0  0
 35 45  1  0  0  0
 35 68  1  0  0  0
 36 56  1  0  0  0
 36107  1  0  0  0
 37 39  1  0  0  0
 37 47  1  0  0  0
 37 66  1  0  0  0
 37108  1  0  0  0
 38 43  2  0  0  0
 38 46  1  0  0  0
 38 47  1  0  0  0
 39 64  1  0  0  0
 39 67  2  0  0  0
 40 52  1  0  0  0
 40 53  2  0  0  0
 40 58  1  0  0  0
 41109  1  0  0  0
 41110  1  0  0  0
 41111  1  0  0  0
 41 48  1  0  0  0
 42 43  1  0  0  0
 42 66  1  0  0  0
 42112  1  0  0  0
 42113  1  0  0  0
 43 44  1  0  0  0
 44114  1  0  0  0
 45 46  2  0  0  0
 45115  1  0  0  0
 46116  1  0  0  0
 47117  1  0  0  0
 47118  1  0  0  0
 48 56  1  0  0  0
 48 65  1  0  0  0
 48119  1  0  0  0
 49 50  1  0  0  0
 49 53  1  0  0  0
 49 64  1  0  0  0
 49120  1  0  0  0
 50 51  1  0  0  0
 50121  1  0  0  0
 50122  1  0  0  0
 51 52  1  0  0  0
 51123  1  0  0  0
 51124  1  0  0  0
 52125  1  0  0  0
 52126  1  0  0  0
 53 54  1  0  0  0
 54 55  2  0  0  0
 54127  1  0  0  0
 55 57  1  0  0  0
 55128  1  0  0  0
 56 69  2  0  0  0
 57 58  2  0  0  0
 57129  1  0  0  0
 58130  1  0  0  0
 59 60  1  0  0  0
 59 61  1  0  0  0
 59 62  1  0  0  0
 60131  1  0  0  0
 60132  1  0  0  0
 60133  1  0  0  0
 61134  1  0  0  0
 61135  1  0  0  0
 61136  1  0  0  0
 62137  1  0  0  0
 62138  1  0  0  0
 62139  1  0  0  0
 63 65  1  0  0  0
 63140  1  0  0  0
 63141  1  0  0  0
 63142  1  0  0  0
 64143  1  0  0  0
 65144  1  0  0  0
 68 82  1  0  0  0
 71 73  2  0  0  0
 71 75  1  0  0  0
 71145  1  0  0  0
 72 74  2  0  0  0
 72 83  1  0  0  0
 72146  1  0  0  0
 73 74  1  0  0  0
 73 80  1  0  0  0
 74 82  1  0  0  0
 75 83  2  0  0  0
 75 85  1  0  0  0
 76 77  1  0  0  0
 76 79  1  0  0  0
 76147  1  0  0  0
 76148  1  0  0  0
 77 84  1  0  0  0
 77149  1  0  0  0
 77150  1  0  0  0
 78 79  1  0  0  0
 78 84  1  0  0  0
 78151  1  0  0  0
 78152  1  0  0  0
 79 85  1  0  0  0
 79153  1  0  0  0
 80154  1  0  0  0
 80155  1  0  0  0
 80156  1  0  0  0
 81 85  1  0  0  0
 81157  1  0  0  0
 81158  1  0  0  0
 81159  1  0  0  0
 82160  1  0  0  0
 82161  1  0  0  0
M  ISO  4   1 100  68 101  82 101  84 100
M  END
> <chiral flag>
0

> <version>
0

> <s_m_source_file>
/data/baiqing/PycharmProjects/Reinvent-master-3.2/result/LINK_invent/BTK/process_docking_weight1_custom_sum_contain_oxygen_bond_distance_aromatic_linkinvent_7_9_3/rearranged_h_0168.sdf

> <i_m_source_file_index>
21

> <r_mmod_Potential_Energy-OPLS-2005>
135.263565063477

> <r_mmod_Stretch_Energy-OPLS-2005>
91.4873275756836

> <r_mmod_Bend_Energy-OPLS-2005>
186.628219604492

> <r_mmod_Torsional_Energy-OPLS-2005>
343.138641357422

> <r_mmod_Improper_Torsional_Energy-OPLS-2005>
14.2521781921387

> <r_mmod_Van_der_Waal_Energy-OPLS-2005>
149.72998046875

> <r_mmod_Electrostatic_Energy-OPLS-2005>
-488.312072753906

> <r_mmod_Solvation_Energy-OPLS-2005>
-222.465316772461

> <b_mmod_Minimization_Converged-OPLS-2005>
0

> <r_mmod_RMS_Derivative-OPLS-2005>
1.06842648983002

$$$$
21
                    3D
 Structure written by MMmdl.
157167  0  0  1  0            999 V2000
  -30.4526  -15.2873   20.3746 C   0  0  0  0  0  0
  -30.4306  -12.8284   19.5230 C   0  0  0  0  0  0
  -29.5304  -12.5871   18.2859 C   0  0  0  0  0  0
  -28.0799  -12.3075   18.7144 C   0  0  0  0  0  0
  -27.6079  -13.2795   19.8244 C   0  0  2  0  0  0
  -28.6450  -13.4542   20.9551 C   0  0  0  0  0  0
  -25.2333  -13.8226   20.5755 C   0  0  0  0  0  0
  -24.1709  -13.0407   20.9275 C   0  0  0  0  0  0
  -24.6389  -11.6918   20.8774 C   0  0  0  0  0  0
  -23.9093  -10.4277   21.0409 C   0  0  0  0  0  0
  -24.3635   -9.4192   21.9186 C   0  0  0  0  0  0
  -23.6300   -8.2233   22.0756 C   0  0  0  0  0  0
  -22.4281   -8.0278   21.3546 C   0  0  0  0  0  0
  -21.9927   -9.0252   20.4645 C   0  0  0  0  0  0
  -22.7267  -10.2123   20.3054 C   0  0  0  0  0  0
  -21.6853   -6.0734   22.5277 C   0  0  0  0  0  0
  -21.4019   -6.5639   23.8211 C   0  0  0  0  0  0
  -21.3663   -5.6793   24.9173 C   0  0  0  0  0  0
  -21.6044   -4.3054   24.7225 C   0  0  0  0  0  0
  -21.8815   -3.8145   23.4345 C   0  0  0  0  0  0
  -21.9190   -4.6961   22.3402 C   0  0  0  0  0  0
  -22.7726  -13.5160   21.1912 C   0  0  0  0  0  0
  -22.1660   -4.2146   21.0981 F   0  0  0  0  0  0
  -21.5628   -3.4538   25.7738 F   0  0  0  0  0  0
  -29.8663  -13.9840   20.3215 N   0  0  0  0  0  0
  -26.2791  -12.9532   20.3241 N   0  0  0  0  0  0
  -25.9331  -11.6629   20.5737 N   0  0  0  0  0  0
  -22.0388  -12.8145   22.0469 N   0  0  0  0  0  0
  -25.3862  -15.1955   20.4175 N   0  0  0  0  0  0
  -31.6715  -15.2444   20.1420 O   0  0  0  0  0  0
  -21.6641   -6.8879   21.4241 O   0  0  0  0  0  0
  -22.3402  -14.5461   20.6750 O   0  0  0  0  0  0
  -24.6622  -31.8228   23.1685 C   0  0  0  0  0  0
  -25.9300  -32.4582   23.8158 C   0  0  1  0  0  0
  -27.2232  -26.9203   20.1887 C   0  0  0  0  0  0
  -25.5966  -33.8397   24.2061 N   0  0  0  0  0  0
  -23.4768  -30.4312   21.5177 C   0  0  2  0  0  0
  -24.9303  -28.8097   20.1141 C   0  0  0  0  0  0
  -22.7659  -29.4429   22.4785 C   0  0  0  0  0  0
  -18.0320  -28.1404   22.8464 C   0  0  0  0  0  0
  -24.1498  -36.7216   23.2646 C   0  0  0  0  0  0
  -26.0441  -30.6252   21.3993 C   0  0  0  0  0  0
  -26.1105  -29.2115   20.7505 C   0  0  0  0  0  0
  -27.2476  -28.2863   20.7642 C   0  0  0  0  0  0
  -26.0153  -26.6695   19.5005 C   0  0  0  0  0  0
  -24.9071  -27.5595   19.4709 C   0  0  0  0  0  0
  -23.7173  -29.7404   20.1456 C   0  0  0  0  0  0
  -25.4135  -36.2968   24.0298 C   0  0  1  0  0  0
  -20.5942  -28.3749   23.1195 C   0  0  2  0  0  0
  -20.6795  -26.9432   22.5405 C   0  0  0  0  0  0
  -19.5775  -26.6373   21.5211 C   0  0  0  0  0  0
  -18.1956  -26.7934   22.1620 C   0  0  0  0  0  0
  -19.1579  -28.8897   23.2816 C   0  0  0  0  0  0
  -18.9489  -30.1481   23.8860 C   0  0  0  0  0  0
  -17.6483  -30.6592   24.0555 C   0  0  0  0  0  0
  -25.9097  -34.9349   23.5005 C   0  0  0  0  0  0
  -16.5375  -29.9081   23.6336 C   0  0  0  0  0  0
  -16.7302  -28.6501   23.0357 C   0  0  0  0  0  0
  -26.4544  -31.6531   25.0693 C   0  0  0  0  0  0
  -25.3664  -31.3789   26.1346 C   0  0  0  0  0  0
  -27.0434  -30.2896   24.6430 C   0  0  0  0  0  0
  -27.6036  -32.4337   25.7499 C   0  0  0  0  0  0
  -27.5575  -37.1764   24.8459 C   0  0  0  0  0  0
  -21.4329  -29.3038   22.3541 N   0  0  0  0  0  0
  -26.4282  -37.3704   23.9404 N   0  0  0  0  0  0
  -24.7491  -30.9879   22.0825 N   0  0  0  0  0  0
  -23.4206  -28.8015   23.3038 O   0  0  0  0  0  0
  -28.2723  -25.8589   20.2395 O   0  0  0  0  0  0
  -26.5717  -34.8888   22.4607 O   0  0  0  0  0  0
  -23.5692  -32.1202   23.6772 O   0  0  0  0  0  0
  -28.7762  -23.5009   19.0548 C   0  0  0  0  0  0
  -28.3959  -22.0369   21.2556 C   0  0  0  0  0  0
  -29.0229  -22.0325   19.0536 C   0  0  0  0  0  0
  -28.8601  -21.1313   20.1950 C   0  0  0  0  0  0
  -28.2931  -24.3160   20.1529 C   0  0  0  0  0  0
  -28.9645  -21.9003   16.4168 C   0  0  0  0  0  0
  -28.5643  -20.5442   16.9407 C   0  0  0  0  0  0
  -28.1593  -18.5080   21.2004 C   0  0  0  0  0  0
  -28.4055  -16.9378   20.9526 C   0  0  0  0  0  0
  -30.1692  -18.1532   20.1101 C   0  0  0  0  0  0
  -29.4824  -21.4239   17.7586 C   0  0  0  0  0  0
  -28.9496  -19.3612   20.1792 C   0  0  2  0  0  0
  -28.1654  -23.4562   21.2510 N   0  0  0  0  0  0
  -29.7550  -16.6180   20.4165 N   0  0  0  0  0  0
  -31.4488  -13.0255   19.1857 H   0  0  0  0  0  0
  -30.5018  -11.9266   20.1331 H   0  0  0  0  0  0
  -29.9150  -11.7595   17.6885 H   0  0  0  0  0  0
  -29.5559  -13.4676   17.6419 H   0  0  0  0  0  0
  -28.0384  -11.2826   19.0853 H   0  0  0  0  0  0
  -27.4100  -12.3509   17.8545 H   0  0  0  0  0  0
  -27.5195  -14.2468   19.3283 H   0  0  0  0  0  0
  -28.8259  -12.5142   21.4786 H   0  0  0  0  0  0
  -28.2785  -14.1515   21.7073 H   0  0  0  0  0  0
  -25.2774   -9.5674   22.4767 H   0  0  0  0  0  0
  -24.0004   -7.4630   22.7482 H   0  0  0  0  0  0
  -21.0854   -8.8779   19.8954 H   0  0  0  0  0  0
  -22.3726  -10.9667   19.6167 H   0  0  0  0  0  0
  -21.2018   -7.6147   23.9715 H   0  0  0  0  0  0
  -21.1490   -6.0522   25.9077 H   0  0  0  0  0  0
  -22.0591   -2.7607   23.2843 H   0  0  0  0  0  0
  -22.4029  -11.9826   22.4874 H   0  0  0  0  0  0
  -21.1000  -13.1155   22.2673 H   0  0  0  0  0  0
  -24.6105  -15.8378   20.5371 H   0  0  0  0  0  0
  -26.2220  -15.6429   20.0681 H   0  0  0  0  0  0
  -26.7374  -32.5118   23.0877 H   0  0  0  0  0  0
  -25.0050  -33.9474   25.0169 H   0  0  0  0  0  0
  -22.7904  -31.2624   21.3440 H   0  0  0  0  0  0
  -23.3767  -35.9538   23.3269 H   0  0  0  0  0  0
  -24.3578  -36.8902   22.2068 H   0  0  0  0  0  0
  -23.7248  -37.6390   23.6729 H   0  0  0  0  0  0
  -26.2213  -31.3627   20.6153 H   0  0  0  0  0  0
  -26.9058  -30.6879   22.0518 H   0  0  0  0  0  0
  -28.1454  -28.5943   21.2810 H   0  0  0  0  0  0
  -25.9029  -25.7158   19.0046 H   0  0  0  0  0  0
  -24.0108  -27.2472   18.9528 H   0  0  0  0  0  0
  -23.8745  -30.5057   19.3848 H   0  0  0  0  0  0
  -22.8267  -29.1947   19.8294 H   0  0  0  0  0  0
  -25.1335  -36.1765   25.0791 H   0  0  0  0  0  0
  -21.0027  -28.3354   24.1321 H   0  0  0  0  0  0
  -20.5671  -26.2370   23.3642 H   0  0  0  0  0  0
  -21.6662  -26.7407   22.1221 H   0  0  0  0  0  0
  -19.6936  -25.6269   21.1278 H   0  0  0  0  0  0
  -19.6713  -27.3152   20.6716 H   0  0  0  0  0  0
  -17.4224  -26.6669   21.4026 H   0  0  0  0  0  0
  -18.0358  -26.0088   22.9030 H   0  0  0  0  0  0
  -19.7964  -30.7302   24.2222 H   0  0  0  0  0  0
  -17.5035  -31.6269   24.5165 H   0  0  0  0  0  0
  -15.5374  -30.2973   23.7677 H   0  0  0  0  0  0
  -15.8702  -28.0806   22.7094 H   0  0  0  0  0  0
  -24.5856  -30.7132   25.7652 H   0  0  0  0  0  0
  -24.8839  -32.2993   26.4646 H   0  0  0  0  0  0
  -25.7885  -30.9034   27.0208 H   0  0  0  0  0  0
  -26.3087  -29.6560   24.1451 H   0  0  0  0  0  0
  -27.3973  -29.7279   25.5085 H   0  0  0  0  0  0
  -27.9030  -30.4067   23.9829 H   0  0  0  0  0  0
  -27.2605  -33.3676   26.1961 H   0  0  0  0  0  0
  -28.3911  -32.6833   25.0376 H   0  0  0  0  0  0
  -28.0635  -31.8539   26.5511 H   0  0  0  0  0  0
  -28.2563  -38.0089   24.7519 H   0  0  0  0  0  0
  -28.1103  -36.2614   24.6269 H   0  0  0  0  0  0
  -27.2296  -37.1388   25.8863 H   0  0  0  0  0  0
  -20.9584  -29.8725   21.6669 H   0  0  0  0  0  0
  -26.0130  -38.2765   24.1402 H   0  0  0  0  0  0
  -29.0000  -24.0423   18.1465 H   0  0  0  0  0  0
  -28.1642  -21.5829   22.2078 H   0  0  0  0  0  0
  -28.1876  -22.6617   16.3921 H   0  0  0  0  0  0
  -29.6608  -21.9174   15.5809 H   0  0  0  0  0  0
  -28.9995  -19.6750   16.4517 H   0  0  0  0  0  0
  -27.5371  -20.4260   17.2797 H   0  0  0  0  0  0
  -28.4999  -18.7654   22.2042 H   0  0  0  0  0  0
  -27.0944  -18.7410   21.1673 H   0  0  0  0  0  0
  -27.6897  -16.5853   20.2126 H   0  0  0  0  0  0
  -28.2165  -16.3860   21.8730 H   0  0  0  0  0  0
  -30.9423  -18.4063   20.8366 H   0  0  0  0  0  0
  -30.6603  -18.1892   19.1371 H   0  0  0  0  0  0
  -30.5314  -21.1395   17.8174 H   0  0  0  0  0  0
  -28.4120  -19.1774   19.2499 H   0  0  0  0  0  0
  1 25  1  0  0  0
  1 30  2  0  0  0
  1 84  1  0  0  0
  2  3  1  0  0  0
  2 25  1  0  0  0
  2 85  1  0  0  0
  2 86  1  0  0  0
  3  4  1  0  0  0
  3 87  1  0  0  0
  3 88  1  0  0  0
  4  5  1  0  0  0
  4 89  1  0  0  0
  4 90  1  0  0  0
  5  6  1  0  0  0
  5 26  1  0  0  0
  5 91  1  0  0  0
  6 25  1  0  0  0
  6 92  1  0  0  0
  6 93  1  0  0  0
  7  8  2  0  0  0
  7 26  1  0  0  0
  7 29  1  0  0  0
  8  9  1  0  0  0
  8 22  1  0  0  0
  9 10  1  0  0  0
  9 27  2  0  0  0
 10 11  2  0  0  0
 10 15  1  0  0  0
 11 12  1  0  0  0
 11 94  1  0  0  0
 12 13  2  0  0  0
 12 95  1  0  0  0
 13 14  1  0  0  0
 13 31  1  0  0  0
 14 15  2  0  0  0
 14 96  1  0  0  0
 15 97  1  0  0  0
 16 17  2  0  0  0
 16 21  1  0  0  0
 16 31  1  0  0  0
 17 18  1  0  0  0
 17 98  1  0  0  0
 18 19  2  0  0  0
 18 99  1  0  0  0
 19 20  1  0  0  0
 19 24  1  0  0  0
 20 21  2  0  0  0
 20100  1  0  0  0
 21 23  1  0  0  0
 22 28  1  0  0  0
 22 32  2  0  0  0
 26 27  1  0  0  0
 28101  1  0  0  0
 28102  1  0  0  0
 29103  1  0  0  0
 29104  1  0  0  0
 33 34  1  0  0  0
 33 66  1  0  0  0
 33 70  2  0  0  0
 34 36  1  0  0  0
 34 59  1  0  0  0
 34105  1  0  0  0
 35 44  2  0  0  0
 35 45  1  0  0  0
 35 68  1  0  0  0
 36 56  1  0  0  0
 36106  1  0  0  0
 37 39  1  0  0  0
 37 47  1  0  0  0
 37 66  1  0  0  0
 37107  1  0  0  0
 38 43  2  0  0  0
 38 46  1  0  0  0
 38 47  1  0  0  0
 39 64  1  0  0  0
 39 67  2  0  0  0
 40 52  1  0  0  0
 40 53  2  0  0  0
 40 58  1  0  0  0
 41108  1  0  0  0
 41109  1  0  0  0
 41110  1  0  0  0
 41 48  1  0  0  0
 42 43  1  0  0  0
 42 66  1  0  0  0
 42111  1  0  0  0
 42112  1  0  0  0
 43 44  1  0  0  0
 44113  1  0  0  0
 45 46  2  0  0  0
 45114  1  0  0  0
 46115  1  0  0  0
 47116  1  0  0  0
 47117  1  0  0  0
 48 56  1  0  0  0
 48 65  1  0  0  0
 48118  1  0  0  0
 49 50  1  0  0  0
 49 53  1  0  0  0
 49 64  1  0  0  0
 49119  1  0  0  0
 50 51  1  0  0  0
 50120  1  0  0  0
 50121  1  0  0  0
 51 52  1  0  0  0
 51122  1  0  0  0
 51123  1  0  0  0
 52124  1  0  0  0
 52125  1  0  0  0
 53 54  1  0  0  0
 54 55  2  0  0  0
 54126  1  0  0  0
 55 57  1  0  0  0
 55127  1  0  0  0
 56 69  2  0  0  0
 57 58  2  0  0  0
 57128  1  0  0  0
 58129  1  0  0  0
 59 60  1  0  0  0
 59 61  1  0  0  0
 59 62  1  0  0  0
 60130  1  0  0  0
 60131  1  0  0  0
 60132  1  0  0  0
 61133  1  0  0  0
 61134  1  0  0  0
 61135  1  0  0  0
 62136  1  0  0  0
 62137  1  0  0  0
 62138  1  0  0  0
 63 65  1  0  0  0
 63139  1  0  0  0
 63140  1  0  0  0
 63141  1  0  0  0
 64142  1  0  0  0
 65143  1  0  0  0
 68 75  1  0  0  0
 71 73  2  0  0  0
 71 75  1  0  0  0
 71144  1  0  0  0
 72 74  2  0  0  0
 72 83  1  0  0  0
 72145  1  0  0  0
 73 74  1  0  0  0
 73 81  1  0  0  0
 74 82  1  0  0  0
 75 83  2  0  0  0
 76 77  1  0  0  0
 76 81  1  0  0  0
 76146  1  0  0  0
 76147  1  0  0  0
 77 81  1  0  0  0
 77148  1  0  0  0
 77149  1  0  0  0
 78 79  1  0  0  0
 78 82  1  0  0  0
 78150  1  0  0  0
 78151  1  0  0  0
 79 84  1  0  0  0
 79152  1  0  0  0
 79153  1  0  0  0
 80 82  1  0  0  0
 80 84  1  0  0  0
 80154  1  0  0  0
 80155  1  0  0  0
 81156  1  0  0  0
 82157  1  0  0  0
M  ISO  4   1 100  68 101  75 101  84 100
M  END
> <chiral flag>
0

> <version>
0

> <s_m_source_file>
/data/baiqing/PycharmProjects/Reinvent-master-3.2/result/LINK_invent/BTK/process_docking_weight1_custom_sum_contain_oxygen_bond_distance_aromatic_linkinvent_7_9_3/rearranged_h_0168.sdf

> <i_m_source_file_index>
22

> <r_mmod_Potential_Energy-OPLS-2005>
1245.59411621094

> <r_mmod_Stretch_Energy-OPLS-2005>
482.017974853516

> <r_mmod_Bend_Energy-OPLS-2005>
484.988494873047

> <r_mmod_Torsional_Energy-OPLS-2005>
346.386962890625

> <r_mmod_Improper_Torsional_Energy-OPLS-2005>
9.29486560821533

> <r_mmod_Van_der_Waal_Energy-OPLS-2005>
119.941749572754

> <r_mmod_Electrostatic_Energy-OPLS-2005>
-437.736022949219

> <r_mmod_Solvation_Energy-OPLS-2005>
-219.228256225586

> <b_mmod_Minimization_Converged-OPLS-2005>
0

> <r_mmod_RMS_Derivative-OPLS-2005>
0.710079371929169

$$$$
22
                    3D
 Structure written by MMmdl.
169179  0  0  1  0            999 V2000
  -30.6624  -14.6632   20.4795 C   0  0  0  0  0  0
  -30.4225  -12.4056   19.4664 C   0  0  0  0  0  0
  -29.5034  -12.4978   18.2296 C   0  0  0  0  0  0
  -28.0286  -12.3353   18.6440 C   0  0  0  0  0  0
  -27.6445  -13.2283   19.8548 C   0  0  2  0  0  0
  -28.6901  -13.1423   20.9897 C   0  0  0  0  0  0
  -25.2518  -13.8201   20.5702 C   0  0  0  0  0  0
  -24.1803  -13.0440   20.9209 C   0  0  0  0  0  0
  -24.6389  -11.6920   20.8747 C   0  0  0  0  0  0
  -23.9066  -10.4295   21.0406 C   0  0  0  0  0  0
  -24.3614   -9.4214   21.9189 C   0  0  0  0  0  0
  -23.6290   -8.2247   22.0759 C   0  0  0  0  0  0
  -22.4277   -8.0282   21.3543 C   0  0  0  0  0  0
  -21.9912   -9.0254   20.4644 C   0  0  0  0  0  0
  -22.7238  -10.2135   20.3055 C   0  0  0  0  0  0
  -21.6852   -6.0736   22.5277 C   0  0  0  0  0  0
  -21.4015   -6.5638   23.8212 C   0  0  0  0  0  0
  -21.3662   -5.6790   24.9172 C   0  0  0  0  0  0
  -21.6043   -4.3052   24.7222 C   0  0  0  0  0  0
  -21.8817   -3.8145   23.4344 C   0  0  0  0  0  0
  -21.9192   -4.6963   22.3402 C   0  0  0  0  0  0
  -22.7823  -13.5226   21.1866 C   0  0  0  0  0  0
  -22.1658   -4.2148   21.0977 F   0  0  0  0  0  0
  -21.5631   -3.4537   25.7736 F   0  0  0  0  0  0
  -30.0004  -13.4629   20.4103 N   0  0  0  0  0  0
  -26.2947  -12.9400   20.3307 N   0  0  0  0  0  0
  -25.9320  -11.6541   20.5759 N   0  0  0  0  0  0
  -22.0467  -12.8210   22.0417 N   0  0  0  0  0  0
  -25.4213  -15.1925   20.4115 N   0  0  0  0  0  0
  -31.8424  -14.7473   20.1316 O   0  0  0  0  0  0
  -21.6638   -6.8880   21.4238 O   0  0  0  0  0  0
  -22.3509  -14.5536   20.6725 O   0  0  0  0  0  0
  -24.6306  -31.8616   23.2056 C   0  0  0  0  0  0
  -25.9146  -32.4794   23.8387 C   0  0  1  0  0  0
  -27.2011  -27.2793   20.1011 C   0  0  0  0  0  0
  -25.5956  -33.8595   24.2305 N   0  0  0  0  0  0
  -23.4242  -30.4901   21.5521 C   0  0  2  0  0  0
  -24.8656  -28.9583   20.1069 C   0  0  0  0  0  0
  -22.7509  -29.4625   22.4939 C   0  0  0  0  0  0
  -18.0298  -28.1382   22.8490 C   0  0  0  0  0  0
  -24.1488  -36.7289   23.2638 C   0  0  0  0  0  0
  -25.9733  -30.7755   21.3889 C   0  0  0  0  0  0
  -26.0410  -29.4034   20.7250 C   0  0  0  0  0  0
  -27.2097  -28.5729   20.7236 C   0  0  0  0  0  0
  -26.0017  -26.9305   19.4257 C   0  0  0  0  0  0
  -24.8507  -27.7276   19.4486 C   0  0  0  0  0  0
  -23.6383  -29.8420   20.1629 C   0  0  0  0  0  0
  -25.4118  -36.3092   24.0329 C   0  0  1  0  0  0
  -20.5903  -28.3696   23.1272 C   0  0  2  0  0  0
  -20.6795  -26.9420   22.5395 C   0  0  0  0  0  0
  -19.5755  -26.6383   21.5211 C   0  0  0  0  0  0
  -18.1937  -26.7930   22.1625 C   0  0  0  0  0  0
  -19.1552  -28.8856   23.2871 C   0  0  0  0  0  0
  -18.9474  -30.1460   23.8885 C   0  0  0  0  0  0
  -17.6475  -30.6590   24.0561 C   0  0  0  0  0  0
  -25.9059  -34.9462   23.5112 C   0  0  0  0  0  0
  -16.5364  -29.9086   23.6336 C   0  0  0  0  0  0
  -16.7286  -28.6499   23.0362 C   0  0  0  0  0  0
  -26.4510  -31.6604   25.0763 C   0  0  0  0  0  0
  -25.3718  -31.3726   26.1463 C   0  0  0  0  0  0
  -27.0377  -30.3038   24.6225 C   0  0  0  0  0  0
  -27.6058  -32.4345   25.7542 C   0  0  0  0  0  0
  -27.5580  -37.1806   24.8471 C   0  0  0  0  0  0
  -21.4218  -29.3054   22.3680 N   0  0  0  0  0  0
  -26.4297  -37.3785   23.9411 N   0  0  0  0  0  0
  -24.6955  -31.0588   22.1045 N   0  0  0  0  0  0
  -23.4220  -28.8139   23.3007 O   0  0  0  0  0  0
  -28.2679  -26.3442   20.1766 O   0  0  0  0  0  0
  -26.5618  -34.8923   22.4674 O   0  0  0  0  0  0
  -23.5455  -32.1446   23.7348 O   0  0  0  0  0  0
  -29.0118  -23.1484   21.3532 C   0  0  0  0  0  0
  -29.4788  -21.7931   21.5500 C   0  0  0  0  0  0
  -28.7229  -23.6120   20.0337 C   0  0  0  0  0  0
  -29.5676  -20.8821   20.4558 C   0  0  0  0  0  0
  -28.9164  -22.6361   19.0066 C   0  0  0  0  0  0
  -28.0684  -23.7102   23.7690 C   0  0  0  0  0  0
  -27.4888  -24.7352   22.8354 C   0  0  0  0  0  0
  -30.0076  -18.3030   21.6276 C   0  0  0  0  0  0
  -28.8277  -24.0972   22.5150 C   0  0  0  0  0  0
  -30.1541  -19.4079   20.5161 C   0  0  1  0  0  0
  -30.4549  -17.2320   20.5742 C   0  0  2  0  0  0
  -29.7191  -18.2088   19.5959 C   0  0  2  0  0  0
  -29.9233  -21.3117   22.9271 C   0  0  0  0  0  0
  -28.6334  -22.9403   17.5448 C   0  0  0  0  0  0
  -27.9483  -24.9622   19.7022 C   0  0  0  0  0  0
  -29.3217  -21.3489   19.2119 N   0  0  0  0  0  0
  -29.9388  -15.8116   20.7173 N   0  0  0  0  0  0
  -30.2818  -18.2827   18.2327 N   0  3  0  0  0  0
  -31.4677  -12.5027   19.1674 H   0  0  0  0  0  0
  -30.3381  -11.4243   19.9360 H   0  0  0  0  0  0
  -29.7720  -11.7321   17.5005 H   0  0  0  0  0  0
  -29.6441  -13.4583   17.7319 H   0  0  0  0  0  0
  -27.8741  -11.2858   18.8971 H   0  0  0  0  0  0
  -27.3717  -12.5415   17.7980 H   0  0  0  0  0  0
  -27.6468  -14.2534   19.4845 H   0  0  0  0  0  0
  -28.7034  -12.1443   21.4301 H   0  0  0  0  0  0
  -28.4388  -13.8290   21.7994 H   0  0  0  0  0  0
  -25.2753   -9.5692   22.4770 H   0  0  0  0  0  0
  -23.9995   -7.4643   22.7482 H   0  0  0  0  0  0
  -21.0845   -8.8771   19.8946 H   0  0  0  0  0  0
  -22.3695  -10.9673   19.6164 H   0  0  0  0  0  0
  -21.2008   -7.6144   23.9713 H   0  0  0  0  0  0
  -21.1486   -6.0520   25.9074 H   0  0  0  0  0  0
  -22.0595   -2.7609   23.2842 H   0  0  0  0  0  0
  -22.4073  -11.9856   22.4784 H   0  0  0  0  0  0
  -21.1087  -13.1235   22.2629 H   0  0  0  0  0  0
  -24.6522  -15.8450   20.5210 H   0  0  0  0  0  0
  -26.2667  -15.6325   20.0730 H   0  0  0  0  0  0
  -26.7214  -32.5448   23.1129 H   0  0  0  0  0  0
  -25.0127  -33.9750   25.0469 H   0  0  0  0  0  0
  -22.7179  -31.3118   21.4166 H   0  0  0  0  0  0
  -23.3762  -35.9607   23.3296 H   0  0  0  0  0  0
  -24.3572  -36.8922   22.2055 H   0  0  0  0  0  0
  -23.7226  -37.6482   23.6663 H   0  0  0  0  0  0
  -26.1142  -31.5378   20.6212 H   0  0  0  0  0  0
  -26.8512  -30.8197   22.0215 H   0  0  0  0  0  0
  -28.1023  -28.9018   21.2374 H   0  0  0  0  0  0
  -25.8834  -26.0162   18.8672 H   0  0  0  0  0  0
  -23.9561  -27.3892   18.9434 H   0  0  0  0  0  0
  -23.7609  -30.6278   19.4164 H   0  0  0  0  0  0
  -22.7554  -29.2793   19.8537 H   0  0  0  0  0  0
  -25.1291  -36.1955   25.0822 H   0  0  0  0  0  0
  -20.9984  -28.3269   24.1395 H   0  0  0  0  0  0
  -20.5741  -26.2301   23.3592 H   0  0  0  0  0  0
  -21.6653  -26.7476   22.1158 H   0  0  0  0  0  0
  -19.6919  -25.6293   21.1248 H   0  0  0  0  0  0
  -19.6684  -27.3186   20.6735 H   0  0  0  0  0  0
  -17.4210  -26.6692   21.4021 H   0  0  0  0  0  0
  -18.0317  -26.0067   22.9012 H   0  0  0  0  0  0
  -19.7953  -30.7282   24.2240 H   0  0  0  0  0  0
  -17.5036  -31.6270   24.5161 H   0  0  0  0  0  0
  -15.5365  -30.2989   23.7666 H   0  0  0  0  0  0
  -15.8683  -28.0820   22.7083 H   0  0  0  0  0  0
  -24.5903  -30.7078   25.7768 H   0  0  0  0  0  0
  -24.8885  -32.2880   26.4884 H   0  0  0  0  0  0
  -25.8014  -30.8899   27.0250 H   0  0  0  0  0  0
  -26.2976  -29.6777   24.1227 H   0  0  0  0  0  0
  -27.4074  -29.7295   25.4731 H   0  0  0  0  0  0
  -27.8839  -30.4350   23.9476 H   0  0  0  0  0  0
  -27.2679  -33.3670   26.2069 H   0  0  0  0  0  0
  -28.3888  -32.6868   25.0381 H   0  0  0  0  0  0
  -28.0696  -31.8503   26.5498 H   0  0  0  0  0  0
  -28.2584  -38.0119   24.7542 H   0  0  0  0  0  0
  -28.1091  -36.2647   24.6275 H   0  0  0  0  0  0
  -27.2288  -37.1429   25.8872 H   0  0  0  0  0  0
  -20.9398  -29.8827   21.6933 H   0  0  0  0  0  0
  -26.0179  -38.2860   24.1416 H   0  0  0  0  0  0
  -27.5799  -22.7382   23.7944 H   0  0  0  0  0  0
  -28.4533  -24.0669   24.7219 H   0  0  0  0  0  0
  -27.4912  -25.7713   23.1681 H   0  0  0  0  0  0
  -26.6078  -24.4260   22.2786 H   0  0  0  0  0  0
  -28.9805  -18.1776   21.9781 H   0  0  0  0  0  0
  -30.6897  -18.4158   22.4697 H   0  0  0  0  0  0
  -29.7145  -24.7170   22.6366 H   0  0  0  0  0  0
  -31.2258  -19.5804   20.3873 H   0  0  0  0  0  0
  -31.5397  -17.2710   20.4444 H   0  0  0  0  0  0
  -28.6339  -18.0753   19.5784 H   0  0  0  0  0  0
  -30.1775  -22.1277   23.6017 H   0  0  0  0  0  0
  -30.8259  -20.7059   22.8551 H   0  0  0  0  0  0
  -29.1428  -20.7088   23.3926 H   0  0  0  0  0  0
  -29.1782  -23.8277   17.2215 H   0  0  0  0  0  0
  -27.5675  -23.1028   17.3861 H   0  0  0  0  0  0
  -28.9402  -22.1204   16.8940 H   0  0  0  0  0  0
  -26.9580  -24.6928   20.0665 H   0  0  0  0  0  0
  -27.8539  -25.0606   18.6236 H   0  0  0  0  0  0
  -28.9647  -15.6874   20.9501 H   0  0  0  0  0  0
  -31.2837  -18.3386   18.2413 H   0  0  0  0  0  0
  -29.9290  -19.0996   17.7652 H   0  0  0  0  0  0
  -30.0173  -17.4784   17.6935 H   0  0  0  0  0  0
  1 25  1  0  0  0
  1 30  2  0  0  0
  1 87  1  0  0  0
  2  3  1  0  0  0
  2 25  1  0  0  0
  2 89  1  0  0  0
  2 90  1  0  0  0
  3  4  1  0  0  0
  3 91  1  0  0  0
  3 92  1  0  0  0
  4  5  1  0  0  0
  4 93  1  0  0  0
  4 94  1  0  0  0
  5  6  1  0  0  0
  5 26  1  0  0  0
  5 95  1  0  0  0
  6 25  1  0  0  0
  6 96  1  0  0  0
  6 97  1  0  0  0
  7  8  2  0  0  0
  7 26  1  0  0  0
  7 29  1  0  0  0
  8  9  1  0  0  0
  8 22  1  0  0  0
  9 10  1  0  0  0
  9 27  2  0  0  0
 10 11  2  0  0  0
 10 15  1  0  0  0
 11 12  1  0  0  0
 11 98  1  0  0  0
 12 13  2  0  0  0
 12 99  1  0  0  0
 13 14  1  0  0  0
 13 31  1  0  0  0
 14 15  2  0  0  0
 14100  1  0  0  0
 15101  1  0  0  0
 16 17  2  0  0  0
 16 21  1  0  0  0
 16 31  1  0  0  0
 17 18  1  0  0  0
 17102  1  0  0  0
 18 19  2  0  0  0
 18103  1  0  0  0
 19 20  1  0  0  0
 19 24  1  0  0  0
 20 21  2  0  0  0
 20104  1  0  0  0
 21 23  1  0  0  0
 22 28  1  0  0  0
 22 32  2  0  0  0
 26 27  1  0  0  0
 28105  1  0  0  0
 28106  1  0  0  0
 29107  1  0  0  0
 29108  1  0  0  0
 33 34  1  0  0  0
 33 66  1  0  0  0
 33 70  2  0  0  0
 34 36  1  0  0  0
 34 59  1  0  0  0
 34109  1  0  0  0
 35 44  2  0  0  0
 35 45  1  0  0  0
 35 68  1  0  0  0
 36 56  1  0  0  0
 36110  1  0  0  0
 37 39  1  0  0  0
 37 47  1  0  0  0
 37 66  1  0  0  0
 37111  1  0  0  0
 38 43  2  0  0  0
 38 46  1  0  0  0
 38 47  1  0  0  0
 39 64  1  0  0  0
 39 67  2  0  0  0
 40 52  1  0  0  0
 40 53  2  0  0  0
 40 58  1  0  0  0
 41112  1  0  0  0
 41113  1  0  0  0
 41114  1  0  0  0
 41 48  1  0  0  0
 42 43  1  0  0  0
 42 66  1  0  0  0
 42115  1  0  0  0
 42116  1  0  0  0
 43 44  1  0  0  0
 44117  1  0  0  0
 45 46  2  0  0  0
 45118  1  0  0  0
 46119  1  0  0  0
 47120  1  0  0  0
 47121  1  0  0  0
 48 56  1  0  0  0
 48 65  1  0  0  0
 48122  1  0  0  0
 49 50  1  0  0  0
 49 53  1  0  0  0
 49 64  1  0  0  0
 49123  1  0  0  0
 50 51  1  0  0  0
 50124  1  0  0  0
 50125  1  0  0  0
 51 52  1  0  0  0
 51126  1  0  0  0
 51127  1  0  0  0
 52128  1  0  0  0
 52129  1  0  0  0
 53 54  1  0  0  0
 54 55  2  0  0  0
 54130  1  0  0  0
 55 57  1  0  0  0
 55131  1  0  0  0
 56 69  2  0  0  0
 57 58  2  0  0  0
 57132  1  0  0  0
 58133  1  0  0  0
 59 60  1  0  0  0
 59 61  1  0  0  0
 59 62  1  0  0  0
 60134  1  0  0  0
 60135  1  0  0  0
 60136  1  0  0  0
 61137  1  0  0  0
 61138  1  0  0  0
 61139  1  0  0  0
 62140  1  0  0  0
 62141  1  0  0  0
 62142  1  0  0  0
 63 65  1  0  0  0
 63143  1  0  0  0
 63144  1  0  0  0
 63145  1  0  0  0
 64146  1  0  0  0
 65147  1  0  0  0
 68 85  1  0  0  0
 71 72  2  0  0  0
 71 73  1  0  0  0
 71 79  1  0  0  0
 72 74  1  0  0  0
 72 83  1  0  0  0
 73 75  2  0  0  0
 73 85  1  0  0  0
 74 86  2  0  0  0
 74 80  1  0  0  0
 75 84  1  0  0  0
 75 86  1  0  0  0
 76 77  1  0  0  0
 76 79  1  0  0  0
 76148  1  0  0  0
 76149  1  0  0  0
 77 79  1  0  0  0
 77150  1  0  0  0
 77151  1  0  0  0
 78 80  1  0  0  0
 78 81  1  0  0  0
 78152  1  0  0  0
 78153  1  0  0  0
 79154  1  0  0  0
 80 82  1  0  0  0
 80155  1  0  0  0
 81 82  1  0  0  0
 81 87  1  0  0  0
 81156  1  0  0  0
 82 88  1  0  0  0
 82157  1  0  0  0
 83158  1  0  0  0
 83159  1  0  0  0
 83160  1  0  0  0
 84161  1  0  0  0
 84162  1  0  0  0
 84163  1  0  0  0
 85164  1  0  0  0
 85165  1  0  0  0
 87166  1  0  0  0
 88167  1  0  0  0
 88168  1  0  0  0
 88169  1  0  0  0
M  CHG  1  88   1
M  ISO  4   1 100  68 101  85 101  87 100
M  END
> <chiral flag>
0

> <version>
0

> <s_m_source_file>
/data/baiqing/PycharmProjects/Reinvent-master-3.2/result/LINK_invent/BTK/process_docking_weight1_custom_sum_contain_oxygen_bond_distance_aromatic_linkinvent_7_9_3/rearranged_h_0168.sdf

> <i_m_source_file_index>
23

> <r_mmod_Potential_Energy-OPLS-2005>
-232.036422729492

> <r_mmod_Stretch_Energy-OPLS-2005>
99.3953323364258

> <r_mmod_Bend_Energy-OPLS-2005>
198.868774414062

> <r_mmod_Torsional_Energy-OPLS-2005>
302.67822265625

> <r_mmod_Improper_Torsional_Energy-OPLS-2005>
8.11047077178955

> <r_mmod_Van_der_Waal_Energy-OPLS-2005>
161.985488891602

> <r_mmod_Electrostatic_Energy-OPLS-2005>
-574.464965820312

> <r_mmod_Solvation_Energy-OPLS-2005>
-499.311126708984

> <b_mmod_Minimization_Converged-OPLS-2005>
0

> <r_mmod_RMS_Derivative-OPLS-2005>
1.14299523830414

$$$$
23
                    3D
 Structure written by MMmdl.
171180  0  0  1  0            999 V2000
  -30.6422  -14.8508   20.4591 C   0  0  0  0  0  0
  -30.4268  -12.5382   19.4753 C   0  0  0  0  0  0
  -29.5020  -12.5180   18.2394 C   0  0  0  0  0  0
  -28.0370  -12.3062   18.6657 C   0  0  0  0  0  0
  -27.6252  -13.2224   19.8456 C   0  0  2  0  0  0
  -28.6825  -13.2679   20.9719 C   0  0  0  0  0  0
  -25.2466  -13.8139   20.5779 C   0  0  0  0  0  0
  -24.1765  -13.0397   20.9262 C   0  0  0  0  0  0
  -24.6350  -11.6873   20.8793 C   0  0  0  0  0  0
  -23.9045  -10.4260   21.0437 C   0  0  0  0  0  0
  -24.3599   -9.4188   21.9215 C   0  0  0  0  0  0
  -23.6273   -8.2228   22.0765 C   0  0  0  0  0  0
  -22.4260   -8.0263   21.3542 C   0  0  0  0  0  0
  -21.9892   -9.0249   20.4658 C   0  0  0  0  0  0
  -22.7221  -10.2118   20.3084 C   0  0  0  0  0  0
  -21.6854   -6.0710   22.5267 C   0  0  0  0  0  0
  -21.4009   -6.5619   23.8193 C   0  0  0  0  0  0
  -21.3663   -5.6789   24.9167 C   0  0  0  0  0  0
  -21.6052   -4.3057   24.7231 C   0  0  0  0  0  0
  -21.8821   -3.8130   23.4364 C   0  0  0  0  0  0
  -21.9214   -4.6938   22.3415 C   0  0  0  0  0  0
  -22.7797  -13.5196   21.1912 C   0  0  0  0  0  0
  -22.1675   -4.2118   21.0995 F   0  0  0  0  0  0
  -21.5639   -3.4561   25.7754 F   0  0  0  0  0  0
  -29.9607  -13.6453   20.3545 N   0  0  0  0  0  0
  -26.2867  -12.9315   20.3371 N   0  0  0  0  0  0
  -25.9272  -11.6473   20.5816 N   0  0  0  0  0  0
  -22.0460  -12.8161   22.0451 N   0  0  0  0  0  0
  -25.4146  -15.1848   20.4126 N   0  0  0  0  0  0
  -31.8569  -14.8373   20.2355 O   0  0  0  0  0  0
  -21.6638   -6.8844   21.4220 O   0  0  0  0  0  0
  -22.3505  -14.5535   20.6791 O   0  0  0  0  0  0
  -24.6399  -31.8524   23.1954 C   0  0  0  0  0  0
  -25.9201  -32.4727   23.8331 C   0  0  1  0  0  0
  -27.2128  -27.1989   20.1638 C   0  0  0  0  0  0
  -25.5980  -33.8535   24.2234 N   0  0  0  0  0  0
  -23.4382  -30.4725   21.5390 C   0  0  2  0  0  0
  -24.8838  -28.9034   20.1211 C   0  0  0  0  0  0
  -22.7547  -29.4586   22.4892 C   0  0  0  0  0  0
  -18.0301  -28.1406   22.8469 C   0  0  0  0  0  0
  -24.1476  -36.7256   23.2636 C   0  0  0  0  0  0
  -25.9879  -30.7495   21.3777 C   0  0  0  0  0  0
  -26.0607  -29.3631   20.7244 C   0  0  0  0  0  0
  -27.2344  -28.5313   20.7188 C   0  0  0  0  0  0
  -26.0058  -26.8084   19.5512 C   0  0  0  0  0  0
  -24.8627  -27.6347   19.5202 C   0  0  0  0  0  0
  -23.6607  -29.8038   20.1571 C   0  0  0  0  0  0
  -25.4111  -36.3047   24.0319 C   0  0  1  0  0  0
  -20.5911  -28.3725   23.1264 C   0  0  2  0  0  0
  -20.6785  -26.9434   22.5414 C   0  0  0  0  0  0
  -19.5750  -26.6377   21.5233 C   0  0  0  0  0  0
  -18.1933  -26.7942   22.1638 C   0  0  0  0  0  0
  -19.1562  -28.8883   23.2858 C   0  0  0  0  0  0
  -18.9477  -30.1472   23.8872 C   0  0  0  0  0  0
  -17.6482  -30.6604   24.0555 C   0  0  0  0  0  0
  -25.9066  -34.9425   23.5074 C   0  0  0  0  0  0
  -16.5361  -29.9093   23.6344 C   0  0  0  0  0  0
  -16.7289  -28.6523   23.0353 C   0  0  0  0  0  0
  -26.4529  -31.6586   25.0752 C   0  0  0  0  0  0
  -25.3714  -31.3787   26.1444 C   0  0  0  0  0  0
  -27.0399  -30.2993   24.6309 C   0  0  0  0  0  0
  -27.6057  -32.4357   25.7547 C   0  0  0  0  0  0
  -27.5566  -37.1789   24.8460 C   0  0  0  0  0  0
  -21.4250  -29.3055   22.3630 N   0  0  0  0  0  0
  -26.4268  -37.3765   23.9431 N   0  0  0  0  0  0
  -24.7087  -31.0445   22.0925 N   0  0  0  0  0  0
  -23.4219  -28.8121   23.3019 O   0  0  0  0  0  0
  -28.3015  -26.2815   20.1527 O   0  0  0  0  0  0
  -26.5622  -34.8901   22.4628 O   0  0  0  0  0  0
  -23.5545  -32.1370   23.7223 O   0  0  0  0  0  0
  -28.8705  -22.0310   20.6062 C   0  0  0  0  0  0
  -30.5835  -17.2592   21.4649 C   0  0  0  0  0  0
  -28.7889  -16.6085   20.0432 C   0  0  0  0  0  0
  -30.4461  -18.7729   20.8982 C   0  0  0  0  0  0
  -28.8873  -18.0651   19.4360 C   0  0  0  0  0  0
  -27.2391  -23.0880   19.0946 C   0  0  0  0  0  0
  -29.0859  -20.6730   19.7012 C   0  0  2  0  0  0
  -28.0821  -20.7167   18.4701 C   0  0  2  0  0  0
  -28.5226  -23.4573   19.8538 C   0  0  2  0  0  0
  -28.7784  -20.2397   17.1672 C   0  0  0  0  0  0
  -29.6802  -23.8129   18.8988 C   0  0  0  0  0  0
  -26.0867  -21.7491   17.4264 C   0  0  0  0  0  0
  -28.1840  -24.8526   20.6906 C   0  0  0  0  0  0
  -29.9993  -16.0876   20.7126 N   0  0  0  0  0  0
  -29.1340  -19.2360   20.3415 N   0  0  0  0  0  0
  -27.3900  -21.9992   18.0972 N   0  3  1  0  0  0
  -31.4635  -12.6672   19.1561 H   0  0  0  0  0  0
  -30.3929  -11.5838   20.0036 H   0  0  0  0  0  0
  -29.8052  -11.7341   17.5441 H   0  0  0  0  0  0
  -29.5996  -13.4621   17.6992 H   0  0  0  0  0  0
  -27.9236  -11.2590   18.9500 H   0  0  0  0  0  0
  -27.3681  -12.4653   17.8203 H   0  0  0  0  0  0
  -27.5599  -14.2071   19.4057 H   0  0  0  0  0  0
  -28.7661  -12.3044   21.4775 H   0  0  0  0  0  0
  -28.3995  -13.9972   21.7331 H   0  0  0  0  0  0
  -25.2726   -9.5668   22.4808 H   0  0  0  0  0  0
  -23.9995   -7.4599   22.7462 H   0  0  0  0  0  0
  -21.0840   -8.8769   19.8936 H   0  0  0  0  0  0
  -22.3685  -10.9668   19.6220 H   0  0  0  0  0  0
  -21.1959   -7.6120   23.9672 H   0  0  0  0  0  0
  -21.1493   -6.0537   25.9073 H   0  0  0  0  0  0
  -22.0597   -2.7591   23.2888 H   0  0  0  0  0  0
  -22.4093  -11.9784   22.4759 H   0  0  0  0  0  0
  -21.1093  -13.1191   22.2699 H   0  0  0  0  0  0
  -24.6502  -15.8413   20.5115 H   0  0  0  0  0  0
  -26.2661  -15.6181   20.0871 H   0  0  0  0  0  0
  -26.7258  -32.5340   23.1066 H   0  0  0  0  0  0
  -25.0205  -33.9649   25.0446 H   0  0  0  0  0  0
  -22.7411  -31.3010   21.3936 H   0  0  0  0  0  0
  -23.3751  -35.9575   23.3275 H   0  0  0  0  0  0
  -24.3550  -36.8900   22.2045 H   0  0  0  0  0  0
  -23.7201  -37.6435   23.6688 H   0  0  0  0  0  0
  -26.1325  -31.5071   20.6072 H   0  0  0  0  0  0
  -26.8611  -30.8024   22.0156 H   0  0  0  0  0  0
  -28.1437  -28.8896   21.1802 H   0  0  0  0  0  0
  -25.9252  -25.8318   19.1045 H   0  0  0  0  0  0
  -23.9570  -27.2737   19.0524 H   0  0  0  0  0  0
  -23.8027  -30.5823   19.4058 H   0  0  0  0  0  0
  -22.7757  -29.2498   19.8401 H   0  0  0  0  0  0
  -25.1289  -36.1879   25.0807 H   0  0  0  0  0  0
  -21.0018  -28.3279   24.1386 H   0  0  0  0  0  0
  -20.5714  -26.2334   23.3616 H   0  0  0  0  0  0
  -21.6648  -26.7449   22.1196 H   0  0  0  0  0  0
  -19.6908  -25.6281   21.1273 H   0  0  0  0  0  0
  -19.6685  -27.3185   20.6748 H   0  0  0  0  0  0
  -17.4215  -26.6717   21.4012 H   0  0  0  0  0  0
  -18.0296  -26.0085   22.9024 H   0  0  0  0  0  0
  -19.7944  -30.7302   24.2238 H   0  0  0  0  0  0
  -17.5024  -31.6277   24.5161 H   0  0  0  0  0  0
  -15.5364  -30.2987   23.7682 H   0  0  0  0  0  0
  -15.8686  -28.0826   22.7089 H   0  0  0  0  0  0
  -24.5896  -30.7128   25.7752 H   0  0  0  0  0  0
  -24.8902  -32.2978   26.4804 H   0  0  0  0  0  0
  -25.7965  -30.8995   27.0273 H   0  0  0  0  0  0
  -26.3029  -29.6723   24.1261 H   0  0  0  0  0  0
  -27.3966  -29.7275   25.4887 H   0  0  0  0  0  0
  -27.8942  -30.4234   23.9648 H   0  0  0  0  0  0
  -27.2657  -33.3686   26.2075 H   0  0  0  0  0  0
  -28.3909  -32.6883   25.0403 H   0  0  0  0  0  0
  -28.0702  -31.8529   26.5521 H   0  0  0  0  0  0
  -28.2578  -38.0096   24.7533 H   0  0  0  0  0  0
  -28.1073  -36.2624   24.6261 H   0  0  0  0  0  0
  -27.2285  -37.1383   25.8861 H   0  0  0  0  0  0
  -20.9473  -29.8773   21.6798 H   0  0  0  0  0  0
  -26.0123  -38.2827   24.1468 H   0  0  0  0  0  0
  -29.7530  -22.1704   21.2314 H   0  0  0  0  0  0
  -28.0668  -21.8266   21.3157 H   0  0  0  0  0  0
  -30.1249  -17.2327   22.4547 H   0  0  0  0  0  0
  -31.6405  -17.0656   21.6559 H   0  0  0  0  0  0
  -28.5748  -15.9685   19.1913 H   0  0  0  0  0  0
  -27.9475  -16.5360   20.7330 H   0  0  0  0  0  0
  -31.2048  -18.8961   20.1225 H   0  0  0  0  0  0
  -30.7436  -19.4678   21.6877 H   0  0  0  0  0  0
  -27.9622  -18.1851   18.8801 H   0  0  0  0  0  0
  -29.6806  -18.0196   18.6897 H   0  0  0  0  0  0
  -26.8762  -23.9644   18.5617 H   0  0  0  0  0  0
  -26.4527  -22.8198   19.8017 H   0  0  0  0  0  0
  -30.0776  -20.8071   19.2645 H   0  0  0  0  0  0
  -27.2571  -20.0594   18.7375 H   0  0  0  0  0  0
  -29.2809  -21.0654   16.6614 H   0  0  0  0  0  0
  -28.0687  -19.8060   16.4623 H   0  0  0  0  0  0
  -29.5531  -19.5004   17.3284 H   0  0  0  0  0  0
  -29.9953  -22.9716   18.2841 H   0  0  0  0  0  0
  -30.5570  -24.1334   19.4622 H   0  0  0  0  0  0
  -29.4091  -24.6310   18.2292 H   0  0  0  0  0  0
  -25.6700  -22.6640   17.0095 H   0  0  0  0  0  0
  -25.3599  -21.3482   18.1341 H   0  0  0  0  0  0
  -26.1703  -21.0400   16.6022 H   0  0  0  0  0  0
  -28.8634  -24.8621   21.5450 H   0  0  0  0  0  0
  -27.2004  -24.7447   21.1543 H   0  0  0  0  0  0
  -27.9865  -22.3949   17.3869 H   0  0  0  0  0  0
  1 25  1  0  0  0
  1 30  2  0  0  0
  1 84  1  0  0  0
  2  3  1  0  0  0
  2 25  1  0  0  0
  2 87  1  0  0  0
  2 88  1  0  0  0
  3  4  1  0  0  0
  3 89  1  0  0  0
  3 90  1  0  0  0
  4  5  1  0  0  0
  4 91  1  0  0  0
  4 92  1  0  0  0
  5  6  1  0  0  0
  5 26  1  0  0  0
  5 93  1  0  0  0
  6 25  1  0  0  0
  6 94  1  0  0  0
  6 95  1  0  0  0
  7  8  2  0  0  0
  7 26  1  0  0  0
  7 29  1  0  0  0
  8  9  1  0  0  0
  8 22  1  0  0  0
  9 10  1  0  0  0
  9 27  2  0  0  0
 10 11  2  0  0  0
 10 15  1  0  0  0
 11 12  1  0  0  0
 11 96  1  0  0  0
 12 13  2  0  0  0
 12 97  1  0  0  0
 13 14  1  0  0  0
 13 31  1  0  0  0
 14 15  2  0  0  0
 14 98  1  0  0  0
 15 99  1  0  0  0
 16 17  2  0  0  0
 16 21  1  0  0  0
 16 31  1  0  0  0
 17 18  1  0  0  0
 17100  1  0  0  0
 18 19  2  0  0  0
 18101  1  0  0  0
 19 20  1  0  0  0
 19 24  1  0  0  0
 20 21  2  0  0  0
 20102  1  0  0  0
 21 23  1  0  0  0
 22 28  1  0  0  0
 22 32  2  0  0  0
 26 27  1  0  0  0
 28103  1  0  0  0
 28104  1  0  0  0
 29105  1  0  0  0
 29106  1  0  0  0
 33 34  1  0  0  0
 33 66  1  0  0  0
 33 70  2  0  0  0
 34 36  1  0  0  0
 34 59  1  0  0  0
 34107  1  0  0  0
 35 44  2  0  0  0
 35 45  1  0  0  0
 35 68  1  0  0  0
 36 56  1  0  0  0
 36108  1  0  0  0
 37 39  1  0  0  0
 37 47  1  0  0  0
 37 66  1  0  0  0
 37109  1  0  0  0
 38 43  2  0  0  0
 38 46  1  0  0  0
 38 47  1  0  0  0
 39 64  1  0  0  0
 39 67  2  0  0  0
 40 52  1  0  0  0
 40 53  2  0  0  0
 40 58  1  0  0  0
 41110  1  0  0  0
 41111  1  0  0  0
 41112  1  0  0  0
 41 48  1  0  0  0
 42 43  1  0  0  0
 42 66  1  0  0  0
 42113  1  0  0  0
 42114  1  0  0  0
 43 44  1  0  0  0
 44115  1  0  0  0
 45 46  2  0  0  0
 45116  1  0  0  0
 46117  1  0  0  0
 47118  1  0  0  0
 47119  1  0  0  0
 48 56  1  0  0  0
 48 65  1  0  0  0
 48120  1  0  0  0
 49 50  1  0  0  0
 49 53  1  0  0  0
 49 64  1  0  0  0
 49121  1  0  0  0
 50 51  1  0  0  0
 50122  1  0  0  0
 50123  1  0  0  0
 51 52  1  0  0  0
 51124  1  0  0  0
 51125  1  0  0  0
 52126  1  0  0  0
 52127  1  0  0  0
 53 54  1  0  0  0
 54 55  2  0  0  0
 54128  1  0  0  0
 55 57  1  0  0  0
 55129  1  0  0  0
 56 69  2  0  0  0
 57 58  2  0  0  0
 57130  1  0  0  0
 58131  1  0  0  0
 59 60  1  0  0  0
 59 61  1  0  0  0
 59 62  1  0  0  0
 60132  1  0  0  0
 60133  1  0  0  0
 60134  1  0  0  0
 61135  1  0  0  0
 61136  1  0  0  0
 61137  1  0  0  0
 62138  1  0  0  0
 62139  1  0  0  0
 62140  1  0  0  0
 63 65  1  0  0  0
 63141  1  0  0  0
 63142  1  0  0  0
 63143  1  0  0  0
 64144  1  0  0  0
 65145  1  0  0  0
 68 83  1  0  0  0
 71 77  1  0  0  0
 71 79  1  0  0  0
 71146  1  0  0  0
 71147  1  0  0  0
 72 74  1  0  0  0
 72 84  1  0  0  0
 72148  1  0  0  0
 72149  1  0  0  0
 73 75  1  0  0  0
 73 84  1  0  0  0
 73150  1  0  0  0
 73151  1  0  0  0
 74152  1  0  0  0
 74153  1  0  0  0
 74 85  1  0  0  0
 75 85  1  0  0  0
 75154  1  0  0  0
 75155  1  0  0  0
 76 79  1  0  0  0
 76 86  1  0  0  0
 76156  1  0  0  0
 76157  1  0  0  0
 77 78  1  0  0  0
 77 85  1  0  0  0
 77158  1  0  0  0
 78 80  1  0  0  0
 78 86  1  0  0  0
 78159  1  0  0  0
 79 81  1  0  0  0
 79 83  1  0  0  0
 80160  1  0  0  0
 80161  1  0  0  0
 80162  1  0  0  0
 81163  1  0  0  0
 81164  1  0  0  0
 81165  1  0  0  0
 82166  1  0  0  0
 82167  1  0  0  0
 82168  1  0  0  0
 82 86  1  0  0  0
 83169  1  0  0  0
 83170  1  0  0  0
 86171  1  0  0  0
M  CHG  1  86   1
M  ISO  4   1 100  68 101  83 101  84 100
M  END
> <chiral flag>
0

> <version>
0

> <s_m_source_file>
/data/baiqing/PycharmProjects/Reinvent-master-3.2/result/LINK_invent/BTK/process_docking_weight1_custom_sum_contain_oxygen_bond_distance_aromatic_linkinvent_7_9_3/rearranged_h_0168.sdf

> <i_m_source_file_index>
24

> <r_mmod_Potential_Energy-OPLS-2005>
575.781066894531

> <r_mmod_Stretch_Energy-OPLS-2005>
195.737640380859

> <r_mmod_Bend_Energy-OPLS-2005>
288.172149658203

> <r_mmod_Torsional_Energy-OPLS-2005>
447.225494384766

> <r_mmod_Improper_Torsional_Energy-OPLS-2005>
2.54536938667297

> <r_mmod_Van_der_Waal_Energy-OPLS-2005>
142.947341918945

> <r_mmod_Electrostatic_Energy-OPLS-2005>
-202.999252319336

> <r_mmod_Solvation_Energy-OPLS-2005>
-432.244384765625

> <b_mmod_Minimization_Converged-OPLS-2005>
0

> <r_mmod_RMS_Derivative-OPLS-2005>
4.18681669235229

$$$$
24
                    3D
 Structure written by MMmdl.
157167  0  0  1  0            999 V2000
  -30.5439  -14.9786   20.4156 C   0  0  0  0  0  0
  -30.4357  -12.6082   19.4994 C   0  0  0  0  0  0
  -29.5184  -12.5278   18.2571 C   0  0  0  0  0  0
  -28.0542  -12.3092   18.6801 C   0  0  0  0  0  0
  -27.6261  -13.2537   19.8337 C   0  0  2  0  0  0
  -28.6685  -13.3093   20.9697 C   0  0  0  0  0  0
  -25.2464  -13.8236   20.5745 C   0  0  0  0  0  0
  -24.1767  -13.0454   20.9217 C   0  0  0  0  0  0
  -24.6391  -11.6939   20.8748 C   0  0  0  0  0  0
  -23.9077  -10.4303   21.0410 C   0  0  0  0  0  0
  -24.3626   -9.4216   21.9183 C   0  0  0  0  0  0
  -23.6301   -8.2250   22.0753 C   0  0  0  0  0  0
  -22.4284   -8.0291   21.3547 C   0  0  0  0  0  0
  -21.9921   -9.0261   20.4645 C   0  0  0  0  0  0
  -22.7246  -10.2138   20.3057 C   0  0  0  0  0  0
  -21.6853   -6.0747   22.5282 C   0  0  0  0  0  0
  -21.4010   -6.5645   23.8213 C   0  0  0  0  0  0
  -21.3658   -5.6792   24.9175 C   0  0  0  0  0  0
  -21.6043   -4.3058   24.7224 C   0  0  0  0  0  0
  -21.8816   -3.8153   23.4341 C   0  0  0  0  0  0
  -21.9190   -4.6971   22.3404 C   0  0  0  0  0  0
  -22.7786  -13.5218   21.1887 C   0  0  0  0  0  0
  -22.1658   -4.2159   21.0981 F   0  0  0  0  0  0
  -21.5630   -3.4540   25.7736 F   0  0  0  0  0  0
  -29.9382  -13.7209   20.3613 N   0  0  0  0  0  0
  -26.2877  -12.9473   20.3253 N   0  0  0  0  0  0
  -25.9329  -11.6593   20.5731 N   0  0  0  0  0  0
  -22.0440  -12.8200   22.0444 N   0  0  0  0  0  0
  -25.4169  -15.1970   20.4238 N   0  0  0  0  0  0
  -31.7520  -15.0170   20.1530 O   0  0  0  0  0  0
  -21.6645   -6.8891   21.4242 O   0  0  0  0  0  0
  -22.3466  -14.5518   20.6731 O   0  0  0  0  0  0
  -24.6488  -31.8417   23.1864 C   0  0  0  0  0  0
  -25.9245  -32.4686   23.8261 C   0  0  1  0  0  0
  -27.2071  -27.0893   20.1540 C   0  0  0  0  0  0
  -25.5980  -33.8492   24.2174 N   0  0  0  0  0  0
  -23.4532  -30.4634   21.5331 C   0  0  2  0  0  0
  -24.9013  -28.8879   20.1103 C   0  0  0  0  0  0
  -22.7598  -29.4539   22.4832 C   0  0  0  0  0  0
  -18.0312  -28.1416   22.8469 C   0  0  0  0  0  0
  -24.1483  -36.7229   23.2644 C   0  0  0  0  0  0
  -26.0152  -30.7002   21.3935 C   0  0  0  0  0  0
  -26.0835  -29.3089   20.7323 C   0  0  0  0  0  0
  -27.2370  -28.4277   20.7363 C   0  0  0  0  0  0
  -25.9958  -26.7921   19.4845 C   0  0  0  0  0  0
  -24.8734  -27.6441   19.4698 C   0  0  0  0  0  0
  -23.6825  -29.7975   20.1521 C   0  0  0  0  0  0
  -25.4120  -36.3013   24.0314 C   0  0  1  0  0  0
  -20.5929  -28.3741   23.1222 C   0  0  2  0  0  0
  -20.6798  -26.9439   22.5399 C   0  0  0  0  0  0
  -19.5770  -26.6383   21.5215 C   0  0  0  0  0  0
  -18.1945  -26.7948   22.1618 C   0  0  0  0  0  0
  -19.1572  -28.8894   23.2836 C   0  0  0  0  0  0
  -18.9487  -30.1490   23.8860 C   0  0  0  0  0  0
  -17.6486  -30.6608   24.0566 C   0  0  0  0  0  0
  -25.9079  -34.9402   23.5043 C   0  0  0  0  0  0
  -16.5373  -29.9097   23.6359 C   0  0  0  0  0  0
  -16.7292  -28.6524   23.0360 C   0  0  0  0  0  0
  -26.4544  -31.6580   25.0727 C   0  0  0  0  0  0
  -25.3710  -31.3804   26.1414 C   0  0  0  0  0  0
  -27.0405  -30.2962   24.6357 C   0  0  0  0  0  0
  -27.6081  -32.4348   25.7494 C   0  0  0  0  0  0
  -27.5564  -37.1771   24.8470 C   0  0  0  0  0  0
  -21.4282  -29.3065   22.3591 N   0  0  0  0  0  0
  -26.4269  -37.3740   23.9419 N   0  0  0  0  0  0
  -24.7259  -31.0233   22.0920 N   0  0  0  0  0  0
  -23.4224  -28.8078   23.2989 O   0  0  0  0  0  0
  -28.2209  -26.0461   20.2364 O   0  0  0  0  0  0
  -26.5659  -34.8908   22.4616 O   0  0  0  0  0  0
  -23.5599  -32.1300   23.7071 O   0  0  0  0  0  0
  -29.3432  -20.8604   19.1639 C   0  0  0  0  0  0
  -29.0002  -22.2710   19.0833 C   0  0  0  0  0  0
  -29.3414  -20.0919   20.3771 C   0  0  0  0  0  0
  -28.9765  -20.9752   21.4668 C   0  0  0  0  0  0
  -28.6122  -23.0760   20.2051 C   0  0  0  0  0  0
  -29.6924  -21.1527   23.9889 C   0  0  0  0  0  0
  -30.1525  -19.8054   23.5061 C   0  0  0  0  0  0
  -29.4719  -17.2566   21.4246 C   0  0  0  0  0  0
  -29.8077  -17.3282   19.3777 C   0  0  0  0  0  0
  -29.8191  -18.4807   20.4643 C   0  0  0  0  0  0
  -28.9367  -20.4542   22.8751 C   0  0  0  0  0  0
  -27.8023  -24.5381   20.0515 C   0  0  0  0  0  0
  -28.6112  -22.3334   21.3728 N   0  0  0  0  0  0
  -29.7696  -16.1875   20.3834 N   0  0  0  0  0  0
  -31.4687  -12.7621   19.1849 H   0  0  0  0  0  0
  -30.4302  -11.6641   20.0470 H   0  0  0  0  0  0
  -29.8426  -11.7216   17.5971 H   0  0  0  0  0  0
  -29.5998  -13.4501   17.6798 H   0  0  0  0  0  0
  -27.9599  -11.2711   19.0015 H   0  0  0  0  0  0
  -27.3885  -12.4228   17.8235 H   0  0  0  0  0  0
  -27.5808  -14.2498   19.3910 H   0  0  0  0  0  0
  -28.7630  -12.3458   21.4711 H   0  0  0  0  0  0
  -28.3646  -14.0318   21.7289 H   0  0  0  0  0  0
  -25.2771   -9.5696   22.4757 H   0  0  0  0  0  0
  -24.0008   -7.4648   22.7483 H   0  0  0  0  0  0
  -21.0848   -8.8778   19.8963 H   0  0  0  0  0  0
  -22.3701  -10.9677   19.6169 H   0  0  0  0  0  0
  -21.1993   -7.6150   23.9721 H   0  0  0  0  0  0
  -21.1480   -6.0522   25.9075 H   0  0  0  0  0  0
  -22.0591   -2.7617   23.2838 H   0  0  0  0  0  0
  -22.4064  -11.9851   22.4805 H   0  0  0  0  0  0
  -21.1063  -13.1224   22.2674 H   0  0  0  0  0  0
  -24.6580  -15.8568   20.5574 H   0  0  0  0  0  0
  -26.2851  -15.6389   20.1479 H   0  0  0  0  0  0
  -26.7302  -32.5267   23.0976 H   0  0  0  0  0  0
  -25.0156  -33.9606   25.0341 H   0  0  0  0  0  0
  -22.7588  -31.2922   21.3796 H   0  0  0  0  0  0
  -23.3768  -35.9536   23.3279 H   0  0  0  0  0  0
  -24.3563  -36.8886   22.2062 H   0  0  0  0  0  0
  -23.7210  -37.6402   23.6701 H   0  0  0  0  0  0
  -26.1803  -31.4531   20.6214 H   0  0  0  0  0  0
  -26.8827  -30.7473   22.0400 H   0  0  0  0  0  0
  -28.1321  -28.7439   21.2522 H   0  0  0  0  0  0
  -25.8573  -25.8488   18.9821 H   0  0  0  0  0  0
  -23.9716  -27.3174   18.9699 H   0  0  0  0  0  0
  -23.8275  -30.5747   19.4010 H   0  0  0  0  0  0
  -22.7953  -29.2467   19.8346 H   0  0  0  0  0  0
  -25.1309  -36.1819   25.0806 H   0  0  0  0  0  0
  -21.0024  -28.3328   24.1343 H   0  0  0  0  0  0
  -20.5703  -26.2353   23.3622 H   0  0  0  0  0  0
  -21.6660  -26.7447   22.1184 H   0  0  0  0  0  0
  -19.6931  -25.6280   21.1271 H   0  0  0  0  0  0
  -19.6714  -27.3180   20.6733 H   0  0  0  0  0  0
  -17.4217  -26.6702   21.4015 H   0  0  0  0  0  0
  -18.0341  -26.0103   22.9026 H   0  0  0  0  0  0
  -19.7964  -30.7327   24.2202 H   0  0  0  0  0  0
  -17.5038  -31.6290   24.5171 H   0  0  0  0  0  0
  -15.5377  -30.2993   23.7715 H   0  0  0  0  0  0
  -15.8686  -28.0844   22.7089 H   0  0  0  0  0  0
  -24.5862  -30.7196   25.7715 H   0  0  0  0  0  0
  -24.8943  -32.3011   26.4797 H   0  0  0  0  0  0
  -25.7960  -30.8973   27.0221 H   0  0  0  0  0  0
  -26.3037  -29.6678   24.1342 H   0  0  0  0  0  0
  -27.3965  -29.7280   25.4960 H   0  0  0  0  0  0
  -27.8968  -30.4178   23.9722 H   0  0  0  0  0  0
  -27.2704  -33.3712   26.1949 H   0  0  0  0  0  0
  -28.3949  -32.6802   25.0347 H   0  0  0  0  0  0
  -28.0680  -31.8544   26.5501 H   0  0  0  0  0  0
  -28.2580  -38.0070   24.7514 H   0  0  0  0  0  0
  -28.1056  -36.2597   24.6292 H   0  0  0  0  0  0
  -27.2281  -37.1412   25.8875 H   0  0  0  0  0  0
  -20.9506  -29.8784   21.6765 H   0  0  0  0  0  0
  -26.0120  -38.2793   24.1457 H   0  0  0  0  0  0
  -29.6077  -20.3562   18.2453 H   0  0  0  0  0  0
  -28.9772  -22.7269   18.1031 H   0  0  0  0  0  0
  -30.3086  -22.0110   23.7281 H   0  0  0  0  0  0
  -29.2280  -21.1912   24.9718 H   0  0  0  0  0  0
  -29.9906  -18.9635   24.1760 H   0  0  0  0  0  0
  -31.0718  -19.7721   22.9252 H   0  0  0  0  0  0
  -28.4250  -17.2524   21.7314 H   0  0  0  0  0  0
  -30.1103  -17.2092   22.3081 H   0  0  0  0  0  0
  -30.6888  -17.3384   18.7340 H   0  0  0  0  0  0
  -28.9086  -17.3583   18.7611 H   0  0  0  0  0  0
  -30.8824  -18.6413   20.6492 H   0  0  0  0  0  0
  -27.9606  -20.0329   23.1081 H   0  0  0  0  0  0
  -26.9007  -24.4080   20.6527 H   0  0  0  0  0  0
  -27.4656  -24.4844   19.0174 H   0  0  0  0  0  0
  1 25  1  0  0  0
  1 30  2  0  0  0
  1 84  1  0  0  0
  2  3  1  0  0  0
  2 25  1  0  0  0
  2 85  1  0  0  0
  2 86  1  0  0  0
  3  4  1  0  0  0
  3 87  1  0  0  0
  3 88  1  0  0  0
  4  5  1  0  0  0
  4 89  1  0  0  0
  4 90  1  0  0  0
  5  6  1  0  0  0
  5 26  1  0  0  0
  5 91  1  0  0  0
  6 25  1  0  0  0
  6 92  1  0  0  0
  6 93  1  0  0  0
  7  8  2  0  0  0
  7 26  1  0  0  0
  7 29  1  0  0  0
  8  9  1  0  0  0
  8 22  1  0  0  0
  9 10  1  0  0  0
  9 27  2  0  0  0
 10 11  2  0  0  0
 10 15  1  0  0  0
 11 12  1  0  0  0
 11 94  1  0  0  0
 12 13  2  0  0  0
 12 95  1  0  0  0
 13 14  1  0  0  0
 13 31  1  0  0  0
 14 15  2  0  0  0
 14 96  1  0  0  0
 15 97  1  0  0  0
 16 17  2  0  0  0
 16 21  1  0  0  0
 16 31  1  0  0  0
 17 18  1  0  0  0
 17 98  1  0  0  0
 18 19  2  0  0  0
 18 99  1  0  0  0
 19 20  1  0  0  0
 19 24  1  0  0  0
 20 21  2  0  0  0
 20100  1  0  0  0
 21 23  1  0  0  0
 22 28  1  0  0  0
 22 32  2  0  0  0
 26 27  1  0  0  0
 28101  1  0  0  0
 28102  1  0  0  0
 29103  1  0  0  0
 29104  1  0  0  0
 33 34  1  0  0  0
 33 66  1  0  0  0
 33 70  2  0  0  0
 34 36  1  0  0  0
 34 59  1  0  0  0
 34105  1  0  0  0
 35 44  2  0  0  0
 35 45  1  0  0  0
 35 68  1  0  0  0
 36 56  1  0  0  0
 36106  1  0  0  0
 37 39  1  0  0  0
 37 47  1  0  0  0
 37 66  1  0  0  0
 37107  1  0  0  0
 38 43  2  0  0  0
 38 46  1  0  0  0
 38 47  1  0  0  0
 39 64  1  0  0  0
 39 67  2  0  0  0
 40 52  1  0  0  0
 40 53  2  0  0  0
 40 58  1  0  0  0
 41108  1  0  0  0
 41109  1  0  0  0
 41110  1  0  0  0
 41 48  1  0  0  0
 42 43  1  0  0  0
 42 66  1  0  0  0
 42111  1  0  0  0
 42112  1  0  0  0
 43 44  1  0  0  0
 44113  1  0  0  0
 45 46  2  0  0  0
 45114  1  0  0  0
 46115  1  0  0  0
 47116  1  0  0  0
 47117  1  0  0  0
 48 56  1  0  0  0
 48 65  1  0  0  0
 48118  1  0  0  0
 49 50  1  0  0  0
 49 53  1  0  0  0
 49 64  1  0  0  0
 49119  1  0  0  0
 50 51  1  0  0  0
 50120  1  0  0  0
 50121  1  0  0  0
 51 52  1  0  0  0
 51122  1  0  0  0
 51123  1  0  0  0
 52124  1  0  0  0
 52125  1  0  0  0
 53 54  1  0  0  0
 54 55  2  0  0  0
 54126  1  0  0  0
 55 57  1  0  0  0
 55127  1  0  0  0
 56 69  2  0  0  0
 57 58  2  0  0  0
 57128  1  0  0  0
 58129  1  0  0  0
 59 60  1  0  0  0
 59 61  1  0  0  0
 59 62  1  0  0  0
 60130  1  0  0  0
 60131  1  0  0  0
 60132  1  0  0  0
 61133  1  0  0  0
 61134  1  0  0  0
 61135  1  0  0  0
 62136  1  0  0  0
 62137  1  0  0  0
 62138  1  0  0  0
 63 65  1  0  0  0
 63139  1  0  0  0
 63140  1  0  0  0
 63141  1  0  0  0
 64142  1  0  0  0
 65143  1  0  0  0
 68 82  1  0  0  0
 71 72  2  0  0  0
 71 73  1  0  0  0
 71144  1  0  0  0
 72 75  1  0  0  0
 72145  1  0  0  0
 73 74  2  0  0  0
 73 80  1  0  0  0
 74 83  1  0  0  0
 74 81  1  0  0  0
 75 82  1  0  0  0
 75 83  2  0  0  0
 76 77  1  0  0  0
 76 81  1  0  0  0
 76146  1  0  0  0
 76147  1  0  0  0
 77 81  1  0  0  0
 77148  1  0  0  0
 77149  1  0  0  0
 78 80  1  0  0  0
 78 84  1  0  0  0
 78150  1  0  0  0
 78151  1  0  0  0
 79 80  1  0  0  0
 79 84  1  0  0  0
 79152  1  0  0  0
 79153  1  0  0  0
 80154  1  0  0  0
 81155  1  0  0  0
 82156  1  0  0  0
 82157  1  0  0  0
M  ISO  4   1 100  68 101  82 101  84 100
M  END
> <chiral flag>
0

> <version>
0

> <s_m_source_file>
/data/baiqing/PycharmProjects/Reinvent-master-3.2/result/LINK_invent/BTK/process_docking_weight1_custom_sum_contain_oxygen_bond_distance_aromatic_linkinvent_7_9_3/rearranged_h_0168.sdf

> <i_m_source_file_index>
25

> <r_mmod_Potential_Energy-OPLS-2005>
581.403137207031

> <r_mmod_Stretch_Energy-OPLS-2005>
258.101837158203

> <r_mmod_Bend_Energy-OPLS-2005>
305.517303466797

> <r_mmod_Torsional_Energy-OPLS-2005>
314.541198730469

> <r_mmod_Improper_Torsional_Energy-OPLS-2005>
18.6936073303223

> <r_mmod_Van_der_Waal_Energy-OPLS-2005>
127.370933532715

> <r_mmod_Electrostatic_Energy-OPLS-2005>
-458.493621826172

> <r_mmod_Solvation_Energy-OPLS-2005>
-214.214828491211

> <b_mmod_Minimization_Converged-OPLS-2005>
0

> <r_mmod_RMS_Derivative-OPLS-2005>
1.52103006839752

$$$$
25
                    3D
 Structure written by MMmdl.
166175  0  0  1  0            999 V2000
  -30.7302  -14.4716   20.5467 C   0  0  0  0  0  0
  -30.4095  -12.3024   19.4293 C   0  0  0  0  0  0
  -29.4898  -12.4997   18.2080 C   0  0  0  0  0  0
  -28.0117  -12.3669   18.6216 C   0  0  0  0  0  0
  -27.6577  -13.2173   19.8718 C   0  0  2  0  0  0
  -28.7017  -13.0321   20.9972 C   0  0  0  0  0  0
  -25.2567  -13.8191   20.5697 C   0  0  0  0  0  0
  -24.1830  -13.0451   20.9189 C   0  0  0  0  0  0
  -24.6402  -11.6923   20.8740 C   0  0  0  0  0  0
  -23.9072  -10.4301   21.0406 C   0  0  0  0  0  0
  -24.3619   -9.4215   21.9183 C   0  0  0  0  0  0
  -23.6296   -8.2248   22.0754 C   0  0  0  0  0  0
  -22.4278   -8.0283   21.3545 C   0  0  0  0  0  0
  -21.9914   -9.0258   20.4645 C   0  0  0  0  0  0
  -22.7245  -10.2137   20.3054 C   0  0  0  0  0  0
  -21.6853   -6.0737   22.5280 C   0  0  0  0  0  0
  -21.4013   -6.5641   23.8212 C   0  0  0  0  0  0
  -21.3659   -5.6792   24.9174 C   0  0  0  0  0  0
  -21.6043   -4.3057   24.7225 C   0  0  0  0  0  0
  -21.8819   -3.8148   23.4347 C   0  0  0  0  0  0
  -21.9195   -4.6965   22.3404 C   0  0  0  0  0  0
  -22.7848  -13.5234   21.1849 C   0  0  0  0  0  0
  -22.1661   -4.2152   21.0982 F   0  0  0  0  0  0
  -21.5631   -3.4541   25.7737 F   0  0  0  0  0  0
  -30.0309  -13.3103   20.4334 N   0  0  0  0  0  0
  -26.3014  -12.9382   20.3376 N   0  0  0  0  0  0
  -25.9335  -11.6531   20.5783 N   0  0  0  0  0  0
  -22.0490  -12.8217   22.0401 N   0  0  0  0  0  0
  -25.4269  -15.1908   20.4100 N   0  0  0  0  0  0
  -31.8719  -14.6019   20.0993 O   0  0  0  0  0  0
  -21.6641   -6.8880   21.4241 O   0  0  0  0  0  0
  -22.3528  -14.5545   20.6711 O   0  0  0  0  0  0
  -24.6146  -31.8670   23.2091 C   0  0  0  0  0  0
  -25.9042  -32.4811   23.8395 C   0  0  1  0  0  0
  -27.2376  -27.4352   20.1086 C   0  0  0  0  0  0
  -25.5910  -33.8614   24.2333 N   0  0  0  0  0  0
  -23.4028  -30.4896   21.5475 C   0  0  2  0  0  0
  -24.8519  -28.9502   20.1176 C   0  0  0  0  0  0
  -22.7398  -29.4666   22.4982 C   0  0  0  0  0  0
  -18.0273  -28.1380   22.8498 C   0  0  0  0  0  0
  -24.1487  -36.7311   23.2642 C   0  0  0  0  0  0
  -25.9296  -30.8363   21.3587 C   0  0  0  0  0  0
  -26.0099  -29.4676   20.7124 C   0  0  0  0  0  0
  -27.2091  -28.7189   20.7010 C   0  0  0  0  0  0
  -26.0653  -26.9272   19.5129 C   0  0  0  0  0  0
  -24.8738  -27.6791   19.5153 C   0  0  0  0  0  0
  -23.6115  -29.8154   20.1645 C   0  0  0  0  0  0
  -25.4103  -36.3103   24.0343 C   0  0  1  0  0  0
  -20.5857  -28.3673   23.1310 C   0  0  2  0  0  0
  -20.6760  -26.9408   22.5419 C   0  0  0  0  0  0
  -19.5738  -26.6390   21.5210 C   0  0  0  0  0  0
  -18.1911  -26.7936   22.1612 C   0  0  0  0  0  0
  -19.1519  -28.8844   23.2907 C   0  0  0  0  0  0
  -18.9449  -30.1452   23.8915 C   0  0  0  0  0  0
  -17.6454  -30.6587   24.0567 C   0  0  0  0  0  0
  -25.9033  -34.9468   23.5129 C   0  0  0  0  0  0
  -16.5346  -29.9090   23.6335 C   0  0  0  0  0  0
  -16.7262  -28.6505   23.0358 C   0  0  0  0  0  0
  -26.4478  -31.6588   25.0725 C   0  0  0  0  0  0
  -25.3757  -31.3660   26.1476 C   0  0  0  0  0  0
  -27.0323  -30.3033   24.6106 C   0  0  0  0  0  0
  -27.6055  -32.4312   25.7487 C   0  0  0  0  0  0
  -27.5573  -37.1810   24.8471 C   0  0  0  0  0  0
  -21.4127  -29.3044   22.3716 N   0  0  0  0  0  0
  -26.4283  -37.3790   23.9421 N   0  0  0  0  0  0
  -24.6671  -31.0784   22.0976 N   0  0  0  0  0  0
  -23.4170  -28.8216   23.3033 O   0  0  0  0  0  0
  -28.3983  -26.6946   20.0839 O   0  0  0  0  0  0
  -26.5581  -34.8918   22.4683 O   0  0  0  0  0  0
  -23.5341  -32.1419   23.7491 O   0  0  0  0  0  0
  -28.4291  -19.1961   23.1672 C   0  0  0  0  0  0
  -29.9156  -19.3279   20.8079 C   0  0  0  0  0  0
  -28.5391  -20.4211   22.4784 C   0  0  0  0  0  0
  -29.3011  -20.5123   21.2934 C   0  0  0  0  0  0
  -29.0827  -18.0346   22.7035 C   0  0  0  0  0  0
  -29.8274  -18.0877   21.4966 C   0  0  0  0  0  0
  -27.8470  -21.6517   23.0212 C   0  0  0  0  0  0
  -27.5328  -22.6447   21.9002 C   0  0  0  0  0  0
  -29.4808  -21.8662   20.5520 C   0  0  2  0  0  0
  -28.9922  -16.7773   23.5523 C   0  0  0  0  0  0
  -30.9856  -22.1846   20.4135 C   0  0  0  0  0  0
  -30.6455  -16.9010   20.9564 C   0  0  0  0  0  0
  -28.5426  -24.2045   20.2568 C   0  0  0  0  0  0
  -28.4400  -25.5743   20.9865 C   0  0  0  0  0  0
  -30.0665  -15.5469   21.0127 N   0  0  0  0  0  0
  -28.7705  -23.0377   21.1801 N   0  3  1  0  0  0
  -31.4567  -12.3742   19.1293 H   0  0  0  0  0  0
  -30.2894  -11.2994   19.8411 H   0  0  0  0  0  0
  -29.7270  -11.7701   17.4329 H   0  0  0  0  0  0
  -29.6630  -13.4826   17.7667 H   0  0  0  0  0  0
  -27.8210  -11.3122   18.8239 H   0  0  0  0  0  0
  -27.3619  -12.6369   17.7880 H   0  0  0  0  0  0
  -27.6918  -14.2610   19.5582 H   0  0  0  0  0  0
  -28.6728  -12.0118   21.3818 H   0  0  0  0  0  0
  -28.4744  -13.6762   21.8475 H   0  0  0  0  0  0
  -25.2764   -9.5690   22.4760 H   0  0  0  0  0  0
  -24.0007   -7.4638   22.7475 H   0  0  0  0  0  0
  -21.0847   -8.8775   19.8948 H   0  0  0  0  0  0
  -22.3706  -10.9674   19.6161 H   0  0  0  0  0  0
  -21.1998   -7.6146   23.9718 H   0  0  0  0  0  0
  -21.1482   -6.0521   25.9076 H   0  0  0  0  0  0
  -22.0597   -2.7611   23.2849 H   0  0  0  0  0  0
  -22.4103  -11.9868   22.4775 H   0  0  0  0  0  0
  -21.1104  -13.1237   22.2608 H   0  0  0  0  0  0
  -24.6593  -15.8455   20.5144 H   0  0  0  0  0  0
  -26.2818  -15.6324   20.0957 H   0  0  0  0  0  0
  -26.7124  -32.5528   23.1172 H   0  0  0  0  0  0
  -25.0114  -33.9788   25.0514 H   0  0  0  0  0  0
  -22.6925  -31.3064   21.4045 H   0  0  0  0  0  0
  -23.3741  -35.9651   23.3317 H   0  0  0  0  0  0
  -24.3576  -36.8915   22.2052 H   0  0  0  0  0  0
  -23.7252  -37.6526   23.6649 H   0  0  0  0  0  0
  -26.0369  -31.6004   20.5873 H   0  0  0  0  0  0
  -26.8183  -30.8941   21.9753 H   0  0  0  0  0  0
  -28.1071  -29.1181   21.1516 H   0  0  0  0  0  0
  -26.0739  -25.9539   19.0436 H   0  0  0  0  0  0
  -23.9826  -27.2733   19.0565 H   0  0  0  0  0  0
  -23.7148  -30.5860   19.3998 H   0  0  0  0  0  0
  -22.7367  -29.2306   19.8738 H   0  0  0  0  0  0
  -25.1276  -36.1956   25.0838 H   0  0  0  0  0  0
  -20.9960  -28.3248   24.1423 H   0  0  0  0  0  0
  -20.5653  -26.2290   23.3612 H   0  0  0  0  0  0
  -21.6630  -26.7444   22.1212 H   0  0  0  0  0  0
  -19.6900  -25.6303   21.1234 H   0  0  0  0  0  0
  -19.6675  -27.3207   20.6746 H   0  0  0  0  0  0
  -17.4188  -26.6717   21.4005 H   0  0  0  0  0  0
  -18.0293  -26.0062   22.8990 H   0  0  0  0  0  0
  -19.7928  -30.7271   24.2283 H   0  0  0  0  0  0
  -17.5005  -31.6264   24.5171 H   0  0  0  0  0  0
  -15.5347  -30.2992   23.7652 H   0  0  0  0  0  0
  -15.8664  -28.0827   22.7068 H   0  0  0  0  0  0
  -24.6008  -30.6902   25.7836 H   0  0  0  0  0  0
  -24.8850  -32.2783   26.4876 H   0  0  0  0  0  0
  -25.8146  -30.8912   27.0261 H   0  0  0  0  0  0
  -26.2867  -29.6765   24.1198 H   0  0  0  0  0  0
  -27.4134  -29.7291   25.4564 H   0  0  0  0  0  0
  -27.8679  -30.4355   23.9229 H   0  0  0  0  0  0
  -27.2691  -33.3629   26.2041 H   0  0  0  0  0  0
  -28.3874  -32.6836   25.0315 H   0  0  0  0  0  0
  -28.0710  -31.8449   26.5418 H   0  0  0  0  0  0
  -28.2588  -38.0105   24.7502 H   0  0  0  0  0  0
  -28.1066  -36.2634   24.6309 H   0  0  0  0  0  0
  -27.2291  -37.1482   25.8874 H   0  0  0  0  0  0
  -20.9282  -29.8763   21.6937 H   0  0  0  0  0  0
  -26.0166  -38.2866   24.1424 H   0  0  0  0  0  0
  -27.8531  -19.1568   24.0820 H   0  0  0  0  0  0
  -30.5016  -19.3769   19.9002 H   0  0  0  0  0  0
  -28.4866  -22.1143   23.7753 H   0  0  0  0  0  0
  -26.9251  -21.3643   23.5281 H   0  0  0  0  0  0
  -27.0397  -23.5124   22.3369 H   0  0  0  0  0  0
  -26.8257  -22.2063   21.1941 H   0  0  0  0  0  0
  -29.0556  -21.7203   19.5576 H   0  0  0  0  0  0
  -28.6359  -17.0046   24.5574 H   0  0  0  0  0  0
  -29.9677  -16.3013   23.6592 H   0  0  0  0  0  0
  -28.2971  -16.0636   23.1105 H   0  0  0  0  0  0
  -31.4509  -22.3021   21.3921 H   0  0  0  0  0  0
  -31.1738  -23.0957   19.8484 H   0  0  0  0  0  0
  -31.5233  -21.3914   19.8966 H   0  0  0  0  0  0
  -31.5944  -16.8946   21.4955 H   0  0  0  0  0  0
  -30.8990  -17.1065   19.9144 H   0  0  0  0  0  0
  -29.3600  -24.2800   19.5418 H   0  0  0  0  0  0
  -27.6486  -24.0303   19.6588 H   0  0  0  0  0  0
  -29.3213  -25.7123   21.6136 H   0  0  0  0  0  0
  -27.5876  -25.5905   21.6674 H   0  0  0  0  0  0
  -29.1131  -15.4392   21.3183 H   0  0  0  0  0  0
  -29.4065  -23.3537   21.8970 H   0  0  0  0  0  0
  1 25  1  0  0  0
  1 30  2  0  0  0
  1 85  1  0  0  0
  2  3  1  0  0  0
  2 25  1  0  0  0
  2 87  1  0  0  0
  2 88  1  0  0  0
  3  4  1  0  0  0
  3 89  1  0  0  0
  3 90  1  0  0  0
  4  5  1  0  0  0
  4 91  1  0  0  0
  4 92  1  0  0  0
  5  6  1  0  0  0
  5 26  1  0  0  0
  5 93  1  0  0  0
  6 25  1  0  0  0
  6 94  1  0  0  0
  6 95  1  0  0  0
  7  8  2  0  0  0
  7 26  1  0  0  0
  7 29  1  0  0  0
  8  9  1  0  0  0
  8 22  1  0  0  0
  9 10  1  0  0  0
  9 27  2  0  0  0
 10 11  2  0  0  0
 10 15  1  0  0  0
 11 12  1  0  0  0
 11 96  1  0  0  0
 12 13  2  0  0  0
 12 97  1  0  0  0
 13 14  1  0  0  0
 13 31  1  0  0  0
 14 15  2  0  0  0
 14 98  1  0  0  0
 15 99  1  0  0  0
 16 17  2  0  0  0
 16 21  1  0  0  0
 16 31  1  0  0  0
 17 18  1  0  0  0
 17100  1  0  0  0
 18 19  2  0  0  0
 18101  1  0  0  0
 19 20  1  0  0  0
 19 24  1  0  0  0
 20 21  2  0  0  0
 20102  1  0  0  0
 21 23  1  0  0  0
 22 28  1  0  0  0
 22 32  2  0  0  0
 26 27  1  0  0  0
 28103  1  0  0  0
 28104  1  0  0  0
 29105  1  0  0  0
 29106  1  0  0  0
 33 34  1  0  0  0
 33 66  1  0  0  0
 33 70  2  0  0  0
 34 36  1  0  0  0
 34 59  1  0  0  0
 34107  1  0  0  0
 35 44  2  0  0  0
 35 45  1  0  0  0
 35 68  1  0  0  0
 36 56  1  0  0  0
 36108  1  0  0  0
 37 39  1  0  0  0
 37 47  1  0  0  0
 37 66  1  0  0  0
 37109  1  0  0  0
 38 43  2  0  0  0
 38 46  1  0  0  0
 38 47  1  0  0  0
 39 64  1  0  0  0
 39 67  2  0  0  0
 40 52  1  0  0  0
 40 53  2  0  0  0
 40 58  1  0  0  0
 41110  1  0  0  0
 41111  1  0  0  0
 41112  1  0  0  0
 41 48  1  0  0  0
 42 43  1  0  0  0
 42 66  1  0  0  0
 42113  1  0  0  0
 42114  1  0  0  0
 43 44  1  0  0  0
 44115  1  0  0  0
 45 46  2  0  0  0
 45116  1  0  0  0
 46117  1  0  0  0
 47118  1  0  0  0
 47119  1  0  0  0
 48 56  1  0  0  0
 48 65  1  0  0  0
 48120  1  0  0  0
 49 50  1  0  0  0
 49 53  1  0  0  0
 49 64  1  0  0  0
 49121  1  0  0  0
 50 51  1  0  0  0
 50122  1  0  0  0
 50123  1  0  0  0
 51 52  1  0  0  0
 51124  1  0  0  0
 51125  1  0  0  0
 52126  1  0  0  0
 52127  1  0  0  0
 53 54  1  0  0  0
 54 55  2  0  0  0
 54128  1  0  0  0
 55 57  1  0  0  0
 55129  1  0  0  0
 56 69  2  0  0  0
 57 58  2  0  0  0
 57130  1  0  0  0
 58131  1  0  0  0
 59 60  1  0  0  0
 59 61  1  0  0  0
 59 62  1  0  0  0
 60132  1  0  0  0
 60133  1  0  0  0
 60134  1  0  0  0
 61135  1  0  0  0
 61136  1  0  0  0
 61137  1  0  0  0
 62138  1  0  0  0
 62139  1  0  0  0
 62140  1  0  0  0
 63 65  1  0  0  0
 63141  1  0  0  0
 63142  1  0  0  0
 63143  1  0  0  0
 64144  1  0  0  0
 65145  1  0  0  0
 68 84  1  0  0  0
 71 73  2  0  0  0
 71 75  1  0  0  0
 71146  1  0  0  0
 72 74  2  0  0  0
 72 76  1  0  0  0
 72147  1  0  0  0
 73 74  1  0  0  0
 73 77  1  0  0  0
 74 79  1  0  0  0
 75 76  2  0  0  0
 75 80  1  0  0  0
 76 82  1  0  0  0
 77 78  1  0  0  0
 77148  1  0  0  0
 77149  1  0  0  0
 78 86  1  0  0  0
 78150  1  0  0  0
 78151  1  0  0  0
 79 81  1  0  0  0
 79 86  1  0  0  0
 79152  1  0  0  0
 80153  1  0  0  0
 80154  1  0  0  0
 80155  1  0  0  0
 81156  1  0  0  0
 81157  1  0  0  0
 81158  1  0  0  0
 82 85  1  0  0  0
 82159  1  0  0  0
 82160  1  0  0  0
 83 84  1  0  0  0
 83161  1  0  0  0
 83162  1  0  0  0
 83 86  1  0  0  0
 84163  1  0  0  0
 84164  1  0  0  0
 85165  1  0  0  0
 86166  1  0  0  0
M  CHG  1  86   1
M  ISO  4   1 100  68 101  84 101  85 100
M  END
> <chiral flag>
0

> <version>
0

> <s_m_source_file>
/data/baiqing/PycharmProjects/Reinvent-master-3.2/result/LINK_invent/BTK/process_docking_weight1_custom_sum_contain_oxygen_bond_distance_aromatic_linkinvent_7_9_3/rearranged_h_0168.sdf

> <i_m_source_file_index>
26

> <r_mmod_Potential_Energy-OPLS-2005>
-179.550430297852

> <r_mmod_Stretch_Energy-OPLS-2005>
43.8993644714355

> <r_mmod_Bend_Energy-OPLS-2005>
101.327178955078

> <r_mmod_Torsional_Energy-OPLS-2005>
245.812866210938

> <r_mmod_Improper_Torsional_Energy-OPLS-2005>
4.15209817886353

> <r_mmod_Van_der_Waal_Energy-OPLS-2005>
157.412750244141

> <r_mmod_Electrostatic_Energy-OPLS-2005>
-327.697662353516

> <r_mmod_Solvation_Energy-OPLS-2005>
-418.48388671875

> <b_mmod_Minimization_Converged-OPLS-2005>
0

> <r_mmod_RMS_Derivative-OPLS-2005>
1.27219927310944

$$$$
26
                    3D
 Structure written by MMmdl.
173182  0  0  1  0            999 V2000
  -30.6605  -14.7469   20.5654 C   0  0  0  0  0  0
  -30.4498  -12.4821   19.4885 C   0  0  0  0  0  0
  -29.5171  -12.5371   18.2575 C   0  0  0  0  0  0
  -28.0444  -12.3514   18.6638 C   0  0  0  0  0  0
  -27.6540  -13.2369   19.8724 C   0  0  2  0  0  0
  -28.6975  -13.1488   21.0074 C   0  0  0  0  0  0
  -25.2477  -13.8164   20.5620 C   0  0  0  0  0  0
  -24.1820  -13.0403   20.9163 C   0  0  0  0  0  0
  -24.6471  -11.6899   20.8804 C   0  0  0  0  0  0
  -23.9154  -10.4276   21.0448 C   0  0  0  0  0  0
  -24.3682   -9.4177   21.9237 C   0  0  0  0  0  0
  -23.6342   -8.2226   22.0787 C   0  0  0  0  0  0
  -22.4315   -8.0297   21.3561 C   0  0  0  0  0  0
  -21.9977   -9.0281   20.4671 C   0  0  0  0  0  0
  -22.7323  -10.2139   20.3106 C   0  0  0  0  0  0
  -21.6837   -6.0771   22.5272 C   0  0  0  0  0  0
  -21.4021   -6.5665   23.8200 C   0  0  0  0  0  0
  -21.3657   -5.6810   24.9159 C   0  0  0  0  0  0
  -21.6027   -4.3083   24.7206 C   0  0  0  0  0  0
  -21.8826   -3.8171   23.4320 C   0  0  0  0  0  0
  -21.9213   -4.6998   22.3385 C   0  0  0  0  0  0
  -22.7824  -13.5159   21.1788 C   0  0  0  0  0  0
  -22.1670   -4.2193   21.0958 F   0  0  0  0  0  0
  -21.5615   -3.4555   25.7709 F   0  0  0  0  0  0
  -30.0139  -13.5240   20.4596 N   0  0  0  0  0  0
  -26.3023  -12.9436   20.3397 N   0  0  0  0  0  0
  -25.9423  -11.6560   20.5906 N   0  0  0  0  0  0
  -22.0495  -12.8202   22.0390 N   0  0  0  0  0  0
  -25.3955  -15.1881   20.3837 N   0  0  0  0  0  0
  -31.7551  -14.8948   20.0127 O   0  0  0  0  0  0
  -21.6647   -6.8915   21.4234 O   0  0  0  0  0  0
  -22.3495  -14.5443   20.6574 O   0  0  0  0  0  0
  -24.6320  -31.8550   23.1974 C   0  0  0  0  0  0
  -25.9137  -32.4725   23.8322 C   0  0  1  0  0  0
  -27.2095  -27.2363   20.1432 C   0  0  0  0  0  0
  -25.5914  -33.8527   24.2242 N   0  0  0  0  0  0
  -23.4296  -30.4772   21.5432 C   0  0  2  0  0  0
  -24.8781  -28.9275   20.1023 C   0  0  0  0  0  0
  -22.7503  -29.4588   22.4919 C   0  0  0  0  0  0
  -18.0273  -28.1345   22.8471 C   0  0  0  0  0  0
  -24.1487  -36.7311   23.2643 C   0  0  0  0  0  0
  -25.9782  -30.7557   21.3836 C   0  0  0  0  0  0
  -26.0495  -29.3782   20.7260 C   0  0  0  0  0  0
  -27.2191  -28.5469   20.7361 C   0  0  0  0  0  0
  -26.0279  -26.8756   19.4578 C   0  0  0  0  0  0
  -24.8767  -27.6882   19.4486 C   0  0  0  0  0  0
  -23.6455  -29.8124   20.1570 C   0  0  0  0  0  0
  -25.4111  -36.3067   24.0323 C   0  0  1  0  0  0
  -20.5883  -28.3681   23.1269 C   0  0  2  0  0  0
  -20.6787  -26.9387   22.5416 C   0  0  0  0  0  0
  -19.5760  -26.6352   21.5222 C   0  0  0  0  0  0
  -18.1935  -26.7881   22.1603 C   0  0  0  0  0  0
  -19.1522  -28.8825   23.2867 C   0  0  0  0  0  0
  -18.9457  -30.1415   23.8910 C   0  0  0  0  0  0
  -17.6460  -30.6571   24.0553 C   0  0  0  0  0  0
  -25.9060  -34.9433   23.5111 C   0  0  0  0  0  0
  -16.5351  -29.9067   23.6313 C   0  0  0  0  0  0
  -16.7260  -28.6470   23.0369 C   0  0  0  0  0  0
  -26.4488  -31.6530   25.0719 C   0  0  0  0  0  0
  -25.3690  -31.3701   26.1436 C   0  0  0  0  0  0
  -27.0343  -30.2925   24.6234 C   0  0  0  0  0  0
  -27.6033  -32.4282   25.7482 C   0  0  0  0  0  0
  -27.5577  -37.1799   24.8455 C   0  0  0  0  0  0
  -21.4200  -29.3029   22.3665 N   0  0  0  0  0  0
  -26.4283  -37.3766   23.9402 N   0  0  0  0  0  0
  -24.6995  -31.0470   22.0978 N   0  0  0  0  0  0
  -23.4203  -28.8125   23.3024 O   0  0  0  0  0  0
  -28.2783  -26.3014   20.1998 O   0  0  0  0  0  0
  -26.5670  -34.8902   22.4695 O   0  0  0  0  0  0
  -23.5453  -32.1408   23.7243 O   0  0  0  0  0  0
  -28.4535  -22.0927   20.6964 C   0  0  0  0  0  0
  -27.1159  -21.8351   21.0984 C   0  0  0  0  0  0
  -29.3851  -21.0643   21.1599 C   0  0  0  0  0  0
  -26.9350  -21.1131   22.3043 C   0  0  0  0  0  0
  -29.2129  -20.7989   22.5372 C   0  0  0  0  0  0
  -28.6648  -16.8033   22.8975 C   0  0  0  0  0  0
  -28.2125  -17.2644   21.5132 C   0  0  0  0  0  0
  -29.8814  -15.8951   22.6360 C   0  0  0  0  0  0
  -29.4693  -17.1565   20.6437 C   0  0  1  0  0  0
  -25.9131  -22.3242   20.3017 C   0  0  0  0  0  0
  -25.5547  -20.8007   22.8574 C   0  0  0  0  0  0
  -30.3888  -20.5270   23.4594 C   0  0  0  0  0  0
  -29.0775  -23.4778   18.6247 C   0  0  0  0  0  0
  -30.2934  -18.5491   20.7924 C   0  0  0  0  0  0
  -27.9557  -24.8544   20.5361 C   0  0  0  0  0  0
  -28.8647  -23.5468   20.1429 C   0  0  1  0  0  0
  -27.9787  -20.7566   23.0876 N   0  0  0  0  0  0
  -30.0372  -15.8354   21.1792 N   0  0  0  0  0  0
  -29.6481  -19.8698   20.3668 N   0  0  0  0  0  0
  -31.4798  -12.6265   19.1615 H   0  0  0  0  0  0
  -30.4272  -11.4968   19.9541 H   0  0  0  0  0  0
  -29.8044  -11.7786   17.5274 H   0  0  0  0  0  0
  -29.6346  -13.5045   17.7667 H   0  0  0  0  0  0
  -27.8877  -11.2989   18.9046 H   0  0  0  0  0  0
  -27.3921  -12.5720   17.8183 H   0  0  0  0  0  0
  -27.6604  -14.2678   19.5178 H   0  0  0  0  0  0
  -28.7436  -12.1389   21.4173 H   0  0  0  0  0  0
  -28.3813  -13.7939   21.8246 H   0  0  0  0  0  0
  -25.2834   -9.5602   22.4817 H   0  0  0  0  0  0
  -24.0021   -7.4601   22.7507 H   0  0  0  0  0  0
  -21.0907   -8.8843   19.8981 H   0  0  0  0  0  0
  -22.3841  -10.9702   19.6225 H   0  0  0  0  0  0
  -21.2018   -7.6183   23.9707 H   0  0  0  0  0  0
  -21.1460   -6.0547   25.9054 H   0  0  0  0  0  0
  -22.0625   -2.7646   23.2798 H   0  0  0  0  0  0
  -22.4154  -11.9905   22.4839 H   0  0  0  0  0  0
  -21.1097  -13.1227   22.2546 H   0  0  0  0  0  0
  -24.6117  -15.8237   20.4808 H   0  0  0  0  0  0
  -26.2321  -15.6416   20.0424 H   0  0  0  0  0  0
  -26.7196  -32.5359   23.1045 H   0  0  0  0  0  0
  -24.9944  -33.9653   25.0312 H   0  0  0  0  0  0
  -22.7278  -31.3029   21.3972 H   0  0  0  0  0  0
  -23.3730  -35.9657   23.3278 H   0  0  0  0  0  0
  -24.3592  -36.8978   22.2065 H   0  0  0  0  0  0
  -23.7252  -37.6505   23.6698 H   0  0  0  0  0  0
  -26.1275  -31.5128   20.6128 H   0  0  0  0  0  0
  -26.8515  -30.8023   22.0213 H   0  0  0  0  0  0
  -28.1056  -28.8855   21.2541 H   0  0  0  0  0  0
  -25.9699  -25.9415   18.9191 H   0  0  0  0  0  0
  -23.9927  -27.3471   18.9269 H   0  0  0  0  0  0
  -23.7522  -30.5888   19.3984 H   0  0  0  0  0  0
  -22.7639  -29.2389   19.8629 H   0  0  0  0  0  0
  -25.1269  -36.1938   25.0808 H   0  0  0  0  0  0
  -20.9943  -28.3244   24.1406 H   0  0  0  0  0  0
  -20.5708  -26.2277   23.3620 H   0  0  0  0  0  0
  -21.6656  -26.7460   22.1209 H   0  0  0  0  0  0
  -19.6965  -25.6270   21.1238 H   0  0  0  0  0  0
  -19.6694  -27.3166   20.6750 H   0  0  0  0  0  0
  -17.4229  -26.6615   21.3986 H   0  0  0  0  0  0
  -18.0333  -26.0008   22.8995 H   0  0  0  0  0  0
  -19.7946  -30.7196   24.2305 H   0  0  0  0  0  0
  -17.5037  -31.6246   24.5155 H   0  0  0  0  0  0
  -15.5353  -30.2996   23.7649 H   0  0  0  0  0  0
  -15.8637  -28.0796   22.7113 H   0  0  0  0  0  0
  -24.5862  -30.7044   25.7774 H   0  0  0  0  0  0
  -24.8879  -32.2876   26.4831 H   0  0  0  0  0  0
  -25.7993  -30.8902   27.0232 H   0  0  0  0  0  0
  -26.2948  -29.6646   24.1239 H   0  0  0  0  0  0
  -27.3981  -29.7206   25.4778 H   0  0  0  0  0  0
  -27.8837  -30.4170   23.9514 H   0  0  0  0  0  0
  -27.2623  -33.3585   26.2027 H   0  0  0  0  0  0
  -28.3831  -32.6824   25.0297 H   0  0  0  0  0  0
  -28.0691  -31.8425   26.5411 H   0  0  0  0  0  0
  -28.2573  -38.0114   24.7518 H   0  0  0  0  0  0
  -28.1086  -36.2647   24.6242 H   0  0  0  0  0  0
  -27.2311  -37.1414   25.8860 H   0  0  0  0  0  0
  -20.9410  -29.8756   21.6852 H   0  0  0  0  0  0
  -26.0168  -38.2843   24.1369 H   0  0  0  0  0  0
  -27.8577  -16.2947   23.4265 H   0  0  0  0  0  0
  -28.9549  -17.6627   23.5044 H   0  0  0  0  0  0
  -27.7604  -18.2550   21.5220 H   0  0  0  0  0  0
  -27.4563  -16.5762   21.1453 H   0  0  0  0  0  0
  -29.7798  -14.9153   23.0990 H   0  0  0  0  0  0
  -30.7813  -16.3351   23.0719 H   0  0  0  0  0  0
  -29.1913  -17.0154   19.5980 H   0  0  0  0  0  0
  -26.1981  -22.7071   19.3214 H   0  0  0  0  0  0
  -25.3562  -23.0921   20.8405 H   0  0  0  0  0  0
  -25.2326  -21.4967   20.1085 H   0  0  0  0  0  0
  -25.0707  -21.7098   23.2133 H   0  0  0  0  0  0
  -25.6056  -20.0990   23.6916 H   0  0  0  0  0  0
  -24.9212  -20.3408   22.0985 H   0  0  0  0  0  0
  -31.3299  -20.5966   22.9122 H   0  0  0  0  0  0
  -30.3220  -19.5436   23.9204 H   0  0  0  0  0  0
  -30.4250  -21.2673   24.2580 H   0  0  0  0  0  0
  -29.7834  -22.6877   18.3661 H   0  0  0  0  0  0
  -29.4939  -24.4121   18.2489 H   0  0  0  0  0  0
  -28.1472  -23.2768   18.0945 H   0  0  0  0  0  0
  -31.2021  -18.4575   20.1977 H   0  0  0  0  0  0
  -30.6607  -18.6197   21.8121 H   0  0  0  0  0  0
  -27.8405  -24.8277   21.6215 H   0  0  0  0  0  0
  -26.9593  -24.6388   20.1818 H   0  0  0  0  0  0
  -29.8468  -23.7321   20.5808 H   0  0  0  0  0  0
  -29.4153  -19.9364   19.3792 H   0  0  0  0  0  0
  1 25  1  0  0  0
  1 30  2  0  0  0
  1 88  1  0  0  0
  2  3  1  0  0  0
  2 25  1  0  0  0
  2 90  1  0  0  0
  2 91  1  0  0  0
  3  4  1  0  0  0
  3 92  1  0  0  0
  3 93  1  0  0  0
  4  5  1  0  0  0
  4 94  1  0  0  0
  4 95  1  0  0  0
  5  6  1  0  0  0
  5 26  1  0  0  0
  5 96  1  0  0  0
  6 25  1  0  0  0
  6 97  1  0  0  0
  6 98  1  0  0  0
  7  8  2  0  0  0
  7 26  1  0  0  0
  7 29  1  0  0  0
  8  9  1  0  0  0
  8 22  1  0  0  0
  9 10  1  0  0  0
  9 27  2  0  0  0
 10 11  2  0  0  0
 10 15  1  0  0  0
 11 12  1  0  0  0
 11 99  1  0  0  0
 12 13  2  0  0  0
 12100  1  0  0  0
 13 14  1  0  0  0
 13 31  1  0  0  0
 14 15  2  0  0  0
 14101  1  0  0  0
 15102  1  0  0  0
 16 17  2  0  0  0
 16 21  1  0  0  0
 16 31  1  0  0  0
 17 18  1  0  0  0
 17103  1  0  0  0
 18 19  2  0  0  0
 18104  1  0  0  0
 19 20  1  0  0  0
 19 24  1  0  0  0
 20 21  2  0  0  0
 20105  1  0  0  0
 21 23  1  0  0  0
 22 28  1  0  0  0
 22 32  2  0  0  0
 26 27  1  0  0  0
 28106  1  0  0  0
 28107  1  0  0  0
 29108  1  0  0  0
 29109  1  0  0  0
 33 34  1  0  0  0
 33 66  1  0  0  0
 33 70  2  0  0  0
 34 36  1  0  0  0
 34 59  1  0  0  0
 34110  1  0  0  0
 35 44  2  0  0  0
 35 45  1  0  0  0
 35 68  1  0  0  0
 36 56  1  0  0  0
 36111  1  0  0  0
 37 39  1  0  0  0
 37 47  1  0  0  0
 37 66  1  0  0  0
 37112  1  0  0  0
 38 43  2  0  0  0
 38 46  1  0  0  0
 38 47  1  0  0  0
 39 64  1  0  0  0
 39 67  2  0  0  0
 40 52  1  0  0  0
 40 53  2  0  0  0
 40 58  1  0  0  0
 41113  1  0  0  0
 41114  1  0  0  0
 41115  1  0  0  0
 41 48  1  0  0  0
 42 43  1  0  0  0
 42 66  1  0  0  0
 42116  1  0  0  0
 42117  1  0  0  0
 43 44  1  0  0  0
 44118  1  0  0  0
 45 46  2  0  0  0
 45119  1  0  0  0
 46120  1  0  0  0
 47121  1  0  0  0
 47122  1  0  0  0
 48 56  1  0  0  0
 48 65  1  0  0  0
 48123  1  0  0  0
 49 50  1  0  0  0
 49 53  1  0  0  0
 49 64  1  0  0  0
 49124  1  0  0  0
 50 51  1  0  0  0
 50125  1  0  0  0
 50126  1  0  0  0
 51 52  1  0  0  0
 51127  1  0  0  0
 51128  1  0  0  0
 52129  1  0  0  0
 52130  1  0  0  0
 53 54  1  0  0  0
 54 55  2  0  0  0
 54131  1  0  0  0
 55 57  1  0  0  0
 55132  1  0  0  0
 56 69  2  0  0  0
 57 58  2  0  0  0
 57133  1  0  0  0
 58134  1  0  0  0
 59 60  1  0  0  0
 59 61  1  0  0  0
 59 62  1  0  0  0
 60135  1  0  0  0
 60136  1  0  0  0
 60137  1  0  0  0
 61138  1  0  0  0
 61139  1  0  0  0
 61140  1  0  0  0
 62141  1  0  0  0
 62142  1  0  0  0
 62143  1  0  0  0
 63 65  1  0  0  0
 63144  1  0  0  0
 63145  1  0  0  0
 63146  1  0  0  0
 64147  1  0  0  0
 65148  1  0  0  0
 68 85  1  0  0  0
 71 72  2  0  0  0
 71 73  1  0  0  0
 71 86  1  0  0  0
 72 74  1  0  0  0
 72 80  1  0  0  0
 73 75  2  0  0  0
 73 89  1  0  0  0
 74 81  1  0  0  0
 74 87  2  0  0  0
 75 82  1  0  0  0
 75 87  1  0  0  0
 76 77  1  0  0  0
 76 78  1  0  0  0
 76149  1  0  0  0
 76150  1  0  0  0
 77 79  1  0  0  0
 77151  1  0  0  0
 77152  1  0  0  0
 78 88  1  0  0  0
 78153  1  0  0  0
 78154  1  0  0  0
 79 84  1  0  0  0
 79 88  1  0  0  0
 79155  1  0  0  0
 80156  1  0  0  0
 80157  1  0  0  0
 80158  1  0  0  0
 81159  1  0  0  0
 81160  1  0  0  0
 81161  1  0  0  0
 82162  1  0  0  0
 82163  1  0  0  0
 82164  1  0  0  0
 83165  1  0  0  0
 83166  1  0  0  0
 83167  1  0  0  0
 83 86  1  0  0  0
 84 89  1  0  0  0
 84168  1  0  0  0
 84169  1  0  0  0
 85 86  1  0  0  0
 85170  1  0  0  0
 85171  1  0  0  0
 86172  1  0  0  0
 89173  1  0  0  0
M  ISO  4   1 100  68 101  85 101  88 100
M  END
> <chiral flag>
0

> <version>
0

> <s_m_source_file>
/data/baiqing/PycharmProjects/Reinvent-master-3.2/result/LINK_invent/BTK/process_docking_weight1_custom_sum_contain_oxygen_bond_distance_aromatic_linkinvent_7_9_3/rearranged_h_0168.sdf

> <i_m_source_file_index>
27

> <r_mmod_Potential_Energy-OPLS-2005>
589.018737792969

> <r_mmod_Stretch_Energy-OPLS-2005>
150.947235107422

> <r_mmod_Bend_Energy-OPLS-2005>
240.688201904297

> <r_mmod_Torsional_Energy-OPLS-2005>
609.095031738281

> <r_mmod_Improper_Torsional_Energy-OPLS-2005>
21.661657333374

> <r_mmod_Van_der_Waal_Energy-OPLS-2005>
133.438888549805

> <r_mmod_Electrostatic_Energy-OPLS-2005>
-448.210632324219

> <r_mmod_Solvation_Energy-OPLS-2005>
-212.200866699219

> <b_mmod_Minimization_Converged-OPLS-2005>
0

> <r_mmod_RMS_Derivative-OPLS-2005>
4.24686908721924

$$$$
27
                    3D
 Structure written by MMmdl.
162171  0  0  1  0            999 V2000
  -30.6169  -14.7494   20.4277 C   0  0  0  0  0  0
  -30.4306  -12.4529   19.4678 C   0  0  0  0  0  0
  -29.5082  -12.4947   18.2308 C   0  0  0  0  0  0
  -28.0351  -12.3211   18.6497 C   0  0  0  0  0  0
  -27.6383  -13.2332   19.8421 C   0  0  2  0  0  0
  -28.6860  -13.1937   20.9744 C   0  0  0  0  0  0
  -25.2516  -13.8202   20.5706 C   0  0  0  0  0  0
  -24.1801  -13.0444   20.9203 C   0  0  0  0  0  0
  -24.6394  -11.6920   20.8743 C   0  0  0  0  0  0
  -23.9070  -10.4295   21.0404 C   0  0  0  0  0  0
  -24.3623   -9.4209   21.9179 C   0  0  0  0  0  0
  -23.6301   -8.2242   22.0748 C   0  0  0  0  0  0
  -22.4281   -8.0280   21.3542 C   0  0  0  0  0  0
  -21.9915   -9.0250   20.4642 C   0  0  0  0  0  0
  -22.7241  -10.2135   20.3053 C   0  0  0  0  0  0
  -21.6855   -6.0737   22.5279 C   0  0  0  0  0  0
  -21.4015   -6.5640   23.8212 C   0  0  0  0  0  0
  -21.3662   -5.6792   24.9174 C   0  0  0  0  0  0
  -21.6047   -4.3056   24.7223 C   0  0  0  0  0  0
  -21.8820   -3.8147   23.4344 C   0  0  0  0  0  0
  -21.9193   -4.6964   22.3402 C   0  0  0  0  0  0
  -22.7821  -13.5220   21.1865 C   0  0  0  0  0  0
  -22.1660   -4.2151   21.0980 F   0  0  0  0  0  0
  -21.5630   -3.4541   25.7736 F   0  0  0  0  0  0
  -29.9806  -13.5307   20.3753 N   0  0  0  0  0  0
  -26.2934  -12.9406   20.3273 N   0  0  0  0  0  0
  -25.9328  -11.6548   20.5751 N   0  0  0  0  0  0
  -22.0474  -12.8207   22.0424 N   0  0  0  0  0  0
  -25.4237  -15.1925   20.4150 N   0  0  0  0  0  0
  -31.8340  -14.8012   20.2284 O   0  0  0  0  0  0
  -21.6644   -6.8878   21.4239 O   0  0  0  0  0  0
  -22.3500  -14.5525   20.6712 O   0  0  0  0  0  0
  -24.6326  -31.8553   23.1990 C   0  0  0  0  0  0
  -25.9147  -32.4755   23.8337 C   0  0  1  0  0  0
  -27.2147  -27.2594   20.1312 C   0  0  0  0  0  0
  -25.5943  -33.8557   24.2260 N   0  0  0  0  0  0
  -23.4295  -30.4786   21.5431 C   0  0  2  0  0  0
  -24.8770  -28.9273   20.1131 C   0  0  0  0  0  0
  -22.7511  -29.4603   22.4918 C   0  0  0  0  0  0
  -18.0294  -28.1388   22.8483 C   0  0  0  0  0  0
  -24.1492  -36.7281   23.2637 C   0  0  0  0  0  0
  -25.9773  -30.7680   21.3803 C   0  0  0  0  0  0
  -26.0513  -29.3905   20.7222 C   0  0  0  0  0  0
  -27.2283  -28.5706   20.7178 C   0  0  0  0  0  0
  -26.0194  -26.8687   19.4940 C   0  0  0  0  0  0
  -24.8661  -27.6732   19.4869 C   0  0  0  0  0  0
  -23.6482  -29.8142   20.1596 C   0  0  0  0  0  0
  -25.4118  -36.3068   24.0325 C   0  0  1  0  0  0
  -20.5900  -28.3700   23.1266 C   0  0  2  0  0  0
  -20.6784  -26.9417   22.5407 C   0  0  0  0  0  0
  -19.5758  -26.6382   21.5212 C   0  0  0  0  0  0
  -18.1937  -26.7929   22.1624 C   0  0  0  0  0  0
  -19.1549  -28.8861   23.2868 C   0  0  0  0  0  0
  -18.9467  -30.1462   23.8885 C   0  0  0  0  0  0
  -17.6465  -30.6587   24.0560 C   0  0  0  0  0  0
  -25.9059  -34.9439   23.5095 C   0  0  0  0  0  0
  -16.5356  -29.9081   23.6335 C   0  0  0  0  0  0
  -16.7280  -28.6500   23.0355 C   0  0  0  0  0  0
  -26.4510  -31.6578   25.0726 C   0  0  0  0  0  0
  -25.3726  -31.3731   26.1442 C   0  0  0  0  0  0
  -27.0355  -30.2988   24.6221 C   0  0  0  0  0  0
  -27.6063  -32.4318   25.7499 C   0  0  0  0  0  0
  -27.5587  -37.1787   24.8458 C   0  0  0  0  0  0
  -21.4218  -29.3046   22.3657 N   0  0  0  0  0  0
  -26.4289  -37.3772   23.9416 N   0  0  0  0  0  0
  -24.6989  -31.0516   22.0969 N   0  0  0  0  0  0
  -23.4205  -28.8143   23.3022 O   0  0  0  0  0  0
  -28.2783  -26.3268   20.1422 O   0  0  0  0  0  0
  -26.5631  -34.8915   22.4662 O   0  0  0  0  0  0
  -23.5472  -32.1379   23.7279 O   0  0  0  0  0  0
  -29.3353  -22.7476   21.2349 C   0  0  0  0  0  0
  -28.3180  -21.4827   19.0201 C   0  0  0  0  0  0
  -28.5292  -23.5687   20.3795 C   0  0  0  0  0  0
  -29.6479  -21.3552   20.9915 C   0  0  0  0  0  0
  -28.0311  -22.8699   19.2446 C   0  0  0  0  0  0
  -29.1498  -20.6568   19.8467 C   0  0  0  0  0  0
  -29.3804  -17.0631   20.9627 C   0  0  0  0  0  0
  -30.1783  -16.8247   19.0625 C   0  0  0  0  0  0
  -30.1241  -18.0624   20.0141 C   0  0  0  0  0  0
  -30.5432  -20.6354   21.9822 C   0  0  0  0  0  0
  -27.1432  -23.5834   18.2444 C   0  0  0  0  0  0
  -29.9766  -19.4691   18.0007 C   0  0  0  0  0  0
  -28.0102  -25.0211   20.8391 C   0  0  0  0  0  0
  -29.8473  -15.8789   20.1534 N   0  0  0  0  0  0
  -29.4821  -19.3040   19.3809 N   0  0  0  0  0  0
  -31.4716  -12.5750   19.1639 H   0  0  0  0  0  0
  -30.3720  -11.4836   19.9658 H   0  0  0  0  0  0
  -29.7904  -11.7156   17.5216 H   0  0  0  0  0  0
  -29.6344  -13.4448   17.7087 H   0  0  0  0  0  0
  -27.8969  -11.2747   18.9252 H   0  0  0  0  0  0
  -27.3759  -12.5005   17.7998 H   0  0  0  0  0  0
  -27.6241  -14.2498   19.4484 H   0  0  0  0  0  0
  -28.7220  -12.2105   21.4453 H   0  0  0  0  0  0
  -28.4305  -13.9106   21.7567 H   0  0  0  0  0  0
  -25.2767   -9.5690   22.4755 H   0  0  0  0  0  0
  -24.0014   -7.4634   22.7466 H   0  0  0  0  0  0
  -21.0845   -8.8763   19.8951 H   0  0  0  0  0  0
  -22.3688  -10.9671   19.6164 H   0  0  0  0  0  0
  -21.2004   -7.6147   23.9716 H   0  0  0  0  0  0
  -21.1486   -6.0522   25.9077 H   0  0  0  0  0  0
  -22.0598   -2.7610   23.2845 H   0  0  0  0  0  0
  -22.4103  -11.9883   22.4833 H   0  0  0  0  0  0
  -21.1087  -13.1224   22.2623 H   0  0  0  0  0  0
  -24.6646  -15.8542   20.5347 H   0  0  0  0  0  0
  -26.2875  -15.6286   20.1169 H   0  0  0  0  0  0
  -26.7215  -32.5403   23.1081 H   0  0  0  0  0  0
  -25.0087  -33.9695   25.0404 H   0  0  0  0  0  0
  -22.7262  -31.3012   21.3976 H   0  0  0  0  0  0
  -23.3759  -35.9606   23.3282 H   0  0  0  0  0  0
  -24.3587  -36.8921   22.2055 H   0  0  0  0  0  0
  -23.7234  -37.6473   23.6672 H   0  0  0  0  0  0
  -26.1179  -31.5290   20.6114 H   0  0  0  0  0  0
  -26.8538  -30.8156   22.0149 H   0  0  0  0  0  0
  -28.1286  -28.9202   21.2036 H   0  0  0  0  0  0
  -25.9580  -25.9076   19.0118 H   0  0  0  0  0  0
  -23.9683  -27.3122   19.0043 H   0  0  0  0  0  0
  -23.7732  -30.5908   19.4043 H   0  0  0  0  0  0
  -22.7664  -29.2480   19.8541 H   0  0  0  0  0  0
  -25.1296  -36.1911   25.0816 H   0  0  0  0  0  0
  -20.9989  -28.3277   24.1388 H   0  0  0  0  0  0
  -20.5691  -26.2309   23.3612 H   0  0  0  0  0  0
  -21.6650  -26.7445   22.1194 H   0  0  0  0  0  0
  -19.6920  -25.6290   21.1249 H   0  0  0  0  0  0
  -19.6695  -27.3189   20.6739 H   0  0  0  0  0  0
  -17.4208  -26.6678   21.4024 H   0  0  0  0  0  0
  -18.0337  -26.0071   22.9021 H   0  0  0  0  0  0
  -19.7940  -30.7286   24.2248 H   0  0  0  0  0  0
  -17.5014  -31.6267   24.5161 H   0  0  0  0  0  0
  -15.5355  -30.2977   23.7664 H   0  0  0  0  0  0
  -15.8681  -28.0814   22.7075 H   0  0  0  0  0  0
  -24.5907  -30.7076   25.7766 H   0  0  0  0  0  0
  -24.8911  -32.2900   26.4850 H   0  0  0  0  0  0
  -25.8035  -30.8918   27.0230 H   0  0  0  0  0  0
  -26.2941  -29.6731   24.1236 H   0  0  0  0  0  0
  -27.4017  -29.7257   25.4749 H   0  0  0  0  0  0
  -27.8830  -30.4253   23.9481 H   0  0  0  0  0  0
  -27.2672  -33.3622   26.2066 H   0  0  0  0  0  0
  -28.3877  -32.6871   25.0329 H   0  0  0  0  0  0
  -28.0728  -31.8449   26.5422 H   0  0  0  0  0  0
  -28.2574  -38.0115   24.7547 H   0  0  0  0  0  0
  -28.1113  -36.2647   24.6227 H   0  0  0  0  0  0
  -27.2312  -37.1365   25.8861 H   0  0  0  0  0  0
  -20.9409  -29.8761   21.6851 H   0  0  0  0  0  0
  -26.0163  -38.2839   24.1440 H   0  0  0  0  0  0
  -29.7132  -23.2009   22.1408 H   0  0  0  0  0  0
  -27.8853  -21.0338   18.1375 H   0  0  0  0  0  0
  -28.2965  -17.1863   20.9526 H   0  0  0  0  0  0
  -29.7575  -17.0837   21.9863 H   0  0  0  0  0  0
  -31.1594  -16.6834   18.6047 H   0  0  0  0  0  0
  -29.4093  -16.8266   18.2882 H   0  0  0  0  0  0
  -31.1222  -18.2848   20.3950 H   0  0  0  0  0  0
  -30.8002  -21.2706   22.8299 H   0  0  0  0  0  0
  -31.4714  -20.3297   21.5001 H   0  0  0  0  0  0
  -30.0436  -19.7482   22.3708 H   0  0  0  0  0  0
  -27.0847  -23.0378   17.3021 H   0  0  0  0  0  0
  -27.5370  -24.5746   18.0185 H   0  0  0  0  0  0
  -26.1315  -23.6806   18.6374 H   0  0  0  0  0  0
  -30.2640  -20.4926   17.7509 H   0  0  0  0  0  0
  -29.2141  -19.1549   17.2868 H   0  0  0  0  0  0
  -30.8749  -18.8841   17.8035 H   0  0  0  0  0  0
  -28.3866  -25.1691   21.8515 H   0  0  0  0  0  0
  -26.9361  -24.9008   20.9828 H   0  0  0  0  0  0
  1 25  1  0  0  0
  1 30  2  0  0  0
  1 84  1  0  0  0
  2  3  1  0  0  0
  2 25  1  0  0  0
  2 86  1  0  0  0
  2 87  1  0  0  0
  3  4  1  0  0  0
  3 88  1  0  0  0
  3 89  1  0  0  0
  4  5  1  0  0  0
  4 90  1  0  0  0
  4 91  1  0  0  0
  5  6  1  0  0  0
  5 26  1  0  0  0
  5 92  1  0  0  0
  6 25  1  0  0  0
  6 93  1  0  0  0
  6 94  1  0  0  0
  7  8  2  0  0  0
  7 26  1  0  0  0
  7 29  1  0  0  0
  8  9  1  0  0  0
  8 22  1  0  0  0
  9 10  1  0  0  0
  9 27  2  0  0  0
 10 11  2  0  0  0
 10 15  1  0  0  0
 11 12  1  0  0  0
 11 95  1  0  0  0
 12 13  2  0  0  0
 12 96  1  0  0  0
 13 14  1  0  0  0
 13 31  1  0  0  0
 14 15  2  0  0  0
 14 97  1  0  0  0
 15 98  1  0  0  0
 16 17  2  0  0  0
 16 21  1  0  0  0
 16 31  1  0  0  0
 17 18  1  0  0  0
 17 99  1  0  0  0
 18 19  2  0  0  0
 18100  1  0  0  0
 19 20  1  0  0  0
 19 24  1  0  0  0
 20 21  2  0  0  0
 20101  1  0  0  0
 21 23  1  0  0  0
 22 28  1  0  0  0
 22 32  2  0  0  0
 26 27  1  0  0  0
 28102  1  0  0  0
 28103  1  0  0  0
 29104  1  0  0  0
 29105  1  0  0  0
 33 34  1  0  0  0
 33 66  1  0  0  0
 33 70  2  0  0  0
 34 36  1  0  0  0
 34 59  1  0  0  0
 34106  1  0  0  0
 35 44  2  0  0  0
 35 45  1  0  0  0
 35 68  1  0  0  0
 36 56  1  0  0  0
 36107  1  0  0  0
 37 39  1  0  0  0
 37 47  1  0  0  0
 37 66  1  0  0  0
 37108  1  0  0  0
 38 43  2  0  0  0
 38 46  1  0  0  0
 38 47  1  0  0  0
 39 64  1  0  0  0
 39 67  2  0  0  0
 40 52  1  0  0  0
 40 53  2  0  0  0
 40 58  1  0  0  0
 41109  1  0  0  0
 41110  1  0  0  0
 41111  1  0  0  0
 41 48  1  0  0  0
 42 43  1  0  0  0
 42 66  1  0  0  0
 42112  1  0  0  0
 42113  1  0  0  0
 43 44  1  0  0  0
 44114  1  0  0  0
 45 46  2  0  0  0
 45115  1  0  0  0
 46116  1  0  0  0
 47117  1  0  0  0
 47118  1  0  0  0
 48 56  1  0  0  0
 48 65  1  0  0  0
 48119  1  0  0  0
 49 50  1  0  0  0
 49 53  1  0  0  0
 49 64  1  0  0  0
 49120  1  0  0  0
 50 51  1  0  0  0
 50121  1  0  0  0
 50122  1  0  0  0
 51 52  1  0  0  0
 51123  1  0  0  0
 51124  1  0  0  0
 52125  1  0  0  0
 52126  1  0  0  0
 53 54  1  0  0  0
 54 55  2  0  0  0
 54127  1  0  0  0
 55 57  1  0  0  0
 55128  1  0  0  0
 56 69  2  0  0  0
 57 58  2  0  0  0
 57129  1  0  0  0
 58130  1  0  0  0
 59 60  1  0  0  0
 59 61  1  0  0  0
 59 62  1  0  0  0
 60131  1  0  0  0
 60132  1  0  0  0
 60133  1  0  0  0
 61134  1  0  0  0
 61135  1  0  0  0
 61136  1  0  0  0
 62137  1  0  0  0
 62138  1  0  0  0
 62139  1  0  0  0
 63 65  1  0  0  0
 63140  1  0  0  0
 63141  1  0  0  0
 63142  1  0  0  0
 64143  1  0  0  0
 65144  1  0  0  0
 68 83  1  0  0  0
 71 73  2  0  0  0
 71 74  1  0  0  0
 71145  1  0  0  0
 72 75  2  0  0  0
 72 76  1  0  0  0
 72146  1  0  0  0
 73 75  1  0  0  0
 73 83  1  0  0  0
 74 76  2  0  0  0
 74 80  1  0  0  0
 75 81  1  0  0  0
 76 85  1  0  0  0
 77 79  1  0  0  0
 77 84  1  0  0  0
 77147  1  0  0  0
 77148  1  0  0  0
 78 79  1  0  0  0
 78 84  1  0  0  0
 78149  1  0  0  0
 78150  1  0  0  0
 79 85  1  0  0  0
 79151  1  0  0  0
 80152  1  0  0  0
 80153  1  0  0  0
 80154  1  0  0  0
 81155  1  0  0  0
 81156  1  0  0  0
 81157  1  0  0  0
 82 85  1  0  0  0
 82158  1  0  0  0
 82159  1  0  0  0
 82160  1  0  0  0
 83161  1  0  0  0
 83162  1  0  0  0
M  ISO  4   1 100  68 101  83 101  84 100
M  END
> <chiral flag>
0

> <version>
0

> <s_m_source_file>
/data/baiqing/PycharmProjects/Reinvent-master-3.2/result/LINK_invent/BTK/process_docking_weight1_custom_sum_contain_oxygen_bond_distance_aromatic_linkinvent_7_9_3/rearranged_h_0168.sdf

> <i_m_source_file_index>
28

> <r_mmod_Potential_Energy-OPLS-2005>
390.47607421875

> <r_mmod_Stretch_Energy-OPLS-2005>
122.494552612305

> <r_mmod_Bend_Energy-OPLS-2005>
231.454116821289

> <r_mmod_Torsional_Energy-OPLS-2005>
317.986541748047

> <r_mmod_Improper_Torsional_Energy-OPLS-2005>
29.2275257110596

> <r_mmod_Van_der_Waal_Energy-OPLS-2005>
149.269165039062

> <r_mmod_Electrostatic_Energy-OPLS-2005>
-351.329864501953

> <r_mmod_Solvation_Energy-OPLS-2005>
-202.477325439453

> <b_mmod_Minimization_Converged-OPLS-2005>
0

> <r_mmod_RMS_Derivative-OPLS-2005>
0.59275883436203

$$$$
28
                    3D
 Structure written by MMmdl.
176185  0  0  1  0            999 V2000
  -30.7419  -14.5285   20.6222 C   0  0  0  0  0  0
  -30.4192  -12.3568   19.4632 C   0  0  0  0  0  0
  -29.5099  -12.5372   18.2311 C   0  0  0  0  0  0
  -28.0299  -12.3891   18.6307 C   0  0  0  0  0  0
  -27.6602  -13.2288   19.8824 C   0  0  2  0  0  0
  -28.6987  -13.0548   21.0132 C   0  0  0  0  0  0
  -25.2512  -13.8180   20.5679 C   0  0  0  0  0  0
  -24.1814  -13.0386   20.9147 C   0  0  0  0  0  0
  -24.6412  -11.6879   20.8736 C   0  0  0  0  0  0
  -23.9063  -10.4270   21.0401 C   0  0  0  0  0  0
  -24.3624   -9.4195   21.9185 C   0  0  0  0  0  0
  -23.6304   -8.2222   22.0759 C   0  0  0  0  0  0
  -22.4289   -8.0265   21.3538 C   0  0  0  0  0  0
  -21.9889   -9.0222   20.4623 C   0  0  0  0  0  0
  -22.7218  -10.2106   20.3047 C   0  0  0  0  0  0
  -21.6843   -6.0719   22.5257 C   0  0  0  0  0  0
  -21.4035   -6.5624   23.8191 C   0  0  0  0  0  0
  -21.3666   -5.6769   24.9146 C   0  0  0  0  0  0
  -21.6065   -4.3038   24.7231 C   0  0  0  0  0  0
  -21.8828   -3.8137   23.4345 C   0  0  0  0  0  0
  -21.9184   -4.6949   22.3399 C   0  0  0  0  0  0
  -22.7790  -13.5148   21.1793 C   0  0  0  0  0  0
  -22.1657   -4.2110   21.0982 F   0  0  0  0  0  0
  -21.5634   -3.4572   25.7784 F   0  0  0  0  0  0
  -30.0270  -13.3699   20.4630 N   0  0  0  0  0  0
  -26.3010  -12.9413   20.3365 N   0  0  0  0  0  0
  -25.9357  -11.6555   20.5780 N   0  0  0  0  0  0
  -22.0424  -12.8177   22.0369 N   0  0  0  0  0  0
  -25.4198  -15.1903   20.4203 N   0  0  0  0  0  0
  -31.8299  -14.6851   20.0629 O   0  0  0  0  0  0
  -21.6643   -6.8871   21.4216 O   0  0  0  0  0  0
  -22.3472  -14.5440   20.6626 O   0  0  0  0  0  0
  -24.6195  -31.8663   23.2070 C   0  0  0  0  0  0
  -25.9078  -32.4807   23.8383 C   0  0  1  0  0  0
  -27.2163  -27.3821   20.0989 C   0  0  0  0  0  0
  -25.5932  -33.8601   24.2329 N   0  0  0  0  0  0
  -23.4065  -30.4922   21.5515 C   0  0  2  0  0  0
  -24.8484  -28.9591   20.1124 C   0  0  0  0  0  0
  -22.7432  -29.4659   22.4980 C   0  0  0  0  0  0
  -18.0272  -28.1370   22.8500 C   0  0  0  0  0  0
  -24.1502  -36.7316   23.2636 C   0  0  0  0  0  0
  -25.9401  -30.8209   21.3592 C   0  0  0  0  0  0
  -26.0164  -29.4507   20.7096 C   0  0  0  0  0  0
  -27.2049  -28.6746   20.6933 C   0  0  0  0  0  0
  -26.0211  -26.9244   19.4957 C   0  0  0  0  0  0
  -24.8495  -27.6998   19.4984 C   0  0  0  0  0  0
  -23.6120  -29.8283   20.1661 C   0  0  0  0  0  0
  -25.4117  -36.3106   24.0339 C   0  0  1  0  0  0
  -20.5871  -28.3682   23.1304 C   0  0  2  0  0  0
  -20.6775  -26.9416   22.5407 C   0  0  0  0  0  0
  -19.5749  -26.6394   21.5216 C   0  0  0  0  0  0
  -18.1926  -26.7917   22.1623 C   0  0  0  0  0  0
  -19.1531  -28.8843   23.2898 C   0  0  0  0  0  0
  -18.9445  -30.1438   23.8924 C   0  0  0  0  0  0
  -17.6441  -30.6581   24.0574 C   0  0  0  0  0  0
  -25.9044  -34.9470   23.5140 C   0  0  0  0  0  0
  -16.5338  -29.9076   23.6324 C   0  0  0  0  0  0
  -16.7258  -28.6485   23.0355 C   0  0  0  0  0  0
  -26.4498  -31.6558   25.0690 C   0  0  0  0  0  0
  -25.3743  -31.3638   26.1413 C   0  0  0  0  0  0
  -27.0319  -30.3010   24.6024 C   0  0  0  0  0  0
  -27.6098  -32.4251   25.7431 C   0  0  0  0  0  0
  -27.5592  -37.1807   24.8463 C   0  0  0  0  0  0
  -21.4163  -29.3052   22.3723 N   0  0  0  0  0  0
  -26.4309  -37.3791   23.9409 N   0  0  0  0  0  0
  -24.6756  -31.0746   22.0983 N   0  0  0  0  0  0
  -23.4191  -28.8187   23.3027 O   0  0  0  0  0  0
  -28.3687  -26.6011   20.1098 O   0  0  0  0  0  0
  -26.5602  -34.8935   22.4696 O   0  0  0  0  0  0
  -23.5381  -32.1442   23.7440 O   0  0  0  0  0  0
  -30.9881  -16.7830   22.7456 C   0  0  0  0  0  0
  -29.9889  -15.6335   22.7292 C   0  0  0  0  0  0
  -31.1679  -20.0211   21.6707 C   0  0  0  0  0  0
  -31.3939  -21.5105   21.3120 C   0  0  1  0  0  0
  -30.1960  -21.9281   20.4083 C   0  0  1  0  0  0
  -30.6944  -16.9949   21.2616 C   0  0  2  0  0  0
  -29.3451  -20.6191   20.3345 C   0  0  1  0  0  0
  -28.6165  -20.4592   18.9910 C   0  0  0  0  0  0
  -30.8206  -22.4039   23.6971 C   0  0  0  0  0  0
  -33.2434  -22.0737   22.9704 C   0  0  0  0  0  0
  -30.7314  -25.1618   20.4416 C   0  0  0  0  0  0
  -29.6777  -18.1152   20.8596 C   0  0  0  0  0  0
  -28.2160  -25.1512   20.0143 C   0  0  0  0  0  0
  -31.8086  -22.4084   22.5105 C   0  0  0  0  0  0
  -29.5350  -24.3051   20.0043 C   0  0  2  0  0  0
  -30.1523  -15.5874   21.2655 N   0  0  0  0  0  0
  -30.2825  -19.4825   20.6197 N   0  3  2  0  0  0
  -29.4299  -23.0989   20.8153 O   0  0  0  0  0  0
  -31.4696  -12.4333   19.1878 H   0  0  0  0  0  0
  -30.2989  -11.3507   19.8691 H   0  0  0  0  0  0
  -29.7668  -11.8071   17.4632 H   0  0  0  0  0  0
  -29.6835  -13.5210   17.7885 H   0  0  0  0  0  0
  -27.8285  -11.3353   18.8132 H   0  0  0  0  0  0
  -27.3956  -12.6803   17.7934 H   0  0  0  0  0  0
  -27.6916  -14.2728   19.5713 H   0  0  0  0  0  0
  -28.6814  -12.0296   21.3880 H   0  0  0  0  0  0
  -28.4395  -13.6805   21.8663 H   0  0  0  0  0  0
  -25.2772   -9.5680   22.4757 H   0  0  0  0  0  0
  -23.9987   -7.4593   22.7485 H   0  0  0  0  0  0
  -21.0802   -8.8708   19.8950 H   0  0  0  0  0  0
  -22.3638  -10.9640   19.6177 H   0  0  0  0  0  0
  -21.2097   -7.6125   23.9736 H   0  0  0  0  0  0
  -21.1469   -6.0489   25.9044 H   0  0  0  0  0  0
  -22.0615   -2.7597   23.2847 H   0  0  0  0  0  0
  -22.4096  -11.9903   22.4831 H   0  0  0  0  0  0
  -21.1047  -13.1250   22.2625 H   0  0  0  0  0  0
  -24.6621  -15.8456   20.5841 H   0  0  0  0  0  0
  -26.2916  -15.6429   20.1757 H   0  0  0  0  0  0
  -26.7132  -32.5517   23.1128 H   0  0  0  0  0  0
  -25.0118  -33.9786   25.0499 H   0  0  0  0  0  0
  -22.6980  -31.3122   21.4139 H   0  0  0  0  0  0
  -23.3775  -35.9639   23.3270 H   0  0  0  0  0  0
  -24.3614  -36.8954   22.2060 H   0  0  0  0  0  0
  -23.7251  -37.6513   23.6658 H   0  0  0  0  0  0
  -26.0493  -31.5789   20.5822 H   0  0  0  0  0  0
  -26.8322  -30.8850   21.9698 H   0  0  0  0  0  0
  -28.1060  -29.0546   21.1536 H   0  0  0  0  0  0
  -25.9505  -25.9683   19.0031 H   0  0  0  0  0  0
  -23.9535  -27.3188   19.0300 H   0  0  0  0  0  0
  -23.7144  -30.6046   19.4072 H   0  0  0  0  0  0
  -22.7344  -29.2465   19.8735 H   0  0  0  0  0  0
  -25.1286  -36.1989   25.0831 H   0  0  0  0  0  0
  -20.9969  -28.3248   24.1427 H   0  0  0  0  0  0
  -20.5711  -26.2294   23.3603 H   0  0  0  0  0  0
  -21.6633  -26.7469   22.1175 H   0  0  0  0  0  0
  -19.6920  -25.6316   21.1227 H   0  0  0  0  0  0
  -19.6679  -27.3235   20.6770 H   0  0  0  0  0  0
  -17.4204  -26.6684   21.4012 H   0  0  0  0  0  0
  -18.0304  -26.0038   22.8996 H   0  0  0  0  0  0
  -19.7915  -30.7248   24.2318 H   0  0  0  0  0  0
  -17.4992  -31.6263   24.5164 H   0  0  0  0  0  0
  -15.5343  -30.2988   23.7632 H   0  0  0  0  0  0
  -15.8648  -28.0813   22.7066 H   0  0  0  0  0  0
  -24.5967  -30.6944   25.7714 H   0  0  0  0  0  0
  -24.8872  -32.2769   26.4833 H   0  0  0  0  0  0
  -25.8077  -30.8818   27.0181 H   0  0  0  0  0  0
  -26.2839  -29.6748   24.1147 H   0  0  0  0  0  0
  -27.4203  -29.7254   25.4434 H   0  0  0  0  0  0
  -27.8617  -30.4353   23.9082 H   0  0  0  0  0  0
  -27.2785  -33.3585   26.1987 H   0  0  0  0  0  0
  -28.3900  -32.6739   25.0222 H   0  0  0  0  0  0
  -28.0758  -31.8361   26.5338 H   0  0  0  0  0  0
  -28.2588  -38.0122   24.7533 H   0  0  0  0  0  0
  -28.1108  -36.2658   24.6252 H   0  0  0  0  0  0
  -27.2307  -37.1402   25.8864 H   0  0  0  0  0  0
  -20.9339  -29.8811   21.6967 H   0  0  0  0  0  0
  -26.0195  -38.2874   24.1399 H   0  0  0  0  0  0
  -32.0108  -16.4521   22.9295 H   0  0  0  0  0  0
  -30.7115  -17.6107   23.3997 H   0  0  0  0  0  0
  -28.9878  -15.9215   23.0564 H   0  0  0  0  0  0
  -30.3542  -14.7610   23.2752 H   0  0  0  0  0  0
  -30.6607  -19.9226   22.6278 H   0  0  0  0  0  0
  -32.1062  -19.4701   21.7487 H   0  0  0  0  0  0
  -32.2460  -21.5283   20.6299 H   0  0  0  0  0  0
  -30.6012  -22.0988   19.4098 H   0  0  0  0  0  0
  -31.6237  -17.0856   20.6965 H   0  0  0  0  0  0
  -28.6129  -20.6534   21.1433 H   0  0  0  0  0  0
  -29.3258  -20.3141   18.1753 H   0  0  0  0  0  0
  -28.0274  -21.3477   18.7636 H   0  0  0  0  0  0
  -27.9307  -19.6113   18.9987 H   0  0  0  0  0  0
  -29.7886  -22.5409   23.3698 H   0  0  0  0  0  0
  -31.0426  -23.2188   24.3890 H   0  0  0  0  0  0
  -30.8701  -21.4790   24.2713 H   0  0  0  0  0  0
  -33.9630  -22.2396   22.1661 H   0  0  0  0  0  0
  -33.3450  -21.0342   23.2850 H   0  0  0  0  0  0
  -33.5545  -22.6998   23.8064 H   0  0  0  0  0  0
  -30.8039  -26.0548   19.8220 H   0  0  0  0  0  0
  -31.6766  -24.6360   20.3263 H   0  0  0  0  0  0
  -30.6315  -25.4876   21.4768 H   0  0  0  0  0  0
  -28.9032  -18.2114   21.6192 H   0  0  0  0  0  0
  -29.1648  -17.8064   19.9508 H   0  0  0  0  0  0
  -27.5789  -24.8130   20.8364 H   0  0  0  0  0  0
  -27.6966  -24.8829   19.0943 H   0  0  0  0  0  0
  -31.8493  -23.4330   22.1540 H   0  0  0  0  0  0
  -29.7009  -24.0272   18.9621 H   0  0  0  0  0  0
  -30.8721  -19.3789   19.8079 H   0  0  0  0  0  0
  1 25  1  0  0  0
  1 30  2  0  0  0
  1 86  1  0  0  0
  2  3  1  0  0  0
  2 25  1  0  0  0
  2 89  1  0  0  0
  2 90  1  0  0  0
  3  4  1  0  0  0
  3 91  1  0  0  0
  3 92  1  0  0  0
  4  5  1  0  0  0
  4 93  1  0  0  0
  4 94  1  0  0  0
  5  6  1  0  0  0
  5 26  1  0  0  0
  5 95  1  0  0  0
  6 25  1  0  0  0
  6 96  1  0  0  0
  6 97  1  0  0  0
  7  8  2  0  0  0
  7 26  1  0  0  0
  7 29  1  0  0  0
  8  9  1  0  0  0
  8 22  1  0  0  0
  9 10  1  0  0  0
  9 27  2  0  0  0
 10 11  2  0  0  0
 10 15  1  0  0  0
 11 12  1  0  0  0
 11 98  1  0  0  0
 12 13  2  0  0  0
 12 99  1  0  0  0
 13 14  1  0  0  0
 13 31  1  0  0  0
 14 15  2  0  0  0
 14100  1  0  0  0
 15101  1  0  0  0
 16 17  2  0  0  0
 16 21  1  0  0  0
 16 31  1  0  0  0
 17 18  1  0  0  0
 17102  1  0  0  0
 18 19  2  0  0  0
 18103  1  0  0  0
 19 20  1  0  0  0
 19 24  1  0  0  0
 20 21  2  0  0  0
 20104  1  0  0  0
 21 23  1  0  0  0
 22 28  1  0  0  0
 22 32  2  0  0  0
 26 27  1  0  0  0
 28105  1  0  0  0
 28106  1  0  0  0
 29107  1  0  0  0
 29108  1  0  0  0
 33 34  1  0  0  0
 33 66  1  0  0  0
 33 70  2  0  0  0
 34 36  1  0  0  0
 34 59  1  0  0  0
 34109  1  0  0  0
 35 44  2  0  0  0
 35 45  1  0  0  0
 35 68  1  0  0  0
 36 56  1  0  0  0
 36110  1  0  0  0
 37 39  1  0  0  0
 37 47  1  0  0  0
 37 66  1  0  0  0
 37111  1  0  0  0
 38 43  2  0  0  0
 38 46  1  0  0  0
 38 47  1  0  0  0
 39 64  1  0  0  0
 39 67  2  0  0  0
 40 52  1  0  0  0
 40 53  2  0  0  0
 40 58  1  0  0  0
 41112  1  0  0  0
 41113  1  0  0  0
 41114  1  0  0  0
 41 48  1  0  0  0
 42 43  1  0  0  0
 42 66  1  0  0  0
 42115  1  0  0  0
 42116  1  0  0  0
 43 44  1  0  0  0
 44117  1  0  0  0
 45 46  2  0  0  0
 45118  1  0  0  0
 46119  1  0  0  0
 47120  1  0  0  0
 47121  1  0  0  0
 48 56  1  0  0  0
 48 65  1  0  0  0
 48122  1  0  0  0
 49 50  1  0  0  0
 49 53  1  0  0  0
 49 64  1  0  0  0
 49123  1  0  0  0
 50 51  1  0  0  0
 50124  1  0  0  0
 50125  1  0  0  0
 51 52  1  0  0  0
 51126  1  0  0  0
 51127  1  0  0  0
 52128  1  0  0  0
 52129  1  0  0  0
 53 54  1  0  0  0
 54 55  2  0  0  0
 54130  1  0  0  0
 55 57  1  0  0  0
 55131  1  0  0  0
 56 69  2  0  0  0
 57 58  2  0  0  0
 57132  1  0  0  0
 58133  1  0  0  0
 59 60  1  0  0  0
 59 61  1  0  0  0
 59 62  1  0  0  0
 60134  1  0  0  0
 60135  1  0  0  0
 60136  1  0  0  0
 61137  1  0  0  0
 61138  1  0  0  0
 61139  1  0  0  0
 62140  1  0  0  0
 62141  1  0  0  0
 62142  1  0  0  0
 63 65  1  0  0  0
 63143  1  0  0  0
 63144  1  0  0  0
 63145  1  0  0  0
 64146  1  0  0  0
 65147  1  0  0  0
 68 83  1  0  0  0
 71 72  1  0  0  0
 71 76  1  0  0  0
 71148  1  0  0  0
 71149  1  0  0  0
 72 86  1  0  0  0
 72150  1  0  0  0
 72151  1  0  0  0
 73 87  1  0  0  0
 73152  1  0  0  0
 73153  1  0  0  0
 73 74  1  0  0  0
 74 75  1  0  0  0
 74 84  1  0  0  0
 74154  1  0  0  0
 75 77  1  0  0  0
 75 88  1  0  0  0
 75155  1  0  0  0
 76 82  1  0  0  0
 76 86  1  0  0  0
 76156  1  0  0  0
 77 78  1  0  0  0
 77 87  1  0  0  0
 77157  1  0  0  0
 78158  1  0  0  0
 78159  1  0  0  0
 78160  1  0  0  0
 79161  1  0  0  0
 79162  1  0  0  0
 79163  1  0  0  0
 79 84  1  0  0  0
 80 84  1  0  0  0
 80164  1  0  0  0
 80165  1  0  0  0
 80166  1  0  0  0
 81167  1  0  0  0
 81168  1  0  0  0
 81169  1  0  0  0
 81 85  1  0  0  0
 82170  1  0  0  0
 82171  1  0  0  0
 82 87  1  0  0  0
 83 85  1  0  0  0
 83172  1  0  0  0
 83173  1  0  0  0
 84174  1  0  0  0
 85 88  1  0  0  0
 85175  1  0  0  0
 87176  1  0  0  0
M  CHG  1  87   1
M  ISO  4   1 100  68 101  83 101  86 100
M  END
> <chiral flag>
0

> <version>
0

> <s_m_source_file>
/data/baiqing/PycharmProjects/Reinvent-master-3.2/result/LINK_invent/BTK/process_docking_weight1_custom_sum_contain_oxygen_bond_distance_aromatic_linkinvent_7_9_3/rearranged_h_0168.sdf

> <i_m_source_file_index>
29

> <r_mmod_Potential_Energy-OPLS-2005>
177.8330078125

> <r_mmod_Stretch_Energy-OPLS-2005>
64.2232971191406

> <r_mmod_Bend_Energy-OPLS-2005>
167.111282348633

> <r_mmod_Torsional_Energy-OPLS-2005>
371.226318359375

> <r_mmod_Improper_Torsional_Energy-OPLS-2005>
10.058048248291

> <r_mmod_Van_der_Waal_Energy-OPLS-2005>
128.2890625

> <r_mmod_Electrostatic_Energy-OPLS-2005>
-180.351318359375

> <r_mmod_Solvation_Energy-OPLS-2005>
-404.708343505859

> <b_mmod_Minimization_Converged-OPLS-2005>
0

> <r_mmod_RMS_Derivative-OPLS-2005>
5.31297636032104

$$$$
29
                    3D
 Structure written by MMmdl.
164175  0  0  1  0            999 V2000
  -30.6161  -14.6892   20.4656 C   0  0  0  0  0  0
  -30.4341  -12.4217   19.4605 C   0  0  0  0  0  0
  -29.5088  -12.4966   18.2264 C   0  0  0  0  0  0
  -28.0332  -12.3335   18.6416 C   0  0  0  0  0  0
  -27.6456  -13.2256   19.8520 C   0  0  2  0  0  0
  -28.6897  -13.1379   20.9853 C   0  0  0  0  0  0
  -25.2539  -13.8193   20.5689 C   0  0  0  0  0  0
  -24.1816  -13.0446   20.9186 C   0  0  0  0  0  0
  -24.6391  -11.6918   20.8732 C   0  0  0  0  0  0
  -23.9064  -10.4299   21.0397 C   0  0  0  0  0  0
  -24.3619   -9.4214   21.9178 C   0  0  0  0  0  0
  -23.6297   -8.2248   22.0750 C   0  0  0  0  0  0
  -22.4277   -8.0283   21.3542 C   0  0  0  0  0  0
  -21.9910   -9.0254   20.4645 C   0  0  0  0  0  0
  -22.7234  -10.2135   20.3051 C   0  0  0  0  0  0
  -21.6860   -6.0738   22.5279 C   0  0  0  0  0  0
  -21.4021   -6.5638   23.8210 C   0  0  0  0  0  0
  -21.3655   -5.6786   24.9173 C   0  0  0  0  0  0
  -21.6047   -4.3053   24.7224 C   0  0  0  0  0  0
  -21.8821   -3.8147   23.4343 C   0  0  0  0  0  0
  -21.9196   -4.6964   22.3403 C   0  0  0  0  0  0
  -22.7840  -13.5233   21.1851 C   0  0  0  0  0  0
  -22.1661   -4.2152   21.0981 F   0  0  0  0  0  0
  -21.5626   -3.4536   25.7734 F   0  0  0  0  0  0
  -29.9926  -13.4703   20.4017 N   0  0  0  0  0  0
  -26.2961  -12.9384   20.3293 N   0  0  0  0  0  0
  -25.9323  -11.6530   20.5753 N   0  0  0  0  0  0
  -22.0481  -12.8225   22.0407 N   0  0  0  0  0  0
  -25.4278  -15.1915   20.4137 N   0  0  0  0  0  0
  -31.8119  -14.7969   20.1785 O   0  0  0  0  0  0
  -21.6644   -6.8876   21.4238 O   0  0  0  0  0  0
  -22.3523  -14.5532   20.6691 O   0  0  0  0  0  0
  -24.6258  -31.8594   23.1996 C   0  0  0  0  0  0
  -25.9097  -32.4776   23.8345 C   0  0  1  0  0  0
  -27.2271  -27.3101   20.1244 C   0  0  0  0  0  0
  -25.5909  -33.8581   24.2281 N   0  0  0  0  0  0
  -23.4209  -30.4791   21.5432 C   0  0  2  0  0  0
  -24.8667  -28.9268   20.1105 C   0  0  0  0  0  0
  -22.7482  -29.4617   22.4955 C   0  0  0  0  0  0
  -18.0280  -28.1389   22.8489 C   0  0  0  0  0  0
  -24.1488  -36.7297   23.2644 C   0  0  0  0  0  0
  -25.9590  -30.7893   21.3678 C   0  0  0  0  0  0
  -26.0329  -29.4132   20.7130 C   0  0  0  0  0  0
  -27.2143  -28.6162   20.7063 C   0  0  0  0  0  0
  -26.0383  -26.8668   19.5061 C   0  0  0  0  0  0
  -24.8726  -27.6612   19.4971 C   0  0  0  0  0  0
  -23.6352  -29.8089   20.1593 C   0  0  0  0  0  0
  -25.4111  -36.3093   24.0337 C   0  0  1  0  0  0
  -20.5879  -28.3689   23.1296 C   0  0  2  0  0  0
  -20.6775  -26.9415   22.5427 C   0  0  0  0  0  0
  -19.5753  -26.6389   21.5229 C   0  0  0  0  0  0
  -18.1927  -26.7930   22.1629 C   0  0  0  0  0  0
  -19.1534  -28.8855   23.2884 C   0  0  0  0  0  0
  -18.9456  -30.1455   23.8903 C   0  0  0  0  0  0
  -17.6455  -30.6588   24.0566 C   0  0  0  0  0  0
  -25.9042  -34.9459   23.5110 C   0  0  0  0  0  0
  -16.5344  -29.9095   23.6323 C   0  0  0  0  0  0
  -16.7268  -28.6512   23.0345 C   0  0  0  0  0  0
  -26.4478  -31.6580   25.0711 C   0  0  0  0  0  0
  -25.3707  -31.3727   26.1438 C   0  0  0  0  0  0
  -27.0309  -30.3006   24.6144 C   0  0  0  0  0  0
  -27.6037  -32.4309   25.7477 C   0  0  0  0  0  0
  -27.5582  -37.1805   24.8463 C   0  0  0  0  0  0
  -21.4195  -29.3039   22.3702 N   0  0  0  0  0  0
  -26.4291  -37.3785   23.9408 N   0  0  0  0  0  0
  -24.6878  -31.0594   22.0945 N   0  0  0  0  0  0
  -23.4199  -28.8173   23.3050 O   0  0  0  0  0  0
  -28.3718  -26.5039   20.1836 O   0  0  0  0  0  0
  -26.5625  -34.8929   22.4689 O   0  0  0  0  0  0
  -23.5416  -32.1405   23.7313 O   0  0  0  0  0  0
  -29.6391  -20.1434   21.6953 C   0  0  0  0  0  0
  -29.1919  -19.4501   20.5475 C   0  0  0  0  0  0
  -29.5199  -21.5607   21.7981 C   0  0  0  0  0  0
  -28.6436  -20.2986   19.5352 C   0  0  0  0  0  0
  -28.9234  -22.3282   20.7567 C   0  0  0  0  0  0
  -29.0767  -19.1614   17.2168 C   0  0  0  0  0  0
  -28.3914  -20.4662   16.9237 C   0  0  0  0  0  0
  -29.8119  -24.6731   20.0907 C   0  0  0  0  0  0
  -29.9455  -16.9266   19.5156 C   0  0  0  0  0  0
  -29.8106  -16.8823   21.5315 C   0  0  0  0  0  0
  -29.1947  -17.8605   20.4917 C   0  0  0  0  0  0
  -28.1256  -19.7523   18.2371 C   0  0  0  0  0  0
  -28.7709  -23.9000   20.8549 C   0  0  1  0  0  0
  -28.3759  -25.0565   19.8388 C   0  0  2  0  0  0
  -30.0310  -22.2398   23.0592 C   0  0  0  0  0  0
  -28.4980  -21.6624   19.6519 N   0  0  0  0  0  0
  -29.8005  -15.8071   20.4962 N   0  0  0  0  0  0
  -31.4743  -12.5533   19.1573 H   0  0  0  0  0  0
  -30.3783  -11.4397   19.9331 H   0  0  0  0  0  0
  -29.7812  -11.7268   17.5030 H   0  0  0  0  0  0
  -29.6466  -13.4552   17.7230 H   0  0  0  0  0  0
  -27.8795  -11.2834   18.8938 H   0  0  0  0  0  0
  -27.3781  -12.5427   17.7948 H   0  0  0  0  0  0
  -27.6464  -14.2519   19.4839 H   0  0  0  0  0  0
  -28.7112  -12.1408   21.4263 H   0  0  0  0  0  0
  -28.4391  -13.8304   21.7915 H   0  0  0  0  0  0
  -25.2766   -9.5696   22.4755 H   0  0  0  0  0  0
  -24.0007   -7.4643   22.7472 H   0  0  0  0  0  0
  -21.0837   -8.8769   19.8954 H   0  0  0  0  0  0
  -22.3683  -10.9673   19.6164 H   0  0  0  0  0  0
  -21.2010   -7.6146   23.9714 H   0  0  0  0  0  0
  -21.1477   -6.0520   25.9072 H   0  0  0  0  0  0
  -22.0604   -2.7612   23.2847 H   0  0  0  0  0  0
  -22.4100  -11.9892   22.4812 H   0  0  0  0  0  0
  -21.1099  -13.1262   22.2603 H   0  0  0  0  0  0
  -24.6704  -15.8546   20.5360 H   0  0  0  0  0  0
  -26.2954  -15.6265   20.1261 H   0  0  0  0  0  0
  -26.7166  -32.5451   23.1100 H   0  0  0  0  0  0
  -25.0029  -33.9726   25.0406 H   0  0  0  0  0  0
  -22.7133  -31.2984   21.3985 H   0  0  0  0  0  0
  -23.3751  -35.9627   23.3306 H   0  0  0  0  0  0
  -24.3583  -36.8918   22.2057 H   0  0  0  0  0  0
  -23.7230  -37.6499   23.6658 H   0  0  0  0  0  0
  -26.0838  -31.5509   20.5966 H   0  0  0  0  0  0
  -26.8415  -30.8440   21.9940 H   0  0  0  0  0  0
  -28.1119  -28.9891   21.1804 H   0  0  0  0  0  0
  -25.9890  -25.8938   19.0396 H   0  0  0  0  0  0
  -23.9768  -27.2819   19.0243 H   0  0  0  0  0  0
  -23.7552  -30.5854   19.4025 H   0  0  0  0  0  0
  -22.7551  -29.2389   19.8560 H   0  0  0  0  0  0
  -25.1290  -36.1959   25.0828 H   0  0  0  0  0  0
  -20.9951  -28.3261   24.1424 H   0  0  0  0  0  0
  -20.5687  -26.2304   23.3629 H   0  0  0  0  0  0
  -21.6645  -26.7456   22.1216 H   0  0  0  0  0  0
  -19.6917  -25.6305   21.1258 H   0  0  0  0  0  0
  -19.6689  -27.3207   20.6763 H   0  0  0  0  0  0
  -17.4206  -26.6684   21.4018 H   0  0  0  0  0  0
  -18.0300  -26.0072   22.9019 H   0  0  0  0  0  0
  -19.7930  -30.7271   24.2280 H   0  0  0  0  0  0
  -17.5006  -31.6264   24.5178 H   0  0  0  0  0  0
  -15.5347  -30.2998   23.7636 H   0  0  0  0  0  0
  -15.8669  -28.0835   22.7047 H   0  0  0  0  0  0
  -24.5884  -30.7071   25.7774 H   0  0  0  0  0  0
  -24.8892  -32.2895   26.4849 H   0  0  0  0  0  0
  -25.8025  -30.8921   27.0225 H   0  0  0  0  0  0
  -26.2879  -29.6772   24.1154 H   0  0  0  0  0  0
  -27.4001  -29.7243   25.4637 H   0  0  0  0  0  0
  -27.8749  -30.4305   23.9365 H   0  0  0  0  0  0
  -27.2649  -33.3606   26.2063 H   0  0  0  0  0  0
  -28.3834  -32.6875   25.0290 H   0  0  0  0  0  0
  -28.0717  -31.8430   26.5385 H   0  0  0  0  0  0
  -28.2602  -38.0101   24.7507 H   0  0  0  0  0  0
  -28.1077  -36.2630   24.6287 H   0  0  0  0  0  0
  -27.2306  -37.1457   25.8871 H   0  0  0  0  0  0
  -20.9384  -29.8756   21.6900 H   0  0  0  0  0  0
  -26.0182  -38.2868   24.1399 H   0  0  0  0  0  0
  -30.0597  -19.5797   22.5159 H   0  0  0  0  0  0
  -30.1422  -19.1976   17.4380 H   0  0  0  0  0  0
  -28.7412  -18.2897   16.6599 H   0  0  0  0  0  0
  -27.6010  -20.4550   16.1768 H   0  0  0  0  0  0
  -29.0066  -21.3648   16.9407 H   0  0  0  0  0  0
  -30.3169  -24.1616   19.2745 H   0  0  0  0  0  0
  -30.4462  -25.3319   20.6802 H   0  0  0  0  0  0
  -30.9802  -17.2290   19.3332 H   0  0  0  0  0  0
  -29.4214  -16.7637   18.5737 H   0  0  0  0  0  0
  -29.1579  -16.7017   22.3866 H   0  0  0  0  0  0
  -30.8121  -17.1669   21.8656 H   0  0  0  0  0  0
  -28.1313  -17.6208   20.4104 H   0  0  0  0  0  0
  -27.1539  -19.2807   18.3670 H   0  0  0  0  0  0
  -28.5929  -24.1723   21.8923 H   0  0  0  0  0  0
  -27.9732  -24.8143   18.8571 H   0  0  0  0  0  0
  -30.5527  -21.5395   23.7119 H   0  0  0  0  0  0
  -29.2030  -22.6663   23.6262 H   0  0  0  0  0  0
  -30.7287  -23.0408   22.8128 H   0  0  0  0  0  0
  1 25  1  0  0  0
  1 30  2  0  0  0
  1 87  1  0  0  0
  2  3  1  0  0  0
  2 25  1  0  0  0
  2 88  1  0  0  0
  2 89  1  0  0  0
  3  4  1  0  0  0
  3 90  1  0  0  0
  3 91  1  0  0  0
  4  5  1  0  0  0
  4 92  1  0  0  0
  4 93  1  0  0  0
  5  6  1  0  0  0
  5 26  1  0  0  0
  5 94  1  0  0  0
  6 25  1  0  0  0
  6 95  1  0  0  0
  6 96  1  0  0  0
  7  8  2  0  0  0
  7 26  1  0  0  0
  7 29  1  0  0  0
  8  9  1  0  0  0
  8 22  1  0  0  0
  9 10  1  0  0  0
  9 27  2  0  0  0
 10 11  2  0  0  0
 10 15  1  0  0  0
 11 12  1  0  0  0
 11 97  1  0  0  0
 12 13  2  0  0  0
 12 98  1  0  0  0
 13 14  1  0  0  0
 13 31  1  0  0  0
 14 15  2  0  0  0
 14 99  1  0  0  0
 15100  1  0  0  0
 16 17  2  0  0  0
 16 21  1  0  0  0
 16 31  1  0  0  0
 17 18  1  0  0  0
 17101  1  0  0  0
 18 19  2  0  0  0
 18102  1  0  0  0
 19 20  1  0  0  0
 19 24  1  0  0  0
 20 21  2  0  0  0
 20103  1  0  0  0
 21 23  1  0  0  0
 22 28  1  0  0  0
 22 32  2  0  0  0
 26 27  1  0  0  0
 28104  1  0  0  0
 28105  1  0  0  0
 29106  1  0  0  0
 29107  1  0  0  0
 33 34  1  0  0  0
 33 66  1  0  0  0
 33 70  2  0  0  0
 34 36  1  0  0  0
 34 59  1  0  0  0
 34108  1  0  0  0
 35 44  2  0  0  0
 35 45  1  0  0  0
 35 68  1  0  0  0
 36 56  1  0  0  0
 36109  1  0  0  0
 37 39  1  0  0  0
 37 47  1  0  0  0
 37 66  1  0  0  0
 37110  1  0  0  0
 38 43  2  0  0  0
 38 46  1  0  0  0
 38 47  1  0  0  0
 39 64  1  0  0  0
 39 67  2  0  0  0
 40 52  1  0  0  0
 40 53  2  0  0  0
 40 58  1  0  0  0
 41111  1  0  0  0
 41112  1  0  0  0
 41113  1  0  0  0
 41 48  1  0  0  0
 42 43  1  0  0  0
 42 66  1  0  0  0
 42114  1  0  0  0
 42115  1  0  0  0
 43 44  1  0  0  0
 44116  1  0  0  0
 45 46  2  0  0  0
 45117  1  0  0  0
 46118  1  0  0  0
 47119  1  0  0  0
 47120  1  0  0  0
 48 56  1  0  0  0
 48 65  1  0  0  0
 48121  1  0  0  0
 49 50  1  0  0  0
 49 53  1  0  0  0
 49 64  1  0  0  0
 49122  1  0  0  0
 50 51  1  0  0  0
 50123  1  0  0  0
 50124  1  0  0  0
 51 52  1  0  0  0
 51125  1  0  0  0
 51126  1  0  0  0
 52127  1  0  0  0
 52128  1  0  0  0
 53 54  1  0  0  0
 54 55  2  0  0  0
 54129  1  0  0  0
 55 57  1  0  0  0
 55130  1  0  0  0
 56 69  2  0  0  0
 57 58  2  0  0  0
 57131  1  0  0  0
 58132  1  0  0  0
 59 60  1  0  0  0
 59 61  1  0  0  0
 59 62  1  0  0  0
 60133  1  0  0  0
 60134  1  0  0  0
 60135  1  0  0  0
 61136  1  0  0  0
 61137  1  0  0  0
 61138  1  0  0  0
 62139  1  0  0  0
 62140  1  0  0  0
 62141  1  0  0  0
 63 65  1  0  0  0
 63142  1  0  0  0
 63143  1  0  0  0
 63144  1  0  0  0
 64145  1  0  0  0
 65146  1  0  0  0
 68 84  1  0  0  0
 71 72  2  0  0  0
 71 73  1  0  0  0
 71147  1  0  0  0
 72 74  1  0  0  0
 72 81  1  0  0  0
 73 75  2  0  0  0
 73 85  1  0  0  0
 74 86  2  0  0  0
 74 82  1  0  0  0
 75 86  1  0  0  0
 75 83  1  0  0  0
 76 77  1  0  0  0
 76 82  1  0  0  0
 76148  1  0  0  0
 76149  1  0  0  0
 77 82  1  0  0  0
 77150  1  0  0  0
 77151  1  0  0  0
 78 83  1  0  0  0
 78 84  1  0  0  0
 78152  1  0  0  0
 78153  1  0  0  0
 79 81  1  0  0  0
 79 87  1  0  0  0
 79154  1  0  0  0
 79155  1  0  0  0
 80 81  1  0  0  0
 80 87  1  0  0  0
 80156  1  0  0  0
 80157  1  0  0  0
 81158  1  0  0  0
 82159  1  0  0  0
 83 84  1  0  0  0
 83160  1  0  0  0
 84161  1  0  0  0
 85162  1  0  0  0
 85163  1  0  0  0
 85164  1  0  0  0
M  ISO  4   1 100  68 101  84 101  87 100
M  END
> <chiral flag>
0

> <version>
0

> <s_m_source_file>
/data/baiqing/PycharmProjects/Reinvent-master-3.2/result/LINK_invent/BTK/process_docking_weight1_custom_sum_contain_oxygen_bond_distance_aromatic_linkinvent_7_9_3/rearranged_h_0168.sdf

> <i_m_source_file_index>
30

> <r_mmod_Potential_Energy-OPLS-2005>
91.7806243896484

> <r_mmod_Stretch_Energy-OPLS-2005>
90.8999481201172

> <r_mmod_Bend_Energy-OPLS-2005>
183.124389648438

> <r_mmod_Torsional_Energy-OPLS-2005>
310.749633789062

> <r_mmod_Improper_Torsional_Energy-OPLS-2005>
17.145622253418

> <r_mmod_Van_der_Waal_Energy-OPLS-2005>
131.655319213867

> <r_mmod_Electrostatic_Energy-OPLS-2005>
-493.645111083984

> <r_mmod_Solvation_Energy-OPLS-2005>
-208.444961547852

> <b_mmod_Minimization_Converged-OPLS-2005>
0

> <r_mmod_RMS_Derivative-OPLS-2005>
1.64133131504059

$$$$
30
                    3D
 Structure written by MMmdl.
167177  0  0  1  0            999 V2000
  -30.6024  -14.9151   20.4220 C   0  0  0  0  0  0
  -30.4389  -12.5696   19.5048 C   0  0  0  0  0  0
  -29.5215  -12.5153   18.2632 C   0  0  0  0  0  0
  -28.0587  -12.3002   18.6899 C   0  0  0  0  0  0
  -27.6338  -13.2470   19.8422 C   0  0  2  0  0  0
  -28.6778  -13.2936   20.9791 C   0  0  0  0  0  0
  -25.2473  -13.8209   20.5719 C   0  0  0  0  0  0
  -24.1781  -13.0449   20.9214 C   0  0  0  0  0  0
  -24.6392  -11.6926   20.8753 C   0  0  0  0  0  0
  -23.9072  -10.4305   21.0408 C   0  0  0  0  0  0
  -24.3612   -9.4219   21.9190 C   0  0  0  0  0  0
  -23.6286   -8.2251   22.0760 C   0  0  0  0  0  0
  -22.4270   -8.0280   21.3549 C   0  0  0  0  0  0
  -21.9915   -9.0254   20.4648 C   0  0  0  0  0  0
  -22.7242  -10.2134   20.3065 C   0  0  0  0  0  0
  -21.6857   -6.0726   22.5273 C   0  0  0  0  0  0
  -21.4011   -6.5632   23.8203 C   0  0  0  0  0  0
  -21.3653   -5.6788   24.9164 C   0  0  0  0  0  0
  -21.6049   -4.3054   24.7223 C   0  0  0  0  0  0
  -21.8817   -3.8142   23.4346 C   0  0  0  0  0  0
  -21.9192   -4.6953   22.3398 C   0  0  0  0  0  0
  -22.7801  -13.5220   21.1863 C   0  0  0  0  0  0
  -22.1663   -4.2139   21.0976 F   0  0  0  0  0  0
  -21.5626   -3.4542   25.7738 F   0  0  0  0  0  0
  -29.9604  -13.6809   20.3748 N   0  0  0  0  0  0
  -26.2912  -12.9448   20.3289 N   0  0  0  0  0  0
  -25.9336  -11.6579   20.5776 N   0  0  0  0  0  0
  -22.0447  -12.8212   22.0410 N   0  0  0  0  0  0
  -25.4207  -15.1927   20.4115 N   0  0  0  0  0  0
  -31.8062  -14.9359   20.1525 O   0  0  0  0  0  0
  -21.6641   -6.8869   21.4235 O   0  0  0  0  0  0
  -22.3500  -14.5541   20.6712 O   0  0  0  0  0  0
  -24.6357  -31.8479   23.1914 C   0  0  0  0  0  0
  -25.9132  -32.4741   23.8280 C   0  0  1  0  0  0
  -27.2096  -27.1647   20.1363 C   0  0  0  0  0  0
  -25.5898  -33.8553   24.2166 N   0  0  0  0  0  0
  -23.4384  -30.4653   21.5405 C   0  0  2  0  0  0
  -24.8859  -28.9014   20.1046 C   0  0  0  0  0  0
  -22.7521  -29.4532   22.4907 C   0  0  0  0  0  0
  -18.0296  -28.1400   22.8473 C   0  0  0  0  0  0
  -24.1479  -36.7297   23.2649 C   0  0  0  0  0  0
  -25.9891  -30.7269   21.3858 C   0  0  0  0  0  0
  -26.0604  -29.3411   20.7272 C   0  0  0  0  0  0
  -27.2188  -28.4831   20.7379 C   0  0  0  0  0  0
  -26.0198  -26.8331   19.4517 C   0  0  0  0  0  0
  -24.8762  -27.6597   19.4531 C   0  0  0  0  0  0
  -23.6598  -29.7968   20.1575 C   0  0  0  0  0  0
  -25.4119  -36.3086   24.0312 C   0  0  1  0  0  0
  -20.5895  -28.3689   23.1288 C   0  0  2  0  0  0
  -20.6790  -26.9411   22.5426 C   0  0  0  0  0  0
  -19.5769  -26.6381   21.5238 C   0  0  0  0  0  0
  -18.1940  -26.7943   22.1622 C   0  0  0  0  0  0
  -19.1556  -28.8862   23.2864 C   0  0  0  0  0  0
  -18.9474  -30.1459   23.8874 C   0  0  0  0  0  0
  -17.6486  -30.6592   24.0548 C   0  0  0  0  0  0
  -25.9067  -34.9453   23.5053 C   0  0  0  0  0  0
  -16.5373  -29.9073   23.6372 C   0  0  0  0  0  0
  -16.7282  -28.6506   23.0367 C   0  0  0  0  0  0
  -26.4452  -31.6622   25.0728 C   0  0  0  0  0  0
  -25.3634  -31.3788   26.1437 C   0  0  0  0  0  0
  -27.0308  -30.3052   24.6218 C   0  0  0  0  0  0
  -27.5998  -32.4381   25.7508 C   0  0  0  0  0  0
  -27.5574  -37.1798   24.8463 C   0  0  0  0  0  0
  -21.4226  -29.3015   22.3664 N   0  0  0  0  0  0
  -26.4288  -37.3792   23.9412 N   0  0  0  0  0  0
  -24.7086  -31.0324   22.0963 N   0  0  0  0  0  0
  -23.4176  -28.8063   23.3028 O   0  0  0  0  0  0
  -28.2638  -26.1911   20.2561 O   0  0  0  0  0  0
  -26.5682  -34.8927   22.4645 O   0  0  0  0  0  0
  -23.5479  -32.1376   23.7130 O   0  0  0  0  0  0
  -30.1077  -19.9836   21.5310 C   0  0  0  0  0  0
  -29.4865  -23.7197   21.9077 C   0  0  0  0  0  0
  -28.6932  -21.0356   19.3486 C   0  0  0  0  0  0
  -29.7514  -21.3919   21.4717 C   0  0  0  0  0  0
  -29.0422  -21.9794   20.3831 C   0  0  0  0  0  0
  -30.0346  -22.4566   22.3917 C   0  0  0  0  0  0
  -28.8592  -23.4862   20.6222 C   0  0  0  0  0  0
  -29.7666  -19.0816   20.4620 C   0  0  0  0  0  0
  -32.2639  -22.0765   23.7368 C   0  0  0  0  0  0
  -31.6932  -23.4075   24.1706 C   0  0  0  0  0  0
  -30.7738  -22.3100   23.6862 C   0  0  0  0  0  0
  -29.6546  -19.1043   17.0667 C   0  0  0  0  0  0
  -28.5538  -24.6908   18.3583 C   0  0  0  0  0  0
  -30.4717  -17.5879   20.3604 C   0  0  0  0  0  0
  -28.6961  -18.8738   18.2450 C   0  0  0  0  0  0
  -28.1254  -24.7075   19.8302 C   0  0  2  0  0  0
  -29.0624  -19.6747   19.4109 N   0  0  0  0  0  0
  -29.9014  -16.1393   20.5499 N   0  0  0  0  0  0
  -31.4735  -12.7081   19.1900 H   0  0  0  0  0  0
  -30.4201  -11.6249   20.0489 H   0  0  0  0  0  0
  -29.8405  -11.7135   17.5968 H   0  0  0  0  0  0
  -29.6080  -13.4425   17.6949 H   0  0  0  0  0  0
  -27.9711  -11.2650   19.0203 H   0  0  0  0  0  0
  -27.3886  -12.4057   17.8367 H   0  0  0  0  0  0
  -27.5968  -14.2440   19.4024 H   0  0  0  0  0  0
  -28.7563  -12.3303   21.4836 H   0  0  0  0  0  0
  -28.3811  -14.0172   21.7400 H   0  0  0  0  0  0
  -25.2751   -9.5687   22.4780 H   0  0  0  0  0  0
  -23.9984   -7.4646   22.7493 H   0  0  0  0  0  0
  -21.0849   -8.8773   19.8961 H   0  0  0  0  0  0
  -22.3700  -10.9668   19.6178 H   0  0  0  0  0  0
  -21.2009   -7.6140   23.9697 H   0  0  0  0  0  0
  -21.1475   -6.0524   25.9062 H   0  0  0  0  0  0
  -22.0605   -2.7608   23.2850 H   0  0  0  0  0  0
  -22.4064  -11.9864   22.4778 H   0  0  0  0  0  0
  -21.1068  -13.1242   22.2628 H   0  0  0  0  0  0
  -24.6581  -15.8529   20.5143 H   0  0  0  0  0  0
  -26.2723  -15.6236   20.0777 H   0  0  0  0  0  0
  -26.7161  -32.5345   23.0979 H   0  0  0  0  0  0
  -24.9962  -33.9666   25.0258 H   0  0  0  0  0  0
  -22.7432  -31.2938   21.3881 H   0  0  0  0  0  0
  -23.3768  -35.9600   23.3318 H   0  0  0  0  0  0
  -24.3576  -36.8953   22.2066 H   0  0  0  0  0  0
  -23.7200  -37.6476   23.6690 H   0  0  0  0  0  0
  -26.1297  -31.4781   20.6085 H   0  0  0  0  0  0
  -26.8684  -30.7909   22.0138 H   0  0  0  0  0  0
  -28.1042  -28.8024   21.2703 H   0  0  0  0  0  0
  -25.9281  -25.9018   18.9189 H   0  0  0  0  0  0
  -23.9822  -27.3227   18.9454 H   0  0  0  0  0  0
  -23.7868  -30.5747   19.4068 H   0  0  0  0  0  0
  -22.7736  -29.2359   19.8517 H   0  0  0  0  0  0
  -25.1291  -36.1934   25.0798 H   0  0  0  0  0  0
  -20.9978  -28.3276   24.1414 H   0  0  0  0  0  0
  -20.5799  -26.2260   23.3613 H   0  0  0  0  0  0
  -21.6637  -26.7500   22.1145 H   0  0  0  0  0  0
  -19.6972  -25.6306   21.1244 H   0  0  0  0  0  0
  -19.6743  -27.3193   20.6782 H   0  0  0  0  0  0
  -17.4230  -26.6717   21.3998 H   0  0  0  0  0  0
  -18.0295  -26.0102   22.9025 H   0  0  0  0  0  0
  -19.7959  -30.7268   24.2229 H   0  0  0  0  0  0
  -17.5043  -31.6289   24.5120 H   0  0  0  0  0  0
  -15.5356  -30.2950   23.7731 H   0  0  0  0  0  0
  -15.8693  -28.0800   22.7100 H   0  0  0  0  0  0
  -24.5843  -30.7097   25.7771 H   0  0  0  0  0  0
  -24.8764  -32.2940   26.4804 H   0  0  0  0  0  0
  -25.7924  -30.9035   27.0267 H   0  0  0  0  0  0
  -26.2882  -29.6856   24.1170 H   0  0  0  0  0  0
  -27.3955  -29.7280   25.4723 H   0  0  0  0  0  0
  -27.8773  -30.4410   23.9489 H   0  0  0  0  0  0
  -27.2618  -33.3730   26.1984 H   0  0  0  0  0  0
  -28.3835  -32.6868   25.0349 H   0  0  0  0  0  0
  -28.0597  -31.8571   26.5510 H   0  0  0  0  0  0
  -28.2558  -38.0120   24.7543 H   0  0  0  0  0  0
  -28.1085  -36.2659   24.6236 H   0  0  0  0  0  0
  -27.2295  -37.1382   25.8860 H   0  0  0  0  0  0
  -20.9436  -29.8759   21.6877 H   0  0  0  0  0  0
  -26.0188  -38.2861   24.1466 H   0  0  0  0  0  0
  -30.6977  -19.6250   22.3642 H   0  0  0  0  0  0
  -29.5376  -24.6753   22.4167 H   0  0  0  0  0  0
  -28.1659  -21.3822   18.4697 H   0  0  0  0  0  0
  -32.6442  -21.4241   24.5199 H   0  0  0  0  0  0
  -32.8028  -22.0365   22.7925 H   0  0  0  0  0  0
  -31.8783  -24.2569   23.5145 H   0  0  0  0  0  0
  -31.6739  -23.6393   25.2333 H   0  0  0  0  0  0
  -30.1694  -21.7822   24.4215 H   0  0  0  0  0  0
  -29.3168  -18.5595   16.1846 H   0  0  0  0  0  0
  -30.6647  -18.7622   17.2924 H   0  0  0  0  0  0
  -29.7135  -20.1579   16.7924 H   0  0  0  0  0  0
  -28.4824  -23.6940   17.9264 H   0  0  0  0  0  0
  -29.5860  -25.0258   18.2468 H   0  0  0  0  0  0
  -27.9330  -25.3542   17.7585 H   0  0  0  0  0  0
  -31.3045  -17.6384   21.0627 H   0  0  0  0  0  0
  -30.9770  -17.5782   19.3931 H   0  0  0  0  0  0
  -28.6563  -17.8142   18.4988 H   0  0  0  0  0  0
  -27.6774  -19.1353   17.9471 H   0  0  0  0  0  0
  -27.0760  -24.4173   19.8888 H   0  0  0  0  0  0
  -28.9126  -16.0755   20.7339 H   0  0  0  0  0  0
  1 25  1  0  0  0
  1 30  2  0  0  0
  1 88  1  0  0  0
  2  3  1  0  0  0
  2 25  1  0  0  0
  2 89  1  0  0  0
  2 90  1  0  0  0
  3  4  1  0  0  0
  3 91  1  0  0  0
  3 92  1  0  0  0
  4  5  1  0  0  0
  4 93  1  0  0  0
  4 94  1  0  0  0
  5  6  1  0  0  0
  5 26  1  0  0  0
  5 95  1  0  0  0
  6 25  1  0  0  0
  6 96  1  0  0  0
  6 97  1  0  0  0
  7  8  2  0  0  0
  7 26  1  0  0  0
  7 29  1  0  0  0
  8  9  1  0  0  0
  8 22  1  0  0  0
  9 10  1  0  0  0
  9 27  2  0  0  0
 10 11  2  0  0  0
 10 15  1  0  0  0
 11 12  1  0  0  0
 11 98  1  0  0  0
 12 13  2  0  0  0
 12 99  1  0  0  0
 13 14  1  0  0  0
 13 31  1  0  0  0
 14 15  2  0  0  0
 14100  1  0  0  0
 15101  1  0  0  0
 16 17  2  0  0  0
 16 21  1  0  0  0
 16 31  1  0  0  0
 17 18  1  0  0  0
 17102  1  0  0  0
 18 19  2  0  0  0
 18103  1  0  0  0
 19 20  1  0  0  0
 19 24  1  0  0  0
 20 21  2  0  0  0
 20104  1  0  0  0
 21 23  1  0  0  0
 22 28  1  0  0  0
 22 32  2  0  0  0
 26 27  1  0  0  0
 28105  1  0  0  0
 28106  1  0  0  0
 29107  1  0  0  0
 29108  1  0  0  0
 33 34  1  0  0  0
 33 66  1  0  0  0
 33 70  2  0  0  0
 34 36  1  0  0  0
 34 59  1  0  0  0
 34109  1  0  0  0
 35 44  2  0  0  0
 35 45  1  0  0  0
 35 68  1  0  0  0
 36 56  1  0  0  0
 36110  1  0  0  0
 37 39  1  0  0  0
 37 47  1  0  0  0
 37 66  1  0  0  0
 37111  1  0  0  0
 38 43  2  0  0  0
 38 46  1  0  0  0
 38 47  1  0  0  0
 39 64  1  0  0  0
 39 67  2  0  0  0
 40 52  1  0  0  0
 40 53  2  0  0  0
 40 58  1  0  0  0
 41112  1  0  0  0
 41113  1  0  0  0
 41114  1  0  0  0
 41 48  1  0  0  0
 42 43  1  0  0  0
 42 66  1  0  0  0
 42115  1  0  0  0
 42116  1  0  0  0
 43 44  1  0  0  0
 44117  1  0  0  0
 45 46  2  0  0  0
 45118  1  0  0  0
 46119  1  0  0  0
 47120  1  0  0  0
 47121  1  0  0  0
 48 56  1  0  0  0
 48 65  1  0  0  0
 48122  1  0  0  0
 49 50  1  0  0  0
 49 53  1  0  0  0
 49 64  1  0  0  0
 49123  1  0  0  0
 50 51  1  0  0  0
 50124  1  0  0  0
 50125  1  0  0  0
 51 52  1  0  0  0
 51126  1  0  0  0
 51127  1  0  0  0
 52128  1  0  0  0
 52129  1  0  0  0
 53 54  1  0  0  0
 54 55  2  0  0  0
 54130  1  0  0  0
 55 57  1  0  0  0
 55131  1  0  0  0
 56 69  2  0  0  0
 57 58  2  0  0  0
 57132  1  0  0  0
 58133  1  0  0  0
 59 60  1  0  0  0
 59 61  1  0  0  0
 59 62  1  0  0  0
 60134  1  0  0  0
 60135  1  0  0  0
 60136  1  0  0  0
 61137  1  0  0  0
 61138  1  0  0  0
 61139  1  0  0  0
 62140  1  0  0  0
 62141  1  0  0  0
 62142  1  0  0  0
 63 65  1  0  0  0
 63143  1  0  0  0
 63144  1  0  0  0
 63145  1  0  0  0
 64146  1  0  0  0
 65147  1  0  0  0
 68 86  1  0  0  0
 71 74  1  0  0  0
 71 78  2  0  0  0
 71148  1  0  0  0
 72 76  1  0  0  0
 72 77  2  0  0  0
 72149  1  0  0  0
 73 75  2  0  0  0
 73 87  1  0  0  0
 73150  1  0  0  0
 74 75  1  0  0  0
 74 76  2  0  0  0
 75 77  1  0  0  0
 76 81  1  0  0  0
 77 86  1  0  0  0
 78 84  1  0  0  0
 78 87  1  0  0  0
 79 80  1  0  0  0
 79 81  1  0  0  0
 79151  1  0  0  0
 79152  1  0  0  0
 80 81  1  0  0  0
 80153  1  0  0  0
 80154  1  0  0  0
 81155  1  0  0  0
 82 85  1  0  0  0
 82156  1  0  0  0
 82157  1  0  0  0
 82158  1  0  0  0
 83159  1  0  0  0
 83160  1  0  0  0
 83161  1  0  0  0
 83 86  1  0  0  0
 84 88  1  0  0  0
 84162  1  0  0  0
 84163  1  0  0  0
 85 87  1  0  0  0
 85164  1  0  0  0
 85165  1  0  0  0
 86166  1  0  0  0
 88167  1  0  0  0
M  ISO  4   1 100  68 101  86 101  88 100
M  END
> <chiral flag>
0

> <version>
0

> <s_m_source_file>
/data/baiqing/PycharmProjects/Reinvent-master-3.2/result/LINK_invent/BTK/process_docking_weight1_custom_sum_contain_oxygen_bond_distance_aromatic_linkinvent_7_9_3/rearranged_h_0168.sdf

> <i_m_source_file_index>
31

> <r_mmod_Potential_Energy-OPLS-2005>
430.778747558594

> <r_mmod_Stretch_Energy-OPLS-2005>
209.319000244141

> <r_mmod_Bend_Energy-OPLS-2005>
323.066833496094

> <r_mmod_Torsional_Energy-OPLS-2005>
250.919036865234

> <r_mmod_Improper_Torsional_Energy-OPLS-2005>
6.84915542602539

> <r_mmod_Van_der_Waal_Energy-OPLS-2005>
124.693801879883

> <r_mmod_Electrostatic_Energy-OPLS-2005>
-443.480255126953

> <r_mmod_Solvation_Energy-OPLS-2005>
-213.466995239258

> <b_mmod_Minimization_Converged-OPLS-2005>
0

> <r_mmod_RMS_Derivative-OPLS-2005>
3.66983461380005

$$$$
31
                    3D
 Structure written by MMmdl.
165175  0  0  1  0            999 V2000
  -30.5802  -14.7111   20.4561 C   0  0  0  0  0  0
  -30.4368  -12.4262   19.4536 C   0  0  0  0  0  0
  -29.5073  -12.5075   18.2207 C   0  0  0  0  0  0
  -28.0306  -12.3383   18.6324 C   0  0  0  0  0  0
  -27.6436  -13.2169   19.8509 C   0  0  2  0  0  0
  -28.6908  -13.1063   20.9819 C   0  0  0  0  0  0
  -25.2526  -13.8155   20.5649 C   0  0  0  0  0  0
  -24.1805  -13.0421   20.9195 C   0  0  0  0  0  0
  -24.6369  -11.6899   20.8742 C   0  0  0  0  0  0
  -23.9043  -10.4284   21.0415 C   0  0  0  0  0  0
  -24.3610   -9.4201   21.9178 C   0  0  0  0  0  0
  -23.6286   -8.2235   22.0739 C   0  0  0  0  0  0
  -22.4263   -8.0277   21.3540 C   0  0  0  0  0  0
  -21.9905   -9.0235   20.4630 C   0  0  0  0  0  0
  -22.7225  -10.2122   20.3048 C   0  0  0  0  0  0
  -21.6859   -6.0716   22.5261 C   0  0  0  0  0  0
  -21.4026   -6.5620   23.8198 C   0  0  0  0  0  0
  -21.3669   -5.6784   24.9159 C   0  0  0  0  0  0
  -21.6041   -4.3045   24.7217 C   0  0  0  0  0  0
  -21.8830   -3.8129   23.4342 C   0  0  0  0  0  0
  -21.9212   -4.6940   22.3400 C   0  0  0  0  0  0
  -22.7838  -13.5210   21.1871 C   0  0  0  0  0  0
  -22.1677   -4.2118   21.0979 F   0  0  0  0  0  0
  -21.5629   -3.4539   25.7727 F   0  0  0  0  0  0
  -29.9959  -13.4661   20.4061 N   0  0  0  0  0  0
  -26.2932  -12.9327   20.3238 N   0  0  0  0  0  0
  -25.9289  -11.6490   20.5709 N   0  0  0  0  0  0
  -22.0532  -12.8159   22.0434 N   0  0  0  0  0  0
  -25.4226  -15.1870   20.4009 N   0  0  0  0  0  0
  -31.7743  -14.8537   20.1711 O   0  0  0  0  0  0
  -21.6648   -6.8859   21.4226 O   0  0  0  0  0  0
  -22.3520  -14.5534   20.6754 O   0  0  0  0  0  0
  -24.6265  -31.8584   23.1999 C   0  0  0  0  0  0
  -25.9102  -32.4770   23.8357 C   0  0  1  0  0  0
  -27.2236  -27.2931   20.1214 C   0  0  0  0  0  0
  -25.5913  -33.8577   24.2276 N   0  0  0  0  0  0
  -23.4220  -30.4804   21.5453 C   0  0  2  0  0  0
  -24.8669  -28.9223   20.1178 C   0  0  0  0  0  0
  -22.7476  -29.4633   22.4956 C   0  0  0  0  0  0
  -18.0286  -28.1376   22.8479 C   0  0  0  0  0  0
  -24.1493  -36.7306   23.2633 C   0  0  0  0  0  0
  -25.9651  -30.7806   21.3728 C   0  0  0  0  0  0
  -26.0407  -29.4054   20.7138 C   0  0  0  0  0  0
  -27.2231  -28.6043   20.6989 C   0  0  0  0  0  0
  -26.0268  -26.8634   19.5081 C   0  0  0  0  0  0
  -24.8622  -27.6566   19.5093 C   0  0  0  0  0  0
  -23.6377  -29.8082   20.1638 C   0  0  0  0  0  0
  -25.4117  -36.3093   24.0334 C   0  0  1  0  0  0
  -20.5877  -28.3708   23.1278 C   0  0  2  0  0  0
  -20.6769  -26.9422   22.5416 C   0  0  0  0  0  0
  -19.5760  -26.6368   21.5209 C   0  0  0  0  0  0
  -18.1936  -26.7919   22.1605 C   0  0  0  0  0  0
  -19.1532  -28.8862   23.2872 C   0  0  0  0  0  0
  -18.9448  -30.1461   23.8891 C   0  0  0  0  0  0
  -17.6453  -30.6591   24.0568 C   0  0  0  0  0  0
  -25.9060  -34.9453   23.5109 C   0  0  0  0  0  0
  -16.5351  -29.9087   23.6320 C   0  0  0  0  0  0
  -16.7275  -28.6496   23.0356 C   0  0  0  0  0  0
  -26.4463  -31.6589   25.0744 C   0  0  0  0  0  0
  -25.3673  -31.3734   26.1456 C   0  0  0  0  0  0
  -27.0319  -30.3007   24.6246 C   0  0  0  0  0  0
  -27.6036  -32.4301   25.7512 C   0  0  0  0  0  0
  -27.5606  -37.1794   24.8453 C   0  0  0  0  0  0
  -21.4194  -29.3068   22.3700 N   0  0  0  0  0  0
  -26.4296  -37.3793   23.9418 N   0  0  0  0  0  0
  -24.6911  -31.0559   22.0968 N   0  0  0  0  0  0
  -23.4180  -28.8183   23.3057 O   0  0  0  0  0  0
  -28.3306  -26.4248   20.1549 O   0  0  0  0  0  0
  -26.5662  -34.8923   22.4691 O   0  0  0  0  0  0
  -23.5417  -32.1430   23.7303 O   0  0  0  0  0  0
  -28.8407  -19.3322   19.5342 C   0  0  0  0  0  0
  -28.8598  -17.9086   19.6574 C   0  0  0  0  0  0
  -29.7386  -20.1476   20.2645 C   0  0  0  0  0  0
  -30.6060  -19.3986   21.1252 C   0  0  0  0  0  0
  -29.8014  -17.2301   20.4761 C   0  0  0  0  0  0
  -32.8491  -20.7034   21.6387 C   0  0  0  0  0  0
  -32.8763  -19.4396   22.4533 C   0  0  0  0  0  0
  -28.1985  -23.8733   19.3343 C   0  0  0  0  0  0
  -29.2485  -24.1621   21.0785 C   0  0  0  0  0  0
  -31.5473  -20.0709   22.0868 C   0  0  0  0  0  0
  -28.7970  -22.8341   20.3677 C   0  0  2  0  0  0
  -28.0873  -24.9763   20.4366 C   0  0  1  0  0  0
  -32.0473  -20.7200   17.8247 C   0  0  0  0  0  0
  -29.8871  -21.7151   19.9859 C   0  0  2  0  0  0
  -30.6294  -18.0211   21.2110 N   0  0  0  0  0  0
  -29.6968  -15.7661   20.5811 N   0  0  0  0  0  0
  -31.6585  -21.9496   18.4086 O   0  0  0  0  0  0
  -30.1701  -21.9279   18.6072 O   0  0  0  0  0  0
  -31.4761  -12.5587   19.1495 H   0  0  0  0  0  0
  -30.3749  -11.4389   19.9148 H   0  0  0  0  0  0
  -29.7777  -11.7472   17.4866 H   0  0  0  0  0  0
  -29.6342  -13.4696   17.7227 H   0  0  0  0  0  0
  -27.8736  -11.2858   18.8708 H   0  0  0  0  0  0
  -27.3747  -12.5578   17.7890 H   0  0  0  0  0  0
  -27.6460  -14.2425   19.4877 H   0  0  0  0  0  0
  -28.7171  -12.0891   21.3784 H   0  0  0  0  0  0
  -28.4305  -13.7513   21.8242 H   0  0  0  0  0  0
  -25.2776   -9.5662   22.4719 H   0  0  0  0  0  0
  -24.0003   -7.4623   22.7460 H   0  0  0  0  0  0
  -21.0839   -8.8736   19.8932 H   0  0  0  0  0  0
  -22.3688  -10.9643   19.6130 H   0  0  0  0  0  0
  -21.2025   -7.6133   23.9673 H   0  0  0  0  0  0
  -21.1478   -6.0526   25.9056 H   0  0  0  0  0  0
  -22.0614   -2.7584   23.2847 H   0  0  0  0  0  0
  -22.4210  -11.9801   22.4732 H   0  0  0  0  0  0
  -21.1143  -13.1101   22.2706 H   0  0  0  0  0  0
  -24.6440  -15.8307   20.4922 H   0  0  0  0  0  0
  -26.2400  -15.6179   19.9921 H   0  0  0  0  0  0
  -26.7194  -32.5427   23.1126 H   0  0  0  0  0  0
  -24.9984  -33.9723   25.0377 H   0  0  0  0  0  0
  -22.7181  -31.3037   21.3994 H   0  0  0  0  0  0
  -23.3775  -35.9612   23.3243 H   0  0  0  0  0  0
  -24.3602  -36.8987   22.2058 H   0  0  0  0  0  0
  -23.7225  -37.6479   23.6701 H   0  0  0  0  0  0
  -26.0972  -31.5386   20.6017 H   0  0  0  0  0  0
  -26.8426  -30.8284   22.0064 H   0  0  0  0  0  0
  -28.1263  -28.9684   21.1707 H   0  0  0  0  0  0
  -25.9806  -25.8917   19.0392 H   0  0  0  0  0  0
  -23.9574  -27.2740   19.0546 H   0  0  0  0  0  0
  -23.7712  -30.5834   19.4085 H   0  0  0  0  0  0
  -22.7513  -29.2474   19.8603 H   0  0  0  0  0  0
  -25.1287  -36.1936   25.0832 H   0  0  0  0  0  0
  -20.9962  -28.3265   24.1403 H   0  0  0  0  0  0
  -20.5621  -26.2328   23.3622 H   0  0  0  0  0  0
  -21.6649  -26.7431   22.1243 H   0  0  0  0  0  0
  -19.6922  -25.6261   21.1282 H   0  0  0  0  0  0
  -19.6700  -27.3143   20.6703 H   0  0  0  0  0  0
  -17.4207  -26.6681   21.4010 H   0  0  0  0  0  0
  -18.0335  -26.0064   22.8991 H   0  0  0  0  0  0
  -19.7929  -30.7282   24.2252 H   0  0  0  0  0  0
  -17.5012  -31.6263   24.5178 H   0  0  0  0  0  0
  -15.5352  -30.2992   23.7653 H   0  0  0  0  0  0
  -15.8669  -28.0824   22.7069 H   0  0  0  0  0  0
  -24.5856  -30.7083   25.7770 H   0  0  0  0  0  0
  -24.8834  -32.2886   26.4876 H   0  0  0  0  0  0
  -25.7948  -30.8909   27.0255 H   0  0  0  0  0  0
  -26.2934  -29.6746   24.1227 H   0  0  0  0  0  0
  -27.3956  -29.7273   25.4788 H   0  0  0  0  0  0
  -27.8820  -30.4301   23.9544 H   0  0  0  0  0  0
  -27.2702  -33.3607   26.2135 H   0  0  0  0  0  0
  -28.3834  -32.6850   25.0316 H   0  0  0  0  0  0
  -28.0750  -31.8396   26.5394 H   0  0  0  0  0  0
  -28.2562  -38.0150   24.7561 H   0  0  0  0  0  0
  -28.1163  -36.2676   24.6179 H   0  0  0  0  0  0
  -27.2343  -37.1334   25.8860 H   0  0  0  0  0  0
  -20.9375  -29.8849   21.6972 H   0  0  0  0  0  0
  -26.0171  -38.2862   24.1429 H   0  0  0  0  0  0
  -28.1456  -19.7935   18.8462 H   0  0  0  0  0  0
  -28.1427  -17.3357   19.0875 H   0  0  0  0  0  0
  -33.1272  -20.6252   20.5903 H   0  0  0  0  0  0
  -33.1629  -21.6161   22.1406 H   0  0  0  0  0  0
  -33.1917  -19.5171   23.4917 H   0  0  0  0  0  0
  -33.1730  -18.5273   21.9394 H   0  0  0  0  0  0
  -27.2430  -23.5787   18.8949 H   0  0  0  0  0  0
  -28.9034  -24.1534   18.5495 H   0  0  0  0  0  0
  -30.2254  -24.5055   20.7326 H   0  0  0  0  0  0
  -29.2248  -24.1227   22.1680 H   0  0  0  0  0  0
  -30.9898  -20.5715   22.8766 H   0  0  0  0  0  0
  -27.9927  -22.3989   20.9633 H   0  0  0  0  0  0
  -27.1778  -24.8357   21.0254 H   0  0  0  0  0  0
  -31.8942  -19.8888   18.5116 H   0  0  0  0  0  0
  -33.1062  -20.7453   17.5601 H   0  0  0  0  0  0
  -31.4779  -20.5296   16.9164 H   0  0  0  0  0  0
  -30.7851  -22.0179   20.5221 H   0  0  0  0  0  0
  -28.7468  -15.4375   20.6159 H   0  0  0  0  0  0
  1 25  1  0  0  0
  1 30  2  0  0  0
  1 86  1  0  0  0
  2  3  1  0  0  0
  2 25  1  0  0  0
  2 89  1  0  0  0
  2 90  1  0  0  0
  3  4  1  0  0  0
  3 91  1  0  0  0
  3 92  1  0  0  0
  4  5  1  0  0  0
  4 93  1  0  0  0
  4 94  1  0  0  0
  5  6  1  0  0  0
  5 26  1  0  0  0
  5 95  1  0  0  0
  6 25  1  0  0  0
  6 96  1  0  0  0
  6 97  1  0  0  0
  7  8  2  0  0  0
  7 26  1  0  0  0
  7 29  1  0  0  0
  8  9  1  0  0  0
  8 22  1  0  0  0
  9 10  1  0  0  0
  9 27  2  0  0  0
 10 11  2  0  0  0
 10 15  1  0  0  0
 11 12  1  0  0  0
 11 98  1  0  0  0
 12 13  2  0  0  0
 12 99  1  0  0  0
 13 14  1  0  0  0
 13 31  1  0  0  0
 14 15  2  0  0  0
 14100  1  0  0  0
 15101  1  0  0  0
 16 17  2  0  0  0
 16 21  1  0  0  0
 16 31  1  0  0  0
 17 18  1  0  0  0
 17102  1  0  0  0
 18 19  2  0  0  0
 18103  1  0  0  0
 19 20  1  0  0  0
 19 24  1  0  0  0
 20 21  2  0  0  0
 20104  1  0  0  0
 21 23  1  0  0  0
 22 28  1  0  0  0
 22 32  2  0  0  0
 26 27  1  0  0  0
 28105  1  0  0  0
 28106  1  0  0  0
 29107  1  0  0  0
 29108  1  0  0  0
 33 34  1  0  0  0
 33 66  1  0  0  0
 33 70  2  0  0  0
 34 36  1  0  0  0
 34 59  1  0  0  0
 34109  1  0  0  0
 35 44  2  0  0  0
 35 45  1  0  0  0
 35 68  1  0  0  0
 36 56  1  0  0  0
 36110  1  0  0  0
 37 39  1  0  0  0
 37 47  1  0  0  0
 37 66  1  0  0  0
 37111  1  0  0  0
 38 43  2  0  0  0
 38 46  1  0  0  0
 38 47  1  0  0  0
 39 64  1  0  0  0
 39 67  2  0  0  0
 40 52  1  0  0  0
 40 53  2  0  0  0
 40 58  1  0  0  0
 41112  1  0  0  0
 41113  1  0  0  0
 41114  1  0  0  0
 41 48  1  0  0  0
 42 43  1  0  0  0
 42 66  1  0  0  0
 42115  1  0  0  0
 42116  1  0  0  0
 43 44  1  0  0  0
 44117  1  0  0  0
 45 46  2  0  0  0
 45118  1  0  0  0
 46119  1  0  0  0
 47120  1  0  0  0
 47121  1  0  0  0
 48 56  1  0  0  0
 48 65  1  0  0  0
 48122  1  0  0  0
 49 50  1  0  0  0
 49 53  1  0  0  0
 49 64  1  0  0  0
 49123  1  0  0  0
 50 51  1  0  0  0
 50124  1  0  0  0
 50125  1  0  0  0
 51 52  1  0  0  0
 51126  1  0  0  0
 51127  1  0  0  0
 52128  1  0  0  0
 52129  1  0  0  0
 53 54  1  0  0  0
 54 55  2  0  0  0
 54130  1  0  0  0
 55 57  1  0  0  0
 55131  1  0  0  0
 56 69  2  0  0  0
 57 58  2  0  0  0
 57132  1  0  0  0
 58133  1  0  0  0
 59 60  1  0  0  0
 59 61  1  0  0  0
 59 62  1  0  0  0
 60134  1  0  0  0
 60135  1  0  0  0
 60136  1  0  0  0
 61137  1  0  0  0
 61138  1  0  0  0
 61139  1  0  0  0
 62140  1  0  0  0
 62141  1  0  0  0
 62142  1  0  0  0
 63 65  1  0  0  0
 63143  1  0  0  0
 63144  1  0  0  0
 63145  1  0  0  0
 64146  1  0  0  0
 65147  1  0  0  0
 68 82  1  0  0  0
 71 72  2  0  0  0
 71 73  1  0  0  0
 71148  1  0  0  0
 72 75  1  0  0  0
 72149  1  0  0  0
 73 74  2  0  0  0
 73 84  1  0  0  0
 74 85  1  0  0  0
 74 80  1  0  0  0
 75 85  2  0  0  0
 75 86  1  0  0  0
 76 77  1  0  0  0
 76 80  1  0  0  0
 76150  1  0  0  0
 76151  1  0  0  0
 77 80  1  0  0  0
 77152  1  0  0  0
 77153  1  0  0  0
 78 82  1  0  0  0
 78154  1  0  0  0
 78155  1  0  0  0
 78 81  1  0  0  0
 79 81  1  0  0  0
 79 82  1  0  0  0
 79156  1  0  0  0
 79157  1  0  0  0
 80158  1  0  0  0
 81 84  1  0  0  0
 81159  1  0  0  0
 82160  1  0  0  0
 83 87  1  0  0  0
 83161  1  0  0  0
 83162  1  0  0  0
 83163  1  0  0  0
 84 88  1  0  0  0
 84164  1  0  0  0
 86165  1  0  0  0
 87 88  1  0  0  0
M  ISO  4   1 100  68 101  82 101  86 100
M  END
> <chiral flag>
0

> <version>
0

> <s_m_source_file>
/data/baiqing/PycharmProjects/Reinvent-master-3.2/result/LINK_invent/BTK/process_docking_weight1_custom_sum_contain_oxygen_bond_distance_aromatic_linkinvent_7_9_3/rearranged_h_0168.sdf

> <i_m_source_file_index>
32

> <r_mmod_Potential_Energy-OPLS-2005>
12.0335445404053

> <r_mmod_Stretch_Energy-OPLS-2005>
98.0204772949219

> <r_mmod_Bend_Energy-OPLS-2005>
182.051834106445

> <r_mmod_Torsional_Energy-OPLS-2005>
286.840454101562

> <r_mmod_Improper_Torsional_Energy-OPLS-2005>
8.30370140075684

> <r_mmod_Van_der_Waal_Energy-OPLS-2005>
130.028533935547

> <r_mmod_Electrostatic_Energy-OPLS-2005>
-532.000244140625

> <r_mmod_Solvation_Energy-OPLS-2005>
-230.498031616211

> <b_mmod_Minimization_Converged-OPLS-2005>
0

> <r_mmod_RMS_Derivative-OPLS-2005>
3.58152079582214

$$$$
32
                    3D
 Structure written by MMmdl.
178187  0  0  1  0            999 V2000
  -30.6097  -14.8163   20.3773 C   0  0  0  0  0  0
  -30.4598  -12.5001   19.4558 C   0  0  0  0  0  0
  -29.5297  -12.5169   18.2327 C   0  0  0  0  0  0
  -28.0541  -12.3325   18.6517 C   0  0  0  0  0  0
  -27.6480  -13.2370   19.8480 C   0  0  2  0  0  0
  -28.7078  -13.2197   20.9713 C   0  0  0  0  0  0
  -25.2545  -13.8104   20.5966 C   0  0  0  0  0  0
  -24.1813  -13.0362   20.9269 C   0  0  0  0  0  0
  -24.6421  -11.6863   20.8721 C   0  0  0  0  0  0
  -23.9114  -10.4256   21.0354 C   0  0  0  0  0  0
  -24.3677   -9.4162   21.9135 C   0  0  0  0  0  0
  -23.6327   -8.2210   22.0731 C   0  0  0  0  0  0
  -22.4279   -8.0257   21.3546 C   0  0  0  0  0  0
  -21.9954   -9.0219   20.4617 C   0  0  0  0  0  0
  -22.7290  -10.2081   20.2995 C   0  0  0  0  0  0
  -21.6851   -6.0758   22.5284 C   0  0  0  0  0  0
  -21.4018   -6.5674   23.8208 C   0  0  0  0  0  0
  -21.3626   -5.6798   24.9150 C   0  0  0  0  0  0
  -21.6034   -4.3067   24.7190 C   0  0  0  0  0  0
  -21.8826   -3.8165   23.4307 C   0  0  0  0  0  0
  -21.9208   -4.7004   22.3373 C   0  0  0  0  0  0
  -22.7824  -13.5111   21.1902 C   0  0  0  0  0  0
  -22.1672   -4.2194   21.0942 F   0  0  0  0  0  0
  -21.5603   -3.4537   25.7692 F   0  0  0  0  0  0
  -30.0023  -13.5770   20.3642 N   0  0  0  0  0  0
  -26.3021  -12.9391   20.3400 N   0  0  0  0  0  0
  -25.9342  -11.6536   20.5686 N   0  0  0  0  0  0
  -22.0446  -12.8156   22.0481 N   0  0  0  0  0  0
  -25.4123  -15.1852   20.4762 N   0  0  0  0  0  0
  -31.8262  -14.8841   20.1698 O   0  0  0  0  0  0
  -21.6592   -6.8921   21.4251 O   0  0  0  0  0  0
  -22.3461  -14.5336   20.6548 O   0  0  0  0  0  0
  -24.6303  -31.8551   23.1978 C   0  0  0  0  0  0
  -25.9106  -32.4791   23.8373 C   0  0  1  0  0  0
  -27.2653  -27.2827   20.1267 C   0  0  0  0  0  0
  -25.5928  -33.8614   24.2266 N   0  0  0  0  0  0
  -23.4325  -30.4706   21.5406 C   0  0  2  0  0  0
  -24.8959  -28.9219   20.1165 C   0  0  0  0  0  0
  -22.7541  -29.4586   22.4976 C   0  0  0  0  0  0
  -18.0189  -28.1539   22.8584 C   0  0  0  0  0  0
  -24.1506  -36.7228   23.2663 C   0  0  0  0  0  0
  -25.9819  -30.7778   21.3775 C   0  0  0  0  0  0
  -26.0672  -29.4001   20.7167 C   0  0  0  0  0  0
  -27.2506  -28.5960   20.7055 C   0  0  0  0  0  0
  -26.0607  -26.8728   19.5025 C   0  0  0  0  0  0
  -24.8971  -27.6630   19.4998 C   0  0  0  0  0  0
  -23.6545  -29.7842   20.1691 C   0  0  0  0  0  0
  -25.4145  -36.3071   24.0338 C   0  0  1  0  0  0
  -20.5872  -28.3771   23.1367 C   0  0  2  0  0  0
  -20.6734  -26.9397   22.5695 C   0  0  0  0  0  0
  -19.5610  -26.6266   21.5581 C   0  0  0  0  0  0
  -18.1775  -26.7934   22.2011 C   0  0  0  0  0  0
  -19.1518  -28.8945   23.2928 C   0  0  0  0  0  0
  -18.9464  -30.1515   23.9004 C   0  0  0  0  0  0
  -17.6464  -30.6660   24.0791 C   0  0  0  0  0  0
  -25.9080  -34.9467   23.5116 C   0  0  0  0  0  0
  -16.5346  -29.9240   23.6569 C   0  0  0  0  0  0
  -16.7178  -28.6697   23.0500 C   0  0  0  0  0  0
  -26.4501  -31.6593   25.0720 C   0  0  0  0  0  0
  -25.3758  -31.3737   26.1432 C   0  0  0  0  0  0
  -27.0453  -30.2989   24.6284 C   0  0  0  0  0  0
  -27.6042  -32.4411   25.7487 C   0  0  0  0  0  0
  -27.5593  -37.1744   24.8489 C   0  0  0  0  0  0
  -21.4235  -29.3025   22.3694 N   0  0  0  0  0  0
  -26.4308  -37.3758   23.9423 N   0  0  0  0  0  0
  -24.7008  -31.0537   22.0948 N   0  0  0  0  0  0
  -23.4246  -28.8232   23.3146 O   0  0  0  0  0  0
  -28.3872  -26.4099   20.1766 O   0  0  0  0  0  0
  -26.5646  -34.8943   22.4686 O   0  0  0  0  0  0
  -23.5426  -32.1301   23.7287 O   0  0  0  0  0  0
  -29.0507  -18.3143   19.7101 C   0  0  0  0  0  0
  -27.7503  -17.9891   20.1499 C   0  0  0  0  0  0
  -27.6072  -18.0188   21.5649 C   0  0  0  0  0  0
  -28.7922  -18.0822   22.3600 C   0  0  0  0  0  0
  -30.0458  -17.8005   21.7304 C   0  0  0  0  0  0
  -30.0151  -17.4352   20.3694 C   0  0  0  0  0  0
  -27.8404  -22.0020   19.1487 C   0  0  0  0  0  0
  -29.2287  -19.8647   19.2221 C   0  0  1  0  0  0
  -27.9238  -20.5420   18.6558 C   0  0  2  0  0  0
  -29.7453  -21.0846   20.1429 C   0  0  1  0  0  0
  -26.6167  -17.7146   19.1515 C   0  0  0  0  0  0
  -26.2366  -18.0594   22.2205 C   0  0  0  0  0  0
  -28.6997  -18.3374   23.8562 C   0  0  0  0  0  0
  -31.3440  -17.6669   22.5025 C   0  0  0  0  0  0
  -27.7596  -20.4753   17.1174 C   0  0  0  0  0  0
  -31.2810  -21.1221   20.2159 C   0  0  0  0  0  0
  -29.2799  -23.7775   20.2612 C   0  0  0  0  0  0
  -28.2544  -24.9559   19.7970 C   0  0  0  0  0  0
  -29.7925  -15.9449   20.3100 N   0  0  0  0  0  0
  -29.1888  -22.3945   19.5601 N   0  3  2  0  0  0
  -31.4884  -12.6408   19.1254 H   0  0  0  0  0  0
  -30.4323  -11.5280   19.9433 H   0  0  0  0  0  0
  -29.8285  -11.7378   17.5340 H   0  0  0  0  0  0
  -29.6488  -13.4642   17.7006 H   0  0  0  0  0  0
  -27.9031  -11.2851   18.9098 H   0  0  0  0  0  0
  -27.4045  -12.5235   17.7992 H   0  0  0  0  0  0
  -27.6287  -14.2512   19.4551 H   0  0  0  0  0  0
  -28.7615  -12.2356   21.4409 H   0  0  0  0  0  0
  -28.4367  -13.9290   21.7574 H   0  0  0  0  0  0
  -25.2848   -9.5660   22.4683 H   0  0  0  0  0  0
  -23.9982   -7.4643   22.7537 H   0  0  0  0  0  0
  -21.0847   -8.8772   19.8985 H   0  0  0  0  0  0
  -22.3757  -10.9597   19.6070 H   0  0  0  0  0  0
  -21.2000   -7.6173   23.9729 H   0  0  0  0  0  0
  -21.1448   -6.0514   25.9063 H   0  0  0  0  0  0
  -22.0644   -2.7644   23.2771 H   0  0  0  0  0  0
  -22.3975  -11.9689   22.4714 H   0  0  0  0  0  0
  -21.1015  -13.1161   22.2630 H   0  0  0  0  0  0
  -24.6542  -15.8288   20.6701 H   0  0  0  0  0  0
  -26.2989  -15.6572   20.3757 H   0  0  0  0  0  0
  -26.7238  -32.5418   23.1186 H   0  0  0  0  0  0
  -25.0028  -33.9877   25.0352 H   0  0  0  0  0  0
  -22.7254  -31.2890   21.3804 H   0  0  0  0  0  0
  -23.3814  -35.9517   23.3335 H   0  0  0  0  0  0
  -24.3584  -36.8812   22.2077 H   0  0  0  0  0  0
  -23.7205  -37.6414   23.6657 H   0  0  0  0  0  0
  -26.1177  -31.5477   20.6153 H   0  0  0  0  0  0
  -26.8537  -30.8210   22.0173 H   0  0  0  0  0  0
  -28.1518  -28.9685   21.1771 H   0  0  0  0  0  0
  -25.9758  -25.9081   19.0386 H   0  0  0  0  0  0
  -24.0047  -27.2728   19.0336 H   0  0  0  0  0  0
  -23.7376  -30.5303   19.3763 H   0  0  0  0  0  0
  -22.7908  -29.1725   19.9070 H   0  0  0  0  0  0
  -25.1317  -36.1951   25.0824 H   0  0  0  0  0  0
  -20.9958  -28.3575   24.1492 H   0  0  0  0  0  0
  -20.5623  -26.2435   23.4002 H   0  0  0  0  0  0
  -21.6610  -26.7324   22.1513 H   0  0  0  0  0  0
  -19.6709  -25.6101   21.1764 H   0  0  0  0  0  0
  -19.6590  -27.2911   20.7061 H   0  0  0  0  0  0
  -17.3819  -26.6460   21.4662 H   0  0  0  0  0  0
  -18.0224  -26.0367   22.9757 H   0  0  0  0  0  0
  -19.7976  -30.7260   24.2428 H   0  0  0  0  0  0
  -17.4973  -31.6234   24.5608 H   0  0  0  0  0  0
  -15.5353  -30.3139   23.8034 H   0  0  0  0  0  0
  -15.8522  -28.1087   22.7328 H   0  0  0  0  0  0
  -24.5908  -30.7102   25.7751 H   0  0  0  0  0  0
  -24.8962  -32.2892   26.4940 H   0  0  0  0  0  0
  -25.8129  -30.8855   27.0140 H   0  0  0  0  0  0
  -26.3134  -29.6599   24.1314 H   0  0  0  0  0  0
  -27.4190  -29.7304   25.4832 H   0  0  0  0  0  0
  -27.8975  -30.4295   23.9612 H   0  0  0  0  0  0
  -27.2633  -33.3738   26.2002 H   0  0  0  0  0  0
  -28.3880  -32.6980   25.0340 H   0  0  0  0  0  0
  -28.0660  -31.8551   26.5420 H   0  0  0  0  0  0
  -28.2621  -38.0027   24.7539 H   0  0  0  0  0  0
  -28.1062  -36.2554   24.6330 H   0  0  0  0  0  0
  -27.2300  -37.1437   25.8885 H   0  0  0  0  0  0
  -20.9326  -29.8587   21.6822 H   0  0  0  0  0  0
  -26.0200  -38.2842   24.1396 H   0  0  0  0  0  0
  -27.2005  -22.0518   20.0328 H   0  0  0  0  0  0
  -27.4115  -22.6743   18.4058 H   0  0  0  0  0  0
  -29.9378  -19.8136   18.3948 H   0  0  0  0  0  0
  -27.0291  -20.1429   19.1157 H   0  0  0  0  0  0
  -29.3450  -20.9557   21.1492 H   0  0  0  0  0  0
  -26.6505  -16.6672   18.8641 H   0  0  0  0  0  0
  -26.7509  -18.2325   18.2116 H   0  0  0  0  0  0
  -25.6143  -17.9458   19.5174 H   0  0  0  0  0  0
  -26.2375  -17.5565   23.1898 H   0  0  0  0  0  0
  -25.4806  -17.5534   21.6378 H   0  0  0  0  0  0
  -25.9262  -19.0975   22.3458 H   0  0  0  0  0  0
  -29.5988  -18.8315   24.2272 H   0  0  0  0  0  0
  -27.8774  -19.0108   24.0995 H   0  0  0  0  0  0
  -28.5349  -17.3968   24.3882 H   0  0  0  0  0  0
  -32.1488  -17.3059   21.8581 H   0  0  0  0  0  0
  -31.6472  -18.6320   22.9112 H   0  0  0  0  0  0
  -31.2298  -16.9485   23.3138 H   0  0  0  0  0  0
  -26.7721  -20.8535   16.8520 H   0  0  0  0  0  0
  -27.8342  -19.4722   16.7014 H   0  0  0  0  0  0
  -28.4927  -21.0942   16.5997 H   0  0  0  0  0  0
  -31.6465  -21.9526   20.8191 H   0  0  0  0  0  0
  -31.7097  -21.2350   19.2211 H   0  0  0  0  0  0
  -31.6721  -20.1960   20.6344 H   0  0  0  0  0  0
  -29.1570  -23.6083   21.3296 H   0  0  0  0  0  0
  -30.3047  -24.1413   20.1345 H   0  0  0  0  0  0
  -27.2821  -24.6235   20.1631 H   0  0  0  0  0  0
  -28.1896  -24.9358   18.7076 H   0  0  0  0  0  0
  -28.8155  -15.7074   20.2862 H   0  0  0  0  0  0
  -29.6772  -22.5225   18.6862 H   0  0  0  0  0  0
  1 25  1  0  0  0
  1 30  2  0  0  0
  1 89  1  0  0  0
  2  3  1  0  0  0
  2 25  1  0  0  0
  2 91  1  0  0  0
  2 92  1  0  0  0
  3  4  1  0  0  0
  3 93  1  0  0  0
  3 94  1  0  0  0
  4  5  1  0  0  0
  4 95  1  0  0  0
  4 96  1  0  0  0
  5  6  1  0  0  0
  5 26  1  0  0  0
  5 97  1  0  0  0
  6 25  1  0  0  0
  6 98  1  0  0  0
  6 99  1  0  0  0
  7  8  2  0  0  0
  7 26  1  0  0  0
  7 29  1  0  0  0
  8  9  1  0  0  0
  8 22  1  0  0  0
  9 10  1  0  0  0
  9 27  2  0  0  0
 10 11  2  0  0  0
 10 15  1  0  0  0
 11 12  1  0  0  0
 11100  1  0  0  0
 12 13  2  0  0  0
 12101  1  0  0  0
 13 14  1  0  0  0
 13 31  1  0  0  0
 14 15  2  0  0  0
 14102  1  0  0  0
 15103  1  0  0  0
 16 17  2  0  0  0
 16 21  1  0  0  0
 16 31  1  0  0  0
 17 18  1  0  0  0
 17104  1  0  0  0
 18 19  2  0  0  0
 18105  1  0  0  0
 19 20  1  0  0  0
 19 24  1  0  0  0
 20 21  2  0  0  0
 20106  1  0  0  0
 21 23  1  0  0  0
 22 28  1  0  0  0
 22 32  2  0  0  0
 26 27  1  0  0  0
 28107  1  0  0  0
 28108  1  0  0  0
 29109  1  0  0  0
 29110  1  0  0  0
 33 34  1  0  0  0
 33 66  1  0  0  0
 33 70  2  0  0  0
 34 36  1  0  0  0
 34 59  1  0  0  0
 34111  1  0  0  0
 35 44  2  0  0  0
 35 45  1  0  0  0
 35 68  1  0  0  0
 36 56  1  0  0  0
 36112  1  0  0  0
 37 39  1  0  0  0
 37 47  1  0  0  0
 37 66  1  0  0  0
 37113  1  0  0  0
 38 43  2  0  0  0
 38 46  1  0  0  0
 38 47  1  0  0  0
 39 64  1  0  0  0
 39 67  2  0  0  0
 40 52  1  0  0  0
 40 53  2  0  0  0
 40 58  1  0  0  0
 41114  1  0  0  0
 41115  1  0  0  0
 41116  1  0  0  0
 41 48  1  0  0  0
 42 43  1  0  0  0
 42 66  1  0  0  0
 42117  1  0  0  0
 42118  1  0  0  0
 43 44  1  0  0  0
 44119  1  0  0  0
 45 46  2  0  0  0
 45120  1  0  0  0
 46121  1  0  0  0
 47122  1  0  0  0
 47123  1  0  0  0
 48 56  1  0  0  0
 48 65  1  0  0  0
 48124  1  0  0  0
 49 50  1  0  0  0
 49 53  1  0  0  0
 49 64  1  0  0  0
 49125  1  0  0  0
 50 51  1  0  0  0
 50126  1  0  0  0
 50127  1  0  0  0
 51 52  1  0  0  0
 51128  1  0  0  0
 51129  1  0  0  0
 52130  1  0  0  0
 52131  1  0  0  0
 53 54  1  0  0  0
 54 55  2  0  0  0
 54132  1  0  0  0
 55 57  1  0  0  0
 55133  1  0  0  0
 56 69  2  0  0  0
 57 58  2  0  0  0
 57134  1  0  0  0
 58135  1  0  0  0
 59 60  1  0  0  0
 59 61  1  0  0  0
 59 62  1  0  0  0
 60136  1  0  0  0
 60137  1  0  0  0
 60138  1  0  0  0
 61139  1  0  0  0
 61140  1  0  0  0
 61141  1  0  0  0
 62142  1  0  0  0
 62143  1  0  0  0
 62144  1  0  0  0
 63 65  1  0  0  0
 63145  1  0  0  0
 63146  1  0  0  0
 63147  1  0  0  0
 64148  1  0  0  0
 65149  1  0  0  0
 68 88  1  0  0  0
 71 72  2  0  0  0
 71 76  1  0  0  0
 71 78  1  0  0  0
 72 73  1  0  0  0
 72 81  1  0  0  0
 73 74  2  0  0  0
 73 82  1  0  0  0
 74 75  1  0  0  0
 74 83  1  0  0  0
 75 76  2  0  0  0
 75 84  1  0  0  0
 76 89  1  0  0  0
 77 79  1  0  0  0
 77 90  1  0  0  0
 77150  1  0  0  0
 77151  1  0  0  0
 78 79  1  0  0  0
 78 80  1  0  0  0
 78152  1  0  0  0
 79 85  1  0  0  0
 79153  1  0  0  0
 80 86  1  0  0  0
 80 90  1  0  0  0
 80154  1  0  0  0
 81155  1  0  0  0
 81156  1  0  0  0
 81157  1  0  0  0
 82158  1  0  0  0
 82159  1  0  0  0
 82160  1  0  0  0
 83161  1  0  0  0
 83162  1  0  0  0
 83163  1  0  0  0
 84164  1  0  0  0
 84165  1  0  0  0
 84166  1  0  0  0
 85167  1  0  0  0
 85168  1  0  0  0
 85169  1  0  0  0
 86170  1  0  0  0
 86171  1  0  0  0
 86172  1  0  0  0
 87 88  1  0  0  0
 87173  1  0  0  0
 87174  1  0  0  0
 87 90  1  0  0  0
 88175  1  0  0  0
 88176  1  0  0  0
 89177  1  0  0  0
 90178  1  0  0  0
M  CHG  1  90   1
M  ISO  4   1 100  68 101  88 101  89 100
M  END
> <chiral flag>
0

> <version>
0

> <s_m_source_file>
/data/baiqing/PycharmProjects/Reinvent-master-3.2/result/LINK_invent/BTK/process_docking_weight1_custom_sum_contain_oxygen_bond_distance_aromatic_linkinvent_7_9_3/rearranged_h_0168.sdf

> <i_m_source_file_index>
33

> <r_mmod_Potential_Energy-OPLS-2005>
583.082580566406

> <r_mmod_Stretch_Energy-OPLS-2005>
157.766891479492

> <r_mmod_Bend_Energy-OPLS-2005>
277.298034667969

> <r_mmod_Torsional_Energy-OPLS-2005>
576.78515625

> <r_mmod_Improper_Torsional_Energy-OPLS-2005>
44.0232772827148

> <r_mmod_Van_der_Waal_Energy-OPLS-2005>
153.894622802734

> <r_mmod_Electrostatic_Energy-OPLS-2005>
-320.495727539062

> <r_mmod_Solvation_Energy-OPLS-2005>
-408.704895019531

> <b_mmod_Minimization_Converged-OPLS-2005>
0

> <r_mmod_RMS_Derivative-OPLS-2005>
10.0410375595093

$$$$
33
                    3D
 Structure written by MMmdl.
167178  0  0  1  0            999 V2000
  -30.3740  -15.4381   20.3325 C   0  0  0  0  0  0
  -30.4310  -12.9276   19.5489 C   0  0  0  0  0  0
  -29.5451  -12.6218   18.3118 C   0  0  0  0  0  0
  -28.1027  -12.3068   18.7395 C   0  0  0  0  0  0
  -27.6047  -13.2940   19.8221 C   0  0  2  0  0  0
  -28.6272  -13.5407   20.9546 C   0  0  0  0  0  0
  -25.2360  -13.8276   20.5769 C   0  0  0  0  0  0
  -24.1728  -13.0440   20.9268 C   0  0  0  0  0  0
  -24.6401  -11.6942   20.8746 C   0  0  0  0  0  0
  -23.9100  -10.4295   21.0390 C   0  0  0  0  0  0
  -24.3639   -9.4213   21.9176 C   0  0  0  0  0  0
  -23.6312   -8.2249   22.0750 C   0  0  0  0  0  0
  -22.4294   -8.0278   21.3539 C   0  0  0  0  0  0
  -21.9936   -9.0254   20.4639 C   0  0  0  0  0  0
  -22.7268  -10.2131   20.3046 C   0  0  0  0  0  0
  -21.6863   -6.0734   22.5277 C   0  0  0  0  0  0
  -21.4022   -6.5638   23.8210 C   0  0  0  0  0  0
  -21.3667   -5.6787   24.9172 C   0  0  0  0  0  0
  -21.6047   -4.3050   24.7225 C   0  0  0  0  0  0
  -21.8823   -3.8141   23.4348 C   0  0  0  0  0  0
  -21.9198   -4.6960   22.3401 C   0  0  0  0  0  0
  -22.7743  -13.5176   21.1909 C   0  0  0  0  0  0
  -22.1667   -4.2145   21.0982 F   0  0  0  0  0  0
  -21.5629   -3.4538   25.7742 F   0  0  0  0  0  0
  -29.8397  -14.0971   20.3245 N   0  0  0  0  0  0
  -26.2795  -12.9578   20.3223 N   0  0  0  0  0  0
  -25.9347  -11.6660   20.5699 N   0  0  0  0  0  0
  -22.0406  -12.8150   22.0455 N   0  0  0  0  0  0
  -25.3999  -15.2018   20.4219 N   0  0  0  0  0  0
  -31.5938  -15.4029   20.1043 O   0  0  0  0  0  0
  -21.6649   -6.8881   21.4237 O   0  0  0  0  0  0
  -22.3417  -14.5474   20.6749 O   0  0  0  0  0  0
  -24.6729  -31.8120   23.1600 C   0  0  0  0  0  0
  -25.9365  -32.4524   23.8106 C   0  0  1  0  0  0
  -27.2201  -26.8140   20.1978 C   0  0  0  0  0  0
  -25.5991  -33.8344   24.2005 N   0  0  0  0  0  0
  -23.4931  -30.4181   21.5119 C   0  0  2  0  0  0
  -24.9473  -28.7801   20.1135 C   0  0  0  0  0  0
  -22.7716  -29.4378   22.4746 C   0  0  0  0  0  0
  -18.0332  -28.1414   22.8469 C   0  0  0  0  0  0
  -24.1496  -36.7175   23.2651 C   0  0  0  0  0  0
  -26.0681  -30.5806   21.4071 C   0  0  0  0  0  0
  -26.1332  -29.1578   20.7539 C   0  0  0  0  0  0
  -27.2590  -28.1990   20.7664 C   0  0  0  0  0  0
  -26.0042  -26.6172   19.5017 C   0  0  0  0  0  0
  -24.9151  -27.5340   19.4648 C   0  0  0  0  0  0
  -23.7386  -29.7222   20.1431 C   0  0  0  0  0  0
  -25.4146  -36.2927   24.0288 C   0  0  1  0  0  0
  -20.5963  -28.3766   23.1165 C   0  0  2  0  0  0
  -20.6804  -26.9437   22.5405 C   0  0  0  0  0  0
  -19.5779  -26.6377   21.5218 C   0  0  0  0  0  0
  -18.1958  -26.7948   22.1621 C   0  0  0  0  0  0
  -19.1597  -28.8912   23.2801 C   0  0  0  0  0  0
  -18.9504  -30.1502   23.8839 C   0  0  0  0  0  0
  -17.6494  -30.6602   24.0553 C   0  0  0  0  0  0
  -25.9121  -34.9315   23.4977 C   0  0  0  0  0  0
  -16.5386  -29.9085   23.6350 C   0  0  0  0  0  0
  -16.7312  -28.6505   23.0371 C   0  0  0  0  0  0
  -26.4579  -31.6514   25.0684 C   0  0  0  0  0  0
  -25.3672  -31.3792   26.1314 C   0  0  0  0  0  0
  -27.0503  -30.2868   24.6506 C   0  0  0  0  0  0
  -27.6047  -32.4353   25.7493 C   0  0  0  0  0  0
  -27.5569  -37.1745   24.8465 C   0  0  0  0  0  0
  -21.4375  -29.3036   22.3499 N   0  0  0  0  0  0
  -26.4278  -37.3678   23.9406 N   0  0  0  0  0  0
  -24.7674  -30.9675   22.0792 N   0  0  0  0  0  0
  -23.4210  -28.7969   23.3046 O   0  0  0  0  0  0
  -28.2155  -25.6647   20.2831 O   0  0  0  0  0  0
  -26.5748  -34.8871   22.4586 O   0  0  0  0  0  0
  -23.5778  -32.1136   23.6629 O   0  0  0  0  0  0
  -29.4939  -19.8200   20.6292 C   0  0  0  0  0  0
  -30.7062  -20.2326   21.2279 C   0  0  0  0  0  0
  -29.7660  -18.3616   20.0127 C   0  0  0  0  0  0
  -31.8928  -19.9747   20.4992 C   0  0  0  0  0  0
  -30.8357  -18.4629   19.0990 C   0  0  0  0  0  0
  -31.3637  -20.6618   23.7230 C   0  0  0  0  0  0
  -29.8647  -20.8255   23.6432 C   0  0  0  0  0  0
  -33.4875  -22.0142   20.9456 C   0  0  0  0  0  0
  -34.1486  -21.1832   19.8812 C   0  0  0  0  0  0
  -28.0237  -22.6602   21.0719 C   0  0  0  0  0  0
  -29.2677  -22.8615   19.5817 C   0  0  0  0  0  0
  -28.7050  -21.3934   20.1833 C   0  0  1  0  0  0
  -30.7229  -21.1261   22.4358 C   0  0  0  0  0  0
  -33.2365  -20.5204   20.8958 C   0  0  0  0  0  0
  -28.1016  -23.9743   20.0406 C   0  0  2  0  0  0
  -30.9827  -17.5572   17.8904 C   0  0  0  0  0  0
  -31.8993  -19.2448   19.3619 N   0  0  0  0  0  0
  -29.6208  -16.7594   20.4647 N   0  0  0  0  0  0
  -31.4442  -13.1469   19.2094 H   0  0  0  0  0  0
  -30.5268  -12.0442   20.1831 H   0  0  0  0  0  0
  -29.9577  -11.7930   17.7358 H   0  0  0  0  0  0
  -29.5484  -13.4882   17.6489 H   0  0  0  0  0  0
  -28.0865  -11.2904   19.1345 H   0  0  0  0  0  0
  -27.4372  -12.3119   17.8764 H   0  0  0  0  0  0
  -27.4961  -14.2425   19.2938 H   0  0  0  0  0  0
  -28.8321  -12.6289   21.5171 H   0  0  0  0  0  0
  -28.2298  -14.2638   21.6687 H   0  0  0  0  0  0
  -25.2781   -9.5687   22.4758 H   0  0  0  0  0  0
  -24.0015   -7.4639   22.7472 H   0  0  0  0  0  0
  -21.0870   -8.8777   19.8941 H   0  0  0  0  0  0
  -22.3725  -10.9670   19.6156 H   0  0  0  0  0  0
  -21.2012   -7.6147   23.9714 H   0  0  0  0  0  0
  -21.1489   -6.0517   25.9073 H   0  0  0  0  0  0
  -22.0592   -2.7605   23.2851 H   0  0  0  0  0  0
  -22.4048  -11.9835   22.4865 H   0  0  0  0  0  0
  -21.1011  -13.1141   22.2641 H   0  0  0  0  0  0
  -24.6320  -15.8544   20.5338 H   0  0  0  0  0  0
  -26.2432  -15.6402   20.0749 H   0  0  0  0  0  0
  -26.7439  -32.5021   23.0818 H   0  0  0  0  0  0
  -25.0070  -33.9400   25.0109 H   0  0  0  0  0  0
  -22.8121  -31.2525   21.3311 H   0  0  0  0  0  0
  -23.3775  -35.9487   23.3268 H   0  0  0  0  0  0
  -24.3567  -36.8878   22.2074 H   0  0  0  0  0  0
  -23.7237  -37.6339   23.6748 H   0  0  0  0  0  0
  -26.2633  -31.3135   20.6225 H   0  0  0  0  0  0
  -26.9225  -30.6403   22.0696 H   0  0  0  0  0  0
  -28.1559  -28.4903   21.2946 H   0  0  0  0  0  0
  -25.8549  -25.6699   19.0048 H   0  0  0  0  0  0
  -24.0160  -27.2403   18.9407 H   0  0  0  0  0  0
  -23.9006  -30.4848   19.3805 H   0  0  0  0  0  0
  -22.8454  -29.1815   19.8258 H   0  0  0  0  0  0
  -25.1350  -36.1705   25.0778 H   0  0  0  0  0  0
  -21.0051  -28.3387   24.1287 H   0  0  0  0  0  0
  -20.5680  -26.2391   23.3658 H   0  0  0  0  0  0
  -21.6663  -26.7401   22.1213 H   0  0  0  0  0  0
  -19.6938  -25.6272   21.1287 H   0  0  0  0  0  0
  -19.6720  -27.3153   20.6719 H   0  0  0  0  0  0
  -17.4234  -26.6704   21.4013 H   0  0  0  0  0  0
  -18.0340  -26.0093   22.9016 H   0  0  0  0  0  0
  -19.7976  -30.7340   24.2175 H   0  0  0  0  0  0
  -17.5040  -31.6269   24.5175 H   0  0  0  0  0  0
  -15.5381  -30.2967   23.7701 H   0  0  0  0  0  0
  -15.8714  -28.0801   22.7122 H   0  0  0  0  0  0
  -24.5891  -30.7106   25.7610 H   0  0  0  0  0  0
  -24.8824  -32.2999   26.4566 H   0  0  0  0  0  0
  -25.7874  -30.9074   27.0205 H   0  0  0  0  0  0
  -26.3203  -29.6502   24.1499 H   0  0  0  0  0  0
  -27.3975  -29.7283   25.5208 H   0  0  0  0  0  0
  -27.9160  -30.4020   23.9981 H   0  0  0  0  0  0
  -27.2603  -33.3715   26.1898 H   0  0  0  0  0  0
  -28.3942  -32.6821   25.0381 H   0  0  0  0  0  0
  -28.0622  -31.8601   26.5552 H   0  0  0  0  0  0
  -28.2557  -38.0068   24.7521 H   0  0  0  0  0  0
  -28.1095  -36.2592   24.6285 H   0  0  0  0  0  0
  -27.2284  -37.1372   25.8867 H   0  0  0  0  0  0
  -20.9657  -29.8696   21.6583 H   0  0  0  0  0  0
  -26.0113  -38.2730   24.1418 H   0  0  0  0  0  0
  -31.7559  -19.6470   23.7640 H   0  0  0  0  0  0
  -31.9089  -21.3968   24.3121 H   0  0  0  0  0  0
  -29.4335  -21.6660   24.1844 H   0  0  0  0  0  0
  -29.2637  -19.9180   23.6350 H   0  0  0  0  0  0
  -32.6885  -22.6790   20.6258 H   0  0  0  0  0  0
  -34.1212  -22.3925   21.7448 H   0  0  0  0  0  0
  -35.2195  -21.0214   19.9804 H   0  0  0  0  0  0
  -33.7829  -21.2894   18.8613 H   0  0  0  0  0  0
  -28.5997  -22.8687   21.9740 H   0  0  0  0  0  0
  -27.0057  -22.4371   21.3912 H   0  0  0  0  0  0
  -29.4156  -22.8300   18.5018 H   0  0  0  0  0  0
  -30.2300  -23.1166   20.0299 H   0  0  0  0  0  0
  -27.9300  -21.0652   19.4901 H   0  0  0  0  0  0
  -30.8645  -22.1696   22.1610 H   0  0  0  0  0  0
  -33.6970  -19.9011   21.6635 H   0  0  0  0  0  0
  -27.2778  -23.8624   19.3356 H   0  0  0  0  0  0
  -30.0981  -16.9363   17.7472 H   0  0  0  0  0  0
  -31.8537  -16.9100   17.9854 H   0  0  0  0  0  0
  -31.1093  -18.1580   16.9896 H   0  0  0  0  0  0
  -28.7136  -16.5761   20.8694 H   0  0  0  0  0  0
  1 25  1  0  0  0
  1 30  2  0  0  0
  1 88  1  0  0  0
  2  3  1  0  0  0
  2 25  1  0  0  0
  2 89  1  0  0  0
  2 90  1  0  0  0
  3  4  1  0  0  0
  3 91  1  0  0  0
  3 92  1  0  0  0
  4  5  1  0  0  0
  4 93  1  0  0  0
  4 94  1  0  0  0
  5  6  1  0  0  0
  5 26  1  0  0  0
  5 95  1  0  0  0
  6 25  1  0  0  0
  6 96  1  0  0  0
  6 97  1  0  0  0
  7  8  2  0  0  0
  7 26  1  0  0  0
  7 29  1  0  0  0
  8  9  1  0  0  0
  8 22  1  0  0  0
  9 10  1  0  0  0
  9 27  2  0  0  0
 10 11  2  0  0  0
 10 15  1  0  0  0
 11 12  1  0  0  0
 11 98  1  0  0  0
 12 13  2  0  0  0
 12 99  1  0  0  0
 13 14  1  0  0  0
 13 31  1  0  0  0
 14 15  2  0  0  0
 14100  1  0  0  0
 15101  1  0  0  0
 16 17  2  0  0  0
 16 21  1  0  0  0
 16 31  1  0  0  0
 17 18  1  0  0  0
 17102  1  0  0  0
 18 19  2  0  0  0
 18103  1  0  0  0
 19 20  1  0  0  0
 19 24  1  0  0  0
 20 21  2  0  0  0
 20104  1  0  0  0
 21 23  1  0  0  0
 22 28  1  0  0  0
 22 32  2  0  0  0
 26 27  1  0  0  0
 28105  1  0  0  0
 28106  1  0  0  0
 29107  1  0  0  0
 29108  1  0  0  0
 33 34  1  0  0  0
 33 66  1  0  0  0
 33 70  2  0  0  0
 34 36  1  0  0  0
 34 59  1  0  0  0
 34109  1  0  0  0
 35 44  2  0  0  0
 35 45  1  0  0  0
 35 68  1  0  0  0
 36 56  1  0  0  0
 36110  1  0  0  0
 37 39  1  0  0  0
 37 47  1  0  0  0
 37 66  1  0  0  0
 37111  1  0  0  0
 38 43  2  0  0  0
 38 46  1  0  0  0
 38 47  1  0  0  0
 39 64  1  0  0  0
 39 67  2  0  0  0
 40 52  1  0  0  0
 40 53  2  0  0  0
 40 58  1  0  0  0
 41112  1  0  0  0
 41113  1  0  0  0
 41114  1  0  0  0
 41 48  1  0  0  0
 42 43  1  0  0  0
 42 66  1  0  0  0
 42115  1  0  0  0
 42116  1  0  0  0
 43 44  1  0  0  0
 44117  1  0  0  0
 45 46  2  0  0  0
 45118  1  0  0  0
 46119  1  0  0  0
 47120  1  0  0  0
 47121  1  0  0  0
 48 56  1  0  0  0
 48 65  1  0  0  0
 48122  1  0  0  0
 49 50  1  0  0  0
 49 53  1  0  0  0
 49 64  1  0  0  0
 49123  1  0  0  0
 50 51  1  0  0  0
 50124  1  0  0  0
 50125  1  0  0  0
 51 52  1  0  0  0
 51126  1  0  0  0
 51127  1  0  0  0
 52128  1  0  0  0
 52129  1  0  0  0
 53 54  1  0  0  0
 54 55  2  0  0  0
 54130  1  0  0  0
 55 57  1  0  0  0
 55131  1  0  0  0
 56 69  2  0  0  0
 57 58  2  0  0  0
 57132  1  0  0  0
 58133  1  0  0  0
 59 60  1  0  0  0
 59 61  1  0  0  0
 59 62  1  0  0  0
 60134  1  0  0  0
 60135  1  0  0  0
 60136  1  0  0  0
 61137  1  0  0  0
 61138  1  0  0  0
 61139  1  0  0  0
 62140  1  0  0  0
 62141  1  0  0  0
 62142  1  0  0  0
 63 65  1  0  0  0
 63143  1  0  0  0
 63144  1  0  0  0
 63145  1  0  0  0
 64146  1  0  0  0
 65147  1  0  0  0
 68 85  1  0  0  0
 71 72  2  0  0  0
 71 73  1  0  0  0
 71 82  1  0  0  0
 72 74  1  0  0  0
 72 83  1  0  0  0
 73 75  2  0  0  0
 73 88  1  0  0  0
 74 87  2  0  0  0
 74 84  1  0  0  0
 75 86  1  0  0  0
 75 87  1  0  0  0
 76 77  1  0  0  0
 76 83  1  0  0  0
 76148  1  0  0  0
 76149  1  0  0  0
 77 83  1  0  0  0
 77150  1  0  0  0
 77151  1  0  0  0
 78 79  1  0  0  0
 78 84  1  0  0  0
 78152  1  0  0  0
 78153  1  0  0  0
 79 84  1  0  0  0
 79154  1  0  0  0
 79155  1  0  0  0
 80 82  1  0  0  0
 80 85  1  0  0  0
 80156  1  0  0  0
 80157  1  0  0  0
 81 82  1  0  0  0
 81 85  1  0  0  0
 81158  1  0  0  0
 81159  1  0  0  0
 82160  1  0  0  0
 83161  1  0  0  0
 84162  1  0  0  0
 85163  1  0  0  0
 86164  1  0  0  0
 86165  1  0  0  0
 86166  1  0  0  0
 88167  1  0  0  0
M  ISO  4   1 100  68 101  85 101  88 100
M  END
> <chiral flag>
0

> <version>
0

> <s_m_source_file>
/data/baiqing/PycharmProjects/Reinvent-master-3.2/result/LINK_invent/BTK/process_docking_weight1_custom_sum_contain_oxygen_bond_distance_aromatic_linkinvent_7_9_3/rearranged_h_0168.sdf

> <i_m_source_file_index>
34

> <r_mmod_Potential_Energy-OPLS-2005>
1899.47082519531

> <r_mmod_Stretch_Energy-OPLS-2005>
768.603759765625

> <r_mmod_Bend_Energy-OPLS-2005>
598.498962402344

> <r_mmod_Torsional_Energy-OPLS-2005>
529.43408203125

> <r_mmod_Improper_Torsional_Energy-OPLS-2005>
28.9771423339844

> <r_mmod_Van_der_Waal_Energy-OPLS-2005>
126.207740783691

> <r_mmod_Electrostatic_Energy-OPLS-2005>
-573.268432617188

> <r_mmod_Solvation_Energy-OPLS-2005>
-226.308486938477

> <b_mmod_Minimization_Converged-OPLS-2005>
0

> <r_mmod_RMS_Derivative-OPLS-2005>
1.17809069156647

$$$$
34
                    3D
 Structure written by MMmdl.
182192  0  0  1  0            999 V2000
  -30.6519  -14.6468   20.5523 C   0  0  0  0  0  0
  -30.4435  -12.4370   19.3916 C   0  0  0  0  0  0
  -29.4782  -12.5601   18.1894 C   0  0  0  0  0  0
  -28.0110  -12.3414   18.6128 C   0  0  0  0  0  0
  -27.6539  -13.1533   19.8805 C   0  0  2  0  0  0
  -28.7362  -12.8956   20.9655 C   0  0  0  0  0  0
  -25.2473  -13.7837   20.5766 C   0  0  0  0  0  0
  -24.1721  -13.0206   20.9258 C   0  0  0  0  0  0
  -24.6296  -11.6712   20.8785 C   0  0  0  0  0  0
  -23.8979  -10.4157   21.0410 C   0  0  0  0  0  0
  -24.3573   -9.4107   21.9194 C   0  0  0  0  0  0
  -23.6255   -8.2135   22.0754 C   0  0  0  0  0  0
  -22.4231   -8.0210   21.3513 C   0  0  0  0  0  0
  -21.9845   -9.0176   20.4606 C   0  0  0  0  0  0
  -22.7174  -10.2041   20.3022 C   0  0  0  0  0  0
  -21.6798   -6.0719   22.5270 C   0  0  0  0  0  0
  -21.4000   -6.5633   23.8206 C   0  0  0  0  0  0
  -21.3680   -5.6780   24.9165 C   0  0  0  0  0  0
  -21.6037   -4.3039   24.7209 C   0  0  0  0  0  0
  -21.8826   -3.8144   23.4325 C   0  0  0  0  0  0
  -21.9180   -4.6964   22.3388 C   0  0  0  0  0  0
  -22.7776  -13.5106   21.1928 C   0  0  0  0  0  0
  -22.1676   -4.2176   21.0960 F   0  0  0  0  0  0
  -21.5620   -3.4523   25.7716 F   0  0  0  0  0  0
  -30.0097  -13.4134   20.4265 N   0  0  0  0  0  0
  -26.2948  -12.8990   20.3437 N   0  0  0  0  0  0
  -25.9210  -11.6209   20.5761 N   0  0  0  0  0  0
  -22.0401  -12.8154   22.0495 N   0  0  0  0  0  0
  -25.3955  -15.1504   20.4298 N   0  0  0  0  0  0
  -31.7910  -14.7289   20.0868 O   0  0  0  0  0  0
  -21.6567   -6.8845   21.4221 O   0  0  0  0  0  0
  -22.3489  -14.5439   20.6779 O   0  0  0  0  0  0
  -24.6177  -31.8637   23.2020 C   0  0  0  0  0  0
  -25.9067  -32.4785   23.8335 C   0  0  1  0  0  0
  -27.2644  -27.4133   20.0898 C   0  0  0  0  0  0
  -25.5909  -33.8589   24.2254 N   0  0  0  0  0  0
  -23.4073  -30.4813   21.5465 C   0  0  2  0  0  0
  -24.8581  -28.9343   20.1183 C   0  0  0  0  0  0
  -22.7433  -29.4634   22.5003 C   0  0  0  0  0  0
  -18.0270  -28.1402   22.8481 C   0  0  0  0  0  0
  -24.1505  -36.7294   23.2636 C   0  0  0  0  0  0
  -25.9365  -30.8229   21.3544 C   0  0  0  0  0  0
  -26.0171  -29.4528   20.7046 C   0  0  0  0  0  0
  -27.2187  -28.7023   20.6799 C   0  0  0  0  0  0
  -26.0777  -26.9089   19.5060 C   0  0  0  0  0  0
  -24.8840  -27.6618   19.5177 C   0  0  0  0  0  0
  -23.6160  -29.8001   20.1665 C   0  0  0  0  0  0
  -25.4123  -36.3062   24.0312 C   0  0  1  0  0  0
  -20.5869  -28.3673   23.1322 C   0  0  2  0  0  0
  -20.6771  -26.9403   22.5424 C   0  0  0  0  0  0
  -19.5748  -26.6391   21.5219 C   0  0  0  0  0  0
  -18.1921  -26.7948   22.1622 C   0  0  0  0  0  0
  -19.1520  -28.8850   23.2899 C   0  0  0  0  0  0
  -18.9451  -30.1470   23.8888 C   0  0  0  0  0  0
  -17.6451  -30.6590   24.0576 C   0  0  0  0  0  0
  -25.9053  -34.9448   23.5084 C   0  0  0  0  0  0
  -16.5341  -29.9095   23.6342 C   0  0  0  0  0  0
  -16.7260  -28.6532   23.0320 C   0  0  0  0  0  0
  -26.4477  -31.6582   25.0685 C   0  0  0  0  0  0
  -25.3739  -31.3705   26.1432 C   0  0  0  0  0  0
  -27.0291  -30.3012   24.6078 C   0  0  0  0  0  0
  -27.6043  -32.4305   25.7456 C   0  0  0  0  0  0
  -27.5577  -37.1786   24.8457 C   0  0  0  0  0  0
  -21.4140  -29.3024   22.3715 N   0  0  0  0  0  0
  -26.4288  -37.3757   23.9407 N   0  0  0  0  0  0
  -24.6727  -31.0726   22.0920 N   0  0  0  0  0  0
  -23.4194  -28.8185   23.3049 O   0  0  0  0  0  0
  -28.4708  -26.7229   20.0806 O   0  0  0  0  0  0
  -26.5621  -34.8910   22.4644 O   0  0  0  0  0  0
  -23.5366  -32.1389   23.7404 O   0  0  0  0  0  0
  -29.7115  -19.5001   19.9836 C   0  0  0  0  0  0
  -29.4247  -18.1449   20.2527 C   0  0  0  0  0  0
  -30.9765  -20.0560   20.1961 C   0  0  0  0  0  0
  -31.9995  -19.1685   20.6577 C   0  0  0  0  0  0
  -31.7196  -17.7800   20.9382 C   0  0  0  0  0  0
  -30.4277  -17.2100   20.6767 C   0  0  0  0  0  0
  -27.8441  -17.0286   21.6336 C   0  0  0  0  0  0
  -31.1716  -23.3021   17.6094 C   0  0  0  0  0  0
  -28.7478  -15.7994   21.7898 C   0  0  0  0  0  0
  -30.3614  -22.0158   17.7325 C   0  0  0  0  0  0
  -30.4128  -23.7800   18.8610 C   0  0  1  0  0  0
  -27.9689  -17.7208   20.2621 C   0  0  0  0  0  0
  -33.3936  -19.7302   20.9427 C   0  0  0  0  0  0
  -32.7810  -16.9564   21.6623 C   0  0  0  0  0  0
  -26.9229  -18.8678   20.2491 C   0  0  0  0  0  0
  -27.7284  -16.8836   18.9889 C   0  0  0  0  0  0
  -29.3092  -25.7999   17.6388 C   0  0  0  0  0  0
  -31.1312  -21.6098   20.0733 C   0  0  0  0  0  0
  -28.5222  -25.2737   20.0040 C   0  0  0  0  0  0
  -29.1189  -24.6732   18.6823 C   0  0  2  0  0  0
  -30.0036  -15.8156   20.9974 N   0  0  0  0  0  0
  -30.1754  -22.3278   19.1523 N   0  3  2  0  0  0
  -31.4616  -12.6045   19.0378 H   0  0  0  0  0  0
  -30.4414  -11.4160   19.7799 H   0  0  0  0  0  0
  -29.7438  -11.8535   17.4047 H   0  0  0  0  0  0
  -29.5848  -13.5534   17.7463 H   0  0  0  0  0  0
  -27.8737  -11.2773   18.8105 H   0  0  0  0  0  0
  -27.3375  -12.5943   17.7921 H   0  0  0  0  0  0
  -27.6772  -14.1895   19.5716 H   0  0  0  0  0  0
  -28.7975  -11.8179   21.1279 H   0  0  0  0  0  0
  -28.5096  -13.2339   21.9727 H   0  0  0  0  0  0
  -25.2729   -9.5628   22.4758 H   0  0  0  0  0  0
  -23.9980   -7.4524   22.7488 H   0  0  0  0  0  0
  -21.0770   -8.8715   19.8906 H   0  0  0  0  0  0
  -22.3676  -10.9604   19.6125 H   0  0  0  0  0  0
  -21.2003   -7.6142   23.9736 H   0  0  0  0  0  0
  -21.1500   -6.0485   25.9069 H   0  0  0  0  0  0
  -22.0590   -2.7608   23.2787 H   0  0  0  0  0  0
  -22.3973  -11.9811   22.4918 H   0  0  0  0  0  0
  -21.1008  -13.1176   22.2658 H   0  0  0  0  0  0
  -24.6201  -15.7902   20.5613 H   0  0  0  0  0  0
  -26.2504  -15.6086   20.1442 H   0  0  0  0  0  0
  -26.7151  -32.5478   23.1109 H   0  0  0  0  0  0
  -25.0042  -33.9767   25.0385 H   0  0  0  0  0  0
  -22.6951  -31.2960   21.4002 H   0  0  0  0  0  0
  -23.3746  -35.9651   23.3290 H   0  0  0  0  0  0
  -24.3583  -36.8921   22.2051 H   0  0  0  0  0  0
  -23.7292  -37.6506   23.6666 H   0  0  0  0  0  0
  -26.0514  -31.5884   20.5860 H   0  0  0  0  0  0
  -26.8250  -30.8816   21.9711 H   0  0  0  0  0  0
  -28.1178  -29.1117   21.1195 H   0  0  0  0  0  0
  -26.0681  -25.9422   19.0233 H   0  0  0  0  0  0
  -23.9911  -27.2538   19.0644 H   0  0  0  0  0  0
  -23.7195  -30.5668   19.3985 H   0  0  0  0  0  0
  -22.7403  -29.2151   19.8771 H   0  0  0  0  0  0
  -25.1304  -36.1891   25.0798 H   0  0  0  0  0  0
  -20.9976  -28.3273   24.1443 H   0  0  0  0  0  0
  -20.5707  -26.2278   23.3617 H   0  0  0  0  0  0
  -21.6645  -26.7472   22.1200 H   0  0  0  0  0  0
  -19.6915  -25.6304   21.1244 H   0  0  0  0  0  0
  -19.6702  -27.3217   20.6757 H   0  0  0  0  0  0
  -17.4202  -26.6690   21.4016 H   0  0  0  0  0  0
  -18.0314  -26.0103   22.9024 H   0  0  0  0  0  0
  -19.7917  -30.7302   24.2250 H   0  0  0  0  0  0
  -17.4991  -31.6267   24.5189 H   0  0  0  0  0  0
  -15.5339  -30.2987   23.7677 H   0  0  0  0  0  0
  -15.8659  -28.0871   22.6997 H   0  0  0  0  0  0
  -24.5934  -30.7022   25.7771 H   0  0  0  0  0  0
  -24.8921  -32.2879   26.4831 H   0  0  0  0  0  0
  -25.8118  -30.8914   27.0204 H   0  0  0  0  0  0
  -26.2828  -29.6772   24.1157 H   0  0  0  0  0  0
  -27.4061  -29.7236   25.4523 H   0  0  0  0  0  0
  -27.8658  -30.4267   23.9205 H   0  0  0  0  0  0
  -27.2657  -33.3612   26.2012 H   0  0  0  0  0  0
  -28.3885  -32.6856   25.0318 H   0  0  0  0  0  0
  -28.0683  -31.8446   26.5394 H   0  0  0  0  0  0
  -28.2577  -38.0093   24.7493 H   0  0  0  0  0  0
  -28.1080  -36.2618   24.6287 H   0  0  0  0  0  0
  -27.2288  -37.1447   25.8856 H   0  0  0  0  0  0
  -20.9315  -29.8712   21.6896 H   0  0  0  0  0  0
  -26.0151  -38.2824   24.1412 H   0  0  0  0  0  0
  -28.9159  -20.1558   19.6790 H   0  0  0  0  0  0
  -28.1200  -17.7399   22.4143 H   0  0  0  0  0  0
  -26.8110  -16.7747   21.8642 H   0  0  0  0  0  0
  -30.9928  -23.8496   16.6848 H   0  0  0  0  0  0
  -32.2420  -23.1476   17.7668 H   0  0  0  0  0  0
  -28.0316  -15.0814   21.4649 H   0  0  0  0  0  0
  -28.9636  -15.5916   22.8395 H   0  0  0  0  0  0
  -30.9148  -21.0976   17.5268 H   0  0  0  0  0  0
  -29.4194  -22.0430   17.1800 H   0  0  0  0  0  0
  -31.1180  -24.2228   19.5667 H   0  0  0  0  0  0
  -33.6815  -20.5267   20.2603 H   0  0  0  0  0  0
  -34.1768  -18.9808   20.8412 H   0  0  0  0  0  0
  -33.4310  -20.1271   21.9572 H   0  0  0  0  0  0
  -33.4891  -16.5271   20.9522 H   0  0  0  0  0  0
  -32.3465  -16.1541   22.2587 H   0  0  0  0  0  0
  -33.3385  -17.5603   22.3767 H   0  0  0  0  0  0
  -27.0690  -19.5592   21.0826 H   0  0  0  0  0  0
  -25.9073  -18.4732   20.3362 H   0  0  0  0  0  0
  -26.9406  -19.4386   19.3201 H   0  0  0  0  0  0
  -28.4217  -16.0543   18.8879 H   0  0  0  0  0  0
  -27.8905  -17.4999   18.1062 H   0  0  0  0  0  0
  -26.7120  -16.5245   18.8893 H   0  0  0  0  0  0
  -29.4928  -25.4142   16.6375 H   0  0  0  0  0  0
  -30.1321  -26.4682   17.8978 H   0  0  0  0  0  0
  -28.4090  -26.4120   17.5630 H   0  0  0  0  0  0
  -32.1391  -21.8768   19.7751 H   0  0  0  0  0  0
  -30.9948  -22.0267   21.0717 H   0  0  0  0  0  0
  -29.1470  -24.9518   20.8374 H   0  0  0  0  0  0
  -27.5528  -24.8254   20.2178 H   0  0  0  0  0  0
  -28.3361  -24.0490   18.2490 H   0  0  0  0  0  0
  -29.2290  -22.1668   19.4595 H   0  0  0  0  0  0
  1 25  1  0  0  0
  1 30  2  0  0  0
  1 91  1  0  0  0
  2  3  1  0  0  0
  2 25  1  0  0  0
  2 93  1  0  0  0
  2 94  1  0  0  0
  3  4  1  0  0  0
  3 95  1  0  0  0
  3 96  1  0  0  0
  4  5  1  0  0  0
  4 97  1  0  0  0
  4 98  1  0  0  0
  5  6  1  0  0  0
  5 26  1  0  0  0
  5 99  1  0  0  0
  6 25  1  0  0  0
  6100  1  0  0  0
  6101  1  0  0  0
  7  8  2  0  0  0
  7 26  1  0  0  0
  7 29  1  0  0  0
  8  9  1  0  0  0
  8 22  1  0  0  0
  9 10  1  0  0  0
  9 27  2  0  0  0
 10 11  2  0  0  0
 10 15  1  0  0  0
 11 12  1  0  0  0
 11102  1  0  0  0
 12 13  2  0  0  0
 12103  1  0  0  0
 13 14  1  0  0  0
 13 31  1  0  0  0
 14 15  2  0  0  0
 14104  1  0  0  0
 15105  1  0  0  0
 16 17  2  0  0  0
 16 21  1  0  0  0
 16 31  1  0  0  0
 17 18  1  0  0  0
 17106  1  0  0  0
 18 19  2  0  0  0
 18107  1  0  0  0
 19 20  1  0  0  0
 19 24  1  0  0  0
 20 21  2  0  0  0
 20108  1  0  0  0
 21 23  1  0  0  0
 22 28  1  0  0  0
 22 32  2  0  0  0
 26 27  1  0  0  0
 28109  1  0  0  0
 28110  1  0  0  0
 29111  1  0  0  0
 29112  1  0  0  0
 33 34  1  0  0  0
 33 66  1  0  0  0
 33 70  2  0  0  0
 34 36  1  0  0  0
 34 59  1  0  0  0
 34113  1  0  0  0
 35 44  2  0  0  0
 35 45  1  0  0  0
 35 68  1  0  0  0
 36 56  1  0  0  0
 36114  1  0  0  0
 37 39  1  0  0  0
 37 47  1  0  0  0
 37 66  1  0  0  0
 37115  1  0  0  0
 38 43  2  0  0  0
 38 46  1  0  0  0
 38 47  1  0  0  0
 39 64  1  0  0  0
 39 67  2  0  0  0
 40 52  1  0  0  0
 40 53  2  0  0  0
 40 58  1  0  0  0
 41116  1  0  0  0
 41117  1  0  0  0
 41118  1  0  0  0
 41 48  1  0  0  0
 42 43  1  0  0  0
 42 66  1  0  0  0
 42119  1  0  0  0
 42120  1  0  0  0
 43 44  1  0  0  0
 44121  1  0  0  0
 45 46  2  0  0  0
 45122  1  0  0  0
 46123  1  0  0  0
 47124  1  0  0  0
 47125  1  0  0  0
 48 56  1  0  0  0
 48 65  1  0  0  0
 48126  1  0  0  0
 49 50  1  0  0  0
 49 53  1  0  0  0
 49 64  1  0  0  0
 49127  1  0  0  0
 50 51  1  0  0  0
 50128  1  0  0  0
 50129  1  0  0  0
 51 52  1  0  0  0
 51130  1  0  0  0
 51131  1  0  0  0
 52132  1  0  0  0
 52133  1  0  0  0
 53 54  1  0  0  0
 54 55  2  0  0  0
 54134  1  0  0  0
 55 57  1  0  0  0
 55135  1  0  0  0
 56 69  2  0  0  0
 57 58  2  0  0  0
 57136  1  0  0  0
 58137  1  0  0  0
 59 60  1  0  0  0
 59 61  1  0  0  0
 59 62  1  0  0  0
 60138  1  0  0  0
 60139  1  0  0  0
 60140  1  0  0  0
 61141  1  0  0  0
 61142  1  0  0  0
 61143  1  0  0  0
 62144  1  0  0  0
 62145  1  0  0  0
 62146  1  0  0  0
 63 65  1  0  0  0
 63147  1  0  0  0
 63148  1  0  0  0
 63149  1  0  0  0
 64150  1  0  0  0
 65151  1  0  0  0
 68 89  1  0  0  0
 71 72  2  0  0  0
 71 73  1  0  0  0
 71152  1  0  0  0
 72 76  1  0  0  0
 72 82  1  0  0  0
 73 74  2  0  0  0
 73 88  1  0  0  0
 74 75  1  0  0  0
 74 83  1  0  0  0
 75 76  2  0  0  0
 75 84  1  0  0  0
 76 91  1  0  0  0
 77 79  1  0  0  0
 77 82  1  0  0  0
 77153  1  0  0  0
 77154  1  0  0  0
 78 80  1  0  0  0
 78155  1  0  0  0
 78156  1  0  0  0
 78 81  1  0  0  0
 79 91  1  0  0  0
 79157  1  0  0  0
 79158  1  0  0  0
 80 92  1  0  0  0
 80159  1  0  0  0
 80160  1  0  0  0
 81 90  1  0  0  0
 81 92  1  0  0  0
 81161  1  0  0  0
 82 85  1  0  0  0
 82 86  1  0  0  0
 83162  1  0  0  0
 83163  1  0  0  0
 83164  1  0  0  0
 84165  1  0  0  0
 84166  1  0  0  0
 84167  1  0  0  0
 85168  1  0  0  0
 85169  1  0  0  0
 85170  1  0  0  0
 86171  1  0  0  0
 86172  1  0  0  0
 86173  1  0  0  0
 87174  1  0  0  0
 87175  1  0  0  0
 87176  1  0  0  0
 87 90  1  0  0  0
 88177  1  0  0  0
 88178  1  0  0  0
 88 92  1  0  0  0
 89 90  1  0  0  0
 89179  1  0  0  0
 89180  1  0  0  0
 90181  1  0  0  0
 92182  1  0  0  0
M  CHG  1  92   1
M  ISO  4   1 100  68 101  89 101  91 100
M  END
> <chiral flag>
0

> <version>
0

> <s_m_source_file>
/data/baiqing/PycharmProjects/Reinvent-master-3.2/result/LINK_invent/BTK/process_docking_weight1_custom_sum_contain_oxygen_bond_distance_aromatic_linkinvent_7_9_3/rearranged_h_0168.sdf

> <i_m_source_file_index>
35

> <r_mmod_Potential_Energy-OPLS-2005>
305.340942382812

> <r_mmod_Stretch_Energy-OPLS-2005>
97.9300231933594

> <r_mmod_Bend_Energy-OPLS-2005>
222.123382568359

> <r_mmod_Torsional_Energy-OPLS-2005>
362.292175292969

> <r_mmod_Improper_Torsional_Energy-OPLS-2005>
6.8814058303833

> <r_mmod_Van_der_Waal_Energy-OPLS-2005>
212.131805419922

> <r_mmod_Electrostatic_Energy-OPLS-2005>
-212.054718017578

> <r_mmod_Solvation_Energy-OPLS-2005>
-415.403717041016

> <b_mmod_Minimization_Converged-OPLS-2005>
0

> <r_mmod_RMS_Derivative-OPLS-2005>
4.6157021522522

$$$$
35
                    3D
 Structure written by MMmdl.
164173  0  0  1  0            999 V2000
  -29.4029  -16.2159   20.3265 C   0  0  0  0  0  0
  -30.2014  -13.5913   19.5630 C   0  0  0  0  0  0
  -29.5007  -12.8106   18.3916 C   0  0  0  0  0  0
  -28.1373  -12.2693   18.8437 C   0  0  0  0  0  0
  -27.4846  -13.2881   19.7934 C   0  0  2  0  0  0
  -28.3753  -13.7797   20.9356 C   0  0  0  0  0  0
  -25.1820  -13.8085   20.5729 C   0  0  0  0  0  0
  -24.1321  -13.0267   20.9337 C   0  0  0  0  0  0
  -24.6071  -11.6792   20.8840 C   0  0  0  0  0  0
  -23.8899  -10.4174   21.0450 C   0  0  0  0  0  0
  -24.3526   -9.4112   21.9203 C   0  0  0  0  0  0
  -23.6226   -8.2136   22.0756 C   0  0  0  0  0  0
  -22.4199   -8.0195   21.3548 C   0  0  0  0  0  0
  -21.9811   -9.0144   20.4637 C   0  0  0  0  0  0
  -22.7107  -10.2030   20.3064 C   0  0  0  0  0  0
  -21.6830   -6.0676   22.5277 C   0  0  0  0  0  0
  -21.4001   -6.5597   23.8206 C   0  0  0  0  0  0
  -21.3652   -5.6757   24.9173 C   0  0  0  0  0  0
  -21.6064   -4.3025   24.7236 C   0  0  0  0  0  0
  -21.8826   -3.8105   23.4361 C   0  0  0  0  0  0
  -21.9187   -4.6909   22.3409 C   0  0  0  0  0  0
  -22.7410  -13.5049   21.2006 C   0  0  0  0  0  0
  -22.1663   -4.2090   21.0991 F   0  0  0  0  0  0
  -21.5638   -3.4527   25.7760 F   0  0  0  0  0  0
  -29.2831  -14.6957   20.2421 N   0  0  0  0  0  0
  -26.2019  -12.9277   20.2969 N   0  0  0  0  0  0
  -25.8926  -11.6415   20.5656 N   0  0  0  0  0  0
  -22.0145  -12.8045   22.0614 N   0  0  0  0  0  0
  -25.3494  -15.1817   20.4199 N   0  0  0  0  0  0
  -30.6805  -16.2341   20.2439 O   0  0  0  0  0  0
  -21.6594   -6.8790   21.4229 O   0  0  0  0  0  0
  -22.3129  -14.5364   20.6844 O   0  0  0  0  0  0
  -24.7334  -31.6202   22.7108 C   0  0  0  0  0  0
  -25.9272  -32.3430   23.5665 C   0  0  1  0  0  0
  -26.4746  -28.1828   21.6242 C   0  0  0  0  0  0
  -25.5218  -33.7259   23.9813 N   0  0  0  0  0  0
  -24.1893  -29.0850   20.8198 C   0  0  2  0  0  0
  -25.6055  -29.0175   19.3217 C   0  0  0  0  0  0
  -23.7624  -27.3607   22.5165 C   0  0  0  0  0  0
  -18.2030  -28.0644   22.8152 C   0  0  0  0  0  0
  -24.1400  -36.6782   23.2763 C   0  0  0  0  0  0
  -25.9746  -31.1096   20.6960 C   0  0  0  0  0  0
  -26.4809  -29.8082   20.1464 C   0  0  0  0  0  0
  -27.3158  -29.1096   21.0233 C   0  0  0  0  0  0
  -26.3189  -27.1637   20.5413 C   0  0  0  0  0  0
  -25.8253  -27.6222   19.2864 C   0  0  0  0  0  0
  -24.1687  -29.3491   19.3511 C   0  0  0  0  0  0
  -25.4154  -36.2281   24.0116 C   0  0  1  0  0  0
  -20.7947  -27.5411   23.1914 C   0  0  2  0  0  0
  -20.4182  -26.1975   22.6448 C   0  0  0  0  0  0
  -19.3503  -26.1212   21.5838 C   0  0  0  0  0  0
  -18.0725  -26.7285   22.1115 C   0  0  0  0  0  0
  -19.4860  -28.5840   23.2543 C   0  0  0  0  0  0
  -19.3559  -29.8727   23.8739 C   0  0  0  0  0  0
  -18.0946  -30.5380   24.0516 C   0  0  0  0  0  0
  -25.9160  -34.8812   23.4193 C   0  0  0  0  0  0
  -16.8793  -29.9616   23.6440 C   0  0  0  0  0  0
  -16.9562  -28.7172   23.0195 C   0  0  0  0  0  0
  -26.4220  -31.6417   24.9339 C   0  0  0  0  0  0
  -25.3102  -31.4005   25.9894 C   0  0  0  0  0  0
  -27.0920  -30.2841   24.6649 C   0  0  0  0  0  0
  -27.5257  -32.5015   25.6257 C   0  0  0  0  0  0
  -27.5450  -37.1451   24.8438 C   0  0  0  0  0  0
  -22.3888  -27.3382   23.2293 N   0  0  0  0  0  0
  -26.4115  -37.3254   23.9432 N   0  0  0  0  0  0
  -24.7750  -30.7962   21.4334 N   0  0  0  0  0  0
  -24.2885  -27.2726   23.6130 O   0  0  0  0  0  0
  -25.3962  -28.9586   22.5900 O   0  0  0  0  0  0
  -26.6461  -34.8945   22.4285 O   0  0  0  0  0  0
  -23.6750  -31.9261   23.3099 O   0  0  0  0  0  0
  -24.2033  -24.4719   20.9194 C   0  0  0  0  0  0
  -24.0240  -22.9698   19.1535 C   0  0  0  0  0  0
  -23.0880  -25.7706   20.4488 C   0  0  0  0  0  0
  -24.8240  -22.9220   20.3396 C   0  0  0  0  0  0
  -22.7463  -25.1532   19.1991 C   0  0  0  0  0  0
  -27.2687  -20.7467   21.0723 C   0  0  0  0  0  0
  -25.9708  -19.9155   19.7819 C   0  0  0  0  0  0
  -28.4266  -19.3206   20.4938 C   0  0  0  0  0  0
  -26.7781  -18.2409   20.2664 C   0  0  0  0  0  0
  -21.8617  -25.9033   18.2325 C   0  0  0  0  0  0
  -20.9084  -28.3923   20.1858 C   0  0  0  0  0  0
  -22.9906  -29.5139   22.5484 C   0  0  0  0  0  0
  -22.1836  -27.7610   20.8255 C   0  0  1  0  0  0
  -23.1527  -23.9366   18.6665 N   0  0  0  0  0  0
  -25.8656  -21.4333   20.4744 N   0  0  0  0  0  0
  -28.3553  -17.6192   20.3802 N   0  0  0  0  0  0
  -31.1075  -14.0536   19.1708 H   0  0  0  0  0  0
  -30.5824  -12.8728   20.2908 H   0  0  0  0  0  0
  -30.1294  -12.0000   18.0195 H   0  0  0  0  0  0
  -29.3480  -13.4881   17.5504 H   0  0  0  0  0  0
  -28.2877  -11.3309   19.3808 H   0  0  0  0  0  0
  -27.4923  -12.0409   17.9917 H   0  0  0  0  0  0
  -27.2806  -14.1359   19.1355 H   0  0  0  0  0  0
  -28.8453  -12.9674   21.4949 H   0  0  0  0  0  0
  -27.8088  -14.3578   21.6655 H   0  0  0  0  0  0
  -25.2684   -9.5620   22.4755 H   0  0  0  0  0  0
  -23.9959   -7.4519   22.7454 H   0  0  0  0  0  0
  -21.0748   -8.8623   19.8933 H   0  0  0  0  0  0
  -22.3551  -10.9563   19.6176 H   0  0  0  0  0  0
  -21.1993   -7.6111   23.9685 H   0  0  0  0  0  0
  -21.1469   -6.0505   25.9072 H   0  0  0  0  0  0
  -22.0618   -2.7566   23.2883 H   0  0  0  0  0  0
  -22.3836  -11.9710   22.4951 H   0  0  0  0  0  0
  -21.0782  -13.1027   22.2927 H   0  0  0  0  0  0
  -24.5771  -15.8267   20.5433 H   0  0  0  0  0  0
  -26.1816  -15.6184   20.0509 H   0  0  0  0  0  0
  -26.8211  -32.4638   22.9703 H   0  0  0  0  0  0
  -24.8650  -33.7675   24.7451 H   0  0  0  0  0  0
  -24.3582  -28.0431   20.8601 H   0  0  0  0  0  0
  -23.3690  -35.9053   23.3167 H   0  0  0  0  0  0
  -24.3316  -36.8879   22.2212 H   0  0  0  0  0  0
  -23.7139  -37.5763   23.7266 H   0  0  0  0  0  0
  -25.6877  -31.7448   19.8609 H   0  0  0  0  0  0
  -26.7829  -31.6602   21.1644 H   0  0  0  0  0  0
  -27.8376  -29.7686   21.7003 H   0  0  0  0  0  0
  -26.2201  -26.1185   20.7772 H   0  0  0  0  0  0
  -25.2731  -26.9369   18.6609 H   0  0  0  0  0  0
  -23.9352  -30.3858   19.1132 H   0  0  0  0  0  0
  -23.6882  -28.7257   18.6019 H   0  0  0  0  0  0
  -25.1475  -36.0590   25.0579 H   0  0  0  0  0  0
  -20.7470  -27.3903   24.2741 H   0  0  0  0  0  0
  -20.0346  -25.6223   23.4940 H   0  0  0  0  0  0
  -21.2574  -25.5921   22.3032 H   0  0  0  0  0  0
  -19.1284  -25.0653   21.4147 H   0  0  0  0  0  0
  -19.6251  -26.4149   20.5798 H   0  0  0  0  0  0
  -17.3600  -26.8132   21.2925 H   0  0  0  0  0  0
  -17.6337  -26.0207   22.8184 H   0  0  0  0  0  0
  -20.2537  -30.3341   24.2618 H   0  0  0  0  0  0
  -18.0800  -31.5025   24.5337 H   0  0  0  0  0  0
  -15.9301  -30.4652   23.7898 H   0  0  0  0  0  0
  -16.0459  -28.2611   22.6690 H   0  0  0  0  0  0
  -24.5541  -30.6980   25.6320 H   0  0  0  0  0  0
  -24.7880  -32.3208   26.2469 H   0  0  0  0  0  0
  -25.7107  -30.9890   26.9172 H   0  0  0  0  0  0
  -26.3656  -29.4856   24.5433 H   0  0  0  0  0  0
  -27.7007  -29.9619   25.5130 H   0  0  0  0  0  0
  -27.7518  -30.3210   23.8016 H   0  0  0  0  0  0
  -27.1502  -33.4705   25.9547 H   0  0  0  0  0  0
  -28.3592  -32.7010   24.9507 H   0  0  0  0  0  0
  -27.9385  -32.0227   26.5115 H   0  0  0  0  0  0
  -28.2305  -37.9873   24.7494 H   0  0  0  0  0  0
  -28.1122  -36.2386   24.6271 H   0  0  0  0  0  0
  -27.2196  -37.1018   25.8842 H   0  0  0  0  0  0
  -22.6163  -26.9621   24.1348 H   0  0  0  0  0  0
  -25.9780  -38.2161   24.1685 H   0  0  0  0  0  0
  -24.6872  -24.6818   21.8625 H   0  0  0  0  0  0
  -24.0869  -22.1250   18.4874 H   0  0  0  0  0  0
  -27.9401  -21.6021   21.1505 H   0  0  0  0  0  0
  -27.0399  -20.5242   22.1137 H   0  0  0  0  0  0
  -24.9189  -19.6556   19.6547 H   0  0  0  0  0  0
  -26.3059  -20.1027   18.7576 H   0  0  0  0  0  0
  -29.3354  -19.4665   21.0818 H   0  0  0  0  0  0
  -28.7484  -19.6215   19.4930 H   0  0  0  0  0  0
  -26.3596  -17.5659   19.5222 H   0  0  0  0  0  0
  -26.3020  -17.9320   21.2001 H   0  0  0  0  0  0
  -20.8586  -25.9826   18.6423 H   0  0  0  0  0  0
  -21.7843  -25.3929   17.2763 H   0  0  0  0  0  0
  -22.2696  -26.8883   18.0160 H   0  0  0  0  0  0
  -21.1483  -29.4583   20.1090 H   0  0  0  0  0  0
  -20.0166  -28.4082   20.8021 H   0  0  0  0  0  0
  -20.6267  -28.0657   19.1747 H   0  0  0  0  0  0
  -22.5620  -29.5853   23.5625 H   0  0  0  0  0  0
  -22.5517  -30.3984   22.0780 H   0  0  0  0  0  0
  -22.4952  -27.8678   19.8248 H   0  0  0  0  0  0
  1 25  1  0  0  0
  1 30  2  0  0  0
  1 86  1  0  0  0
  2  3  1  0  0  0
  2 25  1  0  0  0
  2 87  1  0  0  0
  2 88  1  0  0  0
  3  4  1  0  0  0
  3 89  1  0  0  0
  3 90  1  0  0  0
  4  5  1  0  0  0
  4 91  1  0  0  0
  4 92  1  0  0  0
  5  6  1  0  0  0
  5 26  1  0  0  0
  5 93  1  0  0  0
  6 25  1  0  0  0
  6 94  1  0  0  0
  6 95  1  0  0  0
  7  8  2  0  0  0
  7 26  1  0  0  0
  7 29  1  0  0  0
  8  9  1  0  0  0
  8 22  1  0  0  0
  9 10  1  0  0  0
  9 27  2  0  0  0
 10 11  2  0  0  0
 10 15  1  0  0  0
 11 12  1  0  0  0
 11 96  1  0  0  0
 12 13  2  0  0  0
 12 97  1  0  0  0
 13 14  1  0  0  0
 13 31  1  0  0  0
 14 15  2  0  0  0
 14 98  1  0  0  0
 15 99  1  0  0  0
 16 17  2  0  0  0
 16 21  1  0  0  0
 16 31  1  0  0  0
 17 18  1  0  0  0
 17100  1  0  0  0
 18 19  2  0  0  0
 18101  1  0  0  0
 19 20  1  0  0  0
 19 24  1  0  0  0
 20 21  2  0  0  0
 20102  1  0  0  0
 21 23  1  0  0  0
 22 28  1  0  0  0
 22 32  2  0  0  0
 26 27  1  0  0  0
 28103  1  0  0  0
 28104  1  0  0  0
 29105  1  0  0  0
 29106  1  0  0  0
 33 34  1  0  0  0
 33 66  1  0  0  0
 33 70  2  0  0  0
 34 36  1  0  0  0
 34 59  1  0  0  0
 34107  1  0  0  0
 35 44  2  0  0  0
 35 45  1  0  0  0
 35 68  1  0  0  0
 36 56  1  0  0  0
 36108  1  0  0  0
 37 39  1  0  0  0
 37 47  1  0  0  0
 37 66  1  0  0  0
 37109  1  0  0  0
 38 43  2  0  0  0
 38 46  1  0  0  0
 38 47  1  0  0  0
 39 64  1  0  0  0
 39 67  2  0  0  0
 40 52  1  0  0  0
 40 53  2  0  0  0
 40 58  1  0  0  0
 41110  1  0  0  0
 41111  1  0  0  0
 41112  1  0  0  0
 41 48  1  0  0  0
 42 43  1  0  0  0
 42 66  1  0  0  0
 42113  1  0  0  0
 42114  1  0  0  0
 43 44  1  0  0  0
 44115  1  0  0  0
 45 46  2  0  0  0
 45116  1  0  0  0
 46117  1  0  0  0
 47118  1  0  0  0
 47119  1  0  0  0
 48 56  1  0  0  0
 48 65  1  0  0  0
 48120  1  0  0  0
 49 50  1  0  0  0
 49 53  1  0  0  0
 49 64  1  0  0  0
 49121  1  0  0  0
 50 51  1  0  0  0
 50122  1  0  0  0
 50123  1  0  0  0
 51 52  1  0  0  0
 51124  1  0  0  0
 51125  1  0  0  0
 52126  1  0  0  0
 52127  1  0  0  0
 53 54  1  0  0  0
 54 55  2  0  0  0
 54128  1  0  0  0
 55 57  1  0  0  0
 55129  1  0  0  0
 56 69  2  0  0  0
 57 58  2  0  0  0
 57130  1  0  0  0
 58131  1  0  0  0
 59 60  1  0  0  0
 59 61  1  0  0  0
 59 62  1  0  0  0
 60132  1  0  0  0
 60133  1  0  0  0
 60134  1  0  0  0
 61135  1  0  0  0
 61136  1  0  0  0
 61137  1  0  0  0
 62138  1  0  0  0
 62139  1  0  0  0
 62140  1  0  0  0
 63 65  1  0  0  0
 63141  1  0  0  0
 63142  1  0  0  0
 63143  1  0  0  0
 64144  1  0  0  0
 65145  1  0  0  0
 68 82  1  0  0  0
 71 73  2  0  0  0
 71 74  1  0  0  0
 71146  1  0  0  0
 72 74  2  0  0  0
 72 84  1  0  0  0
 72147  1  0  0  0
 73 75  1  0  0  0
 73 83  1  0  0  0
 74 85  1  0  0  0
 75 80  1  0  0  0
 75 84  2  0  0  0
 76 78  1  0  0  0
 76 85  1  0  0  0
 76148  1  0  0  0
 76149  1  0  0  0
 77 79  1  0  0  0
 77 85  1  0  0  0
 77150  1  0  0  0
 77151  1  0  0  0
 78 86  1  0  0  0
 78152  1  0  0  0
 78153  1  0  0  0
 79 86  1  0  0  0
 79154  1  0  0  0
 79155  1  0  0  0
 80156  1  0  0  0
 80157  1  0  0  0
 80158  1  0  0  0
 81159  1  0  0  0
 81160  1  0  0  0
 81161  1  0  0  0
 81 83  1  0  0  0
 82 83  1  0  0  0
 82162  1  0  0  0
 82163  1  0  0  0
 83164  1  0  0  0
M  ISO  4   1 100  68 101  82 101  86 100
M  END
> <chiral flag>
0

> <version>
0

> <s_m_source_file>
/data/baiqing/PycharmProjects/Reinvent-master-3.2/result/LINK_invent/BTK/process_docking_weight1_custom_sum_contain_oxygen_bond_distance_aromatic_linkinvent_7_9_3/rearranged_h_0168.sdf

> <i_m_source_file_index>
36

> <r_mmod_Potential_Energy-OPLS-2005>
19251.072265625

> <r_mmod_Stretch_Energy-OPLS-2005>
7432.1396484375

> <r_mmod_Bend_Energy-OPLS-2005>
2638.71923828125

> <r_mmod_Torsional_Energy-OPLS-2005>
735.02294921875

> <r_mmod_Improper_Torsional_Energy-OPLS-2005>
112.849418640137

> <r_mmod_Van_der_Waal_Energy-OPLS-2005>
2365.89477539062

> <r_mmod_Electrostatic_Energy-OPLS-2005>
-404.537933349609

> <r_mmod_Solvation_Energy-OPLS-2005>
-257.235443115234

> <b_mmod_Minimization_Converged-OPLS-2005>
0

> <r_mmod_RMS_Derivative-OPLS-2005>
14.0832996368408

$$$$
36
                    3D
 Structure written by MMmdl.
171180  0  0  1  0            999 V2000
  -30.6959  -14.7851   20.4973 C   0  0  0  0  0  0
  -30.4102  -12.5052   19.4784 C   0  0  0  0  0  0
  -29.4973  -12.5076   18.2359 C   0  0  0  0  0  0
  -28.0329  -12.2965   18.6554 C   0  0  0  0  0  0
  -27.6260  -13.2200   19.8290 C   0  0  2  0  0  0
  -28.6744  -13.2198   20.9653 C   0  0  0  0  0  0
  -25.2465  -13.8152   20.5650 C   0  0  0  0  0  0
  -24.1772  -13.0416   20.9223 C   0  0  0  0  0  0
  -24.6362  -11.6896   20.8769 C   0  0  0  0  0  0
  -23.9044  -10.4279   21.0425 C   0  0  0  0  0  0
  -24.3600   -9.4194   21.9195 C   0  0  0  0  0  0
  -23.6280   -8.2228   22.0755 C   0  0  0  0  0  0
  -22.4265   -8.0271   21.3541 C   0  0  0  0  0  0
  -21.9903   -9.0244   20.4639 C   0  0  0  0  0  0
  -22.7229  -10.2124   20.3060 C   0  0  0  0  0  0
  -21.6847   -6.0729   22.5278 C   0  0  0  0  0  0
  -21.4007   -6.5636   23.8210 C   0  0  0  0  0  0
  -21.3660   -5.6791   24.9174 C   0  0  0  0  0  0
  -21.6047   -4.3054   24.7228 C   0  0  0  0  0  0
  -21.8821   -3.8142   23.4350 C   0  0  0  0  0  0
  -21.9191   -4.6957   22.3403 C   0  0  0  0  0  0
  -22.7804  -13.5211   21.1890 C   0  0  0  0  0  0
  -22.1662   -4.2143   21.0981 F   0  0  0  0  0  0
  -21.5632   -3.4540   25.7742 F   0  0  0  0  0  0
  -29.9633  -13.6089   20.3789 N   0  0  0  0  0  0
  -26.2858  -12.9328   20.3209 N   0  0  0  0  0  0
  -25.9276  -11.6492   20.5752 N   0  0  0  0  0  0
  -22.0452  -12.8188   22.0439 N   0  0  0  0  0  0
  -25.4120  -15.1862   20.3979 N   0  0  0  0  0  0
  -31.8823  -14.7126   20.1642 O   0  0  0  0  0  0
  -21.6632   -6.8869   21.4238 O   0  0  0  0  0  0
  -22.3494  -14.5522   20.6748 O   0  0  0  0  0  0
  -24.6336  -31.8546   23.1985 C   0  0  0  0  0  0
  -25.9159  -32.4749   23.8332 C   0  0  1  0  0  0
  -27.2159  -27.2497   20.1146 C   0  0  0  0  0  0
  -25.5942  -33.8550   24.2249 N   0  0  0  0  0  0
  -23.4293  -30.4792   21.5435 C   0  0  2  0  0  0
  -24.8732  -28.9288   20.1089 C   0  0  0  0  0  0
  -22.7504  -29.4603   22.4909 C   0  0  0  0  0  0
  -18.0291  -28.1393   22.8483 C   0  0  0  0  0  0
  -24.1484  -36.7276   23.2637 C   0  0  0  0  0  0
  -25.9783  -30.7639   21.3791 C   0  0  0  0  0  0
  -26.0479  -29.3873   20.7169 C   0  0  0  0  0  0
  -27.2184  -28.5594   20.7108 C   0  0  0  0  0  0
  -26.0031  -26.8561   19.4994 C   0  0  0  0  0  0
  -24.8567  -27.6711   19.4934 C   0  0  0  0  0  0
  -23.6458  -29.8170   20.1589 C   0  0  0  0  0  0
  -25.4111  -36.3062   24.0320 C   0  0  1  0  0  0
  -20.5897  -28.3705   23.1264 C   0  0  2  0  0  0
  -20.6779  -26.9421   22.5405 C   0  0  0  0  0  0
  -19.5751  -26.6391   21.5211 C   0  0  0  0  0  0
  -18.1930  -26.7939   22.1621 C   0  0  0  0  0  0
  -19.1546  -28.8865   23.2868 C   0  0  0  0  0  0
  -18.9464  -30.1464   23.8890 C   0  0  0  0  0  0
  -17.6464  -30.6597   24.0563 C   0  0  0  0  0  0
  -25.9059  -34.9434   23.5089 C   0  0  0  0  0  0
  -16.5353  -29.9092   23.6338 C   0  0  0  0  0  0
  -16.7277  -28.6508   23.0361 C   0  0  0  0  0  0
  -26.4512  -31.6586   25.0734 C   0  0  0  0  0  0
  -25.3717  -31.3735   26.1438 C   0  0  0  0  0  0
  -27.0376  -30.3002   24.6244 C   0  0  0  0  0  0
  -27.6053  -32.4339   25.7511 C   0  0  0  0  0  0
  -27.5583  -37.1781   24.8454 C   0  0  0  0  0  0
  -21.4210  -29.3052   22.3653 N   0  0  0  0  0  0
  -26.4278  -37.3771   23.9423 N   0  0  0  0  0  0
  -24.7001  -31.0505   22.0964 N   0  0  0  0  0  0
  -23.4199  -28.8138   23.3006 O   0  0  0  0  0  0
  -28.3162  -26.3574   20.2038 O   0  0  0  0  0  0
  -26.5633  -34.8914   22.4658 O   0  0  0  0  0  0
  -23.5482  -32.1380   23.7270 O   0  0  0  0  0  0
  -29.6900  -21.4773   19.5526 C   0  0  0  0  0  0
  -29.1047  -20.7566   20.6280 C   0  0  0  0  0  0
  -28.2135  -21.5658   21.4121 C   0  0  0  0  0  0
  -28.0097  -22.9709   21.1240 C   0  0  0  0  0  0
  -28.6783  -23.6018   20.0321 C   0  0  0  0  0  0
  -28.5323  -18.0801   20.3877 C   0  0  0  0  0  0
  -29.4427  -19.2107   20.9758 C   0  0  1  0  0  0
  -30.8682  -18.6592   20.6692 C   0  0  2  0  0  0
  -28.7891  -16.5993   20.9349 C   0  0  2  0  0  0
  -31.1625  -17.1816   21.2129 C   0  0  1  0  0  0
  -27.4566  -20.9229   22.5715 C   0  0  0  0  0  0
  -27.0463  -23.7915   21.9746 C   0  0  0  0  0  0
  -28.2094  -16.4684   22.3626 C   0  0  0  0  0  0
  -31.4435  -17.1415   22.7355 C   0  0  0  0  0  0
  -28.3952  -25.0688   19.4276 C   0  0  0  0  0  0
  -29.4982  -22.8072   19.2823 N   0  0  0  0  0  0
  -30.1942  -16.0667   20.8618 N   0  0  0  0  0  0
  -31.8921  -19.6080   21.1491 N   0  3  0  0  0  0
  -31.4490  -12.5976   19.1599 H   0  0  0  0  0  0
  -30.3562  -11.5441   19.9924 H   0  0  0  0  0  0
  -29.8024  -11.7270   17.5376 H   0  0  0  0  0  0
  -29.5985  -13.4543   17.7025 H   0  0  0  0  0  0
  -27.9206  -11.2523   18.9496 H   0  0  0  0  0  0
  -27.3682  -12.4454   17.8038 H   0  0  0  0  0  0
  -27.5875  -14.2079   19.3803 H   0  0  0  0  0  0
  -28.7427  -12.2320   21.4240 H   0  0  0  0  0  0
  -28.3746  -13.8876   21.7632 H   0  0  0  0  0  0
  -25.2742   -9.5681   22.4774 H   0  0  0  0  0  0
  -23.9991   -7.4621   22.7474 H   0  0  0  0  0  0
  -21.0838   -8.8765   19.8935 H   0  0  0  0  0  0
  -22.3693  -10.9666   19.6171 H   0  0  0  0  0  0
  -21.1991   -7.6142   23.9713 H   0  0  0  0  0  0
  -21.1482   -6.0518   25.9078 H   0  0  0  0  0  0
  -22.0596   -2.7604   23.2852 H   0  0  0  0  0  0
  -22.4064  -11.9829   22.4792 H   0  0  0  0  0  0
  -21.1075  -13.1214   22.2660 H   0  0  0  0  0  0
  -24.6421  -15.8368   20.5065 H   0  0  0  0  0  0
  -26.2588  -15.6267   20.0662 H   0  0  0  0  0  0
  -26.7225  -32.5386   23.1070 H   0  0  0  0  0  0
  -25.0070  -33.9678   25.0382 H   0  0  0  0  0  0
  -22.7265  -31.3026   21.3990 H   0  0  0  0  0  0
  -23.3766  -35.9585   23.3253 H   0  0  0  0  0  0
  -24.3583  -36.8956   22.2062 H   0  0  0  0  0  0
  -23.7208  -37.6446   23.6699 H   0  0  0  0  0  0
  -26.1213  -31.5255   20.6111 H   0  0  0  0  0  0
  -26.8546  -30.8093   22.0143 H   0  0  0  0  0  0
  -28.1170  -28.9059   21.2025 H   0  0  0  0  0  0
  -25.8660  -25.8857   19.0537 H   0  0  0  0  0  0
  -23.9501  -27.3057   19.0306 H   0  0  0  0  0  0
  -23.7711  -30.5955   19.4059 H   0  0  0  0  0  0
  -22.7630  -29.2532   19.8527 H   0  0  0  0  0  0
  -25.1289  -36.1896   25.0810 H   0  0  0  0  0  0
  -20.9983  -28.3290   24.1387 H   0  0  0  0  0  0
  -20.5696  -26.2304   23.3606 H   0  0  0  0  0  0
  -21.6642  -26.7454   22.1186 H   0  0  0  0  0  0
  -19.6911  -25.6302   21.1240 H   0  0  0  0  0  0
  -19.6697  -27.3198   20.6737 H   0  0  0  0  0  0
  -17.4202  -26.6683   21.4023 H   0  0  0  0  0  0
  -18.0328  -26.0083   22.9021 H   0  0  0  0  0  0
  -19.7939  -30.7279   24.2261 H   0  0  0  0  0  0
  -17.5020  -31.6277   24.5169 H   0  0  0  0  0  0
  -15.5352  -30.2992   23.7677 H   0  0  0  0  0  0
  -15.8669  -28.0828   22.7089 H   0  0  0  0  0  0
  -24.5916  -30.7060   25.7760 H   0  0  0  0  0  0
  -24.8875  -32.2897   26.4824 H   0  0  0  0  0  0
  -25.8020  -30.8945   27.0242 H   0  0  0  0  0  0
  -26.2984  -29.6729   24.1252 H   0  0  0  0  0  0
  -27.4036  -29.7286   25.4784 H   0  0  0  0  0  0
  -27.8861  -30.4280   23.9518 H   0  0  0  0  0  0
  -27.2676  -33.3677   26.2019 H   0  0  0  0  0  0
  -28.3899  -32.6841   25.0357 H   0  0  0  0  0  0
  -28.0677  -31.8507   26.5485 H   0  0  0  0  0  0
  -28.2545  -38.0136   24.7584 H   0  0  0  0  0  0
  -28.1141  -36.2668   24.6180 H   0  0  0  0  0  0
  -27.2310  -37.1302   25.8857 H   0  0  0  0  0  0
  -20.9395  -29.8775   21.6858 H   0  0  0  0  0  0
  -26.0150  -38.2829   24.1481 H   0  0  0  0  0  0
  -30.3724  -20.9750   18.8831 H   0  0  0  0  0  0
  -28.6378  -18.0754   19.3018 H   0  0  0  0  0  0
  -27.4873  -18.3373   20.5636 H   0  0  0  0  0  0
  -29.3561  -19.1615   22.0590 H   0  0  0  0  0  0
  -30.9781  -18.6306   19.5829 H   0  0  0  0  0  0
  -28.1977  -15.9600   20.2933 H   0  0  0  0  0  0
  -32.1241  -16.9536   20.7533 H   0  0  0  0  0  0
  -27.2451  -19.8710   22.3875 H   0  0  0  0  0  0
  -26.4849  -21.3844   22.7413 H   0  0  0  0  0  0
  -28.0360  -21.0011   23.4917 H   0  0  0  0  0  0
  -27.2072  -23.6045   23.0367 H   0  0  0  0  0  0
  -26.0135  -23.5390   21.7318 H   0  0  0  0  0  0
  -27.1672  -24.8628   21.8333 H   0  0  0  0  0  0
  -28.3947  -17.3542   22.9672 H   0  0  0  0  0  0
  -28.6281  -15.6329   22.9209 H   0  0  0  0  0  0
  -27.1270  -16.3417   22.3334 H   0  0  0  0  0  0
  -30.6220  -17.5491   23.3226 H   0  0  0  0  0  0
  -32.3391  -17.7026   23.0008 H   0  0  0  0  0  0
  -31.6105  -16.1207   23.0809 H   0  0  0  0  0  0
  -27.5899  -24.9442   18.7124 H   0  0  0  0  0  0
  -29.2447  -25.2578   18.7712 H   0  0  0  0  0  0
  -31.9012  -19.6465   22.1529 H   0  0  0  0  0  0
  -31.6964  -20.5322   20.8096 H   0  0  0  0  0  0
  -32.8062  -19.3407   20.8288 H   0  0  0  0  0  0
  1 25  1  0  0  0
  1 30  2  0  0  0
  1 87  1  0  0  0
  2  3  1  0  0  0
  2 25  1  0  0  0
  2 89  1  0  0  0
  2 90  1  0  0  0
  3  4  1  0  0  0
  3 91  1  0  0  0
  3 92  1  0  0  0
  4  5  1  0  0  0
  4 93  1  0  0  0
  4 94  1  0  0  0
  5  6  1  0  0  0
  5 26  1  0  0  0
  5 95  1  0  0  0
  6 25  1  0  0  0
  6 96  1  0  0  0
  6 97  1  0  0  0
  7  8  2  0  0  0
  7 26  1  0  0  0
  7 29  1  0  0  0
  8  9  1  0  0  0
  8 22  1  0  0  0
  9 10  1  0  0  0
  9 27  2  0  0  0
 10 11  2  0  0  0
 10 15  1  0  0  0
 11 12  1  0  0  0
 11 98  1  0  0  0
 12 13  2  0  0  0
 12 99  1  0  0  0
 13 14  1  0  0  0
 13 31  1  0  0  0
 14 15  2  0  0  0
 14100  1  0  0  0
 15101  1  0  0  0
 16 17  2  0  0  0
 16 21  1  0  0  0
 16 31  1  0  0  0
 17 18  1  0  0  0
 17102  1  0  0  0
 18 19  2  0  0  0
 18103  1  0  0  0
 19 20  1  0  0  0
 19 24  1  0  0  0
 20 21  2  0  0  0
 20104  1  0  0  0
 21 23  1  0  0  0
 22 28  1  0  0  0
 22 32  2  0  0  0
 26 27  1  0  0  0
 28105  1  0  0  0
 28106  1  0  0  0
 29107  1  0  0  0
 29108  1  0  0  0
 33 34  1  0  0  0
 33 66  1  0  0  0
 33 70  2  0  0  0
 34 36  1  0  0  0
 34 59  1  0  0  0
 34109  1  0  0  0
 35 44  2  0  0  0
 35 45  1  0  0  0
 35 68  1  0  0  0
 36 56  1  0  0  0
 36110  1  0  0  0
 37 39  1  0  0  0
 37 47  1  0  0  0
 37 66  1  0  0  0
 37111  1  0  0  0
 38 43  2  0  0  0
 38 46  1  0  0  0
 38 47  1  0  0  0
 39 64  1  0  0  0
 39 67  2  0  0  0
 40 52  1  0  0  0
 40 53  2  0  0  0
 40 58  1  0  0  0
 41112  1  0  0  0
 41113  1  0  0  0
 41114  1  0  0  0
 41 48  1  0  0  0
 42 43  1  0  0  0
 42 66  1  0  0  0
 42115  1  0  0  0
 42116  1  0  0  0
 43 44  1  0  0  0
 44117  1  0  0  0
 45 46  2  0  0  0
 45118  1  0  0  0
 46119  1  0  0  0
 47120  1  0  0  0
 47121  1  0  0  0
 48 56  1  0  0  0
 48 65  1  0  0  0
 48122  1  0  0  0
 49 50  1  0  0  0
 49 53  1  0  0  0
 49 64  1  0  0  0
 49123  1  0  0  0
 50 51  1  0  0  0
 50124  1  0  0  0
 50125  1  0  0  0
 51 52  1  0  0  0
 51126  1  0  0  0
 51127  1  0  0  0
 52128  1  0  0  0
 52129  1  0  0  0
 53 54  1  0  0  0
 54 55  2  0  0  0
 54130  1  0  0  0
 55 57  1  0  0  0
 55131  1  0  0  0
 56 69  2  0  0  0
 57 58  2  0  0  0
 57132  1  0  0  0
 58133  1  0  0  0
 59 60  1  0  0  0
 59 61  1  0  0  0
 59 62  1  0  0  0
 60134  1  0  0  0
 60135  1  0  0  0
 60136  1  0  0  0
 61137  1  0  0  0
 61138  1  0  0  0
 61139  1  0  0  0
 62140  1  0  0  0
 62141  1  0  0  0
 62142  1  0  0  0
 63 65  1  0  0  0
 63143  1  0  0  0
 63144  1  0  0  0
 63145  1  0  0  0
 64146  1  0  0  0
 65147  1  0  0  0
 68 85  1  0  0  0
 71 72  2  0  0  0
 71 86  1  0  0  0
 71148  1  0  0  0
 72 73  1  0  0  0
 72 77  1  0  0  0
 73 74  2  0  0  0
 73 81  1  0  0  0
 74 75  1  0  0  0
 74 82  1  0  0  0
 75 85  1  0  0  0
 75 86  2  0  0  0
 76 77  1  0  0  0
 76 79  1  0  0  0
 76149  1  0  0  0
 76150  1  0  0  0
 77 78  1  0  0  0
 77151  1  0  0  0
 78 80  1  0  0  0
 78 88  1  0  0  0
 78152  1  0  0  0
 79 83  1  0  0  0
 79 87  1  0  0  0
 79153  1  0  0  0
 80 84  1  0  0  0
 80 87  1  0  0  0
 80154  1  0  0  0
 81155  1  0  0  0
 81156  1  0  0  0
 81157  1  0  0  0
 82158  1  0  0  0
 82159  1  0  0  0
 82160  1  0  0  0
 83161  1  0  0  0
 83162  1  0  0  0
 83163  1  0  0  0
 84164  1  0  0  0
 84165  1  0  0  0
 84166  1  0  0  0
 85167  1  0  0  0
 85168  1  0  0  0
 88169  1  0  0  0
 88170  1  0  0  0
 88171  1  0  0  0
M  CHG  1  88   1
M  ISO  4   1 100  68 101  85 101  87 100
M  END
> <chiral flag>
0

> <version>
0

> <s_m_source_file>
/data/baiqing/PycharmProjects/Reinvent-master-3.2/result/LINK_invent/BTK/process_docking_weight1_custom_sum_contain_oxygen_bond_distance_aromatic_linkinvent_7_9_3/rearranged_h_0168.sdf

> <i_m_source_file_index>
37

> <r_mmod_Potential_Energy-OPLS-2005>
127.622360229492

> <r_mmod_Stretch_Energy-OPLS-2005>
146.269683837891

> <r_mmod_Bend_Energy-OPLS-2005>
246.922225952148

> <r_mmod_Torsional_Energy-OPLS-2005>
349.054473876953

> <r_mmod_Improper_Torsional_Energy-OPLS-2005>
3.35682535171509

> <r_mmod_Van_der_Waal_Energy-OPLS-2005>
160.94108581543

> <r_mmod_Electrostatic_Energy-OPLS-2005>
-414.279907226562

> <r_mmod_Solvation_Energy-OPLS-2005>
-465.463592529297

> <b_mmod_Minimization_Converged-OPLS-2005>
0

> <r_mmod_RMS_Derivative-OPLS-2005>
0.879682123661041

$$$$
37
                    3D
 Structure written by MMmdl.
180191  0  0  1  0            999 V2000
  -30.6614  -14.5284   20.5832 C   0  0  0  0  0  0
  -30.4323  -12.3512   19.4268 C   0  0  0  0  0  0
  -29.4920  -12.5417   18.2155 C   0  0  0  0  0  0
  -28.0175  -12.3781   18.6263 C   0  0  0  0  0  0
  -27.6609  -13.2092   19.8855 C   0  0  2  0  0  0
  -28.7069  -12.9839   21.0028 C   0  0  0  0  0  0
  -25.2560  -13.8107   20.5750 C   0  0  0  0  0  0
  -24.1824  -13.0421   20.9178 C   0  0  0  0  0  0
  -24.6363  -11.6889   20.8741 C   0  0  0  0  0  0
  -23.9024  -10.4274   21.0387 C   0  0  0  0  0  0
  -24.3608   -9.4199   21.9150 C   0  0  0  0  0  0
  -23.6299   -8.2234   22.0692 C   0  0  0  0  0  0
  -22.4270   -8.0256   21.3512 C   0  0  0  0  0  0
  -21.9904   -9.0220   20.4608 C   0  0  0  0  0  0
  -22.7208  -10.2108   20.3014 C   0  0  0  0  0  0
  -21.6826   -6.0722   22.5284 C   0  0  0  0  0  0
  -21.4004   -6.5605   23.8226 C   0  0  0  0  0  0
  -21.3676   -5.6758   24.9183 C   0  0  0  0  0  0
  -21.6042   -4.3016   24.7235 C   0  0  0  0  0  0
  -21.8818   -3.8138   23.4344 C   0  0  0  0  0  0
  -21.9193   -4.6953   22.3410 C   0  0  0  0  0  0
  -22.7812  -13.5203   21.1887 C   0  0  0  0  0  0
  -22.1650   -4.2120   21.0983 F   0  0  0  0  0  0
  -21.5659   -3.4510   25.7757 F   0  0  0  0  0  0
  -30.0373  -13.3199   20.4630 N   0  0  0  0  0  0
  -26.3032  -12.9303   20.3484 N   0  0  0  0  0  0
  -25.9314  -11.6450   20.5828 N   0  0  0  0  0  0
  -22.0507  -12.8154   22.0447 N   0  0  0  0  0  0
  -25.4284  -15.1872   20.4282 N   0  0  0  0  0  0
  -31.7344  -14.7811   20.0273 O   0  0  0  0  0  0
  -21.6596   -6.8887   21.4254 O   0  0  0  0  0  0
  -22.3479  -14.5514   20.6752 O   0  0  0  0  0  0
  -24.6239  -31.8709   23.2098 C   0  0  0  0  0  0
  -25.9148  -32.4816   23.8334 C   0  0  1  0  0  0
  -27.1896  -27.3712   20.0594 C   0  0  0  0  0  0
  -25.5947  -33.8614   24.2244 N   0  0  0  0  0  0
  -23.4082  -30.5088   21.5518 C   0  0  2  0  0  0
  -24.8483  -28.9832   20.1104 C   0  0  0  0  0  0
  -22.7430  -29.4800   22.4939 C   0  0  0  0  0  0
  -18.0361  -28.1408   22.8402 C   0  0  0  0  0  0
  -24.1494  -36.7290   23.2641 C   0  0  0  0  0  0
  -25.9591  -30.8087   21.3863 C   0  0  0  0  0  0
  -26.0252  -29.4470   20.7153 C   0  0  0  0  0  0
  -27.2091  -28.6529   20.6812 C   0  0  0  0  0  0
  -25.9959  -26.9845   19.4428 C   0  0  0  0  0  0
  -24.8348  -27.7518   19.4619 C   0  0  0  0  0  0
  -23.6222  -29.8533   20.1677 C   0  0  0  0  0  0
  -25.4122  -36.3059   24.0306 C   0  0  1  0  0  0
  -20.5964  -28.3650   23.1296 C   0  0  2  0  0  0
  -20.6847  -26.9459   22.5247 C   0  0  0  0  0  0
  -19.5824  -26.6419   21.5071 C   0  0  0  0  0  0
  -18.2042  -26.7995   22.1551 C   0  0  0  0  0  0
  -19.1622  -28.8777   23.2947 C   0  0  0  0  0  0
  -18.9575  -30.1386   23.8940 C   0  0  0  0  0  0
  -17.6538  -30.6491   24.0549 C   0  0  0  0  0  0
  -25.9070  -34.9454   23.5033 C   0  0  0  0  0  0
  -16.5437  -29.9076   23.6190 C   0  0  0  0  0  0
  -16.7375  -28.6560   23.0101 C   0  0  0  0  0  0
  -26.4512  -31.6610   25.0684 C   0  0  0  0  0  0
  -25.3697  -31.3761   26.1319 C   0  0  0  0  0  0
  -27.0315  -30.2998   24.6254 C   0  0  0  0  0  0
  -27.6059  -32.4311   25.7486 C   0  0  0  0  0  0
  -27.5579  -37.1786   24.8475 C   0  0  0  0  0  0
  -21.4151  -29.3153   22.3724 N   0  0  0  0  0  0
  -26.4314  -37.3747   23.9363 N   0  0  0  0  0  0
  -24.6806  -31.0761   22.1029 N   0  0  0  0  0  0
  -23.4156  -28.8353   23.2998 O   0  0  0  0  0  0
  -28.2682  -26.4946   20.0466 O   0  0  0  0  0  0
  -26.5706  -34.8939   22.4639 O   0  0  0  0  0  0
  -23.5445  -32.1567   23.7450 O   0  0  0  0  0  0
  -27.2907  -21.6831   17.9259 C   0  0  0  0  0  0
  -28.5958  -22.1658   18.5743 C   0  0  0  0  0  0
  -27.0438  -21.5651   20.2390 C   0  0  0  0  0  0
  -30.7730  -19.4511   21.3938 C   0  0  0  0  0  0
  -28.6379  -18.9522   22.3737 C   0  0  0  0  0  0
  -26.2445  -21.9460   19.0275 C   0  0  1  0  0  0
  -30.7657  -17.9613   21.7538 C   0  0  1  0  0  0
  -29.4117  -17.6477   22.2884 C   0  0  2  0  0  0
  -27.3561  -23.9526   19.9208 C   0  0  2  0  0  0
  -29.9041  -16.9120   21.0421 C   0  0  2  0  0  0
  -28.1612  -22.5879   19.9966 C   0  0  2  0  0  0
  -25.9814  -23.4573   19.2399 C   0  0  0  0  0  0
  -24.7859  -23.6471   20.2063 C   0  0  0  0  0  0
  -25.4830  -23.9926   17.8623 C   0  0  0  0  0  0
  -28.2796  -21.7176   23.2287 C   0  0  0  0  0  0
  -28.1705  -25.1980   19.3367 C   0  0  0  0  0  0
  -29.3562  -22.5016   21.0050 C   0  0  0  0  0  0
  -29.3498  -21.4285   22.1454 C   0  0  2  0  0  0
  -29.9687  -15.4761   21.2522 N   0  0  0  0  0  0
  -29.4100  -20.0016   21.6467 N   0  3  1  0  0  0
  -31.4734  -12.4700   19.1228 H   0  0  0  0  0  0
  -30.3529  -11.3325   19.8123 H   0  0  0  0  0  0
  -29.7386  -11.8345   17.4202 H   0  0  0  0  0  0
  -29.6305  -13.5413   17.7957 H   0  0  0  0  0  0
  -27.8493  -11.3207   18.8243 H   0  0  0  0  0  0
  -27.3538  -12.6387   17.8013 H   0  0  0  0  0  0
  -27.7072  -14.2579   19.5949 H   0  0  0  0  0  0
  -28.7066  -11.9368   21.3065 H   0  0  0  0  0  0
  -28.4610  -13.5467   21.9057 H   0  0  0  0  0  0
  -25.2787   -9.5597   22.4695 H   0  0  0  0  0  0
  -23.9988   -7.4575   22.7359 H   0  0  0  0  0  0
  -21.0837   -8.8747   19.8899 H   0  0  0  0  0  0
  -22.3710  -10.9643   19.6085 H   0  0  0  0  0  0
  -21.1948   -7.6097   23.9725 H   0  0  0  0  0  0
  -21.1509   -6.0481   25.9086 H   0  0  0  0  0  0
  -22.0587   -2.7591   23.2858 H   0  0  0  0  0  0
  -22.4188  -11.9841   22.4831 H   0  0  0  0  0  0
  -21.1090  -13.1096   22.2681 H   0  0  0  0  0  0
  -24.6661  -15.8457   20.5426 H   0  0  0  0  0  0
  -26.2958  -15.6294   20.1632 H   0  0  0  0  0  0
  -26.7216  -32.5525   23.1072 H   0  0  0  0  0  0
  -24.9809  -33.9745   25.0187 H   0  0  0  0  0  0
  -22.7036  -31.3350   21.4181 H   0  0  0  0  0  0
  -23.3706  -35.9662   23.3363 H   0  0  0  0  0  0
  -24.3621  -36.8891   22.2054 H   0  0  0  0  0  0
  -23.7319  -37.6529   23.6670 H   0  0  0  0  0  0
  -26.1045  -31.5844   20.6325 H   0  0  0  0  0  0
  -26.8351  -30.8344   22.0253 H   0  0  0  0  0  0
  -28.1165  -29.0194   21.1390 H   0  0  0  0  0  0
  -25.9474  -26.0774   18.9111 H   0  0  0  0  0  0
  -23.9426  -27.3923   18.9695 H   0  0  0  0  0  0
  -23.7318  -30.6232   19.4040 H   0  0  0  0  0  0
  -22.7482  -29.2742   19.8684 H   0  0  0  0  0  0
  -25.1275  -36.1876   25.0811 H   0  0  0  0  0  0
  -21.0205  -28.3184   24.1352 H   0  0  0  0  0  0
  -20.5768  -26.2183   23.3282 H   0  0  0  0  0  0
  -21.6759  -26.7524   22.1197 H   0  0  0  0  0  0
  -19.7020  -25.6332   21.1157 H   0  0  0  0  0  0
  -19.6697  -27.3246   20.6592 H   0  0  0  0  0  0
  -17.4335  -26.6861   21.3926 H   0  0  0  0  0  0
  -18.0371  -26.0075   22.8848 H   0  0  0  0  0  0
  -19.8104  -30.7239   24.2225 H   0  0  0  0  0  0
  -17.5087  -31.6143   24.5117 H   0  0  0  0  0  0
  -15.5432  -30.3009   23.7383 H   0  0  0  0  0  0
  -15.8740  -28.1176   22.6465 H   0  0  0  0  0  0
  -24.5915  -30.7133   25.7534 H   0  0  0  0  0  0
  -24.8836  -32.2923   26.4675 H   0  0  0  0  0  0
  -25.7960  -30.8928   27.0115 H   0  0  0  0  0  0
  -26.2881  -29.6735   24.1337 H   0  0  0  0  0  0
  -27.3920  -29.7339   25.4852 H   0  0  0  0  0  0
  -27.8810  -30.4098   23.9518 H   0  0  0  0  0  0
  -27.2659  -33.3586   26.2094 H   0  0  0  0  0  0
  -28.3883  -32.6932   25.0348 H   0  0  0  0  0  0
  -28.0689  -31.8404   26.5390 H   0  0  0  0  0  0
  -28.2571  -38.0099   24.7418 H   0  0  0  0  0  0
  -28.1093  -36.2602   24.6374 H   0  0  0  0  0  0
  -27.2285  -37.1496   25.8888 H   0  0  0  0  0  0
  -20.9201  -29.8846   21.6995 H   0  0  0  0  0  0
  -26.0186  -38.2820   24.1361 H   0  0  0  0  0  0
  -27.3583  -20.6202   17.7055 H   0  0  0  0  0  0
  -27.0720  -22.1667   16.9781 H   0  0  0  0  0  0
  -29.0675  -22.9736   18.0162 H   0  0  0  0  0  0
  -29.3060  -21.3402   18.5859 H   0  0  0  0  0  0
  -27.3388  -20.5181   20.1784 H   0  0  0  0  0  0
  -26.4753  -21.7140   21.1475 H   0  0  0  0  0  0
  -31.0546  -19.6040   20.3509 H   0  0  0  0  0  0
  -31.5222  -19.9533   22.0027 H   0  0  0  0  0  0
  -28.5357  -19.1791   23.4330 H   0  0  0  0  0  0
  -27.6349  -18.8343   21.9666 H   0  0  0  0  0  0
  -25.3361  -21.3543   18.9090 H   0  0  0  0  0  0
  -31.6317  -17.6137   22.3130 H   0  0  0  0  0  0
  -29.3663  -17.0454   23.1896 H   0  0  0  0  0  0
  -27.1392  -24.2172   20.9585 H   0  0  0  0  0  0
  -29.5042  -17.2192   20.0760 H   0  0  0  0  0  0
  -23.9316  -23.0557   19.8818 H   0  0  0  0  0  0
  -24.4548  -24.6876   20.2059 H   0  0  0  0  0  0
  -24.9839  -23.3776   21.2433 H   0  0  0  0  0  0
  -26.2697  -24.2342   17.1508 H   0  0  0  0  0  0
  -24.7895  -24.8310   17.9190 H   0  0  0  0  0  0
  -24.8786  -23.2149   17.3853 H   0  0  0  0  0  0
  -28.1443  -22.7907   23.3708 H   0  0  0  0  0  0
  -28.5959  -21.3208   24.1928 H   0  0  0  0  0  0
  -27.3053  -21.2854   23.0181 H   0  0  0  0  0  0
  -27.9024  -25.3447   18.2942 H   0  0  0  0  0  0
  -29.2090  -24.8855   19.2784 H   0  0  0  0  0  0
  -29.4989  -23.4795   21.4654 H   0  0  0  0  0  0
  -30.2741  -22.3563   20.4354 H   0  0  0  0  0  0
  -30.2883  -21.6057   22.6668 H   0  0  0  0  0  0
  -29.1636  -15.1094   21.7371 H   0  0  0  0  0  0
  -28.9612  -20.0342   20.7463 H   0  0  0  0  0  0
  1 25  1  0  0  0
  1 30  2  0  0  0
  1 89  1  0  0  0
  2  3  1  0  0  0
  2 25  1  0  0  0
  2 91  1  0  0  0
  2 92  1  0  0  0
  3  4  1  0  0  0
  3 93  1  0  0  0
  3 94  1  0  0  0
  4  5  1  0  0  0
  4 95  1  0  0  0
  4 96  1  0  0  0
  5  6  1  0  0  0
  5 26  1  0  0  0
  5 97  1  0  0  0
  6 25  1  0  0  0
  6 98  1  0  0  0
  6 99  1  0  0  0
  7  8  2  0  0  0
  7 26  1  0  0  0
  7 29  1  0  0  0
  8  9  1  0  0  0
  8 22  1  0  0  0
  9 10  1  0  0  0
  9 27  2  0  0  0
 10 11  2  0  0  0
 10 15  1  0  0  0
 11 12  1  0  0  0
 11100  1  0  0  0
 12 13  2  0  0  0
 12101  1  0  0  0
 13 14  1  0  0  0
 13 31  1  0  0  0
 14 15  2  0  0  0
 14102  1  0  0  0
 15103  1  0  0  0
 16 17  2  0  0  0
 16 21  1  0  0  0
 16 31  1  0  0  0
 17 18  1  0  0  0
 17104  1  0  0  0
 18 19  2  0  0  0
 18105  1  0  0  0
 19 20  1  0  0  0
 19 24  1  0  0  0
 20 21  2  0  0  0
 20106  1  0  0  0
 21 23  1  0  0  0
 22 28  1  0  0  0
 22 32  2  0  0  0
 26 27  1  0  0  0
 28107  1  0  0  0
 28108  1  0  0  0
 29109  1  0  0  0
 29110  1  0  0  0
 33 34  1  0  0  0
 33 66  1  0  0  0
 33 70  2  0  0  0
 34 36  1  0  0  0
 34 59  1  0  0  0
 34111  1  0  0  0
 35 44  2  0  0  0
 35 45  1  0  0  0
 35 68  1  0  0  0
 36 56  1  0  0  0
 36112  1  0  0  0
 37 39  1  0  0  0
 37 47  1  0  0  0
 37 66  1  0  0  0
 37113  1  0  0  0
 38 43  2  0  0  0
 38 46  1  0  0  0
 38 47  1  0  0  0
 39 64  1  0  0  0
 39 67  2  0  0  0
 40 52  1  0  0  0
 40 53  2  0  0  0
 40 58  1  0  0  0
 41114  1  0  0  0
 41115  1  0  0  0
 41116  1  0  0  0
 41 48  1  0  0  0
 42 43  1  0  0  0
 42 66  1  0  0  0
 42117  1  0  0  0
 42118  1  0  0  0
 43 44  1  0  0  0
 44119  1  0  0  0
 45 46  2  0  0  0
 45120  1  0  0  0
 46121  1  0  0  0
 47122  1  0  0  0
 47123  1  0  0  0
 48 56  1  0  0  0
 48 65  1  0  0  0
 48124  1  0  0  0
 49 50  1  0  0  0
 49 53  1  0  0  0
 49 64  1  0  0  0
 49125  1  0  0  0
 50 51  1  0  0  0
 50126  1  0  0  0
 50127  1  0  0  0
 51 52  1  0  0  0
 51128  1  0  0  0
 51129  1  0  0  0
 52130  1  0  0  0
 52131  1  0  0  0
 53 54  1  0  0  0
 54 55  2  0  0  0
 54132  1  0  0  0
 55 57  1  0  0  0
 55133  1  0  0  0
 56 69  2  0  0  0
 57 58  2  0  0  0
 57134  1  0  0  0
 58135  1  0  0  0
 59 60  1  0  0  0
 59 61  1  0  0  0
 59 62  1  0  0  0
 60136  1  0  0  0
 60137  1  0  0  0
 60138  1  0  0  0
 61139  1  0  0  0
 61140  1  0  0  0
 61141  1  0  0  0
 62142  1  0  0  0
 62143  1  0  0  0
 62144  1  0  0  0
 63 65  1  0  0  0
 63145  1  0  0  0
 63146  1  0  0  0
 63147  1  0  0  0
 64148  1  0  0  0
 65149  1  0  0  0
 68 86  1  0  0  0
 71 72  1  0  0  0
 71150  1  0  0  0
 71151  1  0  0  0
 71 76  1  0  0  0
 72 81  1  0  0  0
 72152  1  0  0  0
 72153  1  0  0  0
 73 76  1  0  0  0
 73 81  1  0  0  0
 73154  1  0  0  0
 73155  1  0  0  0
 74156  1  0  0  0
 74157  1  0  0  0
 74 77  1  0  0  0
 74 90  1  0  0  0
 75 90  1  0  0  0
 75158  1  0  0  0
 75159  1  0  0  0
 75 78  1  0  0  0
 76 82  1  0  0  0
 76160  1  0  0  0
 77 78  1  0  0  0
 77 80  1  0  0  0
 77161  1  0  0  0
 78 80  1  0  0  0
 78162  1  0  0  0
 79 81  1  0  0  0
 79 82  1  0  0  0
 79 86  1  0  0  0
 79163  1  0  0  0
 80 89  1  0  0  0
 80164  1  0  0  0
 81 87  1  0  0  0
 82 83  1  0  0  0
 82 84  1  0  0  0
 83165  1  0  0  0
 83166  1  0  0  0
 83167  1  0  0  0
 84168  1  0  0  0
 84169  1  0  0  0
 84170  1  0  0  0
 85171  1  0  0  0
 85172  1  0  0  0
 85173  1  0  0  0
 85 88  1  0  0  0
 86174  1  0  0  0
 86175  1  0  0  0
 87 88  1  0  0  0
 87176  1  0  0  0
 87177  1  0  0  0
 88 90  1  0  0  0
 88178  1  0  0  0
 89179  1  0  0  0
 90180  1  0  0  0
M  CHG  1  90   1
M  ISO  4   1 100  68 101  86 101  89 100
M  END
> <chiral flag>
0

> <version>
0

> <s_m_source_file>
/data/baiqing/PycharmProjects/Reinvent-master-3.2/result/LINK_invent/BTK/process_docking_weight1_custom_sum_contain_oxygen_bond_distance_aromatic_linkinvent_7_9_3/rearranged_h_0168.sdf

> <i_m_source_file_index>
38

> <r_mmod_Potential_Energy-OPLS-2005>
435.711975097656

> <r_mmod_Stretch_Energy-OPLS-2005>
73.1122741699219

> <r_mmod_Bend_Energy-OPLS-2005>
316.931640625

> <r_mmod_Torsional_Energy-OPLS-2005>
508.039306640625

> <r_mmod_Improper_Torsional_Energy-OPLS-2005>
4.28148555755615

> <r_mmod_Van_der_Waal_Energy-OPLS-2005>
160.175872802734

> <r_mmod_Electrostatic_Energy-OPLS-2005>
-225.123443603516

> <r_mmod_Solvation_Energy-OPLS-2005>
-432.855346679688

> <b_mmod_Minimization_Converged-OPLS-2005>
0

> <r_mmod_RMS_Derivative-OPLS-2005>
9.93924903869629

$$$$
38
                    3D
 Structure written by MMmdl.
153162  0  0  1  0            999 V2000
  -30.6017  -14.8711   20.4713 C   0  0  0  0  0  0
  -30.4393  -12.5468   19.4968 C   0  0  0  0  0  0
  -29.5198  -12.5311   18.2561 C   0  0  0  0  0  0
  -28.0489  -12.3374   18.6692 C   0  0  0  0  0  0
  -27.6385  -13.2525   19.8535 C   0  0  2  0  0  0
  -28.6828  -13.2450   20.9896 C   0  0  0  0  0  0
  -25.2484  -13.8231   20.5734 C   0  0  0  0  0  0
  -24.1776  -13.0446   20.9195 C   0  0  0  0  0  0
  -24.6406  -11.6932   20.8735 C   0  0  0  0  0  0
  -23.9091  -10.4297   21.0394 C   0  0  0  0  0  0
  -24.3630   -9.4207   21.9175 C   0  0  0  0  0  0
  -23.6296   -8.2246   22.0749 C   0  0  0  0  0  0
  -22.4280   -8.0280   21.3535 C   0  0  0  0  0  0
  -21.9917   -9.0254   20.4643 C   0  0  0  0  0  0
  -22.7257  -10.2131   20.3055 C   0  0  0  0  0  0
  -21.6855   -6.0729   22.5271 C   0  0  0  0  0  0
  -21.4016   -6.5631   23.8203 C   0  0  0  0  0  0
  -21.3659   -5.6783   24.9163 C   0  0  0  0  0  0
  -21.6047   -4.3049   24.7220 C   0  0  0  0  0  0
  -21.8820   -3.8143   23.4342 C   0  0  0  0  0  0
  -21.9192   -4.6958   22.3395 C   0  0  0  0  0  0
  -22.7797  -13.5215   21.1853 C   0  0  0  0  0  0
  -22.1662   -4.2136   21.0975 F   0  0  0  0  0  0
  -21.5635   -3.4541   25.7742 F   0  0  0  0  0  0
  -29.9689  -13.6354   20.3969 N   0  0  0  0  0  0
  -26.2937  -12.9480   20.3336 N   0  0  0  0  0  0
  -25.9355  -11.6604   20.5785 N   0  0  0  0  0  0
  -22.0458  -12.8181   22.0420 N   0  0  0  0  0  0
  -25.4166  -15.1956   20.4205 N   0  0  0  0  0  0
  -31.7848  -14.9288   20.1184 O   0  0  0  0  0  0
  -21.6646   -6.8871   21.4232 O   0  0  0  0  0  0
  -22.3463  -14.5519   20.6716 O   0  0  0  0  0  0
  -24.6413  -31.8476   23.1922 C   0  0  0  0  0  0
  -25.9209  -32.4703   23.8293 C   0  0  1  0  0  0
  -27.2009  -27.1545   20.1348 C   0  0  0  0  0  0
  -25.5975  -33.8512   24.2204 N   0  0  0  0  0  0
  -23.4410  -30.4700   21.5387 C   0  0  2  0  0  0
  -24.8887  -28.9115   20.1048 C   0  0  0  0  0  0
  -22.7550  -29.4558   22.4876 C   0  0  0  0  0  0
  -18.0302  -28.1395   22.8470 C   0  0  0  0  0  0
  -24.1489  -36.7254   23.2635 C   0  0  0  0  0  0
  -25.9974  -30.7213   21.3942 C   0  0  0  0  0  0
  -26.0644  -29.3363   20.7368 C   0  0  0  0  0  0
  -27.2178  -28.4671   20.7514 C   0  0  0  0  0  0
  -26.0121  -26.8569   19.4262 C   0  0  0  0  0  0
  -24.8751  -27.6835   19.4363 C   0  0  0  0  0  0
  -23.6650  -29.8076   20.1550 C   0  0  0  0  0  0
  -25.4110  -36.3030   24.0319 C   0  0  1  0  0  0
  -20.5904  -28.3717   23.1246 C   0  0  2  0  0  0
  -20.6796  -26.9429   22.5396 C   0  0  0  0  0  0
  -19.5761  -26.6374   21.5213 C   0  0  0  0  0  0
  -18.1943  -26.7927   22.1612 C   0  0  0  0  0  0
  -19.1555  -28.8875   23.2841 C   0  0  0  0  0  0
  -18.9487  -30.1465   23.8869 C   0  0  0  0  0  0
  -17.6495  -30.6597   24.0552 C   0  0  0  0  0  0
  -25.9073  -34.9412   23.5064 C   0  0  0  0  0  0
  -16.5377  -29.9091   23.6351 C   0  0  0  0  0  0
  -16.7288  -28.6510   23.0370 C   0  0  0  0  0  0
  -26.4530  -31.6567   25.0729 C   0  0  0  0  0  0
  -25.3720  -31.3790   26.1440 C   0  0  0  0  0  0
  -27.0380  -30.2959   24.6298 C   0  0  0  0  0  0
  -27.6070  -32.4325   25.7513 C   0  0  0  0  0  0
  -27.5568  -37.1766   24.8454 C   0  0  0  0  0  0
  -21.4244  -29.3057   22.3636 N   0  0  0  0  0  0
  -26.4255  -37.3752   23.9438 N   0  0  0  0  0  0
  -24.7130  -31.0336   22.0966 N   0  0  0  0  0  0
  -23.4213  -28.8075   23.2989 O   0  0  0  0  0  0
  -28.2189  -26.1368   20.2436 O   0  0  0  0  0  0
  -26.5636  -34.8914   22.4628 O   0  0  0  0  0  0
  -23.5543  -32.1362   23.7147 O   0  0  0  0  0  0
  -28.0348  -22.4713   21.3279 C   0  0  0  0  0  0
  -28.2625  -21.0506   21.4497 C   0  0  0  0  0  0
  -29.2874  -22.4059   19.3467 C   0  0  0  0  0  0
  -28.5183  -23.2418   20.2284 C   0  0  0  0  0  0
  -28.9910  -20.2819   20.4892 C   0  0  0  0  0  0
  -30.4948  -16.9400   21.7944 C   0  0  0  0  0  0
  -30.1115  -17.5486   20.4983 C   0  0  2  0  0  0
  -27.9583  -18.2430   19.2883 C   0  0  0  0  0  0
  -27.8781  -24.6936   19.8096 C   0  0  0  0  0  0
  -28.8909  -18.6365   20.4429 C   0  0  2  0  0  0
  -29.5072  -21.0299   19.4584 N   0  0  0  0  0  0
  -29.8997  -16.0496   20.8242 N   0  0  0  0  0  0
  -31.4755  -12.6860   19.1844 H   0  0  0  0  0  0
  -30.4167  -11.5872   20.0145 H   0  0  0  0  0  0
  -29.8269  -11.7404   17.5700 H   0  0  0  0  0  0
  -29.6263  -13.4704   17.7111 H   0  0  0  0  0  0
  -27.9225  -11.2916   18.9501 H   0  0  0  0  0  0
  -27.3914  -12.5060   17.8156 H   0  0  0  0  0  0
  -27.6174  -14.2664   19.4531 H   0  0  0  0  0  0
  -28.7504  -12.2615   21.4576 H   0  0  0  0  0  0
  -28.3953  -13.9440   21.7768 H   0  0  0  0  0  0
  -25.2775   -9.5682   22.4747 H   0  0  0  0  0  0
  -24.0000   -7.4644   22.7474 H   0  0  0  0  0  0
  -21.0844   -8.8771   19.8955 H   0  0  0  0  0  0
  -22.3706  -10.9662   19.6162 H   0  0  0  0  0  0
  -21.2011   -7.6139   23.9703 H   0  0  0  0  0  0
  -21.1481   -6.0516   25.9060 H   0  0  0  0  0  0
  -22.0604   -2.7603   23.2852 H   0  0  0  0  0  0
  -22.4111  -11.9856   22.4796 H   0  0  0  0  0  0
  -21.1081  -13.1185   22.2665 H   0  0  0  0  0  0
  -24.6548  -15.8534   20.5472 H   0  0  0  0  0  0
  -26.2836  -15.6379   20.1455 H   0  0  0  0  0  0
  -26.7263  -32.5314   23.1009 H   0  0  0  0  0  0
  -25.0171  -33.9630   25.0388 H   0  0  0  0  0  0
  -22.7407  -31.2937   21.3860 H   0  0  0  0  0  0
  -23.3773  -35.9558   23.3248 H   0  0  0  0  0  0
  -24.3583  -36.8931   22.2058 H   0  0  0  0  0  0
  -23.7215  -37.6421   23.6706 H   0  0  0  0  0  0
  -26.1477  -31.4707   20.6154 H   0  0  0  0  0  0
  -26.8720  -30.7725   22.0319 H   0  0  0  0  0  0
  -28.1002  -28.7696   21.2979 H   0  0  0  0  0  0
  -25.9010  -25.9438   18.8631 H   0  0  0  0  0  0
  -23.9854  -27.3597   18.9144 H   0  0  0  0  0  0
  -23.7968  -30.5836   19.4002 H   0  0  0  0  0  0
  -22.7797  -29.2472   19.8454 H   0  0  0  0  0  0
  -25.1283  -36.1838   25.0800 H   0  0  0  0  0  0
  -20.9977  -28.3306   24.1373 H   0  0  0  0  0  0
  -20.5711  -26.2331   23.3611 H   0  0  0  0  0  0
  -21.6658  -26.7451   22.1176 H   0  0  0  0  0  0
  -19.6940  -25.6276   21.1266 H   0  0  0  0  0  0
  -19.6712  -27.3167   20.6731 H   0  0  0  0  0  0
  -17.4207  -26.6682   21.4015 H   0  0  0  0  0  0
  -18.0336  -26.0064   22.9009 H   0  0  0  0  0  0
  -19.7967  -30.7275   24.2231 H   0  0  0  0  0  0
  -17.5055  -31.6280   24.5144 H   0  0  0  0  0  0
  -15.5375  -30.2994   23.7696 H   0  0  0  0  0  0
  -15.8680  -28.0812   22.7134 H   0  0  0  0  0  0
  -24.5880  -30.7142   25.7794 H   0  0  0  0  0  0
  -24.8940  -32.2995   26.4801 H   0  0  0  0  0  0
  -25.7995  -30.9012   27.0262 H   0  0  0  0  0  0
  -26.2994  -29.6690   24.1285 H   0  0  0  0  0  0
  -27.3986  -29.7238   25.4855 H   0  0  0  0  0  0
  -27.8903  -30.4198   23.9613 H   0  0  0  0  0  0
  -27.2692  -33.3699   26.1944 H   0  0  0  0  0  0
  -28.3963  -32.6745   25.0386 H   0  0  0  0  0  0
  -28.0629  -31.8531   26.5548 H   0  0  0  0  0  0
  -28.2515  -38.0130   24.7564 H   0  0  0  0  0  0
  -28.1127  -36.2656   24.6182 H   0  0  0  0  0  0
  -27.2304  -37.1291   25.8856 H   0  0  0  0  0  0
  -20.9465  -29.8792   21.6828 H   0  0  0  0  0  0
  -26.0117  -38.2797   24.1511 H   0  0  0  0  0  0
  -27.3779  -22.9471   22.0428 H   0  0  0  0  0  0
  -27.7684  -20.5291   22.2586 H   0  0  0  0  0  0
  -29.6683  -22.8380   18.4329 H   0  0  0  0  0  0
  -29.8998  -17.1898   22.6690 H   0  0  0  0  0  0
  -31.5637  -16.8545   21.9898 H   0  0  0  0  0  0
  -30.9012  -17.7457   19.7753 H   0  0  0  0  0  0
  -26.9891  -18.7325   19.3830 H   0  0  0  0  0  0
  -27.7817  -17.1673   19.2659 H   0  0  0  0  0  0
  -28.3887  -18.5280   18.3288 H   0  0  0  0  0  0
  -26.8391  -24.5280   20.0923 H   0  0  0  0  0  0
  -27.8839  -24.7078   18.7194 H   0  0  0  0  0  0
  -28.3146  -18.4117   21.3399 H   0  0  0  0  0  0
  1 25  1  0  0  0
  1 30  2  0  0  0
  1 82  1  0  0  0
  2  3  1  0  0  0
  2 25  1  0  0  0
  2 83  1  0  0  0
  2 84  1  0  0  0
  3  4  1  0  0  0
  3 85  1  0  0  0
  3 86  1  0  0  0
  4  5  1  0  0  0
  4 87  1  0  0  0
  4 88  1  0  0  0
  5  6  1  0  0  0
  5 26  1  0  0  0
  5 89  1  0  0  0
  6 25  1  0  0  0
  6 90  1  0  0  0
  6 91  1  0  0  0
  7  8  2  0  0  0
  7 26  1  0  0  0
  7 29  1  0  0  0
  8  9  1  0  0  0
  8 22  1  0  0  0
  9 10  1  0  0  0
  9 27  2  0  0  0
 10 11  2  0  0  0
 10 15  1  0  0  0
 11 12  1  0  0  0
 11 92  1  0  0  0
 12 13  2  0  0  0
 12 93  1  0  0  0
 13 14  1  0  0  0
 13 31  1  0  0  0
 14 15  2  0  0  0
 14 94  1  0  0  0
 15 95  1  0  0  0
 16 17  2  0  0  0
 16 21  1  0  0  0
 16 31  1  0  0  0
 17 18  1  0  0  0
 17 96  1  0  0  0
 18 19  2  0  0  0
 18 97  1  0  0  0
 19 20  1  0  0  0
 19 24  1  0  0  0
 20 21  2  0  0  0
 20 98  1  0  0  0
 21 23  1  0  0  0
 22 28  1  0  0  0
 22 32  2  0  0  0
 26 27  1  0  0  0
 28 99  1  0  0  0
 28100  1  0  0  0
 29101  1  0  0  0
 29102  1  0  0  0
 33 34  1  0  0  0
 33 66  1  0  0  0
 33 70  2  0  0  0
 34 36  1  0  0  0
 34 59  1  0  0  0
 34103  1  0  0  0
 35 44  2  0  0  0
 35 45  1  0  0  0
 35 68  1  0  0  0
 36 56  1  0  0  0
 36104  1  0  0  0
 37 39  1  0  0  0
 37 47  1  0  0  0
 37 66  1  0  0  0
 37105  1  0  0  0
 38 43  2  0  0  0
 38 46  1  0  0  0
 38 47  1  0  0  0
 39 64  1  0  0  0
 39 67  2  0  0  0
 40 52  1  0  0  0
 40 53  2  0  0  0
 40 58  1  0  0  0
 41106  1  0  0  0
 41107  1  0  0  0
 41108  1  0  0  0
 41 48  1  0  0  0
 42 43  1  0  0  0
 42 66  1  0  0  0
 42109  1  0  0  0
 42110  1  0  0  0
 43 44  1  0  0  0
 44111  1  0  0  0
 45 46  2  0  0  0
 45112  1  0  0  0
 46113  1  0  0  0
 47114  1  0  0  0
 47115  1  0  0  0
 48 56  1  0  0  0
 48 65  1  0  0  0
 48116  1  0  0  0
 49 50  1  0  0  0
 49 53  1  0  0  0
 49 64  1  0  0  0
 49117  1  0  0  0
 50 51  1  0  0  0
 50118  1  0  0  0
 50119  1  0  0  0
 51 52  1  0  0  0
 51120  1  0  0  0
 51121  1  0  0  0
 52122  1  0  0  0
 52123  1  0  0  0
 53 54  1  0  0  0
 54 55  2  0  0  0
 54124  1  0  0  0
 55 57  1  0  0  0
 55125  1  0  0  0
 56 69  2  0  0  0
 57 58  2  0  0  0
 57126  1  0  0  0
 58127  1  0  0  0
 59 60  1  0  0  0
 59 61  1  0  0  0
 59 62  1  0  0  0
 60128  1  0  0  0
 60129  1  0  0  0
 60130  1  0  0  0
 61131  1  0  0  0
 61132  1  0  0  0
 61133  1  0  0  0
 62134  1  0  0  0
 62135  1  0  0  0
 62136  1  0  0  0
 63 65  1  0  0  0
 63137  1  0  0  0
 63138  1  0  0  0
 63139  1  0  0  0
 64140  1  0  0  0
 65141  1  0  0  0
 68 79  1  0  0  0
 71 72  2  0  0  0
 71 74  1  0  0  0
 71142  1  0  0  0
 72 75  1  0  0  0
 72143  1  0  0  0
 73 74  2  0  0  0
 73 81  1  0  0  0
 73144  1  0  0  0
 74 79  1  0  0  0
 75 80  1  0  0  0
 75 81  2  0  0  0
 76 82  1  0  0  0
 76145  1  0  0  0
 76146  1  0  0  0
 76 77  1  0  0  0
 77 80  1  0  0  0
 77 82  1  0  0  0
 77147  1  0  0  0
 78148  1  0  0  0
 78149  1  0  0  0
 78150  1  0  0  0
 78 80  1  0  0  0
 79151  1  0  0  0
 79152  1  0  0  0
 80153  1  0  0  0
M  ISO  4   1 100  68 101  79 101  82 100
M  END
> <chiral flag>
0

> <version>
0

> <s_m_source_file>
/data/baiqing/PycharmProjects/Reinvent-master-3.2/result/LINK_invent/BTK/process_docking_weight1_custom_sum_contain_oxygen_bond_distance_aromatic_linkinvent_7_9_3/rearranged_h_0168.sdf

> <i_m_source_file_index>
39

> <r_mmod_Potential_Energy-OPLS-2005>
421.388549804688

> <r_mmod_Stretch_Energy-OPLS-2005>
207.543075561523

> <r_mmod_Bend_Energy-OPLS-2005>
253.425827026367

> <r_mmod_Torsional_Energy-OPLS-2005>
316.390350341797

> <r_mmod_Improper_Torsional_Energy-OPLS-2005>
16.6121692657471

> <r_mmod_Van_der_Waal_Energy-OPLS-2005>
140.720245361328

> <r_mmod_Electrostatic_Energy-OPLS-2005>
-463.987365722656

> <r_mmod_Solvation_Energy-OPLS-2005>
-213.577087402344

> <b_mmod_Minimization_Converged-OPLS-2005>
0

> <r_mmod_RMS_Derivative-OPLS-2005>
2.35454320907593

$$$$
39
                    3D
 Structure written by MMmdl.
155164  0  0  1  0            999 V2000
  -30.4579  -15.2926   20.4294 C   0  0  0  0  0  0
  -30.4402  -12.8342   19.5398 C   0  0  0  0  0  0
  -29.5418  -12.6003   18.2964 C   0  0  0  0  0  0
  -28.0904  -12.3100   18.7119 C   0  0  0  0  0  0
  -27.6138  -13.2732   19.8240 C   0  0  2  0  0  0
  -28.6433  -13.4238   20.9630 C   0  0  0  0  0  0
  -25.2281  -13.8133   20.5569 C   0  0  0  0  0  0
  -24.1701  -13.0348   20.9244 C   0  0  0  0  0  0
  -24.6400  -11.6869   20.8775 C   0  0  0  0  0  0
  -23.9099  -10.4246   21.0419 C   0  0  0  0  0  0
  -24.3639   -9.4165   21.9198 C   0  0  0  0  0  0
  -23.6296   -8.2212   22.0765 C   0  0  0  0  0  0
  -22.4278   -8.0264   21.3549 C   0  0  0  0  0  0
  -21.9922   -9.0238   20.4651 C   0  0  0  0  0  0
  -22.7270  -10.2104   20.3064 C   0  0  0  0  0  0
  -21.6847   -6.0730   22.5278 C   0  0  0  0  0  0
  -21.4008   -6.5638   23.8209 C   0  0  0  0  0  0
  -21.3657   -5.6791   24.9174 C   0  0  0  0  0  0
  -21.6045   -4.3053   24.7225 C   0  0  0  0  0  0
  -21.8818   -3.8142   23.4346 C   0  0  0  0  0  0
  -21.9190   -4.6958   22.3402 C   0  0  0  0  0  0
  -22.7729  -13.5115   21.1899 C   0  0  0  0  0  0
  -22.1661   -4.2147   21.0977 F   0  0  0  0  0  0
  -21.5629   -3.4536   25.7736 F   0  0  0  0  0  0
  -29.8811  -13.9764   20.3690 N   0  0  0  0  0  0
  -26.2798  -12.9471   20.3156 N   0  0  0  0  0  0
  -25.9346  -11.6581   20.5735 N   0  0  0  0  0  0
  -22.0399  -12.8126   22.0477 N   0  0  0  0  0  0
  -25.3658  -15.1809   20.3675 N   0  0  0  0  0  0
  -31.6444  -15.2838   20.0657 O   0  0  0  0  0  0
  -21.6633   -6.8871   21.4244 O   0  0  0  0  0  0
  -22.3404  -14.5420   20.6744 O   0  0  0  0  0  0
  -24.6636  -31.8231   23.1691 C   0  0  0  0  0  0
  -25.9318  -32.4583   23.8158 C   0  0  1  0  0  0
  -27.2244  -26.9205   20.1934 C   0  0  0  0  0  0
  -25.5982  -33.8397   24.2066 N   0  0  0  0  0  0
  -23.4782  -30.4343   21.5183 C   0  0  2  0  0  0
  -24.9331  -28.8172   20.1161 C   0  0  0  0  0  0
  -22.7669  -29.4449   22.4777 C   0  0  0  0  0  0
  -18.0325  -28.1410   22.8469 C   0  0  0  0  0  0
  -24.1494  -36.7209   23.2645 C   0  0  0  0  0  0
  -26.0477  -30.6292   21.3990 C   0  0  0  0  0  0
  -26.1176  -29.2165   20.7472 C   0  0  0  0  0  0
  -27.2579  -28.2910   20.7585 C   0  0  0  0  0  0
  -26.0072  -26.6730   19.5176 C   0  0  0  0  0  0
  -24.9039  -27.5657   19.4805 C   0  0  0  0  0  0
  -23.7185  -29.7455   20.1462 C   0  0  0  0  0  0
  -25.4134  -36.2961   24.0293 C   0  0  1  0  0  0
  -20.5950  -28.3758   23.1184 C   0  0  2  0  0  0
  -20.6807  -26.9436   22.5405 C   0  0  0  0  0  0
  -19.5780  -26.6378   21.5219 C   0  0  0  0  0  0
  -18.1956  -26.7945   22.1625 C   0  0  0  0  0  0
  -19.1585  -28.8906   23.2815 C   0  0  0  0  0  0
  -18.9496  -30.1495   23.8853 C   0  0  0  0  0  0
  -17.6491  -30.6598   24.0557 C   0  0  0  0  0  0
  -25.9103  -34.9345   23.5002 C   0  0  0  0  0  0
  -16.5380  -29.9085   23.6342 C   0  0  0  0  0  0
  -16.7309  -28.6503   23.0362 C   0  0  0  0  0  0
  -26.4561  -31.6529   25.0690 C   0  0  0  0  0  0
  -25.3682  -31.3794   26.1345 C   0  0  0  0  0  0
  -27.0452  -30.2890   24.6424 C   0  0  0  0  0  0
  -27.6046  -32.4341   25.7502 C   0  0  0  0  0  0
  -27.5569  -37.1761   24.8464 C   0  0  0  0  0  0
  -21.4339  -29.3049   22.3531 N   0  0  0  0  0  0
  -26.4279  -37.3699   23.9404 N   0  0  0  0  0  0
  -24.7512  -30.9889   22.0828 N   0  0  0  0  0  0
  -23.4215  -28.8022   23.3020 O   0  0  0  0  0  0
  -28.2397  -25.8218   20.2438 O   0  0  0  0  0  0
  -26.5711  -34.8884   22.4598 O   0  0  0  0  0  0
  -23.5707  -32.1204   23.6778 O   0  0  0  0  0  0
  -28.6843  -19.4640   20.7200 C   0  0  0  0  0  0
  -27.6369  -18.7625   21.3944 C   0  0  0  0  0  0
  -28.3515  -21.0277   20.6231 C   0  0  0  0  0  0
  -26.2468  -20.5576   21.5206 C   0  0  0  0  0  0
  -29.8422  -18.2295   20.2953 C   0  0  0  0  0  0
  -27.6972  -17.2869   21.7939 C   0  0  0  0  0  0
  -29.1004  -16.7132   21.9823 C   0  0  0  0  0  0
  -24.8802  -21.1077   21.8649 C   0  0  0  0  0  0
  -28.9276  -22.6261   20.2648 C   0  0  0  0  0  0
  -27.9726  -24.1841   20.2961 C   0  0  0  0  0  0
  -26.4647  -19.2925   21.7583 N   0  0  0  0  0  0
  -27.1204  -21.3962   21.0224 N   0  0  0  0  0  0
  -29.7418  -16.5951   20.6805 N   0  0  0  0  0  0
  -31.4580  -13.0363   19.2045 H   0  0  0  0  0  0
  -30.5163  -11.9219   20.1339 H   0  0  0  0  0  0
  -29.9309  -11.7794   17.6923 H   0  0  0  0  0  0
  -29.5682  -13.4870   17.6608 H   0  0  0  0  0  0
  -28.0481  -11.2820   19.0740 H   0  0  0  0  0  0
  -27.4267  -12.3573   17.8477 H   0  0  0  0  0  0
  -27.5355  -14.2483   19.3429 H   0  0  0  0  0  0
  -28.8209  -12.4702   21.4618 H   0  0  0  0  0  0
  -28.2296  -14.0764   21.7239 H   0  0  0  0  0  0
  -25.2781   -9.5637   22.4780 H   0  0  0  0  0  0
  -23.9991   -7.4604   22.7492 H   0  0  0  0  0  0
  -21.0850   -8.8772   19.8960 H   0  0  0  0  0  0
  -22.3738  -10.9653   19.6177 H   0  0  0  0  0  0
  -21.2001   -7.6143   23.9714 H   0  0  0  0  0  0
  -21.1481   -6.0519   25.9077 H   0  0  0  0  0  0
  -22.0600   -2.7606   23.2845 H   0  0  0  0  0  0
  -22.4021  -11.9797   22.4869 H   0  0  0  0  0  0
  -21.1019  -13.1150   22.2693 H   0  0  0  0  0  0
  -24.5708  -15.8067   20.4391 H   0  0  0  0  0  0
  -26.1680  -15.6075   19.9243 H   0  0  0  0  0  0
  -26.7388  -32.5115   23.0874 H   0  0  0  0  0  0
  -25.0073  -33.9473   25.0177 H   0  0  0  0  0  0
  -22.7918  -31.2663   21.3463 H   0  0  0  0  0  0
  -23.3762  -35.9533   23.3272 H   0  0  0  0  0  0
  -24.3574  -36.8892   22.2068 H   0  0  0  0  0  0
  -23.7249  -37.6385   23.6725 H   0  0  0  0  0  0
  -26.2250  -31.3671   20.6153 H   0  0  0  0  0  0
  -26.9097  -30.6912   22.0518 H   0  0  0  0  0  0
  -28.1550  -28.5990   21.2761 H   0  0  0  0  0  0
  -25.8725  -25.7202   19.0266 H   0  0  0  0  0  0
  -24.0040  -27.2533   18.9689 H   0  0  0  0  0  0
  -23.8714  -30.5121   19.3865 H   0  0  0  0  0  0
  -22.8289  -29.1973   19.8313 H   0  0  0  0  0  0
  -25.1334  -36.1753   25.0784 H   0  0  0  0  0  0
  -21.0042  -28.3369   24.1310 H   0  0  0  0  0  0
  -20.5689  -26.2374   23.3646 H   0  0  0  0  0  0
  -21.6664  -26.7414   22.1210 H   0  0  0  0  0  0
  -19.6936  -25.6276   21.1278 H   0  0  0  0  0  0
  -19.6717  -27.3162   20.6724 H   0  0  0  0  0  0
  -17.4228  -26.6688   21.4026 H   0  0  0  0  0  0
  -18.0351  -26.0097   22.9030 H   0  0  0  0  0  0
  -19.7968  -30.7323   24.2199 H   0  0  0  0  0  0
  -17.5036  -31.6274   24.5167 H   0  0  0  0  0  0
  -15.5373  -30.2972   23.7691 H   0  0  0  0  0  0
  -15.8709  -28.0807   22.7105 H   0  0  0  0  0  0
  -24.5887  -30.7118   25.7663 H   0  0  0  0  0  0
  -24.8851  -32.3001   26.4623 H   0  0  0  0  0  0
  -25.7915  -30.9068   27.0218 H   0  0  0  0  0  0
  -26.3117  -29.6572   24.1404 H   0  0  0  0  0  0
  -27.3950  -29.7253   25.5082 H   0  0  0  0  0  0
  -27.9072  -30.4062   23.9856 H   0  0  0  0  0  0
  -27.2607  -33.3689   26.1943 H   0  0  0  0  0  0
  -28.3935  -32.6827   25.0391 H   0  0  0  0  0  0
  -28.0624  -31.8556   26.5536 H   0  0  0  0  0  0
  -28.2561  -38.0078   24.7506 H   0  0  0  0  0  0
  -28.1085  -36.2602   24.6292 H   0  0  0  0  0  0
  -27.2284  -37.1407   25.8866 H   0  0  0  0  0  0
  -20.9591  -29.8717   21.6642 H   0  0  0  0  0  0
  -26.0120  -38.2756   24.1412 H   0  0  0  0  0  0
  -29.9399  -18.2677   19.2101 H   0  0  0  0  0  0
  -30.8075  -18.5713   20.6701 H   0  0  0  0  0  0
  -27.1888  -16.7251   21.0206 H   0  0  0  0  0  0
  -27.1324  -17.1350   22.7159 H   0  0  0  0  0  0
  -29.6836  -17.3733   22.6279 H   0  0  0  0  0  0
  -29.0669  -15.7753   22.5293 H   0  0  0  0  0  0
  -24.8983  -21.5789   22.8473 H   0  0  0  0  0  0
  -24.1255  -20.3211   21.8751 H   0  0  0  0  0  0
  -24.5707  -21.8536   21.1320 H   0  0  0  0  0  0
  -29.7496  -22.7680   20.9648 H   0  0  0  0  0  0
  -29.4081  -22.5588   19.2893 H   0  0  0  0  0  0
  -27.4167  -24.1115   21.2307 H   0  0  0  0  0  0
  -27.2187  -24.0215   19.5281 H   0  0  0  0  0  0
  1 25  1  0  0  0
  1 30  2  0  0  0
  1 83  1  0  0  0
  2  3  1  0  0  0
  2 25  1  0  0  0
  2 84  1  0  0  0
  2 85  1  0  0  0
  3  4  1  0  0  0
  3 86  1  0  0  0
  3 87  1  0  0  0
  4  5  1  0  0  0
  4 88  1  0  0  0
  4 89  1  0  0  0
  5  6  1  0  0  0
  5 26  1  0  0  0
  5 90  1  0  0  0
  6 25  1  0  0  0
  6 91  1  0  0  0
  6 92  1  0  0  0
  7  8  2  0  0  0
  7 26  1  0  0  0
  7 29  1  0  0  0
  8  9  1  0  0  0
  8 22  1  0  0  0
  9 10  1  0  0  0
  9 27  2  0  0  0
 10 11  2  0  0  0
 10 15  1  0  0  0
 11 12  1  0  0  0
 11 93  1  0  0  0
 12 13  2  0  0  0
 12 94  1  0  0  0
 13 14  1  0  0  0
 13 31  1  0  0  0
 14 15  2  0  0  0
 14 95  1  0  0  0
 15 96  1  0  0  0
 16 17  2  0  0  0
 16 21  1  0  0  0
 16 31  1  0  0  0
 17 18  1  0  0  0
 17 97  1  0  0  0
 18 19  2  0  0  0
 18 98  1  0  0  0
 19 20  1  0  0  0
 19 24  1  0  0  0
 20 21  2  0  0  0
 20 99  1  0  0  0
 21 23  1  0  0  0
 22 28  1  0  0  0
 22 32  2  0  0  0
 26 27  1  0  0  0
 28100  1  0  0  0
 28101  1  0  0  0
 29102  1  0  0  0
 29103  1  0  0  0
 33 34  1  0  0  0
 33 66  1  0  0  0
 33 70  2  0  0  0
 34 36  1  0  0  0
 34 59  1  0  0  0
 34104  1  0  0  0
 35 44  2  0  0  0
 35 45  1  0  0  0
 35 68  1  0  0  0
 36 56  1  0  0  0
 36105  1  0  0  0
 37 39  1  0  0  0
 37 47  1  0  0  0
 37 66  1  0  0  0
 37106  1  0  0  0
 38 43  2  0  0  0
 38 46  1  0  0  0
 38 47  1  0  0  0
 39 64  1  0  0  0
 39 67  2  0  0  0
 40 52  1  0  0  0
 40 53  2  0  0  0
 40 58  1  0  0  0
 41107  1  0  0  0
 41108  1  0  0  0
 41109  1  0  0  0
 41 48  1  0  0  0
 42 43  1  0  0  0
 42 66  1  0  0  0
 42110  1  0  0  0
 42111  1  0  0  0
 43 44  1  0  0  0
 44112  1  0  0  0
 45 46  2  0  0  0
 45113  1  0  0  0
 46114  1  0  0  0
 47115  1  0  0  0
 47116  1  0  0  0
 48 56  1  0  0  0
 48 65  1  0  0  0
 48117  1  0  0  0
 49 50  1  0  0  0
 49 53  1  0  0  0
 49 64  1  0  0  0
 49118  1  0  0  0
 50 51  1  0  0  0
 50119  1  0  0  0
 50120  1  0  0  0
 51 52  1  0  0  0
 51121  1  0  0  0
 51122  1  0  0  0
 52123  1  0  0  0
 52124  1  0  0  0
 53 54  1  0  0  0
 54 55  2  0  0  0
 54125  1  0  0  0
 55 57  1  0  0  0
 55126  1  0  0  0
 56 69  2  0  0  0
 57 58  2  0  0  0
 57127  1  0  0  0
 58128  1  0  0  0
 59 60  1  0  0  0
 59 61  1  0  0  0
 59 62  1  0  0  0
 60129  1  0  0  0
 60130  1  0  0  0
 60131  1  0  0  0
 61132  1  0  0  0
 61133  1  0  0  0
 61134  1  0  0  0
 62135  1  0  0  0
 62136  1  0  0  0
 62137  1  0  0  0
 63 65  1  0  0  0
 63138  1  0  0  0
 63139  1  0  0  0
 63140  1  0  0  0
 64141  1  0  0  0
 65142  1  0  0  0
 68 80  1  0  0  0
 71 72  2  0  0  0
 71 73  1  0  0  0
 71 75  1  0  0  0
 72 76  1  0  0  0
 72 81  1  0  0  0
 73 79  1  0  0  0
 73 82  2  0  0  0
 74 78  1  0  0  0
 74 81  2  0  0  0
 74 82  1  0  0  0
 75 83  1  0  0  0
 75143  1  0  0  0
 75144  1  0  0  0
 76 77  1  0  0  0
 76145  1  0  0  0
 76146  1  0  0  0
 77 83  1  0  0  0
 77147  1  0  0  0
 77148  1  0  0  0
 78149  1  0  0  0
 78150  1  0  0  0
 78151  1  0  0  0
 79 80  1  0  0  0
 79152  1  0  0  0
 79153  1  0  0  0
 80154  1  0  0  0
 80155  1  0  0  0
M  ISO  4   1 100  68 101  80 101  83 100
M  END
> <chiral flag>
0

> <version>
0

> <s_m_source_file>
/data/baiqing/PycharmProjects/Reinvent-master-3.2/result/LINK_invent/BTK/process_docking_weight1_custom_sum_contain_oxygen_bond_distance_aromatic_linkinvent_7_9_3/rearranged_h_0168.sdf

> <i_m_source_file_index>
40

> <r_mmod_Potential_Energy-OPLS-2005>
1265.041015625

> <r_mmod_Stretch_Energy-OPLS-2005>
667.977966308594

> <r_mmod_Bend_Energy-OPLS-2005>
550.807556152344

> <r_mmod_Torsional_Energy-OPLS-2005>
291.629730224609

> <r_mmod_Improper_Torsional_Energy-OPLS-2005>
7.15584087371826

> <r_mmod_Van_der_Waal_Energy-OPLS-2005>
145.006042480469

> <r_mmod_Electrostatic_Energy-OPLS-2005>
-634.181396484375

> <r_mmod_Solvation_Energy-OPLS-2005>
-228.661087036133

> <b_mmod_Minimization_Converged-OPLS-2005>
0

> <r_mmod_RMS_Derivative-OPLS-2005>
1.67097985744476

$$$$
40
                    3D
 Structure written by MMmdl.
160169  0  0  1  0            999 V2000
  -30.4892  -15.3704   20.3783 C   0  0  0  0  0  0
  -30.4140  -12.9112   19.4936 C   0  0  0  0  0  0
  -29.5222  -12.5937   18.2721 C   0  0  0  0  0  0
  -28.0870  -12.2914   18.7285 C   0  0  0  0  0  0
  -27.5983  -13.2897   19.8076 C   0  0  2  0  0  0
  -28.6376  -13.5611   20.9185 C   0  0  0  0  0  0
  -25.2354  -13.8273   20.5801 C   0  0  0  0  0  0
  -24.1715  -13.0440   20.9291 C   0  0  0  0  0  0
  -24.6391  -11.6941   20.8786 C   0  0  0  0  0  0
  -23.9096  -10.4288   21.0408 C   0  0  0  0  0  0
  -24.3636   -9.4202   21.9184 C   0  0  0  0  0  0
  -23.6307   -8.2242   22.0755 C   0  0  0  0  0  0
  -22.4288   -8.0283   21.3550 C   0  0  0  0  0  0
  -21.9938   -9.0247   20.4644 C   0  0  0  0  0  0
  -22.7272  -10.2121   20.3055 C   0  0  0  0  0  0
  -21.6857   -6.0732   22.5267 C   0  0  0  0  0  0
  -21.4031   -6.5638   23.8200 C   0  0  0  0  0  0
  -21.3676   -5.6789   24.9164 C   0  0  0  0  0  0
  -21.6048   -4.3046   24.7217 C   0  0  0  0  0  0
  -21.8806   -3.8142   23.4331 C   0  0  0  0  0  0
  -21.9184   -4.6959   22.3391 C   0  0  0  0  0  0
  -22.7722  -13.5181   21.1896 C   0  0  0  0  0  0
  -22.1645   -4.2142   21.0967 F   0  0  0  0  0  0
  -21.5638   -3.4534   25.7736 F   0  0  0  0  0  0
  -29.8279  -14.1042   20.2323 N   0  0  0  0  0  0
  -26.2787  -12.9574   20.3236 N   0  0  0  0  0  0
  -25.9339  -11.6658   20.5737 N   0  0  0  0  0  0
  -22.0368  -12.8180   22.0455 N   0  0  0  0  0  0
  -25.3949  -15.2017   20.4273 N   0  0  0  0  0  0
  -31.7173  -15.1732   20.3277 O   0  0  0  0  0  0
  -21.6658   -6.8878   21.4233 O   0  0  0  0  0  0
  -22.3414  -14.5468   20.6698 O   0  0  0  0  0  0
  -24.6691  -31.8171   23.1651 C   0  0  0  0  0  0
  -25.9350  -32.4551   23.8136 C   0  0  1  0  0  0
  -27.2147  -26.8605   20.1866 C   0  0  0  0  0  0
  -25.5979  -33.8370   24.2040 N   0  0  0  0  0  0
  -23.4878  -30.4275   21.5151 C   0  0  2  0  0  0
  -24.9413  -28.8010   20.1146 C   0  0  0  0  0  0
  -22.7700  -29.4413   22.4747 C   0  0  0  0  0  0
  -18.0325  -28.1415   22.8459 C   0  0  0  0  0  0
  -24.1493  -36.7193   23.2648 C   0  0  0  0  0  0
  -26.0612  -30.6028   21.4043 C   0  0  0  0  0  0
  -26.1282  -29.1844   20.7502 C   0  0  0  0  0  0
  -27.2591  -28.2369   20.7598 C   0  0  0  0  0  0
  -25.9972  -26.6475   19.5019 C   0  0  0  0  0  0
  -24.9037  -27.5551   19.4694 C   0  0  0  0  0  0
  -23.7324  -29.7384   20.1442 C   0  0  0  0  0  0
  -25.4133  -36.2947   24.0296 C   0  0  1  0  0  0
  -20.5963  -28.3763   23.1169 C   0  0  2  0  0  0
  -20.6803  -26.9436   22.5400 C   0  0  0  0  0  0
  -19.5775  -26.6375   21.5209 C   0  0  0  0  0  0
  -18.1956  -26.7942   22.1623 C   0  0  0  0  0  0
  -19.1593  -28.8904   23.2805 C   0  0  0  0  0  0
  -18.9502  -30.1495   23.8847 C   0  0  0  0  0  0
  -17.6491  -30.6601   24.0554 C   0  0  0  0  0  0
  -25.9103  -34.9333   23.4996 C   0  0  0  0  0  0
  -16.5380  -29.9088   23.6348 C   0  0  0  0  0  0
  -16.7302  -28.6513   23.0353 C   0  0  0  0  0  0
  -26.4566  -31.6520   25.0696 C   0  0  0  0  0  0
  -25.3664  -31.3794   26.1331 C   0  0  0  0  0  0
  -27.0461  -30.2874   24.6466 C   0  0  0  0  0  0
  -27.6055  -32.4330   25.7505 C   0  0  0  0  0  0
  -27.5571  -37.1746   24.8458 C   0  0  0  0  0  0
  -21.4364  -29.3045   22.3507 N   0  0  0  0  0  0
  -26.4267  -37.3700   23.9420 N   0  0  0  0  0  0
  -24.7615  -30.9776   22.0814 N   0  0  0  0  0  0
  -23.4218  -28.7980   23.3012 O   0  0  0  0  0  0
  -28.1972  -25.7132   20.2465 O   0  0  0  0  0  0
  -26.5725  -34.8882   22.4600 O   0  0  0  0  0  0
  -23.5750  -32.1167   23.6708 O   0  0  0  0  0  0
  -30.6257  -20.0739   19.9135 C   0  0  0  0  0  0
  -29.3025  -19.7799   20.2734 C   0  0  0  0  0  0
  -31.0788  -21.4334   19.7561 C   0  0  0  0  0  0
  -28.4440  -21.0694   20.3843 C   0  0  0  0  0  0
  -30.2220  -22.6029   19.8078 C   0  0  0  0  0  0
  -28.8367  -22.5575   20.1578 C   0  0  0  0  0  0
  -31.5579  -18.8513   19.7167 C   0  0  0  0  0  0
  -29.0483  -18.0620   20.5384 C   0  0  0  0  0  0
  -30.8843  -17.5555   19.1349 C   0  0  0  0  0  0
  -32.5831  -21.6319   19.5458 C   0  0  0  0  0  0
  -26.9928  -20.8414   20.7545 C   0  0  0  0  0  0
  -30.8034  -23.9672   19.4413 C   0  0  0  0  0  0
  -27.8736  -24.0651   20.1599 C   0  0  0  0  0  0
  -30.0090  -16.7853   20.0638 N   0  0  0  0  0  0
  -31.4248  -13.1085   19.1341 H   0  0  0  0  0  0
  -30.5034  -12.0412   20.1472 H   0  0  0  0  0  0
  -29.9278  -11.7558   17.7038 H   0  0  0  0  0  0
  -29.5180  -13.4518   17.5978 H   0  0  0  0  0  0
  -28.0778  -11.2808   19.1394 H   0  0  0  0  0  0
  -27.4063  -12.2817   17.8762 H   0  0  0  0  0  0
  -27.4809  -14.2306   19.2689 H   0  0  0  0  0  0
  -28.8533  -12.6653   21.5016 H   0  0  0  0  0  0
  -28.2570  -14.3078   21.6176 H   0  0  0  0  0  0
  -25.2764   -9.5709   22.4770 H   0  0  0  0  0  0
  -24.0011   -7.4653   22.7493 H   0  0  0  0  0  0
  -21.0861   -8.8770   19.8956 H   0  0  0  0  0  0
  -22.3714  -10.9664   19.6174 H   0  0  0  0  0  0
  -21.2039   -7.6150   23.9705 H   0  0  0  0  0  0
  -21.1522   -6.0524   25.9068 H   0  0  0  0  0  0
  -22.0578   -2.7607   23.2820 H   0  0  0  0  0  0
  -22.4017  -11.9895   22.4912 H   0  0  0  0  0  0
  -21.0963  -13.1179   22.2612 H   0  0  0  0  0  0
  -24.6273  -15.8515   20.5607 H   0  0  0  0  0  0
  -26.2414  -15.6494   20.1006 H   0  0  0  0  0  0
  -26.7418  -32.5079   23.0851 H   0  0  0  0  0  0
  -25.0057  -33.9430   25.0132 H   0  0  0  0  0  0
  -22.8046  -31.2621   21.3387 H   0  0  0  0  0  0
  -23.3782  -35.9496   23.3251 H   0  0  0  0  0  0
  -24.3574  -36.8908   22.2076 H   0  0  0  0  0  0
  -23.7222  -37.6345   23.6747 H   0  0  0  0  0  0
  -26.2447  -31.3386   20.6203 H   0  0  0  0  0  0
  -26.9205  -30.6652   22.0603 H   0  0  0  0  0  0
  -28.1574  -28.5295   21.2847 H   0  0  0  0  0  0
  -25.8514  -25.6998   19.0048 H   0  0  0  0  0  0
  -24.0019  -27.2553   18.9527 H   0  0  0  0  0  0
  -23.9003  -30.5047   19.3861 H   0  0  0  0  0  0
  -22.8398  -29.1998   19.8202 H   0  0  0  0  0  0
  -25.1336  -36.1725   25.0784 H   0  0  0  0  0  0
  -21.0049  -28.3381   24.1293 H   0  0  0  0  0  0
  -20.5676  -26.2381   23.3649 H   0  0  0  0  0  0
  -21.6665  -26.7399   22.1217 H   0  0  0  0  0  0
  -19.6933  -25.6266   21.1280 H   0  0  0  0  0  0
  -19.6718  -27.3154   20.6712 H   0  0  0  0  0  0
  -17.4226  -26.6679   21.4026 H   0  0  0  0  0  0
  -18.0361  -26.0100   22.9040 H   0  0  0  0  0  0
  -19.7979  -30.7319   24.2206 H   0  0  0  0  0  0
  -17.5042  -31.6272   24.5177 H   0  0  0  0  0  0
  -15.5375  -30.2965   23.7701 H   0  0  0  0  0  0
  -15.8713  -28.0808   22.7085 H   0  0  0  0  0  0
  -24.5837  -30.7164   25.7624 H   0  0  0  0  0  0
  -24.8855  -32.3002   26.4645 H   0  0  0  0  0  0
  -25.7858  -30.9010   27.0189 H   0  0  0  0  0  0
  -26.3116  -29.6525   24.1492 H   0  0  0  0  0  0
  -27.3985  -29.7283   25.5145 H   0  0  0  0  0  0
  -27.9074  -30.4047   23.9890 H   0  0  0  0  0  0
  -27.2615  -33.3666   26.1977 H   0  0  0  0  0  0
  -28.3923  -32.6830   25.0374 H   0  0  0  0  0  0
  -28.0654  -31.8514   26.5507 H   0  0  0  0  0  0
  -28.2543  -38.0088   24.7548 H   0  0  0  0  0  0
  -28.1112  -36.2613   24.6225 H   0  0  0  0  0  0
  -27.2294  -37.1326   25.8861 H   0  0  0  0  0  0
  -20.9622  -29.8711   21.6607 H   0  0  0  0  0  0
  -26.0107  -38.2750   24.1447 H   0  0  0  0  0  0
  -32.0489  -18.6205   20.6631 H   0  0  0  0  0  0
  -32.3540  -19.1160   19.0218 H   0  0  0  0  0  0
  -28.0590  -17.8426   20.1354 H   0  0  0  0  0  0
  -28.9358  -17.9519   21.6181 H   0  0  0  0  0  0
  -31.6732  -16.9306   18.7164 H   0  0  0  0  0  0
  -30.2920  -17.8318   18.2619 H   0  0  0  0  0  0
  -33.1583  -20.9121   20.1288 H   0  0  0  0  0  0
  -32.9388  -22.6019   19.8890 H   0  0  0  0  0  0
  -32.8493  -21.5135   18.4951 H   0  0  0  0  0  0
  -26.8120  -19.8069   21.0475 H   0  0  0  0  0  0
  -26.3440  -21.0703   19.9093 H   0  0  0  0  0  0
  -26.7055  -21.4778   21.5917 H   0  0  0  0  0  0
  -31.6091  -23.8913   18.7118 H   0  0  0  0  0  0
  -31.1800  -24.4776   20.3274 H   0  0  0  0  0  0
  -30.0669  -24.6088   18.9603 H   0  0  0  0  0  0
  -27.1144  -23.9016   20.9254 H   0  0  0  0  0  0
  -27.3256  -23.9720   19.2222 H   0  0  0  0  0  0
  1 25  1  0  0  0
  1 30  2  0  0  0
  1 84  1  0  0  0
  2  3  1  0  0  0
  2 25  1  0  0  0
  2 85  1  0  0  0
  2 86  1  0  0  0
  3  4  1  0  0  0
  3 87  1  0  0  0
  3 88  1  0  0  0
  4  5  1  0  0  0
  4 89  1  0  0  0
  4 90  1  0  0  0
  5  6  1  0  0  0
  5 26  1  0  0  0
  5 91  1  0  0  0
  6 25  1  0  0  0
  6 92  1  0  0  0
  6 93  1  0  0  0
  7  8  2  0  0  0
  7 26  1  0  0  0
  7 29  1  0  0  0
  8  9  1  0  0  0
  8 22  1  0  0  0
  9 10  1  0  0  0
  9 27  2  0  0  0
 10 11  2  0  0  0
 10 15  1  0  0  0
 11 12  1  0  0  0
 11 94  1  0  0  0
 12 13  2  0  0  0
 12 95  1  0  0  0
 13 14  1  0  0  0
 13 31  1  0  0  0
 14 15  2  0  0  0
 14 96  1  0  0  0
 15 97  1  0  0  0
 16 17  2  0  0  0
 16 21  1  0  0  0
 16 31  1  0  0  0
 17 18  1  0  0  0
 17 98  1  0  0  0
 18 19  2  0  0  0
 18 99  1  0  0  0
 19 20  1  0  0  0
 19 24  1  0  0  0
 20 21  2  0  0  0
 20100  1  0  0  0
 21 23  1  0  0  0
 22 28  1  0  0  0
 22 32  2  0  0  0
 26 27  1  0  0  0
 28101  1  0  0  0
 28102  1  0  0  0
 29103  1  0  0  0
 29104  1  0  0  0
 33 34  1  0  0  0
 33 66  1  0  0  0
 33 70  2  0  0  0
 34 36  1  0  0  0
 34 59  1  0  0  0
 34105  1  0  0  0
 35 44  2  0  0  0
 35 45  1  0  0  0
 35 68  1  0  0  0
 36 56  1  0  0  0
 36106  1  0  0  0
 37 39  1  0  0  0
 37 47  1  0  0  0
 37 66  1  0  0  0
 37107  1  0  0  0
 38 43  2  0  0  0
 38 46  1  0  0  0
 38 47  1  0  0  0
 39 64  1  0  0  0
 39 67  2  0  0  0
 40 52  1  0  0  0
 40 53  2  0  0  0
 40 58  1  0  0  0
 41108  1  0  0  0
 41109  1  0  0  0
 41110  1  0  0  0
 41 48  1  0  0  0
 42 43  1  0  0  0
 42 66  1  0  0  0
 42111  1  0  0  0
 42112  1  0  0  0
 43 44  1  0  0  0
 44113  1  0  0  0
 45 46  2  0  0  0
 45114  1  0  0  0
 46115  1  0  0  0
 47116  1  0  0  0
 47117  1  0  0  0
 48 56  1  0  0  0
 48 65  1  0  0  0
 48118  1  0  0  0
 49 50  1  0  0  0
 49 53  1  0  0  0
 49 64  1  0  0  0
 49119  1  0  0  0
 50 51  1  0  0  0
 50120  1  0  0  0
 50121  1  0  0  0
 51 52  1  0  0  0
 51122  1  0  0  0
 51123  1  0  0  0
 52124  1  0  0  0
 52125  1  0  0  0
 53 54  1  0  0  0
 54 55  2  0  0  0
 54126  1  0  0  0
 55 57  1  0  0  0
 55127  1  0  0  0
 56 69  2  0  0  0
 57 58  2  0  0  0
 57128  1  0  0  0
 58129  1  0  0  0
 59 60  1  0  0  0
 59 61  1  0  0  0
 59 62  1  0  0  0
 60130  1  0  0  0
 60131  1  0  0  0
 60132  1  0  0  0
 61133  1  0  0  0
 61134  1  0  0  0
 61135  1  0  0  0
 62136  1  0  0  0
 62137  1  0  0  0
 62138  1  0  0  0
 63 65  1  0  0  0
 63139  1  0  0  0
 63140  1  0  0  0
 63141  1  0  0  0
 64142  1  0  0  0
 65143  1  0  0  0
 68 83  1  0  0  0
 71 72  1  0  0  0
 71 73  2  0  0  0
 71 77  1  0  0  0
 72 74  2  0  0  0
 72 78  1  0  0  0
 73 75  1  0  0  0
 73 80  1  0  0  0
 74 76  1  0  0  0
 74 81  1  0  0  0
 75 76  2  0  0  0
 75 82  1  0  0  0
 76 83  1  0  0  0
 77 79  1  0  0  0
 77144  1  0  0  0
 77145  1  0  0  0
 78 84  1  0  0  0
 78146  1  0  0  0
 78147  1  0  0  0
 79 84  1  0  0  0
 79148  1  0  0  0
 79149  1  0  0  0
 80150  1  0  0  0
 80151  1  0  0  0
 80152  1  0  0  0
 81153  1  0  0  0
 81154  1  0  0  0
 81155  1  0  0  0
 82156  1  0  0  0
 82157  1  0  0  0
 82158  1  0  0  0
 83159  1  0  0  0
 83160  1  0  0  0
M  ISO  4   1 100  68 101  83 101  84 100
M  END
> <chiral flag>
0

> <version>
0

> <s_m_source_file>
/data/baiqing/PycharmProjects/Reinvent-master-3.2/result/LINK_invent/BTK/process_docking_weight1_custom_sum_contain_oxygen_bond_distance_aromatic_linkinvent_7_9_3/rearranged_h_0168.sdf

> <i_m_source_file_index>
41

> <r_mmod_Potential_Energy-OPLS-2005>
1668.14367675781

> <r_mmod_Stretch_Energy-OPLS-2005>
672.881958007812

> <r_mmod_Bend_Energy-OPLS-2005>
480.705444335938

> <r_mmod_Torsional_Energy-OPLS-2005>
301.033233642578

> <r_mmod_Improper_Torsional_Energy-OPLS-2005>
21.5810661315918

> <r_mmod_Van_der_Waal_Energy-OPLS-2005>
152.519348144531

> <r_mmod_Electrostatic_Energy-OPLS-2005>
-327.938629150391

> <r_mmod_Solvation_Energy-OPLS-2005>
-203.409484863281

> <b_mmod_Minimization_Converged-OPLS-2005>
0

> <r_mmod_RMS_Derivative-OPLS-2005>
2.33322858810425

$$$$
41
                    3D
 Structure written by MMmdl.
174185  0  0  1  0            999 V2000
  -30.6171  -14.7786   20.4765 C   0  0  0  0  0  0
  -30.4191  -12.4682   19.5059 C   0  0  0  0  0  0
  -29.5221  -12.5267   18.2502 C   0  0  0  0  0  0
  -28.0374  -12.3719   18.6368 C   0  0  0  0  0  0
  -27.6412  -13.2516   19.8544 C   0  0  2  0  0  0
  -28.6751  -13.1881   20.9991 C   0  0  0  0  0  0
  -25.2461  -13.8245   20.5625 C   0  0  0  0  0  0
  -24.1796  -13.0469   20.9231 C   0  0  0  0  0  0
  -24.6425  -11.6963   20.8735 C   0  0  0  0  0  0
  -23.9119  -10.4319   21.0389 C   0  0  0  0  0  0
  -24.3670   -9.4229   21.9170 C   0  0  0  0  0  0
  -23.6354   -8.2256   22.0740 C   0  0  0  0  0  0
  -22.4312   -8.0284   21.3539 C   0  0  0  0  0  0
  -21.9953   -9.0272   20.4648 C   0  0  0  0  0  0
  -22.7274  -10.2155   20.3053 C   0  0  0  0  0  0
  -21.6843   -6.0755   22.5295 C   0  0  0  0  0  0
  -21.4018   -6.5662   23.8235 C   0  0  0  0  0  0
  -21.3654   -5.6802   24.9183 C   0  0  0  0  0  0
  -21.6035   -4.3062   24.7214 C   0  0  0  0  0  0
  -21.8814   -3.8169   23.4333 C   0  0  0  0  0  0
  -21.9194   -4.6982   22.3398 C   0  0  0  0  0  0
  -22.7799  -13.5214   21.1884 C   0  0  0  0  0  0
  -22.1648   -4.2181   21.0967 F   0  0  0  0  0  0
  -21.5646   -3.4550   25.7721 F   0  0  0  0  0  0
  -29.9791  -13.5499   20.4326 N   0  0  0  0  0  0
  -26.2914  -12.9507   20.3243 N   0  0  0  0  0  0
  -25.9361  -11.6630   20.5726 N   0  0  0  0  0  0
  -22.0454  -12.8199   22.0448 N   0  0  0  0  0  0
  -25.4143  -15.1949   20.3922 N   0  0  0  0  0  0
  -31.7745  -14.8176   20.0507 O   0  0  0  0  0  0
  -21.6653   -6.8892   21.4250 O   0  0  0  0  0  0
  -22.3466  -14.5498   20.6685 O   0  0  0  0  0  0
  -24.6316  -31.8529   23.1933 C   0  0  0  0  0  0
  -25.9147  -32.4738   23.8290 C   0  0  1  0  0  0
  -27.2148  -27.2299   20.1400 C   0  0  0  0  0  0
  -25.5941  -33.8539   24.2201 N   0  0  0  0  0  0
  -23.4281  -30.4740   21.5372 C   0  0  2  0  0  0
  -24.8752  -28.9085   20.1037 C   0  0  0  0  0  0
  -22.7505  -29.4603   22.4888 C   0  0  0  0  0  0
  -18.0301  -28.1395   22.8472 C   0  0  0  0  0  0
  -24.1500  -36.7269   23.2638 C   0  0  0  0  0  0
  -25.9765  -30.7498   21.3833 C   0  0  0  0  0  0
  -26.0437  -29.3724   20.7202 C   0  0  0  0  0  0
  -27.2086  -28.5407   20.7322 C   0  0  0  0  0  0
  -26.0308  -26.8404   19.4792 C   0  0  0  0  0  0
  -24.8767  -27.6529   19.4716 C   0  0  0  0  0  0
  -23.6459  -29.7982   20.1551 C   0  0  0  0  0  0
  -25.4130  -36.3059   24.0315 C   0  0  1  0  0  0
  -20.5905  -28.3704   23.1258 C   0  0  2  0  0  0
  -20.6795  -26.9408   22.5419 C   0  0  0  0  0  0
  -19.5774  -26.6369   21.5220 C   0  0  0  0  0  0
  -18.1947  -26.7942   22.1608 C   0  0  0  0  0  0
  -19.1551  -28.8861   23.2866 C   0  0  0  0  0  0
  -18.9462  -30.1461   23.8882 C   0  0  0  0  0  0
  -17.6459  -30.6588   24.0549 C   0  0  0  0  0  0
  -25.9071  -34.9429   23.5061 C   0  0  0  0  0  0
  -16.5349  -29.9075   23.6339 C   0  0  0  0  0  0
  -16.7289  -28.6499   23.0358 C   0  0  0  0  0  0
  -26.4476  -31.6618   25.0736 C   0  0  0  0  0  0
  -25.3663  -31.3797   26.1434 C   0  0  0  0  0  0
  -27.0335  -30.3020   24.6314 C   0  0  0  0  0  0
  -27.6014  -32.4386   25.7516 C   0  0  0  0  0  0
  -27.5587  -37.1798   24.8435 C   0  0  0  0  0  0
  -21.4219  -29.3047   22.3627 N   0  0  0  0  0  0
  -26.4289  -37.3773   23.9398 N   0  0  0  0  0  0
  -24.6975  -31.0458   22.0920 N   0  0  0  0  0  0
  -23.4192  -28.8167   23.3020 O   0  0  0  0  0  0
  -28.3059  -26.3390   20.2919 O   0  0  0  0  0  0
  -26.5636  -34.8906   22.4634 O   0  0  0  0  0  0
  -23.5467  -32.1350   23.7226 O   0  0  0  0  0  0
  -31.8045  -19.1938   20.0544 C   0  0  0  0  0  0
  -31.5761  -17.9175   20.6095 C   0  0  0  0  0  0
  -30.7804  -20.1087   19.7374 C   0  0  0  0  0  0
  -29.4422  -19.8750   20.1613 C   0  0  0  0  0  0
  -29.2131  -18.4829   20.6159 C   0  0  0  0  0  0
  -30.2363  -17.4228   20.6632 C   0  0  0  0  0  0
  -34.0027  -17.8774   21.7202 C   0  0  0  0  0  0
  -34.0794  -17.0526   20.4534 C   0  0  0  0  0  0
  -26.0792  -19.7568   19.0393 C   0  0  0  0  0  0
  -25.9518  -21.2367   18.8813 C   0  0  0  0  0  0
  -29.2510  -23.8408   20.5590 C   0  0  0  0  0  0
  -27.3936  -23.7685   19.7633 C   0  0  0  0  0  0
  -32.7646  -17.1762   21.1941 C   0  0  0  0  0  0
  -27.3367  -20.6214   18.9375 C   0  0  0  0  0  0
  -28.5507  -22.6707   19.7447 C   0  0  2  0  0  0
  -28.4368  -24.9341   19.7422 C   0  0  1  0  0  0
  -31.2087  -21.3269   18.9419 C   0  0  0  0  0  0
  -27.8538  -18.0882   21.1691 C   0  0  0  0  0  0
  -28.3003  -21.0505   20.0587 C   0  0  2  0  0  0
  -29.9309  -15.9495   20.8534 N   0  0  0  0  0  0
  -31.4698  -12.5552   19.2247 H   0  0  0  0  0  0
  -30.3347  -11.4939   19.9882 H   0  0  0  0  0  0
  -29.8158  -11.7469   17.5454 H   0  0  0  0  0  0
  -29.6778  -13.4780   17.7374 H   0  0  0  0  0  0
  -27.8599  -11.3200   18.8612 H   0  0  0  0  0  0
  -27.4016  -12.6049   17.7817 H   0  0  0  0  0  0
  -27.6393  -14.2802   19.4912 H   0  0  0  0  0  0
  -28.7070  -12.1879   21.4344 H   0  0  0  0  0  0
  -28.4003  -13.8627   21.8116 H   0  0  0  0  0  0
  -25.2822   -9.5716   22.4736 H   0  0  0  0  0  0
  -24.0079   -7.4639   22.7442 H   0  0  0  0  0  0
  -21.0883   -8.8780   19.8960 H   0  0  0  0  0  0
  -22.3729  -10.9687   19.6160 H   0  0  0  0  0  0
  -21.2012   -7.6172   23.9757 H   0  0  0  0  0  0
  -21.1472   -6.0518   25.9096 H   0  0  0  0  0  0
  -22.0595   -2.7631   23.2813 H   0  0  0  0  0  0
  -22.4051  -11.9864   22.4865 H   0  0  0  0  0  0
  -21.1052  -13.1188   22.2614 H   0  0  0  0  0  0
  -24.6446  -15.8484   20.4837 H   0  0  0  0  0  0
  -26.2370  -15.6034   19.9702 H   0  0  0  0  0  0
  -26.7229  -32.5334   23.1031 H   0  0  0  0  0  0
  -25.0114  -33.9653   25.0365 H   0  0  0  0  0  0
  -22.7263  -31.2968   21.3889 H   0  0  0  0  0  0
  -23.3781  -35.9578   23.3252 H   0  0  0  0  0  0
  -24.3596  -36.8941   22.2060 H   0  0  0  0  0  0
  -23.7215  -37.6439   23.6696 H   0  0  0  0  0  0
  -26.1289  -31.5109   20.6165 H   0  0  0  0  0  0
  -26.8462  -30.7866   22.0278 H   0  0  0  0  0  0
  -28.0930  -28.8773   21.2547 H   0  0  0  0  0  0
  -25.9629  -25.8761   19.0036 H   0  0  0  0  0  0
  -23.9809  -27.2919   18.9824 H   0  0  0  0  0  0
  -23.7601  -30.5651   19.3901 H   0  0  0  0  0  0
  -22.7639  -29.2292   19.8583 H   0  0  0  0  0  0
  -25.1332  -36.1893   25.0811 H   0  0  0  0  0  0
  -20.9992  -28.3301   24.1386 H   0  0  0  0  0  0
  -20.5691  -26.2314   23.3635 H   0  0  0  0  0  0
  -21.6667  -26.7459   22.1205 H   0  0  0  0  0  0
  -19.6919  -25.6265   21.1281 H   0  0  0  0  0  0
  -19.6717  -27.3149   20.6724 H   0  0  0  0  0  0
  -17.4237  -26.6702   21.3995 H   0  0  0  0  0  0
  -18.0313  -26.0083   22.8993 H   0  0  0  0  0  0
  -19.7938  -30.7298   24.2220 H   0  0  0  0  0  0
  -17.5018  -31.6266   24.5156 H   0  0  0  0  0  0
  -15.5347  -30.2963   23.7694 H   0  0  0  0  0  0
  -15.8697  -28.0819   22.7073 H   0  0  0  0  0  0
  -24.5821  -30.7178   25.7731 H   0  0  0  0  0  0
  -24.8870  -32.2989   26.4834 H   0  0  0  0  0  0
  -25.7936  -30.8961   27.0234 H   0  0  0  0  0  0
  -26.2949  -29.6757   24.1301 H   0  0  0  0  0  0
  -27.3908  -29.7312   25.4900 H   0  0  0  0  0  0
  -27.8879  -30.4238   23.9645 H   0  0  0  0  0  0
  -27.2605  -33.3695   26.2049 H   0  0  0  0  0  0
  -28.3846  -32.6942   25.0371 H   0  0  0  0  0  0
  -28.0668  -31.8560   26.5468 H   0  0  0  0  0  0
  -28.2584  -38.0120   24.7555 H   0  0  0  0  0  0
  -28.1108  -36.2664   24.6192 H   0  0  0  0  0  0
  -27.2308  -37.1364   25.8832 H   0  0  0  0  0  0
  -20.9395  -29.8740   21.6809 H   0  0  0  0  0  0
  -26.0156  -38.2841   24.1418 H   0  0  0  0  0  0
  -32.8239  -19.5009   19.8618 H   0  0  0  0  0  0
  -34.0806  -18.9582   21.6348 H   0  0  0  0  0  0
  -34.4878  -17.4533   22.5998 H   0  0  0  0  0  0
  -34.5890  -16.0923   20.5022 H   0  0  0  0  0  0
  -34.2011  -17.5942   19.5166 H   0  0  0  0  0  0
  -25.8010  -19.1605   18.1699 H   0  0  0  0  0  0
  -25.7156  -19.3726   19.9879 H   0  0  0  0  0  0
  -25.5982  -21.7782   19.7600 H   0  0  0  0  0  0
  -25.6397  -21.6442   17.9214 H   0  0  0  0  0  0
  -30.3262  -23.9393   20.4356 H   0  0  0  0  0  0
  -29.0050  -23.8305   21.6233 H   0  0  0  0  0  0
  -26.7919  -23.7386   20.6744 H   0  0  0  0  0  0
  -26.7541  -23.7585   18.8816 H   0  0  0  0  0  0
  -32.4425  -16.3825   21.8643 H   0  0  0  0  0  0
  -27.8459  -20.5618   17.9761 H   0  0  0  0  0  0
  -28.9532  -22.7227   18.7317 H   0  0  0  0  0  0
  -28.8531  -25.0262   18.7367 H   0  0  0  0  0  0
  -32.2306  -21.2341   18.5750 H   0  0  0  0  0  0
  -31.1908  -22.2194   19.5543 H   0  0  0  0  0  0
  -30.5872  -21.4461   18.0550 H   0  0  0  0  0  0
  -27.2802  -18.9472   21.5103 H   0  0  0  0  0  0
  -27.9844  -17.4679   22.0557 H   0  0  0  0  0  0
  -27.2713  -17.5259   20.4388 H   0  0  0  0  0  0
  -27.7492  -21.0097   20.9981 H   0  0  0  0  0  0
  -28.9890  -15.7610   21.1590 H   0  0  0  0  0  0
  1 25  1  0  0  0
  1 30  2  0  0  0
  1 90  1  0  0  0
  2  3  1  0  0  0
  2 25  1  0  0  0
  2 91  1  0  0  0
  2 92  1  0  0  0
  3  4  1  0  0  0
  3 93  1  0  0  0
  3 94  1  0  0  0
  4  5  1  0  0  0
  4 95  1  0  0  0
  4 96  1  0  0  0
  5  6  1  0  0  0
  5 26  1  0  0  0
  5 97  1  0  0  0
  6 25  1  0  0  0
  6 98  1  0  0  0
  6 99  1  0  0  0
  7  8  2  0  0  0
  7 26  1  0  0  0
  7 29  1  0  0  0
  8  9  1  0  0  0
  8 22  1  0  0  0
  9 10  1  0  0  0
  9 27  2  0  0  0
 10 11  2  0  0  0
 10 15  1  0  0  0
 11 12  1  0  0  0
 11100  1  0  0  0
 12 13  2  0  0  0
 12101  1  0  0  0
 13 14  1  0  0  0
 13 31  1  0  0  0
 14 15  2  0  0  0
 14102  1  0  0  0
 15103  1  0  0  0
 16 17  2  0  0  0
 16 21  1  0  0  0
 16 31  1  0  0  0
 17 18  1  0  0  0
 17104  1  0  0  0
 18 19  2  0  0  0
 18105  1  0  0  0
 19 20  1  0  0  0
 19 24  1  0  0  0
 20 21  2  0  0  0
 20106  1  0  0  0
 21 23  1  0  0  0
 22 28  1  0  0  0
 22 32  2  0  0  0
 26 27  1  0  0  0
 28107  1  0  0  0
 28108  1  0  0  0
 29109  1  0  0  0
 29110  1  0  0  0
 33 34  1  0  0  0
 33 66  1  0  0  0
 33 70  2  0  0  0
 34 36  1  0  0  0
 34 59  1  0  0  0
 34111  1  0  0  0
 35 44  2  0  0  0
 35 45  1  0  0  0
 35 68  1  0  0  0
 36 56  1  0  0  0
 36112  1  0  0  0
 37 39  1  0  0  0
 37 47  1  0  0  0
 37 66  1  0  0  0
 37113  1  0  0  0
 38 43  2  0  0  0
 38 46  1  0  0  0
 38 47  1  0  0  0
 39 64  1  0  0  0
 39 67  2  0  0  0
 40 52  1  0  0  0
 40 53  2  0  0  0
 40 58  1  0  0  0
 41114  1  0  0  0
 41115  1  0  0  0
 41116  1  0  0  0
 41 48  1  0  0  0
 42 43  1  0  0  0
 42 66  1  0  0  0
 42117  1  0  0  0
 42118  1  0  0  0
 43 44  1  0  0  0
 44119  1  0  0  0
 45 46  2  0  0  0
 45120  1  0  0  0
 46121  1  0  0  0
 47122  1  0  0  0
 47123  1  0  0  0
 48 56  1  0  0  0
 48 65  1  0  0  0
 48124  1  0  0  0
 49 50  1  0  0  0
 49 53  1  0  0  0
 49 64  1  0  0  0
 49125  1  0  0  0
 50 51  1  0  0  0
 50126  1  0  0  0
 50127  1  0  0  0
 51 52  1  0  0  0
 51128  1  0  0  0
 51129  1  0  0  0
 52130  1  0  0  0
 52131  1  0  0  0
 53 54  1  0  0  0
 54 55  2  0  0  0
 54132  1  0  0  0
 55 57  1  0  0  0
 55133  1  0  0  0
 56 69  2  0  0  0
 57 58  2  0  0  0
 57134  1  0  0  0
 58135  1  0  0  0
 59 60  1  0  0  0
 59 61  1  0  0  0
 59 62  1  0  0  0
 60136  1  0  0  0
 60137  1  0  0  0
 60138  1  0  0  0
 61139  1  0  0  0
 61140  1  0  0  0
 61141  1  0  0  0
 62142  1  0  0  0
 62143  1  0  0  0
 62144  1  0  0  0
 63 65  1  0  0  0
 63145  1  0  0  0
 63146  1  0  0  0
 63147  1  0  0  0
 64148  1  0  0  0
 65149  1  0  0  0
 68 86  1  0  0  0
 71 72  2  0  0  0
 71 73  1  0  0  0
 71150  1  0  0  0
 72 76  1  0  0  0
 72 83  1  0  0  0
 73 74  2  0  0  0
 73 87  1  0  0  0
 74 75  1  0  0  0
 74 89  1  0  0  0
 75 76  2  0  0  0
 75 88  1  0  0  0
 76 90  1  0  0  0
 77 78  1  0  0  0
 77 83  1  0  0  0
 77151  1  0  0  0
 77152  1  0  0  0
 78 83  1  0  0  0
 78153  1  0  0  0
 78154  1  0  0  0
 79 80  1  0  0  0
 79155  1  0  0  0
 79156  1  0  0  0
 79 84  1  0  0  0
 80 84  1  0  0  0
 80157  1  0  0  0
 80158  1  0  0  0
 81 86  1  0  0  0
 81159  1  0  0  0
 81160  1  0  0  0
 81 85  1  0  0  0
 82 85  1  0  0  0
 82 86  1  0  0  0
 82161  1  0  0  0
 82162  1  0  0  0
 83163  1  0  0  0
 84 89  1  0  0  0
 84164  1  0  0  0
 85 89  1  0  0  0
 85165  1  0  0  0
 86166  1  0  0  0
 87167  1  0  0  0
 87168  1  0  0  0
 87169  1  0  0  0
 88170  1  0  0  0
 88171  1  0  0  0
 88172  1  0  0  0
 89173  1  0  0  0
 90174  1  0  0  0
M  ISO  4   1 100  68 101  86 101  90 100
M  END
> <chiral flag>
0

> <version>
0

> <s_m_source_file>
/data/baiqing/PycharmProjects/Reinvent-master-3.2/result/LINK_invent/BTK/process_docking_weight1_custom_sum_contain_oxygen_bond_distance_aromatic_linkinvent_7_9_3/rearranged_h_0168.sdf

> <i_m_source_file_index>
42

> <r_mmod_Potential_Energy-OPLS-2005>
479.425323486328

> <r_mmod_Stretch_Energy-OPLS-2005>
183.503997802734

> <r_mmod_Bend_Energy-OPLS-2005>
289.676422119141

> <r_mmod_Torsional_Energy-OPLS-2005>
332.857269287109

> <r_mmod_Improper_Torsional_Energy-OPLS-2005>
4.72071933746338

> <r_mmod_Van_der_Waal_Energy-OPLS-2005>
157.9873046875

> <r_mmod_Electrostatic_Energy-OPLS-2005>
-392.057159423828

> <r_mmod_Solvation_Energy-OPLS-2005>
-199.68782043457

> <b_mmod_Minimization_Converged-OPLS-2005>
0

> <r_mmod_RMS_Derivative-OPLS-2005>
4.84613513946533

$$$$
42
                    3D
 Structure written by MMmdl.
176186  0  0  1  0            999 V2000
  -30.6933  -14.6141   20.4895 C   0  0  0  0  0  0
  -30.4096  -12.3762   19.4633 C   0  0  0  0  0  0
  -29.4961  -12.5047   18.2285 C   0  0  0  0  0  0
  -28.0192  -12.3561   18.6366 C   0  0  0  0  0  0
  -27.6458  -13.2330   19.8623 C   0  0  2  0  0  0
  -28.6894  -13.1278   20.9958 C   0  0  0  0  0  0
  -25.2530  -13.8221   20.5711 C   0  0  0  0  0  0
  -24.1825  -13.0455   20.9214 C   0  0  0  0  0  0
  -24.6408  -11.6928   20.8752 C   0  0  0  0  0  0
  -23.9080  -10.4307   21.0404 C   0  0  0  0  0  0
  -24.3605   -9.4223   21.9186 C   0  0  0  0  0  0
  -23.6273   -8.2267   22.0764 C   0  0  0  0  0  0
  -22.4261   -8.0296   21.3550 C   0  0  0  0  0  0
  -21.9908   -9.0274   20.4642 C   0  0  0  0  0  0
  -22.7252  -10.2153   20.3054 C   0  0  0  0  0  0
  -21.6874   -6.0724   22.5272 C   0  0  0  0  0  0
  -21.4038   -6.5623   23.8204 C   0  0  0  0  0  0
  -21.3666   -5.6784   24.9164 C   0  0  0  0  0  0
  -21.6041   -4.3045   24.7228 C   0  0  0  0  0  0
  -21.8831   -3.8133   23.4356 C   0  0  0  0  0  0
  -21.9212   -4.6948   22.3402 C   0  0  0  0  0  0
  -22.7842  -13.5227   21.1841 C   0  0  0  0  0  0
  -22.1671   -4.2130   21.0981 F   0  0  0  0  0  0
  -21.5607   -3.4528   25.7742 F   0  0  0  0  0  0
  -30.0048  -13.4319   20.4196 N   0  0  0  0  0  0
  -26.2961  -12.9422   20.3357 N   0  0  0  0  0  0
  -25.9338  -11.6551   20.5780 N   0  0  0  0  0  0
  -22.0481  -12.8220   22.0387 N   0  0  0  0  0  0
  -25.4243  -15.1949   20.4140 N   0  0  0  0  0  0
  -31.8633  -14.6426   20.1028 O   0  0  0  0  0  0
  -21.6653   -6.8873   21.4235 O   0  0  0  0  0  0
  -22.3525  -14.5525   20.6684 O   0  0  0  0  0  0
  -24.6221  -31.8603   23.2027 C   0  0  0  0  0  0
  -25.9076  -32.4772   23.8360 C   0  0  1  0  0  0
  -27.2222  -27.3362   20.1300 C   0  0  0  0  0  0
  -25.5902  -33.8575   24.2286 N   0  0  0  0  0  0
  -23.4166  -30.4816   21.5444 C   0  0  2  0  0  0
  -24.8624  -28.9295   20.1207 C   0  0  0  0  0  0
  -22.7454  -29.4627   22.4944 C   0  0  0  0  0  0
  -18.0273  -28.1378   22.8487 C   0  0  0  0  0  0
  -24.1489  -36.7288   23.2650 C   0  0  0  0  0  0
  -25.9539  -30.7971   21.3696 C   0  0  0  0  0  0
  -26.0287  -29.4223   20.7198 C   0  0  0  0  0  0
  -27.2168  -28.6376   20.7104 C   0  0  0  0  0  0
  -26.0369  -26.8758   19.5255 C   0  0  0  0  0  0
  -24.8654  -27.6587   19.5181 C   0  0  0  0  0  0
  -23.6303  -29.8100   20.1617 C   0  0  0  0  0  0
  -25.4114  -36.3079   24.0339 C   0  0  1  0  0  0
  -20.5872  -28.3690   23.1283 C   0  0  2  0  0  0
  -20.6762  -26.9418   22.5405 C   0  0  0  0  0  0
  -19.5740  -26.6370   21.5209 C   0  0  0  0  0  0
  -18.1914  -26.7920   22.1611 C   0  0  0  0  0  0
  -19.1532  -28.8848   23.2867 C   0  0  0  0  0  0
  -18.9448  -30.1449   23.8897 C   0  0  0  0  0  0
  -17.6456  -30.6587   24.0567 C   0  0  0  0  0  0
  -25.9044  -34.9446   23.5109 C   0  0  0  0  0  0
  -16.5343  -29.9092   23.6340 C   0  0  0  0  0  0
  -16.7265  -28.6503   23.0366 C   0  0  0  0  0  0
  -26.4492  -31.6577   25.0723 C   0  0  0  0  0  0
  -25.3730  -31.3669   26.1448 C   0  0  0  0  0  0
  -27.0371  -30.3023   24.6160 C   0  0  0  0  0  0
  -27.6060  -32.4320   25.7479 C   0  0  0  0  0  0
  -27.5580  -37.1795   24.8475 C   0  0  0  0  0  0
  -21.4168  -29.3041   22.3681 N   0  0  0  0  0  0
  -26.4294  -37.3773   23.9415 N   0  0  0  0  0  0
  -24.6834  -31.0629   22.0953 N   0  0  0  0  0  0
  -23.4180  -28.8174   23.3023 O   0  0  0  0  0  0
  -28.3569  -26.5331   20.0696 O   0  0  0  0  0  0
  -26.5618  -34.8912   22.4683 O   0  0  0  0  0  0
  -23.5394  -32.1372   23.7367 O   0  0  0  0  0  0
  -31.9566  -18.3049   18.5325 C   0  0  0  0  0  0
  -30.5490  -18.2989   18.4766 C   0  0  0  0  0  0
  -29.8439  -18.0408   19.6752 C   0  0  0  0  0  0
  -32.6209  -17.9878   19.7353 C   0  0  0  0  0  0
  -31.8835  -17.4050   20.7960 C   0  0  0  0  0  0
  -30.4990  -17.1513   20.5964 C   0  0  0  0  0  0
  -28.4625  -18.1474   16.8651 C   0  0  0  0  0  0
  -29.6585  -17.5920   16.1333 C   0  0  0  0  0  0
  -28.9549  -20.0818   21.3480 C   0  0  0  0  0  0
  -28.8442  -20.5653   19.3361 C   0  0  0  0  0  0
  -29.8542  -18.6544   17.1923 C   0  0  0  0  0  0
  -28.8359  -19.1769   20.0825 C   0  0  1  0  0  0
  -28.2857  -21.2745   20.5836 C   0  0  2  0  0  0
  -34.1306  -18.1340   19.8072 C   0  0  0  0  0  0
  -32.5952  -16.9126   22.0461 C   0  0  0  0  0  0
  -29.7535  -25.4577   21.6059 C   0  0  0  0  0  0
  -28.3091  -23.8860   20.1213 C   0  0  0  0  0  0
  -28.4144  -25.2977   20.8676 C   0  0  2  0  0  0
  -30.0187  -15.7760   20.8100 N   0  0  0  0  0  0
  -28.7815  -22.6761   20.9181 N   0  3  0  0  0  0
  -31.4530  -12.4507   19.1530 H   0  0  0  0  0  0
  -30.3116  -11.3914   19.9231 H   0  0  0  0  0  0
  -29.7516  -11.7465   17.4868 H   0  0  0  0  0  0
  -29.6560  -13.4739   17.7511 H   0  0  0  0  0  0
  -27.8486  -11.3046   18.8676 H   0  0  0  0  0  0
  -27.3701  -12.5961   17.7938 H   0  0  0  0  0  0
  -27.6549  -14.2652   19.5084 H   0  0  0  0  0  0
  -28.6913  -12.1272   21.4315 H   0  0  0  0  0  0
  -28.4483  -13.8128   21.8095 H   0  0  0  0  0  0
  -25.2737   -9.5689   22.4765 H   0  0  0  0  0  0
  -23.9982   -7.4662   22.7488 H   0  0  0  0  0  0
  -21.0849   -8.8789   19.8920 H   0  0  0  0  0  0
  -22.3715  -10.9680   19.6155 H   0  0  0  0  0  0
  -21.2037   -7.6132   23.9693 H   0  0  0  0  0  0
  -21.1460   -6.0513   25.9065 H   0  0  0  0  0  0
  -22.0604   -2.7593   23.2864 H   0  0  0  0  0  0
  -22.4107  -11.9876   22.4746 H   0  0  0  0  0  0
  -21.1091  -13.1229   22.2585 H   0  0  0  0  0  0
  -24.6616  -15.8526   20.5235 H   0  0  0  0  0  0
  -26.2741  -15.6284   20.0764 H   0  0  0  0  0  0
  -26.7153  -32.5471   23.1127 H   0  0  0  0  0  0
  -25.0079  -33.9729   25.0449 H   0  0  0  0  0  0
  -22.7099  -31.3000   21.3991 H   0  0  0  0  0  0
  -23.3757  -35.9611   23.3306 H   0  0  0  0  0  0
  -24.3589  -36.8908   22.2067 H   0  0  0  0  0  0
  -23.7220  -37.6481   23.6681 H   0  0  0  0  0  0
  -26.0785  -31.5599   20.5994 H   0  0  0  0  0  0
  -26.8368  -30.8496   21.9962 H   0  0  0  0  0  0
  -28.1222  -29.0209   21.1585 H   0  0  0  0  0  0
  -26.0207  -25.9037   19.0530 H   0  0  0  0  0  0
  -23.9703  -27.2748   19.0494 H   0  0  0  0  0  0
  -23.7492  -30.5826   19.4007 H   0  0  0  0  0  0
  -22.7521  -29.2330   19.8648 H   0  0  0  0  0  0
  -25.1294  -36.1950   25.0829 H   0  0  0  0  0  0
  -20.9940  -28.3254   24.1412 H   0  0  0  0  0  0
  -20.5650  -26.2310   23.3597 H   0  0  0  0  0  0
  -21.6633  -26.7425   22.1215 H   0  0  0  0  0  0
  -19.6898  -25.6269   21.1262 H   0  0  0  0  0  0
  -19.6678  -27.3167   20.6726 H   0  0  0  0  0  0
  -17.4177  -26.6663   21.4014 H   0  0  0  0  0  0
  -18.0314  -26.0060   22.9006 H   0  0  0  0  0  0
  -19.7925  -30.7258   24.2259 H   0  0  0  0  0  0
  -17.5011  -31.6279   24.5139 H   0  0  0  0  0  0
  -15.5340  -30.2995   23.7653 H   0  0  0  0  0  0
  -15.8656  -28.0812   22.7097 H   0  0  0  0  0  0
  -24.5928  -30.7005   25.7756 H   0  0  0  0  0  0
  -24.8895  -32.2807   26.4913 H   0  0  0  0  0  0
  -25.8055  -30.8817   27.0200 H   0  0  0  0  0  0
  -26.2953  -29.6736   24.1232 H   0  0  0  0  0  0
  -27.4150  -29.7324   25.4656 H   0  0  0  0  0  0
  -27.8773  -30.4357   23.9340 H   0  0  0  0  0  0
  -27.2693  -33.3629   26.2061 H   0  0  0  0  0  0
  -28.3858  -32.6856   25.0281 H   0  0  0  0  0  0
  -28.0753  -31.8440   26.5378 H   0  0  0  0  0  0
  -28.2592  -38.0101   24.7538 H   0  0  0  0  0  0
  -28.1072  -36.2626   24.6286 H   0  0  0  0  0  0
  -27.2296  -37.1438   25.8876 H   0  0  0  0  0  0
  -20.9340  -29.8772   21.6908 H   0  0  0  0  0  0
  -26.0177  -38.2845   24.1420 H   0  0  0  0  0  0
  -32.5181  -18.6255   17.6649 H   0  0  0  0  0  0
  -27.9667  -17.4794   17.5674 H   0  0  0  0  0  0
  -27.8007  -18.8005   16.3014 H   0  0  0  0  0  0
  -29.7734  -17.8743   15.0885 H   0  0  0  0  0  0
  -29.9443  -16.5697   16.3741 H   0  0  0  0  0  0
  -29.9945  -20.2771   21.6189 H   0  0  0  0  0  0
  -28.3983  -19.7162   22.2120 H   0  0  0  0  0  0
  -28.1986  -20.6101   18.4595 H   0  0  0  0  0  0
  -29.8523  -20.9077   19.0905 H   0  0  0  0  0  0
  -30.1236  -19.6533   16.8533 H   0  0  0  0  0  0
  -27.8333  -18.7471   20.0467 H   0  0  0  0  0  0
  -27.1967  -21.2117   20.6210 H   0  0  0  0  0  0
  -34.5115  -18.7073   18.9622 H   0  0  0  0  0  0
  -34.6028  -17.1511   19.7823 H   0  0  0  0  0  0
  -34.4395  -18.6474   20.7172 H   0  0  0  0  0  0
  -33.1044  -17.7407   22.5392 H   0  0  0  0  0  0
  -33.3368  -16.1525   21.7980 H   0  0  0  0  0  0
  -31.8933  -16.4857   22.7618 H   0  0  0  0  0  0
  -29.9004  -24.6916   22.3659 H   0  0  0  0  0  0
  -29.8000  -26.4200   22.1145 H   0  0  0  0  0  0
  -30.5957  -25.4178   20.9149 H   0  0  0  0  0  0
  -28.8887  -23.9169   19.1996 H   0  0  0  0  0  0
  -27.2727  -23.7291   19.8206 H   0  0  0  0  0  0
  -27.6258  -25.3312   21.6199 H   0  0  0  0  0  0
  -29.0342  -15.6657   20.9978 H   0  0  0  0  0  0
  -29.7892  -22.6730   20.9172 H   0  0  0  0  0  0
  -28.5030  -22.8416   21.8740 H   0  0  0  0  0  0
  1 25  1  0  0  0
  1 30  2  0  0  0
  1 89  1  0  0  0
  2  3  1  0  0  0
  2 25  1  0  0  0
  2 91  1  0  0  0
  2 92  1  0  0  0
  3  4  1  0  0  0
  3 93  1  0  0  0
  3 94  1  0  0  0
  4  5  1  0  0  0
  4 95  1  0  0  0
  4 96  1  0  0  0
  5  6  1  0  0  0
  5 26  1  0  0  0
  5 97  1  0  0  0
  6 25  1  0  0  0
  6 98  1  0  0  0
  6 99  1  0  0  0
  7  8  2  0  0  0
  7 26  1  0  0  0
  7 29  1  0  0  0
  8  9  1  0  0  0
  8 22  1  0  0  0
  9 10  1  0  0  0
  9 27  2  0  0  0
 10 11  2  0  0  0
 10 15  1  0  0  0
 11 12  1  0  0  0
 11100  1  0  0  0
 12 13  2  0  0  0
 12101  1  0  0  0
 13 14  1  0  0  0
 13 31  1  0  0  0
 14 15  2  0  0  0
 14102  1  0  0  0
 15103  1  0  0  0
 16 17  2  0  0  0
 16 21  1  0  0  0
 16 31  1  0  0  0
 17 18  1  0  0  0
 17104  1  0  0  0
 18 19  2  0  0  0
 18105  1  0  0  0
 19 20  1  0  0  0
 19 24  1  0  0  0
 20 21  2  0  0  0
 20106  1  0  0  0
 21 23  1  0  0  0
 22 28  1  0  0  0
 22 32  2  0  0  0
 26 27  1  0  0  0
 28107  1  0  0  0
 28108  1  0  0  0
 29109  1  0  0  0
 29110  1  0  0  0
 33 34  1  0  0  0
 33 66  1  0  0  0
 33 70  2  0  0  0
 34 36  1  0  0  0
 34 59  1  0  0  0
 34111  1  0  0  0
 35 44  2  0  0  0
 35 45  1  0  0  0
 35 68  1  0  0  0
 36 56  1  0  0  0
 36112  1  0  0  0
 37 39  1  0  0  0
 37 47  1  0  0  0
 37 66  1  0  0  0
 37113  1  0  0  0
 38 43  2  0  0  0
 38 46  1  0  0  0
 38 47  1  0  0  0
 39 64  1  0  0  0
 39 67  2  0  0  0
 40 52  1  0  0  0
 40 53  2  0  0  0
 40 58  1  0  0  0
 41114  1  0  0  0
 41115  1  0  0  0
 41116  1  0  0  0
 41 48  1  0  0  0
 42 43  1  0  0  0
 42 66  1  0  0  0
 42117  1  0  0  0
 42118  1  0  0  0
 43 44  1  0  0  0
 44119  1  0  0  0
 45 46  2  0  0  0
 45120  1  0  0  0
 46121  1  0  0  0
 47122  1  0  0  0
 47123  1  0  0  0
 48 56  1  0  0  0
 48 65  1  0  0  0
 48124  1  0  0  0
 49 50  1  0  0  0
 49 53  1  0  0  0
 49 64  1  0  0  0
 49125  1  0  0  0
 50 51  1  0  0  0
 50126  1  0  0  0
 50127  1  0  0  0
 51 52  1  0  0  0
 51128  1  0  0  0
 51129  1  0  0  0
 52130  1  0  0  0
 52131  1  0  0  0
 53 54  1  0  0  0
 54 55  2  0  0  0
 54132  1  0  0  0
 55 57  1  0  0  0
 55133  1  0  0  0
 56 69  2  0  0  0
 57 58  2  0  0  0
 57134  1  0  0  0
 58135  1  0  0  0
 59 60  1  0  0  0
 59 61  1  0  0  0
 59 62  1  0  0  0
 60136  1  0  0  0
 60137  1  0  0  0
 60138  1  0  0  0
 61139  1  0  0  0
 61140  1  0  0  0
 61141  1  0  0  0
 62142  1  0  0  0
 62143  1  0  0  0
 62144  1  0  0  0
 63 65  1  0  0  0
 63145  1  0  0  0
 63146  1  0  0  0
 63147  1  0  0  0
 64148  1  0  0  0
 65149  1  0  0  0
 68 88  1  0  0  0
 71 72  2  0  0  0
 71 74  1  0  0  0
 71150  1  0  0  0
 72 73  1  0  0  0
 72 81  1  0  0  0
 73 76  2  0  0  0
 73 82  1  0  0  0
 74 75  2  0  0  0
 74 84  1  0  0  0
 75 76  1  0  0  0
 75 85  1  0  0  0
 76 89  1  0  0  0
 77 78  1  0  0  0
 77 81  1  0  0  0
 77151  1  0  0  0
 77152  1  0  0  0
 78 81  1  0  0  0
 78153  1  0  0  0
 78154  1  0  0  0
 79 82  1  0  0  0
 79 83  1  0  0  0
 79155  1  0  0  0
 79156  1  0  0  0
 80 82  1  0  0  0
 80 83  1  0  0  0
 80157  1  0  0  0
 80158  1  0  0  0
 81159  1  0  0  0
 82160  1  0  0  0
 83 90  1  0  0  0
 83161  1  0  0  0
 84162  1  0  0  0
 84163  1  0  0  0
 84164  1  0  0  0
 85165  1  0  0  0
 85166  1  0  0  0
 85167  1  0  0  0
 86168  1  0  0  0
 86169  1  0  0  0
 86170  1  0  0  0
 86 88  1  0  0  0
 87 88  1  0  0  0
 87 90  1  0  0  0
 87171  1  0  0  0
 87172  1  0  0  0
 88173  1  0  0  0
 89174  1  0  0  0
 90175  1  0  0  0
 90176  1  0  0  0
M  CHG  1  90   1
M  ISO  4   1 100  68 101  88 101  89 100
M  END
> <chiral flag>
0

> <version>
0

> <s_m_source_file>
/data/baiqing/PycharmProjects/Reinvent-master-3.2/result/LINK_invent/BTK/process_docking_weight1_custom_sum_contain_oxygen_bond_distance_aromatic_linkinvent_7_9_3/rearranged_h_0168.sdf

> <i_m_source_file_index>
43

> <r_mmod_Potential_Energy-OPLS-2005>
191.908966064453

> <r_mmod_Stretch_Energy-OPLS-2005>
81.5589828491211

> <r_mmod_Bend_Energy-OPLS-2005>
160.558670043945

> <r_mmod_Torsional_Energy-OPLS-2005>
522.173706054688

> <r_mmod_Improper_Torsional_Energy-OPLS-2005>
20.8267250061035

> <r_mmod_Van_der_Waal_Energy-OPLS-2005>
140.218185424805

> <r_mmod_Electrostatic_Energy-OPLS-2005>
-322.253692626953

> <r_mmod_Solvation_Energy-OPLS-2005>
-451.610015869141

> <b_mmod_Minimization_Converged-OPLS-2005>
0

> <r_mmod_RMS_Derivative-OPLS-2005>
3.01887917518616

$$$$
43
                    3D
 Structure written by MMmdl.
171180  0  0  1  0            999 V2000
  -30.6362  -14.6908   20.4699 C   0  0  0  0  0  0
  -30.4216  -12.4207   19.4519 C   0  0  0  0  0  0
  -29.4903  -12.5191   18.2235 C   0  0  0  0  0  0
  -28.0186  -12.3464   18.6426 C   0  0  0  0  0  0
  -27.6407  -13.2307   19.8608 C   0  0  2  0  0  0
  -28.6929  -13.1330   20.9882 C   0  0  0  0  0  0
  -25.2481  -13.8184   20.5801 C   0  0  0  0  0  0
  -24.1741  -13.0411   20.9153 C   0  0  0  0  0  0
  -24.6365  -11.6906   20.8715 C   0  0  0  0  0  0
  -23.9072  -10.4286   21.0421 C   0  0  0  0  0  0
  -24.3619   -9.4182   21.9192 C   0  0  0  0  0  0
  -23.6276   -8.2235   22.0763 C   0  0  0  0  0  0
  -22.4268   -8.0302   21.3545 C   0  0  0  0  0  0
  -21.9907   -9.0266   20.4651 C   0  0  0  0  0  0
  -22.7246  -10.2133   20.3061 C   0  0  0  0  0  0
  -21.6858   -6.0744   22.5298 C   0  0  0  0  0  0
  -21.4012   -6.5648   23.8225 C   0  0  0  0  0  0
  -21.3640   -5.6780   24.9182 C   0  0  0  0  0  0
  -21.6044   -4.3046   24.7206 C   0  0  0  0  0  0
  -21.8822   -3.8145   23.4337 C   0  0  0  0  0  0
  -21.9162   -4.6965   22.3398 C   0  0  0  0  0  0
  -22.7754  -13.5202   21.1815 C   0  0  0  0  0  0
  -22.1559   -4.2120   21.0962 F   0  0  0  0  0  0
  -21.5666   -3.4550   25.7731 F   0  0  0  0  0  0
  -30.0041  -13.4679   20.4131 N   0  0  0  0  0  0
  -26.2932  -12.9406   20.3408 N   0  0  0  0  0  0
  -25.9306  -11.6527   20.5758 N   0  0  0  0  0  0
  -22.0440  -12.8160   22.0395 N   0  0  0  0  0  0
  -25.4226  -15.1912   20.4539 N   0  0  0  0  0  0
  -31.7974  -14.7763   20.0662 O   0  0  0  0  0  0
  -21.6646   -6.8880   21.4240 O   0  0  0  0  0  0
  -22.3463  -14.5552   20.6728 O   0  0  0  0  0  0
  -24.6322  -31.8598   23.1987 C   0  0  0  0  0  0
  -25.9149  -32.4791   23.8343 C   0  0  1  0  0  0
  -27.2344  -27.2982   20.1219 C   0  0  0  0  0  0
  -25.5965  -33.8589   24.2295 N   0  0  0  0  0  0
  -23.4252  -30.4812   21.5416 C   0  0  2  0  0  0
  -24.8726  -28.9315   20.1144 C   0  0  0  0  0  0
  -22.7507  -29.4631   22.4933 C   0  0  0  0  0  0
  -18.0296  -28.1411   22.8495 C   0  0  0  0  0  0
  -24.1471  -36.7263   23.2636 C   0  0  0  0  0  0
  -25.9678  -30.7886   21.3678 C   0  0  0  0  0  0
  -26.0462  -29.4124   20.7112 C   0  0  0  0  0  0
  -27.2295  -28.6106   20.6960 C   0  0  0  0  0  0
  -26.0286  -26.8766   19.5143 C   0  0  0  0  0  0
  -24.8672  -27.6690   19.5066 C   0  0  0  0  0  0
  -23.6419  -29.8128   20.1583 C   0  0  0  0  0  0
  -25.4107  -36.3091   24.0330 C   0  0  1  0  0  0
  -20.5914  -28.3717   23.1301 C   0  0  2  0  0  0
  -20.6793  -26.9442   22.5419 C   0  0  0  0  0  0
  -19.5759  -26.6408   21.5228 C   0  0  0  0  0  0
  -18.1935  -26.7963   22.1622 C   0  0  0  0  0  0
  -19.1547  -28.8880   23.2898 C   0  0  0  0  0  0
  -18.9468  -30.1482   23.8921 C   0  0  0  0  0  0
  -17.6463  -30.6618   24.0575 C   0  0  0  0  0  0
  -25.9048  -34.9459   23.5101 C   0  0  0  0  0  0
  -16.5360  -29.9117   23.6346 C   0  0  0  0  0  0
  -16.7284  -28.6532   23.0389 C   0  0  0  0  0  0
  -26.4520  -31.6609   25.0712 C   0  0  0  0  0  0
  -25.3747  -31.3755   26.1434 C   0  0  0  0  0  0
  -27.0328  -30.3042   24.6113 C   0  0  0  0  0  0
  -27.6070  -32.4335   25.7502 C   0  0  0  0  0  0
  -27.5571  -37.1801   24.8482 C   0  0  0  0  0  0
  -21.4218  -29.3059   22.3681 N   0  0  0  0  0  0
  -26.4301  -37.3786   23.9410 N   0  0  0  0  0  0
  -24.6939  -31.0603   22.0931 N   0  0  0  0  0  0
  -23.4223  -28.8209   23.3054 O   0  0  0  0  0  0
  -28.3589  -26.4455   20.1591 O   0  0  0  0  0  0
  -26.5591  -34.8925   22.4648 O   0  0  0  0  0  0
  -23.5477  -32.1407   23.7292 O   0  0  0  0  0  0
  -29.6831  -20.0576   20.2357 C   0  0  0  0  0  0
  -32.2561  -20.2109   21.2578 C   0  0  0  0  0  0
  -30.2400  -21.3824   20.4688 C   0  0  0  0  0  0
  -30.4099  -18.8023   20.4575 C   0  0  0  0  0  0
  -31.7263  -18.9385   20.9755 C   0  0  0  0  0  0
  -31.5717  -21.4072   20.9542 C   0  0  0  0  0  0
  -28.4037  -22.7532   19.0558 C   0  0  0  0  0  0
  -28.0732  -24.2502   18.8233 C   0  0  0  0  0  0
  -29.6186  -22.7828   19.9850 C   0  0  1  0  0  0
  -29.2486  -24.0201   20.9409 C   0  0  2  0  0  0
  -28.1838  -24.9551   20.1963 C   0  0  1  0  0  0
  -32.6798  -17.7550   21.1144 C   0  0  0  0  0  0
  -30.4435  -24.8457   21.4580 C   0  0  0  0  0  0
  -33.5847  -22.6589   20.6634 C   0  0  0  0  0  0
  -29.9303  -16.0512   20.9307 C   0  0  0  0  0  0
  -29.9466  -17.3519   19.9526 C   0  0  1  0  0  0
  -28.6945  -17.4615   19.1753 N   0  3  0  0  0  0
  -32.2157  -22.6148   21.0508 O   0  0  0  0  0  0
  -31.4637  -12.5220   19.1405 H   0  0  0  0  0  0
  -30.3429  -11.4351   19.9092 H   0  0  0  0  0  0
  -29.7549  -11.7657   17.4781 H   0  0  0  0  0  0
  -29.6284  -13.4831   17.7368 H   0  0  0  0  0  0
  -27.8697  -11.2950   18.8919 H   0  0  0  0  0  0
  -27.3510  -12.5553   17.8045 H   0  0  0  0  0  0
  -27.6345  -14.2577   19.4989 H   0  0  0  0  0  0
  -28.7167  -12.1259   21.4058 H   0  0  0  0  0  0
  -28.4383  -13.7895   21.8213 H   0  0  0  0  0  0
  -25.2790   -9.5599   22.4755 H   0  0  0  0  0  0
  -23.9959   -7.4611   22.7464 H   0  0  0  0  0  0
  -21.0869   -8.8818   19.8919 H   0  0  0  0  0  0
  -22.3772  -10.9676   19.6138 H   0  0  0  0  0  0
  -21.2014   -7.6140   23.9743 H   0  0  0  0  0  0
  -21.1449   -6.0483   25.9101 H   0  0  0  0  0  0
  -22.0610   -2.7622   23.2843 H   0  0  0  0  0  0
  -22.4077  -11.9737   22.4615 H   0  0  0  0  0  0
  -21.1093  -13.1148   22.2751 H   0  0  0  0  0  0
  -24.6919  -15.8228   20.7643 H   0  0  0  0  0  0
  -26.3426  -15.6087   20.4689 H   0  0  0  0  0  0
  -26.7218  -32.5480   23.1092 H   0  0  0  0  0  0
  -25.0236  -33.9752   25.0530 H   0  0  0  0  0  0
  -22.7201  -31.3026   21.3963 H   0  0  0  0  0  0
  -23.3759  -35.9571   23.3322 H   0  0  0  0  0  0
  -24.3583  -36.8852   22.2049 H   0  0  0  0  0  0
  -23.7171  -37.6448   23.6642 H   0  0  0  0  0  0
  -26.0932  -31.5496   20.5981 H   0  0  0  0  0  0
  -26.8488  -30.8487   21.9932 H   0  0  0  0  0  0
  -28.1334  -28.9814   21.1598 H   0  0  0  0  0  0
  -25.9473  -25.9128   19.0451 H   0  0  0  0  0  0
  -23.9652  -27.2887   19.0453 H   0  0  0  0  0  0
  -23.7676  -30.5861   19.3997 H   0  0  0  0  0  0
  -22.7615  -29.2420   19.8579 H   0  0  0  0  0  0
  -25.1284  -36.1942   25.0829 H   0  0  0  0  0  0
  -20.9996  -28.3278   24.1435 H   0  0  0  0  0  0
  -20.5714  -26.2323   23.3618 H   0  0  0  0  0  0
  -21.6658  -26.7497   22.1191 H   0  0  0  0  0  0
  -19.6899  -25.6317   21.1269 H   0  0  0  0  0  0
  -19.6692  -27.3210   20.6756 H   0  0  0  0  0  0
  -17.4215  -26.6760   21.4013 H   0  0  0  0  0  0
  -18.0297  -26.0119   22.9019 H   0  0  0  0  0  0
  -19.7943  -30.7296   24.2299 H   0  0  0  0  0  0
  -17.5028  -31.6299   24.5166 H   0  0  0  0  0  0
  -15.5363  -30.3024   23.7659 H   0  0  0  0  0  0
  -15.8693  -28.0837   22.7123 H   0  0  0  0  0  0
  -24.5957  -30.7046   25.7805 H   0  0  0  0  0  0
  -24.8889  -32.2913   26.4819 H   0  0  0  0  0  0
  -25.8100  -30.9008   27.0236 H   0  0  0  0  0  0
  -26.2882  -29.6851   24.1089 H   0  0  0  0  0  0
  -27.4014  -29.7250   25.4590 H   0  0  0  0  0  0
  -27.8775  -30.4371   23.9342 H   0  0  0  0  0  0
  -27.2698  -33.3666   26.2044 H   0  0  0  0  0  0
  -28.3931  -32.6840   25.0362 H   0  0  0  0  0  0
  -28.0675  -31.8458   26.5457 H   0  0  0  0  0  0
  -28.2614  -38.0079   24.7543 H   0  0  0  0  0  0
  -28.1035  -36.2609   24.6300 H   0  0  0  0  0  0
  -27.2310  -37.1459   25.8899 H   0  0  0  0  0  0
  -20.9413  -29.8783   21.6874 H   0  0  0  0  0  0
  -26.0162  -38.2854   24.1436 H   0  0  0  0  0  0
  -28.7071  -20.0269   19.7820 H   0  0  0  0  0  0
  -33.2670  -20.2576   21.6356 H   0  0  0  0  0  0
  -28.6172  -22.2350   18.1189 H   0  0  0  0  0  0
  -27.5606  -22.2505   19.5356 H   0  0  0  0  0  0
  -27.1026  -24.3574   18.3438 H   0  0  0  0  0  0
  -28.8159  -24.6740   18.1479 H   0  0  0  0  0  0
  -30.4120  -23.1666   19.3402 H   0  0  0  0  0  0
  -28.7366  -23.6136   21.8145 H   0  0  0  0  0  0
  -27.2456  -24.7793   20.7234 H   0  0  0  0  0  0
  -33.6952  -18.0840   21.3335 H   0  0  0  0  0  0
  -32.7473  -17.2070   20.1749 H   0  0  0  0  0  0
  -32.4001  -17.0695   21.9133 H   0  0  0  0  0  0
  -31.1176  -25.1263   20.6471 H   0  0  0  0  0  0
  -31.0097  -24.3020   22.2116 H   0  0  0  0  0  0
  -30.1113  -25.7624   21.9437 H   0  0  0  0  0  0
  -33.8498  -23.6941   20.4504 H   0  0  0  0  0  0
  -33.7762  -22.0836   19.7543 H   0  0  0  0  0  0
  -34.2475  -22.3086   21.4547 H   0  0  0  0  0  0
  -28.9041  -15.8432   21.2237 H   0  0  0  0  0  0
  -30.3994  -16.3133   21.8760 H   0  0  0  0  0  0
  -30.6896  -17.1234   19.1870 H   0  0  0  0  0  0
  -28.7711  -18.2447   18.5524 H   0  0  0  0  0  0
  -27.9107  -17.6179   19.7841 H   0  0  0  0  0  0
  -28.5235  -16.6494   18.6109 H   0  0  0  0  0  0
  1 25  1  0  0  0
  1 30  2  0  0  0
  1 85  1  0  0  0
  2  3  1  0  0  0
  2 25  1  0  0  0
  2 89  1  0  0  0
  2 90  1  0  0  0
  3  4  1  0  0  0
  3 91  1  0  0  0
  3 92  1  0  0  0
  4  5  1  0  0  0
  4 93  1  0  0  0
  4 94  1  0  0  0
  5  6  1  0  0  0
  5 26  1  0  0  0
  5 95  1  0  0  0
  6 25  1  0  0  0
  6 96  1  0  0  0
  6 97  1  0  0  0
  7  8  2  0  0  0
  7 26  1  0  0  0
  7 29  1  0  0  0
  8  9  1  0  0  0
  8 22  1  0  0  0
  9 10  1  0  0  0
  9 27  2  0  0  0
 10 11  2  0  0  0
 10 15  1  0  0  0
 11 12  1  0  0  0
 11 98  1  0  0  0
 12 13  2  0  0  0
 12 99  1  0  0  0
 13 14  1  0  0  0
 13 31  1  0  0  0
 14 15  2  0  0  0
 14100  1  0  0  0
 15101  1  0  0  0
 16 17  2  0  0  0
 16 21  1  0  0  0
 16 31  1  0  0  0
 17 18  1  0  0  0
 17102  1  0  0  0
 18 19  2  0  0  0
 18103  1  0  0  0
 19 20  1  0  0  0
 19 24  1  0  0  0
 20 21  2  0  0  0
 20104  1  0  0  0
 21 23  1  0  0  0
 22 28  1  0  0  0
 22 32  2  0  0  0
 26 27  1  0  0  0
 28105  1  0  0  0
 28106  1  0  0  0
 29107  1  0  0  0
 29108  1  0  0  0
 33 34  1  0  0  0
 33 66  1  0  0  0
 33 70  2  0  0  0
 34 36  1  0  0  0
 34 59  1  0  0  0
 34109  1  0  0  0
 35 44  2  0  0  0
 35 45  1  0  0  0
 35 68  1  0  0  0
 36 56  1  0  0  0
 36110  1  0  0  0
 37 39  1  0  0  0
 37 47  1  0  0  0
 37 66  1  0  0  0
 37111  1  0  0  0
 38 43  2  0  0  0
 38 46  1  0  0  0
 38 47  1  0  0  0
 39 64  1  0  0  0
 39 67  2  0  0  0
 40 52  1  0  0  0
 40 53  2  0  0  0
 40 58  1  0  0  0
 41112  1  0  0  0
 41113  1  0  0  0
 41114  1  0  0  0
 41 48  1  0  0  0
 42 43  1  0  0  0
 42 66  1  0  0  0
 42115  1  0  0  0
 42116  1  0  0  0
 43 44  1  0  0  0
 44117  1  0  0  0
 45 46  2  0  0  0
 45118  1  0  0  0
 46119  1  0  0  0
 47120  1  0  0  0
 47121  1  0  0  0
 48 56  1  0  0  0
 48 65  1  0  0  0
 48122  1  0  0  0
 49 50  1  0  0  0
 49 53  1  0  0  0
 49 64  1  0  0  0
 49123  1  0  0  0
 50 51  1  0  0  0
 50124  1  0  0  0
 50125  1  0  0  0
 51 52  1  0  0  0
 51126  1  0  0  0
 51127  1  0  0  0
 52128  1  0  0  0
 52129  1  0  0  0
 53 54  1  0  0  0
 54 55  2  0  0  0
 54130  1  0  0  0
 55 57  1  0  0  0
 55131  1  0  0  0
 56 69  2  0  0  0
 57 58  2  0  0  0
 57132  1  0  0  0
 58133  1  0  0  0
 59 60  1  0  0  0
 59 61  1  0  0  0
 59 62  1  0  0  0
 60134  1  0  0  0
 60135  1  0  0  0
 60136  1  0  0  0
 61137  1  0  0  0
 61138  1  0  0  0
 61139  1  0  0  0
 62140  1  0  0  0
 62141  1  0  0  0
 62142  1  0  0  0
 63 65  1  0  0  0
 63143  1  0  0  0
 63144  1  0  0  0
 63145  1  0  0  0
 64146  1  0  0  0
 65147  1  0  0  0
 68 81  1  0  0  0
 71 73  2  0  0  0
 71 74  1  0  0  0
 71148  1  0  0  0
 72 75  1  0  0  0
 72 76  2  0  0  0
 72149  1  0  0  0
 73 76  1  0  0  0
 73 79  1  0  0  0
 74 75  2  0  0  0
 74 86  1  0  0  0
 75 82  1  0  0  0
 76 88  1  0  0  0
 77 78  1  0  0  0
 77 79  1  0  0  0
 77150  1  0  0  0
 77151  1  0  0  0
 78 81  1  0  0  0
 78152  1  0  0  0
 78153  1  0  0  0
 79 80  1  0  0  0
 79154  1  0  0  0
 80 81  1  0  0  0
 80 83  1  0  0  0
 80155  1  0  0  0
 81156  1  0  0  0
 82157  1  0  0  0
 82158  1  0  0  0
 82159  1  0  0  0
 83160  1  0  0  0
 83161  1  0  0  0
 83162  1  0  0  0
 84 88  1  0  0  0
 84163  1  0  0  0
 84164  1  0  0  0
 84165  1  0  0  0
 85 86  1  0  0  0
 85166  1  0  0  0
 85167  1  0  0  0
 86 87  1  0  0  0
 86168  1  0  0  0
 87169  1  0  0  0
 87170  1  0  0  0
 87171  1  0  0  0
M  CHG  1  87   1
M  ISO  4   1 100  68 101  81 101  85 100
M  END
> <chiral flag>
0

> <version>
0

> <s_m_source_file>
/data/baiqing/PycharmProjects/Reinvent-master-3.2/result/LINK_invent/BTK/process_docking_weight1_custom_sum_contain_oxygen_bond_distance_aromatic_linkinvent_7_9_3/rearranged_h_0168.sdf

> <i_m_source_file_index>
44

> <r_mmod_Potential_Energy-OPLS-2005>
8.32577705383301

> <r_mmod_Stretch_Energy-OPLS-2005>
127.305519104004

> <r_mmod_Bend_Energy-OPLS-2005>
214.291076660156

> <r_mmod_Torsional_Energy-OPLS-2005>
258.268310546875

> <r_mmod_Improper_Torsional_Energy-OPLS-2005>
7.56845283508301

> <r_mmod_Van_der_Waal_Energy-OPLS-2005>
149.14567565918

> <r_mmod_Electrostatic_Energy-OPLS-2005>
-311.188323974609

> <r_mmod_Solvation_Energy-OPLS-2005>
-497.375640869141

> <b_mmod_Minimization_Converged-OPLS-2005>
0

> <r_mmod_RMS_Derivative-OPLS-2005>
4.49772500991821

$$$$
44
                    3D
 Structure written by MMmdl.
169177  0  0  1  0            999 V2000
  -30.5967  -14.6996   20.4515 C   0  0  0  0  0  0
  -30.4722  -12.4022   19.4739 C   0  0  0  0  0  0
  -29.5393  -12.4217   18.2386 C   0  0  0  0  0  0
  -28.0528  -12.3200   18.6495 C   0  0  0  0  0  0
  -27.6687  -13.1924   19.8778 C   0  0  2  0  0  0
  -28.7227  -13.0638   20.9981 C   0  0  0  0  0  0
  -25.2684  -13.8070   20.5634 C   0  0  0  0  0  0
  -24.1911  -13.0405   20.9141 C   0  0  0  0  0  0
  -24.6447  -11.6849   20.8778 C   0  0  0  0  0  0
  -23.9065  -10.4255   21.0456 C   0  0  0  0  0  0
  -24.3545   -9.4162   21.9263 C   0  0  0  0  0  0
  -23.6192   -8.2208   22.0802 C   0  0  0  0  0  0
  -22.4212   -8.0247   21.3563 C   0  0  0  0  0  0
  -21.9894   -9.0240   20.4660 C   0  0  0  0  0  0
  -22.7243  -10.2117   20.3083 C   0  0  0  0  0  0
  -21.6823   -6.0645   22.5311 C   0  0  0  0  0  0
  -21.3959   -6.5578   23.8219 C   0  0  0  0  0  0
  -21.3678   -5.6799   24.9230 C   0  0  0  0  0  0
  -21.6088   -4.3051   24.7350 C   0  0  0  0  0  0
  -21.8802   -3.8085   23.4477 C   0  0  0  0  0  0
  -21.9174   -4.6865   22.3487 C   0  0  0  0  0  0
  -22.7928  -13.5253   21.1791 C   0  0  0  0  0  0
  -22.1620   -4.2005   21.1071 F   0  0  0  0  0  0
  -21.5706   -3.4574   25.7875 F   0  0  0  0  0  0
  -30.0244  -13.4456   20.4308 N   0  0  0  0  0  0
  -26.3121  -12.9181   20.3383 N   0  0  0  0  0  0
  -25.9383  -11.6391   20.5818 N   0  0  0  0  0  0
  -22.0449  -12.8279   22.0274 N   0  0  0  0  0  0
  -25.4556  -15.1794   20.4105 N   0  0  0  0  0  0
  -31.7449  -14.8722   20.0402 O   0  0  0  0  0  0
  -21.6629   -6.8802   21.4249 O   0  0  0  0  0  0
  -22.3671  -14.5657   20.6754 O   0  0  0  0  0  0
  -24.6241  -31.8608   23.1993 C   0  0  0  0  0  0
  -25.9100  -32.4782   23.8336 C   0  0  1  0  0  0
  -27.2425  -27.2853   20.1392 C   0  0  0  0  0  0
  -25.5947  -33.8601   24.2267 N   0  0  0  0  0  0
  -23.4206  -30.4762   21.5396 C   0  0  2  0  0  0
  -24.8807  -28.9309   20.1146 C   0  0  0  0  0  0
  -22.7416  -29.4592   22.4922 C   0  0  0  0  0  0
  -18.0185  -28.1378   22.8418 C   0  0  0  0  0  0
  -24.1509  -36.7268   23.2642 C   0  0  0  0  0  0
  -25.9653  -30.7822   21.3755 C   0  0  0  0  0  0
  -26.0528  -29.4079   20.7168 C   0  0  0  0  0  0
  -27.2336  -28.5998   20.7155 C   0  0  0  0  0  0
  -26.0496  -26.8782   19.5006 C   0  0  0  0  0  0
  -24.8861  -27.6754   19.4898 C   0  0  0  0  0  0
  -23.6464  -29.8119   20.1578 C   0  0  0  0  0  0
  -25.4144  -36.3092   24.0336 C   0  0  1  0  0  0
  -20.5772  -28.3673   23.1178 C   0  0  2  0  0  0
  -20.6680  -26.9488   22.5052 C   0  0  0  0  0  0
  -19.5503  -26.6370   21.5005 C   0  0  0  0  0  0
  -18.1727  -26.8009   22.1399 C   0  0  0  0  0  0
  -19.1419  -28.8844   23.2841 C   0  0  0  0  0  0
  -18.9308  -30.1438   23.8914 C   0  0  0  0  0  0
  -17.6261  -30.6506   24.0653 C   0  0  0  0  0  0
  -25.9077  -34.9456   23.5098 C   0  0  0  0  0  0
  -16.5180  -29.8981   23.6393 C   0  0  0  0  0  0
  -16.7163  -28.6469   23.0312 C   0  0  0  0  0  0
  -26.4503  -31.6594   25.0695 C   0  0  0  0  0  0
  -25.3718  -31.3755   26.1398 C   0  0  0  0  0  0
  -27.0371  -30.3011   24.6179 C   0  0  0  0  0  0
  -27.6061  -32.4340   25.7458 C   0  0  0  0  0  0
  -27.5588  -37.1819   24.8482 C   0  0  0  0  0  0
  -21.4109  -29.3174   22.3799 N   0  0  0  0  0  0
  -26.4289  -37.3785   23.9438 N   0  0  0  0  0  0
  -24.6879  -31.0572   22.0957 N   0  0  0  0  0  0
  -23.4157  -28.8023   23.2886 O   0  0  0  0  0  0
  -28.3498  -26.4031   20.2115 O   0  0  0  0  0  0
  -26.5611  -34.8918   22.4649 O   0  0  0  0  0  0
  -23.5393  -32.1399   23.7321 O   0  0  0  0  0  0
  -29.2566  -23.8989   20.4942 C   0  0  0  0  0  0
  -28.9261  -19.8883   18.9964 C   0  0  0  0  0  0
  -29.3373  -19.8701   20.4860 C   0  0  1  0  0  0
  -28.3456  -18.5677   18.4460 C   0  0  2  0  0  0
  -29.5322  -17.1814   20.1996 C   0  0  1  0  0  0
  -30.2126  -18.5162   20.7771 C   0  0  2  0  0  0
  -29.3133  -17.3493   18.6491 C   0  0  0  0  0  0
  -27.9162  -18.7822   16.9832 C   0  0  0  0  0  0
  -30.6659  -17.5627   17.9158 C   0  0  0  0  0  0
  -28.6627  -16.1116   18.0063 C   0  0  0  0  0  0
  -28.0804  -24.9271   20.1594 C   0  0  0  0  0  0
  -29.9086  -21.3476   20.7984 C   0  0  0  0  0  0
  -29.0116  -22.5363   20.4751 N   0  0  0  0  0  0
  -29.7587  -15.7578   20.7417 N   0  0  0  0  0  0
  -30.5895  -18.3232   22.1862 N   0  3  0  0  0  0
  -30.3776  -24.3292   20.7687 O   0  0  0  0  0  0
  -31.5110  -12.5371   19.1703 H   0  0  0  0  0  0
  -30.4325  -11.4158   19.9404 H   0  0  0  0  0  0
  -29.7784  -11.5739   17.5946 H   0  0  0  0  0  0
  -29.7355  -13.3000   17.6279 H   0  0  0  0  0  0
  -27.8883  -11.2726   18.9029 H   0  0  0  0  0  0
  -27.4018  -12.5367   17.8036 H   0  0  0  0  0  0
  -27.6828  -14.2232   19.5526 H   0  0  0  0  0  0
  -28.7618  -12.0338   21.3659 H   0  0  0  0  0  0
  -28.4790  -13.6855   21.8608 H   0  0  0  0  0  0
  -25.2656   -9.5599   22.4922 H   0  0  0  0  0  0
  -23.9885   -7.4594   22.7514 H   0  0  0  0  0  0
  -21.0839   -8.8735   19.8940 H   0  0  0  0  0  0
  -22.3705  -10.9656   19.6186 H   0  0  0  0  0  0
  -21.1837   -7.6071   23.9674 H   0  0  0  0  0  0
  -21.1564   -6.0547   25.9128 H   0  0  0  0  0  0
  -22.0553   -2.7531   23.3083 H   0  0  0  0  0  0
  -22.3735  -11.9726   22.4516 H   0  0  0  0  0  0
  -21.1265  -13.1717   22.2703 H   0  0  0  0  0  0
  -24.6883  -15.8308   20.5278 H   0  0  0  0  0  0
  -26.3083  -15.6282   20.1092 H   0  0  0  0  0  0
  -26.7163  -32.5441   23.1068 H   0  0  0  0  0  0
  -25.0221  -33.9753   25.0502 H   0  0  0  0  0  0
  -22.7118  -31.2935   21.3961 H   0  0  0  0  0  0
  -23.3773  -35.9581   23.3320 H   0  0  0  0  0  0
  -24.3583  -36.8852   22.2039 H   0  0  0  0  0  0
  -23.7227  -37.6483   23.6629 H   0  0  0  0  0  0
  -26.1016  -31.5469   20.6108 H   0  0  0  0  0  0
  -26.8387  -30.8292   22.0116 H   0  0  0  0  0  0
  -28.1250  -28.9715   21.1991 H   0  0  0  0  0  0
  -25.9827  -25.9209   19.0126 H   0  0  0  0  0  0
  -23.9967  -27.3031   18.9996 H   0  0  0  0  0  0
  -23.7710  -30.5931   19.4094 H   0  0  0  0  0  0
  -22.7683  -29.2459   19.8472 H   0  0  0  0  0  0
  -25.1317  -36.1943   25.0811 H   0  0  0  0  0  0
  -20.9878  -28.3094   24.1302 H   0  0  0  0  0  0
  -20.5813  -26.2261   23.3162 H   0  0  0  0  0  0
  -21.6403  -26.7700   22.0523 H   0  0  0  0  0  0
  -19.6566  -25.6166   21.1200 H   0  0  0  0  0  0
  -19.6314  -27.3028   20.6433 H   0  0  0  0  0  0
  -17.9852  -25.9979   22.8515 H   0  0  0  0  0  0
  -17.4073  -26.7133   21.3670 H   0  0  0  0  0  0
  -19.7798  -30.7256   24.2286 H   0  0  0  0  0  0
  -17.4678  -31.6139   24.5356 H   0  0  0  0  0  0
  -15.5129  -30.2788   23.7812 H   0  0  0  0  0  0
  -15.8554  -28.0868   22.6887 H   0  0  0  0  0  0
  -24.5881  -30.7131   25.7703 H   0  0  0  0  0  0
  -24.8914  -32.2931   26.4793 H   0  0  0  0  0  0
  -25.7989  -30.8934   27.0191 H   0  0  0  0  0  0
  -26.2982  -29.6724   24.1190 H   0  0  0  0  0  0
  -27.4067  -29.7298   25.4712 H   0  0  0  0  0  0
  -27.8844  -30.4292   23.9432 H   0  0  0  0  0  0
  -27.2685  -33.3646   26.2015 H   0  0  0  0  0  0
  -28.3864  -32.6888   25.0284 H   0  0  0  0  0  0
  -28.0721  -31.8476   26.5371 H   0  0  0  0  0  0
  -28.2629  -38.0100   24.7525 H   0  0  0  0  0  0
  -28.1076  -36.2634   24.6341 H   0  0  0  0  0  0
  -27.2314  -37.1517   25.8888 H   0  0  0  0  0  0
  -20.9255  -29.9257   21.7333 H   0  0  0  0  0  0
  -26.0183  -38.2853   24.1461 H   0  0  0  0  0  0
  -29.7867  -20.1806   18.3986 H   0  0  0  0  0  0
  -28.2032  -20.6849   18.8247 H   0  0  0  0  0  0
  -28.4208  -19.7561   21.0636 H   0  0  0  0  0  0
  -27.4223  -18.3773   18.9965 H   0  0  0  0  0  0
  -28.5237  -17.2582   20.6116 H   0  0  0  0  0  0
  -31.1654  -18.6372   20.2650 H   0  0  0  0  0  0
  -28.7747  -18.9417   16.3398 H   0  0  0  0  0  0
  -27.2599  -19.6450   16.8852 H   0  0  0  0  0  0
  -27.3601  -17.9336   16.5873 H   0  0  0  0  0  0
  -31.1237  -18.5370   18.0858 H   0  0  0  0  0  0
  -30.5626  -17.4696   16.8343 H   0  0  0  0  0  0
  -31.4135  -16.8355   18.2234 H   0  0  0  0  0  0
  -27.6336  -15.9748   18.3396 H   0  0  0  0  0  0
  -29.2233  -15.2169   18.2270 H   0  0  0  0  0  0
  -28.6636  -16.1642   16.9179 H   0  0  0  0  0  0
  -27.2758  -24.7029   20.8596 H   0  0  0  0  0  0
  -27.7272  -24.6621   19.1658 H   0  0  0  0  0  0
  -30.8437  -21.4712   20.2478 H   0  0  0  0  0  0
  -30.1826  -21.4117   21.8533 H   0  0  0  0  0  0
  -28.0669  -22.2899   20.2130 H   0  0  0  0  0  0
  -28.9175  -15.4137   21.1759 H   0  0  0  0  0  0
  -29.7993  -18.1100   22.7680 H   0  0  0  0  0  0
  -31.0727  -19.1216   22.5456 H   0  0  0  0  0  0
  -31.2283  -17.5429   22.2355 H   0  0  0  0  0  0
  1 25  1  0  0  0
  1 30  2  0  0  0
  1 84  1  0  0  0
  2  3  1  0  0  0
  2 25  1  0  0  0
  2 87  1  0  0  0
  2 88  1  0  0  0
  3  4  1  0  0  0
  3 89  1  0  0  0
  3 90  1  0  0  0
  4  5  1  0  0  0
  4 91  1  0  0  0
  4 92  1  0  0  0
  5  6  1  0  0  0
  5 26  1  0  0  0
  5 93  1  0  0  0
  6 25  1  0  0  0
  6 94  1  0  0  0
  6 95  1  0  0  0
  7  8  2  0  0  0
  7 26  1  0  0  0
  7 29  1  0  0  0
  8  9  1  0  0  0
  8 22  1  0  0  0
  9 10  1  0  0  0
  9 27  2  0  0  0
 10 11  2  0  0  0
 10 15  1  0  0  0
 11 12  1  0  0  0
 11 96  1  0  0  0
 12 13  2  0  0  0
 12 97  1  0  0  0
 13 14  1  0  0  0
 13 31  1  0  0  0
 14 15  2  0  0  0
 14 98  1  0  0  0
 15 99  1  0  0  0
 16 17  2  0  0  0
 16 21  1  0  0  0
 16 31  1  0  0  0
 17 18  1  0  0  0
 17100  1  0  0  0
 18 19  2  0  0  0
 18101  1  0  0  0
 19 20  1  0  0  0
 19 24  1  0  0  0
 20 21  2  0  0  0
 20102  1  0  0  0
 21 23  1  0  0  0
 22 28  1  0  0  0
 22 32  2  0  0  0
 26 27  1  0  0  0
 28103  1  0  0  0
 28104  1  0  0  0
 29105  1  0  0  0
 29106  1  0  0  0
 33 34  1  0  0  0
 33 66  1  0  0  0
 33 70  2  0  0  0
 34 36  1  0  0  0
 34 59  1  0  0  0
 34107  1  0  0  0
 35 44  2  0  0  0
 35 45  1  0  0  0
 35 68  1  0  0  0
 36 56  1  0  0  0
 36108  1  0  0  0
 37 39  1  0  0  0
 37 47  1  0  0  0
 37 66  1  0  0  0
 37109  1  0  0  0
 38 43  2  0  0  0
 38 46  1  0  0  0
 38 47  1  0  0  0
 39 64  1  0  0  0
 39 67  2  0  0  0
 40 52  1  0  0  0
 40 53  2  0  0  0
 40 58  1  0  0  0
 41110  1  0  0  0
 41111  1  0  0  0
 41112  1  0  0  0
 41 48  1  0  0  0
 42 43  1  0  0  0
 42 66  1  0  0  0
 42113  1  0  0  0
 42114  1  0  0  0
 43 44  1  0  0  0
 44115  1  0  0  0
 45 46  2  0  0  0
 45116  1  0  0  0
 46117  1  0  0  0
 47118  1  0  0  0
 47119  1  0  0  0
 48 56  1  0  0  0
 48 65  1  0  0  0
 48120  1  0  0  0
 49 50  1  0  0  0
 49 53  1  0  0  0
 49 64  1  0  0  0
 49121  1  0  0  0
 50 51  1  0  0  0
 50122  1  0  0  0
 50123  1  0  0  0
 51 52  1  0  0  0
 51124  1  0  0  0
 51125  1  0  0  0
 52126  1  0  0  0
 52127  1  0  0  0
 53 54  1  0  0  0
 54 55  2  0  0  0
 54128  1  0  0  0
 55 57  1  0  0  0
 55129  1  0  0  0
 56 69  2  0  0  0
 57 58  2  0  0  0
 57130  1  0  0  0
 58131  1  0  0  0
 59 60  1  0  0  0
 59 61  1  0  0  0
 59 62  1  0  0  0
 60132  1  0  0  0
 60133  1  0  0  0
 60134  1  0  0  0
 61135  1  0  0  0
 61136  1  0  0  0
 61137  1  0  0  0
 62138  1  0  0  0
 62139  1  0  0  0
 62140  1  0  0  0
 63 65  1  0  0  0
 63141  1  0  0  0
 63142  1  0  0  0
 63143  1  0  0  0
 64144  1  0  0  0
 65145  1  0  0  0
 68 81  1  0  0  0
 71 81  1  0  0  0
 71 83  1  0  0  0
 71 86  2  0  0  0
 72 73  1  0  0  0
 72 74  1  0  0  0
 72146  1  0  0  0
 72147  1  0  0  0
 73 76  1  0  0  0
 73 82  1  0  0  0
 73148  1  0  0  0
 74 77  1  0  0  0
 74 78  1  0  0  0
 74149  1  0  0  0
 75 76  1  0  0  0
 75 77  1  0  0  0
 75 84  1  0  0  0
 75150  1  0  0  0
 76 85  1  0  0  0
 76151  1  0  0  0
 77 79  1  0  0  0
 77 80  1  0  0  0
 78152  1  0  0  0
 78153  1  0  0  0
 78154  1  0  0  0
 79155  1  0  0  0
 79156  1  0  0  0
 79157  1  0  0  0
 80158  1  0  0  0
 80159  1  0  0  0
 80160  1  0  0  0
 81161  1  0  0  0
 81162  1  0  0  0
 82 83  1  0  0  0
 82163  1  0  0  0
 82164  1  0  0  0
 83165  1  0  0  0
 84166  1  0  0  0
 85167  1  0  0  0
 85168  1  0  0  0
 85169  1  0  0  0
M  CHG  1  85   1
M  ISO  4   1 100  68 101  81 101  84 100
M  END
> <chiral flag>
0

> <version>
0

> <s_m_source_file>
/data/baiqing/PycharmProjects/Reinvent-master-3.2/result/LINK_invent/BTK/process_docking_weight1_custom_sum_contain_oxygen_bond_distance_aromatic_linkinvent_7_9_3/rearranged_h_0168.sdf

> <i_m_source_file_index>
45

> <r_mmod_Potential_Energy-OPLS-2005>
-108.515830993652

> <r_mmod_Stretch_Energy-OPLS-2005>
127.183250427246

> <r_mmod_Bend_Energy-OPLS-2005>
218.604751586914

> <r_mmod_Torsional_Energy-OPLS-2005>
299.056243896484

> <r_mmod_Improper_Torsional_Energy-OPLS-2005>
6.46294498443604

> <r_mmod_Van_der_Waal_Energy-OPLS-2005>
136.18000793457

> <r_mmod_Electrostatic_Energy-OPLS-2005>
-419.815002441406

> <r_mmod_Solvation_Energy-OPLS-2005>
-546.823791503906

> <b_mmod_Minimization_Converged-OPLS-2005>
0

> <r_mmod_RMS_Derivative-OPLS-2005>
9.55530071258545

$$$$
45
                    3D
 Structure written by MMmdl.
170179  0  0  1  0            999 V2000
  -30.5051  -15.0074   20.3057 C   0  0  0  0  0  0
  -30.4314  -12.6210   19.4899 C   0  0  0  0  0  0
  -29.5065  -12.5296   18.2565 C   0  0  0  0  0  0
  -28.0388  -12.3364   18.6761 C   0  0  0  0  0  0
  -27.6153  -13.2715   19.8399 C   0  0  2  0  0  0
  -28.6671  -13.3249   20.9679 C   0  0  0  0  0  0
  -25.2375  -13.8300   20.5857 C   0  0  0  0  0  0
  -24.1716  -13.0468   20.9280 C   0  0  0  0  0  0
  -24.6349  -11.6951   20.8710 C   0  0  0  0  0  0
  -23.9038  -10.4296   21.0320 C   0  0  0  0  0  0
  -24.3590   -9.4258   21.9135 C   0  0  0  0  0  0
  -23.6296   -8.2277   22.0691 C   0  0  0  0  0  0
  -22.4280   -8.0230   21.3491 C   0  0  0  0  0  0
  -21.9895   -9.0194   20.4607 C   0  0  0  0  0  0
  -22.7181  -10.2134   20.3000 C   0  0  0  0  0  0
  -21.6836   -6.0726   22.5244 C   0  0  0  0  0  0
  -21.4011   -6.5642   23.8191 C   0  0  0  0  0  0
  -21.3688   -5.6779   24.9133 C   0  0  0  0  0  0
  -21.6042   -4.3014   24.7200 C   0  0  0  0  0  0
  -21.8836   -3.8154   23.4290 C   0  0  0  0  0  0
  -21.9210   -4.6964   22.3359 C   0  0  0  0  0  0
  -22.7721  -13.5141   21.1962 C   0  0  0  0  0  0
  -22.1684   -4.2211   21.0932 F   0  0  0  0  0  0
  -21.5618   -3.4492   25.7702 F   0  0  0  0  0  0
  -29.9328  -13.7350   20.3491 N   0  0  0  0  0  0
  -26.2825  -12.9568   20.3363 N   0  0  0  0  0  0
  -25.9309  -11.6653   20.5813 N   0  0  0  0  0  0
  -22.0440  -12.8115   22.0535 N   0  0  0  0  0  0
  -25.3959  -15.2089   20.4381 N   0  0  0  0  0  0
  -31.7075  -15.0663   20.0418 O   0  0  0  0  0  0
  -21.6607   -6.8851   21.4183 O   0  0  0  0  0  0
  -22.3330  -14.5415   20.6770 O   0  0  0  0  0  0
  -24.6486  -31.8468   23.1938 C   0  0  0  0  0  0
  -25.9256  -32.4690   23.8337 C   0  0  1  0  0  0
  -27.1951  -27.1293   20.1478 C   0  0  0  0  0  0
  -25.6008  -33.8497   24.2297 N   0  0  0  0  0  0
  -23.4452  -30.4707   21.5425 C   0  0  2  0  0  0
  -24.8882  -28.8964   20.1211 C   0  0  0  0  0  0
  -22.7568  -29.4578   22.4901 C   0  0  0  0  0  0
  -18.0325  -28.1406   22.8465 C   0  0  0  0  0  0
  -24.1494  -36.7201   23.2643 C   0  0  0  0  0  0
  -26.0031  -30.7243   21.3831 C   0  0  0  0  0  0
  -26.0708  -29.3318   20.7293 C   0  0  0  0  0  0
  -27.2264  -28.4636   20.7285 C   0  0  0  0  0  0
  -25.9848  -26.8018   19.4975 C   0  0  0  0  0  0
  -24.8566  -27.6428   19.4933 C   0  0  0  0  0  0
  -23.6670  -29.8001   20.1639 C   0  0  0  0  0  0
  -25.4131  -36.3017   24.0325 C   0  0  1  0  0  0
  -20.5943  -28.3731   23.1256 C   0  0  2  0  0  0
  -20.6811  -26.9428   22.5421 C   0  0  0  0  0  0
  -19.5758  -26.6411   21.5228 C   0  0  0  0  0  0
  -18.1949  -26.7973   22.1604 C   0  0  0  0  0  0
  -19.1576  -28.8883   23.2875 C   0  0  0  0  0  0
  -18.9480  -30.1502   23.8879 C   0  0  0  0  0  0
  -17.6470  -30.6614   24.0562 C   0  0  0  0  0  0
  -25.9082  -34.9385   23.5122 C   0  0  0  0  0  0
  -16.5367  -29.9090   23.6356 C   0  0  0  0  0  0
  -16.7307  -28.6505   23.0362 C   0  0  0  0  0  0
  -26.4601  -31.6525   25.0732 C   0  0  0  0  0  0
  -25.3817  -31.3567   26.1422 C   0  0  0  0  0  0
  -27.0471  -30.2966   24.6205 C   0  0  0  0  0  0
  -27.6232  -32.4236   25.7422 C   0  0  0  0  0  0
  -27.5584  -37.1741   24.8483 C   0  0  0  0  0  0
  -21.4273  -29.3036   22.3608 N   0  0  0  0  0  0
  -26.4296  -37.3749   23.9420 N   0  0  0  0  0  0
  -24.7194  -31.0308   22.0971 N   0  0  0  0  0  0
  -23.4215  -28.8120   23.3056 O   0  0  0  0  0  0
  -28.2434  -26.1402   20.1836 O   0  0  0  0  0  0
  -26.5599  -34.8877   22.4664 O   0  0  0  0  0  0
  -23.5620  -32.1309   23.7172 O   0  0  0  0  0  0
  -30.1632  -18.4137   16.6901 C   0  0  0  0  0  0
  -28.0942  -17.6575   14.9824 C   0  0  0  0  0  0
  -28.9255  -18.0622   17.2862 C   0  0  0  0  0  0
  -30.3430  -18.4931   15.2863 C   0  0  0  0  0  0
  -27.8840  -17.6632   16.3839 C   0  0  0  0  0  0
  -29.2961  -18.1177   14.4160 C   0  0  0  0  0  0
  -29.3900  -20.6245   19.5632 C   0  0  0  0  0  0
  -28.7500  -18.0152   18.8260 C   0  0  1  0  0  0
  -29.8772  -17.6362   19.7656 C   0  0  1  0  0  0
  -28.9806  -19.0692   19.9455 C   0  0  1  0  0  0
  -31.6436  -19.0537   14.7283 C   0  0  0  0  0  0
  -26.5059  -17.2101   16.8494 C   0  0  0  0  0  0
  -29.4207  -18.2257   12.8942 C   0  0  0  0  0  0
  -27.9589  -19.1118   21.0845 C   0  0  0  0  0  0
  -29.0493  -23.3509   20.0115 C   0  0  0  0  0  0
  -27.9462  -24.6039   20.2466 C   0  0  0  0  0  0
  -28.7630  -21.7933   20.1079 N   0  0  0  0  0  0
  -29.6842  -16.1809   20.3212 N   0  0  0  0  0  0
  -30.3094  -20.8069   18.7616 O   0  0  0  0  0  0
  -31.4567  -12.7838   19.1612 H   0  0  0  0  0  0
  -30.4390  -11.6836   20.0493 H   0  0  0  0  0  0
  -29.8279  -11.7087   17.6169 H   0  0  0  0  0  0
  -29.6114  -13.4397   17.6622 H   0  0  0  0  0  0
  -27.9086  -11.2979   18.9754 H   0  0  0  0  0  0
  -27.3798  -12.4845   17.8202 H   0  0  0  0  0  0
  -27.5591  -14.2757   19.4131 H   0  0  0  0  0  0
  -28.7721  -12.3628   21.4710 H   0  0  0  0  0  0
  -28.3734  -14.0434   21.7367 H   0  0  0  0  0  0
  -25.2734   -9.5782   22.4682 H   0  0  0  0  0  0
  -24.0053   -7.4651   22.7383 H   0  0  0  0  0  0
  -21.0856   -8.8639   19.8881 H   0  0  0  0  0  0
  -22.3561  -10.9623   19.6081 H   0  0  0  0  0  0
  -21.1970   -7.6141   23.9708 H   0  0  0  0  0  0
  -21.1477   -6.0496   25.9060 H   0  0  0  0  0  0
  -22.0598   -2.7633   23.2746 H   0  0  0  0  0  0
  -22.4143  -11.9893   22.5035 H   0  0  0  0  0  0
  -21.0947  -13.0986   22.2605 H   0  0  0  0  0  0
  -24.6270  -15.8503   20.6070 H   0  0  0  0  0  0
  -26.2519  -15.6807   20.1842 H   0  0  0  0  0  0
  -26.7282  -32.5282   23.1040 H   0  0  0  0  0  0
  -25.0228  -33.9665   25.0484 H   0  0  0  0  0  0
  -22.7524  -31.3019   21.3900 H   0  0  0  0  0  0
  -23.3800  -35.9497   23.3292 H   0  0  0  0  0  0
  -24.3617  -36.8863   22.2077 H   0  0  0  0  0  0
  -23.7204  -37.6371   23.6666 H   0  0  0  0  0  0
  -26.1512  -31.4774   20.6050 H   0  0  0  0  0  0
  -26.8846  -30.7846   22.0145 H   0  0  0  0  0  0
  -28.1242  -28.7953   21.2279 H   0  0  0  0  0  0
  -25.8702  -25.8593   18.9835 H   0  0  0  0  0  0
  -23.9499  -27.3134   19.0088 H   0  0  0  0  0  0
  -23.7960  -30.5752   19.4053 H   0  0  0  0  0  0
  -22.7806  -29.2418   19.8559 H   0  0  0  0  0  0
  -25.1327  -36.1866   25.0817 H   0  0  0  0  0  0
  -21.0056  -28.3298   24.1361 H   0  0  0  0  0  0
  -20.5763  -26.2294   23.3636 H   0  0  0  0  0  0
  -21.6676  -26.7460   22.1162 H   0  0  0  0  0  0
  -19.6930  -25.6336   21.1243 H   0  0  0  0  0  0
  -19.6747  -27.3245   20.6786 H   0  0  0  0  0  0
  -17.4259  -26.6798   21.3977 H   0  0  0  0  0  0
  -18.0269  -26.0155   22.9000 H   0  0  0  0  0  0
  -19.7965  -30.7362   24.2227 H   0  0  0  0  0  0
  -17.5003  -31.6281   24.5155 H   0  0  0  0  0  0
  -15.5360  -30.2946   23.7716 H   0  0  0  0  0  0
  -15.8704  -28.0813   22.7068 H   0  0  0  0  0  0
  -24.6141  -30.6760   25.7685 H   0  0  0  0  0  0
  -24.8795  -32.2638   26.4798 H   0  0  0  0  0  0
  -25.8187  -30.8802   27.0222 H   0  0  0  0  0  0
  -26.3054  -29.6621   24.1319 H   0  0  0  0  0  0
  -27.4294  -29.7303   25.4717 H   0  0  0  0  0  0
  -27.8877  -30.4304   23.9395 H   0  0  0  0  0  0
  -27.3026  -33.3665   26.1872 H   0  0  0  0  0  0
  -28.4044  -32.6592   25.0157 H   0  0  0  0  0  0
  -28.0864  -31.8382   26.5382 H   0  0  0  0  0  0
  -28.2585  -38.0056   24.7592 H   0  0  0  0  0  0
  -28.1108  -36.2599   24.6254 H   0  0  0  0  0  0
  -27.2284  -37.1309   25.8882 H   0  0  0  0  0  0
  -20.9486  -29.8639   21.6700 H   0  0  0  0  0  0
  -26.0151  -38.2804   24.1498 H   0  0  0  0  0  0
  -31.0021  -18.6557   17.3227 H   0  0  0  0  0  0
  -27.2996  -17.3313   14.3215 H   0  0  0  0  0  0
  -27.8483  -17.4315   18.9845 H   0  0  0  0  0  0
  -30.8947  -17.8498   19.4470 H   0  0  0  0  0  0
  -32.3405  -19.2792   15.5328 H   0  0  0  0  0  0
  -31.4366  -19.9852   14.1979 H   0  0  0  0  0  0
  -32.1402  -18.3712   14.0355 H   0  0  0  0  0  0
  -25.7547  -17.4193   16.0847 H   0  0  0  0  0  0
  -26.1636  -17.7178   17.7509 H   0  0  0  0  0  0
  -26.4934  -16.1328   17.0292 H   0  0  0  0  0  0
  -28.4464  -18.4214   12.4417 H   0  0  0  0  0  0
  -29.8091  -17.3082   12.4423 H   0  0  0  0  0  0
  -30.0643  -19.0550   12.5934 H   0  0  0  0  0  0
  -27.1990  -18.3501   20.9406 H   0  0  0  0  0  0
  -27.4135  -20.0508   21.1661 H   0  0  0  0  0  0
  -28.4568  -18.9265   22.0349 H   0  0  0  0  0  0
  -29.8181  -23.5352   20.7659 H   0  0  0  0  0  0
  -29.5309  -23.5459   19.0551 H   0  0  0  0  0  0
  -27.4974  -24.4572   21.2345 H   0  0  0  0  0  0
  -27.1273  -24.3770   19.5736 H   0  0  0  0  0  0
  -28.0752  -21.5609   20.8186 H   0  0  0  0  0  0
  -28.7505  -16.0016   20.6534 H   0  0  0  0  0  0
  1 25  1  0  0  0
  1 30  2  0  0  0
  1 88  1  0  0  0
  2  3  1  0  0  0
  2 25  1  0  0  0
  2 90  1  0  0  0
  2 91  1  0  0  0
  3  4  1  0  0  0
  3 92  1  0  0  0
  3 93  1  0  0  0
  4  5  1  0  0  0
  4 94  1  0  0  0
  4 95  1  0  0  0
  5  6  1  0  0  0
  5 26  1  0  0  0
  5 96  1  0  0  0
  6 25  1  0  0  0
  6 97  1  0  0  0
  6 98  1  0  0  0
  7  8  2  0  0  0
  7 26  1  0  0  0
  7 29  1  0  0  0
  8  9  1  0  0  0
  8 22  1  0  0  0
  9 10  1  0  0  0
  9 27  2  0  0  0
 10 11  2  0  0  0
 10 15  1  0  0  0
 11 12  1  0  0  0
 11 99  1  0  0  0
 12 13  2  0  0  0
 12100  1  0  0  0
 13 14  1  0  0  0
 13 31  1  0  0  0
 14 15  2  0  0  0
 14101  1  0  0  0
 15102  1  0  0  0
 16 17  2  0  0  0
 16 21  1  0  0  0
 16 31  1  0  0  0
 17 18  1  0  0  0
 17103  1  0  0  0
 18 19  2  0  0  0
 18104  1  0  0  0
 19 20  1  0  0  0
 19 24  1  0  0  0
 20 21  2  0  0  0
 20105  1  0  0  0
 21 23  1  0  0  0
 22 28  1  0  0  0
 22 32  2  0  0  0
 26 27  1  0  0  0
 28106  1  0  0  0
 28107  1  0  0  0
 29108  1  0  0  0
 29109  1  0  0  0
 33 34  1  0  0  0
 33 66  1  0  0  0
 33 70  2  0  0  0
 34 36  1  0  0  0
 34 59  1  0  0  0
 34110  1  0  0  0
 35 44  2  0  0  0
 35 45  1  0  0  0
 35 68  1  0  0  0
 36 56  1  0  0  0
 36111  1  0  0  0
 37 39  1  0  0  0
 37 47  1  0  0  0
 37 66  1  0  0  0
 37112  1  0  0  0
 38 43  2  0  0  0
 38 46  1  0  0  0
 38 47  1  0  0  0
 39 64  1  0  0  0
 39 67  2  0  0  0
 40 52  1  0  0  0
 40 53  2  0  0  0
 40 58  1  0  0  0
 41113  1  0  0  0
 41114  1  0  0  0
 41115  1  0  0  0
 41 48  1  0  0  0
 42 43  1  0  0  0
 42 66  1  0  0  0
 42116  1  0  0  0
 42117  1  0  0  0
 43 44  1  0  0  0
 44118  1  0  0  0
 45 46  2  0  0  0
 45119  1  0  0  0
 46120  1  0  0  0
 47121  1  0  0  0
 47122  1  0  0  0
 48 56  1  0  0  0
 48 65  1  0  0  0
 48123  1  0  0  0
 49 50  1  0  0  0
 49 53  1  0  0  0
 49 64  1  0  0  0
 49124  1  0  0  0
 50 51  1  0  0  0
 50125  1  0  0  0
 50126  1  0  0  0
 51 52  1  0  0  0
 51127  1  0  0  0
 51128  1  0  0  0
 52129  1  0  0  0
 52130  1  0  0  0
 53 54  1  0  0  0
 54 55  2  0  0  0
 54131  1  0  0  0
 55 57  1  0  0  0
 55132  1  0  0  0
 56 69  2  0  0  0
 57 58  2  0  0  0
 57133  1  0  0  0
 58134  1  0  0  0
 59 60  1  0  0  0
 59 61  1  0  0  0
 59 62  1  0  0  0
 60135  1  0  0  0
 60136  1  0  0  0
 60137  1  0  0  0
 61138  1  0  0  0
 61139  1  0  0  0
 61140  1  0  0  0
 62141  1  0  0  0
 62142  1  0  0  0
 62143  1  0  0  0
 63 65  1  0  0  0
 63144  1  0  0  0
 63145  1  0  0  0
 63146  1  0  0  0
 64147  1  0  0  0
 65148  1  0  0  0
 68 86  1  0  0  0
 71 73  2  0  0  0
 71 74  1  0  0  0
 71149  1  0  0  0
 72 75  2  0  0  0
 72 76  1  0  0  0
 72150  1  0  0  0
 73 75  1  0  0  0
 73 78  1  0  0  0
 74 76  2  0  0  0
 74 81  1  0  0  0
 75 82  1  0  0  0
 76 83  1  0  0  0
 77 87  1  0  0  0
 77 89  2  0  0  0
 77 80  1  0  0  0
 78 79  1  0  0  0
 78 80  1  0  0  0
 78151  1  0  0  0
 79 80  1  0  0  0
 79 88  1  0  0  0
 79152  1  0  0  0
 80 84  1  0  0  0
 81153  1  0  0  0
 81154  1  0  0  0
 81155  1  0  0  0
 82156  1  0  0  0
 82157  1  0  0  0
 82158  1  0  0  0
 83159  1  0  0  0
 83160  1  0  0  0
 83161  1  0  0  0
 84162  1  0  0  0
 84163  1  0  0  0
 84164  1  0  0  0
 85 86  1  0  0  0
 85 87  1  0  0  0
 85165  1  0  0  0
 85166  1  0  0  0
 86167  1  0  0  0
 86168  1  0  0  0
 87169  1  0  0  0
 88170  1  0  0  0
M  ISO  4   1 100  68 101  86 101  88 100
M  END
> <chiral flag>
0

> <version>
0

> <s_m_source_file>
/data/baiqing/PycharmProjects/Reinvent-master-3.2/result/LINK_invent/BTK/process_docking_weight1_custom_sum_contain_oxygen_bond_distance_aromatic_linkinvent_7_9_3/rearranged_h_0168.sdf

> <i_m_source_file_index>
46

> <r_mmod_Potential_Energy-OPLS-2005>
567.571166992188

> <r_mmod_Stretch_Energy-OPLS-2005>
309.306030273438

> <r_mmod_Bend_Energy-OPLS-2005>
284.486389160156

> <r_mmod_Torsional_Energy-OPLS-2005>
289.310424804688

> <r_mmod_Improper_Torsional_Energy-OPLS-2005>
6.02698230743408

> <r_mmod_Van_der_Waal_Energy-OPLS-2005>
136.962524414062

> <r_mmod_Electrostatic_Energy-OPLS-2005>
-427.703521728516

> <r_mmod_Solvation_Energy-OPLS-2005>
-255.6591796875

> <b_mmod_Minimization_Converged-OPLS-2005>
0

> <r_mmod_RMS_Derivative-OPLS-2005>
10.5783309936523

$$$$
46
                    3D
 Structure written by MMmdl.
160169  0  0  1  0            999 V2000
  -30.4923  -15.0253   20.4746 C   0  0  0  0  0  0
  -30.4615  -12.6764   19.4611 C   0  0  0  0  0  0
  -29.5114  -12.5583   18.2422 C   0  0  0  0  0  0
  -28.0469  -12.3277   18.6721 C   0  0  0  0  0  0
  -27.6349  -13.2291   19.8650 C   0  0  2  0  0  0
  -28.7064  -13.1483   20.9728 C   0  0  0  0  0  0
  -25.2411  -13.8111   20.5692 C   0  0  0  0  0  0
  -24.1729  -13.0364   20.9221 C   0  0  0  0  0  0
  -24.6359  -11.6858   20.8792 C   0  0  0  0  0  0
  -23.9048  -10.4244   21.0435 C   0  0  0  0  0  0
  -24.3601   -9.4162   21.9205 C   0  0  0  0  0  0
  -23.6273   -8.2208   22.0764 C   0  0  0  0  0  0
  -22.4263   -8.0257   21.3543 C   0  0  0  0  0  0
  -21.9899   -9.0231   20.4645 C   0  0  0  0  0  0
  -22.7235  -10.2106   20.3063 C   0  0  0  0  0  0
  -21.6847   -6.0716   22.5279 C   0  0  0  0  0  0
  -21.4014   -6.5619   23.8209 C   0  0  0  0  0  0
  -21.3654   -5.6778   24.9171 C   0  0  0  0  0  0
  -21.6049   -4.3041   24.7232 C   0  0  0  0  0  0
  -21.8825   -3.8131   23.4352 C   0  0  0  0  0  0
  -21.9188   -4.6945   22.3403 C   0  0  0  0  0  0
  -22.7754  -13.5163   21.1864 C   0  0  0  0  0  0
  -22.1656   -4.2126   21.0983 F   0  0  0  0  0  0
  -21.5628   -3.4530   25.7742 F   0  0  0  0  0  0
  -29.9272  -13.7318   20.3837 N   0  0  0  0  0  0
  -26.2897  -12.9345   20.3418 N   0  0  0  0  0  0
  -25.9301  -11.6490   20.5852 N   0  0  0  0  0  0
  -22.0417  -12.8162   22.0441 N   0  0  0  0  0  0
  -25.3940  -15.1816   20.3979 N   0  0  0  0  0  0
  -31.6930  -15.0781   20.1728 O   0  0  0  0  0  0
  -21.6632   -6.8860   21.4234 O   0  0  0  0  0  0
  -22.3450  -14.5485   20.6730 O   0  0  0  0  0  0
  -24.6457  -31.8400   23.1858 C   0  0  0  0  0  0
  -25.9217  -32.4680   23.8261 C   0  0  1  0  0  0
  -27.2267  -27.1168   20.1453 C   0  0  0  0  0  0
  -25.5952  -33.8492   24.2164 N   0  0  0  0  0  0
  -23.4517  -30.4581   21.5311 C   0  0  2  0  0  0
  -24.9034  -28.8826   20.1109 C   0  0  0  0  0  0
  -22.7592  -29.4517   22.4850 C   0  0  0  0  0  0
  -18.0305  -28.1396   22.8451 C   0  0  0  0  0  0
  -24.1492  -36.7251   23.2639 C   0  0  0  0  0  0
  -26.0103  -30.7063   21.3879 C   0  0  0  0  0  0
  -26.0821  -29.3166   20.7294 C   0  0  0  0  0  0
  -27.2427  -28.4494   20.7313 C   0  0  0  0  0  0
  -26.0195  -26.7942   19.4838 C   0  0  0  0  0  0
  -24.8862  -27.6345   19.4736 C   0  0  0  0  0  0
  -23.6801  -29.7844   20.1527 C   0  0  0  0  0  0
  -25.4112  -36.3017   24.0317 C   0  0  1  0  0  0
  -20.5923  -28.3720   23.1221 C   0  0  2  0  0  0
  -20.6786  -26.9419   22.5390 C   0  0  0  0  0  0
  -19.5766  -26.6369   21.5205 C   0  0  0  0  0  0
  -18.1940  -26.7923   22.1612 C   0  0  0  0  0  0
  -19.1562  -28.8877   23.2821 C   0  0  0  0  0  0
  -18.9491  -30.1468   23.8854 C   0  0  0  0  0  0
  -17.6488  -30.6585   24.0559 C   0  0  0  0  0  0
  -25.9076  -34.9402   23.5055 C   0  0  0  0  0  0
  -16.5374  -29.9079   23.6340 C   0  0  0  0  0  0
  -16.7295  -28.6509   23.0339 C   0  0  0  0  0  0
  -26.4541  -31.6562   25.0715 C   0  0  0  0  0  0
  -25.3718  -31.3766   26.1402 C   0  0  0  0  0  0
  -27.0424  -30.2959   24.6308 C   0  0  0  0  0  0
  -27.6054  -32.4351   25.7504 C   0  0  0  0  0  0
  -27.5564  -37.1761   24.8458 C   0  0  0  0  0  0
  -21.4283  -29.3053   22.3615 N   0  0  0  0  0  0
  -26.4265  -37.3730   23.9423 N   0  0  0  0  0  0
  -24.7231  -31.0231   22.0905 N   0  0  0  0  0  0
  -23.4221  -28.8050   23.2999 O   0  0  0  0  0  0
  -28.2673  -26.1077   20.2260 O   0  0  0  0  0  0
  -26.5668  -34.8915   22.4634 O   0  0  0  0  0  0
  -23.5572  -32.1291   23.7049 O   0  0  0  0  0  0
  -30.9408  -22.2728   21.2784 C   0  0  0  0  0  0
  -30.1252  -23.3919   20.9495 C   0  0  0  0  0  0
  -30.5901  -20.9231   20.9914 C   0  0  0  0  0  0
  -29.3682  -20.6363   20.3469 C   0  0  0  0  0  0
  -28.8755  -23.2518   20.3088 C   0  0  0  0  0  0
  -28.5284  -21.8296   20.0208 C   0  0  0  0  0  0
  -31.5695  -19.7887   21.3465 C   0  0  0  0  0  0
  -29.0455  -19.0471   20.0943 C   0  0  0  0  0  0
  -30.9761  -18.3656   21.5928 C   0  0  0  0  0  0
  -30.1408  -17.8061   20.4185 C   0  0  1  0  0  0
  -27.1931  -21.5884   19.3382 C   0  0  0  0  0  0
  -28.4083  -16.3286   21.2507 C   0  0  0  0  0  0
  -27.9528  -24.5948   19.9698 C   0  0  0  0  0  0
  -29.7393  -16.2650   20.6377 N   0  0  0  0  0  0
  -31.4622  -12.9166   19.0998 H   0  0  0  0  0  0
  -30.5708  -11.7180   19.9699 H   0  0  0  0  0  0
  -29.8403  -11.7498   17.5873 H   0  0  0  0  0  0
  -29.5699  -13.4725   17.6505 H   0  0  0  0  0  0
  -27.9534  -11.2801   18.9607 H   0  0  0  0  0  0
  -27.3702  -12.4704   17.8291 H   0  0  0  0  0  0
  -27.6134  -14.2492   19.4829 H   0  0  0  0  0  0
  -28.8615  -12.1016   21.2389 H   0  0  0  0  0  0
  -28.4245  -13.5702   21.9298 H   0  0  0  0  0  0
  -25.2749   -9.5639   22.4780 H   0  0  0  0  0  0
  -23.9973   -7.4598   22.7484 H   0  0  0  0  0  0
  -21.0838   -8.8759   19.8947 H   0  0  0  0  0  0
  -22.3710  -10.9648   19.6170 H   0  0  0  0  0  0
  -21.2019   -7.6131   23.9710 H   0  0  0  0  0  0
  -21.1469   -6.0509   25.9073 H   0  0  0  0  0  0
  -22.0617   -2.7593   23.2862 H   0  0  0  0  0  0
  -22.4021  -11.9804   22.4807 H   0  0  0  0  0  0
  -21.1057  -13.1214   22.2703 H   0  0  0  0  0  0
  -24.6206  -15.8307   20.4917 H   0  0  0  0  0  0
  -26.2437  -15.6214   20.0715 H   0  0  0  0  0  0
  -26.7275  -32.5266   23.0979 H   0  0  0  0  0  0
  -25.0108  -33.9629   25.0319 H   0  0  0  0  0  0
  -22.7543  -31.2825   21.3691 H   0  0  0  0  0  0
  -23.3773  -35.9564   23.3273 H   0  0  0  0  0  0
  -24.3568  -36.8916   22.2056 H   0  0  0  0  0  0
  -23.7251  -37.6436   23.6707 H   0  0  0  0  0  0
  -26.1655  -31.4573   20.6125 H   0  0  0  0  0  0
  -26.8830  -30.7571   22.0272 H   0  0  0  0  0  0
  -28.1364  -28.7737   21.2455 H   0  0  0  0  0  0
  -25.9117  -25.8438   18.9835 H   0  0  0  0  0  0
  -23.9895  -27.2945   18.9743 H   0  0  0  0  0  0
  -23.8196  -30.5560   19.3956 H   0  0  0  0  0  0
  -22.7962  -29.2257   19.8385 H   0  0  0  0  0  0
  -25.1299  -36.1826   25.0808 H   0  0  0  0  0  0
  -20.9998  -28.3302   24.1346 H   0  0  0  0  0  0
  -20.5667  -26.2343   23.3616 H   0  0  0  0  0  0
  -21.6651  -26.7394   22.1188 H   0  0  0  0  0  0
  -19.6937  -25.6276   21.1247 H   0  0  0  0  0  0
  -19.6707  -27.3164   20.6727 H   0  0  0  0  0  0
  -17.4201  -26.6671   21.4021 H   0  0  0  0  0  0
  -18.0331  -26.0067   22.9017 H   0  0  0  0  0  0
  -19.7969  -30.7286   24.2202 H   0  0  0  0  0  0
  -17.5045  -31.6254   24.5168 H   0  0  0  0  0  0
  -15.5381  -30.2974   23.7688 H   0  0  0  0  0  0
  -15.8691  -28.0829   22.7068 H   0  0  0  0  0  0
  -24.5915  -30.7092   25.7727 H   0  0  0  0  0  0
  -24.8898  -32.2961   26.4733 H   0  0  0  0  0  0
  -25.7989  -30.9007   27.0238 H   0  0  0  0  0  0
  -26.3062  -29.6661   24.1297 H   0  0  0  0  0  0
  -27.4037  -29.7266   25.4882 H   0  0  0  0  0  0
  -27.8958  -30.4218   23.9642 H   0  0  0  0  0  0
  -27.2638  -33.3695   26.1967 H   0  0  0  0  0  0
  -28.3922  -32.6833   25.0372 H   0  0  0  0  0  0
  -28.0653  -31.8552   26.5513 H   0  0  0  0  0  0
  -28.2533  -38.0098   24.7518 H   0  0  0  0  0  0
  -28.1116  -36.2627   24.6264 H   0  0  0  0  0  0
  -27.2290  -37.1358   25.8860 H   0  0  0  0  0  0
  -20.9510  -29.8817   21.6827 H   0  0  0  0  0  0
  -26.0136  -38.2794   24.1457 H   0  0  0  0  0  0
  -31.8859  -22.4644   21.7690 H   0  0  0  0  0  0
  -30.4739  -24.3849   21.1975 H   0  0  0  0  0  0
  -32.1252  -20.0860   22.2375 H   0  0  0  0  0  0
  -32.3028  -19.7319   20.5407 H   0  0  0  0  0  0
  -28.7184  -18.9387   19.0601 H   0  0  0  0  0  0
  -28.1440  -18.8868   20.6828 H   0  0  0  0  0  0
  -30.3536  -18.3978   22.4875 H   0  0  0  0  0  0
  -31.7899  -17.6766   21.8209 H   0  0  0  0  0  0
  -30.8166  -17.7829   19.5631 H   0  0  0  0  0  0
  -26.9794  -20.5318   19.1796 H   0  0  0  0  0  0
  -27.1731  -22.0792   18.3649 H   0  0  0  0  0  0
  -26.3830  -21.9984   19.9417 H   0  0  0  0  0  0
  -28.3563  -17.1351   21.9813 H   0  0  0  0  0  0
  -28.0866  -15.4854   21.8321 H   0  0  0  0  0  0
  -27.6626  -16.5283   20.4850 H   0  0  0  0  0  0
  -27.0014  -24.3970   20.4659 H   0  0  0  0  0  0
  -27.7501  -24.5206   18.9008 H   0  0  0  0  0  0
  1 25  1  0  0  0
  1 30  2  0  0  0
  1 84  1  0  0  0
  2  3  1  0  0  0
  2 25  1  0  0  0
  2 85  1  0  0  0
  2 86  1  0  0  0
  3  4  1  0  0  0
  3 87  1  0  0  0
  3 88  1  0  0  0
  4  5  1  0  0  0
  4 89  1  0  0  0
  4 90  1  0  0  0
  5  6  1  0  0  0
  5 26  1  0  0  0
  5 91  1  0  0  0
  6 25  1  0  0  0
  6 92  1  0  0  0
  6 93  1  0  0  0
  7  8  2  0  0  0
  7 26  1  0  0  0
  7 29  1  0  0  0
  8  9  1  0  0  0
  8 22  1  0  0  0
  9 10  1  0  0  0
  9 27  2  0  0  0
 10 11  2  0  0  0
 10 15  1  0  0  0
 11 12  1  0  0  0
 11 94  1  0  0  0
 12 13  2  0  0  0
 12 95  1  0  0  0
 13 14  1  0  0  0
 13 31  1  0  0  0
 14 15  2  0  0  0
 14 96  1  0  0  0
 15 97  1  0  0  0
 16 17  2  0  0  0
 16 21  1  0  0  0
 16 31  1  0  0  0
 17 18  1  0  0  0
 17 98  1  0  0  0
 18 19  2  0  0  0
 18 99  1  0  0  0
 19 20  1  0  0  0
 19 24  1  0  0  0
 20 21  2  0  0  0
 20100  1  0  0  0
 21 23  1  0  0  0
 22 28  1  0  0  0
 22 32  2  0  0  0
 26 27  1  0  0  0
 28101  1  0  0  0
 28102  1  0  0  0
 29103  1  0  0  0
 29104  1  0  0  0
 33 34  1  0  0  0
 33 66  1  0  0  0
 33 70  2  0  0  0
 34 36  1  0  0  0
 34 59  1  0  0  0
 34105  1  0  0  0
 35 44  2  0  0  0
 35 45  1  0  0  0
 35 68  1  0  0  0
 36 56  1  0  0  0
 36106  1  0  0  0
 37 39  1  0  0  0
 37 47  1  0  0  0
 37 66  1  0  0  0
 37107  1  0  0  0
 38 43  2  0  0  0
 38 46  1  0  0  0
 38 47  1  0  0  0
 39 64  1  0  0  0
 39 67  2  0  0  0
 40 52  1  0  0  0
 40 53  2  0  0  0
 40 58  1  0  0  0
 41108  1  0  0  0
 41109  1  0  0  0
 41110  1  0  0  0
 41 48  1  0  0  0
 42 43  1  0  0  0
 42 66  1  0  0  0
 42111  1  0  0  0
 42112  1  0  0  0
 43 44  1  0  0  0
 44113  1  0  0  0
 45 46  2  0  0  0
 45114  1  0  0  0
 46115  1  0  0  0
 47116  1  0  0  0
 47117  1  0  0  0
 48 56  1  0  0  0
 48 65  1  0  0  0
 48118  1  0  0  0
 49 50  1  0  0  0
 49 53  1  0  0  0
 49 64  1  0  0  0
 49119  1  0  0  0
 50 51  1  0  0  0
 50120  1  0  0  0
 50121  1  0  0  0
 51 52  1  0  0  0
 51122  1  0  0  0
 51123  1  0  0  0
 52124  1  0  0  0
 52125  1  0  0  0
 53 54  1  0  0  0
 54 55  2  0  0  0
 54126  1  0  0  0
 55 57  1  0  0  0
 55127  1  0  0  0
 56 69  2  0  0  0
 57 58  2  0  0  0
 57128  1  0  0  0
 58129  1  0  0  0
 59 60  1  0  0  0
 59 61  1  0  0  0
 59 62  1  0  0  0
 60130  1  0  0  0
 60131  1  0  0  0
 60132  1  0  0  0
 61133  1  0  0  0
 61134  1  0  0  0
 61135  1  0  0  0
 62136  1  0  0  0
 62137  1  0  0  0
 62138  1  0  0  0
 63 65  1  0  0  0
 63139  1  0  0  0
 63140  1  0  0  0
 63141  1  0  0  0
 64142  1  0  0  0
 65143  1  0  0  0
 68 83  1  0  0  0
 71 72  2  0  0  0
 71 73  1  0  0  0
 71144  1  0  0  0
 72 75  1  0  0  0
 72145  1  0  0  0
 73 74  2  0  0  0
 73 77  1  0  0  0
 74 76  1  0  0  0
 74 78  1  0  0  0
 75 76  2  0  0  0
 75 83  1  0  0  0
 76 81  1  0  0  0
 77 79  1  0  0  0
 77146  1  0  0  0
 77147  1  0  0  0
 78 80  1  0  0  0
 78148  1  0  0  0
 78149  1  0  0  0
 79 80  1  0  0  0
 79150  1  0  0  0
 79151  1  0  0  0
 80 84  1  0  0  0
 80152  1  0  0  0
 81153  1  0  0  0
 81154  1  0  0  0
 81155  1  0  0  0
 82 84  1  0  0  0
 82156  1  0  0  0
 82157  1  0  0  0
 82158  1  0  0  0
 83159  1  0  0  0
 83160  1  0  0  0
M  ISO  4   1 100  68 101  83 101  84 100
M  END
> <chiral flag>
0

> <version>
0

> <s_m_source_file>
/data/baiqing/PycharmProjects/Reinvent-master-3.2/result/LINK_invent/BTK/process_docking_weight1_custom_sum_contain_oxygen_bond_distance_aromatic_linkinvent_7_9_3/rearranged_h_0168.sdf

> <i_m_source_file_index>
47

> <r_mmod_Potential_Energy-OPLS-2005>
745.430541992188

> <r_mmod_Stretch_Energy-OPLS-2005>
296.432098388672

> <r_mmod_Bend_Energy-OPLS-2005>
281.146453857422

> <r_mmod_Torsional_Energy-OPLS-2005>
276.405212402344

> <r_mmod_Improper_Torsional_Energy-OPLS-2005>
5.98227024078369

> <r_mmod_Van_der_Waal_Energy-OPLS-2005>
148.837265014648

> <r_mmod_Electrostatic_Energy-OPLS-2005>
-284.959045410156

> <r_mmod_Solvation_Energy-OPLS-2005>
-200.893249511719

> <b_mmod_Minimization_Converged-OPLS-2005>
0

> <r_mmod_RMS_Derivative-OPLS-2005>
2.0562002658844

$$$$
47
                    3D
 Structure written by MMmdl.
181191  0  0  1  0            999 V2000
  -30.7122  -14.4046   20.5832 C   0  0  0  0  0  0
  -30.4146  -12.2633   19.4173 C   0  0  0  0  0  0
  -29.4934  -12.4979   18.2027 C   0  0  0  0  0  0
  -28.0099  -12.3805   18.6076 C   0  0  0  0  0  0
  -27.6652  -13.2011   19.8799 C   0  0  2  0  0  0
  -28.7019  -12.9490   20.9994 C   0  0  0  0  0  0
  -25.2606  -13.8160   20.5643 C   0  0  0  0  0  0
  -24.1850  -13.0445   20.9137 C   0  0  0  0  0  0
  -24.6396  -11.6906   20.8705 C   0  0  0  0  0  0
  -23.9056  -10.4297   21.0390 C   0  0  0  0  0  0
  -24.3608   -9.4221   21.9174 C   0  0  0  0  0  0
  -23.6286   -8.2260   22.0760 C   0  0  0  0  0  0
  -22.4274   -8.0287   21.3546 C   0  0  0  0  0  0
  -21.9902   -9.0254   20.4640 C   0  0  0  0  0  0
  -22.7230  -10.2130   20.3036 C   0  0  0  0  0  0
  -21.6850   -6.0733   22.5273 C   0  0  0  0  0  0
  -21.4020   -6.5643   23.8200 C   0  0  0  0  0  0
  -21.3658   -5.6799   24.9163 C   0  0  0  0  0  0
  -21.6044   -4.3061   24.7219 C   0  0  0  0  0  0
  -21.8821   -3.8149   23.4341 C   0  0  0  0  0  0
  -21.9196   -4.6965   22.3394 C   0  0  0  0  0  0
  -22.7884  -13.5246   21.1815 C   0  0  0  0  0  0
  -22.1659   -4.2151   21.0973 F   0  0  0  0  0  0
  -21.5625   -3.4547   25.7736 F   0  0  0  0  0  0
  -30.0394  -13.2339   20.4539 N   0  0  0  0  0  0
  -26.3038  -12.9316   20.3354 N   0  0  0  0  0  0
  -25.9316  -11.6486   20.5742 N   0  0  0  0  0  0
  -22.0521  -12.8225   22.0361 N   0  0  0  0  0  0
  -25.4362  -15.1872   20.4040 N   0  0  0  0  0  0
  -31.8321  -14.6012   20.1051 O   0  0  0  0  0  0
  -21.6642   -6.8882   21.4243 O   0  0  0  0  0  0
  -22.3571  -14.5557   20.6684 O   0  0  0  0  0  0
  -24.6058  -31.8719   23.2118 C   0  0  0  0  0  0
  -25.8978  -32.4829   23.8392 C   0  0  1  0  0  0
  -27.2393  -27.4802   20.1110 C   0  0  0  0  0  0
  -25.5851  -33.8626   24.2322 N   0  0  0  0  0  0
  -23.3897  -30.4927   21.5533 C   0  0  2  0  0  0
  -24.8379  -28.9640   20.1161 C   0  0  0  0  0  0
  -22.7363  -29.4657   22.5038 C   0  0  0  0  0  0
  -18.0242  -28.1358   22.8524 C   0  0  0  0  0  0
  -24.1478  -36.7328   23.2644 C   0  0  0  0  0  0
  -25.9081  -30.8570   21.3533 C   0  0  0  0  0  0
  -25.9897  -29.4913   20.7111 C   0  0  0  0  0  0
  -27.1929  -28.7619   20.7040 C   0  0  0  0  0  0
  -26.0772  -26.9631   19.5017 C   0  0  0  0  0  0
  -24.8736  -27.6969   19.5058 C   0  0  0  0  0  0
  -23.5938  -29.8212   20.1672 C   0  0  0  0  0  0
  -25.4099  -36.3118   24.0342 C   0  0  1  0  0  0
  -20.5829  -28.3630   23.1359 C   0  0  2  0  0  0
  -20.6730  -26.9379   22.5425 C   0  0  0  0  0  0
  -19.5703  -26.6378   21.5224 C   0  0  0  0  0  0
  -18.1880  -26.7902   22.1641 C   0  0  0  0  0  0
  -19.1496  -28.8809   23.2930 C   0  0  0  0  0  0
  -18.9438  -30.1418   23.8934 C   0  0  0  0  0  0
  -17.6448  -30.6579   24.0573 C   0  0  0  0  0  0
  -25.9031  -34.9485   23.5141 C   0  0  0  0  0  0
  -16.5333  -29.9092   23.6332 C   0  0  0  0  0  0
  -16.7235  -28.6500   23.0373 C   0  0  0  0  0  0
  -26.4423  -31.6578   25.0692 C   0  0  0  0  0  0
  -25.3690  -31.3648   26.1428 C   0  0  0  0  0  0
  -27.0252  -30.3030   24.6017 C   0  0  0  0  0  0
  -27.5981  -32.4280   25.7491 C   0  0  0  0  0  0
  -27.5576  -37.1818   24.8468 C   0  0  0  0  0  0
  -21.4096  -29.3010   22.3792 N   0  0  0  0  0  0
  -26.4290  -37.3795   23.9413 N   0  0  0  0  0  0
  -24.6522  -31.0867   22.0990 N   0  0  0  0  0  0
  -23.4172  -28.8220   23.3062 O   0  0  0  0  0  0
  -28.3896  -26.7303   20.0557 O   0  0  0  0  0  0
  -26.5621  -34.8940   22.4721 O   0  0  0  0  0  0
  -23.5270  -32.1451   23.7558 O   0  0  0  0  0  0
  -29.3556  -22.8585   21.9727 C   0  0  0  0  0  0
  -29.4824  -24.0945   21.2905 C   0  0  0  0  0  0
  -29.0122  -25.2710   21.9244 C   0  0  0  0  0  0
  -28.8219  -22.8459   23.2822 C   0  0  0  0  0  0
  -28.4189  -25.1433   23.2036 C   0  0  0  0  0  0
  -29.8087  -21.5707   21.2979 C   0  0  0  0  0  0
  -29.4732  -20.3696   23.4675 C   0  0  0  0  0  0
  -29.6019  -18.9088   19.8638 C   0  0  0  0  0  0
  -29.8069  -17.7822   21.9434 C   0  0  0  0  0  0
  -29.5784  -17.3899   19.6138 C   0  0  2  0  0  0
  -30.2889  -16.8251   20.8492 C   0  0  2  0  0  0
  -29.2761  -20.2777   21.9396 C   0  0  2  0  0  0
  -28.7099  -21.5559   24.1212 C   0  0  0  0  0  0
  -30.1105  -24.1310   19.8984 C   0  0  0  0  0  0
  -27.8116  -26.3225   23.9448 C   0  0  0  0  0  0
  -30.1668  -16.9616   18.2599 C   0  0  0  0  0  0
  -27.2205  -21.1798   24.2848 C   0  0  0  0  0  0
  -29.3309  -21.7708   25.5209 C   0  0  0  0  0  0
  -29.1667  -26.6357   21.2516 C   0  0  0  0  0  0
  -28.3384  -23.9668   23.8587 N   0  0  0  0  0  0
  -29.9895  -15.4131   21.0914 N   0  0  0  0  0  0
  -29.9425  -19.1071   21.2986 N   0  3  2  0  0  0
  -31.4626  -12.3439   19.1226 H   0  0  0  0  0  0
  -30.2896  -11.2475   19.7961 H   0  0  0  0  0  0
  -29.7211  -11.7792   17.4139 H   0  0  0  0  0  0
  -29.6839  -13.4846   17.7798 H   0  0  0  0  0  0
  -27.7927  -11.3252   18.7752 H   0  0  0  0  0  0
  -27.3727  -12.6913   17.7789 H   0  0  0  0  0  0
  -27.7215  -14.2532   19.6019 H   0  0  0  0  0  0
  -28.6590  -11.9082   21.3258 H   0  0  0  0  0  0
  -28.4747  -13.5384   21.8887 H   0  0  0  0  0  0
  -25.2749   -9.5708   22.4749 H   0  0  0  0  0  0
  -23.9987   -7.4666   22.7498 H   0  0  0  0  0  0
  -21.0829   -8.8767   19.8953 H   0  0  0  0  0  0
  -22.3686  -10.9661   19.6138 H   0  0  0  0  0  0
  -21.2021   -7.6152   23.9700 H   0  0  0  0  0  0
  -21.1475   -6.0531   25.9062 H   0  0  0  0  0  0
  -22.0605   -2.7614   23.2839 H   0  0  0  0  0  0
  -22.4137  -11.9852   22.4683 H   0  0  0  0  0  0
  -21.1147  -13.1255   22.2587 H   0  0  0  0  0  0
  -24.6711  -15.8442   20.5059 H   0  0  0  0  0  0
  -26.2821  -15.6169   20.0539 H   0  0  0  0  0  0
  -26.7064  -32.5577   23.1180 H   0  0  0  0  0  0
  -24.9927  -33.9779   25.0411 H   0  0  0  0  0  0
  -22.6740  -31.3060   21.4153 H   0  0  0  0  0  0
  -23.3735  -35.9667   23.3306 H   0  0  0  0  0  0
  -24.3565  -36.8946   22.2057 H   0  0  0  0  0  0
  -23.7234  -37.6538   23.6656 H   0  0  0  0  0  0
  -26.0013  -31.6215   20.5814 H   0  0  0  0  0  0
  -26.8015  -30.9198   21.9624 H   0  0  0  0  0  0
  -28.0789  -29.2029   21.1381 H   0  0  0  0  0  0
  -26.1052  -25.9897   19.0322 H   0  0  0  0  0  0
  -23.9882  -27.2857   19.0397 H   0  0  0  0  0  0
  -23.6864  -30.5936   19.4018 H   0  0  0  0  0  0
  -22.7212  -29.2311   19.8830 H   0  0  0  0  0  0
  -25.1279  -36.1988   25.0837 H   0  0  0  0  0  0
  -20.9895  -28.3163   24.1491 H   0  0  0  0  0  0
  -20.5631  -26.2239   23.3605 H   0  0  0  0  0  0
  -21.6601  -26.7412   22.1222 H   0  0  0  0  0  0
  -19.6866  -25.6302   21.1225 H   0  0  0  0  0  0
  -19.6627  -27.3226   20.6785 H   0  0  0  0  0  0
  -17.4143  -26.6651   21.4051 H   0  0  0  0  0  0
  -18.0286  -26.0018   22.9018 H   0  0  0  0  0  0
  -19.7912  -30.7211   24.2337 H   0  0  0  0  0  0
  -17.5010  -31.6276   24.5150 H   0  0  0  0  0  0
  -15.5342  -30.3028   23.7624 H   0  0  0  0  0  0
  -15.8621  -28.0833   22.7100 H   0  0  0  0  0  0
  -24.5883  -30.6977   25.7748 H   0  0  0  0  0  0
  -24.8852  -32.2788   26.4888 H   0  0  0  0  0  0
  -25.8040  -30.8804   27.0175 H   0  0  0  0  0  0
  -26.2805  -29.6833   24.1000 H   0  0  0  0  0  0
  -27.3977  -29.7205   25.4454 H   0  0  0  0  0  0
  -27.8650  -30.4378   23.9188 H   0  0  0  0  0  0
  -27.2586  -33.3575   26.2081 H   0  0  0  0  0  0
  -28.3816  -32.6833   25.0341 H   0  0  0  0  0  0
  -28.0609  -31.8375   26.5413 H   0  0  0  0  0  0
  -28.2577  -38.0130   24.7540 H   0  0  0  0  0  0
  -28.1084  -36.2660   24.6266 H   0  0  0  0  0  0
  -27.2290  -37.1457   25.8869 H   0  0  0  0  0  0
  -20.9246  -29.8765   21.7055 H   0  0  0  0  0  0
  -26.0186  -38.2878   24.1398 H   0  0  0  0  0  0
  -30.9000  -21.5687   21.3056 H   0  0  0  0  0  0
  -29.4991  -21.5951   20.2528 H   0  0  0  0  0  0
  -30.5419  -20.4900   23.6544 H   0  0  0  0  0  0
  -29.1872  -19.4443   23.9669 H   0  0  0  0  0  0
  -28.6304  -19.3368   19.6096 H   0  0  0  0  0  0
  -30.3472  -19.4108   19.2453 H   0  0  0  0  0  0
  -30.4040  -17.7043   22.8522 H   0  0  0  0  0  0
  -28.7623  -17.5926   22.1996 H   0  0  0  0  0  0
  -28.5337  -17.0721   19.6446 H   0  0  0  0  0  0
  -31.3680  -16.9636   20.7429 H   0  0  0  0  0  0
  -28.2049  -20.1962   21.7481 H   0  0  0  0  0  0
  -31.0152  -23.5243   19.8663 H   0  0  0  0  0  0
  -30.4073  -25.1219   19.5653 H   0  0  0  0  0  0
  -29.4091  -23.7396   19.1610 H   0  0  0  0  0  0
  -27.0710  -26.8241   23.3216 H   0  0  0  0  0  0
  -28.5790  -27.0441   24.2246 H   0  0  0  0  0  0
  -27.3097  -26.0045   24.8588 H   0  0  0  0  0  0
  -31.2190  -17.2341   18.1756 H   0  0  0  0  0  0
  -29.6328  -17.4329   17.4343 H   0  0  0  0  0  0
  -30.0911  -15.8845   18.1151 H   0  0  0  0  0  0
  -26.7306  -21.0424   23.3218 H   0  0  0  0  0  0
  -26.6688  -21.9604   24.8104 H   0  0  0  0  0  0
  -27.0957  -20.2587   24.8543 H   0  0  0  0  0  0
  -30.3796  -22.0599   25.4479 H   0  0  0  0  0  0
  -29.2815  -20.8628   26.1228 H   0  0  0  0  0  0
  -28.8205  -22.5562   26.0790 H   0  0  0  0  0  0
  -30.2137  -26.7762   20.9843 H   0  0  0  0  0  0
  -28.9805  -27.4352   21.9624 H   0  0  0  0  0  0
  -29.0801  -15.1767   21.4588 H   0  0  0  0  0  0
  -30.9340  -19.2968   21.3155 H   0  0  0  0  0  0
  1 25  1  0  0  0
  1 30  2  0  0  0
  1 91  1  0  0  0
  2  3  1  0  0  0
  2 25  1  0  0  0
  2 93  1  0  0  0
  2 94  1  0  0  0
  3  4  1  0  0  0
  3 95  1  0  0  0
  3 96  1  0  0  0
  4  5  1  0  0  0
  4 97  1  0  0  0
  4 98  1  0  0  0
  5  6  1  0  0  0
  5 26  1  0  0  0
  5 99  1  0  0  0
  6 25  1  0  0  0
  6100  1  0  0  0
  6101  1  0  0  0
  7  8  2  0  0  0
  7 26  1  0  0  0
  7 29  1  0  0  0
  8  9  1  0  0  0
  8 22  1  0  0  0
  9 10  1  0  0  0
  9 27  2  0  0  0
 10 11  2  0  0  0
 10 15  1  0  0  0
 11 12  1  0  0  0
 11102  1  0  0  0
 12 13  2  0  0  0
 12103  1  0  0  0
 13 14  1  0  0  0
 13 31  1  0  0  0
 14 15  2  0  0  0
 14104  1  0  0  0
 15105  1  0  0  0
 16 17  2  0  0  0
 16 21  1  0  0  0
 16 31  1  0  0  0
 17 18  1  0  0  0
 17106  1  0  0  0
 18 19  2  0  0  0
 18107  1  0  0  0
 19 20  1  0  0  0
 19 24  1  0  0  0
 20 21  2  0  0  0
 20108  1  0  0  0
 21 23  1  0  0  0
 22 28  1  0  0  0
 22 32  2  0  0  0
 26 27  1  0  0  0
 28109  1  0  0  0
 28110  1  0  0  0
 29111  1  0  0  0
 29112  1  0  0  0
 33 34  1  0  0  0
 33 66  1  0  0  0
 33 70  2  0  0  0
 34 36  1  0  0  0
 34 59  1  0  0  0
 34113  1  0  0  0
 35 44  2  0  0  0
 35 45  1  0  0  0
 35 68  1  0  0  0
 36 56  1  0  0  0
 36114  1  0  0  0
 37 39  1  0  0  0
 37 47  1  0  0  0
 37 66  1  0  0  0
 37115  1  0  0  0
 38 43  2  0  0  0
 38 46  1  0  0  0
 38 47  1  0  0  0
 39 64  1  0  0  0
 39 67  2  0  0  0
 40 52  1  0  0  0
 40 53  2  0  0  0
 40 58  1  0  0  0
 41116  1  0  0  0
 41117  1  0  0  0
 41118  1  0  0  0
 41 48  1  0  0  0
 42 43  1  0  0  0
 42 66  1  0  0  0
 42119  1  0  0  0
 42120  1  0  0  0
 43 44  1  0  0  0
 44121  1  0  0  0
 45 46  2  0  0  0
 45122  1  0  0  0
 46123  1  0  0  0
 47124  1  0  0  0
 47125  1  0  0  0
 48 56  1  0  0  0
 48 65  1  0  0  0
 48126  1  0  0  0
 49 50  1  0  0  0
 49 53  1  0  0  0
 49 64  1  0  0  0
 49127  1  0  0  0
 50 51  1  0  0  0
 50128  1  0  0  0
 50129  1  0  0  0
 51 52  1  0  0  0
 51130  1  0  0  0
 51131  1  0  0  0
 52132  1  0  0  0
 52133  1  0  0  0
 53 54  1  0  0  0
 54 55  2  0  0  0
 54134  1  0  0  0
 55 57  1  0  0  0
 55135  1  0  0  0
 56 69  2  0  0  0
 57 58  2  0  0  0
 57136  1  0  0  0
 58137  1  0  0  0
 59 60  1  0  0  0
 59 61  1  0  0  0
 59 62  1  0  0  0
 60138  1  0  0  0
 60139  1  0  0  0
 60140  1  0  0  0
 61141  1  0  0  0
 61142  1  0  0  0
 61143  1  0  0  0
 62144  1  0  0  0
 62145  1  0  0  0
 62146  1  0  0  0
 63 65  1  0  0  0
 63147  1  0  0  0
 63148  1  0  0  0
 63149  1  0  0  0
 64150  1  0  0  0
 65151  1  0  0  0
 68 89  1  0  0  0
 71 72  2  0  0  0
 71 74  1  0  0  0
 71 76  1  0  0  0
 72 73  1  0  0  0
 72 84  1  0  0  0
 73 75  2  0  0  0
 73 89  1  0  0  0
 74 83  1  0  0  0
 74 90  2  0  0  0
 75 85  1  0  0  0
 75 90  1  0  0  0
 76152  1  0  0  0
 76153  1  0  0  0
 76 82  1  0  0  0
 77 82  1  0  0  0
 77 83  1  0  0  0
 77154  1  0  0  0
 77155  1  0  0  0
 78 80  1  0  0  0
 78156  1  0  0  0
 78157  1  0  0  0
 78 92  1  0  0  0
 79 81  1  0  0  0
 79 92  1  0  0  0
 79158  1  0  0  0
 79159  1  0  0  0
 80 81  1  0  0  0
 80 86  1  0  0  0
 80160  1  0  0  0
 81 91  1  0  0  0
 81161  1  0  0  0
 82 92  1  0  0  0
 82162  1  0  0  0
 83 87  1  0  0  0
 83 88  1  0  0  0
 84163  1  0  0  0
 84164  1  0  0  0
 84165  1  0  0  0
 85166  1  0  0  0
 85167  1  0  0  0
 85168  1  0  0  0
 86169  1  0  0  0
 86170  1  0  0  0
 86171  1  0  0  0
 87172  1  0  0  0
 87173  1  0  0  0
 87174  1  0  0  0
 88175  1  0  0  0
 88176  1  0  0  0
 88177  1  0  0  0
 89178  1  0  0  0
 89179  1  0  0  0
 91180  1  0  0  0
 92181  1  0  0  0
M  CHG  1  92   1
M  ISO  4   1 100  68 101  89 101  91 100
M  END
> <chiral flag>
0

> <version>
0

> <s_m_source_file>
/data/baiqing/PycharmProjects/Reinvent-master-3.2/result/LINK_invent/BTK/process_docking_weight1_custom_sum_contain_oxygen_bond_distance_aromatic_linkinvent_7_9_3/rearranged_h_0168.sdf

> <i_m_source_file_index>
48

> <r_mmod_Potential_Energy-OPLS-2005>
-278.240051269531

> <r_mmod_Stretch_Energy-OPLS-2005>
36.7610015869141

> <r_mmod_Bend_Energy-OPLS-2005>
140.371154785156

> <r_mmod_Torsional_Energy-OPLS-2005>
285.500518798828

> <r_mmod_Improper_Torsional_Energy-OPLS-2005>
5.31599283218384

> <r_mmod_Van_der_Waal_Energy-OPLS-2005>
164.351196289062

> <r_mmod_Electrostatic_Energy-OPLS-2005>
-457.421600341797

> <r_mmod_Solvation_Energy-OPLS-2005>
-460.838653564453

> <b_mmod_Minimization_Converged-OPLS-2005>
0

> <r_mmod_RMS_Derivative-OPLS-2005>
1.89707767963409

$$$$
48
                    3D
 Structure written by MMmdl.
178188  0  0  1  0            999 V2000
  -30.7314  -14.4572   20.5650 C   0  0  0  0  0  0
  -30.4042  -12.3043   19.4136 C   0  0  0  0  0  0
  -29.4728  -12.4878   18.1967 C   0  0  0  0  0  0
  -27.9943  -12.3628   18.6116 C   0  0  0  0  0  0
  -27.6474  -13.2035   19.8714 C   0  0  2  0  0  0
  -28.6962  -13.0195   20.9896 C   0  0  0  0  0  0
  -25.2527  -13.8138   20.5676 C   0  0  0  0  0  0
  -24.1796  -13.0426   20.9187 C   0  0  0  0  0  0
  -24.6342  -11.6890   20.8741 C   0  0  0  0  0  0
  -23.9032  -10.4291   21.0396 C   0  0  0  0  0  0
  -24.3600   -9.4212   21.9165 C   0  0  0  0  0  0
  -23.6286   -8.2244   22.0728 C   0  0  0  0  0  0
  -22.4266   -8.0282   21.3535 C   0  0  0  0  0  0
  -21.9911   -9.0253   20.4623 C   0  0  0  0  0  0
  -22.7209  -10.2141   20.3041 C   0  0  0  0  0  0
  -21.6851   -6.0764   22.5301 C   0  0  0  0  0  0
  -21.3998   -6.5673   23.8231 C   0  0  0  0  0  0
  -21.3656   -5.6810   24.9202 C   0  0  0  0  0  0
  -21.6067   -4.3074   24.7259 C   0  0  0  0  0  0
  -21.8805   -3.8177   23.4359 C   0  0  0  0  0  0
  -21.9174   -4.6984   22.3408 C   0  0  0  0  0  0
  -22.7799  -13.5186   21.1862 C   0  0  0  0  0  0
  -22.1616   -4.2179   21.0966 F   0  0  0  0  0  0
  -21.5662   -3.4533   25.7763 F   0  0  0  0  0  0
  -30.0211  -13.3040   20.4200 N   0  0  0  0  0  0
  -26.2946  -12.9297   20.3412 N   0  0  0  0  0  0
  -25.9277  -11.6468   20.5855 N   0  0  0  0  0  0
  -22.0454  -12.8173   22.0398 N   0  0  0  0  0  0
  -25.4299  -15.1849   20.4020 N   0  0  0  0  0  0
  -31.8836  -14.5854   20.1397 O   0  0  0  0  0  0
  -21.6620   -6.8887   21.4253 O   0  0  0  0  0  0
  -22.3477  -14.5490   20.6708 O   0  0  0  0  0  0
  -24.6153  -31.8666   23.2070 C   0  0  0  0  0  0
  -25.9031  -32.4815   23.8389 C   0  0  1  0  0  0
  -27.2548  -27.4359   20.0898 C   0  0  0  0  0  0
  -25.5887  -33.8617   24.2329 N   0  0  0  0  0  0
  -23.4055  -30.4845   21.5485 C   0  0  2  0  0  0
  -24.8555  -28.9443   20.1184 C   0  0  0  0  0  0
  -22.7428  -29.4638   22.4998 C   0  0  0  0  0  0
  -18.0263  -28.1381   22.8486 C   0  0  0  0  0  0
  -24.1485  -36.7323   23.2641 C   0  0  0  0  0  0
  -25.9310  -30.8311   21.3585 C   0  0  0  0  0  0
  -26.0110  -29.4617   20.7138 C   0  0  0  0  0  0
  -27.2080  -28.7120   20.7019 C   0  0  0  0  0  0
  -26.0729  -26.9265   19.5031 C   0  0  0  0  0  0
  -24.8797  -27.6755   19.5151 C   0  0  0  0  0  0
  -23.6165  -29.8095   20.1650 C   0  0  0  0  0  0
  -25.4102  -36.3116   24.0344 C   0  0  1  0  0  0
  -20.5862  -28.3675   23.1320 C   0  0  2  0  0  0
  -20.6759  -26.9407   22.5430 C   0  0  0  0  0  0
  -19.5743  -26.6388   21.5218 C   0  0  0  0  0  0
  -18.1913  -26.7932   22.1608 C   0  0  0  0  0  0
  -19.1514  -28.8839   23.2896 C   0  0  0  0  0  0
  -18.9444  -30.1441   23.8917 C   0  0  0  0  0  0
  -17.6449  -30.6586   24.0570 C   0  0  0  0  0  0
  -25.9026  -34.9478   23.5138 C   0  0  0  0  0  0
  -16.5342  -29.9096   23.6317 C   0  0  0  0  0  0
  -16.7255  -28.6511   23.0346 C   0  0  0  0  0  0
  -26.4475  -31.6588   25.0711 C   0  0  0  0  0  0
  -25.3752  -31.3697   26.1471 C   0  0  0  0  0  0
  -27.0307  -30.3033   24.6072 C   0  0  0  0  0  0
  -27.6060  -32.4312   25.7464 C   0  0  0  0  0  0
  -27.5583  -37.1809   24.8461 C   0  0  0  0  0  0
  -21.4153  -29.3032   22.3734 N   0  0  0  0  0  0
  -26.4286  -37.3796   23.9420 N   0  0  0  0  0  0
  -24.6690  -31.0768   22.0970 N   0  0  0  0  0  0
  -23.4187  -28.8191   23.3062 O   0  0  0  0  0  0
  -28.4563  -26.7481   20.1090 O   0  0  0  0  0  0
  -26.5600  -34.8929   22.4706 O   0  0  0  0  0  0
  -23.5350  -32.1407   23.7473 O   0  0  0  0  0  0
  -28.0532  -22.4753   22.4204 C   0  0  0  0  0  0
  -27.5083  -21.3565   23.0595 C   0  0  0  0  0  0
  -29.0139  -22.3387   21.4063 C   0  0  0  0  0  0
  -28.9695  -19.8659   21.7695 C   0  0  0  0  0  0
  -29.4602  -21.0234   21.0653 C   0  0  0  0  0  0
  -27.9373  -20.0520   22.7370 C   0  0  0  0  0  0
  -30.9931  -23.8850   20.6141 C   0  0  0  0  0  0
  -30.2363  -24.5870   21.7062 C   0  0  0  0  0  0
  -29.9604  -17.5325   22.6293 C   0  0  0  0  0  0
  -28.7177  -17.6097   20.4793 C   0  0  0  0  0  0
  -30.7251  -16.2793   22.1298 C   0  0  0  0  0  0
  -29.5781  -16.4411   19.9545 C   0  0  0  0  0  0
  -29.5553  -18.4524   21.4513 C   0  0  0  0  0  0
  -29.4964  -23.6448   20.7727 C   0  0  0  0  0  0
  -30.4566  -20.8597   19.9183 C   0  0  0  0  0  0
  -28.1599  -23.2608   18.6245 C   0  0  0  0  0  0
  -26.0846  -19.0846   24.1179 C   0  0  0  0  0  0
  -28.6933  -25.6502   19.2145 C   0  0  0  0  0  0
  -28.4294  -24.2240   19.7972 C   0  0  2  0  0  0
  -30.0631  -15.5433   21.0273 N   0  0  0  0  0  0
  -27.3303  -18.9559   23.3693 N   0  0  0  0  0  0
  -31.4449  -12.4003   19.0999 H   0  0  0  0  0  0
  -30.3073  -11.2988   19.8253 H   0  0  0  0  0  0
  -29.6991  -11.7445   17.4323 H   0  0  0  0  0  0
  -29.6465  -13.4622   17.7354 H   0  0  0  0  0  0
  -27.7829  -11.3097   18.7932 H   0  0  0  0  0  0
  -27.3502  -12.6558   17.7801 H   0  0  0  0  0  0
  -27.6677  -14.2416   19.5599 H   0  0  0  0  0  0
  -28.6668  -11.9983   21.3690 H   0  0  0  0  0  0
  -28.4660  -13.6619   21.8448 H   0  0  0  0  0  0
  -25.2754   -9.5723   22.4729 H   0  0  0  0  0  0
  -24.0036   -7.4639   22.7412 H   0  0  0  0  0  0
  -21.0875   -8.8778   19.8899 H   0  0  0  0  0  0
  -22.3670  -10.9702   19.6163 H   0  0  0  0  0  0
  -21.1959   -7.6183   23.9770 H   0  0  0  0  0  0
  -21.1474   -6.0526   25.9106 H   0  0  0  0  0  0
  -22.0575   -2.7641   23.2859 H   0  0  0  0  0  0
  -22.4070  -11.9852   22.4831 H   0  0  0  0  0  0
  -21.1069  -13.1191   22.2620 H   0  0  0  0  0  0
  -24.6713  -15.8506   20.4970 H   0  0  0  0  0  0
  -26.3021  -15.6081   20.1111 H   0  0  0  0  0  0
  -26.7103  -32.5551   23.1163 H   0  0  0  0  0  0
  -25.0045  -33.9766   25.0483 H   0  0  0  0  0  0
  -22.6941  -31.3003   21.4030 H   0  0  0  0  0  0
  -23.3739  -35.9658   23.3290 H   0  0  0  0  0  0
  -24.3581  -36.8952   22.2056 H   0  0  0  0  0  0
  -23.7225  -37.6523   23.6659 H   0  0  0  0  0  0
  -26.0337  -31.5900   20.5822 H   0  0  0  0  0  0
  -26.8227  -30.8976   21.9696 H   0  0  0  0  0  0
  -28.1045  -29.1133   21.1546 H   0  0  0  0  0  0
  -26.0545  -25.9496   19.0436 H   0  0  0  0  0  0
  -23.9894  -27.2667   19.0608 H   0  0  0  0  0  0
  -23.7288  -30.5803   19.4009 H   0  0  0  0  0  0
  -22.7418  -29.2263   19.8702 H   0  0  0  0  0  0
  -25.1270  -36.1990   25.0834 H   0  0  0  0  0  0
  -20.9930  -28.3234   24.1448 H   0  0  0  0  0  0
  -20.5665  -26.2282   23.3620 H   0  0  0  0  0  0
  -21.6634  -26.7448   22.1228 H   0  0  0  0  0  0
  -19.6915  -25.6305   21.1234 H   0  0  0  0  0  0
  -19.6687  -27.3211   20.6764 H   0  0  0  0  0  0
  -17.4201  -26.6695   21.3993 H   0  0  0  0  0  0
  -18.0283  -26.0063   22.8984 H   0  0  0  0  0  0
  -19.7924  -30.7242   24.2309 H   0  0  0  0  0  0
  -17.5012  -31.6264   24.5178 H   0  0  0  0  0  0
  -15.5354  -30.3011   23.7631 H   0  0  0  0  0  0
  -15.8653  -28.0846   22.7053 H   0  0  0  0  0  0
  -24.5910  -30.7054   25.7814 H   0  0  0  0  0  0
  -24.8964  -32.2860   26.4944 H   0  0  0  0  0  0
  -25.8122  -30.8849   27.0210 H   0  0  0  0  0  0
  -26.2834  -29.6771   24.1174 H   0  0  0  0  0  0
  -27.4138  -29.7293   25.4523 H   0  0  0  0  0  0
  -27.8648  -30.4361   23.9168 H   0  0  0  0  0  0
  -27.2671  -33.3589   26.2093 H   0  0  0  0  0  0
  -28.3835  -32.6908   25.0260 H   0  0  0  0  0  0
  -28.0764  -31.8400   26.5334 H   0  0  0  0  0  0
  -28.2606  -38.0105   24.7518 H   0  0  0  0  0  0
  -28.1079  -36.2641   24.6267 H   0  0  0  0  0  0
  -27.2315  -37.1441   25.8868 H   0  0  0  0  0  0
  -20.9334  -29.8757   21.6945 H   0  0  0  0  0  0
  -26.0186  -38.2878   24.1421 H   0  0  0  0  0  0
  -27.7059  -23.4589   22.6981 H   0  0  0  0  0  0
  -26.7467  -21.5366   23.8035 H   0  0  0  0  0  0
  -31.6920  -23.1230   20.9477 H   0  0  0  0  0  0
  -31.3549  -24.5060   19.7987 H   0  0  0  0  0  0
  -30.1367  -25.6627   21.5890 H   0  0  0  0  0  0
  -30.4121  -24.2526   22.7278 H   0  0  0  0  0  0
  -30.5970  -18.0777   23.3278 H   0  0  0  0  0  0
  -29.1021  -17.1896   23.2028 H   0  0  0  0  0  0
  -27.8128  -17.2366   20.9635 H   0  0  0  0  0  0
  -28.3933  -18.2160   19.6333 H   0  0  0  0  0  0
  -30.8739  -15.5967   22.9684 H   0  0  0  0  0  0
  -31.7227  -16.5891   21.8118 H   0  0  0  0  0  0
  -30.4392  -16.8440   19.4127 H   0  0  0  0  0  0
  -29.0111  -15.8894   19.2052 H   0  0  0  0  0  0
  -30.5109  -18.6263   20.9648 H   0  0  0  0  0  0
  -30.4524  -21.7014   19.2324 H   0  0  0  0  0  0
  -30.2264  -19.9954   19.2960 H   0  0  0  0  0  0
  -31.4696  -20.7512   20.3038 H   0  0  0  0  0  0
  -27.8654  -22.2699   18.9692 H   0  0  0  0  0  0
  -29.0426  -23.1473   17.9950 H   0  0  0  0  0  0
  -27.3504  -23.6270   17.9928 H   0  0  0  0  0  0
  -25.5771  -18.1183   24.1648 H   0  0  0  0  0  0
  -25.3954  -19.7916   23.6537 H   0  0  0  0  0  0
  -26.2875  -19.4090   25.1399 H   0  0  0  0  0  0
  -28.1148  -25.8002   18.3017 H   0  0  0  0  0  0
  -29.7229  -25.7233   18.8722 H   0  0  0  0  0  0
  -27.4992  -24.2983   20.3581 H   0  0  0  0  0  0
  -27.6328  -18.0250   23.1010 H   0  0  0  0  0  0
  1 25  1  0  0  0
  1 30  2  0  0  0
  1 90  1  0  0  0
  2  3  1  0  0  0
  2 25  1  0  0  0
  2 92  1  0  0  0
  2 93  1  0  0  0
  3  4  1  0  0  0
  3 94  1  0  0  0
  3 95  1  0  0  0
  4  5  1  0  0  0
  4 96  1  0  0  0
  4 97  1  0  0  0
  5  6  1  0  0  0
  5 26  1  0  0  0
  5 98  1  0  0  0
  6 25  1  0  0  0
  6 99  1  0  0  0
  6100  1  0  0  0
  7  8  2  0  0  0
  7 26  1  0  0  0
  7 29  1  0  0  0
  8  9  1  0  0  0
  8 22  1  0  0  0
  9 10  1  0  0  0
  9 27  2  0  0  0
 10 11  2  0  0  0
 10 15  1  0  0  0
 11 12  1  0  0  0
 11101  1  0  0  0
 12 13  2  0  0  0
 12102  1  0  0  0
 13 14  1  0  0  0
 13 31  1  0  0  0
 14 15  2  0  0  0
 14103  1  0  0  0
 15104  1  0  0  0
 16 17  2  0  0  0
 16 21  1  0  0  0
 16 31  1  0  0  0
 17 18  1  0  0  0
 17105  1  0  0  0
 18 19  2  0  0  0
 18106  1  0  0  0
 19 20  1  0  0  0
 19 24  1  0  0  0
 20 21  2  0  0  0
 20107  1  0  0  0
 21 23  1  0  0  0
 22 28  1  0  0  0
 22 32  2  0  0  0
 26 27  1  0  0  0
 28108  1  0  0  0
 28109  1  0  0  0
 29110  1  0  0  0
 29111  1  0  0  0
 33 34  1  0  0  0
 33 66  1  0  0  0
 33 70  2  0  0  0
 34 36  1  0  0  0
 34 59  1  0  0  0
 34112  1  0  0  0
 35 44  2  0  0  0
 35 45  1  0  0  0
 35 68  1  0  0  0
 36 56  1  0  0  0
 36113  1  0  0  0
 37 39  1  0  0  0
 37 47  1  0  0  0
 37 66  1  0  0  0
 37114  1  0  0  0
 38 43  2  0  0  0
 38 46  1  0  0  0
 38 47  1  0  0  0
 39 64  1  0  0  0
 39 67  2  0  0  0
 40 52  1  0  0  0
 40 53  2  0  0  0
 40 58  1  0  0  0
 41115  1  0  0  0
 41116  1  0  0  0
 41117  1  0  0  0
 41 48  1  0  0  0
 42 43  1  0  0  0
 42 66  1  0  0  0
 42118  1  0  0  0
 42119  1  0  0  0
 43 44  1  0  0  0
 44120  1  0  0  0
 45 46  2  0  0  0
 45121  1  0  0  0
 46122  1  0  0  0
 47123  1  0  0  0
 47124  1  0  0  0
 48 56  1  0  0  0
 48 65  1  0  0  0
 48125  1  0  0  0
 49 50  1  0  0  0
 49 53  1  0  0  0
 49 64  1  0  0  0
 49126  1  0  0  0
 50 51  1  0  0  0
 50127  1  0  0  0
 50128  1  0  0  0
 51 52  1  0  0  0
 51129  1  0  0  0
 51130  1  0  0  0
 52131  1  0  0  0
 52132  1  0  0  0
 53 54  1  0  0  0
 54 55  2  0  0  0
 54133  1  0  0  0
 55 57  1  0  0  0
 55134  1  0  0  0
 56 69  2  0  0  0
 57 58  2  0  0  0
 57135  1  0  0  0
 58136  1  0  0  0
 59 60  1  0  0  0
 59 61  1  0  0  0
 59 62  1  0  0  0
 60137  1  0  0  0
 60138  1  0  0  0
 60139  1  0  0  0
 61140  1  0  0  0
 61141  1  0  0  0
 61142  1  0  0  0
 62143  1  0  0  0
 62144  1  0  0  0
 62145  1  0  0  0
 63 65  1  0  0  0
 63146  1  0  0  0
 63147  1  0  0  0
 63148  1  0  0  0
 64149  1  0  0  0
 65150  1  0  0  0
 68 88  1  0  0  0
 71 72  2  0  0  0
 71 73  1  0  0  0
 71151  1  0  0  0
 72 76  1  0  0  0
 72152  1  0  0  0
 73 75  2  0  0  0
 73 84  1  0  0  0
 74 75  1  0  0  0
 74 76  2  0  0  0
 74 83  1  0  0  0
 75 85  1  0  0  0
 76 91  1  0  0  0
 77 78  1  0  0  0
 77 84  1  0  0  0
 77153  1  0  0  0
 77154  1  0  0  0
 78 84  1  0  0  0
 78155  1  0  0  0
 78156  1  0  0  0
 79 81  1  0  0  0
 79 83  1  0  0  0
 79157  1  0  0  0
 79158  1  0  0  0
 80 82  1  0  0  0
 80 83  1  0  0  0
 80159  1  0  0  0
 80160  1  0  0  0
 81 90  1  0  0  0
 81161  1  0  0  0
 81162  1  0  0  0
 82 90  1  0  0  0
 82163  1  0  0  0
 82164  1  0  0  0
 83165  1  0  0  0
 84 89  1  0  0  0
 85166  1  0  0  0
 85167  1  0  0  0
 85168  1  0  0  0
 86169  1  0  0  0
 86170  1  0  0  0
 86171  1  0  0  0
 86 89  1  0  0  0
 87 91  1  0  0  0
 87172  1  0  0  0
 87173  1  0  0  0
 87174  1  0  0  0
 88 89  1  0  0  0
 88175  1  0  0  0
 88176  1  0  0  0
 89177  1  0  0  0
 91178  1  0  0  0
M  ISO  4   1 100  68 101  88 101  90 100
M  END
> <chiral flag>
0

> <version>
0

> <s_m_source_file>
/data/baiqing/PycharmProjects/Reinvent-master-3.2/result/LINK_invent/BTK/process_docking_weight1_custom_sum_contain_oxygen_bond_distance_aromatic_linkinvent_7_9_3/rearranged_h_0168.sdf

> <i_m_source_file_index>
49

> <r_mmod_Potential_Energy-OPLS-2005>
277.349609375

> <r_mmod_Stretch_Energy-OPLS-2005>
53.7284698486328

> <r_mmod_Bend_Energy-OPLS-2005>
149.223709106445

> <r_mmod_Torsional_Energy-OPLS-2005>
365.618072509766

> <r_mmod_Improper_Torsional_Energy-OPLS-2005>
8.99957370758057

> <r_mmod_Van_der_Waal_Energy-OPLS-2005>
170.285140991211

> <r_mmod_Electrostatic_Energy-OPLS-2005>
-294.301849365234

> <r_mmod_Solvation_Energy-OPLS-2005>
-191.326782226562

> <b_mmod_Minimization_Converged-OPLS-2005>
0

> <r_mmod_RMS_Derivative-OPLS-2005>
4.1311821937561

$$$$
49
                    3D
 Structure written by MMmdl.
160169  0  0  1  0            999 V2000
  -30.5832  -14.9540   20.4361 C   0  0  0  0  0  0
  -30.4239  -12.5995   19.5016 C   0  0  0  0  0  0
  -29.5139  -12.5267   18.2562 C   0  0  0  0  0  0
  -28.0490  -12.3148   18.6776 C   0  0  0  0  0  0
  -27.6224  -13.2573   19.8343 C   0  0  2  0  0  0
  -28.6639  -13.3190   20.9706 C   0  0  0  0  0  0
  -25.2431  -13.8241   20.5736 C   0  0  0  0  0  0
  -24.1758  -13.0448   20.9240 C   0  0  0  0  0  0
  -24.6386  -11.6942   20.8760 C   0  0  0  0  0  0
  -23.9079  -10.4300   21.0406 C   0  0  0  0  0  0
  -24.3628   -9.4215   21.9184 C   0  0  0  0  0  0
  -23.6302   -8.2250   22.0754 C   0  0  0  0  0  0
  -22.4282   -8.0283   21.3543 C   0  0  0  0  0  0
  -21.9923   -9.0257   20.4645 C   0  0  0  0  0  0
  -22.7253  -10.2138   20.3056 C   0  0  0  0  0  0
  -21.6855   -6.0739   22.5279 C   0  0  0  0  0  0
  -21.4017   -6.5641   23.8211 C   0  0  0  0  0  0
  -21.3656   -5.6793   24.9172 C   0  0  0  0  0  0
  -21.6045   -4.3057   24.7223 C   0  0  0  0  0  0
  -21.8818   -3.8149   23.4343 C   0  0  0  0  0  0
  -21.9195   -4.6967   22.3403 C   0  0  0  0  0  0
  -22.7775  -13.5210   21.1891 C   0  0  0  0  0  0
  -22.1663   -4.2155   21.0980 F   0  0  0  0  0  0
  -21.5627   -3.4542   25.7732 F   0  0  0  0  0  0
  -29.9311  -13.7231   20.3547 N   0  0  0  0  0  0
  -26.2855  -12.9491   20.3258 N   0  0  0  0  0  0
  -25.9322  -11.6608   20.5755 N   0  0  0  0  0  0
  -22.0429  -12.8189   22.0439 N   0  0  0  0  0  0
  -25.4106  -15.1968   20.4157 N   0  0  0  0  0  0
  -31.7929  -14.9353   20.1838 O   0  0  0  0  0  0
  -21.6643   -6.8882   21.4238 O   0  0  0  0  0  0
  -22.3455  -14.5512   20.6735 O   0  0  0  0  0  0
  -24.6467  -31.8433   23.1892 C   0  0  0  0  0  0
  -25.9235  -32.4687   23.8278 C   0  0  1  0  0  0
  -27.2003  -27.1069   20.1502 C   0  0  0  0  0  0
  -25.5974  -33.8496   24.2193 N   0  0  0  0  0  0
  -23.4505  -30.4657   21.5366 C   0  0  2  0  0  0
  -24.8978  -28.8992   20.1049 C   0  0  0  0  0  0
  -22.7594  -29.4538   22.4856 C   0  0  0  0  0  0
  -18.0311  -28.1404   22.8478 C   0  0  0  0  0  0
  -24.1488  -36.7238   23.2642 C   0  0  0  0  0  0
  -26.0100  -30.7071   21.3937 C   0  0  0  0  0  0
  -26.0776  -29.3179   20.7330 C   0  0  0  0  0  0
  -27.2294  -28.4376   20.7437 C   0  0  0  0  0  0
  -26.0011  -26.8184   19.4561 C   0  0  0  0  0  0
  -24.8752  -27.6641   19.4484 C   0  0  0  0  0  0
  -23.6765  -29.8034   20.1529 C   0  0  0  0  0  0
  -25.4124  -36.3023   24.0313 C   0  0  1  0  0  0
  -20.5926  -28.3727   23.1233 C   0  0  2  0  0  0
  -20.6790  -26.9430   22.5399 C   0  0  0  0  0  0
  -19.5760  -26.6383   21.5212 C   0  0  0  0  0  0
  -18.1942  -26.7943   22.1624 C   0  0  0  0  0  0
  -19.1570  -28.8888   23.2842 C   0  0  0  0  0  0
  -18.9482  -30.1479   23.8871 C   0  0  0  0  0  0
  -17.6480  -30.6595   24.0560 C   0  0  0  0  0  0
  -25.9081  -34.9404   23.5059 C   0  0  0  0  0  0
  -16.5370  -29.9087   23.6344 C   0  0  0  0  0  0
  -16.7293  -28.6507   23.0360 C   0  0  0  0  0  0
  -26.4549  -31.6562   25.0726 C   0  0  0  0  0  0
  -25.3722  -31.3750   26.1409 C   0  0  0  0  0  0
  -27.0409  -30.2959   24.6311 C   0  0  0  0  0  0
  -27.6083  -32.4324   25.7508 C   0  0  0  0  0  0
  -27.5569  -37.1779   24.8470 C   0  0  0  0  0  0
  -21.4285  -29.3045   22.3604 N   0  0  0  0  0  0
  -26.4280  -37.3742   23.9412 N   0  0  0  0  0  0
  -24.7225  -31.0268   22.0942 N   0  0  0  0  0  0
  -23.4222  -28.8077   23.3007 O   0  0  0  0  0  0
  -28.2025  -26.0593   20.2551 O   0  0  0  0  0  0
  -26.5661  -34.8903   22.4633 O   0  0  0  0  0  0
  -23.5579  -32.1317   23.7106 O   0  0  0  0  0  0
  -27.5973  -22.0172   20.7336 C   0  0  0  0  0  0
  -29.2200  -20.0570   20.4830 C   0  0  0  0  0  0
  -27.9403  -20.6076   20.8405 C   0  0  0  0  0  0
  -28.4489  -23.0859   20.2852 C   0  0  0  0  0  0
  -30.1086  -21.1227   20.0500 C   0  0  0  0  0  0
  -29.7475  -22.5542   19.9483 C   0  0  0  0  0  0
  -28.9266  -17.0869   21.0570 C   0  0  0  0  0  0
  -30.3574  -17.4745   19.5947 C   0  0  0  0  0  0
  -29.6715  -18.4443   20.6373 C   0  0  0  0  0  0
  -26.8602  -19.6732   21.3552 C   0  0  0  0  0  0
  -31.5179  -20.6743   19.6763 C   0  0  0  0  0  0
  -30.7750  -23.5534   19.4343 C   0  0  0  0  0  0
  -27.7851  -24.5820   19.9500 C   0  0  0  0  0  0
  -29.9111  -16.2147   20.3056 N   0  0  0  0  0  0
  -31.4603  -12.7356   19.1888 H   0  0  0  0  0  0
  -30.4044  -11.6581   20.0531 H   0  0  0  0  0  0
  -29.8355  -11.7209   17.5957 H   0  0  0  0  0  0
  -29.6021  -13.4506   17.6820 H   0  0  0  0  0  0
  -27.9484  -11.2768   18.9949 H   0  0  0  0  0  0
  -27.3845  -12.4369   17.8216 H   0  0  0  0  0  0
  -27.5771  -14.2543   19.3940 H   0  0  0  0  0  0
  -28.7566  -12.3592   21.4801 H   0  0  0  0  0  0
  -28.3643  -14.0483   21.7248 H   0  0  0  0  0  0
  -25.2771   -9.5691   22.4765 H   0  0  0  0  0  0
  -24.0007   -7.4640   22.7477 H   0  0  0  0  0  0
  -21.0854   -8.8778   19.8948 H   0  0  0  0  0  0
  -22.3710  -10.9677   19.6166 H   0  0  0  0  0  0
  -21.2007   -7.6147   23.9716 H   0  0  0  0  0  0
  -21.1479   -6.0521   25.9074 H   0  0  0  0  0  0
  -22.0600   -2.7611   23.2842 H   0  0  0  0  0  0
  -22.4053  -11.9854   22.4821 H   0  0  0  0  0  0
  -21.1040  -13.1195   22.2643 H   0  0  0  0  0  0
  -24.6425  -15.8500   20.5227 H   0  0  0  0  0  0
  -26.2599  -15.6306   20.0784 H   0  0  0  0  0  0
  -26.7296  -32.5292   23.0998 H   0  0  0  0  0  0
  -25.0110  -33.9614   25.0337 H   0  0  0  0  0  0
  -22.7537  -31.2924   21.3857 H   0  0  0  0  0  0
  -23.3754  -35.9563   23.3305 H   0  0  0  0  0  0
  -24.3565  -36.8870   22.2053 H   0  0  0  0  0  0
  -23.7240  -37.6436   23.6677 H   0  0  0  0  0  0
  -26.1684  -31.4600   20.6198 H   0  0  0  0  0  0
  -26.8806  -30.7584   22.0355 H   0  0  0  0  0  0
  -28.1200  -28.7478   21.2714 H   0  0  0  0  0  0
  -25.8743  -25.8872   18.9274 H   0  0  0  0  0  0
  -23.9807  -27.3454   18.9308 H   0  0  0  0  0  0
  -23.8141  -30.5820   19.4017 H   0  0  0  0  0  0
  -22.7903  -29.2477   19.8402 H   0  0  0  0  0  0
  -25.1309  -36.1842   25.0805 H   0  0  0  0  0  0
  -21.0014  -28.3310   24.1353 H   0  0  0  0  0  0
  -20.5688  -26.2339   23.3617 H   0  0  0  0  0  0
  -21.6655  -26.7431   22.1191 H   0  0  0  0  0  0
  -19.6921  -25.6289   21.1249 H   0  0  0  0  0  0
  -19.6698  -27.3188   20.6736 H   0  0  0  0  0  0
  -17.4210  -26.6693   21.4023 H   0  0  0  0  0  0
  -18.0335  -26.0089   22.9025 H   0  0  0  0  0  0
  -19.7956  -30.7300   24.2226 H   0  0  0  0  0  0
  -17.5028  -31.6273   24.5163 H   0  0  0  0  0  0
  -15.5369  -30.2973   23.7689 H   0  0  0  0  0  0
  -15.8693  -28.0813   22.7096 H   0  0  0  0  0  0
  -24.5940  -30.7055   25.7728 H   0  0  0  0  0  0
  -24.8859  -32.2920   26.4748 H   0  0  0  0  0  0
  -25.7991  -30.8992   27.0246 H   0  0  0  0  0  0
  -26.3026  -29.6682   24.1304 H   0  0  0  0  0  0
  -27.4013  -29.7261   25.4886 H   0  0  0  0  0  0
  -27.8942  -30.4201   23.9638 H   0  0  0  0  0  0
  -27.2707  -33.3676   26.1989 H   0  0  0  0  0  0
  -28.3944  -32.6796   25.0360 H   0  0  0  0  0  0
  -28.0688  -31.8502   26.5501 H   0  0  0  0  0  0
  -28.2583  -38.0079   24.7513 H   0  0  0  0  0  0
  -28.1068  -36.2608   24.6300 H   0  0  0  0  0  0
  -27.2285  -37.1431   25.8874 H   0  0  0  0  0  0
  -20.9503  -29.8755   21.6776 H   0  0  0  0  0  0
  -26.0140  -38.2804   24.1429 H   0  0  0  0  0  0
  -26.5805  -22.2899   20.9801 H   0  0  0  0  0  0
  -27.9186  -17.0128   20.6487 H   0  0  0  0  0  0
  -28.9035  -16.9240   22.1351 H   0  0  0  0  0  0
  -31.4383  -17.6055   19.5379 H   0  0  0  0  0  0
  -29.9219  -17.5660   18.5985 H   0  0  0  0  0  0
  -30.4172  -18.5588   21.4267 H   0  0  0  0  0  0
  -25.9772  -20.2178   21.6922 H   0  0  0  0  0  0
  -27.2225  -19.0907   22.2023 H   0  0  0  0  0  0
  -26.5446  -18.9903   20.5668 H   0  0  0  0  0  0
  -31.9949  -20.1910   20.5292 H   0  0  0  0  0  0
  -32.1864  -21.4674   19.3519 H   0  0  0  0  0  0
  -31.4745  -19.9542   18.8601 H   0  0  0  0  0  0
  -30.4018  -24.5764   19.4426 H   0  0  0  0  0  0
  -31.0629  -23.3189   18.4096 H   0  0  0  0  0  0
  -31.6680  -23.5427   20.0587 H   0  0  0  0  0  0
  -26.7879  -24.4861   20.3795 H   0  0  0  0  0  0
  -27.6385  -24.5487   18.8696 H   0  0  0  0  0  0
  1 25  1  0  0  0
  1 30  2  0  0  0
  1 84  1  0  0  0
  2  3  1  0  0  0
  2 25  1  0  0  0
  2 85  1  0  0  0
  2 86  1  0  0  0
  3  4  1  0  0  0
  3 87  1  0  0  0
  3 88  1  0  0  0
  4  5  1  0  0  0
  4 89  1  0  0  0
  4 90  1  0  0  0
  5  6  1  0  0  0
  5 26  1  0  0  0
  5 91  1  0  0  0
  6 25  1  0  0  0
  6 92  1  0  0  0
  6 93  1  0  0  0
  7  8  2  0  0  0
  7 26  1  0  0  0
  7 29  1  0  0  0
  8  9  1  0  0  0
  8 22  1  0  0  0
  9 10  1  0  0  0
  9 27  2  0  0  0
 10 11  2  0  0  0
 10 15  1  0  0  0
 11 12  1  0  0  0
 11 94  1  0  0  0
 12 13  2  0  0  0
 12 95  1  0  0  0
 13 14  1  0  0  0
 13 31  1  0  0  0
 14 15  2  0  0  0
 14 96  1  0  0  0
 15 97  1  0  0  0
 16 17  2  0  0  0
 16 21  1  0  0  0
 16 31  1  0  0  0
 17 18  1  0  0  0
 17 98  1  0  0  0
 18 19  2  0  0  0
 18 99  1  0  0  0
 19 20  1  0  0  0
 19 24  1  0  0  0
 20 21  2  0  0  0
 20100  1  0  0  0
 21 23  1  0  0  0
 22 28  1  0  0  0
 22 32  2  0  0  0
 26 27  1  0  0  0
 28101  1  0  0  0
 28102  1  0  0  0
 29103  1  0  0  0
 29104  1  0  0  0
 33 34  1  0  0  0
 33 66  1  0  0  0
 33 70  2  0  0  0
 34 36  1  0  0  0
 34 59  1  0  0  0
 34105  1  0  0  0
 35 44  2  0  0  0
 35 45  1  0  0  0
 35 68  1  0  0  0
 36 56  1  0  0  0
 36106  1  0  0  0
 37 39  1  0  0  0
 37 47  1  0  0  0
 37 66  1  0  0  0
 37107  1  0  0  0
 38 43  2  0  0  0
 38 46  1  0  0  0
 38 47  1  0  0  0
 39 64  1  0  0  0
 39 67  2  0  0  0
 40 52  1  0  0  0
 40 53  2  0  0  0
 40 58  1  0  0  0
 41108  1  0  0  0
 41109  1  0  0  0
 41110  1  0  0  0
 41 48  1  0  0  0
 42 43  1  0  0  0
 42 66  1  0  0  0
 42111  1  0  0  0
 42112  1  0  0  0
 43 44  1  0  0  0
 44113  1  0  0  0
 45 46  2  0  0  0
 45114  1  0  0  0
 46115  1  0  0  0
 47116  1  0  0  0
 47117  1  0  0  0
 48 56  1  0  0  0
 48 65  1  0  0  0
 48118  1  0  0  0
 49 50  1  0  0  0
 49 53  1  0  0  0
 49 64  1  0  0  0
 49119  1  0  0  0
 50 51  1  0  0  0
 50120  1  0  0  0
 50121  1  0  0  0
 51 52  1  0  0  0
 51122  1  0  0  0
 51123  1  0  0  0
 52124  1  0  0  0
 52125  1  0  0  0
 53 54  1  0  0  0
 54 55  2  0  0  0
 54126  1  0  0  0
 55 57  1  0  0  0
 55127  1  0  0  0
 56 69  2  0  0  0
 57 58  2  0  0  0
 57128  1  0  0  0
 58129  1  0  0  0
 59 60  1  0  0  0
 59 61  1  0  0  0
 59 62  1  0  0  0
 60130  1  0  0  0
 60131  1  0  0  0
 60132  1  0  0  0
 61133  1  0  0  0
 61134  1  0  0  0
 61135  1  0  0  0
 62136  1  0  0  0
 62137  1  0  0  0
 62138  1  0  0  0
 63 65  1  0  0  0
 63139  1  0  0  0
 63140  1  0  0  0
 63141  1  0  0  0
 64142  1  0  0  0
 65143  1  0  0  0
 68 83  1  0  0  0
 71 73  2  0  0  0
 71 74  1  0  0  0
 71144  1  0  0  0
 72 73  1  0  0  0
 72 75  2  0  0  0
 72 79  1  0  0  0
 73 80  1  0  0  0
 74 76  2  0  0  0
 74 83  1  0  0  0
 75 76  1  0  0  0
 75 81  1  0  0  0
 76 82  1  0  0  0
 77 79  1  0  0  0
 77 84  1  0  0  0
 77145  1  0  0  0
 77146  1  0  0  0
 78 79  1  0  0  0
 78 84  1  0  0  0
 78147  1  0  0  0
 78148  1  0  0  0
 79149  1  0  0  0
 80150  1  0  0  0
 80151  1  0  0  0
 80152  1  0  0  0
 81153  1  0  0  0
 81154  1  0  0  0
 81155  1  0  0  0
 82156  1  0  0  0
 82157  1  0  0  0
 82158  1  0  0  0
 83159  1  0  0  0
 83160  1  0  0  0
M  ISO  4   1 100  68 101  83 101  84 100
M  END
> <chiral flag>
0

> <version>
0

> <s_m_source_file>
/data/baiqing/PycharmProjects/Reinvent-master-3.2/result/LINK_invent/BTK/process_docking_weight1_custom_sum_contain_oxygen_bond_distance_aromatic_linkinvent_7_9_3/rearranged_h_0168.sdf

> <i_m_source_file_index>
50

> <r_mmod_Potential_Energy-OPLS-2005>
672.341735839844

> <r_mmod_Stretch_Energy-OPLS-2005>
248.455505371094

> <r_mmod_Bend_Energy-OPLS-2005>
317.796447753906

> <r_mmod_Torsional_Energy-OPLS-2005>
275.113403320312

> <r_mmod_Improper_Torsional_Energy-OPLS-2005>
19.8421516418457

> <r_mmod_Van_der_Waal_Energy-OPLS-2005>
140.112564086914

> <r_mmod_Electrostatic_Energy-OPLS-2005>
-340.237426757812

> <r_mmod_Solvation_Energy-OPLS-2005>
-204.669357299805

> <b_mmod_Minimization_Converged-OPLS-2005>
0

> <r_mmod_RMS_Derivative-OPLS-2005>
1.37346220016479

$$$$
50
                    3D
 Structure written by MMmdl.
184194  0  0  1  0            999 V2000
  -29.6343  -15.4152   20.7402 C   0  0  0  0  0  0
  -30.3297  -13.0280   19.6837 C   0  0  0  0  0  0
  -29.5275  -12.6735   18.3910 C   0  0  0  0  0  0
  -28.0728  -12.2891   18.7255 C   0  0  0  0  0  0
  -27.5233  -13.2099   19.8386 C   0  0  2  0  0  0
  -28.4262  -13.2485   21.0626 C   0  0  0  0  0  0
  -25.1917  -13.7968   20.5611 C   0  0  0  0  0  0
  -24.1317  -13.0245   20.9203 C   0  0  0  0  0  0
  -24.5951  -11.6746   20.8718 C   0  0  0  0  0  0
  -23.8783  -10.4172   21.0434 C   0  0  0  0  0  0
  -24.3472   -9.4149   21.9189 C   0  0  0  0  0  0
  -23.6219   -8.2161   22.0752 C   0  0  0  0  0  0
  -22.4197   -8.0186   21.3539 C   0  0  0  0  0  0
  -21.9756   -9.0118   20.4639 C   0  0  0  0  0  0
  -22.7009  -10.2015   20.3050 C   0  0  0  0  0  0
  -21.6828   -6.0688   22.5283 C   0  0  0  0  0  0
  -21.4001   -6.5613   23.8208 C   0  0  0  0  0  0
  -21.3648   -5.6772   24.9170 C   0  0  0  0  0  0
  -21.6045   -4.3035   24.7227 C   0  0  0  0  0  0
  -21.8836   -3.8122   23.4351 C   0  0  0  0  0  0
  -21.9193   -4.6929   22.3405 C   0  0  0  0  0  0
  -22.7448  -13.5121   21.1975 C   0  0  0  0  0  0
  -22.1668   -4.2123   21.0979 F   0  0  0  0  0  0
  -21.5628   -3.4523   25.7742 F   0  0  0  0  0  0
  -29.5353  -13.9970   20.5718 N   0  0  0  0  0  0
  -26.2034  -12.9059   20.2796 N   0  0  0  0  0  0
  -25.8751  -11.6259   20.5464 N   0  0  0  0  0  0
  -22.0165  -12.8144   22.0589 N   0  0  0  0  0  0
  -25.3713  -15.1684   20.4323 N   0  0  0  0  0  0
  -30.8299  -15.6976   20.4263 O   0  0  0  0  0  0
  -21.6586   -6.8791   21.4234 O   0  0  0  0  0  0
  -22.3194  -14.5457   20.6831 O   0  0  0  0  0  0
  -24.6574  -31.9697   23.2549 C   0  0  0  0  0  0
  -25.9528  -32.5259   23.8900 C   0  0  1  0  0  0
  -27.0541  -27.5459   19.9821 C   0  0  0  0  0  0
  -25.6444  -33.9007   24.2821 N   0  0  0  0  0  0
  -23.4486  -30.6887   21.5678 C   0  0  2  0  0  0
  -24.9060  -29.2737   19.9547 C   0  0  0  0  0  0
  -22.9218  -29.6352   22.5917 C   0  0  0  0  0  0
  -18.3541  -27.6593   22.9176 C   0  0  0  0  0  0
  -24.1510  -36.7419   23.2583 C   0  0  0  0  0  0
  -26.0057  -30.8946   21.4704 C   0  0  0  0  0  0
  -26.0277  -29.5821   20.7253 C   0  0  0  0  0  0
  -27.1232  -28.6996   20.7806 C   0  0  0  0  0  0
  -26.1119  -27.4160   18.9681 C   0  0  0  0  0  0
  -24.9649  -28.2263   19.0233 C   0  0  0  0  0  0
  -23.7532  -30.2421   20.0902 C   0  0  0  0  0  0
  -25.4118  -36.3307   24.0345 C   0  0  1  0  0  0
  -21.2031  -27.8467   23.0481 C   0  0  2  0  0  0
  -21.3709  -25.5857   21.4464 C   0  0  0  0  0  0
  -19.5689  -25.1866   21.4030 C   0  0  0  0  0  0
  -18.3329  -26.1740   22.1938 C   0  0  0  0  0  0
  -19.5639  -28.3750   23.3908 C   0  0  0  0  0  0
  -19.2751  -29.7143   23.9079 C   0  0  0  0  0  0
  -17.9828  -30.3211   23.9951 C   0  0  0  0  0  0
  -25.9128  -34.9700   23.5254 C   0  0  0  0  0  0
  -16.8582  -29.6118   23.5572 C   0  0  0  0  0  0
  -17.0634  -28.3132   23.0321 C   0  0  0  0  0  0
  -26.4600  -31.6724   25.1122 C   0  0  0  0  0  0
  -25.3696  -31.3847   26.1691 C   0  0  0  0  0  0
  -27.0315  -30.3078   24.6569 C   0  0  0  0  0  0
  -27.6197  -32.4252   25.7998 C   0  0  0  0  0  0
  -27.5609  -37.1925   24.8455 C   0  0  0  0  0  0
  -21.6718  -29.2076   22.5696 N   0  0  0  0  0  0
  -26.4300  -37.3975   23.9433 N   0  0  0  0  0  0
  -24.7153  -31.2231   22.1275 N   0  0  0  0  0  0
  -23.6889  -29.1203   23.3870 O   0  0  0  0  0  0
  -27.3347  -26.3506   20.5044 O   0  0  0  0  0  0
  -26.5427  -34.9024   22.4654 O   0  0  0  0  0  0
  -23.5748  -32.2465   23.7939 O   0  0  0  0  0  0
  -20.8651  -21.3496   23.7860 C   0  0  0  0  0  0
  -22.0702  -20.7481   23.3034 C   0  0  0  0  0  0
  -22.7428  -22.9569   22.8654 C   0  0  0  0  0  0
  -21.3793  -23.7666   23.3518 C   0  0  0  0  0  0
  -20.5250  -22.7398   23.8353 C   0  0  0  0  0  0
  -23.2139  -21.4089   22.7819 C   0  0  0  0  0  0
  -26.2246  -18.4968   20.6476 C   0  0  0  0  0  0
  -26.6571  -18.2537   22.7751 C   0  0  0  0  0  0
  -20.3056  -27.4257   21.1019 C   0  0  0  0  0  0
  -27.6594  -17.5291   20.2583 C   0  0  0  0  0  0
  -28.1025  -17.3174   22.3697 C   0  0  0  0  0  0
  -22.0870  -27.6423   20.5388 C   0  0  0  0  0  0
  -23.5030  -26.4396   22.9466 C   0  0  0  0  0  0
  -20.7333  -25.6423   23.4936 C   0  0  2  0  0  0
  -22.3484  -25.8401   24.0090 C   0  0  2  0  0  0
  -25.8900  -19.5387   21.9551 C   0  0  0  0  0  0
  -19.1860  -23.0988   24.4568 C   0  0  0  0  0  0
  -22.4787  -26.3006   25.4983 C   0  0  0  0  0  0
  -24.4516  -26.0232   20.7134 C   0  0  0  0  0  0
  -26.0584  -25.9149   21.2161 C   0  0  0  0  0  0
  -28.4327  -16.4030   21.0975 N   0  0  0  0  0  0
  -24.3365  -20.2623   22.3596 N   0  0  0  0  0  0
  -23.4407  -27.0011   21.4203 N   0  3  2  0  0  0
  -31.2897  -13.4627   19.4038 H   0  0  0  0  0  0
  -30.5751  -12.1214   20.2389 H   0  0  0  0  0  0
  -30.0181  -11.8758   17.8314 H   0  0  0  0  0  0
  -29.5182  -13.5471   17.7377 H   0  0  0  0  0  0
  -28.0575  -11.2528   19.0666 H   0  0  0  0  0  0
  -27.4449  -12.3295   17.8351 H   0  0  0  0  0  0
  -27.4613  -14.1987   19.3812 H   0  0  0  0  0  0
  -28.6873  -12.2519   21.4215 H   0  0  0  0  0  0
  -27.9538  -13.7714   21.8974 H   0  0  0  0  0  0
  -25.2631   -9.5701   22.4718 H   0  0  0  0  0  0
  -23.9972   -7.4560   22.7459 H   0  0  0  0  0  0
  -21.0689   -8.8587   19.8953 H   0  0  0  0  0  0
  -22.3448  -10.9546   19.6156 H   0  0  0  0  0  0
  -21.1997   -7.6122   23.9704 H   0  0  0  0  0  0
  -21.1448   -6.0497   25.9066 H   0  0  0  0  0  0
  -22.0633   -2.7587   23.2846 H   0  0  0  0  0  0
  -22.3786  -11.9757   22.4877 H   0  0  0  0  0  0
  -21.0825  -13.1209   22.2921 H   0  0  0  0  0  0
  -24.6162  -15.8185   20.6141 H   0  0  0  0  0  0
  -26.2551  -15.6254   20.2517 H   0  0  0  0  0  0
  -26.7724  -32.5932   23.1787 H   0  0  0  0  0  0
  -25.0823  -34.0236   25.1119 H   0  0  0  0  0  0
  -22.7101  -31.4905   21.5147 H   0  0  0  0  0  0
  -23.3790  -35.9731   23.3255 H   0  0  0  0  0  0
  -24.3637  -36.9002   22.1996 H   0  0  0  0  0  0
  -23.7211  -37.6628   23.6538 H   0  0  0  0  0  0
  -26.2526  -31.6938   20.7681 H   0  0  0  0  0  0
  -26.8487  -30.8353   22.1446 H   0  0  0  0  0  0
  -27.8900  -28.8156   21.5345 H   0  0  0  0  0  0
  -26.1020  -26.5430   18.3283 H   0  0  0  0  0  0
  -24.1501  -28.0522   18.3343 H   0  0  0  0  0  0
  -24.1414  -31.1439   19.6144 H   0  0  0  0  0  0
  -22.9228  -30.1169   19.3999 H   0  0  0  0  0  0
  -25.1237  -36.2232   25.0824 H   0  0  0  0  0  0
  -21.5978  -27.9518   24.0398 H   0  0  0  0  0  0
  -22.1421  -24.8492   21.5217 H   0  0  0  0  0  0
  -21.4581  -25.5071   20.3540 H   0  0  0  0  0  0
  -19.4164  -24.1547   21.7141 H   0  0  0  0  0  0
  -19.2768  -25.0736   20.3562 H   0  0  0  0  0  0
  -17.5318  -26.2385   21.4568 H   0  0  0  0  0  0
  -17.8989  -25.5366   22.9629 H   0  0  0  0  0  0
  -20.1078  -30.3178   24.2401 H   0  0  0  0  0  0
  -17.8763  -31.3228   24.3896 H   0  0  0  0  0  0
  -15.8665  -30.0428   23.6142 H   0  0  0  0  0  0
  -16.1893  -27.7775   22.6853 H   0  0  0  0  0  0
  -24.5841  -30.7323   25.7862 H   0  0  0  0  0  0
  -24.8963  -32.3027   26.5178 H   0  0  0  0  0  0
  -25.7885  -30.8885   27.0453 H   0  0  0  0  0  0
  -26.2918  -29.6986   24.1376 H   0  0  0  0  0  0
  -27.3650  -29.7210   25.5142 H   0  0  0  0  0  0
  -27.9021  -30.4242   24.0114 H   0  0  0  0  0  0
  -27.2883  -33.3532   26.2663 H   0  0  0  0  0  0
  -28.4075  -32.6804   25.0896 H   0  0  0  0  0  0
  -28.0750  -31.8239   26.5878 H   0  0  0  0  0  0
  -28.2601  -38.0256   24.7599 H   0  0  0  0  0  0
  -28.1139  -36.2811   24.6148 H   0  0  0  0  0  0
  -27.2351  -37.1417   25.8860 H   0  0  0  0  0  0
  -20.9979  -29.7420   22.0380 H   0  0  0  0  0  0
  -26.0201  -38.3049   24.1486 H   0  0  0  0  0  0
  -20.1297  -20.6532   24.1656 H   0  0  0  0  0  0
  -22.0949  -19.6692   23.3678 H   0  0  0  0  0  0
  -23.5372  -23.5804   22.5018 H   0  0  0  0  0  0
  -25.3825  -17.8067   20.6066 H   0  0  0  0  0  0
  -26.0640  -19.1105   19.7603 H   0  0  0  0  0  0
  -26.8617  -18.6533   23.7690 H   0  0  0  0  0  0
  -25.8831  -17.5073   22.9649 H   0  0  0  0  0  0
  -19.7516  -27.1143   20.2082 H   0  0  0  0  0  0
  -19.8633  -28.4284   21.1030 H   0  0  0  0  0  0
  -28.4346  -18.2394   19.9662 H   0  0  0  0  0  0
  -27.4201  -17.0278   19.3198 H   0  0  0  0  0  0
  -28.2649  -16.6498   23.2172 H   0  0  0  0  0  0
  -28.9388  -18.0171   22.4342 H   0  0  0  0  0  0
  -22.0844  -28.6581   20.2808 H   0  0  0  0  0  0
  -22.1827  -27.2440   19.5273 H   0  0  0  0  0  0
  -24.1246  -25.5519   22.9106 H   0  0  0  0  0  0
  -24.2487  -26.9802   23.5179 H   0  0  0  0  0  0
  -20.0166  -25.7633   24.3060 H   0  0  0  0  0  0
  -22.8702  -24.9381   24.3153 H   0  0  0  0  0  0
  -26.5950  -20.3706   21.9023 H   0  0  0  0  0  0
  -18.7423  -22.2440   24.9686 H   0  0  0  0  0  0
  -18.4778  -23.4250   23.6968 H   0  0  0  0  0  0
  -19.2923  -23.8830   25.2055 H   0  0  0  0  0  0
  -21.8048  -27.0932   25.8246 H   0  0  0  0  0  0
  -23.4969  -26.6196   25.7266 H   0  0  0  0  0  0
  -22.2602  -25.4721   26.1757 H   0  0  0  0  0  0
  -24.0937  -25.0141   20.8897 H   0  0  0  0  0  0
  -24.2827  -25.9712   19.6430 H   0  0  0  0  0  0
  -26.2347  -24.8508   21.3874 H   0  0  0  0  0  0
  -26.1363  -26.3482   22.2131 H   0  0  0  0  0  0
  -23.7837  -19.4139   22.4537 H   0  0  0  0  0  0
  -24.0010  -27.8419   21.5023 H   0  0  0  0  0  0
  1 25  1  0  0  0
  1 30  2  0  0  0
  1 91  1  0  0  0
  2  3  1  0  0  0
  2 25  1  0  0  0
  2 94  1  0  0  0
  2 95  1  0  0  0
  3  4  1  0  0  0
  3 96  1  0  0  0
  3 97  1  0  0  0
  4  5  1  0  0  0
  4 98  1  0  0  0
  4 99  1  0  0  0
  5  6  1  0  0  0
  5 26  1  0  0  0
  5100  1  0  0  0
  6 25  1  0  0  0
  6101  1  0  0  0
  6102  1  0  0  0
  7  8  2  0  0  0
  7 26  1  0  0  0
  7 29  1  0  0  0
  8  9  1  0  0  0
  8 22  1  0  0  0
  9 10  1  0  0  0
  9 27  2  0  0  0
 10 11  2  0  0  0
 10 15  1  0  0  0
 11 12  1  0  0  0
 11103  1  0  0  0
 12 13  2  0  0  0
 12104  1  0  0  0
 13 14  1  0  0  0
 13 31  1  0  0  0
 14 15  2  0  0  0
 14105  1  0  0  0
 15106  1  0  0  0
 16 17  2  0  0  0
 16 21  1  0  0  0
 16 31  1  0  0  0
 17 18  1  0  0  0
 17107  1  0  0  0
 18 19  2  0  0  0
 18108  1  0  0  0
 19 20  1  0  0  0
 19 24  1  0  0  0
 20 21  2  0  0  0
 20109  1  0  0  0
 21 23  1  0  0  0
 22 28  1  0  0  0
 22 32  2  0  0  0
 26 27  1  0  0  0
 28110  1  0  0  0
 28111  1  0  0  0
 29112  1  0  0  0
 29113  1  0  0  0
 33 34  1  0  0  0
 33 66  1  0  0  0
 33 70  2  0  0  0
 34 36  1  0  0  0
 34 59  1  0  0  0
 34114  1  0  0  0
 35 44  2  0  0  0
 35 45  1  0  0  0
 35 68  1  0  0  0
 36 56  1  0  0  0
 36115  1  0  0  0
 37 39  1  0  0  0
 37 47  1  0  0  0
 37 66  1  0  0  0
 37116  1  0  0  0
 38 43  2  0  0  0
 38 46  1  0  0  0
 38 47  1  0  0  0
 39 64  1  0  0  0
 39 67  2  0  0  0
 40 52  1  0  0  0
 40 53  2  0  0  0
 40 58  1  0  0  0
 41117  1  0  0  0
 41118  1  0  0  0
 41119  1  0  0  0
 41 48  1  0  0  0
 42 43  1  0  0  0
 42 66  1  0  0  0
 42120  1  0  0  0
 42121  1  0  0  0
 43 44  1  0  0  0
 44122  1  0  0  0
 45 46  2  0  0  0
 45123  1  0  0  0
 46124  1  0  0  0
 47125  1  0  0  0
 47126  1  0  0  0
 48 56  1  0  0  0
 48 65  1  0  0  0
 48127  1  0  0  0
 49 50  1  0  0  0
 49 53  1  0  0  0
 49 64  1  0  0  0
 49128  1  0  0  0
 50 51  1  0  0  0
 50129  1  0  0  0
 50130  1  0  0  0
 51 52  1  0  0  0
 51131  1  0  0  0
 51132  1  0  0  0
 52133  1  0  0  0
 52134  1  0  0  0
 53 54  1  0  0  0
 54 55  2  0  0  0
 54135  1  0  0  0
 55 57  1  0  0  0
 55136  1  0  0  0
 56 69  2  0  0  0
 57 58  2  0  0  0
 57137  1  0  0  0
 58138  1  0  0  0
 59 60  1  0  0  0
 59 61  1  0  0  0
 59 62  1  0  0  0
 60139  1  0  0  0
 60140  1  0  0  0
 60141  1  0  0  0
 61142  1  0  0  0
 61143  1  0  0  0
 61144  1  0  0  0
 62145  1  0  0  0
 62146  1  0  0  0
 62147  1  0  0  0
 63 65  1  0  0  0
 63148  1  0  0  0
 63149  1  0  0  0
 63150  1  0  0  0
 64151  1  0  0  0
 65152  1  0  0  0
 68 90  1  0  0  0
 71 72  2  0  0  0
 71 75  1  0  0  0
 71153  1  0  0  0
 72 76  1  0  0  0
 72154  1  0  0  0
 73 74  1  0  0  0
 73 76  2  0  0  0
 73155  1  0  0  0
 74 75  2  0  0  0
 74 84  1  0  0  0
 75 87  1  0  0  0
 76 92  1  0  0  0
 77 80  1  0  0  0
 77 86  1  0  0  0
 77156  1  0  0  0
 77157  1  0  0  0
 78 81  1  0  0  0
 78 86  1  0  0  0
 78158  1  0  0  0
 78159  1  0  0  0
 79 82  1  0  0  0
 79 84  1  0  0  0
 79160  1  0  0  0
 79161  1  0  0  0
 80 91  1  0  0  0
 80162  1  0  0  0
 80163  1  0  0  0
 81 91  1  0  0  0
 81164  1  0  0  0
 81165  1  0  0  0
 82 93  1  0  0  0
 82166  1  0  0  0
 82167  1  0  0  0
 83 85  1  0  0  0
 83 93  1  0  0  0
 83168  1  0  0  0
 83169  1  0  0  0
 84 85  1  0  0  0
 84170  1  0  0  0
 85 88  1  0  0  0
 85171  1  0  0  0
 86 92  1  0  0  0
 86172  1  0  0  0
 87173  1  0  0  0
 87174  1  0  0  0
 87175  1  0  0  0
 88176  1  0  0  0
 88177  1  0  0  0
 88178  1  0  0  0
 89 90  1  0  0  0
 89179  1  0  0  0
 89180  1  0  0  0
 89 93  1  0  0  0
 90181  1  0  0  0
 90182  1  0  0  0
 92183  1  0  0  0
 93184  1  0  0  0
M  CHG  1  93   1
M  ISO  4   1 100  68 101  90 101  91 100
M  END
> <chiral flag>
0

> <version>
0

> <s_m_source_file>
/data/baiqing/PycharmProjects/Reinvent-master-3.2/result/LINK_invent/BTK/process_docking_weight1_custom_sum_contain_oxygen_bond_distance_aromatic_linkinvent_7_9_3/rearranged_h_0168.sdf

> <i_m_source_file_index>
51

> <r_mmod_Potential_Energy-OPLS-2005>
11983.1826171875

> <r_mmod_Stretch_Energy-OPLS-2005>
6249.8037109375

> <r_mmod_Bend_Energy-OPLS-2005>
1588.80773925781

> <r_mmod_Torsional_Energy-OPLS-2005>
570.509155273438

> <r_mmod_Improper_Torsional_Energy-OPLS-2005>
20.8360271453857

> <r_mmod_Van_der_Waal_Energy-OPLS-2005>
2336.45971679688

> <r_mmod_Electrostatic_Energy-OPLS-2005>
-263.9267578125

> <r_mmod_Solvation_Energy-OPLS-2005>
-363.161315917969

> <b_mmod_Minimization_Converged-OPLS-2005>
0

> <r_mmod_RMS_Derivative-OPLS-2005>
4.08502292633057

$$$$
51
                    3D
 Structure written by MMmdl.
169179  0  0  1  0            999 V2000
  -30.5935  -14.7165   20.4923 C   0  0  0  0  0  0
  -30.4412  -12.4441   19.4583 C   0  0  0  0  0  0
  -29.5093  -12.5093   18.2273 C   0  0  0  0  0  0
  -28.0347  -12.3316   18.6426 C   0  0  0  0  0  0
  -27.6449  -13.2208   19.8533 C   0  0  2  0  0  0
  -28.6904  -13.1193   20.9851 C   0  0  0  0  0  0
  -25.2527  -13.8171   20.5685 C   0  0  0  0  0  0
  -24.1813  -13.0432   20.9206 C   0  0  0  0  0  0
  -24.6389  -11.6906   20.8747 C   0  0  0  0  0  0
  -23.9065  -10.4292   21.0411 C   0  0  0  0  0  0
  -24.3617   -9.4206   21.9189 C   0  0  0  0  0  0
  -23.6292   -8.2244   22.0754 C   0  0  0  0  0  0
  -22.4275   -8.0283   21.3546 C   0  0  0  0  0  0
  -21.9912   -9.0256   20.4646 C   0  0  0  0  0  0
  -22.7240  -10.2136   20.3060 C   0  0  0  0  0  0
  -21.6853   -6.0739   22.5284 C   0  0  0  0  0  0
  -21.4012   -6.5643   23.8217 C   0  0  0  0  0  0
  -21.3657   -5.6794   24.9180 C   0  0  0  0  0  0
  -21.6046   -4.3058   24.7229 C   0  0  0  0  0  0
  -21.8817   -3.8150   23.4348 C   0  0  0  0  0  0
  -21.9190   -4.6967   22.3406 C   0  0  0  0  0  0
  -22.7838  -13.5229   21.1874 C   0  0  0  0  0  0
  -22.1661   -4.2152   21.0981 F   0  0  0  0  0  0
  -21.5628   -3.4540   25.7740 F   0  0  0  0  0  0
  -29.9912  -13.4836   20.4078 N   0  0  0  0  0  0
  -26.2950  -12.9359   20.3281 N   0  0  0  0  0  0
  -25.9316  -11.6513   20.5750 N   0  0  0  0  0  0
  -22.0480  -12.8216   22.0423 N   0  0  0  0  0  0
  -25.4220  -15.1896   20.4090 N   0  0  0  0  0  0
  -31.7789  -14.8604   20.1819 O   0  0  0  0  0  0
  -21.6637   -6.8879   21.4244 O   0  0  0  0  0  0
  -22.3529  -14.5537   20.6724 O   0  0  0  0  0  0
  -24.6302  -31.8566   23.2019 C   0  0  0  0  0  0
  -25.9138  -32.4763   23.8339 C   0  0  1  0  0  0
  -27.2127  -27.2666   20.1400 C   0  0  0  0  0  0
  -25.5942  -33.8565   24.2261 N   0  0  0  0  0  0
  -23.4257  -30.4800   21.5459 C   0  0  2  0  0  0
  -24.8702  -28.9255   20.1185 C   0  0  0  0  0  0
  -22.7497  -29.4598   22.4940 C   0  0  0  0  0  0
  -18.0288  -28.1381   22.8490 C   0  0  0  0  0  0
  -24.1490  -36.7292   23.2637 C   0  0  0  0  0  0
  -25.9703  -30.7707   21.3820 C   0  0  0  0  0  0
  -26.0404  -29.3905   20.7320 C   0  0  0  0  0  0
  -27.2142  -28.5727   20.7343 C   0  0  0  0  0  0
  -26.0332  -26.8854   19.4696 C   0  0  0  0  0  0
  -24.8694  -27.6771   19.4791 C   0  0  0  0  0  0
  -23.6425  -29.8136   20.1625 C   0  0  0  0  0  0
  -25.4122  -36.3074   24.0316 C   0  0  1  0  0  0
  -20.5895  -28.3686   23.1278 C   0  0  2  0  0  0
  -20.6781  -26.9403   22.5412 C   0  0  0  0  0  0
  -19.5753  -26.6377   21.5217 C   0  0  0  0  0  0
  -18.1932  -26.7924   22.1626 C   0  0  0  0  0  0
  -19.1545  -28.8851   23.2871 C   0  0  0  0  0  0
  -18.9463  -30.1463   23.8880 C   0  0  0  0  0  0
  -17.6463  -30.6585   24.0560 C   0  0  0  0  0  0
  -25.9058  -34.9441   23.5087 C   0  0  0  0  0  0
  -16.5349  -29.9083   23.6335 C   0  0  0  0  0  0
  -16.7276  -28.6505   23.0350 C   0  0  0  0  0  0
  -26.4496  -31.6595   25.0735 C   0  0  0  0  0  0
  -25.3712  -31.3740   26.1454 C   0  0  0  0  0  0
  -27.0359  -30.3020   24.6225 C   0  0  0  0  0  0
  -27.6049  -32.4347   25.7493 C   0  0  0  0  0  0
  -27.5586  -37.1797   24.8459 C   0  0  0  0  0  0
  -21.4208  -29.3039   22.3676 N   0  0  0  0  0  0
  -26.4297  -37.3778   23.9407 N   0  0  0  0  0  0
  -24.6943  -31.0539   22.0991 N   0  0  0  0  0  0
  -23.4201  -28.8126   23.3025 O   0  0  0  0  0  0
  -28.3382  -26.4216   20.0900 O   0  0  0  0  0  0
  -26.5633  -34.8912   22.4660 O   0  0  0  0  0  0
  -23.5461  -32.1373   23.7336 O   0  0  0  0  0  0
  -28.1271  -22.2285   20.6599 C   0  0  0  0  0  0
  -27.1924  -21.8591   21.6299 C   0  0  0  0  0  0
  -28.9988  -21.1476   20.2088 C   0  0  0  0  0  0
  -27.1680  -20.5764   22.2047 C   0  0  0  0  0  0
  -28.8443  -19.8033   20.7677 C   0  0  0  0  0  0
  -26.1318  -22.9032   21.8115 C   0  0  0  0  0  0
  -26.2628  -23.7429   20.5344 C   0  0  0  0  0  0
  -31.4545  -20.9866   19.3259 C   0  0  0  0  0  0
  -31.0735  -22.4439   19.2669 C   0  0  0  0  0  0
  -30.0072  -21.3790   19.1246 C   0  0  0  0  0  0
  -27.7531  -23.6860   20.0800 C   0  0  2  0  0  0
  -26.1578  -20.1864   23.2648 C   0  0  0  0  0  0
  -27.8801  -23.7160   18.5458 C   0  0  0  0  0  0
  -29.3488  -18.4248   20.1384 C   0  0  0  0  0  0
  -28.4128  -25.0381   20.6920 C   0  0  0  0  0  0
  -30.0540  -17.2758   21.0321 C   0  0  0  0  0  0
  -27.9704  -19.5843   21.7751 N   0  0  0  0  0  0
  -29.7747  -15.7979   20.7538 N   0  0  0  0  0  0
  -31.4793  -12.5892   19.1535 H   0  0  0  0  0  0
  -30.3995  -11.4587   19.9254 H   0  0  0  0  0  0
  -29.7879  -11.7449   17.5011 H   0  0  0  0  0  0
  -29.6339  -13.4692   17.7236 H   0  0  0  0  0  0
  -27.8890  -11.2808   18.8958 H   0  0  0  0  0  0
  -27.3761  -12.5336   17.7976 H   0  0  0  0  0  0
  -27.6486  -14.2478   19.4876 H   0  0  0  0  0  0
  -28.7254  -12.1074   21.3917 H   0  0  0  0  0  0
  -28.4276  -13.7703   21.8205 H   0  0  0  0  0  0
  -25.2763   -9.5684   22.4765 H   0  0  0  0  0  0
  -24.0004   -7.4633   22.7473 H   0  0  0  0  0  0
  -21.0847   -8.8777   19.8950 H   0  0  0  0  0  0
  -22.3698  -10.9680   19.6173 H   0  0  0  0  0  0
  -21.2004   -7.6150   23.9723 H   0  0  0  0  0  0
  -21.1483   -6.0523   25.9081 H   0  0  0  0  0  0
  -22.0596   -2.7612   23.2850 H   0  0  0  0  0  0
  -22.4098  -11.9867   22.4796 H   0  0  0  0  0  0
  -21.1105  -13.1248   22.2641 H   0  0  0  0  0  0
  -24.6509  -15.8391   20.5179 H   0  0  0  0  0  0
  -26.2631  -15.6332   20.0640 H   0  0  0  0  0  0
  -26.7200  -32.5412   23.1075 H   0  0  0  0  0  0
  -25.0081  -33.9691   25.0399 H   0  0  0  0  0  0
  -22.7225  -31.3028   21.4023 H   0  0  0  0  0  0
  -23.3757  -35.9620   23.3293 H   0  0  0  0  0  0
  -24.3570  -36.8944   22.2055 H   0  0  0  0  0  0
  -23.7236  -37.6485   23.6674 H   0  0  0  0  0  0
  -26.1091  -31.5285   20.6095 H   0  0  0  0  0  0
  -26.8471  -30.8206   22.0155 H   0  0  0  0  0  0
  -28.1140  -28.9314   21.2141 H   0  0  0  0  0  0
  -25.9949  -25.9562   18.9258 H   0  0  0  0  0  0
  -23.9784  -27.3247   18.9779 H   0  0  0  0  0  0
  -23.7677  -30.5878   19.4044 H   0  0  0  0  0  0
  -22.7598  -29.2482   19.8594 H   0  0  0  0  0  0
  -25.1302  -36.1919   25.0807 H   0  0  0  0  0  0
  -20.9978  -28.3260   24.1402 H   0  0  0  0  0  0
  -20.5701  -26.2279   23.3610 H   0  0  0  0  0  0
  -21.6643  -26.7435   22.1194 H   0  0  0  0  0  0
  -19.6907  -25.6288   21.1250 H   0  0  0  0  0  0
  -19.6698  -27.3180   20.6745 H   0  0  0  0  0  0
  -17.4205  -26.6681   21.4027 H   0  0  0  0  0  0
  -18.0317  -26.0056   22.9010 H   0  0  0  0  0  0
  -19.7938  -30.7287   24.2237 H   0  0  0  0  0  0
  -17.5013  -31.6260   24.5167 H   0  0  0  0  0  0
  -15.5349  -30.2980   23.7673 H   0  0  0  0  0  0
  -15.8672  -28.0824   22.7070 H   0  0  0  0  0  0
  -24.5882  -30.7094   25.7776 H   0  0  0  0  0  0
  -24.8894  -32.2908   26.4865 H   0  0  0  0  0  0
  -25.8018  -30.8921   27.0239 H   0  0  0  0  0  0
  -26.2952  -29.6755   24.1243 H   0  0  0  0  0  0
  -27.4047  -29.7297   25.4746 H   0  0  0  0  0  0
  -27.8817  -30.4322   23.9470 H   0  0  0  0  0  0
  -27.2665  -33.3668   26.2027 H   0  0  0  0  0  0
  -28.3861  -32.6886   25.0313 H   0  0  0  0  0  0
  -28.0703  -31.8501   26.5438 H   0  0  0  0  0  0
  -28.2587  -38.0112   24.7548 H   0  0  0  0  0  0
  -28.1100  -36.2649   24.6245 H   0  0  0  0  0  0
  -27.2293  -37.1397   25.8856 H   0  0  0  0  0  0
  -20.9393  -29.8768   21.6885 H   0  0  0  0  0  0
  -26.0175  -38.2847   24.1436 H   0  0  0  0  0  0
  -26.3461  -23.4935   22.7034 H   0  0  0  0  0  0
  -25.1337  -22.4745   21.9092 H   0  0  0  0  0  0
  -25.8560  -24.7307   20.7131 H   0  0  0  0  0  0
  -25.6417  -23.2823   19.7642 H   0  0  0  0  0  0
  -31.7474  -20.5849   20.2946 H   0  0  0  0  0  0
  -31.9951  -20.5844   18.4712 H   0  0  0  0  0  0
  -31.3694  -22.9918   18.3743 H   0  0  0  0  0  0
  -31.1102  -23.0111   20.1952 H   0  0  0  0  0  0
  -29.5737  -21.2115   18.1397 H   0  0  0  0  0  0
  -25.2694  -19.7627   22.7973 H   0  0  0  0  0  0
  -25.8563  -21.0452   23.8650 H   0  0  0  0  0  0
  -26.5730  -19.4408   23.9433 H   0  0  0  0  0  0
  -27.3642  -22.8742   18.0827 H   0  0  0  0  0  0
  -28.9214  -23.6852   18.2365 H   0  0  0  0  0  0
  -27.4686  -24.6260   18.1167 H   0  0  0  0  0  0
  -29.9935  -18.6409   19.2881 H   0  0  0  0  0  0
  -28.4594  -17.9835   19.6883 H   0  0  0  0  0  0
  -29.4840  -24.8405   20.7315 H   0  0  0  0  0  0
  -28.1230  -25.1285   21.7388 H   0  0  0  0  0  0
  -29.7200  -17.4240   22.0593 H   0  0  0  0  0  0
  -31.1297  -17.4520   21.0617 H   0  0  0  0  0  0
  -28.8149  -15.5290   20.9127 H   0  0  0  0  0  0
  1 25  1  0  0  0
  1 30  2  0  0  0
  1 88  1  0  0  0
  2  3  1  0  0  0
  2 25  1  0  0  0
  2 89  1  0  0  0
  2 90  1  0  0  0
  3  4  1  0  0  0
  3 91  1  0  0  0
  3 92  1  0  0  0
  4  5  1  0  0  0
  4 93  1  0  0  0
  4 94  1  0  0  0
  5  6  1  0  0  0
  5 26  1  0  0  0
  5 95  1  0  0  0
  6 25  1  0  0  0
  6 96  1  0  0  0
  6 97  1  0  0  0
  7  8  2  0  0  0
  7 26  1  0  0  0
  7 29  1  0  0  0
  8  9  1  0  0  0
  8 22  1  0  0  0
  9 10  1  0  0  0
  9 27  2  0  0  0
 10 11  2  0  0  0
 10 15  1  0  0  0
 11 12  1  0  0  0
 11 98  1  0  0  0
 12 13  2  0  0  0
 12 99  1  0  0  0
 13 14  1  0  0  0
 13 31  1  0  0  0
 14 15  2  0  0  0
 14100  1  0  0  0
 15101  1  0  0  0
 16 17  2  0  0  0
 16 21  1  0  0  0
 16 31  1  0  0  0
 17 18  1  0  0  0
 17102  1  0  0  0
 18 19  2  0  0  0
 18103  1  0  0  0
 19 20  1  0  0  0
 19 24  1  0  0  0
 20 21  2  0  0  0
 20104  1  0  0  0
 21 23  1  0  0  0
 22 28  1  0  0  0
 22 32  2  0  0  0
 26 27  1  0  0  0
 28105  1  0  0  0
 28106  1  0  0  0
 29107  1  0  0  0
 29108  1  0  0  0
 33 34  1  0  0  0
 33 66  1  0  0  0
 33 70  2  0  0  0
 34 36  1  0  0  0
 34 59  1  0  0  0
 34109  1  0  0  0
 35 44  2  0  0  0
 35 45  1  0  0  0
 35 68  1  0  0  0
 36 56  1  0  0  0
 36110  1  0  0  0
 37 39  1  0  0  0
 37 47  1  0  0  0
 37 66  1  0  0  0
 37111  1  0  0  0
 38 43  2  0  0  0
 38 46  1  0  0  0
 38 47  1  0  0  0
 39 64  1  0  0  0
 39 67  2  0  0  0
 40 52  1  0  0  0
 40 53  2  0  0  0
 40 58  1  0  0  0
 41112  1  0  0  0
 41113  1  0  0  0
 41114  1  0  0  0
 41 48  1  0  0  0
 42 43  1  0  0  0
 42 66  1  0  0  0
 42115  1  0  0  0
 42116  1  0  0  0
 43 44  1  0  0  0
 44117  1  0  0  0
 45 46  2  0  0  0
 45118  1  0  0  0
 46119  1  0  0  0
 47120  1  0  0  0
 47121  1  0  0  0
 48 56  1  0  0  0
 48 65  1  0  0  0
 48122  1  0  0  0
 49 50  1  0  0  0
 49 53  1  0  0  0
 49 64  1  0  0  0
 49123  1  0  0  0
 50 51  1  0  0  0
 50124  1  0  0  0
 50125  1  0  0  0
 51 52  1  0  0  0
 51126  1  0  0  0
 51127  1  0  0  0
 52128  1  0  0  0
 52129  1  0  0  0
 53 54  1  0  0  0
 54 55  2  0  0  0
 54130  1  0  0  0
 55 57  1  0  0  0
 55131  1  0  0  0
 56 69  2  0  0  0
 57 58  2  0  0  0
 57132  1  0  0  0
 58133  1  0  0  0
 59 60  1  0  0  0
 59 61  1  0  0  0
 59 62  1  0  0  0
 60134  1  0  0  0
 60135  1  0  0  0
 60136  1  0  0  0
 61137  1  0  0  0
 61138  1  0  0  0
 61139  1  0  0  0
 62140  1  0  0  0
 62141  1  0  0  0
 62142  1  0  0  0
 63 65  1  0  0  0
 63143  1  0  0  0
 63144  1  0  0  0
 63145  1  0  0  0
 64146  1  0  0  0
 65147  1  0  0  0
 68 85  1  0  0  0
 71 72  1  0  0  0
 71 73  2  0  0  0
 71 81  1  0  0  0
 72 74  2  0  0  0
 72 76  1  0  0  0
 73 75  1  0  0  0
 73 80  1  0  0  0
 74 82  1  0  0  0
 74 87  1  0  0  0
 75 84  1  0  0  0
 75 87  2  0  0  0
 76 77  1  0  0  0
 76148  1  0  0  0
 76149  1  0  0  0
 77 81  1  0  0  0
 77150  1  0  0  0
 77151  1  0  0  0
 78 79  1  0  0  0
 78 80  1  0  0  0
 78152  1  0  0  0
 78153  1  0  0  0
 79 80  1  0  0  0
 79154  1  0  0  0
 79155  1  0  0  0
 80156  1  0  0  0
 81 83  1  0  0  0
 81 85  1  0  0  0
 82157  1  0  0  0
 82158  1  0  0  0
 82159  1  0  0  0
 83160  1  0  0  0
 83161  1  0  0  0
 83162  1  0  0  0
 84 86  1  0  0  0
 84163  1  0  0  0
 84164  1  0  0  0
 85165  1  0  0  0
 85166  1  0  0  0
 86 88  1  0  0  0
 86167  1  0  0  0
 86168  1  0  0  0
 88169  1  0  0  0
M  ISO  4   1 100  68 101  85 101  88 100
M  END
> <chiral flag>
0

> <version>
0

> <s_m_source_file>
/data/baiqing/PycharmProjects/Reinvent-master-3.2/result/LINK_invent/BTK/process_docking_weight1_custom_sum_contain_oxygen_bond_distance_aromatic_linkinvent_7_9_3/rearranged_h_0168.sdf

> <i_m_source_file_index>
52

> <r_mmod_Potential_Energy-OPLS-2005>
146.209426879883

> <r_mmod_Stretch_Energy-OPLS-2005>
127.175468444824

> <r_mmod_Bend_Energy-OPLS-2005>
250.764068603516

> <r_mmod_Torsional_Energy-OPLS-2005>
290.809844970703

> <r_mmod_Improper_Torsional_Energy-OPLS-2005>
9.69619178771973

> <r_mmod_Van_der_Waal_Energy-OPLS-2005>
128.149215698242

> <r_mmod_Electrostatic_Energy-OPLS-2005>
-514.953796386719

> <r_mmod_Solvation_Energy-OPLS-2005>
-217.337936401367

> <b_mmod_Minimization_Converged-OPLS-2005>
0

> <r_mmod_RMS_Derivative-OPLS-2005>
1.24191558361053

$$$$
52
                    3D
 Structure written by MMmdl.
176184  0  0  1  0            999 V2000
  -30.6807  -14.3446   20.5989 C   0  0  0  0  0  0
  -30.5237  -12.2000   19.4416 C   0  0  0  0  0  0
  -29.5004  -12.2482   18.2660 C   0  0  0  0  0  0
  -28.0120  -12.1164   18.7079 C   0  0  0  0  0  0
  -27.7526  -12.8953   20.0105 C   0  0  2  0  0  0
  -28.8083  -12.6107   21.0871 C   0  0  0  0  0  0
  -25.3572  -14.4171   20.4729 C   0  0  0  0  0  0
  -24.2719  -13.4443   20.8743 C   0  0  0  0  0  0
  -24.6279  -12.0023   20.8734 C   0  0  0  0  0  0
  -23.9086  -10.6457   21.0415 C   0  0  0  0  0  0
  -24.3690   -9.6058   21.9081 C   0  0  0  0  0  0
  -23.6777   -8.3691   22.0642 C   0  0  0  0  0  0
  -22.4795   -8.1162   21.3516 C   0  0  0  0  0  0
  -22.0397   -9.1144   20.4560 C   0  0  0  0  0  0
  -22.7372  -10.3371   20.3023 C   0  0  0  0  0  0
  -21.7315   -6.1145   22.5221 C   0  0  0  0  0  0
  -21.4324   -6.5911   23.8171 C   0  0  0  0  0  0
  -21.3693   -5.6968   24.9085 C   0  0  0  0  0  0
  -21.6023   -4.3220   24.7134 C   0  0  0  0  0  0
  -21.8824   -3.8396   23.4251 C   0  0  0  0  0  0
  -21.9368   -4.7284   22.3332 C   0  0  0  0  0  0
  -22.7967  -13.6524   21.2158 C   0  0  0  0  0  0
  -22.1746   -4.2406   21.0922 F   0  0  0  0  0  0
  -21.5448   -3.4625   25.7604 F   0  0  0  0  0  0
  -30.1055  -13.1038   20.5285 N   0  0  0  0  0  0
  -26.3029  -13.1620   20.4067 N   0  0  0  0  0  0
  -25.8769  -11.9099   20.6586 N   0  0  0  0  0  0
  -22.2159  -12.8606   22.1175 N   0  0  0  0  0  0
  -25.9379  -16.9453   19.8207 N   0  0  0  0  0  0
  -31.8090  -14.5882   20.1601 O   0  0  0  0  0  0
  -21.7400   -6.9456   21.4190 O   0  0  0  0  0  0
  -22.0780  -14.4740   20.6875 O   0  0  0  0  0  0
  -24.6590  -31.8298   23.1852 C   0  0  0  0  0  0
  -25.9344  -32.4562   23.8233 C   0  0  1  0  0  0
  -26.8662  -26.8451   20.2857 C   0  0  0  0  0  0
  -25.6029  -33.8399   24.2121 N   0  0  0  0  0  0
  -23.4555  -30.4717   21.5358 C   0  0  2  0  0  0
  -24.8601  -28.9048   20.0660 C   0  0  0  0  0  0
  -22.7624  -29.4469   22.4743 C   0  0  0  0  0  0
  -18.0284  -28.1392   22.8469 C   0  0  0  0  0  0
  -24.1525  -36.7214   23.2639 C   0  0  0  0  0  0
  -26.0278  -30.6164   21.4235 C   0  0  0  0  0  0
  -26.0349  -29.2128   20.7653 C   0  0  0  0  0  0
  -27.0701  -28.1886   20.8601 C   0  0  0  0  0  0
  -25.7938  -26.7599   19.3994 C   0  0  0  0  0  0
  -24.7813  -27.7216   19.3309 C   0  0  0  0  0  0
  -23.6761  -29.8537   20.1322 C   0  0  0  0  0  0
  -25.4149  -36.2940   24.0302 C   0  0  1  0  0  0
  -20.5918  -28.3722   23.1210 C   0  0  2  0  0  0
  -20.6786  -26.9416   22.5400 C   0  0  0  0  0  0
  -19.5763  -26.6370   21.5206 C   0  0  0  0  0  0
  -18.1940  -26.7922   22.1614 C   0  0  0  0  0  0
  -19.1563  -28.8869   23.2830 C   0  0  0  0  0  0
  -18.9465  -30.1463   23.8873 C   0  0  0  0  0  0
  -17.6462  -30.6594   24.0551 C   0  0  0  0  0  0
  -25.9112  -34.9325   23.5013 C   0  0  0  0  0  0
  -16.5345  -29.9091   23.6334 C   0  0  0  0  0  0
  -16.7262  -28.6496   23.0370 C   0  0  0  0  0  0
  -26.4578  -31.6495   25.0766 C   0  0  0  0  0  0
  -25.3752  -31.3750   26.1467 C   0  0  0  0  0  0
  -27.0399  -30.2822   24.6509 C   0  0  0  0  0  0
  -27.6057  -32.4328   25.7540 C   0  0  0  0  0  0
  -27.5576  -37.1759   24.8466 C   0  0  0  0  0  0
  -21.4297  -29.3021   22.3576 N   0  0  0  0  0  0
  -26.4280  -37.3684   23.9400 N   0  0  0  0  0  0
  -24.7383  -31.0012   22.0981 N   0  0  0  0  0  0
  -23.4251  -28.8009   23.2910 O   0  0  0  0  0  0
  -27.4444  -25.5229   20.5539 O   0  0  0  0  0  0
  -26.5733  -34.8850   22.4612 O   0  0  0  0  0  0
  -23.5674  -32.1353   23.6953 O   0  0  0  0  0  0
  -25.1484  -15.3786   18.3913 C   0  0  0  0  0  0
  -26.9287  -15.1805   18.9267 C   0  0  0  0  0  0
  -23.8995  -16.0325   19.6273 C   0  0  0  0  0  0
  -27.3617  -15.5318   20.8114 C   0  0  0  0  0  0
  -24.4239  -16.4773   21.3859 C   0  0  0  0  0  0
  -24.7802  -15.2208   16.9343 C   0  0  0  0  0  0
  -27.9950  -15.3033   17.8456 C   0  0  0  0  0  0
  -22.6513  -16.6853   19.0375 C   0  0  0  0  0  0
  -29.2303  -18.1502   21.7173 C   0  0  0  0  0  0
  -24.0822  -18.3066   23.2255 C   0  0  0  0  0  0
  -28.8648  -16.8573   22.4578 C   0  0  0  0  0  0
  -26.5070  -22.3845   20.9342 C   0  0  0  0  0  0
  -25.2859  -21.0742   21.2845 C   0  0  0  0  0  0
  -26.4548  -24.2051   20.8911 C   0  0  0  0  0  0
  -28.6906  -15.5864   21.5877 C   0  0  2  0  0  0
  -24.3237  -18.2015   21.7127 C   0  0  1  0  0  0
  -26.0662  -16.0798   21.9118 N   0  0  0  0  0  0
  -29.8929  -15.4067   20.7983 N   0  0  0  0  0  0
  -25.4040  -19.4018   21.2669 N   0  3  0  0  0  0
  -31.5119  -12.4518   19.0554 H   0  0  0  0  0  0
  -30.6363  -11.1906   19.8421 H   0  0  0  0  0  0
  -29.7179  -11.4195   17.5965 H   0  0  0  0  0  0
  -29.6639  -13.1485   17.6734 H   0  0  0  0  0  0
  -27.7675  -11.0704   18.8823 H   0  0  0  0  0  0
  -27.3557  -12.4390   17.9063 H   0  0  0  0  0  0
  -28.2682  -13.7228   19.6691 H   0  0  0  0  0  0
  -28.8633  -11.5273   21.2228 H   0  0  0  0  0  0
  -28.5580  -12.9322   22.0911 H   0  0  0  0  0  0
  -25.2698   -9.7751   22.4821 H   0  0  0  0  0  0
  -24.0818   -7.6260   22.7360 H   0  0  0  0  0  0
  -21.1462   -8.9478   19.8714 H   0  0  0  0  0  0
  -22.3477  -11.0707   19.6087 H   0  0  0  0  0  0
  -21.2382   -7.6404   23.9782 H   0  0  0  0  0  0
  -21.1401   -6.0625   25.8968 H   0  0  0  0  0  0
  -22.0498   -2.7861   23.2679 H   0  0  0  0  0  0
  -22.7213  -12.1231   22.5878 H   0  0  0  0  0  0
  -21.2280  -12.9532   22.3066 H   0  0  0  0  0  0
  -24.9507  -16.9969   19.5513 H   0  0  0  0  0  0
  -26.0894  -16.8598   20.8497 H   0  0  0  0  0  0
  -26.7421  -32.5023   23.0927 H   0  0  0  0  0  0
  -25.0103  -33.9515   25.0216 H   0  0  0  0  0  0
  -22.7603  -31.3058   21.4071 H   0  0  0  0  0  0
  -23.3766  -35.9562   23.3249 H   0  0  0  0  0  0
  -24.3607  -36.8913   22.2062 H   0  0  0  0  0  0
  -23.7332  -37.6404   23.6734 H   0  0  0  0  0  0
  -26.2375  -31.3500   20.6420 H   0  0  0  0  0  0
  -26.8858  -30.6373   22.0833 H   0  0  0  0  0  0
  -27.9291  -28.3629   21.4966 H   0  0  0  0  0  0
  -25.6322  -25.8501   18.8414 H   0  0  0  0  0  0
  -23.9111  -27.5148   18.7231 H   0  0  0  0  0  0
  -23.8511  -30.6538   19.4124 H   0  0  0  0  0  0
  -22.7715  -29.3490   19.7896 H   0  0  0  0  0  0
  -25.1346  -36.1720   25.0794 H   0  0  0  0  0  0
  -20.9994  -28.3282   24.1336 H   0  0  0  0  0  0
  -20.5680  -26.2310   23.3623 H   0  0  0  0  0  0
  -21.6652  -26.7428   22.1197 H   0  0  0  0  0  0
  -19.6958  -25.6277   21.1260 H   0  0  0  0  0  0
  -19.6719  -27.3163   20.6730 H   0  0  0  0  0  0
  -17.4213  -26.6624   21.4022 H   0  0  0  0  0  0
  -18.0365  -26.0074   22.9026 H   0  0  0  0  0  0
  -19.7934  -30.7283   24.2259 H   0  0  0  0  0  0
  -17.5003  -31.6278   24.5160 H   0  0  0  0  0  0
  -15.5355  -30.2996   23.7677 H   0  0  0  0  0  0
  -15.8641  -28.0816   22.7140 H   0  0  0  0  0  0
  -24.5975  -30.7007   25.7881 H   0  0  0  0  0  0
  -24.8900  -32.2927   26.4764 H   0  0  0  0  0  0
  -25.8062  -30.9079   27.0329 H   0  0  0  0  0  0
  -26.3002  -29.6537   24.1536 H   0  0  0  0  0  0
  -27.3869  -29.7163   25.5156 H   0  0  0  0  0  0
  -27.9009  -30.3915   23.9930 H   0  0  0  0  0  0
  -27.2601  -33.3703   26.1902 H   0  0  0  0  0  0
  -28.3933  -32.6770   25.0413 H   0  0  0  0  0  0
  -28.0634  -31.8621   26.5619 H   0  0  0  0  0  0
  -28.2541  -38.0093   24.7456 H   0  0  0  0  0  0
  -28.1107  -36.2597   24.6328 H   0  0  0  0  0  0
  -27.2276  -37.1451   25.8865 H   0  0  0  0  0  0
  -20.9524  -29.8752   21.6768 H   0  0  0  0  0  0
  -26.0105  -38.2727   24.1385 H   0  0  0  0  0  0
  -25.3309  -14.3775   16.5183 H   0  0  0  0  0  0
  -25.0240  -16.1238   16.3711 H   0  0  0  0  0  0
  -23.7135  -15.0198   16.8343 H   0  0  0  0  0  0
  -27.9353  -14.5074   17.1057 H   0  0  0  0  0  0
  -28.9861  -15.2973   18.2882 H   0  0  0  0  0  0
  -27.8734  -16.2587   17.3286 H   0  0  0  0  0  0
  -22.1803  -16.0511   18.2854 H   0  0  0  0  0  0
  -22.9117  -17.6323   18.5609 H   0  0  0  0  0  0
  -21.9186  -16.8899   19.8224 H   0  0  0  0  0  0
  -29.3660  -18.9605   22.4365 H   0  0  0  0  0  0
  -28.4550  -18.4464   21.0092 H   0  0  0  0  0  0
  -30.1682  -18.0522   21.1749 H   0  0  0  0  0  0
  -23.2338  -17.6893   23.5239 H   0  0  0  0  0  0
  -23.8967  -19.3328   23.5438 H   0  0  0  0  0  0
  -24.9448  -17.9317   23.7754 H   0  0  0  0  0  0
  -27.9963  -17.0329   23.0992 H   0  0  0  0  0  0
  -29.6630  -16.6425   23.1698 H   0  0  0  0  0  0
  -26.9350  -22.1110   19.9703 H   0  0  0  0  0  0
  -27.2993  -22.1611   21.6428 H   0  0  0  0  0  0
  -24.4386  -21.2787   20.6317 H   0  0  0  0  0  0
  -24.9102  -21.3005   22.2815 H   0  0  0  0  0  0
  -26.1909  -24.4440   21.9246 H   0  0  0  0  0  0
  -25.5242  -24.3892   20.3601 H   0  0  0  0  0  0
  -28.6156  -14.8557   22.3867 H   0  0  0  0  0  0
  -23.4047  -18.5013   21.2099 H   0  0  0  0  0  0
  -30.3653  -16.2808   20.6216 H   0  0  0  0  0  0
  -26.2181  -19.1747   21.8119 H   0  0  0  0  0  0
  -25.6498  -19.1305   20.3255 H   0  0  0  0  0  0
  1 25  1  0  0  0
  1 30  2  0  0  0
  1 88  1  0  0  0
  2  3  1  0  0  0
  2 25  1  0  0  0
  2 90  1  0  0  0
  2 91  1  0  0  0
  3  4  1  0  0  0
  3 92  1  0  0  0
  3 93  1  0  0  0
  4  5  1  0  0  0
  4 94  1  0  0  0
  4 95  1  0  0  0
  5  6  1  0  0  0
  5 26  1  0  0  0
  5 96  1  0  0  0
  6 25  1  0  0  0
  6 97  1  0  0  0
  6 98  1  0  0  0
  7  8  2  0  0  0
  7 26  1  0  0  0
  7 29  1  0  0  0
  8  9  1  0  0  0
  8 22  1  0  0  0
  9 10  1  0  0  0
  9 27  2  0  0  0
 10 11  2  0  0  0
 10 15  1  0  0  0
 11 12  1  0  0  0
 11 99  1  0  0  0
 12 13  2  0  0  0
 12100  1  0  0  0
 13 14  1  0  0  0
 13 31  1  0  0  0
 14 15  2  0  0  0
 14101  1  0  0  0
 15102  1  0  0  0
 16 17  2  0  0  0
 16 21  1  0  0  0
 16 31  1  0  0  0
 17 18  1  0  0  0
 17103  1  0  0  0
 18 19  2  0  0  0
 18104  1  0  0  0
 19 20  1  0  0  0
 19 24  1  0  0  0
 20 21  2  0  0  0
 20105  1  0  0  0
 21 23  1  0  0  0
 22 28  1  0  0  0
 22 32  2  0  0  0
 26 27  1  0  0  0
 28106  1  0  0  0
 28107  1  0  0  0
 29108  1  0  0  0
 29109  1  0  0  0
 33 34  1  0  0  0
 33 66  1  0  0  0
 33 70  2  0  0  0
 34 36  1  0  0  0
 34 59  1  0  0  0
 34110  1  0  0  0
 35 44  2  0  0  0
 35 45  1  0  0  0
 35 68  1  0  0  0
 36 56  1  0  0  0
 36111  1  0  0  0
 37 39  1  0  0  0
 37 47  1  0  0  0
 37 66  1  0  0  0
 37112  1  0  0  0
 38 43  2  0  0  0
 38 46  1  0  0  0
 38 47  1  0  0  0
 39 64  1  0  0  0
 39 67  2  0  0  0
 40 52  1  0  0  0
 40 53  2  0  0  0
 40 58  1  0  0  0
 41113  1  0  0  0
 41114  1  0  0  0
 41115  1  0  0  0
 41 48  1  0  0  0
 42 43  1  0  0  0
 42 66  1  0  0  0
 42116  1  0  0  0
 42117  1  0  0  0
 43 44  1  0  0  0
 44118  1  0  0  0
 45 46  2  0  0  0
 45119  1  0  0  0
 46120  1  0  0  0
 47121  1  0  0  0
 47122  1  0  0  0
 48 56  1  0  0  0
 48 65  1  0  0  0
 48123  1  0  0  0
 49 50  1  0  0  0
 49 53  1  0  0  0
 49 64  1  0  0  0
 49124  1  0  0  0
 50 51  1  0  0  0
 50125  1  0  0  0
 50126  1  0  0  0
 51 52  1  0  0  0
 51127  1  0  0  0
 51128  1  0  0  0
 52129  1  0  0  0
 52130  1  0  0  0
 53 54  1  0  0  0
 54 55  2  0  0  0
 54131  1  0  0  0
 55 57  1  0  0  0
 55132  1  0  0  0
 56 69  2  0  0  0
 57 58  2  0  0  0
 57133  1  0  0  0
 58134  1  0  0  0
 59 60  1  0  0  0
 59 61  1  0  0  0
 59 62  1  0  0  0
 60135  1  0  0  0
 60136  1  0  0  0
 60137  1  0  0  0
 61138  1  0  0  0
 61139  1  0  0  0
 61140  1  0  0  0
 62141  1  0  0  0
 62142  1  0  0  0
 62143  1  0  0  0
 63 65  1  0  0  0
 63144  1  0  0  0
 63145  1  0  0  0
 63146  1  0  0  0
 64147  1  0  0  0
 65148  1  0  0  0
 68 84  1  0  0  0
 71 72  2  0  0  0
 71 73  1  0  0  0
 71 76  1  0  0  0
 72 74  1  0  0  0
 72 77  1  0  0  0
 73 75  2  0  0  0
 73 78  1  0  0  0
 74 85  1  0  0  0
 74 87  2  0  0  0
 75 86  1  0  0  0
 75 87  1  0  0  0
 76149  1  0  0  0
 76150  1  0  0  0
 76151  1  0  0  0
 77152  1  0  0  0
 77153  1  0  0  0
 77154  1  0  0  0
 78155  1  0  0  0
 78156  1  0  0  0
 78157  1  0  0  0
 79 81  1  0  0  0
 79158  1  0  0  0
 79159  1  0  0  0
 79160  1  0  0  0
 80161  1  0  0  0
 80162  1  0  0  0
 80163  1  0  0  0
 80 86  1  0  0  0
 81164  1  0  0  0
 81165  1  0  0  0
 81 85  1  0  0  0
 82 83  1  0  0  0
 82 84  1  0  0  0
 82166  1  0  0  0
 82167  1  0  0  0
 83 89  1  0  0  0
 83168  1  0  0  0
 83169  1  0  0  0
 84170  1  0  0  0
 84171  1  0  0  0
 85 88  1  0  0  0
 85172  1  0  0  0
 86 89  1  0  0  0
 86173  1  0  0  0
 88174  1  0  0  0
 89175  1  0  0  0
 89176  1  0  0  0
M  CHG  1  89   1
M  ISO  4   1 100  68 101  84 101  88 100
M  END
> <chiral flag>
0

> <version>
0

> <s_m_source_file>
/data/baiqing/PycharmProjects/Reinvent-master-3.2/result/LINK_invent/BTK/process_docking_weight1_custom_sum_contain_oxygen_bond_distance_aromatic_linkinvent_7_9_3/rearranged_h_0168.sdf

> <i_m_source_file_index>
53

> <r_mmod_Potential_Energy-OPLS-2005>
10303.5341796875

> <r_mmod_Stretch_Energy-OPLS-2005>
6378.1376953125

> <r_mmod_Bend_Energy-OPLS-2005>
741.714416503906

> <r_mmod_Torsional_Energy-OPLS-2005>
413.241149902344

> <r_mmod_Improper_Torsional_Energy-OPLS-2005>
54.4526176452637

> <r_mmod_Van_der_Waal_Energy-OPLS-2005>
2930.23486328125

> <r_mmod_Electrostatic_Energy-OPLS-2005>
-734.668823242188

> <r_mmod_Solvation_Energy-OPLS-2005>
-427.255920410156

> <b_mmod_Minimization_Converged-OPLS-2005>
0

> <r_mmod_RMS_Derivative-OPLS-2005>
13.2156324386597

$$$$
53
                    3D
 Structure written by MMmdl.
161170  0  0  1  0            999 V2000
  -30.6795  -14.5825   20.5014 C   0  0  0  0  0  0
  -30.4250  -12.3566   19.4533 C   0  0  0  0  0  0
  -29.5060  -12.4958   18.2216 C   0  0  0  0  0  0
  -28.0262  -12.3510   18.6299 C   0  0  0  0  0  0
  -27.6535  -13.2184   19.8628 C   0  0  2  0  0  0
  -28.6972  -13.0785   20.9927 C   0  0  0  0  0  0
  -25.2557  -13.8175   20.5675 C   0  0  0  0  0  0
  -24.1821  -13.0451   20.9177 C   0  0  0  0  0  0
  -24.6397  -11.6914   20.8734 C   0  0  0  0  0  0
  -23.9059  -10.4301   21.0403 C   0  0  0  0  0  0
  -24.3615   -9.4213   21.9179 C   0  0  0  0  0  0
  -23.6282   -8.2253   22.0750 C   0  0  0  0  0  0
  -22.4260   -8.0294   21.3552 C   0  0  0  0  0  0
  -21.9897   -9.0271   20.4655 C   0  0  0  0  0  0
  -22.7233  -10.2146   20.3057 C   0  0  0  0  0  0
  -21.6868   -6.0727   22.5266 C   0  0  0  0  0  0
  -21.4037   -6.5628   23.8205 C   0  0  0  0  0  0
  -21.3651   -5.6781   24.9166 C   0  0  0  0  0  0
  -21.6039   -4.3048   24.7214 C   0  0  0  0  0  0
  -21.8830   -3.8135   23.4342 C   0  0  0  0  0  0
  -21.9204   -4.6953   22.3396 C   0  0  0  0  0  0
  -22.7839  -13.5238   21.1829 C   0  0  0  0  0  0
  -22.1665   -4.2137   21.0974 F   0  0  0  0  0  0
  -21.5616   -3.4534   25.7732 F   0  0  0  0  0  0
  -30.0144  -13.3905   20.4213 N   0  0  0  0  0  0
  -26.2991  -12.9359   20.3330 N   0  0  0  0  0  0
  -25.9329  -11.6512   20.5758 N   0  0  0  0  0  0
  -22.0486  -12.8243   22.0407 N   0  0  0  0  0  0
  -25.4273  -15.1890   20.4054 N   0  0  0  0  0  0
  -31.8566  -14.6812   20.1407 O   0  0  0  0  0  0
  -21.6644   -6.8877   21.4237 O   0  0  0  0  0  0
  -22.3519  -14.5531   20.6673 O   0  0  0  0  0  0
  -24.6210  -31.8632   23.2052 C   0  0  0  0  0  0
  -25.9081  -32.4788   23.8376 C   0  0  1  0  0  0
  -27.2330  -27.3737   20.1206 C   0  0  0  0  0  0
  -25.5921  -33.8580   24.2312 N   0  0  0  0  0  0
  -23.4136  -30.4867   21.5437 C   0  0  2  0  0  0
  -24.8671  -28.9494   20.1085 C   0  0  0  0  0  0
  -22.7449  -29.4636   22.4915 C   0  0  0  0  0  0
  -18.0289  -28.1377   22.8467 C   0  0  0  0  0  0
  -24.1485  -36.7285   23.2628 C   0  0  0  0  0  0
  -25.9491  -30.8120   21.3702 C   0  0  0  0  0  0
  -26.0304  -29.4429   20.7148 C   0  0  0  0  0  0
  -27.2206  -28.6642   20.7173 C   0  0  0  0  0  0
  -26.0565  -26.9216   19.4868 C   0  0  0  0  0  0
  -24.8779  -27.6902   19.4873 C   0  0  0  0  0  0
  -23.6311  -29.8225   20.1576 C   0  0  0  0  0  0
  -25.4102  -36.3071   24.0332 C   0  0  1  0  0  0
  -20.5884  -28.3672   23.1259 C   0  0  2  0  0  0
  -20.6771  -26.9394   22.5385 C   0  0  0  0  0  0
  -19.5756  -26.6376   21.5176 C   0  0  0  0  0  0
  -18.1941  -26.7911   22.1600 C   0  0  0  0  0  0
  -19.1535  -28.8835   23.2864 C   0  0  0  0  0  0
  -18.9475  -30.1435   23.8888 C   0  0  0  0  0  0
  -17.6477  -30.6572   24.0563 C   0  0  0  0  0  0
  -25.9040  -34.9452   23.5123 C   0  0  0  0  0  0
  -16.5362  -29.9076   23.6322 C   0  0  0  0  0  0
  -16.7282  -28.6491   23.0337 C   0  0  0  0  0  0
  -26.4494  -31.6559   25.0714 C   0  0  0  0  0  0
  -25.3773  -31.3739   26.1495 C   0  0  0  0  0  0
  -27.0267  -30.2959   24.6130 C   0  0  0  0  0  0
  -27.6105  -32.4232   25.7451 C   0  0  0  0  0  0
  -27.5579  -37.1779   24.8458 C   0  0  0  0  0  0
  -21.4158  -29.3035   22.3652 N   0  0  0  0  0  0
  -26.4271  -37.3777   23.9429 N   0  0  0  0  0  0
  -24.6787  -31.0697   22.0971 N   0  0  0  0  0  0
  -23.4187  -28.8164   23.2971 O   0  0  0  0  0  0
  -28.3232  -26.5098   20.1730 O   0  0  0  0  0  0
  -26.5593  -34.8911   22.4674 O   0  0  0  0  0  0
  -23.5387  -32.1407   23.7410 O   0  0  0  0  0  0
  -30.0875  -23.7810   21.4162 C   0  0  0  0  0  0
  -30.6235  -22.4700   21.4458 C   0  0  0  0  0  0
  -28.8207  -24.0118   20.8380 C   0  0  0  0  0  0
  -28.1880  -22.8694   20.2668 C   0  0  0  0  0  0
  -29.8976  -21.3865   20.9114 C   0  0  0  0  0  0
  -29.9373  -17.7938   21.9745 C   0  0  0  0  0  0
  -30.3946  -18.0396   19.5615 C   0  0  0  0  0  0
  -29.3674  -16.3587   21.7272 C   0  0  0  0  0  0
  -29.8245  -16.6074   19.3345 C   0  0  0  0  0  0
  -29.7759  -18.7718   20.7756 C   0  0  0  0  0  0
  -26.8319  -22.9777   19.5971 C   0  0  0  0  0  0
  -28.0921  -25.3755   21.0657 C   0  0  0  0  0  0
  -28.7084  -21.6029   20.3066 N   0  0  0  0  0  0
  -29.9002  -15.7120   20.5128 N   0  0  0  0  0  0
  -30.4348  -20.0773   21.0320 N   0  0  0  0  0  0
  -31.4700  -12.4523   19.1560 H   0  0  0  0  0  0
  -30.3307  -11.3641   19.8973 H   0  0  0  0  0  0
  -29.7626  -11.7445   17.4736 H   0  0  0  0  0  0
  -29.6669  -13.4650   17.7446 H   0  0  0  0  0  0
  -27.8502  -11.2970   18.8504 H   0  0  0  0  0  0
  -27.3786  -12.5964   17.7878 H   0  0  0  0  0  0
  -27.6714  -14.2550   19.5252 H   0  0  0  0  0  0
  -28.6941  -12.0651   21.3956 H   0  0  0  0  0  0
  -28.4550  -13.7358   21.8275 H   0  0  0  0  0  0
  -25.2769   -9.5689   22.4742 H   0  0  0  0  0  0
  -24.0012   -7.4638   22.7453 H   0  0  0  0  0  0
  -21.0836   -8.8795   19.8946 H   0  0  0  0  0  0
  -22.3700  -10.9685   19.6159 H   0  0  0  0  0  0
  -21.2048   -7.6142   23.9700 H   0  0  0  0  0  0
  -21.1445   -6.0513   25.9065 H   0  0  0  0  0  0
  -22.0615   -2.7601   23.2851 H   0  0  0  0  0  0
  -22.4109  -11.9942   22.4844 H   0  0  0  0  0  0
  -21.1097  -13.1262   22.2578 H   0  0  0  0  0  0
  -24.6614  -15.8465   20.4993 H   0  0  0  0  0  0
  -26.2828  -15.6196   20.0793 H   0  0  0  0  0  0
  -26.7148  -32.5492   23.1128 H   0  0  0  0  0  0
  -25.0107  -33.9741   25.0485 H   0  0  0  0  0  0
  -22.7043  -31.3046   21.3993 H   0  0  0  0  0  0
  -23.3762  -35.9597   23.3254 H   0  0  0  0  0  0
  -24.3608  -36.8947   22.2052 H   0  0  0  0  0  0
  -23.7210  -37.6461   23.6681 H   0  0  0  0  0  0
  -26.0757  -31.5791   20.6051 H   0  0  0  0  0  0
  -26.8299  -30.8616   21.9977 H   0  0  0  0  0  0
  -28.1106  -29.0335   21.2076 H   0  0  0  0  0  0
  -26.0447  -25.9525   19.0115 H   0  0  0  0  0  0
  -23.9866  -27.3017   19.0137 H   0  0  0  0  0  0
  -23.7486  -30.5998   19.4005 H   0  0  0  0  0  0
  -22.7542  -29.2479   19.8530 H   0  0  0  0  0  0
  -25.1263  -36.1921   25.0818 H   0  0  0  0  0  0
  -20.9979  -28.3258   24.1375 H   0  0  0  0  0  0
  -20.5620  -26.2294   23.3586 H   0  0  0  0  0  0
  -21.6657  -26.7400   22.1217 H   0  0  0  0  0  0
  -19.6918  -25.6285   21.1215 H   0  0  0  0  0  0
  -19.6681  -27.3178   20.6698 H   0  0  0  0  0  0
  -17.4188  -26.6609   21.4038 H   0  0  0  0  0  0
  -18.0382  -26.0067   22.9011 H   0  0  0  0  0  0
  -19.7966  -30.7241   24.2252 H   0  0  0  0  0  0
  -17.5049  -31.6254   24.5164 H   0  0  0  0  0  0
  -15.5368  -30.2979   23.7652 H   0  0  0  0  0  0
  -15.8678  -28.0812   22.7053 H   0  0  0  0  0  0
  -24.5813  -30.7240   25.7852 H   0  0  0  0  0  0
  -24.9154  -32.2950   26.5062 H   0  0  0  0  0  0
  -25.8117  -30.8771   27.0181 H   0  0  0  0  0  0
  -26.2782  -29.6729   24.1217 H   0  0  0  0  0  0
  -27.4018  -29.7199   25.4605 H   0  0  0  0  0  0
  -27.8660  -30.4214   23.9280 H   0  0  0  0  0  0
  -27.2796  -33.3580   26.1992 H   0  0  0  0  0  0
  -28.3938  -32.6684   25.0261 H   0  0  0  0  0  0
  -28.0725  -31.8345   26.5391 H   0  0  0  0  0  0
  -28.2563  -38.0108   24.7552 H   0  0  0  0  0  0
  -28.1097  -36.2645   24.6195 H   0  0  0  0  0  0
  -27.2328  -37.1349   25.8866 H   0  0  0  0  0  0
  -20.9310  -29.8790   21.6905 H   0  0  0  0  0  0
  -26.0148  -38.2832   24.1487 H   0  0  0  0  0  0
  -30.6221  -24.5886   21.8960 H   0  0  0  0  0  0
  -31.5801  -22.3099   21.9244 H   0  0  0  0  0  0
  -30.9966  -17.6962   22.2208 H   0  0  0  0  0  0
  -29.4636  -18.2186   22.8600 H   0  0  0  0  0  0
  -30.2422  -18.6341   18.6587 H   0  0  0  0  0  0
  -31.4756  -17.9634   19.6911 H   0  0  0  0  0  0
  -28.2824  -16.4105   21.6301 H   0  0  0  0  0  0
  -29.5616  -15.7356   22.6024 H   0  0  0  0  0  0
  -30.3284  -16.1539   18.4787 H   0  0  0  0  0  0
  -28.7765  -16.6814   19.0429 H   0  0  0  0  0  0
  -28.7133  -18.9366   20.5952 H   0  0  0  0  0  0
  -26.8429  -23.7690   18.8482 H   0  0  0  0  0  0
  -26.0565  -23.2025   20.3290 H   0  0  0  0  0  0
  -26.5571  -22.0505   19.0920 H   0  0  0  0  0  0
  -28.3811  -25.7164   22.0616 H   0  0  0  0  0  0
  -27.0296  -25.1589   21.1660 H   0  0  0  0  0  0
  -31.3282  -20.0205   21.5086 H   0  0  0  0  0  0
  1 25  1  0  0  0
  1 30  2  0  0  0
  1 84  1  0  0  0
  2  3  1  0  0  0
  2 25  1  0  0  0
  2 86  1  0  0  0
  2 87  1  0  0  0
  3  4  1  0  0  0
  3 88  1  0  0  0
  3 89  1  0  0  0
  4  5  1  0  0  0
  4 90  1  0  0  0
  4 91  1  0  0  0
  5  6  1  0  0  0
  5 26  1  0  0  0
  5 92  1  0  0  0
  6 25  1  0  0  0
  6 93  1  0  0  0
  6 94  1  0  0  0
  7  8  2  0  0  0
  7 26  1  0  0  0
  7 29  1  0  0  0
  8  9  1  0  0  0
  8 22  1  0  0  0
  9 10  1  0  0  0
  9 27  2  0  0  0
 10 11  2  0  0  0
 10 15  1  0  0  0
 11 12  1  0  0  0
 11 95  1  0  0  0
 12 13  2  0  0  0
 12 96  1  0  0  0
 13 14  1  0  0  0
 13 31  1  0  0  0
 14 15  2  0  0  0
 14 97  1  0  0  0
 15 98  1  0  0  0
 16 17  2  0  0  0
 16 21  1  0  0  0
 16 31  1  0  0  0
 17 18  1  0  0  0
 17 99  1  0  0  0
 18 19  2  0  0  0
 18100  1  0  0  0
 19 20  1  0  0  0
 19 24  1  0  0  0
 20 21  2  0  0  0
 20101  1  0  0  0
 21 23  1  0  0  0
 22 28  1  0  0  0
 22 32  2  0  0  0
 26 27  1  0  0  0
 28102  1  0  0  0
 28103  1  0  0  0
 29104  1  0  0  0
 29105  1  0  0  0
 33 34  1  0  0  0
 33 66  1  0  0  0
 33 70  2  0  0  0
 34 36  1  0  0  0
 34 59  1  0  0  0
 34106  1  0  0  0
 35 44  2  0  0  0
 35 45  1  0  0  0
 35 68  1  0  0  0
 36 56  1  0  0  0
 36107  1  0  0  0
 37 39  1  0  0  0
 37 47  1  0  0  0
 37 66  1  0  0  0
 37108  1  0  0  0
 38 43  2  0  0  0
 38 46  1  0  0  0
 38 47  1  0  0  0
 39 64  1  0  0  0
 39 67  2  0  0  0
 40 52  1  0  0  0
 40 53  2  0  0  0
 40 58  1  0  0  0
 41109  1  0  0  0
 41110  1  0  0  0
 41111  1  0  0  0
 41 48  1  0  0  0
 42 43  1  0  0  0
 42 66  1  0  0  0
 42112  1  0  0  0
 42113  1  0  0  0
 43 44  1  0  0  0
 44114  1  0  0  0
 45 46  2  0  0  0
 45115  1  0  0  0
 46116  1  0  0  0
 47117  1  0  0  0
 47118  1  0  0  0
 48 56  1  0  0  0
 48 65  1  0  0  0
 48119  1  0  0  0
 49 50  1  0  0  0
 49 53  1  0  0  0
 49 64  1  0  0  0
 49120  1  0  0  0
 50 51  1  0  0  0
 50121  1  0  0  0
 50122  1  0  0  0
 51 52  1  0  0  0
 51123  1  0  0  0
 51124  1  0  0  0
 52125  1  0  0  0
 52126  1  0  0  0
 53 54  1  0  0  0
 54 55  2  0  0  0
 54127  1  0  0  0
 55 57  1  0  0  0
 55128  1  0  0  0
 56 69  2  0  0  0
 57 58  2  0  0  0
 57129  1  0  0  0
 58130  1  0  0  0
 59 60  1  0  0  0
 59 61  1  0  0  0
 59 62  1  0  0  0
 60131  1  0  0  0
 60132  1  0  0  0
 60133  1  0  0  0
 61134  1  0  0  0
 61135  1  0  0  0
 61136  1  0  0  0
 62137  1  0  0  0
 62138  1  0  0  0
 62139  1  0  0  0
 63 65  1  0  0  0
 63140  1  0  0  0
 63141  1  0  0  0
 63142  1  0  0  0
 64143  1  0  0  0
 65144  1  0  0  0
 68 82  1  0  0  0
 71 72  2  0  0  0
 71 73  1  0  0  0
 71145  1  0  0  0
 72 75  1  0  0  0
 72146  1  0  0  0
 73 74  2  0  0  0
 73 82  1  0  0  0
 74 81  1  0  0  0
 74 83  1  0  0  0
 75 83  2  0  0  0
 75 85  1  0  0  0
 76 78  1  0  0  0
 76 80  1  0  0  0
 76147  1  0  0  0
 76148  1  0  0  0
 77 79  1  0  0  0
 77 80  1  0  0  0
 77149  1  0  0  0
 77150  1  0  0  0
 78 84  1  0  0  0
 78151  1  0  0  0
 78152  1  0  0  0
 79 84  1  0  0  0
 79153  1  0  0  0
 79154  1  0  0  0
 80 85  1  0  0  0
 80155  1  0  0  0
 81156  1  0  0  0
 81157  1  0  0  0
 81158  1  0  0  0
 82159  1  0  0  0
 82160  1  0  0  0
 85161  1  0  0  0
M  ISO  4   1 100  68 101  82 101  84 100
M  END
> <chiral flag>
0

> <version>
0

> <s_m_source_file>
/data/baiqing/PycharmProjects/Reinvent-master-3.2/result/LINK_invent/BTK/process_docking_weight1_custom_sum_contain_oxygen_bond_distance_aromatic_linkinvent_7_9_3/rearranged_h_0168.sdf

> <i_m_source_file_index>
54

> <r_mmod_Potential_Energy-OPLS-2005>
44.5514183044434

> <r_mmod_Stretch_Energy-OPLS-2005>
57.508243560791

> <r_mmod_Bend_Energy-OPLS-2005>
135.720520019531

> <r_mmod_Torsional_Energy-OPLS-2005>
356.953002929688

> <r_mmod_Improper_Torsional_Energy-OPLS-2005>
17.4733142852783

> <r_mmod_Van_der_Waal_Energy-OPLS-2005>
142.303558349609

> <r_mmod_Electrostatic_Energy-OPLS-2005>
-481.736663818359

> <r_mmod_Solvation_Energy-OPLS-2005>
-219.503341674805

> <b_mmod_Minimization_Converged-OPLS-2005>
0

> <r_mmod_RMS_Derivative-OPLS-2005>
2.15816116333008

$$$$
54
                    3D
 Structure written by MMmdl.
184193  0  0  1  0            999 V2000
  -30.6489  -14.4917   20.5869 C   0  0  0  0  0  0
  -30.4431  -12.3267   19.4036 C   0  0  0  0  0  0
  -29.4965  -12.5199   18.1984 C   0  0  0  0  0  0
  -28.0165  -12.3760   18.6123 C   0  0  0  0  0  0
  -27.6658  -13.1976   19.8813 C   0  0  2  0  0  0
  -28.7110  -12.9320   20.9893 C   0  0  0  0  0  0
  -25.2587  -13.8103   20.5692 C   0  0  0  0  0  0
  -24.1838  -13.0396   20.9204 C   0  0  0  0  0  0
  -24.6388  -11.6872   20.8754 C   0  0  0  0  0  0
  -23.9049  -10.4268   21.0419 C   0  0  0  0  0  0
  -24.3594   -9.4186   21.9194 C   0  0  0  0  0  0
  -23.6262   -8.2212   22.0752 C   0  0  0  0  0  0
  -22.4255   -8.0259   21.3530 C   0  0  0  0  0  0
  -21.9896   -9.0249   20.4640 C   0  0  0  0  0  0
  -22.7218  -10.2128   20.3059 C   0  0  0  0  0  0
  -21.6847   -6.0726   22.5290 C   0  0  0  0  0  0
  -21.3999   -6.5635   23.8222 C   0  0  0  0  0  0
  -21.3657   -5.6780   24.9182 C   0  0  0  0  0  0
  -21.6052   -4.3043   24.7230 C   0  0  0  0  0  0
  -21.8822   -3.8134   23.4340 C   0  0  0  0  0  0
  -21.9185   -4.6948   22.3401 C   0  0  0  0  0  0
  -22.7862  -13.5224   21.1850 C   0  0  0  0  0  0
  -22.1660   -4.2136   21.0976 F   0  0  0  0  0  0
  -21.5627   -3.4522   25.7728 F   0  0  0  0  0  0
  -30.0408  -13.2797   20.4484 N   0  0  0  0  0  0
  -26.3037  -12.9279   20.3389 N   0  0  0  0  0  0
  -25.9321  -11.6449   20.5776 N   0  0  0  0  0  0
  -22.0451  -12.8259   22.0401 N   0  0  0  0  0  0
  -25.4254  -15.1817   20.4078 N   0  0  0  0  0  0
  -31.7591  -14.7500   20.1094 O   0  0  0  0  0  0
  -21.6606   -6.8870   21.4253 O   0  0  0  0  0  0
  -22.3584  -14.5535   20.6679 O   0  0  0  0  0  0
  -24.6177  -31.8633   23.2083 C   0  0  0  0  0  0
  -25.9058  -32.4796   23.8369 C   0  0  1  0  0  0
  -27.2413  -27.4104   20.0800 C   0  0  0  0  0  0
  -25.5886  -33.8584   24.2291 N   0  0  0  0  0  0
  -23.4065  -30.4855   21.5491 C   0  0  2  0  0  0
  -24.8541  -28.9471   20.1091 C   0  0  0  0  0  0
  -22.7431  -29.4624   22.4985 C   0  0  0  0  0  0
  -18.0262  -28.1401   22.8484 C   0  0  0  0  0  0
  -24.1489  -36.7306   23.2641 C   0  0  0  0  0  0
  -25.9368  -30.8157   21.3678 C   0  0  0  0  0  0
  -26.0102  -29.4471   20.7171 C   0  0  0  0  0  0
  -27.1984  -28.6778   20.7141 C   0  0  0  0  0  0
  -26.0651  -26.9367   19.4533 C   0  0  0  0  0  0
  -24.8755  -27.6902   19.4791 C   0  0  0  0  0  0
  -23.6172  -29.8166   20.1631 C   0  0  0  0  0  0
  -25.4105  -36.3085   24.0340 C   0  0  1  0  0  0
  -20.5852  -28.3662   23.1337 C   0  0  2  0  0  0
  -20.6753  -26.9398   22.5426 C   0  0  0  0  0  0
  -19.5735  -26.6394   21.5224 C   0  0  0  0  0  0
  -18.1913  -26.7953   22.1623 C   0  0  0  0  0  0
  -19.1515  -28.8855   23.2909 C   0  0  0  0  0  0
  -18.9438  -30.1473   23.8897 C   0  0  0  0  0  0
  -17.6432  -30.6603   24.0566 C   0  0  0  0  0  0
  -25.9025  -34.9456   23.5118 C   0  0  0  0  0  0
  -16.5320  -29.9091   23.6340 C   0  0  0  0  0  0
  -16.7258  -28.6524   23.0341 C   0  0  0  0  0  0
  -26.4473  -31.6598   25.0719 C   0  0  0  0  0  0
  -25.3746  -31.3719   26.1480 C   0  0  0  0  0  0
  -27.0278  -30.3027   24.6099 C   0  0  0  0  0  0
  -27.6044  -32.4325   25.7473 C   0  0  0  0  0  0
  -27.5585  -37.1799   24.8461 C   0  0  0  0  0  0
  -21.4148  -29.3025   22.3756 N   0  0  0  0  0  0
  -26.4282  -37.3787   23.9422 N   0  0  0  0  0  0
  -24.6716  -31.0707   22.1000 N   0  0  0  0  0  0
  -23.4212  -28.8161   23.3024 O   0  0  0  0  0  0
  -28.4099  -26.6684   20.1444 O   0  0  0  0  0  0
  -26.5591  -34.8918   22.4678 O   0  0  0  0  0  0
  -23.5366  -32.1391   23.7458 O   0  0  0  0  0  0
  -30.6882  -19.0786   21.4392 C   0  0  0  0  0  0
  -30.8887  -17.6781   21.3959 C   0  0  0  0  0  0
  -28.5859  -17.4084   20.7355 C   0  0  0  0  0  0
  -29.4323  -19.6940   21.1531 C   0  0  0  0  0  0
  -28.3775  -18.8102   20.7534 C   0  0  0  0  0  0
  -29.8215  -16.8234   21.0684 C   0  0  0  0  0  0
  -30.2591  -23.4335   20.6307 C   0  0  0  0  0  0
  -28.4548  -21.9933   20.2859 C   0  0  0  0  0  0
  -30.5815  -22.0805   21.3302 C   0  0  2  0  0  0
  -29.2507  -21.2438   21.3973 C   0  0  2  0  0  0
  -26.9826  -19.2694   20.3505 C   0  0  0  0  0  0
  -31.3443  -22.2786   22.6622 C   0  0  0  0  0  0
  -28.3208  -18.1820   25.5262 C   0  0  0  0  0  0
  -29.4763  -19.9724   26.9245 C   0  0  0  0  0  0
  -28.4469  -21.4566   22.7244 C   0  0  0  0  0  0
  -28.2990  -24.2507   19.2144 C   0  0  0  0  0  0
  -27.9293  -20.6617   25.0031 C   0  0  0  0  0  0
  -28.7660  -25.7390   19.1020 C   0  0  0  0  0  0
  -28.2390  -19.6126   26.0883 C   0  0  0  0  0  0
  -29.8726  -15.4041   21.2060 N   0  0  0  0  0  0
  -28.8089  -23.4340   20.3636 N   0  3  2  0  0  0
  -28.8782  -20.6182   23.8667 N   0  3  0  0  0  0
  -31.4810  -12.4701   19.0949 H   0  0  0  0  0  0
  -30.3803  -11.3043   19.7793 H   0  0  0  0  0  0
  -29.7372  -11.8026   17.4133 H   0  0  0  0  0  0
  -29.6570  -13.5090   17.7652 H   0  0  0  0  0  0
  -27.8231  -11.3186   18.7931 H   0  0  0  0  0  0
  -27.3640  -12.6659   17.7881 H   0  0  0  0  0  0
  -27.7191  -14.2511   19.6070 H   0  0  0  0  0  0
  -28.6981  -11.8781   21.2721 H   0  0  0  0  0  0
  -28.4624  -13.4686   21.9059 H   0  0  0  0  0  0
  -25.2739   -9.5655   22.4769 H   0  0  0  0  0  0
  -23.9944   -7.4597   22.7481 H   0  0  0  0  0  0
  -21.0816   -8.8794   19.8952 H   0  0  0  0  0  0
  -22.3691  -10.9667   19.6165 H   0  0  0  0  0  0
  -21.1989   -7.6143   23.9734 H   0  0  0  0  0  0
  -21.1490   -6.0491   25.9091 H   0  0  0  0  0  0
  -22.0603   -2.7598   23.2819 H   0  0  0  0  0  0
  -22.3985  -11.9888   22.4803 H   0  0  0  0  0  0
  -21.1101  -13.1377   22.2602 H   0  0  0  0  0  0
  -24.6490  -15.8227   20.5249 H   0  0  0  0  0  0
  -26.2472  -15.6175   20.0144 H   0  0  0  0  0  0
  -26.7122  -32.5487   23.1125 H   0  0  0  0  0  0
  -25.0053  -33.9735   25.0451 H   0  0  0  0  0  0
  -22.6961  -31.3023   21.4081 H   0  0  0  0  0  0
  -23.3751  -35.9638   23.3272 H   0  0  0  0  0  0
  -24.3587  -36.8941   22.2060 H   0  0  0  0  0  0
  -23.7235  -37.6502   23.6666 H   0  0  0  0  0  0
  -26.0535  -31.5775   20.5964 H   0  0  0  0  0  0
  -26.8257  -30.8698   21.9841 H   0  0  0  0  0  0
  -28.0877  -29.0519   21.2011 H   0  0  0  0  0  0
  -26.0374  -25.9814   18.9547 H   0  0  0  0  0  0
  -23.9837  -27.3026   19.0047 H   0  0  0  0  0  0
  -23.7259  -30.5882   19.4013 H   0  0  0  0  0  0
  -22.7426  -29.2336   19.8697 H   0  0  0  0  0  0
  -25.1290  -36.1928   25.0833 H   0  0  0  0  0  0
  -20.9932  -28.3212   24.1469 H   0  0  0  0  0  0
  -20.5672  -26.2256   23.3604 H   0  0  0  0  0  0
  -21.6631  -26.7456   22.1215 H   0  0  0  0  0  0
  -19.6879  -25.6310   21.1257 H   0  0  0  0  0  0
  -19.6709  -27.3208   20.6757 H   0  0  0  0  0  0
  -17.4202  -26.6717   21.4012 H   0  0  0  0  0  0
  -18.0288  -26.0109   22.9022 H   0  0  0  0  0  0
  -19.7909  -30.7303   24.2257 H   0  0  0  0  0  0
  -17.4986  -31.6281   24.5166 H   0  0  0  0  0  0
  -15.5322  -30.2981   23.7698 H   0  0  0  0  0  0
  -15.8662  -28.0864   22.7011 H   0  0  0  0  0  0
  -24.5897  -30.7079   25.7843 H   0  0  0  0  0  0
  -24.8970  -32.2884   26.4955 H   0  0  0  0  0  0
  -25.8127  -30.8880   27.0223 H   0  0  0  0  0  0
  -26.2794  -29.6805   24.1174 H   0  0  0  0  0  0
  -27.4042  -29.7252   25.4559 H   0  0  0  0  0  0
  -27.8657  -30.4315   23.9240 H   0  0  0  0  0  0
  -27.2642  -33.3619   26.2048 H   0  0  0  0  0  0
  -28.3860  -32.6883   25.0312 H   0  0  0  0  0  0
  -28.0706  -31.8450   26.5398 H   0  0  0  0  0  0
  -28.2592  -38.0108   24.7527 H   0  0  0  0  0  0
  -28.1082  -36.2636   24.6255 H   0  0  0  0  0  0
  -27.2309  -37.1420   25.8864 H   0  0  0  0  0  0
  -20.9306  -29.8753   21.6983 H   0  0  0  0  0  0
  -26.0160  -38.2857   24.1429 H   0  0  0  0  0  0
  -31.5392  -19.6672   21.7437 H   0  0  0  0  0  0
  -31.8496  -17.2647   21.6711 H   0  0  0  0  0  0
  -27.7617  -16.7601   20.4790 H   0  0  0  0  0  0
  -30.8084  -23.5003   19.6885 H   0  0  0  0  0  0
  -30.5387  -24.3003   21.2287 H   0  0  0  0  0  0
  -27.3732  -21.8836   20.3636 H   0  0  0  0  0  0
  -28.7511  -21.6100   19.3081 H   0  0  0  0  0  0
  -31.2595  -21.5788   20.6394 H   0  0  0  0  0  0
  -26.3360  -18.4199   20.1302 H   0  0  0  0  0  0
  -27.0131  -19.8616   19.4358 H   0  0  0  0  0  0
  -26.4825  -19.8252   21.1399 H   0  0  0  0  0  0
  -30.7981  -22.9153   23.3583 H   0  0  0  0  0  0
  -32.3079  -22.7578   22.4847 H   0  0  0  0  0  0
  -31.5576  -21.3369   23.1673 H   0  0  0  0  0  0
  -28.3341  -17.4504   26.3347 H   0  0  0  0  0  0
  -29.2232  -18.0250   24.9348 H   0  0  0  0  0  0
  -27.4622  -17.9469   24.8950 H   0  0  0  0  0  0
  -29.6249  -19.2474   27.7255 H   0  0  0  0  0  0
  -29.3653  -20.9505   27.3945 H   0  0  0  0  0  0
  -30.3855  -19.9914   26.3241 H   0  0  0  0  0  0
  -27.3991  -21.2186   22.5466 H   0  0  0  0  0  0
  -28.4522  -22.5043   23.0281 H   0  0  0  0  0  0
  -28.6022  -23.7530   18.2914 H   0  0  0  0  0  0
  -27.2129  -24.1969   19.2275 H   0  0  0  0  0  0
  -27.9162  -21.6645   25.4352 H   0  0  0  0  0  0
  -26.9177  -20.4795   24.6346 H   0  0  0  0  0  0
  -28.4227  -26.1396   18.1473 H   0  0  0  0  0  0
  -29.8536  -25.7578   19.0253 H   0  0  0  0  0  0
  -27.3880  -19.6334   26.7719 H   0  0  0  0  0  0
  -29.0085  -14.9902   21.5187 H   0  0  0  0  0  0
  -28.3761  -23.8198   21.1905 H   0  0  0  0  0  0
  -29.7929  -20.9041   24.1801 H   0  0  0  0  0  0
  -28.9399  -19.6624   23.5485 H   0  0  0  0  0  0
  1 25  1  0  0  0
  1 30  2  0  0  0
  1 90  1  0  0  0
  2  3  1  0  0  0
  2 25  1  0  0  0
  2 93  1  0  0  0
  2 94  1  0  0  0
  3  4  1  0  0  0
  3 95  1  0  0  0
  3 96  1  0  0  0
  4  5  1  0  0  0
  4 97  1  0  0  0
  4 98  1  0  0  0
  5  6  1  0  0  0
  5 26  1  0  0  0
  5 99  1  0  0  0
  6 25  1  0  0  0
  6100  1  0  0  0
  6101  1  0  0  0
  7  8  2  0  0  0
  7 26  1  0  0  0
  7 29  1  0  0  0
  8  9  1  0  0  0
  8 22  1  0  0  0
  9 10  1  0  0  0
  9 27  2  0  0  0
 10 11  2  0  0  0
 10 15  1  0  0  0
 11 12  1  0  0  0
 11102  1  0  0  0
 12 13  2  0  0  0
 12103  1  0  0  0
 13 14  1  0  0  0
 13 31  1  0  0  0
 14 15  2  0  0  0
 14104  1  0  0  0
 15105  1  0  0  0
 16 17  2  0  0  0
 16 21  1  0  0  0
 16 31  1  0  0  0
 17 18  1  0  0  0
 17106  1  0  0  0
 18 19  2  0  0  0
 18107  1  0  0  0
 19 20  1  0  0  0
 19 24  1  0  0  0
 20 21  2  0  0  0
 20108  1  0  0  0
 21 23  1  0  0  0
 22 28  1  0  0  0
 22 32  2  0  0  0
 26 27  1  0  0  0
 28109  1  0  0  0
 28110  1  0  0  0
 29111  1  0  0  0
 29112  1  0  0  0
 33 34  1  0  0  0
 33 66  1  0  0  0
 33 70  2  0  0  0
 34 36  1  0  0  0
 34 59  1  0  0  0
 34113  1  0  0  0
 35 44  2  0  0  0
 35 45  1  0  0  0
 35 68  1  0  0  0
 36 56  1  0  0  0
 36114  1  0  0  0
 37 39  1  0  0  0
 37 47  1  0  0  0
 37 66  1  0  0  0
 37115  1  0  0  0
 38 43  2  0  0  0
 38 46  1  0  0  0
 38 47  1  0  0  0
 39 64  1  0  0  0
 39 67  2  0  0  0
 40 52  1  0  0  0
 40 53  2  0  0  0
 40 58  1  0  0  0
 41116  1  0  0  0
 41117  1  0  0  0
 41118  1  0  0  0
 41 48  1  0  0  0
 42 43  1  0  0  0
 42 66  1  0  0  0
 42119  1  0  0  0
 42120  1  0  0  0
 43 44  1  0  0  0
 44121  1  0  0  0
 45 46  2  0  0  0
 45122  1  0  0  0
 46123  1  0  0  0
 47124  1  0  0  0
 47125  1  0  0  0
 48 56  1  0  0  0
 48 65  1  0  0  0
 48126  1  0  0  0
 49 50  1  0  0  0
 49 53  1  0  0  0
 49 64  1  0  0  0
 49127  1  0  0  0
 50 51  1  0  0  0
 50128  1  0  0  0
 50129  1  0  0  0
 51 52  1  0  0  0
 51130  1  0  0  0
 51131  1  0  0  0
 52132  1  0  0  0
 52133  1  0  0  0
 53 54  1  0  0  0
 54 55  2  0  0  0
 54134  1  0  0  0
 55 57  1  0  0  0
 55135  1  0  0  0
 56 69  2  0  0  0
 57 58  2  0  0  0
 57136  1  0  0  0
 58137  1  0  0  0
 59 60  1  0  0  0
 59 61  1  0  0  0
 59 62  1  0  0  0
 60138  1  0  0  0
 60139  1  0  0  0
 60140  1  0  0  0
 61141  1  0  0  0
 61142  1  0  0  0
 61143  1  0  0  0
 62144  1  0  0  0
 62145  1  0  0  0
 62146  1  0  0  0
 63 65  1  0  0  0
 63147  1  0  0  0
 63148  1  0  0  0
 63149  1  0  0  0
 64150  1  0  0  0
 65151  1  0  0  0
 68 88  1  0  0  0
 71 72  2  0  0  0
 71 74  1  0  0  0
 71152  1  0  0  0
 72 76  1  0  0  0
 72153  1  0  0  0
 73 75  1  0  0  0
 73 76  2  0  0  0
 73154  1  0  0  0
 74 75  2  0  0  0
 74 80  1  0  0  0
 75 81  1  0  0  0
 76 90  1  0  0  0
 77 79  1  0  0  0
 77 91  1  0  0  0
 77155  1  0  0  0
 77156  1  0  0  0
 78 80  1  0  0  0
 78 91  1  0  0  0
 78157  1  0  0  0
 78158  1  0  0  0
 79 80  1  0  0  0
 79 82  1  0  0  0
 79159  1  0  0  0
 80 85  1  0  0  0
 81160  1  0  0  0
 81161  1  0  0  0
 81162  1  0  0  0
 82163  1  0  0  0
 82164  1  0  0  0
 82165  1  0  0  0
 83166  1  0  0  0
 83167  1  0  0  0
 83168  1  0  0  0
 83 89  1  0  0  0
 84 89  1  0  0  0
 84169  1  0  0  0
 84170  1  0  0  0
 84171  1  0  0  0
 85 92  1  0  0  0
 85172  1  0  0  0
 85173  1  0  0  0
 86 88  1  0  0  0
 86174  1  0  0  0
 86175  1  0  0  0
 86 91  1  0  0  0
 87 89  1  0  0  0
 87 92  1  0  0  0
 87176  1  0  0  0
 87177  1  0  0  0
 88178  1  0  0  0
 88179  1  0  0  0
 89180  1  0  0  0
 90181  1  0  0  0
 91182  1  0  0  0
 92183  1  0  0  0
 92184  1  0  0  0
M  CHG  2  91   1  92   1
M  ISO  4   1 100  68 101  88 101  90 100
M  END
> <chiral flag>
0

> <version>
0

> <s_m_source_file>
/data/baiqing/PycharmProjects/Reinvent-master-3.2/result/LINK_invent/BTK/process_docking_weight1_custom_sum_contain_oxygen_bond_distance_aromatic_linkinvent_7_9_3/rearranged_h_0168.sdf

> <i_m_source_file_index>
55

> <r_mmod_Potential_Energy-OPLS-2005>
-100.80290222168

> <r_mmod_Stretch_Energy-OPLS-2005>
55.0094909667969

> <r_mmod_Bend_Energy-OPLS-2005>
172.310958862305

> <r_mmod_Torsional_Energy-OPLS-2005>
352.018493652344

> <r_mmod_Improper_Torsional_Energy-OPLS-2005>
5.53637552261353

> <r_mmod_Van_der_Waal_Energy-OPLS-2005>
146.609024047852

> <r_mmod_Electrostatic_Energy-OPLS-2005>
68.3333053588867

> <r_mmod_Solvation_Energy-OPLS-2005>
-917.878784179688

> <b_mmod_Minimization_Converged-OPLS-2005>
0

> <r_mmod_RMS_Derivative-OPLS-2005>
2.85153889656067

$$$$
55
                    3D
 Structure written by MMmdl.
164173  0  0  1  0            999 V2000
  -30.6980  -14.7238   20.4793 C   0  0  0  0  0  0
  -30.4079  -12.4570   19.4702 C   0  0  0  0  0  0
  -29.5007  -12.5196   18.2268 C   0  0  0  0  0  0
  -28.0288  -12.3318   18.6360 C   0  0  0  0  0  0
  -27.6323  -13.2303   19.8366 C   0  0  2  0  0  0
  -28.6794  -13.2100   20.9750 C   0  0  0  0  0  0
  -25.2470  -13.8174   20.5662 C   0  0  0  0  0  0
  -24.1793  -13.0414   20.9223 C   0  0  0  0  0  0
  -24.6403  -11.6898   20.8760 C   0  0  0  0  0  0
  -23.9096  -10.4279   21.0408 C   0  0  0  0  0  0
  -24.3647   -9.4195   21.9184 C   0  0  0  0  0  0
  -23.6318   -8.2236   22.0752 C   0  0  0  0  0  0
  -22.4307   -8.0281   21.3533 C   0  0  0  0  0  0
  -21.9939   -9.0255   20.4632 C   0  0  0  0  0  0
  -22.7274  -10.2135   20.3045 C   0  0  0  0  0  0
  -21.6857   -6.0748   22.5279 C   0  0  0  0  0  0
  -21.4006   -6.5646   23.8213 C   0  0  0  0  0  0
  -21.3661   -5.6793   24.9169 C   0  0  0  0  0  0
  -21.6050   -4.3061   24.7208 C   0  0  0  0  0  0
  -21.8820   -3.8157   23.4330 C   0  0  0  0  0  0
  -21.9191   -4.6977   22.3397 C   0  0  0  0  0  0
  -22.7817  -13.5199   21.1870 C   0  0  0  0  0  0
  -22.1666   -4.2164   21.0975 F   0  0  0  0  0  0
  -21.5633   -3.4541   25.7715 F   0  0  0  0  0  0
  -29.9799  -13.5463   20.3854 N   0  0  0  0  0  0
  -26.2892  -12.9389   20.3214 N   0  0  0  0  0  0
  -25.9322  -11.6530   20.5722 N   0  0  0  0  0  0
  -22.0462  -12.8193   22.0421 N   0  0  0  0  0  0
  -25.4063  -15.1898   20.4042 N   0  0  0  0  0  0
  -31.8944  -14.6895   20.1738 O   0  0  0  0  0  0
  -21.6657   -6.8893   21.4241 O   0  0  0  0  0  0
  -22.3499  -14.5496   20.6700 O   0  0  0  0  0  0
  -24.6342  -31.8561   23.2021 C   0  0  0  0  0  0
  -25.9169  -32.4756   23.8353 C   0  0  1  0  0  0
  -27.2092  -27.2458   20.1311 C   0  0  0  0  0  0
  -25.5970  -33.8554   24.2277 N   0  0  0  0  0  0
  -23.4313  -30.4822   21.5474 C   0  0  2  0  0  0
  -24.8774  -28.9393   20.1102 C   0  0  0  0  0  0
  -22.7529  -29.4604   22.4928 C   0  0  0  0  0  0
  -18.0298  -28.1383   22.8481 C   0  0  0  0  0  0
  -24.1492  -36.7274   23.2641 C   0  0  0  0  0  0
  -25.9829  -30.7634   21.3884 C   0  0  0  0  0  0
  -26.0532  -29.3888   20.7247 C   0  0  0  0  0  0
  -27.2243  -28.5568   20.7247 C   0  0  0  0  0  0
  -26.0071  -26.8885   19.4692 C   0  0  0  0  0  0
  -24.8616  -27.6985   19.4685 C   0  0  0  0  0  0
  -23.6490  -29.8258   20.1611 C   0  0  0  0  0  0
  -25.4120  -36.3063   24.0328 C   0  0  1  0  0  0
  -20.5906  -28.3697   23.1267 C   0  0  2  0  0  0
  -20.6785  -26.9414   22.5407 C   0  0  0  0  0  0
  -19.5757  -26.6374   21.5213 C   0  0  0  0  0  0
  -18.1937  -26.7927   22.1621 C   0  0  0  0  0  0
  -19.1550  -28.8864   23.2863 C   0  0  0  0  0  0
  -18.9466  -30.1467   23.8873 C   0  0  0  0  0  0
  -17.6458  -30.6582   24.0558 C   0  0  0  0  0  0
  -25.9068  -34.9435   23.5100 C   0  0  0  0  0  0
  -16.5354  -29.9068   23.6342 C   0  0  0  0  0  0
  -16.7278  -28.6493   23.0357 C   0  0  0  0  0  0
  -26.4520  -31.6586   25.0752 C   0  0  0  0  0  0
  -25.3733  -31.3732   26.1462 C   0  0  0  0  0  0
  -27.0390  -30.3000   24.6273 C   0  0  0  0  0  0
  -27.6066  -32.4336   25.7527 C   0  0  0  0  0  0
  -27.5578  -37.1800   24.8463 C   0  0  0  0  0  0
  -21.4232  -29.3038   22.3658 N   0  0  0  0  0  0
  -26.4288  -37.3768   23.9407 N   0  0  0  0  0  0
  -24.7022  -31.0511   22.1008 N   0  0  0  0  0  0
  -23.4219  -28.8135   23.3016 O   0  0  0  0  0  0
  -28.2638  -26.2915   20.2210 O   0  0  0  0  0  0
  -26.5619  -34.8904   22.4657 O   0  0  0  0  0  0
  -23.5488  -32.1389   23.7305 O   0  0  0  0  0  0
  -29.4349  -20.6839   20.4139 C   0  0  0  0  0  0
  -29.9533  -21.5806   19.4160 C   0  0  0  0  0  0
  -29.5981  -22.9834   19.4014 C   0  0  0  0  0  0
  -28.7059  -23.5203   20.3740 C   0  0  0  0  0  0
  -28.6379  -21.3546   21.3842 C   0  0  0  0  0  0
  -30.5646  -18.4987   21.5623 C   0  0  0  0  0  0
  -28.5546  -18.0852   20.3193 C   0  0  0  0  0  0
  -31.0739  -17.0265   21.3195 C   0  0  0  0  0  0
  -28.9176  -16.5398   20.1616 C   0  0  0  0  0  0
  -29.7385  -19.0918   20.3990 C   0  0  0  0  0  0
  -30.8540  -21.0164   18.3182 C   0  0  0  0  0  0
  -30.1086  -23.9077   18.2997 C   0  0  0  0  0  0
  -27.8291  -24.8450   20.1563 C   0  0  0  0  0  0
  -28.2861  -22.6728   21.3582 N   0  0  0  0  0  0
  -30.1325  -15.9648   20.8236 N   0  0  0  0  0  0
  -28.1040  -20.6733   22.4620 N   0  0  0  0  0  0
  -31.4520  -12.5384   19.1658 H   0  0  0  0  0  0
  -30.3249  -11.4857   19.9601 H   0  0  0  0  0  0
  -29.7906  -11.7605   17.4990 H   0  0  0  0  0  0
  -29.6256  -13.4840   17.7301 H   0  0  0  0  0  0
  -27.8805  -11.2825   18.8870 H   0  0  0  0  0  0
  -27.3778  -12.5348   17.7845 H   0  0  0  0  0  0
  -27.6032  -14.2311   19.4149 H   0  0  0  0  0  0
  -28.7180  -12.2288   21.4515 H   0  0  0  0  0  0
  -28.4174  -13.9241   21.7570 H   0  0  0  0  0  0
  -25.2778   -9.5691   22.4769 H   0  0  0  0  0  0
  -24.0022   -7.4635   22.7486 H   0  0  0  0  0  0
  -21.0863   -8.8794   19.8944 H   0  0  0  0  0  0
  -22.3734  -10.9686   19.6167 H   0  0  0  0  0  0
  -21.2003   -7.6149   23.9728 H   0  0  0  0  0  0
  -21.1479   -6.0512   25.9077 H   0  0  0  0  0  0
  -22.0597   -2.7616   23.2825 H   0  0  0  0  0  0
  -22.4077  -11.9864   22.4818 H   0  0  0  0  0  0
  -21.1055  -13.1195   22.2583 H   0  0  0  0  0  0
  -24.6284  -15.8311   20.5155 H   0  0  0  0  0  0
  -26.2492  -15.6399   20.0731 H   0  0  0  0  0  0
  -26.7239  -32.5392   23.1094 H   0  0  0  0  0  0
  -25.0138  -33.9697   25.0434 H   0  0  0  0  0  0
  -22.7272  -31.3051   21.4056 H   0  0  0  0  0  0
  -23.3761  -35.9601   23.3305 H   0  0  0  0  0  0
  -24.3580  -36.8895   22.2055 H   0  0  0  0  0  0
  -23.7237  -37.6472   23.6665 H   0  0  0  0  0  0
  -26.1323  -31.5267   20.6233 H   0  0  0  0  0  0
  -26.8569  -30.8040   22.0278 H   0  0  0  0  0  0
  -28.1180  -28.8936   21.2312 H   0  0  0  0  0  0
  -25.8852  -25.9531   18.9494 H   0  0  0  0  0  0
  -23.9659  -27.3522   18.9721 H   0  0  0  0  0  0
  -23.7744  -30.6060   19.4090 H   0  0  0  0  0  0
  -22.7674  -29.2601   19.8541 H   0  0  0  0  0  0
  -25.1304  -36.1913   25.0820 H   0  0  0  0  0  0
  -20.9988  -28.3267   24.1390 H   0  0  0  0  0  0
  -20.5692  -26.2304   23.3611 H   0  0  0  0  0  0
  -21.6647  -26.7438   22.1191 H   0  0  0  0  0  0
  -19.6914  -25.6284   21.1250 H   0  0  0  0  0  0
  -19.6693  -27.3180   20.6740 H   0  0  0  0  0  0
  -17.4212  -26.6687   21.4018 H   0  0  0  0  0  0
  -18.0324  -26.0063   22.9011 H   0  0  0  0  0  0
  -19.7942  -30.7296   24.2219 H   0  0  0  0  0  0
  -17.5011  -31.6257   24.5164 H   0  0  0  0  0  0
  -15.5353  -30.2950   23.7689 H   0  0  0  0  0  0
  -15.8682  -28.0798   22.7076 H   0  0  0  0  0  0
  -24.5891  -30.7114   25.7768 H   0  0  0  0  0  0
  -24.8942  -32.2903   26.4902 H   0  0  0  0  0  0
  -25.8029  -30.8872   27.0234 H   0  0  0  0  0  0
  -26.3002  -29.6724   24.1281 H   0  0  0  0  0  0
  -27.4049  -29.7284   25.4815 H   0  0  0  0  0  0
  -27.8885  -30.4270   23.9558 H   0  0  0  0  0  0
  -27.2665  -33.3628   26.2106 H   0  0  0  0  0  0
  -28.3870  -32.6917   25.0359 H   0  0  0  0  0  0
  -28.0749  -31.8471   26.5442 H   0  0  0  0  0  0
  -28.2596  -38.0098   24.7514 H   0  0  0  0  0  0
  -28.1077  -36.2632   24.6289 H   0  0  0  0  0  0
  -27.2299  -37.1439   25.8866 H   0  0  0  0  0  0
  -20.9435  -29.8755   21.6851 H   0  0  0  0  0  0
  -26.0170  -38.2845   24.1397 H   0  0  0  0  0  0
  -31.4340  -19.1324   21.7411 H   0  0  0  0  0  0
  -29.9853  -18.5305   22.4846 H   0  0  0  0  0  0
  -27.9451  -18.1941   21.2173 H   0  0  0  0  0  0
  -27.8948  -18.3694   19.4980 H   0  0  0  0  0  0
  -31.5220  -16.6634   22.2463 H   0  0  0  0  0  0
  -31.8994  -17.1074   20.6101 H   0  0  0  0  0  0
  -28.9878  -16.3111   19.0961 H   0  0  0  0  0  0
  -28.0603  -15.9924   20.5407 H   0  0  0  0  0  0
  -30.3147  -18.8830   19.5018 H   0  0  0  0  0  0
  -30.2780  -20.3571   17.6683 H   0  0  0  0  0  0
  -31.6780  -20.4466   18.7491 H   0  0  0  0  0  0
  -31.3148  -21.7645   17.6779 H   0  0  0  0  0  0
  -31.1988  -23.9066   18.2708 H   0  0  0  0  0  0
  -29.8120  -24.9453   18.4526 H   0  0  0  0  0  0
  -29.7291  -23.5962   17.3258 H   0  0  0  0  0  0
  -26.9739  -24.7462   20.8284 H   0  0  0  0  0  0
  -27.4468  -24.6724   19.1521 H   0  0  0  0  0  0
  -28.5099  -19.7836   22.7189 H   0  0  0  0  0  0
  -27.7478  -21.2151   23.2383 H   0  0  0  0  0  0
  1 25  1  0  0  0
  1 30  2  0  0  0
  1 85  1  0  0  0
  2  3  1  0  0  0
  2 25  1  0  0  0
  2 87  1  0  0  0
  2 88  1  0  0  0
  3  4  1  0  0  0
  3 89  1  0  0  0
  3 90  1  0  0  0
  4  5  1  0  0  0
  4 91  1  0  0  0
  4 92  1  0  0  0
  5  6  1  0  0  0
  5 26  1  0  0  0
  5 93  1  0  0  0
  6 25  1  0  0  0
  6 94  1  0  0  0
  6 95  1  0  0  0
  7  8  2  0  0  0
  7 26  1  0  0  0
  7 29  1  0  0  0
  8  9  1  0  0  0
  8 22  1  0  0  0
  9 10  1  0  0  0
  9 27  2  0  0  0
 10 11  2  0  0  0
 10 15  1  0  0  0
 11 12  1  0  0  0
 11 96  1  0  0  0
 12 13  2  0  0  0
 12 97  1  0  0  0
 13 14  1  0  0  0
 13 31  1  0  0  0
 14 15  2  0  0  0
 14 98  1  0  0  0
 15 99  1  0  0  0
 16 17  2  0  0  0
 16 21  1  0  0  0
 16 31  1  0  0  0
 17 18  1  0  0  0
 17100  1  0  0  0
 18 19  2  0  0  0
 18101  1  0  0  0
 19 20  1  0  0  0
 19 24  1  0  0  0
 20 21  2  0  0  0
 20102  1  0  0  0
 21 23  1  0  0  0
 22 28  1  0  0  0
 22 32  2  0  0  0
 26 27  1  0  0  0
 28103  1  0  0  0
 28104  1  0  0  0
 29105  1  0  0  0
 29106  1  0  0  0
 33 34  1  0  0  0
 33 66  1  0  0  0
 33 70  2  0  0  0
 34 36  1  0  0  0
 34 59  1  0  0  0
 34107  1  0  0  0
 35 44  2  0  0  0
 35 45  1  0  0  0
 35 68  1  0  0  0
 36 56  1  0  0  0
 36108  1  0  0  0
 37 39  1  0  0  0
 37 47  1  0  0  0
 37 66  1  0  0  0
 37109  1  0  0  0
 38 43  2  0  0  0
 38 46  1  0  0  0
 38 47  1  0  0  0
 39 64  1  0  0  0
 39 67  2  0  0  0
 40 52  1  0  0  0
 40 53  2  0  0  0
 40 58  1  0  0  0
 41110  1  0  0  0
 41111  1  0  0  0
 41112  1  0  0  0
 41 48  1  0  0  0
 42 43  1  0  0  0
 42 66  1  0  0  0
 42113  1  0  0  0
 42114  1  0  0  0
 43 44  1  0  0  0
 44115  1  0  0  0
 45 46  2  0  0  0
 45116  1  0  0  0
 46117  1  0  0  0
 47118  1  0  0  0
 47119  1  0  0  0
 48 56  1  0  0  0
 48 65  1  0  0  0
 48120  1  0  0  0
 49 50  1  0  0  0
 49 53  1  0  0  0
 49 64  1  0  0  0
 49121  1  0  0  0
 50 51  1  0  0  0
 50122  1  0  0  0
 50123  1  0  0  0
 51 52  1  0  0  0
 51124  1  0  0  0
 51125  1  0  0  0
 52126  1  0  0  0
 52127  1  0  0  0
 53 54  1  0  0  0
 54 55  2  0  0  0
 54128  1  0  0  0
 55 57  1  0  0  0
 55129  1  0  0  0
 56 69  2  0  0  0
 57 58  2  0  0  0
 57130  1  0  0  0
 58131  1  0  0  0
 59 60  1  0  0  0
 59 61  1  0  0  0
 59 62  1  0  0  0
 60132  1  0  0  0
 60133  1  0  0  0
 60134  1  0  0  0
 61135  1  0  0  0
 61136  1  0  0  0
 61137  1  0  0  0
 62138  1  0  0  0
 62139  1  0  0  0
 62140  1  0  0  0
 63 65  1  0  0  0
 63141  1  0  0  0
 63142  1  0  0  0
 63143  1  0  0  0
 64144  1  0  0  0
 65145  1  0  0  0
 68 83  1  0  0  0
 71 72  2  0  0  0
 71 75  1  0  0  0
 71 80  1  0  0  0
 72 73  1  0  0  0
 72 81  1  0  0  0
 73 74  2  0  0  0
 73 82  1  0  0  0
 74 83  1  0  0  0
 74 84  1  0  0  0
 75 84  2  0  0  0
 75 86  1  0  0  0
 76 78  1  0  0  0
 76 80  1  0  0  0
 76146  1  0  0  0
 76147  1  0  0  0
 77 79  1  0  0  0
 77 80  1  0  0  0
 77148  1  0  0  0
 77149  1  0  0  0
 78 85  1  0  0  0
 78150  1  0  0  0
 78151  1  0  0  0
 79 85  1  0  0  0
 79152  1  0  0  0
 79153  1  0  0  0
 80154  1  0  0  0
 81155  1  0  0  0
 81156  1  0  0  0
 81157  1  0  0  0
 82158  1  0  0  0
 82159  1  0  0  0
 82160  1  0  0  0
 83161  1  0  0  0
 83162  1  0  0  0
 86163  1  0  0  0
 86164  1  0  0  0
M  ISO  4   1 100  68 101  83 101  85 100
M  END
> <chiral flag>
0

> <version>
0

> <s_m_source_file>
/data/baiqing/PycharmProjects/Reinvent-master-3.2/result/LINK_invent/BTK/process_docking_weight1_custom_sum_contain_oxygen_bond_distance_aromatic_linkinvent_7_9_3/rearranged_h_0168.sdf

> <i_m_source_file_index>
56

> <r_mmod_Potential_Energy-OPLS-2005>
217.563018798828

> <r_mmod_Stretch_Energy-OPLS-2005>
128.716766357422

> <r_mmod_Bend_Energy-OPLS-2005>
222.004974365234

> <r_mmod_Torsional_Energy-OPLS-2005>
336.520568847656

> <r_mmod_Improper_Torsional_Energy-OPLS-2005>
10.2974557876587

> <r_mmod_Van_der_Waal_Energy-OPLS-2005>
167.56462097168

> <r_mmod_Electrostatic_Energy-OPLS-2005>
-519.395324707031

> <r_mmod_Solvation_Energy-OPLS-2005>
-223.310531616211

> <b_mmod_Minimization_Converged-OPLS-2005>
0

> <r_mmod_RMS_Derivative-OPLS-2005>
2.17290067672729

$$$$
56
                    3D
 Structure written by MMmdl.
171180  0  0  1  0            999 V2000
  -30.5678  -14.9977   20.4283 C   0  0  0  0  0  0
  -30.4708  -12.6330   19.4776 C   0  0  0  0  0  0
  -29.5547  -12.5500   18.2388 C   0  0  0  0  0  0
  -28.0724  -12.3598   18.6371 C   0  0  0  0  0  0
  -27.6431  -13.2661   19.8285 C   0  0  2  0  0  0
  -28.6983  -13.2942   20.9527 C   0  0  0  0  0  0
  -25.2555  -13.8269   20.5629 C   0  0  0  0  0  0
  -24.1852  -13.0471   20.9232 C   0  0  0  0  0  0
  -24.6469  -11.6984   20.8729 C   0  0  0  0  0  0
  -23.9100  -10.4359   21.0394 C   0  0  0  0  0  0
  -24.3649   -9.4277   21.9184 C   0  0  0  0  0  0
  -23.6345   -8.2282   22.0757 C   0  0  0  0  0  0
  -22.4315   -8.0328   21.3554 C   0  0  0  0  0  0
  -21.9947   -9.0285   20.4625 C   0  0  0  0  0  0
  -22.7260  -10.2188   20.3035 C   0  0  0  0  0  0
  -21.6886   -6.0763   22.5303 C   0  0  0  0  0  0
  -21.4005   -6.5627   23.8234 C   0  0  0  0  0  0
  -21.3675   -5.6771   24.9190 C   0  0  0  0  0  0
  -21.6077   -4.3036   24.7227 C   0  0  0  0  0  0
  -21.8812   -3.8142   23.4331 C   0  0  0  0  0  0
  -21.9181   -4.6984   22.3395 C   0  0  0  0  0  0
  -22.7877  -13.5280   21.1854 C   0  0  0  0  0  0
  -22.1664   -4.2184   21.0975 F   0  0  0  0  0  0
  -21.5663   -3.4500   25.7713 F   0  0  0  0  0  0
  -29.9622  -13.7375   20.3387 N   0  0  0  0  0  0
  -26.3002  -12.9507   20.3161 N   0  0  0  0  0  0
  -25.9422  -11.6637   20.5644 N   0  0  0  0  0  0
  -22.0416  -12.8294   22.0377 N   0  0  0  0  0  0
  -25.4125  -15.1986   20.3996 N   0  0  0  0  0  0
  -31.7928  -15.0348   20.2683 O   0  0  0  0  0  0
  -21.6697   -6.8925   21.4271 O   0  0  0  0  0  0
  -22.3563  -14.5566   20.6677 O   0  0  0  0  0  0
  -24.6531  -31.8326   23.1780 C   0  0  0  0  0  0
  -25.9251  -32.4644   23.8240 C   0  0  1  0  0  0
  -27.2667  -27.0812   20.2019 C   0  0  0  0  0  0
  -25.5954  -33.8458   24.2146 N   0  0  0  0  0  0
  -23.4683  -30.4391   21.5213 C   0  0  2  0  0  0
  -24.9314  -28.8457   20.1151 C   0  0  0  0  0  0
  -22.7660  -29.4469   22.4833 C   0  0  0  0  0  0
  -18.0329  -28.1416   22.8468 C   0  0  0  0  0  0
  -24.1483  -36.7226   23.2648 C   0  0  0  0  0  0
  -26.0252  -30.6880   21.3918 C   0  0  0  0  0  0
  -26.1033  -29.2922   20.7406 C   0  0  0  0  0  0
  -27.2679  -28.4305   20.7556 C   0  0  0  0  0  0
  -26.0704  -26.7411   19.5311 C   0  0  0  0  0  0
  -24.9341  -27.5880   19.4869 C   0  0  0  0  0  0
  -23.7046  -29.7472   20.1485 C   0  0  0  0  0  0
  -25.4119  -36.3009   24.0312 C   0  0  1  0  0  0
  -20.5942  -28.3754   23.1206 C   0  0  2  0  0  0
  -20.6792  -26.9443   22.5400 C   0  0  0  0  0  0
  -19.5749  -26.6377   21.5228 C   0  0  0  0  0  0
  -18.1935  -26.7951   22.1624 C   0  0  0  0  0  0
  -19.1574  -28.8901   23.2814 C   0  0  0  0  0  0
  -18.9491  -30.1500   23.8845 C   0  0  0  0  0  0
  -17.6470  -30.6588   24.0569 C   0  0  0  0  0  0
  -25.9082  -34.9371   23.5052 C   0  0  0  0  0  0
  -16.5365  -29.9076   23.6335 C   0  0  0  0  0  0
  -16.7310  -28.6492   23.0361 C   0  0  0  0  0  0
  -26.4526  -31.6553   25.0717 C   0  0  0  0  0  0
  -25.3693  -31.3753   26.1395 C   0  0  0  0  0  0
  -27.0432  -30.2950   24.6377 C   0  0  0  0  0  0
  -27.6049  -32.4355   25.7493 C   0  0  0  0  0  0
  -27.5584  -37.1748   24.8448 C   0  0  0  0  0  0
  -21.4331  -29.3042   22.3568 N   0  0  0  0  0  0
  -26.4276  -37.3734   23.9423 N   0  0  0  0  0  0
  -24.7350  -31.0101   22.0865 N   0  0  0  0  0  0
  -23.4234  -28.8057   23.3053 O   0  0  0  0  0  0
  -28.3393  -26.1023   20.3197 O   0  0  0  0  0  0
  -26.5688  -34.8909   22.4650 O   0  0  0  0  0  0
  -23.5597  -32.1228   23.6897 O   0  0  0  0  0  0
  -31.4518  -21.0100   20.2746 C   0  0  0  0  0  0
  -29.9128  -19.1437   19.9440 C   0  0  0  0  0  0
  -30.0895  -20.5891   20.4070 C   0  0  0  0  0  0
  -32.1209  -20.6031   19.0853 C   0  0  0  0  0  0
  -30.5531  -18.8681   18.7084 C   0  0  0  0  0  0
  -33.5883  -21.5793   21.7460 C   0  0  0  0  0  0
  -32.4493  -21.5639   22.7176 C   0  0  0  0  0  0
  -32.1822  -21.9153   21.2582 C   0  0  0  0  0  0
  -33.4171  -21.2183   18.5789 C   0  0  0  0  0  0
  -30.2734  -17.6331   17.8723 C   0  0  0  0  0  0
  -30.6266  -17.9560   22.1481 C   0  0  0  0  0  0
  -29.3457  -23.4221   22.2682 C   0  0  0  0  0  0
  -28.1873  -24.5334   20.1821 C   0  0  0  0  0  0
  -29.8047  -17.7583   20.8667 C   0  0  2  0  0  0
  -29.2411  -23.2855   20.7359 C   0  0  2  0  0  0
  -31.5906  -19.6321   18.3163 N   0  3  0  0  0  0
  -29.0937  -21.7295   20.4390 N   0  0  0  0  0  0
  -29.7677  -16.1869   20.4580 N   0  0  0  0  0  0
  -31.5001  -12.8164   19.1642 H   0  0  0  0  0  0
  -30.4894  -11.6868   20.0214 H   0  0  0  0  0  0
  -29.8794  -11.7384   17.5845 H   0  0  0  0  0  0
  -29.6680  -13.4752   17.6699 H   0  0  0  0  0  0
  -27.9429  -11.3103   18.9002 H   0  0  0  0  0  0
  -27.4382  -12.5354   17.7673 H   0  0  0  0  0  0
  -27.5953  -14.2758   19.4145 H   0  0  0  0  0  0
  -28.8143  -12.3047   21.3999 H   0  0  0  0  0  0
  -28.3948  -13.9684   21.7573 H   0  0  0  0  0  0
  -25.2811   -9.5805   22.4718 H   0  0  0  0  0  0
  -24.0084   -7.4702   22.7515 H   0  0  0  0  0  0
  -21.0854   -8.8784   19.8958 H   0  0  0  0  0  0
  -22.3716  -10.9691   19.6109 H   0  0  0  0  0  0
  -21.1977   -7.6138   23.9739 H   0  0  0  0  0  0
  -21.1536   -6.0501   25.9094 H   0  0  0  0  0  0
  -22.0572   -2.7608   23.2814 H   0  0  0  0  0  0
  -22.3893  -11.9980   22.4930 H   0  0  0  0  0  0
  -21.1010  -13.1421   22.2381 H   0  0  0  0  0  0
  -24.6343  -15.8424   20.5001 H   0  0  0  0  0  0
  -26.2288  -15.6428   19.9984 H   0  0  0  0  0  0
  -26.7338  -32.5217   23.0988 H   0  0  0  0  0  0
  -25.0090  -33.9547   25.0285 H   0  0  0  0  0  0
  -22.7767  -31.2637   21.3454 H   0  0  0  0  0  0
  -23.3784  -35.9515   23.3245 H   0  0  0  0  0  0
  -24.3587  -36.8923   22.2075 H   0  0  0  0  0  0
  -23.7147  -37.6367   23.6734 H   0  0  0  0  0  0
  -26.1972  -31.4321   20.6142 H   0  0  0  0  0  0
  -26.8878  -30.7424   22.0445 H   0  0  0  0  0  0
  -28.1601  -28.7690   21.2649 H   0  0  0  0  0  0
  -25.9958  -25.7692   19.0667 H   0  0  0  0  0  0
  -24.0474  -27.2365   18.9819 H   0  0  0  0  0  0
  -23.8513  -30.5075   19.3810 H   0  0  0  0  0  0
  -22.8273  -29.1769   19.8401 H   0  0  0  0  0  0
  -25.1291  -36.1852   25.0794 H   0  0  0  0  0  0
  -21.0025  -28.3362   24.1335 H   0  0  0  0  0  0
  -20.5693  -26.2390   23.3657 H   0  0  0  0  0  0
  -21.6664  -26.7419   22.1199 H   0  0  0  0  0  0
  -19.6919  -25.6276   21.1291 H   0  0  0  0  0  0
  -19.6692  -27.3171   20.6745 H   0  0  0  0  0  0
  -17.4228  -26.6735   21.4016 H   0  0  0  0  0  0
  -18.0308  -26.0090   22.9005 H   0  0  0  0  0  0
  -19.7953  -30.7338   24.2198 H   0  0  0  0  0  0
  -17.5006  -31.6276   24.5177 H   0  0  0  0  0  0
  -15.5359  -30.2957   23.7653 H   0  0  0  0  0  0
  -15.8727  -28.0782   22.7108 H   0  0  0  0  0  0
  -24.5861  -30.7141   25.7656 H   0  0  0  0  0  0
  -24.8915  -32.2946   26.4800 H   0  0  0  0  0  0
  -25.7931  -30.8887   27.0192 H   0  0  0  0  0  0
  -26.3092  -29.6633   24.1374 H   0  0  0  0  0  0
  -27.3999  -29.7279   25.4975 H   0  0  0  0  0  0
  -27.9000  -30.4144   23.9758 H   0  0  0  0  0  0
  -27.2643  -33.3672   26.2022 H   0  0  0  0  0  0
  -28.3879  -32.6899   25.0344 H   0  0  0  0  0  0
  -28.0746  -31.8551   26.5445 H   0  0  0  0  0  0
  -28.2528  -38.0124   24.7627 H   0  0  0  0  0  0
  -28.1163  -36.2662   24.6121 H   0  0  0  0  0  0
  -27.2342  -37.1193   25.8858 H   0  0  0  0  0  0
  -20.9636  -29.8745   21.6675 H   0  0  0  0  0  0
  -26.0145  -38.2787   24.1512 H   0  0  0  0  0  0
  -34.0268  -20.6128   21.4943 H   0  0  0  0  0  0
  -34.3065  -22.3871   21.8677 H   0  0  0  0  0  0
  -32.3945  -22.3884   23.4287 H   0  0  0  0  0  0
  -32.2704  -20.5788   23.1404 H   0  0  0  0  0  0
  -32.0400  -22.9622   21.0114 H   0  0  0  0  0  0
  -34.2236  -20.4823   18.6141 H   0  0  0  0  0  0
  -33.7273  -22.0961   19.1487 H   0  0  0  0  0  0
  -33.3075  -21.5587   17.5483 H   0  0  0  0  0  0
  -29.2622  -17.2794   18.0695 H   0  0  0  0  0  0
  -30.9855  -16.8288   18.0816 H   0  0  0  0  0  0
  -30.3400  -17.8676   16.8115 H   0  0  0  0  0  0
  -30.1051  -18.6358   22.8180 H   0  0  0  0  0  0
  -31.6008  -18.4091   21.9576 H   0  0  0  0  0  0
  -30.7723  -17.0222   22.6894 H   0  0  0  0  0  0
  -29.5680  -24.4431   22.5811 H   0  0  0  0  0  0
  -30.1258  -22.7855   22.6792 H   0  0  0  0  0  0
  -28.4226  -23.1156   22.7603 H   0  0  0  0  0  0
  -27.1976  -24.2971   20.5748 H   0  0  0  0  0  0
  -28.1135  -24.3790   19.1068 H   0  0  0  0  0  0
  -28.7717  -17.8709   21.2025 H   0  0  0  0  0  0
  -30.1969  -23.5756   20.3040 H   0  0  0  0  0  0
  -32.0896  -19.3651   17.4641 H   0  0  0  0  0  0
  -28.1268  -21.4519   20.3103 H   0  0  0  0  0  0
  -28.8163  -15.9063   20.2837 H   0  0  0  0  0  0
  1 25  1  0  0  0
  1 30  2  0  0  0
  1 88  1  0  0  0
  2  3  1  0  0  0
  2 25  1  0  0  0
  2 89  1  0  0  0
  2 90  1  0  0  0
  3  4  1  0  0  0
  3 91  1  0  0  0
  3 92  1  0  0  0
  4  5  1  0  0  0
  4 93  1  0  0  0
  4 94  1  0  0  0
  5  6  1  0  0  0
  5 26  1  0  0  0
  5 95  1  0  0  0
  6 25  1  0  0  0
  6 96  1  0  0  0
  6 97  1  0  0  0
  7  8  2  0  0  0
  7 26  1  0  0  0
  7 29  1  0  0  0
  8  9  1  0  0  0
  8 22  1  0  0  0
  9 10  1  0  0  0
  9 27  2  0  0  0
 10 11  2  0  0  0
 10 15  1  0  0  0
 11 12  1  0  0  0
 11 98  1  0  0  0
 12 13  2  0  0  0
 12 99  1  0  0  0
 13 14  1  0  0  0
 13 31  1  0  0  0
 14 15  2  0  0  0
 14100  1  0  0  0
 15101  1  0  0  0
 16 17  2  0  0  0
 16 21  1  0  0  0
 16 31  1  0  0  0
 17 18  1  0  0  0
 17102  1  0  0  0
 18 19  2  0  0  0
 18103  1  0  0  0
 19 20  1  0  0  0
 19 24  1  0  0  0
 20 21  2  0  0  0
 20104  1  0  0  0
 21 23  1  0  0  0
 22 28  1  0  0  0
 22 32  2  0  0  0
 26 27  1  0  0  0
 28105  1  0  0  0
 28106  1  0  0  0
 29107  1  0  0  0
 29108  1  0  0  0
 33 34  1  0  0  0
 33 66  1  0  0  0
 33 70  2  0  0  0
 34 36  1  0  0  0
 34 59  1  0  0  0
 34109  1  0  0  0
 35 44  2  0  0  0
 35 45  1  0  0  0
 35 68  1  0  0  0
 36 56  1  0  0  0
 36110  1  0  0  0
 37 39  1  0  0  0
 37 47  1  0  0  0
 37 66  1  0  0  0
 37111  1  0  0  0
 38 43  2  0  0  0
 38 46  1  0  0  0
 38 47  1  0  0  0
 39 64  1  0  0  0
 39 67  2  0  0  0
 40 52  1  0  0  0
 40 53  2  0  0  0
 40 58  1  0  0  0
 41112  1  0  0  0
 41113  1  0  0  0
 41114  1  0  0  0
 41 48  1  0  0  0
 42 43  1  0  0  0
 42 66  1  0  0  0
 42115  1  0  0  0
 42116  1  0  0  0
 43 44  1  0  0  0
 44117  1  0  0  0
 45 46  2  0  0  0
 45118  1  0  0  0
 46119  1  0  0  0
 47120  1  0  0  0
 47121  1  0  0  0
 48 56  1  0  0  0
 48 65  1  0  0  0
 48122  1  0  0  0
 49 50  1  0  0  0
 49 53  1  0  0  0
 49 64  1  0  0  0
 49123  1  0  0  0
 50 51  1  0  0  0
 50124  1  0  0  0
 50125  1  0  0  0
 51 52  1  0  0  0
 51126  1  0  0  0
 51127  1  0  0  0
 52128  1  0  0  0
 52129  1  0  0  0
 53 54  1  0  0  0
 54 55  2  0  0  0
 54130  1  0  0  0
 55 57  1  0  0  0
 55131  1  0  0  0
 56 69  2  0  0  0
 57 58  2  0  0  0
 57132  1  0  0  0
 58133  1  0  0  0
 59 60  1  0  0  0
 59 61  1  0  0  0
 59 62  1  0  0  0
 60134  1  0  0  0
 60135  1  0  0  0
 60136  1  0  0  0
 61137  1  0  0  0
 61138  1  0  0  0
 61139  1  0  0  0
 62140  1  0  0  0
 62141  1  0  0  0
 62142  1  0  0  0
 63 65  1  0  0  0
 63143  1  0  0  0
 63144  1  0  0  0
 63145  1  0  0  0
 64146  1  0  0  0
 65147  1  0  0  0
 68 83  1  0  0  0
 71 73  1  0  0  0
 71 74  2  0  0  0
 71 78  1  0  0  0
 72 73  2  0  0  0
 72 75  1  0  0  0
 72 84  1  0  0  0
 73 87  1  0  0  0
 74 79  1  0  0  0
 74 86  1  0  0  0
 75 80  1  0  0  0
 75 86  2  0  0  0
 76 77  1  0  0  0
 76 78  1  0  0  0
 76148  1  0  0  0
 76149  1  0  0  0
 77 78  1  0  0  0
 77150  1  0  0  0
 77151  1  0  0  0
 78152  1  0  0  0
 79153  1  0  0  0
 79154  1  0  0  0
 79155  1  0  0  0
 80156  1  0  0  0
 80157  1  0  0  0
 80158  1  0  0  0
 81159  1  0  0  0
 81160  1  0  0  0
 81161  1  0  0  0
 81 84  1  0  0  0
 82162  1  0  0  0
 82163  1  0  0  0
 82164  1  0  0  0
 82 85  1  0  0  0
 83 85  1  0  0  0
 83165  1  0  0  0
 83166  1  0  0  0
 84 88  1  0  0  0
 84167  1  0  0  0
 85 87  1  0  0  0
 85168  1  0  0  0
 86169  1  0  0  0
 87170  1  0  0  0
 88171  1  0  0  0
M  CHG  1  86   1
M  ISO  4   1 100  68 101  83 101  88 100
M  END
> <chiral flag>
0

> <version>
0

> <s_m_source_file>
/data/baiqing/PycharmProjects/Reinvent-master-3.2/result/LINK_invent/BTK/process_docking_weight1_custom_sum_contain_oxygen_bond_distance_aromatic_linkinvent_7_9_3/rearranged_h_0168.sdf

> <i_m_source_file_index>
57

> <r_mmod_Potential_Energy-OPLS-2005>
990.373718261719

> <r_mmod_Stretch_Energy-OPLS-2005>
352.628845214844

> <r_mmod_Bend_Energy-OPLS-2005>
361.959411621094

> <r_mmod_Torsional_Energy-OPLS-2005>
460.237487792969

> <r_mmod_Improper_Torsional_Energy-OPLS-2005>
23.8619518280029

> <r_mmod_Van_der_Waal_Energy-OPLS-2005>
126.031959533691

> <r_mmod_Electrostatic_Energy-OPLS-2005>
-172.790679931641

> <r_mmod_Solvation_Energy-OPLS-2005>
-401.323028564453

> <b_mmod_Minimization_Converged-OPLS-2005>
0

> <r_mmod_RMS_Derivative-OPLS-2005>
8.43368339538574

$$$$
57
                    3D
 Structure written by MMmdl.
165174  0  0  1  0            999 V2000
  -30.5937  -14.9220   20.4980 C   0  0  0  0  0  0
  -30.4360  -12.5818   19.5109 C   0  0  0  0  0  0
  -29.5222  -12.5335   18.2642 C   0  0  0  0  0  0
  -28.0562  -12.3145   18.6796 C   0  0  0  0  0  0
  -27.6327  -13.2434   19.8458 C   0  0  2  0  0  0
  -28.6721  -13.2320   20.9838 C   0  0  0  0  0  0
  -25.2466  -13.8198   20.5728 C   0  0  0  0  0  0
  -24.1762  -13.0436   20.9221 C   0  0  0  0  0  0
  -24.6368  -11.6916   20.8741 C   0  0  0  0  0  0
  -23.9035  -10.4285   21.0380 C   0  0  0  0  0  0
  -24.3590   -9.4219   21.9171 C   0  0  0  0  0  0
  -23.6279   -8.2242   22.0754 C   0  0  0  0  0  0
  -22.4276   -8.0265   21.3540 C   0  0  0  0  0  0
  -21.9894   -9.0226   20.4643 C   0  0  0  0  0  0
  -22.7201  -10.2107   20.3046 C   0  0  0  0  0  0
  -21.6856   -6.0713   22.5266 C   0  0  0  0  0  0
  -21.4003   -6.5609   23.8196 C   0  0  0  0  0  0
  -21.3673   -5.6772   24.9162 C   0  0  0  0  0  0
  -21.6054   -4.3032   24.7215 C   0  0  0  0  0  0
  -21.8823   -3.8119   23.4333 C   0  0  0  0  0  0
  -21.9189   -4.6941   22.3386 C   0  0  0  0  0  0
  -22.7781  -13.5213   21.1882 C   0  0  0  0  0  0
  -22.1659   -4.2124   21.0969 F   0  0  0  0  0  0
  -21.5652   -3.4520   25.7727 F   0  0  0  0  0  0
  -29.9554  -13.6767   20.4094 N   0  0  0  0  0  0
  -26.2882  -12.9415   20.3262 N   0  0  0  0  0  0
  -25.9295  -11.6549   20.5726 N   0  0  0  0  0  0
  -22.0426  -12.8198   22.0423 N   0  0  0  0  0  0
  -25.4153  -15.1929   20.4197 N   0  0  0  0  0  0
  -31.7520  -14.9633   20.0652 O   0  0  0  0  0  0
  -21.6657   -6.8860   21.4233 O   0  0  0  0  0  0
  -22.3468  -14.5520   20.6732 O   0  0  0  0  0  0
  -24.6367  -31.8480   23.1867 C   0  0  0  0  0  0
  -25.9164  -32.4737   23.8240 C   0  0  1  0  0  0
  -27.2213  -27.1818   20.1499 C   0  0  0  0  0  0
  -25.5953  -33.8542   24.2189 N   0  0  0  0  0  0
  -23.4396  -30.4667   21.5318 C   0  0  2  0  0  0
  -24.8870  -28.8933   20.1107 C   0  0  0  0  0  0
  -22.7533  -29.4572   22.4858 C   0  0  0  0  0  0
  -18.0319  -28.1407   22.8512 C   0  0  0  0  0  0
  -24.1487  -36.7261   23.2644 C   0  0  0  0  0  0
  -25.9881  -30.7392   21.3727 C   0  0  0  0  0  0
  -26.0599  -29.3494   20.7259 C   0  0  0  0  0  0
  -27.2298  -28.5092   20.7263 C   0  0  0  0  0  0
  -26.0231  -26.8045   19.5111 C   0  0  0  0  0  0
  -24.8790  -27.6335   19.4866 C   0  0  0  0  0  0
  -23.6612  -29.7922   20.1504 C   0  0  0  0  0  0
  -25.4122  -36.3056   24.0324 C   0  0  1  0  0  0
  -20.5915  -28.3719   23.1282 C   0  0  2  0  0  0
  -20.6827  -26.9444   22.5425 C   0  0  0  0  0  0
  -19.5786  -26.6402   21.5246 C   0  0  0  0  0  0
  -18.1956  -26.7970   22.1627 C   0  0  0  0  0  0
  -19.1582  -28.8878   23.2897 C   0  0  0  0  0  0
  -18.9492  -30.1471   23.8911 C   0  0  0  0  0  0
  -17.6490  -30.6615   24.0570 C   0  0  0  0  0  0
  -25.9059  -34.9443   23.5056 C   0  0  0  0  0  0
  -16.5372  -29.9114   23.6342 C   0  0  0  0  0  0
  -16.7301  -28.6527   23.0380 C   0  0  0  0  0  0
  -26.4521  -31.6574   25.0647 C   0  0  0  0  0  0
  -25.3717  -31.3739   26.1341 C   0  0  0  0  0  0
  -27.0373  -30.2991   24.6149 C   0  0  0  0  0  0
  -27.6064  -32.4315   25.7445 C   0  0  0  0  0  0
  -27.5572  -37.1795   24.8476 C   0  0  0  0  0  0
  -21.4229  -29.3058   22.3631 N   0  0  0  0  0  0
  -26.4291  -37.3769   23.9428 N   0  0  0  0  0  0
  -24.7088  -31.0393   22.0873 N   0  0  0  0  0  0
  -23.4231  -28.8118   23.2979 O   0  0  0  0  0  0
  -28.3194  -26.2658   20.1393 O   0  0  0  0  0  0
  -26.5640  -34.8944   22.4621 O   0  0  0  0  0  0
  -23.5503  -32.1305   23.7144 O   0  0  0  0  0  0
  -30.7672  -20.0263   19.7742 C   0  0  0  0  0  0
  -30.4374  -21.4135   19.5758 C   0  0  0  0  0  0
  -29.1728  -21.9758   19.9748 C   0  0  0  0  0  0
  -29.8988  -19.0599   20.3540 C   0  0  0  0  0  0
  -28.3480  -20.9463   20.5698 C   0  0  0  0  0  0
  -29.9169  -17.3166   23.0436 C   0  0  0  0  0  0
  -31.0807  -17.7968   22.1971 C   0  0  0  0  0  0
  -29.3830  -16.1055   22.2700 C   0  0  0  0  0  0
  -30.5410  -17.5911   20.7800 C   0  0  1  0  0  0
  -31.4913  -22.2732   18.8905 C   0  0  0  0  0  0
  -26.9513  -21.3084   21.0416 C   0  0  0  0  0  0
  -27.8676  -23.4501   18.2932 C   0  0  0  0  0  0
  -28.1906  -24.7710   20.4993 C   0  0  0  0  0  0
  -28.7510  -23.5271   19.5501 C   0  0  1  0  0  0
  -28.6913  -19.5935   20.7590 N   0  0  0  0  0  0
  -29.9392  -16.1345   20.8975 N   0  0  0  0  0  0
  -31.4757  -12.7150   19.2053 H   0  0  0  0  0  0
  -30.4146  -11.6247   20.0362 H   0  0  0  0  0  0
  -29.8443  -11.7353   17.5943 H   0  0  0  0  0  0
  -29.6123  -13.4643   17.7009 H   0  0  0  0  0  0
  -27.9583  -11.2738   18.9903 H   0  0  0  0  0  0
  -27.3912  -12.4402   17.8259 H   0  0  0  0  0  0
  -27.6077  -14.2532   19.4355 H   0  0  0  0  0  0
  -28.7665  -12.2335   21.4101 H   0  0  0  0  0  0
  -28.3282  -13.8537   21.8033 H   0  0  0  0  0  0
  -25.2713   -9.5713   22.4772 H   0  0  0  0  0  0
  -23.9992   -7.4634   22.7458 H   0  0  0  0  0  0
  -21.0838   -8.8706   19.8937 H   0  0  0  0  0  0
  -22.3621  -10.9646   19.6165 H   0  0  0  0  0  0
  -21.1975   -7.6123   23.9687 H   0  0  0  0  0  0
  -21.1512   -6.0506   25.9068 H   0  0  0  0  0  0
  -22.0593   -2.7587   23.2830 H   0  0  0  0  0  0
  -22.4011  -11.9851   22.4804 H   0  0  0  0  0  0
  -21.1027  -13.1217   22.2608 H   0  0  0  0  0  0
  -24.6543  -15.8496   20.5501 H   0  0  0  0  0  0
  -26.2727  -15.6367   20.1164 H   0  0  0  0  0  0
  -26.7202  -32.5366   23.0951 H   0  0  0  0  0  0
  -25.0163  -33.9642   25.0380 H   0  0  0  0  0  0
  -22.7413  -31.2905   21.3794 H   0  0  0  0  0  0
  -23.3759  -35.9576   23.3293 H   0  0  0  0  0  0
  -24.3571  -36.8892   22.2058 H   0  0  0  0  0  0
  -23.7225  -37.6451   23.6675 H   0  0  0  0  0  0
  -26.1269  -31.4903   20.5930 H   0  0  0  0  0  0
  -26.8652  -30.7993   22.0057 H   0  0  0  0  0  0
  -28.1277  -28.8616   21.2117 H   0  0  0  0  0  0
  -25.9628  -25.8414   19.0267 H   0  0  0  0  0  0
  -23.9865  -27.2846   18.9871 H   0  0  0  0  0  0
  -23.7895  -30.5654   19.3915 H   0  0  0  0  0  0
  -22.7799  -29.2296   19.8380 H   0  0  0  0  0  0
  -25.1304  -36.1871   25.0814 H   0  0  0  0  0  0
  -21.0033  -28.3306   24.1392 H   0  0  0  0  0  0
  -20.5805  -26.2315   23.3626 H   0  0  0  0  0  0
  -21.6680  -26.7524   22.1161 H   0  0  0  0  0  0
  -19.6962  -25.6320   21.1270 H   0  0  0  0  0  0
  -19.6739  -27.3228   20.6791 H   0  0  0  0  0  0
  -17.4255  -26.6764   21.3991 H   0  0  0  0  0  0
  -18.0299  -26.0104   22.8995 H   0  0  0  0  0  0
  -19.7957  -30.7298   24.2289 H   0  0  0  0  0  0
  -17.5040  -31.6301   24.5157 H   0  0  0  0  0  0
  -15.5378  -30.3026   23.7667 H   0  0  0  0  0  0
  -15.8692  -28.0839   22.7114 H   0  0  0  0  0  0
  -24.5964  -30.7011   25.7653 H   0  0  0  0  0  0
  -24.8825  -32.2907   26.4641 H   0  0  0  0  0  0
  -25.7999  -30.9017   27.0185 H   0  0  0  0  0  0
  -26.2934  -29.6750   24.1186 H   0  0  0  0  0  0
  -27.4070  -29.7259   25.4654 H   0  0  0  0  0  0
  -27.8815  -30.4280   23.9370 H   0  0  0  0  0  0
  -27.2682  -33.3673   26.1911 H   0  0  0  0  0  0
  -28.3947  -32.6769   25.0310 H   0  0  0  0  0  0
  -28.0646  -31.8491   26.5451 H   0  0  0  0  0  0
  -28.2580  -38.0100   24.7520 H   0  0  0  0  0  0
  -28.1052  -36.2626   24.6275 H   0  0  0  0  0  0
  -27.2285  -37.1407   25.8874 H   0  0  0  0  0  0
  -20.9400  -29.8758   21.6814 H   0  0  0  0  0  0
  -26.0138  -38.2823   24.1429 H   0  0  0  0  0  0
  -31.7624  -19.6989   19.5072 H   0  0  0  0  0  0
  -29.1488  -18.0897   23.0990 H   0  0  0  0  0  0
  -30.2123  -17.0766   24.0657 H   0  0  0  0  0  0
  -31.9422  -17.1484   22.3700 H   0  0  0  0  0  0
  -31.3965  -18.8200   22.4097 H   0  0  0  0  0  0
  -28.2927  -16.0900   22.2599 H   0  0  0  0  0  0
  -29.7218  -15.2218   22.8184 H   0  0  0  0  0  0
  -31.3980  -17.4921   20.1122 H   0  0  0  0  0  0
  -32.4135  -21.7174   18.7165 H   0  0  0  0  0  0
  -31.7498  -23.1413   19.4966 H   0  0  0  0  0  0
  -31.1368  -22.6164   17.9183 H   0  0  0  0  0  0
  -26.9498  -22.2623   21.5687 H   0  0  0  0  0  0
  -26.5517  -20.5602   21.7251 H   0  0  0  0  0  0
  -26.2714  -21.3855   20.1934 H   0  0  0  0  0  0
  -28.3315  -22.8419   17.5162 H   0  0  0  0  0  0
  -27.6976  -24.4408   17.8679 H   0  0  0  0  0  0
  -26.8935  -23.0156   18.5158 H   0  0  0  0  0  0
  -28.7424  -24.6965   21.4369 H   0  0  0  0  0  0
  -27.1566  -24.5693   20.7834 H   0  0  0  0  0  0
  -29.6778  -23.9696   19.2011 H   0  0  0  0  0  0
  1 25  1  0  0  0
  1 30  2  0  0  0
  1 86  1  0  0  0
  2  3  1  0  0  0
  2 25  1  0  0  0
  2 87  1  0  0  0
  2 88  1  0  0  0
  3  4  1  0  0  0
  3 89  1  0  0  0
  3 90  1  0  0  0
  4  5  1  0  0  0
  4 91  1  0  0  0
  4 92  1  0  0  0
  5  6  1  0  0  0
  5 26  1  0  0  0
  5 93  1  0  0  0
  6 25  1  0  0  0
  6 94  1  0  0  0
  6 95  1  0  0  0
  7  8  2  0  0  0
  7 26  1  0  0  0
  7 29  1  0  0  0
  8  9  1  0  0  0
  8 22  1  0  0  0
  9 10  1  0  0  0
  9 27  2  0  0  0
 10 11  2  0  0  0
 10 15  1  0  0  0
 11 12  1  0  0  0
 11 96  1  0  0  0
 12 13  2  0  0  0
 12 97  1  0  0  0
 13 14  1  0  0  0
 13 31  1  0  0  0
 14 15  2  0  0  0
 14 98  1  0  0  0
 15 99  1  0  0  0
 16 17  2  0  0  0
 16 21  1  0  0  0
 16 31  1  0  0  0
 17 18  1  0  0  0
 17100  1  0  0  0
 18 19  2  0  0  0
 18101  1  0  0  0
 19 20  1  0  0  0
 19 24  1  0  0  0
 20 21  2  0  0  0
 20102  1  0  0  0
 21 23  1  0  0  0
 22 28  1  0  0  0
 22 32  2  0  0  0
 26 27  1  0  0  0
 28103  1  0  0  0
 28104  1  0  0  0
 29105  1  0  0  0
 29106  1  0  0  0
 33 34  1  0  0  0
 33 66  1  0  0  0
 33 70  2  0  0  0
 34 36  1  0  0  0
 34 59  1  0  0  0
 34107  1  0  0  0
 35 44  2  0  0  0
 35 45  1  0  0  0
 35 68  1  0  0  0
 36 56  1  0  0  0
 36108  1  0  0  0
 37 39  1  0  0  0
 37 47  1  0  0  0
 37 66  1  0  0  0
 37109  1  0  0  0
 38 43  2  0  0  0
 38 46  1  0  0  0
 38 47  1  0  0  0
 39 64  1  0  0  0
 39 67  2  0  0  0
 40 52  1  0  0  0
 40 53  2  0  0  0
 40 58  1  0  0  0
 41110  1  0  0  0
 41111  1  0  0  0
 41112  1  0  0  0
 41 48  1  0  0  0
 42 43  1  0  0  0
 42 66  1  0  0  0
 42113  1  0  0  0
 42114  1  0  0  0
 43 44  1  0  0  0
 44115  1  0  0  0
 45 46  2  0  0  0
 45116  1  0  0  0
 46117  1  0  0  0
 47118  1  0  0  0
 47119  1  0  0  0
 48 56  1  0  0  0
 48 65  1  0  0  0
 48120  1  0  0  0
 49 50  1  0  0  0
 49 53  1  0  0  0
 49 64  1  0  0  0
 49121  1  0  0  0
 50 51  1  0  0  0
 50122  1  0  0  0
 50123  1  0  0  0
 51 52  1  0  0  0
 51124  1  0  0  0
 51125  1  0  0  0
 52126  1  0  0  0
 52127  1  0  0  0
 53 54  1  0  0  0
 54 55  2  0  0  0
 54128  1  0  0  0
 55 57  1  0  0  0
 55129  1  0  0  0
 56 69  2  0  0  0
 57 58  2  0  0  0
 57130  1  0  0  0
 58131  1  0  0  0
 59 60  1  0  0  0
 59 61  1  0  0  0
 59 62  1  0  0  0
 60132  1  0  0  0
 60133  1  0  0  0
 60134  1  0  0  0
 61135  1  0  0  0
 61136  1  0  0  0
 61137  1  0  0  0
 62138  1  0  0  0
 62139  1  0  0  0
 62140  1  0  0  0
 63 65  1  0  0  0
 63141  1  0  0  0
 63142  1  0  0  0
 63143  1  0  0  0
 64144  1  0  0  0
 65145  1  0  0  0
 68 83  1  0  0  0
 71 72  2  0  0  0
 71 74  1  0  0  0
 71146  1  0  0  0
 72 73  1  0  0  0
 72 80  1  0  0  0
 73 75  2  0  0  0
 73 84  1  0  0  0
 74 85  2  0  0  0
 74 79  1  0  0  0
 75 81  1  0  0  0
 75 85  1  0  0  0
 76 77  1  0  0  0
 76 78  1  0  0  0
 76147  1  0  0  0
 76148  1  0  0  0
 77 79  1  0  0  0
 77149  1  0  0  0
 77150  1  0  0  0
 78 86  1  0  0  0
 78151  1  0  0  0
 78152  1  0  0  0
 79 86  1  0  0  0
 79153  1  0  0  0
 80154  1  0  0  0
 80155  1  0  0  0
 80156  1  0  0  0
 81157  1  0  0  0
 81158  1  0  0  0
 81159  1  0  0  0
 82160  1  0  0  0
 82161  1  0  0  0
 82162  1  0  0  0
 82 84  1  0  0  0
 83 84  1  0  0  0
 83163  1  0  0  0
 83164  1  0  0  0
 84165  1  0  0  0
M  ISO  4   1 100  68 101  83 101  86 100
M  END
> <chiral flag>
0

> <version>
0

> <s_m_source_file>
/data/baiqing/PycharmProjects/Reinvent-master-3.2/result/LINK_invent/BTK/process_docking_weight1_custom_sum_contain_oxygen_bond_distance_aromatic_linkinvent_7_9_3/rearranged_h_0168.sdf

> <i_m_source_file_index>
58

> <r_mmod_Potential_Energy-OPLS-2005>
496.911041259766

> <r_mmod_Stretch_Energy-OPLS-2005>
233.573486328125

> <r_mmod_Bend_Energy-OPLS-2005>
332.1513671875

> <r_mmod_Torsional_Energy-OPLS-2005>
322.234619140625

> <r_mmod_Improper_Torsional_Energy-OPLS-2005>
11.641206741333

> <r_mmod_Van_der_Waal_Energy-OPLS-2005>
137.855102539062

> <r_mmod_Electrostatic_Energy-OPLS-2005>
-488.392181396484

> <r_mmod_Solvation_Energy-OPLS-2005>
-203.715835571289

> <b_mmod_Minimization_Converged-OPLS-2005>
0

> <r_mmod_RMS_Derivative-OPLS-2005>
3.74374198913574

$$$$
58
                    3D
 Structure written by MMmdl.
162171  0  0  1  0            999 V2000
  -30.4927  -15.0694   20.3948 C   0  0  0  0  0  0
  -30.4421  -12.6653   19.5146 C   0  0  0  0  0  0
  -29.5284  -12.5490   18.2705 C   0  0  0  0  0  0
  -28.0656  -12.3126   18.6886 C   0  0  0  0  0  0
  -27.6241  -13.2580   19.8351 C   0  0  2  0  0  0
  -28.6633  -13.3327   20.9742 C   0  0  0  0  0  0
  -25.2435  -13.8231   20.5723 C   0  0  0  0  0  0
  -24.1767  -13.0436   20.9246 C   0  0  0  0  0  0
  -24.6399  -11.6927   20.8763 C   0  0  0  0  0  0
  -23.9088  -10.4292   21.0411 C   0  0  0  0  0  0
  -24.3635   -9.4204   21.9188 C   0  0  0  0  0  0
  -23.6305   -8.2240   22.0755 C   0  0  0  0  0  0
  -22.4288   -8.0281   21.3544 C   0  0  0  0  0  0
  -21.9929   -9.0255   20.4644 C   0  0  0  0  0  0
  -22.7261  -10.2132   20.3057 C   0  0  0  0  0  0
  -21.6855   -6.0740   22.5282 C   0  0  0  0  0  0
  -21.4013   -6.5642   23.8215 C   0  0  0  0  0  0
  -21.3662   -5.6795   24.9178 C   0  0  0  0  0  0
  -21.6045   -4.3059   24.7229 C   0  0  0  0  0  0
  -21.8819   -3.8149   23.4352 C   0  0  0  0  0  0
  -21.9192   -4.6966   22.3407 C   0  0  0  0  0  0
  -22.7786  -13.5198   21.1895 C   0  0  0  0  0  0
  -22.1661   -4.2152   21.0984 F   0  0  0  0  0  0
  -21.5630   -3.4542   25.7740 F   0  0  0  0  0  0
  -29.9264  -13.7816   20.3712 N   0  0  0  0  0  0
  -26.2860  -12.9476   20.3232 N   0  0  0  0  0  0
  -25.9334  -11.6597   20.5738 N   0  0  0  0  0  0
  -22.0444  -12.8174   22.0450 N   0  0  0  0  0  0
  -25.4080  -15.1961   20.4133 N   0  0  0  0  0  0
  -31.7020  -15.1091   20.1282 O   0  0  0  0  0  0
  -21.6642   -6.8883   21.4243 O   0  0  0  0  0  0
  -22.3464  -14.5498   20.6735 O   0  0  0  0  0  0
  -24.6510  -31.8359   23.1816 C   0  0  0  0  0  0
  -25.9250  -32.4649   23.8230 C   0  0  1  0  0  0
  -27.2160  -27.0547   20.1629 C   0  0  0  0  0  0
  -25.5970  -33.8460   24.2145 N   0  0  0  0  0  0
  -23.4589  -30.4528   21.5285 C   0  0  2  0  0  0
  -24.9102  -28.8655   20.1091 C   0  0  0  0  0  0
  -22.7609  -29.4504   22.4827 C   0  0  0  0  0  0
  -18.0312  -28.1404   22.8475 C   0  0  0  0  0  0
  -24.1491  -36.7231   23.2643 C   0  0  0  0  0  0
  -26.0206  -30.6830   21.3934 C   0  0  0  0  0  0
  -26.0903  -29.2867   20.7346 C   0  0  0  0  0  0
  -27.2421  -28.3993   20.7418 C   0  0  0  0  0  0
  -26.0101  -26.7580   19.4894 C   0  0  0  0  0  0
  -24.8880  -27.6179   19.4683 C   0  0  0  0  0  0
  -23.6906  -29.7776   20.1501 C   0  0  0  0  0  0
  -25.4127  -36.3002   24.0308 C   0  0  1  0  0  0
  -20.5930  -28.3735   23.1215 C   0  0  2  0  0  0
  -20.6794  -26.9429   22.5404 C   0  0  0  0  0  0
  -19.5768  -26.6380   21.5215 C   0  0  0  0  0  0
  -18.1948  -26.7941   22.1624 C   0  0  0  0  0  0
  -19.1571  -28.8890   23.2833 C   0  0  0  0  0  0
  -18.9485  -30.1485   23.8859 C   0  0  0  0  0  0
  -17.6480  -30.6596   24.0559 C   0  0  0  0  0  0
  -25.9086  -34.9382   23.5038 C   0  0  0  0  0  0
  -16.5370  -29.9085   23.6343 C   0  0  0  0  0  0
  -16.7296  -28.6506   23.0362 C   0  0  0  0  0  0
  -26.4545  -31.6552   25.0711 C   0  0  0  0  0  0
  -25.3708  -31.3767   26.1392 C   0  0  0  0  0  0
  -27.0429  -30.2935   24.6362 C   0  0  0  0  0  0
  -27.6056  -32.4341   25.7503 C   0  0  0  0  0  0
  -27.5576  -37.1767   24.8462 C   0  0  0  0  0  0
  -21.4291  -29.3045   22.3577 N   0  0  0  0  0  0
  -26.4280  -37.3729   23.9415 N   0  0  0  0  0  0
  -24.7305  -31.0141   22.0890 N   0  0  0  0  0  0
  -23.4215  -28.8063   23.3016 O   0  0  0  0  0  0
  -28.2391  -26.0123   20.2492 O   0  0  0  0  0  0
  -26.5678  -34.8895   22.4623 O   0  0  0  0  0  0
  -23.5610  -32.1272   23.6990 O   0  0  0  0  0  0
  -28.7629  -18.8077   20.6653 C   0  0  0  0  0  0
  -28.8942  -20.2724   20.4480 C   0  0  0  0  0  0
  -30.0707  -20.7660   19.9208 C   0  0  0  0  0  0
  -31.0797  -19.7785   19.6502 C   0  0  0  0  0  0
  -29.8203  -17.8106   20.3662 C   0  0  0  0  0  0
  -27.9401  -21.5367   20.6629 C   0  0  2  0  0  0
  -28.7431  -22.9703   20.4782 C   0  0  1  0  0  0
  -30.0157  -22.3506   19.6972 C   0  0  0  0  0  0
  -32.4313  -20.1669   19.0836 C   0  0  0  0  0  0
  -27.1938  -21.4515   21.9996 C   0  0  0  0  0  0
  -29.8422  -22.6246   18.1915 C   0  0  0  0  0  0
  -31.2914  -23.0504   20.2019 C   0  0  0  0  0  0
  -27.9437  -24.4590   20.0353 C   0  0  0  0  0  0
  -30.9465  -18.4145   19.8681 N   0  0  0  0  0  0
  -29.6836  -16.2606   20.5522 N   0  0  0  0  0  0
  -31.4714  -12.8380   19.1979 H   0  0  0  0  0  0
  -30.4591  -11.7279   20.0727 H   0  0  0  0  0  0
  -29.8685  -11.7404   17.6221 H   0  0  0  0  0  0
  -29.5972  -13.4648   17.6816 H   0  0  0  0  0  0
  -27.9813  -11.2755   19.0152 H   0  0  0  0  0  0
  -27.4021  -12.4175   17.8291 H   0  0  0  0  0  0
  -27.5711  -14.2495   19.3844 H   0  0  0  0  0  0
  -28.7781  -12.3672   21.4688 H   0  0  0  0  0  0
  -28.3395  -14.0360   21.7428 H   0  0  0  0  0  0
  -25.2780   -9.5675   22.4763 H   0  0  0  0  0  0
  -24.0011   -7.4633   22.7474 H   0  0  0  0  0  0
  -21.0860   -8.8776   19.8951 H   0  0  0  0  0  0
  -22.3721  -10.9671   19.6166 H   0  0  0  0  0  0
  -21.2002   -7.6151   23.9717 H   0  0  0  0  0  0
  -21.1486   -6.0527   25.9079 H   0  0  0  0  0  0
  -22.0596   -2.7610   23.2851 H   0  0  0  0  0  0
  -22.4079  -11.9842   22.4836 H   0  0  0  0  0  0
  -21.1054  -13.1174   22.2656 H   0  0  0  0  0  0
  -24.6308  -15.8403   20.5141 H   0  0  0  0  0  0
  -26.2330  -15.6343   20.0261 H   0  0  0  0  0  0
  -26.7316  -32.5227   23.0950 H   0  0  0  0  0  0
  -25.0096  -33.9559   25.0279 H   0  0  0  0  0  0
  -22.7652  -31.2809   21.3684 H   0  0  0  0  0  0
  -23.3768  -35.9546   23.3271 H   0  0  0  0  0  0
  -24.3575  -36.8906   22.2065 H   0  0  0  0  0  0
  -23.7229  -37.6404   23.6713 H   0  0  0  0  0  0
  -26.1885  -31.4339   20.6201 H   0  0  0  0  0  0
  -26.8855  -30.7333   22.0433 H   0  0  0  0  0  0
  -28.1370  -28.7165   21.2585 H   0  0  0  0  0  0
  -25.8981  -25.8052   18.9939 H   0  0  0  0  0  0
  -23.9894  -27.2914   18.9628 H   0  0  0  0  0  0
  -23.8344  -30.5500   19.3938 H   0  0  0  0  0  0
  -22.8030  -29.2251   19.8366 H   0  0  0  0  0  0
  -25.1318  -36.1812   25.0798 H   0  0  0  0  0  0
  -21.0017  -28.3335   24.1339 H   0  0  0  0  0  0
  -20.5686  -26.2349   23.3632 H   0  0  0  0  0  0
  -21.6657  -26.7427   22.1203 H   0  0  0  0  0  0
  -19.6925  -25.6282   21.1268 H   0  0  0  0  0  0
  -19.6703  -27.3169   20.6728 H   0  0  0  0  0  0
  -17.4217  -26.6689   21.4025 H   0  0  0  0  0  0
  -18.0339  -26.0088   22.9023 H   0  0  0  0  0  0
  -19.7960  -30.7316   24.2204 H   0  0  0  0  0  0
  -17.5032  -31.6270   24.5174 H   0  0  0  0  0  0
  -15.5370  -30.2976   23.7689 H   0  0  0  0  0  0
  -15.8697  -28.0815   22.7096 H   0  0  0  0  0  0
  -24.5895  -30.7108   25.7711 H   0  0  0  0  0  0
  -24.8892  -32.2958   26.4738 H   0  0  0  0  0  0
  -25.7974  -30.8992   27.0222 H   0  0  0  0  0  0
  -26.3072  -29.6632   24.1352 H   0  0  0  0  0  0
  -27.3989  -29.7269   25.4976 H   0  0  0  0  0  0
  -27.9002  -30.4148   23.9736 H   0  0  0  0  0  0
  -27.2637  -33.3676   26.1984 H   0  0  0  0  0  0
  -28.3916  -32.6844   25.0368 H   0  0  0  0  0  0
  -28.0667  -31.8532   26.5499 H   0  0  0  0  0  0
  -28.2561  -38.0095   24.7542 H   0  0  0  0  0  0
  -28.1104  -36.2624   24.6249 H   0  0  0  0  0  0
  -27.2296  -37.1363   25.8864 H   0  0  0  0  0  0
  -20.9519  -29.8744   21.6732 H   0  0  0  0  0  0
  -26.0134  -38.2785   24.1448 H   0  0  0  0  0  0
  -27.8246  -18.4473   21.0639 H   0  0  0  0  0  0
  -27.2015  -21.4804   19.8621 H   0  0  0  0  0  0
  -29.1051  -23.1750   21.4864 H   0  0  0  0  0  0
  -32.3315  -20.8699   18.2592 H   0  0  0  0  0  0
  -32.9694  -19.2986   18.7020 H   0  0  0  0  0  0
  -33.0471  -20.6215   19.8592 H   0  0  0  0  0  0
  -27.8901  -21.4456   22.8381 H   0  0  0  0  0  0
  -26.5983  -20.5403   22.0556 H   0  0  0  0  0  0
  -26.5179  -22.2973   22.1268 H   0  0  0  0  0  0
  -28.9141  -22.1927   17.8144 H   0  0  0  0  0  0
  -30.6552  -22.2070   17.5998 H   0  0  0  0  0  0
  -29.8148  -23.6940   17.9803 H   0  0  0  0  0  0
  -31.4965  -22.8034   21.2440 H   0  0  0  0  0  0
  -31.1883  -24.1345   20.1386 H   0  0  0  0  0  0
  -32.1723  -22.7906   19.6185 H   0  0  0  0  0  0
  -26.9745  -24.3480   20.5217 H   0  0  0  0  0  0
  -27.7144  -24.3628   18.9745 H   0  0  0  0  0  0
  -28.7449  -16.0026   20.8092 H   0  0  0  0  0  0
  1 25  1  0  0  0
  1 30  2  0  0  0
  1 85  1  0  0  0
  2  3  1  0  0  0
  2 25  1  0  0  0
  2 86  1  0  0  0
  2 87  1  0  0  0
  3  4  1  0  0  0
  3 88  1  0  0  0
  3 89  1  0  0  0
  4  5  1  0  0  0
  4 90  1  0  0  0
  4 91  1  0  0  0
  5  6  1  0  0  0
  5 26  1  0  0  0
  5 92  1  0  0  0
  6 25  1  0  0  0
  6 93  1  0  0  0
  6 94  1  0  0  0
  7  8  2  0  0  0
  7 26  1  0  0  0
  7 29  1  0  0  0
  8  9  1  0  0  0
  8 22  1  0  0  0
  9 10  1  0  0  0
  9 27  2  0  0  0
 10 11  2  0  0  0
 10 15  1  0  0  0
 11 12  1  0  0  0
 11 95  1  0  0  0
 12 13  2  0  0  0
 12 96  1  0  0  0
 13 14  1  0  0  0
 13 31  1  0  0  0
 14 15  2  0  0  0
 14 97  1  0  0  0
 15 98  1  0  0  0
 16 17  2  0  0  0
 16 21  1  0  0  0
 16 31  1  0  0  0
 17 18  1  0  0  0
 17 99  1  0  0  0
 18 19  2  0  0  0
 18100  1  0  0  0
 19 20  1  0  0  0
 19 24  1  0  0  0
 20 21  2  0  0  0
 20101  1  0  0  0
 21 23  1  0  0  0
 22 28  1  0  0  0
 22 32  2  0  0  0
 26 27  1  0  0  0
 28102  1  0  0  0
 28103  1  0  0  0
 29104  1  0  0  0
 29105  1  0  0  0
 33 34  1  0  0  0
 33 66  1  0  0  0
 33 70  2  0  0  0
 34 36  1  0  0  0
 34 59  1  0  0  0
 34106  1  0  0  0
 35 44  2  0  0  0
 35 45  1  0  0  0
 35 68  1  0  0  0
 36 56  1  0  0  0
 36107  1  0  0  0
 37 39  1  0  0  0
 37 47  1  0  0  0
 37 66  1  0  0  0
 37108  1  0  0  0
 38 43  2  0  0  0
 38 46  1  0  0  0
 38 47  1  0  0  0
 39 64  1  0  0  0
 39 67  2  0  0  0
 40 52  1  0  0  0
 40 53  2  0  0  0
 40 58  1  0  0  0
 41109  1  0  0  0
 41110  1  0  0  0
 41111  1  0  0  0
 41 48  1  0  0  0
 42 43  1  0  0  0
 42 66  1  0  0  0
 42112  1  0  0  0
 42113  1  0  0  0
 43 44  1  0  0  0
 44114  1  0  0  0
 45 46  2  0  0  0
 45115  1  0  0  0
 46116  1  0  0  0
 47117  1  0  0  0
 47118  1  0  0  0
 48 56  1  0  0  0
 48 65  1  0  0  0
 48119  1  0  0  0
 49 50  1  0  0  0
 49 53  1  0  0  0
 49 64  1  0  0  0
 49120  1  0  0  0
 50 51  1  0  0  0
 50121  1  0  0  0
 50122  1  0  0  0
 51 52  1  0  0  0
 51123  1  0  0  0
 51124  1  0  0  0
 52125  1  0  0  0
 52126  1  0  0  0
 53 54  1  0  0  0
 54 55  2  0  0  0
 54127  1  0  0  0
 55 57  1  0  0  0
 55128  1  0  0  0
 56 69  2  0  0  0
 57 58  2  0  0  0
 57129  1  0  0  0
 58130  1  0  0  0
 59 60  1  0  0  0
 59 61  1  0  0  0
 59 62  1  0  0  0
 60131  1  0  0  0
 60132  1  0  0  0
 60133  1  0  0  0
 61134  1  0  0  0
 61135  1  0  0  0
 61136  1  0  0  0
 62137  1  0  0  0
 62138  1  0  0  0
 62139  1  0  0  0
 63 65  1  0  0  0
 63140  1  0  0  0
 63141  1  0  0  0
 63142  1  0  0  0
 64143  1  0  0  0
 65144  1  0  0  0
 68 83  1  0  0  0
 71 72  2  0  0  0
 71 75  1  0  0  0
 71145  1  0  0  0
 72 73  1  0  0  0
 72 76  1  0  0  0
 73 74  2  0  0  0
 73 78  1  0  0  0
 74 79  1  0  0  0
 74 84  1  0  0  0
 75 84  2  0  0  0
 75 85  1  0  0  0
 76 77  1  0  0  0
 76 80  1  0  0  0
 76146  1  0  0  0
 77 78  1  0  0  0
 77 83  1  0  0  0
 77147  1  0  0  0
 78 81  1  0  0  0
 78 82  1  0  0  0
 79148  1  0  0  0
 79149  1  0  0  0
 79150  1  0  0  0
 80151  1  0  0  0
 80152  1  0  0  0
 80153  1  0  0  0
 81154  1  0  0  0
 81155  1  0  0  0
 81156  1  0  0  0
 82157  1  0  0  0
 82158  1  0  0  0
 82159  1  0  0  0
 83160  1  0  0  0
 83161  1  0  0  0
 85162  1  0  0  0
M  ISO  4   1 100  68 101  83 101  85 100
M  END
> <chiral flag>
0

> <version>
0

> <s_m_source_file>
/data/baiqing/PycharmProjects/Reinvent-master-3.2/result/LINK_invent/BTK/process_docking_weight1_custom_sum_contain_oxygen_bond_distance_aromatic_linkinvent_7_9_3/rearranged_h_0168.sdf

> <i_m_source_file_index>
59

> <r_mmod_Potential_Energy-OPLS-2005>
581.201354980469

> <r_mmod_Stretch_Energy-OPLS-2005>
331.341003417969

> <r_mmod_Bend_Energy-OPLS-2005>
352.665679931641

> <r_mmod_Torsional_Energy-OPLS-2005>
220.289672851562

> <r_mmod_Improper_Torsional_Energy-OPLS-2005>
3.69230151176453

> <r_mmod_Van_der_Waal_Energy-OPLS-2005>
123.941482543945

> <r_mmod_Electrostatic_Energy-OPLS-2005>
-499.82861328125

> <r_mmod_Solvation_Energy-OPLS-2005>
-231.895767211914

> <b_mmod_Minimization_Converged-OPLS-2005>
0

> <r_mmod_RMS_Derivative-OPLS-2005>
0.590737879276276

$$$$
59
                    3D
 Structure written by MMmdl.
177186  0  0  1  0            999 V2000
  -30.6881  -14.6644   20.6048 C   0  0  0  0  0  0
  -30.4260  -12.4321   19.4673 C   0  0  0  0  0  0
  -29.5191  -12.5641   18.2283 C   0  0  0  0  0  0
  -28.0346  -12.4204   18.6106 C   0  0  0  0  0  0
  -27.6605  -13.2433   19.8749 C   0  0  2  0  0  0
  -28.7074  -13.1088   21.0076 C   0  0  0  0  0  0
  -25.2611  -13.8262   20.5633 C   0  0  0  0  0  0
  -24.1871  -13.0458   20.9105 C   0  0  0  0  0  0
  -24.6476  -11.6964   20.8692 C   0  0  0  0  0  0
  -23.9140  -10.4326   21.0402 C   0  0  0  0  0  0
  -24.3686   -9.4236   21.9185 C   0  0  0  0  0  0
  -23.6334   -8.2279   22.0777 C   0  0  0  0  0  0
  -22.4317   -8.0305   21.3538 C   0  0  0  0  0  0
  -21.9946   -9.0306   20.4667 C   0  0  0  0  0  0
  -22.7311  -10.2180   20.3063 C   0  0  0  0  0  0
  -21.6899   -6.0736   22.5283 C   0  0  0  0  0  0
  -21.4033   -6.5641   23.8197 C   0  0  0  0  0  0
  -21.3661   -5.6804   24.9165 C   0  0  0  0  0  0
  -21.6046   -4.3050   24.7227 C   0  0  0  0  0  0
  -21.8832   -3.8128   23.4348 C   0  0  0  0  0  0
  -21.9188   -4.6955   22.3405 C   0  0  0  0  0  0
  -22.7900  -13.5265   21.1766 C   0  0  0  0  0  0
  -22.1656   -4.2144   21.0988 F   0  0  0  0  0  0
  -21.5628   -3.4555   25.7729 F   0  0  0  0  0  0
  -30.0216  -13.4647   20.4535 N   0  0  0  0  0  0
  -26.3048  -12.9476   20.3354 N   0  0  0  0  0  0
  -25.9413  -11.6585   20.5739 N   0  0  0  0  0  0
  -22.0559  -12.8259   22.0360 N   0  0  0  0  0  0
  -25.4282  -15.1976   20.4050 N   0  0  0  0  0  0
  -31.7664  -14.8335   20.0271 O   0  0  0  0  0  0
  -21.6647   -6.8906   21.4245 O   0  0  0  0  0  0
  -22.3541  -14.5539   20.6603 O   0  0  0  0  0  0
  -24.6355  -31.8555   23.1983 C   0  0  0  0  0  0
  -25.9162  -32.4739   23.8348 C   0  0  1  0  0  0
  -27.2112  -27.2284   20.1756 C   0  0  0  0  0  0
  -25.5962  -33.8549   24.2272 N   0  0  0  0  0  0
  -23.4347  -30.4811   21.5395 C   0  0  2  0  0  0
  -24.8826  -28.9171   20.1143 C   0  0  0  0  0  0
  -22.7499  -29.4669   22.4876 C   0  0  0  0  0  0
  -18.0330  -28.1409   22.8519 C   0  0  0  0  0  0
  -24.1472  -36.7205   23.2659 C   0  0  0  0  0  0
  -25.9825  -30.7595   21.3876 C   0  0  0  0  0  0
  -26.0541  -29.3800   20.7253 C   0  0  0  0  0  0
  -27.2272  -28.5547   20.7303 C   0  0  0  0  0  0
  -26.0275  -26.8380   19.5223 C   0  0  0  0  0  0
  -24.8773  -27.6582   19.4892 C   0  0  0  0  0  0
  -23.6541  -29.8080   20.1579 C   0  0  0  0  0  0
  -25.4113  -36.3042   24.0350 C   0  0  1  0  0  0
  -20.5924  -28.3749   23.1228 C   0  0  2  0  0  0
  -20.6820  -26.9443   22.5424 C   0  0  0  0  0  0
  -19.5781  -26.6387   21.5249 C   0  0  0  0  0  0
  -18.1949  -26.7960   22.1639 C   0  0  0  0  0  0
  -19.1584  -28.8896   23.2874 C   0  0  0  0  0  0
  -18.9484  -30.1494   23.8891 C   0  0  0  0  0  0
  -17.6478  -30.6606   24.0563 C   0  0  0  0  0  0
  -25.9085  -34.9431   23.5119 C   0  0  0  0  0  0
  -16.5367  -29.9088   23.6346 C   0  0  0  0  0  0
  -16.7312  -28.6505   23.0379 C   0  0  0  0  0  0
  -26.4514  -31.6611   25.0785 C   0  0  0  0  0  0
  -25.3685  -31.3793   26.1473 C   0  0  0  0  0  0
  -27.0467  -30.3048   24.6411 C   0  0  0  0  0  0
  -27.6088  -32.4370   25.7522 C   0  0  0  0  0  0
  -27.5578  -37.1767   24.8485 C   0  0  0  0  0  0
  -21.4218  -29.3071   22.3582 N   0  0  0  0  0  0
  -26.4280  -37.3752   23.9445 N   0  0  0  0  0  0
  -24.7027  -31.0512   22.0969 N   0  0  0  0  0  0
  -23.4192  -28.8223   23.3001 O   0  0  0  0  0  0
  -28.2852  -26.3056   20.2230 O   0  0  0  0  0  0
  -26.5593  -34.8900   22.4659 O   0  0  0  0  0  0
  -23.5493  -32.1385   23.7269 O   0  0  0  0  0  0
  -29.5097  -20.7982   20.4925 C   0  0  0  0  0  0
  -29.3227  -19.6039   21.3321 C   0  0  0  0  0  0
  -30.1188  -20.4993   19.2359 C   0  0  0  0  0  0
  -29.7111  -18.2555   20.8876 C   0  0  0  0  0  0
  -30.3376  -19.1533   18.8431 C   0  0  0  0  0  0
  -30.0239  -16.8306   23.1509 C   0  0  0  0  0  0
  -29.5160  -16.8901   21.7113 C   0  0  1  0  0  0
  -31.1743  -15.9544   22.6758 C   0  0  2  0  0  0
  -28.7358  -19.7619   22.7388 C   0  0  0  0  0  0
  -30.6862  -21.5848   18.3200 C   0  0  0  0  0  0
  -30.8174  -18.8360   17.4355 C   0  0  0  0  0  0
  -30.8157  -13.5781   23.8103 C   0  0  0  0  0  0
  -33.1721  -14.4558   23.3296 C   0  0  0  0  0  0
  -28.3172  -23.6093   18.7211 C   0  0  0  0  0  0
  -29.2849  -22.3471   20.9472 C   0  0  0  0  0  0
  -28.0992  -24.9626   20.9035 C   0  0  0  0  0  0
  -31.7060  -14.8307   23.6173 C   0  0  0  0  0  0
  -28.2978  -23.4749   20.2453 C   0  0  1  0  0  0
  -30.1703  -18.0808   19.6381 N   0  0  0  0  0  0
  -30.2677  -15.5383   21.5869 N   0  0  0  0  0  0
  -31.4744  -12.5122   19.1842 H   0  0  0  0  0  0
  -30.3248  -11.4401   19.9082 H   0  0  0  0  0  0
  -29.7931  -11.8311   17.4715 H   0  0  0  0  0  0
  -29.6903  -13.5397   17.7781 H   0  0  0  0  0  0
  -27.8100  -11.3630   18.7527 H   0  0  0  0  0  0
  -27.4200  -12.7464   17.7684 H   0  0  0  0  0  0
  -27.6798  -14.2891   19.5696 H   0  0  0  0  0  0
  -28.7304  -12.0892   21.3978 H   0  0  0  0  0  0
  -28.4394  -13.7450   21.8549 H   0  0  0  0  0  0
  -25.2873   -9.5685   22.4721 H   0  0  0  0  0  0
  -24.0043   -7.4660   22.7538 H   0  0  0  0  0  0
  -21.0845   -8.8824   19.8994 H   0  0  0  0  0  0
  -22.3769  -10.9693   19.6116 H   0  0  0  0  0  0
  -21.2037   -7.6161   23.9712 H   0  0  0  0  0  0
  -21.1482   -6.0527   25.9077 H   0  0  0  0  0  0
  -22.0604   -2.7602   23.2859 H   0  0  0  0  0  0
  -22.4179  -11.9917   22.4715 H   0  0  0  0  0  0
  -21.1181  -13.1299   22.2616 H   0  0  0  0  0  0
  -24.6662  -15.8599   20.5111 H   0  0  0  0  0  0
  -26.2870  -15.6361   20.0937 H   0  0  0  0  0  0
  -26.7240  -32.5375   23.1103 H   0  0  0  0  0  0
  -25.0223  -33.9679   25.0499 H   0  0  0  0  0  0
  -22.7378  -31.3089   21.3861 H   0  0  0  0  0  0
  -23.3801  -35.9476   23.3324 H   0  0  0  0  0  0
  -24.3564  -36.8824   22.2076 H   0  0  0  0  0  0
  -23.7153  -37.6379   23.6677 H   0  0  0  0  0  0
  -26.1438  -31.5300   20.6333 H   0  0  0  0  0  0
  -26.8474  -30.7901   22.0368 H   0  0  0  0  0  0
  -28.1252  -28.9091   21.2135 H   0  0  0  0  0  0
  -25.9801  -25.8704   19.0467 H   0  0  0  0  0  0
  -23.9843  -27.3059   18.9956 H   0  0  0  0  0  0
  -23.7745  -30.5797   19.3963 H   0  0  0  0  0  0
  -22.7721  -29.2429   19.8544 H   0  0  0  0  0  0
  -25.1299  -36.1903   25.0842 H   0  0  0  0  0  0
  -21.0058  -28.3357   24.1326 H   0  0  0  0  0  0
  -20.5748  -26.2354   23.3656 H   0  0  0  0  0  0
  -21.6675  -26.7471   22.1173 H   0  0  0  0  0  0
  -19.6926  -25.6280   21.1312 H   0  0  0  0  0  0
  -19.6706  -27.3164   20.6742 H   0  0  0  0  0  0
  -17.4232  -26.6760   21.4007 H   0  0  0  0  0  0
  -18.0295  -26.0074   22.8996 H   0  0  0  0  0  0
  -19.7954  -30.7357   24.2204 H   0  0  0  0  0  0
  -17.5021  -31.6283   24.5184 H   0  0  0  0  0  0
  -15.5366  -30.2980   23.7720 H   0  0  0  0  0  0
  -15.8703  -28.0839   22.7090 H   0  0  0  0  0  0
  -24.5848  -30.7169   25.7772 H   0  0  0  0  0  0
  -24.8867  -32.2969   26.4873 H   0  0  0  0  0  0
  -25.7925  -30.8971   27.0289 H   0  0  0  0  0  0
  -26.3181  -29.6688   24.1379 H   0  0  0  0  0  0
  -27.4083  -29.7438   25.5039 H   0  0  0  0  0  0
  -27.9033  -30.4375   23.9796 H   0  0  0  0  0  0
  -27.2770  -33.3741   26.2021 H   0  0  0  0  0  0
  -28.3908  -32.6819   25.0306 H   0  0  0  0  0  0
  -28.0736  -31.8522   26.5484 H   0  0  0  0  0  0
  -28.2605  -38.0047   24.7543 H   0  0  0  0  0  0
  -28.1046  -36.2597   24.6301 H   0  0  0  0  0  0
  -27.2286  -37.1390   25.8874 H   0  0  0  0  0  0
  -20.9442  -29.8699   21.6688 H   0  0  0  0  0  0
  -26.0165  -38.2839   24.1444 H   0  0  0  0  0  0
  -29.3449  -16.2916   23.8160 H   0  0  0  0  0  0
  -30.3516  -17.7685   23.5938 H   0  0  0  0  0  0
  -28.4408  -16.7232   21.7256 H   0  0  0  0  0  0
  -31.9920  -16.5779   22.2987 H   0  0  0  0  0  0
  -28.1208  -20.6533   22.8597 H   0  0  0  0  0  0
  -29.5327  -19.8102   23.4858 H   0  0  0  0  0  0
  -28.0895  -18.9221   22.9957 H   0  0  0  0  0  0
  -30.2037  -21.6362   17.3408 H   0  0  0  0  0  0
  -31.7414  -21.3830   18.1324 H   0  0  0  0  0  0
  -30.6684  -22.5689   18.7679 H   0  0  0  0  0  0
  -30.2670  -19.4424   16.7158 H   0  0  0  0  0  0
  -30.6726  -17.7921   17.1539 H   0  0  0  0  0  0
  -31.8743  -19.0835   17.3511 H   0  0  0  0  0  0
  -29.7789  -13.8317   24.0486 H   0  0  0  0  0  0
  -31.1937  -12.9910   24.6492 H   0  0  0  0  0  0
  -30.8187  -12.9025   22.9532 H   0  0  0  0  0  0
  -33.8286  -15.3014   23.5550 H   0  0  0  0  0  0
  -33.3384  -14.1757   22.2895 H   0  0  0  0  0  0
  -33.5036  -13.6264   23.9594 H   0  0  0  0  0  0
  -29.1318  -24.2485   18.3742 H   0  0  0  0  0  0
  -27.3933  -24.0491   18.3556 H   0  0  0  0  0  0
  -28.3764  -22.6307   18.2576 H   0  0  0  0  0  0
  -30.2814  -22.7806   20.9892 H   0  0  0  0  0  0
  -29.0153  -22.3442   21.9977 H   0  0  0  0  0  0
  -28.7363  -24.9812   21.7855 H   0  0  0  0  0  0
  -27.0988  -24.9570   21.3348 H   0  0  0  0  0  0
  -31.7466  -15.2586   24.6186 H   0  0  0  0  0  0
  -27.3306  -22.9967   20.4121 H   0  0  0  0  0  0
  1 25  1  0  0  0
  1 30  2  0  0  0
  1 90  1  0  0  0
  2  3  1  0  0  0
  2 25  1  0  0  0
  2 91  1  0  0  0
  2 92  1  0  0  0
  3  4  1  0  0  0
  3 93  1  0  0  0
  3 94  1  0  0  0
  4  5  1  0  0  0
  4 95  1  0  0  0
  4 96  1  0  0  0
  5  6  1  0  0  0
  5 26  1  0  0  0
  5 97  1  0  0  0
  6 25  1  0  0  0
  6 98  1  0  0  0
  6 99  1  0  0  0
  7  8  2  0  0  0
  7 26  1  0  0  0
  7 29  1  0  0  0
  8  9  1  0  0  0
  8 22  1  0  0  0
  9 10  1  0  0  0
  9 27  2  0  0  0
 10 11  2  0  0  0
 10 15  1  0  0  0
 11 12  1  0  0  0
 11100  1  0  0  0
 12 13  2  0  0  0
 12101  1  0  0  0
 13 14  1  0  0  0
 13 31  1  0  0  0
 14 15  2  0  0  0
 14102  1  0  0  0
 15103  1  0  0  0
 16 17  2  0  0  0
 16 21  1  0  0  0
 16 31  1  0  0  0
 17 18  1  0  0  0
 17104  1  0  0  0
 18 19  2  0  0  0
 18105  1  0  0  0
 19 20  1  0  0  0
 19 24  1  0  0  0
 20 21  2  0  0  0
 20106  1  0  0  0
 21 23  1  0  0  0
 22 28  1  0  0  0
 22 32  2  0  0  0
 26 27  1  0  0  0
 28107  1  0  0  0
 28108  1  0  0  0
 29109  1  0  0  0
 29110  1  0  0  0
 33 34  1  0  0  0
 33 66  1  0  0  0
 33 70  2  0  0  0
 34 36  1  0  0  0
 34 59  1  0  0  0
 34111  1  0  0  0
 35 44  2  0  0  0
 35 45  1  0  0  0
 35 68  1  0  0  0
 36 56  1  0  0  0
 36112  1  0  0  0
 37 39  1  0  0  0
 37 47  1  0  0  0
 37 66  1  0  0  0
 37113  1  0  0  0
 38 43  2  0  0  0
 38 46  1  0  0  0
 38 47  1  0  0  0
 39 64  1  0  0  0
 39 67  2  0  0  0
 40 52  1  0  0  0
 40 53  2  0  0  0
 40 58  1  0  0  0
 41114  1  0  0  0
 41115  1  0  0  0
 41116  1  0  0  0
 41 48  1  0  0  0
 42 43  1  0  0  0
 42 66  1  0  0  0
 42117  1  0  0  0
 42118  1  0  0  0
 43 44  1  0  0  0
 44119  1  0  0  0
 45 46  2  0  0  0
 45120  1  0  0  0
 46121  1  0  0  0
 47122  1  0  0  0
 47123  1  0  0  0
 48 56  1  0  0  0
 48 65  1  0  0  0
 48124  1  0  0  0
 49 50  1  0  0  0
 49 53  1  0  0  0
 49 64  1  0  0  0
 49125  1  0  0  0
 50 51  1  0  0  0
 50126  1  0  0  0
 50127  1  0  0  0
 51 52  1  0  0  0
 51128  1  0  0  0
 51129  1  0  0  0
 52130  1  0  0  0
 52131  1  0  0  0
 53 54  1  0  0  0
 54 55  2  0  0  0
 54132  1  0  0  0
 55 57  1  0  0  0
 55133  1  0  0  0
 56 69  2  0  0  0
 57 58  2  0  0  0
 57134  1  0  0  0
 58135  1  0  0  0
 59 60  1  0  0  0
 59 61  1  0  0  0
 59 62  1  0  0  0
 60136  1  0  0  0
 60137  1  0  0  0
 60138  1  0  0  0
 61139  1  0  0  0
 61140  1  0  0  0
 61141  1  0  0  0
 62142  1  0  0  0
 62143  1  0  0  0
 62144  1  0  0  0
 63 65  1  0  0  0
 63145  1  0  0  0
 63146  1  0  0  0
 63147  1  0  0  0
 64148  1  0  0  0
 65149  1  0  0  0
 68 86  1  0  0  0
 71 72  2  0  0  0
 71 73  1  0  0  0
 71 85  1  0  0  0
 72 74  1  0  0  0
 72 79  1  0  0  0
 73 75  2  0  0  0
 73 80  1  0  0  0
 74 89  2  0  0  0
 74 77  1  0  0  0
 75 81  1  0  0  0
 75 89  1  0  0  0
 76 77  1  0  0  0
 76150  1  0  0  0
 76151  1  0  0  0
 76 78  1  0  0  0
 77 90  1  0  0  0
 77152  1  0  0  0
 78 87  1  0  0  0
 78 90  1  0  0  0
 78153  1  0  0  0
 79154  1  0  0  0
 79155  1  0  0  0
 79156  1  0  0  0
 80157  1  0  0  0
 80158  1  0  0  0
 80159  1  0  0  0
 81160  1  0  0  0
 81161  1  0  0  0
 81162  1  0  0  0
 82163  1  0  0  0
 82164  1  0  0  0
 82165  1  0  0  0
 82 87  1  0  0  0
 83 87  1  0  0  0
 83166  1  0  0  0
 83167  1  0  0  0
 83168  1  0  0  0
 84169  1  0  0  0
 84170  1  0  0  0
 84171  1  0  0  0
 84 88  1  0  0  0
 85 88  1  0  0  0
 85172  1  0  0  0
 85173  1  0  0  0
 86 88  1  0  0  0
 86174  1  0  0  0
 86175  1  0  0  0
 87176  1  0  0  0
 88177  1  0  0  0
M  ISO  4   1 100  68 101  86 101  90 100
M  END
> <chiral flag>
0

> <version>
0

> <s_m_source_file>
/data/baiqing/PycharmProjects/Reinvent-master-3.2/result/LINK_invent/BTK/process_docking_weight1_custom_sum_contain_oxygen_bond_distance_aromatic_linkinvent_7_9_3/rearranged_h_0168.sdf

> <i_m_source_file_index>
60

> <r_mmod_Potential_Energy-OPLS-2005>
216.71418762207

> <r_mmod_Stretch_Energy-OPLS-2005>
170.366607666016

> <r_mmod_Bend_Energy-OPLS-2005>
264.299896240234

> <r_mmod_Torsional_Energy-OPLS-2005>
340.704315185547

> <r_mmod_Improper_Torsional_Energy-OPLS-2005>
11.6821165084839

> <r_mmod_Van_der_Waal_Energy-OPLS-2005>
137.588485717773

> <r_mmod_Electrostatic_Energy-OPLS-2005>
-581.432556152344

> <r_mmod_Solvation_Energy-OPLS-2005>
-204.471176147461

> <b_mmod_Minimization_Converged-OPLS-2005>
0

> <r_mmod_RMS_Derivative-OPLS-2005>
9.35396003723145

$$$$
60
                    3D
 Structure written by MMmdl.
177187  0  0  1  0            999 V2000
  -30.6924  -14.4431   20.5165 C   0  0  0  0  0  0
  -30.4172  -12.2729   19.4027 C   0  0  0  0  0  0
  -29.4887  -12.4818   18.1893 C   0  0  0  0  0  0
  -28.0062  -12.3632   18.6051 C   0  0  0  0  0  0
  -27.6600  -13.2002   19.8674 C   0  0  2  0  0  0
  -28.7035  -12.9764   20.9816 C   0  0  0  0  0  0
  -25.2603  -13.8194   20.5610 C   0  0  0  0  0  0
  -24.1829  -13.0472   20.9143 C   0  0  0  0  0  0
  -24.6380  -11.6945   20.8746 C   0  0  0  0  0  0
  -23.9033  -10.4335   21.0394 C   0  0  0  0  0  0
  -24.3603   -9.4264   21.9159 C   0  0  0  0  0  0
  -23.6297   -8.2289   22.0751 C   0  0  0  0  0  0
  -22.4284   -8.0322   21.3550 C   0  0  0  0  0  0
  -21.9896   -9.0276   20.4622 C   0  0  0  0  0  0
  -22.7209  -10.2160   20.3020 C   0  0  0  0  0  0
  -21.6907   -6.0737   22.5285 C   0  0  0  0  0  0
  -21.4030   -6.5628   23.8222 C   0  0  0  0  0  0
  -21.3634   -5.6770   24.9171 C   0  0  0  0  0  0
  -21.6007   -4.3049   24.7218 C   0  0  0  0  0  0
  -21.8814   -3.8139   23.4346 C   0  0  0  0  0  0
  -21.9227   -4.6955   22.3403 C   0  0  0  0  0  0
  -22.7848  -13.5314   21.1800 C   0  0  0  0  0  0
  -22.1700   -4.2138   21.0987 F   0  0  0  0  0  0
  -21.5604   -3.4522   25.7725 F   0  0  0  0  0  0
  -30.0319  -13.2625   20.4215 N   0  0  0  0  0  0
  -26.3015  -12.9290   20.3313 N   0  0  0  0  0  0
  -25.9303  -11.6483   20.5748 N   0  0  0  0  0  0
  -22.0484  -12.8317   22.0372 N   0  0  0  0  0  0
  -25.4345  -15.1893   20.4013 N   0  0  0  0  0  0
  -31.8617  -14.5857   20.1522 O   0  0  0  0  0  0
  -21.6682   -6.8901   21.4259 O   0  0  0  0  0  0
  -22.3503  -14.5575   20.6618 O   0  0  0  0  0  0
  -24.6107  -31.8671   23.2093 C   0  0  0  0  0  0
  -25.8985  -32.4805   23.8402 C   0  0  1  0  0  0
  -27.2504  -27.4561   20.1097 C   0  0  0  0  0  0
  -25.5848  -33.8602   24.2321 N   0  0  0  0  0  0
  -23.3988  -30.4938   21.5429 C   0  0  2  0  0  0
  -24.8485  -28.9512   20.1246 C   0  0  0  0  0  0
  -22.7247  -29.4764   22.4905 C   0  0  0  0  0  0
  -18.0210  -28.1427   22.8424 C   0  0  0  0  0  0
  -24.1484  -36.7307   23.2643 C   0  0  0  0  0  0
  -25.9249  -30.8449   21.3577 C   0  0  0  0  0  0
  -26.0059  -29.4806   20.7076 C   0  0  0  0  0  0
  -27.2075  -28.7414   20.6908 C   0  0  0  0  0  0
  -26.0708  -26.9297   19.5355 C   0  0  0  0  0  0
  -24.8737  -27.6717   19.5393 C   0  0  0  0  0  0
  -23.6076  -29.8091   20.1644 C   0  0  0  0  0  0
  -25.4091  -36.3083   24.0359 C   0  0  1  0  0  0
  -20.5770  -28.3748   23.1230 C   0  0  2  0  0  0
  -20.6616  -26.9388   22.5470 C   0  0  0  0  0  0
  -19.5658  -26.6288   21.5245 C   0  0  0  0  0  0
  -18.1779  -26.8007   22.1471 C   0  0  0  0  0  0
  -19.1437  -28.8866   23.2863 C   0  0  0  0  0  0
  -18.9357  -30.1482   23.8838 C   0  0  0  0  0  0
  -17.6345  -30.6596   24.0530 C   0  0  0  0  0  0
  -25.9032  -34.9466   23.5160 C   0  0  0  0  0  0
  -16.5267  -29.9088   23.6244 C   0  0  0  0  0  0
  -16.7207  -28.6553   23.0213 C   0  0  0  0  0  0
  -26.4464  -31.6579   25.0700 C   0  0  0  0  0  0
  -25.3756  -31.3681   26.1465 C   0  0  0  0  0  0
  -27.0304  -30.3033   24.6049 C   0  0  0  0  0  0
  -27.6048  -32.4266   25.7470 C   0  0  0  0  0  0
  -27.5568  -37.1806   24.8471 C   0  0  0  0  0  0
  -21.4004  -29.3062   22.3557 N   0  0  0  0  0  0
  -26.4277  -37.3761   23.9427 N   0  0  0  0  0  0
  -24.6625  -31.0800   22.0971 N   0  0  0  0  0  0
  -23.3976  -28.8350   23.2989 O   0  0  0  0  0  0
  -28.4668  -26.8069   20.0957 O   0  0  0  0  0  0
  -26.5573  -34.8929   22.4705 O   0  0  0  0  0  0
  -23.5298  -32.1443   23.7463 O   0  0  0  0  0  0
  -27.8414  -22.2662   21.5752 C   0  0  0  0  0  0
  -28.1463  -20.9117   21.4105 C   0  0  0  0  0  0
  -28.8571  -23.2436   21.3855 C   0  0  0  0  0  0
  -30.1638  -22.7483   21.1578 C   0  0  0  0  0  0
  -29.4707  -20.5136   21.1320 C   0  0  0  0  0  0
  -26.9363  -20.0417   21.6529 C   0  0  0  0  0  0
  -25.7924  -21.0284   21.9186 C   0  0  0  0  0  0
  -28.9869  -17.1832   18.3251 C   0  0  0  0  0  0
  -28.3919  -18.1333   19.3583 C   0  0  0  0  0  0
  -30.4180  -16.9801   18.7938 C   0  0  0  0  0  0
  -29.2352  -17.9826   20.6502 C   0  0  1  0  0  0
  -30.2867  -16.8828   20.3273 C   0  0  1  0  0  0
  -26.4075  -22.4388   22.0845 C   0  0  0  0  0  0
  -31.3885  -23.6454   21.1246 C   0  0  0  0  0  0
  -25.5475  -23.4486   21.3144 C   0  0  0  0  0  0
  -26.4343  -22.7973   23.5789 C   0  0  0  0  0  0
  -28.6008  -24.7527   21.4278 C   0  0  0  0  0  0
  -28.5403  -25.3831   20.0221 C   0  0  0  0  0  0
  -30.4460  -21.4297   21.0325 N   0  0  0  0  0  0
  -29.9625  -19.2083   20.9840 N   0  0  0  0  0  0
  -29.9125  -15.5173   20.7437 N   0  0  0  0  0  0
  -31.4650  -12.3539   19.1012 H   0  0  0  0  0  0
  -30.3008  -11.2627   19.7966 H   0  0  0  0  0  0
  -29.7104  -11.7485   17.4108 H   0  0  0  0  0  0
  -29.6686  -13.4631   17.7490 H   0  0  0  0  0  0
  -27.7998  -11.3102   18.7869 H   0  0  0  0  0  0
  -27.3590  -12.6542   17.7783 H   0  0  0  0  0  0
  -27.6982  -14.2514   19.5785 H   0  0  0  0  0  0
  -28.6723  -11.9409   21.3224 H   0  0  0  0  0  0
  -28.4890  -13.5836   21.8621 H   0  0  0  0  0  0
  -25.2754   -9.5806   22.4707 H   0  0  0  0  0  0
  -24.0031   -7.4688   22.7460 H   0  0  0  0  0  0
  -21.0840   -8.8823   19.8894 H   0  0  0  0  0  0
  -22.3687  -10.9718   19.6142 H   0  0  0  0  0  0
  -21.2017   -7.6137   23.9743 H   0  0  0  0  0  0
  -21.1460   -6.0488   25.9091 H   0  0  0  0  0  0
  -22.0624   -2.7610   23.2862 H   0  0  0  0  0  0
  -22.4143  -11.9969   22.4678 H   0  0  0  0  0  0
  -21.1076  -13.1318   22.2559 H   0  0  0  0  0  0
  -24.6815  -15.8545   20.5299 H   0  0  0  0  0  0
  -26.2951  -15.6332   20.1038 H   0  0  0  0  0  0
  -26.6991  -32.5544   23.1122 H   0  0  0  0  0  0
  -25.0056  -33.9776   25.0504 H   0  0  0  0  0  0
  -22.7024  -31.3175   21.3865 H   0  0  0  0  0  0
  -23.3732  -35.9651   23.3313 H   0  0  0  0  0  0
  -24.3607  -36.8900   22.2059 H   0  0  0  0  0  0
  -23.7287  -37.6536   23.6643 H   0  0  0  0  0  0
  -26.0257  -31.6088   20.5850 H   0  0  0  0  0  0
  -26.8188  -30.9023   21.9699 H   0  0  0  0  0  0
  -28.1099  -29.1506   21.1265 H   0  0  0  0  0  0
  -26.0513  -25.9600   19.0685 H   0  0  0  0  0  0
  -23.9840  -27.2455   19.0958 H   0  0  0  0  0  0
  -23.6953  -30.5697   19.3918 H   0  0  0  0  0  0
  -22.7420  -29.2092   19.8774 H   0  0  0  0  0  0
  -25.1281  -36.1952   25.0856 H   0  0  0  0  0  0
  -20.9913  -28.3466   24.1338 H   0  0  0  0  0  0
  -20.5479  -26.2360   23.3745 H   0  0  0  0  0  0
  -21.6474  -26.7286   22.1309 H   0  0  0  0  0  0
  -19.6743  -25.6088   21.1537 H   0  0  0  0  0  0
  -19.6709  -27.2913   20.6638 H   0  0  0  0  0  0
  -17.9880  -26.0131   22.8784 H   0  0  0  0  0  0
  -17.4218  -26.6903   21.3649 H   0  0  0  0  0  0
  -19.7748  -30.7325   24.2298 H   0  0  0  0  0  0
  -17.4911  -31.6269   24.5094 H   0  0  0  0  0  0
  -15.5284  -30.3057   23.7462 H   0  0  0  0  0  0
  -15.8644  -28.0943   22.6697 H   0  0  0  0  0  0
  -24.5922  -30.7021   25.7833 H   0  0  0  0  0  0
  -24.8970  -32.2837   26.4934 H   0  0  0  0  0  0
  -25.8149  -30.8857   27.0211 H   0  0  0  0  0  0
  -26.2855  -29.6764   24.1122 H   0  0  0  0  0  0
  -27.4117  -29.7268   25.4490 H   0  0  0  0  0  0
  -27.8659  -30.4355   23.9169 H   0  0  0  0  0  0
  -27.2685  -33.3543   26.2108 H   0  0  0  0  0  0
  -28.3869  -32.6847   25.0319 H   0  0  0  0  0  0
  -28.0697  -31.8342   26.5359 H   0  0  0  0  0  0
  -28.2592  -38.0085   24.7488 H   0  0  0  0  0  0
  -28.1050  -36.2633   24.6321 H   0  0  0  0  0  0
  -27.2306  -37.1488   25.8871 H   0  0  0  0  0  0
  -20.9243  -29.8264   21.6325 H   0  0  0  0  0  0
  -26.0166  -38.2844   24.1377 H   0  0  0  0  0  0
  -27.1123  -19.3834   22.5008 H   0  0  0  0  0  0
  -26.6708  -19.4456   20.7876 H   0  0  0  0  0  0
  -25.1438  -20.7270   22.7411 H   0  0  0  0  0  0
  -25.1589  -21.0236   21.0293 H   0  0  0  0  0  0
  -28.9125  -17.5673   17.3075 H   0  0  0  0  0  0
  -28.4519  -16.2336   18.3627 H   0  0  0  0  0  0
  -27.3528  -17.8654   19.5366 H   0  0  0  0  0  0
  -28.4045  -19.1568   18.9788 H   0  0  0  0  0  0
  -31.0040  -17.8661   18.5463 H   0  0  0  0  0  0
  -30.9033  -16.1348   18.3047 H   0  0  0  0  0  0
  -28.6123  -17.7036   21.4992 H   0  0  0  0  0  0
  -31.2413  -17.1013   20.8109 H   0  0  0  0  0  0
  -31.4896  -24.1896   22.0635 H   0  0  0  0  0  0
  -31.3619  -24.3647   20.3092 H   0  0  0  0  0  0
  -32.2966  -23.0496   21.0052 H   0  0  0  0  0  0
  -25.7296  -23.3790   20.2418 H   0  0  0  0  0  0
  -25.6998  -24.4769   21.6368 H   0  0  0  0  0  0
  -24.4887  -23.2440   21.4852 H   0  0  0  0  0  0
  -26.9624  -22.0411   24.1609 H   0  0  0  0  0  0
  -25.4219  -22.8817   23.9759 H   0  0  0  0  0  0
  -26.9420  -23.7465   23.7463 H   0  0  0  0  0  0
  -29.3808  -25.2311   22.0141 H   0  0  0  0  0  0
  -27.6850  -24.9810   21.9576 H   0  0  0  0  0  0
  -27.7642  -24.9124   19.4285 H   0  0  0  0  0  0
  -29.4585  -25.1670   19.4781 H   0  0  0  0  0  0
  -30.9644  -19.1520   20.8457 H   0  0  0  0  0  0
  -28.9612  -15.3537   21.0380 H   0  0  0  0  0  0
  1 25  1  0  0  0
  1 30  2  0  0  0
  1 91  1  0  0  0
  2  3  1  0  0  0
  2 25  1  0  0  0
  2 92  1  0  0  0
  2 93  1  0  0  0
  3  4  1  0  0  0
  3 94  1  0  0  0
  3 95  1  0  0  0
  4  5  1  0  0  0
  4 96  1  0  0  0
  4 97  1  0  0  0
  5  6  1  0  0  0
  5 26  1  0  0  0
  5 98  1  0  0  0
  6 25  1  0  0  0
  6 99  1  0  0  0
  6100  1  0  0  0
  7  8  2  0  0  0
  7 26  1  0  0  0
  7 29  1  0  0  0
  8  9  1  0  0  0
  8 22  1  0  0  0
  9 10  1  0  0  0
  9 27  2  0  0  0
 10 11  2  0  0  0
 10 15  1  0  0  0
 11 12  1  0  0  0
 11101  1  0  0  0
 12 13  2  0  0  0
 12102  1  0  0  0
 13 14  1  0  0  0
 13 31  1  0  0  0
 14 15  2  0  0  0
 14103  1  0  0  0
 15104  1  0  0  0
 16 17  2  0  0  0
 16 21  1  0  0  0
 16 31  1  0  0  0
 17 18  1  0  0  0
 17105  1  0  0  0
 18 19  2  0  0  0
 18106  1  0  0  0
 19 20  1  0  0  0
 19 24  1  0  0  0
 20 21  2  0  0  0
 20107  1  0  0  0
 21 23  1  0  0  0
 22 28  1  0  0  0
 22 32  2  0  0  0
 26 27  1  0  0  0
 28108  1  0  0  0
 28109  1  0  0  0
 29110  1  0  0  0
 29111  1  0  0  0
 33 34  1  0  0  0
 33 66  1  0  0  0
 33 70  2  0  0  0
 34 36  1  0  0  0
 34 59  1  0  0  0
 34112  1  0  0  0
 35 44  2  0  0  0
 35 45  1  0  0  0
 35 68  1  0  0  0
 36 56  1  0  0  0
 36113  1  0  0  0
 37 39  1  0  0  0
 37 47  1  0  0  0
 37 66  1  0  0  0
 37114  1  0  0  0
 38 43  2  0  0  0
 38 46  1  0  0  0
 38 47  1  0  0  0
 39 64  1  0  0  0
 39 67  2  0  0  0
 40 52  1  0  0  0
 40 53  2  0  0  0
 40 58  1  0  0  0
 41115  1  0  0  0
 41116  1  0  0  0
 41117  1  0  0  0
 41 48  1  0  0  0
 42 43  1  0  0  0
 42 66  1  0  0  0
 42118  1  0  0  0
 42119  1  0  0  0
 43 44  1  0  0  0
 44120  1  0  0  0
 45 46  2  0  0  0
 45121  1  0  0  0
 46122  1  0  0  0
 47123  1  0  0  0
 47124  1  0  0  0
 48 56  1  0  0  0
 48 65  1  0  0  0
 48125  1  0  0  0
 49 50  1  0  0  0
 49 53  1  0  0  0
 49 64  1  0  0  0
 49126  1  0  0  0
 50 51  1  0  0  0
 50127  1  0  0  0
 50128  1  0  0  0
 51 52  1  0  0  0
 51129  1  0  0  0
 51130  1  0  0  0
 52131  1  0  0  0
 52132  1  0  0  0
 53 54  1  0  0  0
 54 55  2  0  0  0
 54133  1  0  0  0
 55 57  1  0  0  0
 55134  1  0  0  0
 56 69  2  0  0  0
 57 58  2  0  0  0
 57135  1  0  0  0
 58136  1  0  0  0
 59 60  1  0  0  0
 59 61  1  0  0  0
 59 62  1  0  0  0
 60137  1  0  0  0
 60138  1  0  0  0
 60139  1  0  0  0
 61140  1  0  0  0
 61141  1  0  0  0
 61142  1  0  0  0
 62143  1  0  0  0
 62144  1  0  0  0
 62145  1  0  0  0
 63 65  1  0  0  0
 63146  1  0  0  0
 63147  1  0  0  0
 63148  1  0  0  0
 64149  1  0  0  0
 65150  1  0  0  0
 68 88  1  0  0  0
 71 72  2  0  0  0
 71 73  1  0  0  0
 71 83  1  0  0  0
 72 75  1  0  0  0
 72 76  1  0  0  0
 73 74  2  0  0  0
 73 87  1  0  0  0
 74 84  1  0  0  0
 74 89  1  0  0  0
 75 89  2  0  0  0
 75 90  1  0  0  0
 76 77  1  0  0  0
 76151  1  0  0  0
 76152  1  0  0  0
 77 83  1  0  0  0
 77153  1  0  0  0
 77154  1  0  0  0
 78 79  1  0  0  0
 78 80  1  0  0  0
 78155  1  0  0  0
 78156  1  0  0  0
 79 81  1  0  0  0
 79157  1  0  0  0
 79158  1  0  0  0
 80 82  1  0  0  0
 80159  1  0  0  0
 80160  1  0  0  0
 81 82  1  0  0  0
 81 90  1  0  0  0
 81161  1  0  0  0
 82 91  1  0  0  0
 82162  1  0  0  0
 83 85  1  0  0  0
 83 86  1  0  0  0
 84163  1  0  0  0
 84164  1  0  0  0
 84165  1  0  0  0
 85166  1  0  0  0
 85167  1  0  0  0
 85168  1  0  0  0
 86169  1  0  0  0
 86170  1  0  0  0
 86171  1  0  0  0
 87 88  1  0  0  0
 87172  1  0  0  0
 87173  1  0  0  0
 88174  1  0  0  0
 88175  1  0  0  0
 90176  1  0  0  0
 91177  1  0  0  0
M  ISO  4   1 100  68 101  88 101  91 100
M  END
> <chiral flag>
0

> <version>
0

> <s_m_source_file>
/data/baiqing/PycharmProjects/Reinvent-master-3.2/result/LINK_invent/BTK/process_docking_weight1_custom_sum_contain_oxygen_bond_distance_aromatic_linkinvent_7_9_3/rearranged_h_0168.sdf

> <i_m_source_file_index>
61

> <r_mmod_Potential_Energy-OPLS-2005>
-282.835418701172

> <r_mmod_Stretch_Energy-OPLS-2005>
36.440731048584

> <r_mmod_Bend_Energy-OPLS-2005>
213.097045898438

> <r_mmod_Torsional_Energy-OPLS-2005>
272.550262451172

> <r_mmod_Improper_Torsional_Energy-OPLS-2005>
9.35801219940186

> <r_mmod_Van_der_Waal_Energy-OPLS-2005>
151.489562988281

> <r_mmod_Electrostatic_Energy-OPLS-2005>
-753.623718261719

> <r_mmod_Solvation_Energy-OPLS-2005>
-227.011138916016

> <b_mmod_Minimization_Converged-OPLS-2005>
0

> <r_mmod_RMS_Derivative-OPLS-2005>
6.97783136367798

$$$$
61
                    3D
 Structure written by MMmdl.
165174  0  0  1  0            999 V2000
  -30.5760  -14.9365   20.4126 C   0  0  0  0  0  0
  -30.4299  -12.5825   19.4928 C   0  0  0  0  0  0
  -29.5165  -12.5302   18.2485 C   0  0  0  0  0  0
  -28.0497  -12.3207   18.6660 C   0  0  0  0  0  0
  -27.6269  -13.2542   19.8317 C   0  0  2  0  0  0
  -28.6700  -13.2966   20.9682 C   0  0  0  0  0  0
  -25.2454  -13.8230   20.5707 C   0  0  0  0  0  0
  -24.1779  -13.0444   20.9217 C   0  0  0  0  0  0
  -24.6405  -11.6929   20.8741 C   0  0  0  0  0  0
  -23.9094  -10.4300   21.0401 C   0  0  0  0  0  0
  -24.3640   -9.4213   21.9181 C   0  0  0  0  0  0
  -23.6305   -8.2254   22.0766 C   0  0  0  0  0  0
  -22.4289   -8.0288   21.3552 C   0  0  0  0  0  0
  -21.9931   -9.0257   20.4650 C   0  0  0  0  0  0
  -22.7264  -10.2135   20.3052 C   0  0  0  0  0  0
  -21.6862   -6.0736   22.5280 C   0  0  0  0  0  0
  -21.4011   -6.5637   23.8211 C   0  0  0  0  0  0
  -21.3667   -5.6791   24.9173 C   0  0  0  0  0  0
  -21.6051   -4.3057   24.7227 C   0  0  0  0  0  0
  -21.8819   -3.8145   23.4348 C   0  0  0  0  0  0
  -21.9196   -4.6962   22.3404 C   0  0  0  0  0  0
  -22.7800  -13.5198   21.1871 C   0  0  0  0  0  0
  -22.1665   -4.2146   21.0981 F   0  0  0  0  0  0
  -21.5637   -3.4543   25.7743 F   0  0  0  0  0  0
  -29.9458  -13.6944   20.3633 N   0  0  0  0  0  0
  -26.2880  -12.9479   20.3217 N   0  0  0  0  0  0
  -25.9339  -11.6600   20.5723 N   0  0  0  0  0  0
  -22.0457  -12.8183   22.0431 N   0  0  0  0  0  0
  -25.4102  -15.1964   20.4132 N   0  0  0  0  0  0
  -31.7823  -14.9462   20.1462 O   0  0  0  0  0  0
  -21.6648   -6.8885   21.4250 O   0  0  0  0  0  0
  -22.3476  -14.5500   20.6717 O   0  0  0  0  0  0
  -24.6441  -31.8439   23.1878 C   0  0  0  0  0  0
  -25.9214  -32.4694   23.8268 C   0  0  1  0  0  0
  -27.2109  -27.1289   20.1507 C   0  0  0  0  0  0
  -25.5956  -33.8500   24.2185 N   0  0  0  0  0  0
  -23.4472  -30.4644   21.5340 C   0  0  2  0  0  0
  -24.8957  -28.8922   20.1103 C   0  0  0  0  0  0
  -22.7569  -29.4547   22.4855 C   0  0  0  0  0  0
  -18.0302  -28.1398   22.8476 C   0  0  0  0  0  0
  -24.1493  -36.7252   23.2645 C   0  0  0  0  0  0
  -26.0042  -30.7169   21.3871 C   0  0  0  0  0  0
  -26.0752  -29.3283   20.7269 C   0  0  0  0  0  0
  -27.2349  -28.4637   20.7276 C   0  0  0  0  0  0
  -26.0033  -26.7976   19.4961 C   0  0  0  0  0  0
  -24.8736  -27.6414   19.4782 C   0  0  0  0  0  0
  -23.6733  -29.7953   20.1533 C   0  0  0  0  0  0
  -25.4125  -36.3033   24.0318 C   0  0  1  0  0  0
  -20.5916  -28.3724   23.1232 C   0  0  2  0  0  0
  -20.6789  -26.9428   22.5403 C   0  0  0  0  0  0
  -19.5764  -26.6384   21.5213 C   0  0  0  0  0  0
  -18.1943  -26.7936   22.1622 C   0  0  0  0  0  0
  -19.1560  -28.8878   23.2845 C   0  0  0  0  0  0
  -18.9479  -30.1475   23.8873 C   0  0  0  0  0  0
  -17.6478  -30.6596   24.0560 C   0  0  0  0  0  0
  -25.9076  -34.9408   23.5060 C   0  0  0  0  0  0
  -16.5366  -29.9090   23.6340 C   0  0  0  0  0  0
  -16.7287  -28.6507   23.0360 C   0  0  0  0  0  0
  -26.4533  -31.6561   25.0711 C   0  0  0  0  0  0
  -25.3709  -31.3748   26.1395 C   0  0  0  0  0  0
  -27.0408  -30.2958   24.6304 C   0  0  0  0  0  0
  -27.6053  -32.4331   25.7505 C   0  0  0  0  0  0
  -27.5576  -37.1783   24.8466 C   0  0  0  0  0  0
  -21.4258  -29.3050   22.3604 N   0  0  0  0  0  0
  -26.4289  -37.3745   23.9409 N   0  0  0  0  0  0
  -24.7185  -31.0294   22.0912 N   0  0  0  0  0  0
  -23.4210  -28.8093   23.3008 O   0  0  0  0  0  0
  -28.2567  -26.1342   20.2172 O   0  0  0  0  0  0
  -26.5664  -34.8906   22.4641 O   0  0  0  0  0  0
  -23.5560  -32.1319   23.7093 O   0  0  0  0  0  0
  -29.7502  -20.7788   20.3722 C   0  0  0  0  0  0
  -28.7275  -21.8693   20.2635 C   0  0  0  0  0  0
  -29.0091  -23.3434   20.2882 C   0  0  0  0  0  0
  -31.0589  -21.3492   20.4968 C   0  0  0  0  0  0
  -30.3766  -23.6266   20.4403 C   0  0  0  0  0  0
  -29.2687  -18.6098   18.8570 C   0  0  0  0  0  0
  -30.6149  -17.8727   18.9409 C   0  0  0  0  0  0
  -29.4726  -19.1131   20.2891 C   0  0  1  0  0  0
  -30.3952  -17.6724   20.4621 C   0  0  2  0  0  0
  -27.2813  -21.4326   20.1118 C   0  0  0  0  0  0
  -32.3689  -20.5930   20.5849 C   0  0  0  0  0  0
  -30.9180  -25.0429   20.4870 C   0  0  0  0  0  0
  -31.5427  -17.7446   21.4753 C   0  0  0  0  0  0
  -27.9434  -24.6046   20.1297 C   0  0  0  0  0  0
  -31.3223  -22.6755   20.5420 N   0  0  0  0  0  0
  -29.8657  -16.1718   20.5550 N   0  0  0  0  0  0
  -31.4663  -12.7190   19.1794 H   0  0  0  0  0  0
  -30.4075  -11.6335   20.0309 H   0  0  0  0  0  0
  -29.8322  -11.7313   17.5761 H   0  0  0  0  0  0
  -29.6106  -13.4605   17.6867 H   0  0  0  0  0  0
  -27.9399  -11.2786   18.9689 H   0  0  0  0  0  0
  -27.3909  -12.4601   17.8084 H   0  0  0  0  0  0
  -27.5865  -14.2539   19.3980 H   0  0  0  0  0  0
  -28.7547  -12.3285   21.4639 H   0  0  0  0  0  0
  -28.3738  -14.0165   21.7329 H   0  0  0  0  0  0
  -25.2793   -9.5685   22.4742 H   0  0  0  0  0  0
  -24.0010   -7.4654   22.7497 H   0  0  0  0  0  0
  -21.0868   -8.8776   19.8948 H   0  0  0  0  0  0
  -22.3731  -10.9668   19.6151 H   0  0  0  0  0  0
  -21.1988   -7.6142   23.9711 H   0  0  0  0  0  0
  -21.1496   -6.0523   25.9077 H   0  0  0  0  0  0
  -22.0590   -2.7606   23.2852 H   0  0  0  0  0  0
  -22.4091  -11.9853   22.4822 H   0  0  0  0  0  0
  -21.1065  -13.1189   22.2621 H   0  0  0  0  0  0
  -24.6381  -15.8447   20.5223 H   0  0  0  0  0  0
  -26.2492  -15.6403   20.0645 H   0  0  0  0  0  0
  -26.7275  -32.5301   23.0991 H   0  0  0  0  0  0
  -25.0071  -33.9611   25.0312 H   0  0  0  0  0  0
  -22.7493  -31.2905   21.3802 H   0  0  0  0  0  0
  -23.3765  -35.9573   23.3291 H   0  0  0  0  0  0
  -24.3574  -36.8902   22.2061 H   0  0  0  0  0  0
  -23.7238  -37.6439   23.6691 H   0  0  0  0  0  0
  -26.1611  -31.4728   20.6166 H   0  0  0  0  0  0
  -26.8737  -30.7649   22.0311 H   0  0  0  0  0  0
  -28.1336  -28.7931   21.2299 H   0  0  0  0  0  0
  -25.8911  -25.8436   19.0059 H   0  0  0  0  0  0
  -23.9729  -27.3034   18.9835 H   0  0  0  0  0  0
  -23.8095  -30.5703   19.3979 H   0  0  0  0  0  0
  -22.7875  -29.2385   19.8417 H   0  0  0  0  0  0
  -25.1316  -36.1858   25.0810 H   0  0  0  0  0  0
  -21.0003  -28.3320   24.1355 H   0  0  0  0  0  0
  -20.5688  -26.2340   23.3623 H   0  0  0  0  0  0
  -21.6655  -26.7436   22.1202 H   0  0  0  0  0  0
  -19.6926  -25.6289   21.1261 H   0  0  0  0  0  0
  -19.6701  -27.3181   20.6732 H   0  0  0  0  0  0
  -17.4211  -26.6677   21.4026 H   0  0  0  0  0  0
  -18.0340  -26.0084   22.9024 H   0  0  0  0  0  0
  -19.7954  -30.7297   24.2232 H   0  0  0  0  0  0
  -17.5030  -31.6272   24.5168 H   0  0  0  0  0  0
  -15.5365  -30.2988   23.7677 H   0  0  0  0  0  0
  -15.8685  -28.0820   22.7095 H   0  0  0  0  0  0
  -24.5893  -30.7096   25.7700 H   0  0  0  0  0  0
  -24.8895  -32.2930   26.4766 H   0  0  0  0  0  0
  -25.7983  -30.8945   27.0205 H   0  0  0  0  0  0
  -26.3032  -29.6663   24.1308 H   0  0  0  0  0  0
  -27.4010  -29.7273   25.4889 H   0  0  0  0  0  0
  -27.8943  -30.4187   23.9633 H   0  0  0  0  0  0
  -27.2633  -33.3639   26.2039 H   0  0  0  0  0  0
  -28.3892  -32.6879   25.0361 H   0  0  0  0  0  0
  -28.0689  -31.8487   26.5462 H   0  0  0  0  0  0
  -28.2585  -38.0090   24.7521 H   0  0  0  0  0  0
  -28.1087  -36.2619   24.6290 H   0  0  0  0  0  0
  -27.2290  -37.1424   25.8869 H   0  0  0  0  0  0
  -20.9467  -29.8764   21.6784 H   0  0  0  0  0  0
  -26.0156  -38.2814   24.1417 H   0  0  0  0  0  0
  -28.4218  -17.9265   18.7686 H   0  0  0  0  0  0
  -29.2295  -19.3859   18.0921 H   0  0  0  0  0  0
  -31.4454  -18.5086   18.6524 H   0  0  0  0  0  0
  -30.6438  -16.9675   18.3330 H   0  0  0  0  0  0
  -28.5580  -18.9672   20.8654 H   0  0  0  0  0  0
  -27.1956  -20.6050   19.4081 H   0  0  0  0  0  0
  -26.6429  -22.2347   19.7441 H   0  0  0  0  0  0
  -26.8878  -21.1033   21.0735 H   0  0  0  0  0  0
  -32.3930  -19.6952   19.9923 H   0  0  0  0  0  0
  -32.6149  -20.3708   21.6213 H   0  0  0  0  0  0
  -33.1927  -21.1979   20.2022 H   0  0  0  0  0  0
  -30.5024  -25.5851   21.3361 H   0  0  0  0  0  0
  -30.6712  -25.5776   19.5700 H   0  0  0  0  0  0
  -32.0035  -25.0582   20.5886 H   0  0  0  0  0  0
  -31.4561  -18.6312   22.0995 H   0  0  0  0  0  0
  -32.5220  -17.7261   20.9981 H   0  0  0  0  0  0
  -31.5316  -16.9205   22.1888 H   0  0  0  0  0  0
  -27.1524  -24.4164   20.8577 H   0  0  0  0  0  0
  -27.4945  -24.4371   19.1513 H   0  0  0  0  0  0
  -28.8754  -16.0720   20.7236 H   0  0  0  0  0  0
  1 25  1  0  0  0
  1 30  2  0  0  0
  1 86  1  0  0  0
  2  3  1  0  0  0
  2 25  1  0  0  0
  2 87  1  0  0  0
  2 88  1  0  0  0
  3  4  1  0  0  0
  3 89  1  0  0  0
  3 90  1  0  0  0
  4  5  1  0  0  0
  4 91  1  0  0  0
  4 92  1  0  0  0
  5  6  1  0  0  0
  5 26  1  0  0  0
  5 93  1  0  0  0
  6 25  1  0  0  0
  6 94  1  0  0  0
  6 95  1  0  0  0
  7  8  2  0  0  0
  7 26  1  0  0  0
  7 29  1  0  0  0
  8  9  1  0  0  0
  8 22  1  0  0  0
  9 10  1  0  0  0
  9 27  2  0  0  0
 10 11  2  0  0  0
 10 15  1  0  0  0
 11 12  1  0  0  0
 11 96  1  0  0  0
 12 13  2  0  0  0
 12 97  1  0  0  0
 13 14  1  0  0  0
 13 31  1  0  0  0
 14 15  2  0  0  0
 14 98  1  0  0  0
 15 99  1  0  0  0
 16 17  2  0  0  0
 16 21  1  0  0  0
 16 31  1  0  0  0
 17 18  1  0  0  0
 17100  1  0  0  0
 18 19  2  0  0  0
 18101  1  0  0  0
 19 20  1  0  0  0
 19 24  1  0  0  0
 20 21  2  0  0  0
 20102  1  0  0  0
 21 23  1  0  0  0
 22 28  1  0  0  0
 22 32  2  0  0  0
 26 27  1  0  0  0
 28103  1  0  0  0
 28104  1  0  0  0
 29105  1  0  0  0
 29106  1  0  0  0
 33 34  1  0  0  0
 33 66  1  0  0  0
 33 70  2  0  0  0
 34 36  1  0  0  0
 34 59  1  0  0  0
 34107  1  0  0  0
 35 44  2  0  0  0
 35 45  1  0  0  0
 35 68  1  0  0  0
 36 56  1  0  0  0
 36108  1  0  0  0
 37 39  1  0  0  0
 37 47  1  0  0  0
 37 66  1  0  0  0
 37109  1  0  0  0
 38 43  2  0  0  0
 38 46  1  0  0  0
 38 47  1  0  0  0
 39 64  1  0  0  0
 39 67  2  0  0  0
 40 52  1  0  0  0
 40 53  2  0  0  0
 40 58  1  0  0  0
 41110  1  0  0  0
 41111  1  0  0  0
 41112  1  0  0  0
 41 48  1  0  0  0
 42 43  1  0  0  0
 42 66  1  0  0  0
 42113  1  0  0  0
 42114  1  0  0  0
 43 44  1  0  0  0
 44115  1  0  0  0
 45 46  2  0  0  0
 45116  1  0  0  0
 46117  1  0  0  0
 47118  1  0  0  0
 47119  1  0  0  0
 48 56  1  0  0  0
 48 65  1  0  0  0
 48120  1  0  0  0
 49 50  1  0  0  0
 49 53  1  0  0  0
 49 64  1  0  0  0
 49121  1  0  0  0
 50 51  1  0  0  0
 50122  1  0  0  0
 50123  1  0  0  0
 51 52  1  0  0  0
 51124  1  0  0  0
 51125  1  0  0  0
 52126  1  0  0  0
 52127  1  0  0  0
 53 54  1  0  0  0
 54 55  2  0  0  0
 54128  1  0  0  0
 55 57  1  0  0  0
 55129  1  0  0  0
 56 69  2  0  0  0
 57 58  2  0  0  0
 57130  1  0  0  0
 58131  1  0  0  0
 59 60  1  0  0  0
 59 61  1  0  0  0
 59 62  1  0  0  0
 60132  1  0  0  0
 60133  1  0  0  0
 60134  1  0  0  0
 61135  1  0  0  0
 61136  1  0  0  0
 61137  1  0  0  0
 62138  1  0  0  0
 62139  1  0  0  0
 62140  1  0  0  0
 63 65  1  0  0  0
 63141  1  0  0  0
 63142  1  0  0  0
 63143  1  0  0  0
 64144  1  0  0  0
 65145  1  0  0  0
 68 84  1  0  0  0
 71 72  2  0  0  0
 71 74  1  0  0  0
 71 78  1  0  0  0
 72 73  1  0  0  0
 72 80  1  0  0  0
 73 75  2  0  0  0
 73 84  1  0  0  0
 74 81  1  0  0  0
 74 85  2  0  0  0
 75 82  1  0  0  0
 75 85  1  0  0  0
 76 77  1  0  0  0
 76 78  1  0  0  0
 76146  1  0  0  0
 76147  1  0  0  0
 77 79  1  0  0  0
 77148  1  0  0  0
 77149  1  0  0  0
 78 79  1  0  0  0
 78150  1  0  0  0
 79 83  1  0  0  0
 79 86  1  0  0  0
 80151  1  0  0  0
 80152  1  0  0  0
 80153  1  0  0  0
 81154  1  0  0  0
 81155  1  0  0  0
 81156  1  0  0  0
 82157  1  0  0  0
 82158  1  0  0  0
 82159  1  0  0  0
 83160  1  0  0  0
 83161  1  0  0  0
 83162  1  0  0  0
 84163  1  0  0  0
 84164  1  0  0  0
 86165  1  0  0  0
M  ISO  4   1 100  68 101  84 101  86 100
M  END
> <chiral flag>
0

> <version>
0

> <s_m_source_file>
/data/baiqing/PycharmProjects/Reinvent-master-3.2/result/LINK_invent/BTK/process_docking_weight1_custom_sum_contain_oxygen_bond_distance_aromatic_linkinvent_7_9_3/rearranged_h_0168.sdf

> <i_m_source_file_index>
62

> <r_mmod_Potential_Energy-OPLS-2005>
437.076599121094

> <r_mmod_Stretch_Energy-OPLS-2005>
299.518096923828

> <r_mmod_Bend_Energy-OPLS-2005>
292.814483642578

> <r_mmod_Torsional_Energy-OPLS-2005>
241.404449462891

> <r_mmod_Improper_Torsional_Energy-OPLS-2005>
4.25445699691772

> <r_mmod_Van_der_Waal_Energy-OPLS-2005>
150.737396240234

> <r_mmod_Electrostatic_Energy-OPLS-2005>
-524.770080566406

> <r_mmod_Solvation_Energy-OPLS-2005>
-217.762802124023

> <b_mmod_Minimization_Converged-OPLS-2005>
0

> <r_mmod_RMS_Derivative-OPLS-2005>
1.11823868751526

$$$$
62
                    3D
 Structure written by MMmdl.
173182  0  0  1  0            999 V2000
  -30.5998  -14.8725   20.4193 C   0  0  0  0  0  0
  -30.4223  -12.5377   19.4906 C   0  0  0  0  0  0
  -29.5096  -12.4999   18.2475 C   0  0  0  0  0  0
  -28.0432  -12.3005   18.6712 C   0  0  0  0  0  0
  -27.6251  -13.2443   19.8311 C   0  0  2  0  0  0
  -28.6680  -13.2732   20.9668 C   0  0  0  0  0  0
  -25.2457  -13.8221   20.5717 C   0  0  0  0  0  0
  -24.1765  -13.0442   20.9215 C   0  0  0  0  0  0
  -24.6376  -11.6924   20.8736 C   0  0  0  0  0  0
  -23.9055  -10.4295   21.0389 C   0  0  0  0  0  0
  -24.3612   -9.4207   21.9169 C   0  0  0  0  0  0
  -23.6293   -8.2239   22.0745 C   0  0  0  0  0  0
  -22.4265   -8.0272   21.3542 C   0  0  0  0  0  0
  -21.9895   -9.0235   20.4637 C   0  0  0  0  0  0
  -22.7221  -10.2125   20.3045 C   0  0  0  0  0  0
  -21.6851   -6.0722   22.5280 C   0  0  0  0  0  0
  -21.4012   -6.5633   23.8204 C   0  0  0  0  0  0
  -21.3660   -5.6787   24.9176 C   0  0  0  0  0  0
  -21.6049   -4.3055   24.7221 C   0  0  0  0  0  0
  -21.8822   -3.8137   23.4342 C   0  0  0  0  0  0
  -21.9187   -4.6948   22.3399 C   0  0  0  0  0  0
  -22.7786  -13.5208   21.1877 C   0  0  0  0  0  0
  -22.1658   -4.2138   21.0974 F   0  0  0  0  0  0
  -21.5627   -3.4538   25.7732 F   0  0  0  0  0  0
  -29.9454  -13.6510   20.3560 N   0  0  0  0  0  0
  -26.2861  -12.9436   20.3220 N   0  0  0  0  0  0
  -25.9306  -11.6571   20.5728 N   0  0  0  0  0  0
  -22.0442  -12.8193   22.0440 N   0  0  0  0  0  0
  -25.4143  -15.1942   20.4157 N   0  0  0  0  0  0
  -31.8115  -14.8598   20.1675 O   0  0  0  0  0  0
  -21.6642   -6.8860   21.4234 O   0  0  0  0  0  0
  -22.3455  -14.5489   20.6700 O   0  0  0  0  0  0
  -24.6397  -31.8477   23.1924 C   0  0  0  0  0  0
  -25.9202  -32.4693   23.8278 C   0  0  1  0  0  0
  -27.2034  -27.1776   20.1447 C   0  0  0  0  0  0
  -25.5982  -33.8498   24.2212 N   0  0  0  0  0  0
  -23.4384  -30.4706   21.5368 C   0  0  2  0  0  0
  -24.8831  -28.9022   20.1093 C   0  0  0  0  0  0
  -22.7542  -29.4582   22.4879 C   0  0  0  0  0  0
  -18.0297  -28.1401   22.8490 C   0  0  0  0  0  0
  -24.1495  -36.7261   23.2640 C   0  0  0  0  0  0
  -25.9896  -30.7340   21.3832 C   0  0  0  0  0  0
  -26.0576  -29.3486   20.7272 C   0  0  0  0  0  0
  -27.2205  -28.5012   20.7298 C   0  0  0  0  0  0
  -26.0081  -26.8212   19.4854 C   0  0  0  0  0  0
  -24.8694  -27.6518   19.4731 C   0  0  0  0  0  0
  -23.6613  -29.8036   20.1537 C   0  0  0  0  0  0
  -25.4125  -36.3031   24.0312 C   0  0  1  0  0  0
  -20.5910  -28.3722   23.1261 C   0  0  2  0  0  0
  -20.6795  -26.9438   22.5419 C   0  0  0  0  0  0
  -19.5764  -26.6399   21.5227 C   0  0  0  0  0  0
  -18.1944  -26.7940   22.1634 C   0  0  0  0  0  0
  -19.1553  -28.8875   23.2861 C   0  0  0  0  0  0
  -18.9472  -30.1484   23.8880 C   0  0  0  0  0  0
  -17.6473  -30.6600   24.0570 C   0  0  0  0  0  0
  -25.9079  -34.9402   23.5061 C   0  0  0  0  0  0
  -16.5363  -29.9100   23.6334 C   0  0  0  0  0  0
  -16.7281  -28.6520   23.0349 C   0  0  0  0  0  0
  -26.4547  -31.6532   25.0691 C   0  0  0  0  0  0
  -25.3754  -31.3716   26.1402 C   0  0  0  0  0  0
  -27.0396  -30.2933   24.6216 C   0  0  0  0  0  0
  -27.6070  -32.4294   25.7484 C   0  0  0  0  0  0
  -27.5572  -37.1799   24.8468 C   0  0  0  0  0  0
  -21.4242  -29.3048   22.3629 N   0  0  0  0  0  0
  -26.4286  -37.3747   23.9405 N   0  0  0  0  0  0
  -24.7085  -31.0380   22.0932 N   0  0  0  0  0  0
  -23.4201  -28.8127   23.3013 O   0  0  0  0  0  0
  -28.2806  -26.2395   20.1757 O   0  0  0  0  0  0
  -26.5648  -34.8894   22.4634 O   0  0  0  0  0  0
  -23.5542  -32.1341   23.7185 O   0  0  0  0  0  0
  -29.8186  -21.6534   18.2868 C   0  0  0  0  0  0
  -31.0740  -21.4761   18.8286 C   0  0  0  0  0  0
  -30.8309  -21.2284   20.2201 C   0  0  0  0  0  0
  -29.4916  -20.9727   20.2141 C   0  0  0  0  0  0
  -29.3392  -18.4608   21.4607 C   0  0  0  0  0  0
  -29.4869  -18.4513   19.0285 C   0  0  0  0  0  0
  -29.1145  -16.8582   21.3234 C   0  0  0  0  0  0
  -30.3919  -17.1552   19.3169 C   0  0  0  0  0  0
  -29.0251  -19.4018   20.2158 C   0  0  0  0  0  0
  -31.8344  -20.9605   21.3110 C   0  0  0  0  0  0
  -32.2638  -21.8127   16.5974 C   0  0  0  0  0  0
  -33.2595  -20.2778   18.3175 C   0  0  0  0  0  0
  -28.7146  -24.2092   17.9505 C   0  0  0  0  0  0
  -28.0776  -24.7078   20.2953 C   0  0  0  0  0  0
  -32.4116  -21.5407   18.1046 C   0  0  0  0  0  0
  -28.9936  -23.6853   19.3890 C   0  0  1  0  0  0
  -29.0479  -22.0802   19.3590 N   0  0  0  0  0  0
  -29.9048  -16.1100   20.2840 N   0  0  0  0  0  0
  -31.4621  -12.6571   19.1846 H   0  0  0  0  0  0
  -30.3820  -11.5896   20.0307 H   0  0  0  0  0  0
  -29.8185  -11.6996   17.5749 H   0  0  0  0  0  0
  -29.6097  -13.4312   17.6862 H   0  0  0  0  0  0
  -27.9386  -11.2618   18.9904 H   0  0  0  0  0  0
  -27.3774  -12.4216   17.8146 H   0  0  0  0  0  0
  -27.5900  -14.2453   19.3985 H   0  0  0  0  0  0
  -28.7424  -12.3037   21.4612 H   0  0  0  0  0  0
  -28.3839  -13.9944   21.7345 H   0  0  0  0  0  0
  -25.2757   -9.5686   22.4746 H   0  0  0  0  0  0
  -23.9998   -7.4625   22.7474 H   0  0  0  0  0  0
  -21.0816   -8.8744   19.8941 H   0  0  0  0  0  0
  -22.3661  -10.9658   19.6157 H   0  0  0  0  0  0
  -21.2018   -7.6142   23.9703 H   0  0  0  0  0  0
  -21.1481   -6.0524   25.9076 H   0  0  0  0  0  0
  -22.0599   -2.7599   23.2847 H   0  0  0  0  0  0
  -22.4078  -11.9898   22.4885 H   0  0  0  0  0  0
  -21.1043  -13.1188   22.2611 H   0  0  0  0  0  0
  -24.6511  -15.8489   20.5448 H   0  0  0  0  0  0
  -26.2686  -15.6359   20.1025 H   0  0  0  0  0  0
  -26.7247  -32.5311   23.0985 H   0  0  0  0  0  0
  -25.0118  -33.9603   25.0349 H   0  0  0  0  0  0
  -22.7379  -31.2951   21.3876 H   0  0  0  0  0  0
  -23.3743  -35.9610   23.3298 H   0  0  0  0  0  0
  -24.3594  -36.8899   22.2061 H   0  0  0  0  0  0
  -23.7257  -37.6461   23.6674 H   0  0  0  0  0  0
  -26.1350  -31.4882   20.6095 H   0  0  0  0  0  0
  -26.8646  -30.7841   22.0189 H   0  0  0  0  0  0
  -28.1164  -28.8423   21.2293 H   0  0  0  0  0  0
  -25.9327  -25.8751   18.9708 H   0  0  0  0  0  0
  -23.9740  -27.3119   18.9715 H   0  0  0  0  0  0
  -23.8002  -30.5794   19.4004 H   0  0  0  0  0  0
  -22.7752  -29.2494   19.8409 H   0  0  0  0  0  0
  -25.1308  -36.1863   25.0803 H   0  0  0  0  0  0
  -20.9978  -28.3314   24.1384 H   0  0  0  0  0  0
  -20.5723  -26.2336   23.3632 H   0  0  0  0  0  0
  -21.6661  -26.7482   22.1195 H   0  0  0  0  0  0
  -19.6938  -25.6308   21.1262 H   0  0  0  0  0  0
  -19.6694  -27.3204   20.6750 H   0  0  0  0  0  0
  -17.4227  -26.6690   21.4029 H   0  0  0  0  0  0
  -18.0333  -26.0083   22.9026 H   0  0  0  0  0  0
  -19.7952  -30.7313   24.2230 H   0  0  0  0  0  0
  -17.5025  -31.6267   24.5196 H   0  0  0  0  0  0
  -15.5365  -30.2998   23.7664 H   0  0  0  0  0  0
  -15.8682  -28.0840   22.7049 H   0  0  0  0  0  0
  -24.5938  -30.7035   25.7760 H   0  0  0  0  0  0
  -24.8932  -32.2896   26.4775 H   0  0  0  0  0  0
  -25.8081  -30.8953   27.0206 H   0  0  0  0  0  0
  -26.2987  -29.6662   24.1238 H   0  0  0  0  0  0
  -27.4049  -29.7216   25.4756 H   0  0  0  0  0  0
  -27.8880  -30.4178   23.9479 H   0  0  0  0  0  0
  -27.2639  -33.3599   26.2019 H   0  0  0  0  0  0
  -28.3918  -32.6847   25.0348 H   0  0  0  0  0  0
  -28.0682  -31.8437   26.5449 H   0  0  0  0  0  0
  -28.2596  -38.0088   24.7493 H   0  0  0  0  0  0
  -28.1060  -36.2619   24.6316 H   0  0  0  0  0  0
  -27.2292  -37.1471   25.8872 H   0  0  0  0  0  0
  -20.9458  -29.8745   21.6800 H   0  0  0  0  0  0
  -26.0148  -38.2815   24.1397 H   0  0  0  0  0  0
  -29.5912  -21.9254   17.2666 H   0  0  0  0  0  0
  -30.3794  -18.6027   21.7481 H   0  0  0  0  0  0
  -28.7634  -18.8237   22.3123 H   0  0  0  0  0  0
  -28.5778  -18.0978   18.5383 H   0  0  0  0  0  0
  -29.9852  -19.0355   18.2592 H   0  0  0  0  0  0
  -29.2969  -16.3933   22.2937 H   0  0  0  0  0  0
  -28.0614  -16.6783   21.1081 H   0  0  0  0  0  0
  -31.3744  -17.4927   19.6507 H   0  0  0  0  0  0
  -30.5644  -16.6542   18.3631 H   0  0  0  0  0  0
  -27.9366  -19.4408   20.1473 H   0  0  0  0  0  0
  -32.1868  -19.9312   21.2723 H   0  0  0  0  0  0
  -31.3875  -21.1331   22.2896 H   0  0  0  0  0  0
  -32.6950  -21.6228   21.2085 H   0  0  0  0  0  0
  -31.7182  -22.7366   16.4043 H   0  0  0  0  0  0
  -31.7404  -20.9966   16.0955 H   0  0  0  0  0  0
  -33.2424  -21.9119   16.1265 H   0  0  0  0  0  0
  -32.7482  -19.3928   17.9412 H   0  0  0  0  0  0
  -33.4901  -20.1115   19.3670 H   0  0  0  0  0  0
  -34.2155  -20.3620   17.7999 H   0  0  0  0  0  0
  -28.5170  -25.2795   17.9215 H   0  0  0  0  0  0
  -27.8446  -23.7180   17.5133 H   0  0  0  0  0  0
  -29.5646  -24.0681   17.2833 H   0  0  0  0  0  0
  -28.2557  -24.4642   21.3433 H   0  0  0  0  0  0
  -27.0331  -24.4485   20.1345 H   0  0  0  0  0  0
  -32.9549  -22.3811   18.5392 H   0  0  0  0  0  0
  -30.0110  -23.9917   19.6339 H   0  0  0  0  0  0
  1 25  1  0  0  0
  1 30  2  0  0  0
  1 88  1  0  0  0
  2  3  1  0  0  0
  2 25  1  0  0  0
  2 89  1  0  0  0
  2 90  1  0  0  0
  3  4  1  0  0  0
  3 91  1  0  0  0
  3 92  1  0  0  0
  4  5  1  0  0  0
  4 93  1  0  0  0
  4 94  1  0  0  0
  5  6  1  0  0  0
  5 26  1  0  0  0
  5 95  1  0  0  0
  6 25  1  0  0  0
  6 96  1  0  0  0
  6 97  1  0  0  0
  7  8  2  0  0  0
  7 26  1  0  0  0
  7 29  1  0  0  0
  8  9  1  0  0  0
  8 22  1  0  0  0
  9 10  1  0  0  0
  9 27  2  0  0  0
 10 11  2  0  0  0
 10 15  1  0  0  0
 11 12  1  0  0  0
 11 98  1  0  0  0
 12 13  2  0  0  0
 12 99  1  0  0  0
 13 14  1  0  0  0
 13 31  1  0  0  0
 14 15  2  0  0  0
 14100  1  0  0  0
 15101  1  0  0  0
 16 17  2  0  0  0
 16 21  1  0  0  0
 16 31  1  0  0  0
 17 18  1  0  0  0
 17102  1  0  0  0
 18 19  2  0  0  0
 18103  1  0  0  0
 19 20  1  0  0  0
 19 24  1  0  0  0
 20 21  2  0  0  0
 20104  1  0  0  0
 21 23  1  0  0  0
 22 28  1  0  0  0
 22 32  2  0  0  0
 26 27  1  0  0  0
 28105  1  0  0  0
 28106  1  0  0  0
 29107  1  0  0  0
 29108  1  0  0  0
 33 34  1  0  0  0
 33 66  1  0  0  0
 33 70  2  0  0  0
 34 36  1  0  0  0
 34 59  1  0  0  0
 34109  1  0  0  0
 35 44  2  0  0  0
 35 45  1  0  0  0
 35 68  1  0  0  0
 36 56  1  0  0  0
 36110  1  0  0  0
 37 39  1  0  0  0
 37 47  1  0  0  0
 37 66  1  0  0  0
 37111  1  0  0  0
 38 43  2  0  0  0
 38 46  1  0  0  0
 38 47  1  0  0  0
 39 64  1  0  0  0
 39 67  2  0  0  0
 40 52  1  0  0  0
 40 53  2  0  0  0
 40 58  1  0  0  0
 41112  1  0  0  0
 41113  1  0  0  0
 41114  1  0  0  0
 41 48  1  0  0  0
 42 43  1  0  0  0
 42 66  1  0  0  0
 42115  1  0  0  0
 42116  1  0  0  0
 43 44  1  0  0  0
 44117  1  0  0  0
 45 46  2  0  0  0
 45118  1  0  0  0
 46119  1  0  0  0
 47120  1  0  0  0
 47121  1  0  0  0
 48 56  1  0  0  0
 48 65  1  0  0  0
 48122  1  0  0  0
 49 50  1  0  0  0
 49 53  1  0  0  0
 49 64  1  0  0  0
 49123  1  0  0  0
 50 51  1  0  0  0
 50124  1  0  0  0
 50125  1  0  0  0
 51 52  1  0  0  0
 51126  1  0  0  0
 51127  1  0  0  0
 52128  1  0  0  0
 52129  1  0  0  0
 53 54  1  0  0  0
 54 55  2  0  0  0
 54130  1  0  0  0
 55 57  1  0  0  0
 55131  1  0  0  0
 56 69  2  0  0  0
 57 58  2  0  0  0
 57132  1  0  0  0
 58133  1  0  0  0
 59 60  1  0  0  0
 59 61  1  0  0  0
 59 62  1  0  0  0
 60134  1  0  0  0
 60135  1  0  0  0
 60136  1  0  0  0
 61137  1  0  0  0
 61138  1  0  0  0
 61139  1  0  0  0
 62140  1  0  0  0
 62141  1  0  0  0
 62142  1  0  0  0
 63 65  1  0  0  0
 63143  1  0  0  0
 63144  1  0  0  0
 63145  1  0  0  0
 64146  1  0  0  0
 65147  1  0  0  0
 68 84  1  0  0  0
 71 72  2  0  0  0
 71 87  1  0  0  0
 71148  1  0  0  0
 72 73  1  0  0  0
 72 85  1  0  0  0
 73 74  2  0  0  0
 73 80  1  0  0  0
 74 87  1  0  0  0
 74 79  1  0  0  0
 75 77  1  0  0  0
 75 79  1  0  0  0
 75149  1  0  0  0
 75150  1  0  0  0
 76 78  1  0  0  0
 76 79  1  0  0  0
 76151  1  0  0  0
 76152  1  0  0  0
 77 88  1  0  0  0
 77153  1  0  0  0
 77154  1  0  0  0
 78 88  1  0  0  0
 78155  1  0  0  0
 78156  1  0  0  0
 79157  1  0  0  0
 80158  1  0  0  0
 80159  1  0  0  0
 80160  1  0  0  0
 81161  1  0  0  0
 81162  1  0  0  0
 81163  1  0  0  0
 81 85  1  0  0  0
 82 85  1  0  0  0
 82164  1  0  0  0
 82165  1  0  0  0
 82166  1  0  0  0
 83167  1  0  0  0
 83168  1  0  0  0
 83169  1  0  0  0
 83 86  1  0  0  0
 84 86  1  0  0  0
 84170  1  0  0  0
 84171  1  0  0  0
 85172  1  0  0  0
 86 87  1  0  0  0
 86173  1  0  0  0
M  ISO  4   1 100  68 101  84 101  88 100
M  END
> <chiral flag>
0

> <version>
0

> <s_m_source_file>
/data/baiqing/PycharmProjects/Reinvent-master-3.2/result/LINK_invent/BTK/process_docking_weight1_custom_sum_contain_oxygen_bond_distance_aromatic_linkinvent_7_9_3/rearranged_h_0168.sdf

> <i_m_source_file_index>
63

> <r_mmod_Potential_Energy-OPLS-2005>
998.8740234375

> <r_mmod_Stretch_Energy-OPLS-2005>
223.365188598633

> <r_mmod_Bend_Energy-OPLS-2005>
344.973907470703

> <r_mmod_Torsional_Energy-OPLS-2005>
609.065856933594

> <r_mmod_Improper_Torsional_Energy-OPLS-2005>
67.0444717407227

> <r_mmod_Van_der_Waal_Energy-OPLS-2005>
130.526672363281

> <r_mmod_Electrostatic_Energy-OPLS-2005>
-338.804260253906

> <r_mmod_Solvation_Energy-OPLS-2005>
-185.645248413086

> <b_mmod_Minimization_Converged-OPLS-2005>
0

> <r_mmod_RMS_Derivative-OPLS-2005>
2.40427088737488

$$$$
63
                    3D
 Structure written by MMmdl.
167176  0  0  1  0            999 V2000
  -30.6985  -14.4710   20.5240 C   0  0  0  0  0  0
  -30.4159  -12.2920   19.4222 C   0  0  0  0  0  0
  -29.4917  -12.4951   18.2038 C   0  0  0  0  0  0
  -28.0104  -12.3680   18.6143 C   0  0  0  0  0  0
  -27.6592  -13.2048   19.8749 C   0  0  2  0  0  0
  -28.7044  -12.9923   20.9937 C   0  0  0  0  0  0
  -25.2591  -13.8148   20.5698 C   0  0  0  0  0  0
  -24.1837  -13.0432   20.9166 C   0  0  0  0  0  0
  -24.6385  -11.6890   20.8734 C   0  0  0  0  0  0
  -23.9048  -10.4285   21.0409 C   0  0  0  0  0  0
  -24.3596   -9.4206   21.9188 C   0  0  0  0  0  0
  -23.6268   -8.2239   22.0756 C   0  0  0  0  0  0
  -22.4253   -8.0275   21.3541 C   0  0  0  0  0  0
  -21.9888   -9.0250   20.4647 C   0  0  0  0  0  0
  -22.7215  -10.2130   20.3058 C   0  0  0  0  0  0
  -21.6847   -6.0723   22.5274 C   0  0  0  0  0  0
  -21.4014   -6.5633   23.8210 C   0  0  0  0  0  0
  -21.3665   -5.6787   24.9170 C   0  0  0  0  0  0
  -21.6041   -4.3044   24.7219 C   0  0  0  0  0  0
  -21.8820   -3.8135   23.4345 C   0  0  0  0  0  0
  -21.9193   -4.6952   22.3397 C   0  0  0  0  0  0
  -22.7866  -13.5242   21.1825 C   0  0  0  0  0  0
  -22.1664   -4.2138   21.0972 F   0  0  0  0  0  0
  -21.5634   -3.4534   25.7737 F   0  0  0  0  0  0
  -30.0286  -13.2907   20.4284 N   0  0  0  0  0  0
  -26.3024  -12.9316   20.3384 N   0  0  0  0  0  0
  -25.9319  -11.6484   20.5793 N   0  0  0  0  0  0
  -22.0508  -12.8243   22.0385 N   0  0  0  0  0  0
  -25.4322  -15.1863   20.4113 N   0  0  0  0  0  0
  -31.8643  -14.5983   20.1350 O   0  0  0  0  0  0
  -21.6629   -6.8863   21.4232 O   0  0  0  0  0  0
  -22.3566  -14.5557   20.6675 O   0  0  0  0  0  0
  -24.6143  -31.8705   23.2101 C   0  0  0  0  0  0
  -25.9041  -32.4833   23.8410 C   0  0  1  0  0  0
  -27.2391  -27.4438   20.0946 C   0  0  0  0  0  0
  -25.5901  -33.8633   24.2336 N   0  0  0  0  0  0
  -23.4023  -30.4934   21.5515 C   0  0  2  0  0  0
  -24.8465  -28.9576   20.1195 C   0  0  0  0  0  0
  -22.7413  -29.4679   22.5008 C   0  0  0  0  0  0
  -18.0276  -28.1378   22.8510 C   0  0  0  0  0  0
  -24.1484  -36.7314   23.2648 C   0  0  0  0  0  0
  -25.9291  -30.8392   21.3616 C   0  0  0  0  0  0
  -26.0073  -29.4740   20.7088 C   0  0  0  0  0  0
  -27.2060  -28.7265   20.6876 C   0  0  0  0  0  0
  -26.0584  -26.9395   19.5043 C   0  0  0  0  0  0
  -24.8664  -27.6888   19.5149 C   0  0  0  0  0  0
  -23.6086  -29.8243   20.1666 C   0  0  0  0  0  0
  -25.4109  -36.3114   24.0338 C   0  0  1  0  0  0
  -20.5866  -28.3677   23.1323 C   0  0  2  0  0  0
  -20.6776  -26.9423   22.5420 C   0  0  0  0  0  0
  -19.5747  -26.6391   21.5227 C   0  0  0  0  0  0
  -18.1919  -26.7932   22.1627 C   0  0  0  0  0  0
  -19.1524  -28.8841   23.2917 C   0  0  0  0  0  0
  -18.9447  -30.1439   23.8941 C   0  0  0  0  0  0
  -17.6445  -30.6591   24.0548 C   0  0  0  0  0  0
  -25.9031  -34.9478   23.5125 C   0  0  0  0  0  0
  -16.5336  -29.9093   23.6317 C   0  0  0  0  0  0
  -16.7258  -28.6493   23.0373 C   0  0  0  0  0  0
  -26.4472  -31.6617   25.0738 C   0  0  0  0  0  0
  -25.3719  -31.3689   26.1468 C   0  0  0  0  0  0
  -27.0332  -30.3076   24.6110 C   0  0  0  0  0  0
  -27.6058  -32.4346   25.7473 C   0  0  0  0  0  0
  -27.5576  -37.1807   24.8468 C   0  0  0  0  0  0
  -21.4143  -29.3040   22.3725 N   0  0  0  0  0  0
  -26.4294  -37.3796   23.9406 N   0  0  0  0  0  0
  -24.6669  -31.0823   22.0998 N   0  0  0  0  0  0
  -23.4175  -28.8243   23.3070 O   0  0  0  0  0  0
  -28.4254  -26.7383   20.0819 O   0  0  0  0  0  0
  -26.5600  -34.8923   22.4694 O   0  0  0  0  0  0
  -23.5328  -32.1456   23.7485 O   0  0  0  0  0  0
  -31.0659  -21.2928   19.1944 C   0  0  0  0  0  0
  -30.6881  -22.6278   18.9570 C   0  0  0  0  0  0
  -29.4002  -23.0669   19.3740 C   0  0  0  0  0  0
  -28.5647  -22.0897   19.9935 C   0  0  0  0  0  0
  -30.1773  -20.4115   19.8207 C   0  0  0  0  0  0
  -29.9184  -17.6049   21.9195 C   0  0  0  0  0  0
  -29.5689  -16.1131   21.9742 C   0  0  0  0  0  0
  -30.0144  -16.6872   19.7052 C   0  0  0  0  0  0
  -29.7113  -17.9941   20.4585 C   0  0  2  0  0  0
  -31.6828  -23.5337   18.2435 C   0  0  0  0  0  0
  -27.1494  -22.3695   20.4649 C   0  0  0  0  0  0
  -28.0881  -24.6142   17.8337 C   0  0  0  0  0  0
  -28.3812  -25.3184   20.3019 C   0  0  0  0  0  0
  -28.9591  -24.5293   19.0954 C   0  0  1  0  0  0
  -28.9533  -20.8079   20.2115 N   0  0  0  0  0  0
  -29.9109  -15.5664   20.6594 N   0  0  0  0  0  0
  -30.5877  -19.0876   20.0335 N   0  0  0  0  0  0
  -31.4622  -12.3746   19.1227 H   0  0  0  0  0  0
  -30.3031  -11.2862   19.8289 H   0  0  0  0  0  0
  -29.7285  -11.7689   17.4248 H   0  0  0  0  0  0
  -29.6657  -13.4804   17.7680 H   0  0  0  0  0  0
  -27.8057  -11.3122   18.7996 H   0  0  0  0  0  0
  -27.3661  -12.6592   17.7834 H   0  0  0  0  0  0
  -27.6976  -14.2519   19.5759 H   0  0  0  0  0  0
  -28.6798  -11.9619   21.3528 H   0  0  0  0  0  0
  -28.4828  -13.6132   21.8616 H   0  0  0  0  0  0
  -25.2744   -9.5684   22.4761 H   0  0  0  0  0  0
  -23.9984   -7.4630   22.7471 H   0  0  0  0  0  0
  -21.0827   -8.8755   19.8949 H   0  0  0  0  0  0
  -22.3668  -10.9662   19.6165 H   0  0  0  0  0  0
  -21.2008   -7.6143   23.9701 H   0  0  0  0  0  0
  -21.1492   -6.0524   25.9071 H   0  0  0  0  0  0
  -22.0598   -2.7602   23.2846 H   0  0  0  0  0  0
  -22.4132  -11.9910   22.4782 H   0  0  0  0  0  0
  -21.1136  -13.1277   22.2604 H   0  0  0  0  0  0
  -24.6671  -15.8424   20.5243 H   0  0  0  0  0  0
  -26.2936  -15.6266   20.1146 H   0  0  0  0  0  0
  -26.7117  -32.5538   23.1178 H   0  0  0  0  0  0
  -25.0037  -33.9814   25.0467 H   0  0  0  0  0  0
  -22.6881  -31.3077   21.4129 H   0  0  0  0  0  0
  -23.3737  -35.9656   23.3329 H   0  0  0  0  0  0
  -24.3565  -36.8929   22.2060 H   0  0  0  0  0  0
  -23.7255  -37.6527   23.6662 H   0  0  0  0  0  0
  -26.0365  -31.6047   20.5924 H   0  0  0  0  0  0
  -26.8178  -30.8921   21.9798 H   0  0  0  0  0  0
  -28.1061  -29.1288   21.1329 H   0  0  0  0  0  0
  -26.0508  -25.9752   19.0218 H   0  0  0  0  0  0
  -23.9744  -27.2860   19.0560 H   0  0  0  0  0  0
  -23.7121  -30.5970   19.4040 H   0  0  0  0  0  0
  -22.7332  -29.2421   19.8746 H   0  0  0  0  0  0
  -25.1287  -36.1982   25.0832 H   0  0  0  0  0  0
  -20.9937  -28.3259   24.1453 H   0  0  0  0  0  0
  -20.5714  -26.2294   23.3612 H   0  0  0  0  0  0
  -21.6642  -26.7504   22.1186 H   0  0  0  0  0  0
  -19.6913  -25.6302   21.1260 H   0  0  0  0  0  0
  -19.6676  -27.3190   20.6745 H   0  0  0  0  0  0
  -17.4206  -26.6703   21.4016 H   0  0  0  0  0  0
  -18.0289  -26.0064   22.8998 H   0  0  0  0  0  0
  -19.7919  -30.7236   24.2362 H   0  0  0  0  0  0
  -17.5002  -31.6287   24.5120 H   0  0  0  0  0  0
  -15.5333  -30.3003   23.7626 H   0  0  0  0  0  0
  -15.8652  -28.0799   22.7109 H   0  0  0  0  0  0
  -24.5902  -30.7050   25.7763 H   0  0  0  0  0  0
  -24.8872  -32.2819   26.4930 H   0  0  0  0  0  0
  -25.8049  -30.8828   27.0215 H   0  0  0  0  0  0
  -26.2892  -29.6805   24.1186 H   0  0  0  0  0  0
  -27.4162  -29.7352   25.4567 H   0  0  0  0  0  0
  -27.8688  -30.4438   23.9238 H   0  0  0  0  0  0
  -27.2715  -33.3651   26.2064 H   0  0  0  0  0  0
  -28.3827  -32.6910   25.0258 H   0  0  0  0  0  0
  -28.0771  -31.8467   26.5355 H   0  0  0  0  0  0
  -28.2600  -38.0094   24.7504 H   0  0  0  0  0  0
  -28.1064  -36.2625   24.6310 H   0  0  0  0  0  0
  -27.2281  -37.1478   25.8867 H   0  0  0  0  0  0
  -20.9315  -29.8733   21.6914 H   0  0  0  0  0  0
  -26.0181  -38.2878   24.1397 H   0  0  0  0  0  0
  -32.0408  -20.9482   18.8763 H   0  0  0  0  0  0
  -30.9656  -17.7302   22.2032 H   0  0  0  0  0  0
  -29.3179  -18.2060   22.6025 H   0  0  0  0  0  0
  -28.4972  -15.9815   22.1340 H   0  0  0  0  0  0
  -30.0891  -15.6128   22.7923 H   0  0  0  0  0  0
  -31.0086  -16.7284   19.2548 H   0  0  0  0  0  0
  -29.3094  -16.5383   18.8855 H   0  0  0  0  0  0
  -28.6616  -18.2468   20.2985 H   0  0  0  0  0  0
  -32.5442  -22.9756   17.8746 H   0  0  0  0  0  0
  -32.0567  -24.3019   18.9216 H   0  0  0  0  0  0
  -31.2269  -24.0194   17.3796 H   0  0  0  0  0  0
  -27.1607  -22.8480   21.4436 H   0  0  0  0  0  0
  -26.5805  -21.4436   20.5589 H   0  0  0  0  0  0
  -26.5973  -23.0026   19.7745 H   0  0  0  0  0  0
  -28.5899  -24.1593   16.9799 H   0  0  0  0  0  0
  -27.8914  -25.6543   17.5720 H   0  0  0  0  0  0
  -27.1297  -24.1133   17.9540 H   0  0  0  0  0  0
  -29.0197  -25.1392   21.1676 H   0  0  0  0  0  0
  -27.3911  -24.9783   20.5955 H   0  0  0  0  0  0
  -29.8541  -25.0983   18.8578 H   0  0  0  0  0  0
  -31.5181  -18.8363   19.7195 H   0  0  0  0  0  0
  1 25  1  0  0  0
  1 30  2  0  0  0
  1 86  1  0  0  0
  2  3  1  0  0  0
  2 25  1  0  0  0
  2 88  1  0  0  0
  2 89  1  0  0  0
  3  4  1  0  0  0
  3 90  1  0  0  0
  3 91  1  0  0  0
  4  5  1  0  0  0
  4 92  1  0  0  0
  4 93  1  0  0  0
  5  6  1  0  0  0
  5 26  1  0  0  0
  5 94  1  0  0  0
  6 25  1  0  0  0
  6 95  1  0  0  0
  6 96  1  0  0  0
  7  8  2  0  0  0
  7 26  1  0  0  0
  7 29  1  0  0  0
  8  9  1  0  0  0
  8 22  1  0  0  0
  9 10  1  0  0  0
  9 27  2  0  0  0
 10 11  2  0  0  0
 10 15  1  0  0  0
 11 12  1  0  0  0
 11 97  1  0  0  0
 12 13  2  0  0  0
 12 98  1  0  0  0
 13 14  1  0  0  0
 13 31  1  0  0  0
 14 15  2  0  0  0
 14 99  1  0  0  0
 15100  1  0  0  0
 16 17  2  0  0  0
 16 21  1  0  0  0
 16 31  1  0  0  0
 17 18  1  0  0  0
 17101  1  0  0  0
 18 19  2  0  0  0
 18102  1  0  0  0
 19 20  1  0  0  0
 19 24  1  0  0  0
 20 21  2  0  0  0
 20103  1  0  0  0
 21 23  1  0  0  0
 22 28  1  0  0  0
 22 32  2  0  0  0
 26 27  1  0  0  0
 28104  1  0  0  0
 28105  1  0  0  0
 29106  1  0  0  0
 29107  1  0  0  0
 33 34  1  0  0  0
 33 66  1  0  0  0
 33 70  2  0  0  0
 34 36  1  0  0  0
 34 59  1  0  0  0
 34108  1  0  0  0
 35 44  2  0  0  0
 35 45  1  0  0  0
 35 68  1  0  0  0
 36 56  1  0  0  0
 36109  1  0  0  0
 37 39  1  0  0  0
 37 47  1  0  0  0
 37 66  1  0  0  0
 37110  1  0  0  0
 38 43  2  0  0  0
 38 46  1  0  0  0
 38 47  1  0  0  0
 39 64  1  0  0  0
 39 67  2  0  0  0
 40 52  1  0  0  0
 40 53  2  0  0  0
 40 58  1  0  0  0
 41111  1  0  0  0
 41112  1  0  0  0
 41113  1  0  0  0
 41 48  1  0  0  0
 42 43  1  0  0  0
 42 66  1  0  0  0
 42114  1  0  0  0
 42115  1  0  0  0
 43 44  1  0  0  0
 44116  1  0  0  0
 45 46  2  0  0  0
 45117  1  0  0  0
 46118  1  0  0  0
 47119  1  0  0  0
 47120  1  0  0  0
 48 56  1  0  0  0
 48 65  1  0  0  0
 48121  1  0  0  0
 49 50  1  0  0  0
 49 53  1  0  0  0
 49 64  1  0  0  0
 49122  1  0  0  0
 50 51  1  0  0  0
 50123  1  0  0  0
 50124  1  0  0  0
 51 52  1  0  0  0
 51125  1  0  0  0
 51126  1  0  0  0
 52127  1  0  0  0
 52128  1  0  0  0
 53 54  1  0  0  0
 54 55  2  0  0  0
 54129  1  0  0  0
 55 57  1  0  0  0
 55130  1  0  0  0
 56 69  2  0  0  0
 57 58  2  0  0  0
 57131  1  0  0  0
 58132  1  0  0  0
 59 60  1  0  0  0
 59 61  1  0  0  0
 59 62  1  0  0  0
 60133  1  0  0  0
 60134  1  0  0  0
 60135  1  0  0  0
 61136  1  0  0  0
 61137  1  0  0  0
 61138  1  0  0  0
 62139  1  0  0  0
 62140  1  0  0  0
 62141  1  0  0  0
 63 65  1  0  0  0
 63142  1  0  0  0
 63143  1  0  0  0
 63144  1  0  0  0
 64145  1  0  0  0
 65146  1  0  0  0
 68 83  1  0  0  0
 71 72  2  0  0  0
 71 75  1  0  0  0
 71147  1  0  0  0
 72 73  1  0  0  0
 72 80  1  0  0  0
 73 74  2  0  0  0
 73 84  1  0  0  0
 74 81  1  0  0  0
 74 85  1  0  0  0
 75 85  2  0  0  0
 75 87  1  0  0  0
 76 77  1  0  0  0
 76 79  1  0  0  0
 76148  1  0  0  0
 76149  1  0  0  0
 77 86  1  0  0  0
 77150  1  0  0  0
 77151  1  0  0  0
 78 79  1  0  0  0
 78 86  1  0  0  0
 78152  1  0  0  0
 78153  1  0  0  0
 79 87  1  0  0  0
 79154  1  0  0  0
 80155  1  0  0  0
 80156  1  0  0  0
 80157  1  0  0  0
 81158  1  0  0  0
 81159  1  0  0  0
 81160  1  0  0  0
 82161  1  0  0  0
 82162  1  0  0  0
 82163  1  0  0  0
 82 84  1  0  0  0
 83 84  1  0  0  0
 83164  1  0  0  0
 83165  1  0  0  0
 84166  1  0  0  0
 87167  1  0  0  0
M  ISO  4   1 100  68 101  83 101  86 100
M  END
> <chiral flag>
0

> <version>
0

> <s_m_source_file>
/data/baiqing/PycharmProjects/Reinvent-master-3.2/result/LINK_invent/BTK/process_docking_weight1_custom_sum_contain_oxygen_bond_distance_aromatic_linkinvent_7_9_3/rearranged_h_0168.sdf

> <i_m_source_file_index>
64

> <r_mmod_Potential_Energy-OPLS-2005>
-70.2731018066406

> <r_mmod_Stretch_Energy-OPLS-2005>
40.0100708007812

> <r_mmod_Bend_Energy-OPLS-2005>
139.441192626953

> <r_mmod_Torsional_Energy-OPLS-2005>
330.078735351562

> <r_mmod_Improper_Torsional_Energy-OPLS-2005>
15.279372215271

> <r_mmod_Van_der_Waal_Energy-OPLS-2005>
157.378875732422

> <r_mmod_Electrostatic_Energy-OPLS-2005>
-550.996643066406

> <r_mmod_Solvation_Energy-OPLS-2005>
-215.649703979492

> <b_mmod_Minimization_Converged-OPLS-2005>
0

> <r_mmod_RMS_Derivative-OPLS-2005>
1.89284312725067

$$$$
64
                    3D
 Structure written by MMmdl.
179189  0  0  1  0            999 V2000
  -30.6033  -14.8116   20.3809 C   0  0  0  0  0  0
  -30.4255  -12.4906   19.4676 C   0  0  0  0  0  0
  -29.5032  -12.5045   18.2285 C   0  0  0  0  0  0
  -28.0335  -12.3219   18.6512 C   0  0  0  0  0  0
  -27.6312  -13.2418   19.8352 C   0  0  2  0  0  0
  -28.6848  -13.2268   20.9652 C   0  0  0  0  0  0
  -25.2460  -13.8211   20.5709 C   0  0  0  0  0  0
  -24.1781  -13.0436   20.9253 C   0  0  0  0  0  0
  -24.6397  -11.6920   20.8768 C   0  0  0  0  0  0
  -23.9075  -10.4294   21.0428 C   0  0  0  0  0  0
  -24.3624   -9.4205   21.9203 C   0  0  0  0  0  0
  -23.6308   -8.2234   22.0747 C   0  0  0  0  0  0
  -22.4284   -8.0281   21.3548 C   0  0  0  0  0  0
  -21.9938   -9.0245   20.4633 C   0  0  0  0  0  0
  -22.7252  -10.2134   20.3058 C   0  0  0  0  0  0
  -21.6848   -6.0751   22.5284 C   0  0  0  0  0  0
  -21.4011   -6.5654   23.8219 C   0  0  0  0  0  0
  -21.3659   -5.6806   24.9183 C   0  0  0  0  0  0
  -21.6041   -4.3066   24.7233 C   0  0  0  0  0  0
  -21.8810   -3.8156   23.4352 C   0  0  0  0  0  0
  -21.9195   -4.6980   22.3412 C   0  0  0  0  0  0
  -22.7799  -13.5213   21.1909 C   0  0  0  0  0  0
  -22.1658   -4.2165   21.0988 F   0  0  0  0  0  0
  -21.5638   -3.4542   25.7746 F   0  0  0  0  0  0
  -29.9749  -13.5829   20.3606 N   0  0  0  0  0  0
  -26.2894  -12.9434   20.3269 N   0  0  0  0  0  0
  -25.9325  -11.6567   20.5759 N   0  0  0  0  0  0
  -22.0446  -12.8174   22.0446 N   0  0  0  0  0  0
  -25.4122  -15.1933   20.4061 N   0  0  0  0  0  0
  -31.8121  -14.8720   20.1426 O   0  0  0  0  0  0
  -21.6636   -6.8887   21.4244 O   0  0  0  0  0  0
  -22.3488  -14.5527   20.6762 O   0  0  0  0  0  0
  -24.6359  -31.8460   23.1931 C   0  0  0  0  0  0
  -25.9167  -32.4697   23.8261 C   0  0  1  0  0  0
  -27.2208  -27.2193   20.1124 C   0  0  0  0  0  0
  -25.5918  -33.8518   24.2188 N   0  0  0  0  0  0
  -23.4311  -30.4722   21.5339 C   0  0  2  0  0  0
  -24.8772  -28.9092   20.1022 C   0  0  0  0  0  0
  -22.7518  -29.4580   22.4831 C   0  0  0  0  0  0
  -18.0304  -28.1422   22.8452 C   0  0  0  0  0  0
  -24.1480  -36.7273   23.2656 C   0  0  0  0  0  0
  -25.9807  -30.7461   21.3764 C   0  0  0  0  0  0
  -26.0494  -29.3647   20.7183 C   0  0  0  0  0  0
  -27.2162  -28.5293   20.7199 C   0  0  0  0  0  0
  -26.0259  -26.8500   19.4532 C   0  0  0  0  0  0
  -24.8758  -27.6615   19.4614 C   0  0  0  0  0  0
  -23.6529  -29.8039   20.1486 C   0  0  0  0  0  0
  -25.4097  -36.3060   24.0318 C   0  0  1  0  0  0
  -20.5940  -28.3696   23.1262 C   0  0  2  0  0  0
  -20.6815  -26.9419   22.5414 C   0  0  0  0  0  0
  -19.5783  -26.6398   21.5229 C   0  0  0  0  0  0
  -18.1941  -26.7969   22.1610 C   0  0  0  0  0  0
  -19.1576  -28.8877   23.2862 C   0  0  0  0  0  0
  -18.9509  -30.1482   23.8863 C   0  0  0  0  0  0
  -17.6516  -30.6608   24.0562 C   0  0  0  0  0  0
  -25.9065  -34.9419   23.5085 C   0  0  0  0  0  0
  -16.5393  -29.9101   23.6357 C   0  0  0  0  0  0
  -16.7302  -28.6553   23.0318 C   0  0  0  0  0  0
  -26.4498  -31.6546   25.0680 C   0  0  0  0  0  0
  -25.3713  -31.3700   26.1401 C   0  0  0  0  0  0
  -27.0398  -30.2964   24.6188 C   0  0  0  0  0  0
  -27.6033  -32.4294   25.7472 C   0  0  0  0  0  0
  -27.5545  -37.1799   24.8476 C   0  0  0  0  0  0
  -21.4232  -29.3066   22.3621 N   0  0  0  0  0  0
  -26.4254  -37.3764   23.9432 N   0  0  0  0  0  0
  -24.7025  -31.0397   22.0900 N   0  0  0  0  0  0
  -23.4225  -28.8124   23.2931 O   0  0  0  0  0  0
  -28.3190  -26.3133   20.1689 O   0  0  0  0  0  0
  -26.5676  -34.8916   22.4676 O   0  0  0  0  0  0
  -23.5500  -32.1291   23.7212 O   0  0  0  0  0  0
  -28.7867  -24.2759   22.3700 C   0  0  0  0  0  0
  -29.4528  -23.7028   23.4494 C   0  0  0  0  0  0
  -28.8924  -23.8146   21.0333 C   0  0  0  0  0  0
  -30.4034  -22.6889   23.2222 C   0  0  0  0  0  0
  -30.4969  -22.1267   21.9199 C   0  0  0  0  0  0
  -29.5741  -22.4906   20.8731 C   0  0  0  0  0  0
  -27.9024  -25.4050   22.8387 C   0  0  0  0  0  0
  -27.8719  -25.2876   24.3625 C   0  0  0  0  0  0
  -30.6825  -17.8205   18.7318 C   0  0  0  0  0  0
  -30.4609  -19.3620   18.5334 C   0  0  0  0  0  0
  -29.3178  -18.7285   20.4740 C   0  0  0  0  0  0
  -30.2723  -17.4585   20.1774 C   0  0  1  0  0  0
  -29.0340  -24.3496   24.7729 C   0  0  0  0  0  0
  -31.3180  -22.1596   24.3292 C   0  0  0  0  0  0
  -31.6479  -21.1344   21.6976 C   0  0  0  0  0  0
  -28.4883  -23.3145   25.7799 C   0  0  0  0  0  0
  -30.1697  -25.2053   25.3720 C   0  0  0  0  0  0
  -29.3458  -21.3900   19.7173 C   0  0  0  0  0  0
  -28.1689  -24.7961   19.9910 C   0  0  0  0  0  0
  -29.8418  -15.9852   20.4067 N   0  0  0  0  0  0
  -29.9522  -19.9430   19.8063 N   0  3  2  0  0  0
  -31.4673  -12.6090   19.1630 H   0  0  0  0  0  0
  -30.3716  -11.5294   19.9801 H   0  0  0  0  0  0
  -29.7918  -11.7171   17.5309 H   0  0  0  0  0  0
  -29.6179  -13.4463   17.6898 H   0  0  0  0  0  0
  -27.9034  -11.2790   18.9375 H   0  0  0  0  0  0
  -27.3690  -12.4841   17.8019 H   0  0  0  0  0  0
  -27.6055  -14.2512   19.4266 H   0  0  0  0  0  0
  -28.7388  -12.2426   21.4312 H   0  0  0  0  0  0
  -28.4191  -13.9318   21.7547 H   0  0  0  0  0  0
  -25.2757   -9.5699   22.4791 H   0  0  0  0  0  0
  -24.0018   -7.4630   22.7456 H   0  0  0  0  0  0
  -21.0879   -8.8747   19.8930 H   0  0  0  0  0  0
  -22.3697  -10.9674   19.6169 H   0  0  0  0  0  0
  -21.1977   -7.6156   23.9735 H   0  0  0  0  0  0
  -21.1498   -6.0531   25.9094 H   0  0  0  0  0  0
  -22.0587   -2.7615   23.2841 H   0  0  0  0  0  0
  -22.4050  -11.9813   22.4813 H   0  0  0  0  0  0
  -21.1053  -13.1159   22.2640 H   0  0  0  0  0  0
  -24.6340  -15.8374   20.4874 H   0  0  0  0  0  0
  -26.2414  -15.6221   20.0179 H   0  0  0  0  0  0
  -26.7188  -32.5284   23.0962 H   0  0  0  0  0  0
  -25.0037  -33.9617   25.0312 H   0  0  0  0  0  0
  -22.7328  -31.2991   21.3798 H   0  0  0  0  0  0
  -23.3745  -35.9612   23.3330 H   0  0  0  0  0  0
  -24.3585  -36.8902   22.2080 H   0  0  0  0  0  0
  -23.7223  -37.6466   23.6690 H   0  0  0  0  0  0
  -26.1228  -31.5015   20.6022 H   0  0  0  0  0  0
  -26.8602  -30.7983   22.0058 H   0  0  0  0  0  0
  -28.1031  -28.8654   21.2368 H   0  0  0  0  0  0
  -25.9576  -25.9116   18.9274 H   0  0  0  0  0  0
  -23.9837  -27.3127   18.9558 H   0  0  0  0  0  0
  -23.7866  -30.5824   19.3942 H   0  0  0  0  0  0
  -22.7655  -29.2534   19.8343 H   0  0  0  0  0  0
  -25.1298  -36.1860   25.0794 H   0  0  0  0  0  0
  -21.0024  -28.3287   24.1382 H   0  0  0  0  0  0
  -20.5737  -26.2291   23.3604 H   0  0  0  0  0  0
  -21.6643  -26.7463   22.1165 H   0  0  0  0  0  0
  -19.6931  -25.6324   21.1225 H   0  0  0  0  0  0
  -19.6720  -27.3224   20.6790 H   0  0  0  0  0  0
  -17.4228  -26.6733   21.3993 H   0  0  0  0  0  0
  -18.0277  -26.0143   22.9023 H   0  0  0  0  0  0
  -19.7997  -30.7312   24.2153 H   0  0  0  0  0  0
  -17.5093  -31.6267   24.5203 H   0  0  0  0  0  0
  -15.5397  -30.2996   23.7742 H   0  0  0  0  0  0
  -15.8703  -28.0901   22.6978 H   0  0  0  0  0  0
  -24.5943  -30.6963   25.7765 H   0  0  0  0  0  0
  -24.8820  -32.2878   26.4728 H   0  0  0  0  0  0
  -25.8036  -30.9003   27.0242 H   0  0  0  0  0  0
  -26.3026  -29.6654   24.1219 H   0  0  0  0  0  0
  -27.4148  -29.7276   25.4703 H   0  0  0  0  0  0
  -27.8839  -30.4307   23.9412 H   0  0  0  0  0  0
  -27.2662  -33.3658   26.1927 H   0  0  0  0  0  0
  -28.3913  -32.6721   25.0340 H   0  0  0  0  0  0
  -28.0598  -31.8476   26.5483 H   0  0  0  0  0  0
  -28.2580  -38.0094   24.7534 H   0  0  0  0  0  0
  -28.1031  -36.2625   24.6289 H   0  0  0  0  0  0
  -27.2288  -37.1448   25.8891 H   0  0  0  0  0  0
  -20.9392  -29.8840   21.6897 H   0  0  0  0  0  0
  -26.0130  -38.2824   24.1455 H   0  0  0  0  0  0
  -26.9013  -25.3281   22.4077 H   0  0  0  0  0  0
  -28.3397  -26.3643   22.5670 H   0  0  0  0  0  0
  -26.9130  -24.8443   24.6275 H   0  0  0  0  0  0
  -27.8997  -26.2677   24.8462 H   0  0  0  0  0  0
  -31.7202  -17.5447   18.5395 H   0  0  0  0  0  0
  -30.0771  -17.2636   18.0161 H   0  0  0  0  0  0
  -29.7367  -19.5307   17.7331 H   0  0  0  0  0  0
  -31.3831  -19.8565   18.2321 H   0  0  0  0  0  0
  -29.1791  -18.9043   21.5392 H   0  0  0  0  0  0
  -28.3290  -18.5802   20.0365 H   0  0  0  0  0  0
  -31.1627  -17.5935   20.7990 H   0  0  0  0  0  0
  -32.3561  -22.4130   24.1206 H   0  0  0  0  0  0
  -31.2338  -21.0742   24.4021 H   0  0  0  0  0  0
  -31.1219  -22.5482   25.3198 H   0  0  0  0  0  0
  -32.5465  -21.4244   22.2384 H   0  0  0  0  0  0
  -31.9941  -21.1123   20.6658 H   0  0  0  0  0  0
  -31.3905  -20.1340   22.0526 H   0  0  0  0  0  0
  -27.7134  -22.7011   25.3159 H   0  0  0  0  0  0
  -28.0411  -23.8078   26.6443 H   0  0  0  0  0  0
  -29.2353  -22.6266   26.1639 H   0  0  0  0  0  0
  -30.5139  -25.9473   24.6510 H   0  0  0  0  0  0
  -31.0402  -24.6260   25.6666 H   0  0  0  0  0  0
  -29.8310  -25.7423   26.2569 H   0  0  0  0  0  0
  -29.7669  -21.8497   18.8214 H   0  0  0  0  0  0
  -28.2815  -21.3152   19.5089 H   0  0  0  0  0  0
  -27.1168  -24.5243   20.0688 H   0  0  0  0  0  0
  -28.4870  -24.5260   18.9838 H   0  0  0  0  0  0
  -28.8504  -15.8426   20.5378 H   0  0  0  0  0  0
  -30.7893  -20.1025   20.3494 H   0  0  0  0  0  0
  1 25  1  0  0  0
  1 30  2  0  0  0
  1 90  1  0  0  0
  2  3  1  0  0  0
  2 25  1  0  0  0
  2 92  1  0  0  0
  2 93  1  0  0  0
  3  4  1  0  0  0
  3 94  1  0  0  0
  3 95  1  0  0  0
  4  5  1  0  0  0
  4 96  1  0  0  0
  4 97  1  0  0  0
  5  6  1  0  0  0
  5 26  1  0  0  0
  5 98  1  0  0  0
  6 25  1  0  0  0
  6 99  1  0  0  0
  6100  1  0  0  0
  7  8  2  0  0  0
  7 26  1  0  0  0
  7 29  1  0  0  0
  8  9  1  0  0  0
  8 22  1  0  0  0
  9 10  1  0  0  0
  9 27  2  0  0  0
 10 11  2  0  0  0
 10 15  1  0  0  0
 11 12  1  0  0  0
 11101  1  0  0  0
 12 13  2  0  0  0
 12102  1  0  0  0
 13 14  1  0  0  0
 13 31  1  0  0  0
 14 15  2  0  0  0
 14103  1  0  0  0
 15104  1  0  0  0
 16 17  2  0  0  0
 16 21  1  0  0  0
 16 31  1  0  0  0
 17 18  1  0  0  0
 17105  1  0  0  0
 18 19  2  0  0  0
 18106  1  0  0  0
 19 20  1  0  0  0
 19 24  1  0  0  0
 20 21  2  0  0  0
 20107  1  0  0  0
 21 23  1  0  0  0
 22 28  1  0  0  0
 22 32  2  0  0  0
 26 27  1  0  0  0
 28108  1  0  0  0
 28109  1  0  0  0
 29110  1  0  0  0
 29111  1  0  0  0
 33 34  1  0  0  0
 33 66  1  0  0  0
 33 70  2  0  0  0
 34 36  1  0  0  0
 34 59  1  0  0  0
 34112  1  0  0  0
 35 44  2  0  0  0
 35 45  1  0  0  0
 35 68  1  0  0  0
 36 56  1  0  0  0
 36113  1  0  0  0
 37 39  1  0  0  0
 37 47  1  0  0  0
 37 66  1  0  0  0
 37114  1  0  0  0
 38 43  2  0  0  0
 38 46  1  0  0  0
 38 47  1  0  0  0
 39 64  1  0  0  0
 39 67  2  0  0  0
 40 52  1  0  0  0
 40 53  2  0  0  0
 40 58  1  0  0  0
 41115  1  0  0  0
 41116  1  0  0  0
 41117  1  0  0  0
 41 48  1  0  0  0
 42 43  1  0  0  0
 42 66  1  0  0  0
 42118  1  0  0  0
 42119  1  0  0  0
 43 44  1  0  0  0
 44120  1  0  0  0
 45 46  2  0  0  0
 45121  1  0  0  0
 46122  1  0  0  0
 47123  1  0  0  0
 47124  1  0  0  0
 48 56  1  0  0  0
 48 65  1  0  0  0
 48125  1  0  0  0
 49 50  1  0  0  0
 49 53  1  0  0  0
 49 64  1  0  0  0
 49126  1  0  0  0
 50 51  1  0  0  0
 50127  1  0  0  0
 50128  1  0  0  0
 51 52  1  0  0  0
 51129  1  0  0  0
 51130  1  0  0  0
 52131  1  0  0  0
 52132  1  0  0  0
 53 54  1  0  0  0
 54 55  2  0  0  0
 54133  1  0  0  0
 55 57  1  0  0  0
 55134  1  0  0  0
 56 69  2  0  0  0
 57 58  2  0  0  0
 57135  1  0  0  0
 58136  1  0  0  0
 59 60  1  0  0  0
 59 61  1  0  0  0
 59 62  1  0  0  0
 60137  1  0  0  0
 60138  1  0  0  0
 60139  1  0  0  0
 61140  1  0  0  0
 61141  1  0  0  0
 61142  1  0  0  0
 62143  1  0  0  0
 62144  1  0  0  0
 62145  1  0  0  0
 63 65  1  0  0  0
 63146  1  0  0  0
 63147  1  0  0  0
 63148  1  0  0  0
 64149  1  0  0  0
 65150  1  0  0  0
 68 89  1  0  0  0
 71 72  1  0  0  0
 71 73  2  0  0  0
 71 77  1  0  0  0
 72 74  2  0  0  0
 72 83  1  0  0  0
 73 76  1  0  0  0
 73 89  1  0  0  0
 74 75  1  0  0  0
 74 84  1  0  0  0
 75 76  2  0  0  0
 75 85  1  0  0  0
 76 88  1  0  0  0
 77 78  1  0  0  0
 77151  1  0  0  0
 77152  1  0  0  0
 78 83  1  0  0  0
 78153  1  0  0  0
 78154  1  0  0  0
 79 80  1  0  0  0
 79 82  1  0  0  0
 79155  1  0  0  0
 79156  1  0  0  0
 80 91  1  0  0  0
 80157  1  0  0  0
 80158  1  0  0  0
 81 82  1  0  0  0
 81 91  1  0  0  0
 81159  1  0  0  0
 81160  1  0  0  0
 82 90  1  0  0  0
 82161  1  0  0  0
 83 86  1  0  0  0
 83 87  1  0  0  0
 84162  1  0  0  0
 84163  1  0  0  0
 84164  1  0  0  0
 85165  1  0  0  0
 85166  1  0  0  0
 85167  1  0  0  0
 86168  1  0  0  0
 86169  1  0  0  0
 86170  1  0  0  0
 87171  1  0  0  0
 87172  1  0  0  0
 87173  1  0  0  0
 88174  1  0  0  0
 88175  1  0  0  0
 88 91  1  0  0  0
 89176  1  0  0  0
 89177  1  0  0  0
 90178  1  0  0  0
 91179  1  0  0  0
M  CHG  1  91   1
M  ISO  4   1 100  68 101  89 101  90 100
M  END
> <chiral flag>
0

> <version>
0

> <s_m_source_file>
/data/baiqing/PycharmProjects/Reinvent-master-3.2/result/LINK_invent/BTK/process_docking_weight1_custom_sum_contain_oxygen_bond_distance_aromatic_linkinvent_7_9_3/rearranged_h_0168.sdf

> <i_m_source_file_index>
65

> <r_mmod_Potential_Energy-OPLS-2005>
311.634307861328

> <r_mmod_Stretch_Energy-OPLS-2005>
176.137145996094

> <r_mmod_Bend_Energy-OPLS-2005>
293.212738037109

> <r_mmod_Torsional_Energy-OPLS-2005>
346.46240234375

> <r_mmod_Improper_Torsional_Energy-OPLS-2005>
6.63753795623779

> <r_mmod_Van_der_Waal_Energy-OPLS-2005>
153.843246459961

> <r_mmod_Electrostatic_Energy-OPLS-2005>
-332.240325927734

> <r_mmod_Solvation_Energy-OPLS-2005>
-449.684204101562

> <b_mmod_Minimization_Converged-OPLS-2005>
0

> <r_mmod_RMS_Derivative-OPLS-2005>
5.59989547729492

$$$$
65
                    3D
 Structure written by MMmdl.
170179  0  0  1  0            999 V2000
  -30.6411  -14.7860   20.3175 C   0  0  0  0  0  0
  -30.4415  -12.4634   19.4432 C   0  0  0  0  0  0
  -29.4868  -12.3298   18.2348 C   0  0  0  0  0  0
  -28.0149  -12.2537   18.6673 C   0  0  0  0  0  0
  -27.6320  -13.2265   19.8159 C   0  0  2  0  0  0
  -28.6976  -13.2482   20.9289 C   0  0  0  0  0  0
  -25.2515  -13.8214   20.5723 C   0  0  0  0  0  0
  -24.1804  -13.0473   20.9239 C   0  0  0  0  0  0
  -24.6385  -11.6941   20.8807 C   0  0  0  0  0  0
  -23.9060  -10.4315   21.0454 C   0  0  0  0  0  0
  -24.3613   -9.4209   21.9212 C   0  0  0  0  0  0
  -23.6284   -8.2241   22.0771 C   0  0  0  0  0  0
  -22.4269   -8.0286   21.3552 C   0  0  0  0  0  0
  -21.9917   -9.0265   20.4657 C   0  0  0  0  0  0
  -22.7246  -10.2145   20.3077 C   0  0  0  0  0  0
  -21.6854   -6.0731   22.5278 C   0  0  0  0  0  0
  -21.4018   -6.5631   23.8210 C   0  0  0  0  0  0
  -21.3667   -5.6785   24.9175 C   0  0  0  0  0  0
  -21.6046   -4.3047   24.7230 C   0  0  0  0  0  0
  -21.8812   -3.8140   23.4352 C   0  0  0  0  0  0
  -21.9195   -4.6957   22.3406 C   0  0  0  0  0  0
  -22.7817  -13.5244   21.1869 C   0  0  0  0  0  0
  -22.1666   -4.2139   21.0982 F   0  0  0  0  0  0
  -21.5638   -3.4535   25.7744 F   0  0  0  0  0  0
  -29.9732  -13.5833   20.2853 N   0  0  0  0  0  0
  -26.2933  -12.9424   20.3266 N   0  0  0  0  0  0
  -25.9309  -11.6582   20.5838 N   0  0  0  0  0  0
  -22.0438  -12.8226   22.0394 N   0  0  0  0  0  0
  -25.4227  -15.1930   20.4090 N   0  0  0  0  0  0
  -31.8703  -14.7910   20.3520 O   0  0  0  0  0  0
  -21.6644   -6.8879   21.4241 O   0  0  0  0  0  0
  -22.3517  -14.5560   20.6717 O   0  0  0  0  0  0
  -24.6298  -31.8560   23.2003 C   0  0  0  0  0  0
  -25.9121  -32.4768   23.8360 C   0  0  1  0  0  0
  -27.2190  -27.2813   20.1394 C   0  0  0  0  0  0
  -25.5923  -33.8566   24.2286 N   0  0  0  0  0  0
  -23.4277  -30.4792   21.5438 C   0  0  2  0  0  0
  -24.8734  -28.9240   20.1156 C   0  0  0  0  0  0
  -22.7495  -29.4616   22.4924 C   0  0  0  0  0  0
  -18.0273  -28.1384   22.8475 C   0  0  0  0  0  0
  -24.1489  -36.7314   23.2653 C   0  0  0  0  0  0
  -25.9707  -30.7794   21.3730 C   0  0  0  0  0  0
  -26.0465  -29.4013   20.7174 C   0  0  0  0  0  0
  -27.2265  -28.5935   20.7146 C   0  0  0  0  0  0
  -26.0278  -26.8629   19.5119 C   0  0  0  0  0  0
  -24.8663  -27.6606   19.5034 C   0  0  0  0  0  0
  -23.6465  -29.8128   20.1597 C   0  0  0  0  0  0
  -25.4104  -36.3088   24.0344 C   0  0  1  0  0  0
  -20.5884  -28.3704   23.1252 C   0  0  2  0  0  0
  -20.6773  -26.9423   22.5404 C   0  0  0  0  0  0
  -19.5758  -26.6379   21.5199 C   0  0  0  0  0  0
  -18.1925  -26.7922   22.1600 C   0  0  0  0  0  0
  -19.1531  -28.8853   23.2864 C   0  0  0  0  0  0
  -18.9463  -30.1449   23.8888 C   0  0  0  0  0  0
  -17.6474  -30.6591   24.0551 C   0  0  0  0  0  0
  -25.9039  -34.9447   23.5116 C   0  0  0  0  0  0
  -16.5357  -29.9097   23.6329 C   0  0  0  0  0  0
  -16.7258  -28.6503   23.0354 C   0  0  0  0  0  0
  -26.4498  -31.6576   25.0742 C   0  0  0  0  0  0
  -25.3728  -31.3677   26.1467 C   0  0  0  0  0  0
  -27.0362  -30.3008   24.6207 C   0  0  0  0  0  0
  -27.6050  -32.4324   25.7514 C   0  0  0  0  0  0
  -27.5577  -37.1810   24.8464 C   0  0  0  0  0  0
  -21.4200  -29.3054   22.3656 N   0  0  0  0  0  0
  -26.4292  -37.3777   23.9403 N   0  0  0  0  0  0
  -24.6962  -31.0541   22.0968 N   0  0  0  0  0  0
  -23.4189  -28.8150   23.3023 O   0  0  0  0  0  0
  -28.3113  -26.3946   20.1631 O   0  0  0  0  0  0
  -26.5622  -34.8921   22.4689 O   0  0  0  0  0  0
  -23.5457  -32.1369   23.7309 O   0  0  0  0  0  0
  -29.1261  -19.6583   20.2272 C   0  0  0  0  0  0
  -30.3984  -18.9614   16.5963 C   0  0  0  0  0  0
  -28.7052  -17.2292   17.1203 C   0  0  0  0  0  0
  -30.2033  -19.5848   17.9733 C   0  0  0  0  0  0
  -28.3032  -18.0395   18.3852 C   0  0  0  0  0  0
  -30.1985  -17.4695   16.7516 C   0  0  2  0  0  0
  -30.5251  -17.2522   19.3026 C   0  0  2  0  0  0
  -29.5672  -18.6205   19.0638 C   0  0  2  0  0  0
  -31.1603  -16.9137   17.8548 C   0  0  0  0  0  0
  -31.3514  -15.4447   17.4191 C   0  0  0  0  0  0
  -32.6013  -17.4846   17.7530 C   0  0  0  0  0  0
  -28.6866  -23.6917   19.9761 C   0  0  0  0  0  0
  -28.5420  -22.2424   20.6971 C   0  0  0  0  0  0
  -28.0929  -25.0089   20.6949 C   0  0  0  0  0  0
  -29.0615  -21.0232   19.9564 N   0  0  0  0  0  0
  -29.9612  -15.9408   19.9239 N   0  0  0  0  0  0
  -28.7883  -19.2207   21.3272 O   0  0  0  0  0  0
  -31.4604  -12.6232   19.0843 H   0  0  0  0  0  0
  -30.4651  -11.5410   20.0249 H   0  0  0  0  0  0
  -29.7400  -11.4220   17.6834 H   0  0  0  0  0  0
  -29.6004  -13.1208   17.5084 H   0  0  0  0  0  0
  -27.8502  -11.2258   18.9928 H   0  0  0  0  0  0
  -27.3600  -12.4072   17.8087 H   0  0  0  0  0  0
  -27.6028  -14.2189   19.3664 H   0  0  0  0  0  0
  -28.7592  -12.2828   21.4331 H   0  0  0  0  0  0
  -28.4458  -13.9917   21.6861 H   0  0  0  0  0  0
  -25.2766   -9.5672   22.4787 H   0  0  0  0  0  0
  -23.9988   -7.4628   22.7486 H   0  0  0  0  0  0
  -21.0864   -8.8794   19.8946 H   0  0  0  0  0  0
  -22.3735  -10.9686   19.6175 H   0  0  0  0  0  0
  -21.2009   -7.6139   23.9712 H   0  0  0  0  0  0
  -21.1501   -6.0523   25.9073 H   0  0  0  0  0  0
  -22.0590   -2.7600   23.2859 H   0  0  0  0  0  0
  -22.4019  -11.9845   22.4735 H   0  0  0  0  0  0
  -21.1046  -13.1240   22.2555 H   0  0  0  0  0  0
  -24.6577  -15.8506   20.5156 H   0  0  0  0  0  0
  -26.2779  -15.6319   20.0973 H   0  0  0  0  0  0
  -26.7203  -32.5414   23.1127 H   0  0  0  0  0  0
  -25.0068  -33.9706   25.0439 H   0  0  0  0  0  0
  -22.7263  -31.3029   21.3962 H   0  0  0  0  0  0
  -23.3756  -35.9645   23.3308 H   0  0  0  0  0  0
  -24.3583  -36.8951   22.2073 H   0  0  0  0  0  0
  -23.7247  -37.6512   23.6689 H   0  0  0  0  0  0
  -26.1014  -31.5414   20.6036 H   0  0  0  0  0  0
  -26.8523  -30.8332   22.0004 H   0  0  0  0  0  0
  -28.1295  -28.9532   21.1908 H   0  0  0  0  0  0
  -25.9870  -25.8918   19.0387 H   0  0  0  0  0  0
  -23.9669  -27.2822   19.0366 H   0  0  0  0  0  0
  -23.7787  -30.5900   19.4062 H   0  0  0  0  0  0
  -22.7627  -29.2550   19.8484 H   0  0  0  0  0  0
  -25.1291  -36.1958   25.0845 H   0  0  0  0  0  0
  -20.9965  -28.3296   24.1374 H   0  0  0  0  0  0
  -20.5662  -26.2326   23.3623 H   0  0  0  0  0  0
  -21.6644  -26.7433   22.1215 H   0  0  0  0  0  0
  -19.6929  -25.6287   21.1239 H   0  0  0  0  0  0
  -19.6686  -27.3186   20.6734 H   0  0  0  0  0  0
  -17.4200  -26.6655   21.4007 H   0  0  0  0  0  0
  -18.0317  -26.0069   22.9002 H   0  0  0  0  0  0
  -19.7957  -30.7241   24.2280 H   0  0  0  0  0  0
  -17.5038  -31.6266   24.5169 H   0  0  0  0  0  0
  -15.5370  -30.2998   23.7663 H   0  0  0  0  0  0
  -15.8650  -28.0819   22.7096 H   0  0  0  0  0  0
  -24.5929  -30.7004   25.7793 H   0  0  0  0  0  0
  -24.8893  -32.2810   26.4934 H   0  0  0  0  0  0
  -25.8074  -30.8835   27.0222 H   0  0  0  0  0  0
  -26.2939  -29.6700   24.1307 H   0  0  0  0  0  0
  -27.4156  -29.7318   25.4711 H   0  0  0  0  0  0
  -27.8759  -30.4326   23.9377 H   0  0  0  0  0  0
  -27.2685  -33.3642   26.2072 H   0  0  0  0  0  0
  -28.3871  -32.6845   25.0338 H   0  0  0  0  0  0
  -28.0713  -31.8454   26.5447 H   0  0  0  0  0  0
  -28.2588  -38.0119   24.7528 H   0  0  0  0  0  0
  -28.1088  -36.2648   24.6281 H   0  0  0  0  0  0
  -27.2291  -37.1444   25.8868 H   0  0  0  0  0  0
  -20.9411  -29.8799   21.6864 H   0  0  0  0  0  0
  -26.0182  -38.2859   24.1396 H   0  0  0  0  0  0
  -31.3753  -19.2153   16.1845 H   0  0  0  0  0  0
  -29.6713  -19.3556   15.8841 H   0  0  0  0  0  0
  -28.0645  -17.5145   16.2836 H   0  0  0  0  0  0
  -28.5174  -16.1676   17.2824 H   0  0  0  0  0  0
  -29.5748  -20.4415   17.7313 H   0  0  0  0  0  0
  -31.1390  -20.0025   18.3448 H   0  0  0  0  0  0
  -27.7436  -17.4117   19.0776 H   0  0  0  0  0  0
  -27.6219  -18.8442   18.1029 H   0  0  0  0  0  0
  -30.4001  -17.0197   15.7781 H   0  0  0  0  0  0
  -31.3276  -17.5531   19.9771 H   0  0  0  0  0  0
  -30.4046  -14.9337   17.4573 H   0  0  0  0  0  0
  -32.0958  -14.8943   17.9877 H   0  0  0  0  0  0
  -31.7010  -15.3742   16.3884 H   0  0  0  0  0  0
  -32.6944  -18.5099   18.1023 H   0  0  0  0  0  0
  -32.9724  -17.4556   16.7269 H   0  0  0  0  0  0
  -33.2956  -16.8976   18.3548 H   0  0  0  0  0  0
  -28.2346  -23.6277   18.9857 H   0  0  0  0  0  0
  -29.7468  -23.8739   19.7981 H   0  0  0  0  0  0
  -27.4872  -22.0628   20.9102 H   0  0  0  0  0  0
  -29.0307  -22.2829   21.6717 H   0  0  0  0  0  0
  -28.5277  -25.0264   21.6935 H   0  0  0  0  0  0
  -27.0301  -24.8409   20.8718 H   0  0  0  0  0  0
  -29.3764  -21.2367   19.0181 H   0  0  0  0  0  0
  -28.9615  -15.8377   19.8610 H   0  0  0  0  0  0
  1 25  1  0  0  0
  1 30  2  0  0  0
  1 86  1  0  0  0
  2  3  1  0  0  0
  2 25  1  0  0  0
  2 88  1  0  0  0
  2 89  1  0  0  0
  3  4  1  0  0  0
  3 90  1  0  0  0
  3 91  1  0  0  0
  4  5  1  0  0  0
  4 92  1  0  0  0
  4 93  1  0  0  0
  5  6  1  0  0  0
  5 26  1  0  0  0
  5 94  1  0  0  0
  6 25  1  0  0  0
  6 95  1  0  0  0
  6 96  1  0  0  0
  7  8  2  0  0  0
  7 26  1  0  0  0
  7 29  1  0  0  0
  8  9  1  0  0  0
  8 22  1  0  0  0
  9 10  1  0  0  0
  9 27  2  0  0  0
 10 11  2  0  0  0
 10 15  1  0  0  0
 11 12  1  0  0  0
 11 97  1  0  0  0
 12 13  2  0  0  0
 12 98  1  0  0  0
 13 14  1  0  0  0
 13 31  1  0  0  0
 14 15  2  0  0  0
 14 99  1  0  0  0
 15100  1  0  0  0
 16 17  2  0  0  0
 16 21  1  0  0  0
 16 31  1  0  0  0
 17 18  1  0  0  0
 17101  1  0  0  0
 18 19  2  0  0  0
 18102  1  0  0  0
 19 20  1  0  0  0
 19 24  1  0  0  0
 20 21  2  0  0  0
 20103  1  0  0  0
 21 23  1  0  0  0
 22 28  1  0  0  0
 22 32  2  0  0  0
 26 27  1  0  0  0
 28104  1  0  0  0
 28105  1  0  0  0
 29106  1  0  0  0
 29107  1  0  0  0
 33 34  1  0  0  0
 33 66  1  0  0  0
 33 70  2  0  0  0
 34 36  1  0  0  0
 34 59  1  0  0  0
 34108  1  0  0  0
 35 44  2  0  0  0
 35 45  1  0  0  0
 35 68  1  0  0  0
 36 56  1  0  0  0
 36109  1  0  0  0
 37 39  1  0  0  0
 37 47  1  0  0  0
 37 66  1  0  0  0
 37110  1  0  0  0
 38 43  2  0  0  0
 38 46  1  0  0  0
 38 47  1  0  0  0
 39 64  1  0  0  0
 39 67  2  0  0  0
 40 52  1  0  0  0
 40 53  2  0  0  0
 40 58  1  0  0  0
 41111  1  0  0  0
 41112  1  0  0  0
 41113  1  0  0  0
 41 48  1  0  0  0
 42 43  1  0  0  0
 42 66  1  0  0  0
 42114  1  0  0  0
 42115  1  0  0  0
 43 44  1  0  0  0
 44116  1  0  0  0
 45 46  2  0  0  0
 45117  1  0  0  0
 46118  1  0  0  0
 47119  1  0  0  0
 47120  1  0  0  0
 48 56  1  0  0  0
 48 65  1  0  0  0
 48121  1  0  0  0
 49 50  1  0  0  0
 49 53  1  0  0  0
 49 64  1  0  0  0
 49122  1  0  0  0
 50 51  1  0  0  0
 50123  1  0  0  0
 50124  1  0  0  0
 51 52  1  0  0  0
 51125  1  0  0  0
 51126  1  0  0  0
 52127  1  0  0  0
 52128  1  0  0  0
 53 54  1  0  0  0
 54 55  2  0  0  0
 54129  1  0  0  0
 55 57  1  0  0  0
 55130  1  0  0  0
 56 69  2  0  0  0
 57 58  2  0  0  0
 57131  1  0  0  0
 58132  1  0  0  0
 59 60  1  0  0  0
 59 61  1  0  0  0
 59 62  1  0  0  0
 60133  1  0  0  0
 60134  1  0  0  0
 60135  1  0  0  0
 61136  1  0  0  0
 61137  1  0  0  0
 61138  1  0  0  0
 62139  1  0  0  0
 62140  1  0  0  0
 62141  1  0  0  0
 63 65  1  0  0  0
 63142  1  0  0  0
 63143  1  0  0  0
 63144  1  0  0  0
 64145  1  0  0  0
 65146  1  0  0  0
 68 84  1  0  0  0
 71 85  1  0  0  0
 71 87  2  0  0  0
 71 78  1  0  0  0
 72 74  1  0  0  0
 72147  1  0  0  0
 72148  1  0  0  0
 72 76  1  0  0  0
 73 75  1  0  0  0
 73 76  1  0  0  0
 73149  1  0  0  0
 73150  1  0  0  0
 74 78  1  0  0  0
 74151  1  0  0  0
 74152  1  0  0  0
 75 78  1  0  0  0
 75153  1  0  0  0
 75154  1  0  0  0
 76 79  1  0  0  0
 76155  1  0  0  0
 77 78  1  0  0  0
 77 79  1  0  0  0
 77 86  1  0  0  0
 77156  1  0  0  0
 79 80  1  0  0  0
 79 81  1  0  0  0
 80157  1  0  0  0
 80158  1  0  0  0
 80159  1  0  0  0
 81160  1  0  0  0
 81161  1  0  0  0
 81162  1  0  0  0
 82 83  1  0  0  0
 82 84  1  0  0  0
 82163  1  0  0  0
 82164  1  0  0  0
 83 85  1  0  0  0
 83165  1  0  0  0
 83166  1  0  0  0
 84167  1  0  0  0
 84168  1  0  0  0
 85169  1  0  0  0
 86170  1  0  0  0
M  ISO  4   1 100  68 101  84 101  86 100
M  END
> <chiral flag>
0

> <version>
0

> <s_m_source_file>
/data/baiqing/PycharmProjects/Reinvent-master-3.2/result/LINK_invent/BTK/process_docking_weight1_custom_sum_contain_oxygen_bond_distance_aromatic_linkinvent_7_9_3/rearranged_h_0168.sdf

> <i_m_source_file_index>
66

> <r_mmod_Potential_Energy-OPLS-2005>
388.714477539062

> <r_mmod_Stretch_Energy-OPLS-2005>
165.704971313477

> <r_mmod_Bend_Energy-OPLS-2005>
232.053024291992

> <r_mmod_Torsional_Energy-OPLS-2005>
336.807739257812

> <r_mmod_Improper_Torsional_Energy-OPLS-2005>
11.0174713134766

> <r_mmod_Van_der_Waal_Energy-OPLS-2005>
177.702697753906

> <r_mmod_Electrostatic_Energy-OPLS-2005>
-427.289215087891

> <r_mmod_Solvation_Energy-OPLS-2005>
-223.323120117188

> <b_mmod_Minimization_Converged-OPLS-2005>
0

> <r_mmod_RMS_Derivative-OPLS-2005>
2.90563750267029

$$$$
66
                    3D
 Structure written by MMmdl.
178187  0  0  1  0            999 V2000
  -30.6882  -14.4738   20.6483 C   0  0  0  0  0  0
  -30.4200  -12.3393   19.4298 C   0  0  0  0  0  0
  -29.4990  -12.5524   18.2111 C   0  0  0  0  0  0
  -28.0184  -12.3921   18.6094 C   0  0  0  0  0  0
  -27.6550  -13.2143   19.8742 C   0  0  2  0  0  0
  -28.6843  -12.9830   21.0002 C   0  0  0  0  0  0
  -25.2534  -13.8133   20.5607 C   0  0  0  0  0  0
  -24.1784  -13.0397   20.9156 C   0  0  0  0  0  0
  -24.6363  -11.6892   20.8685 C   0  0  0  0  0  0
  -23.9033  -10.4285   21.0384 C   0  0  0  0  0  0
  -24.3588   -9.4219   21.9179 C   0  0  0  0  0  0
  -23.6273   -8.2241   22.0740 C   0  0  0  0  0  0
  -22.4265   -8.0277   21.3518 C   0  0  0  0  0  0
  -21.9916   -9.0219   20.4581 C   0  0  0  0  0  0
  -22.7235  -10.2110   20.2998 C   0  0  0  0  0  0
  -21.6853   -6.0728   22.5271 C   0  0  0  0  0  0
  -21.4012   -6.5608   23.8214 C   0  0  0  0  0  0
  -21.3669   -5.6748   24.9161 C   0  0  0  0  0  0
  -21.6066   -4.3016   24.7206 C   0  0  0  0  0  0
  -21.8825   -3.8126   23.4316 C   0  0  0  0  0  0
  -21.9208   -4.6954   22.3390 C   0  0  0  0  0  0
  -22.7819  -13.5203   21.1832 C   0  0  0  0  0  0
  -22.1685   -4.2152   21.0961 F   0  0  0  0  0  0
  -21.5635   -3.4502   25.7710 F   0  0  0  0  0  0
  -30.0206  -13.3023   20.4693 N   0  0  0  0  0  0
  -26.2956  -12.9324   20.3277 N   0  0  0  0  0  0
  -25.9284  -11.6473   20.5662 N   0  0  0  0  0  0
  -22.0494  -12.8238   22.0476 N   0  0  0  0  0  0
  -25.4269  -15.1818   20.3977 N   0  0  0  0  0  0
  -31.7835  -14.6995   20.1205 O   0  0  0  0  0  0
  -21.6628   -6.8879   21.4237 O   0  0  0  0  0  0
  -22.3461  -14.5468   20.6657 O   0  0  0  0  0  0
  -24.6161  -31.8664   23.2070 C   0  0  0  0  0  0
  -25.9085  -32.4794   23.8337 C   0  0  1  0  0  0
  -27.2428  -27.4383   20.1172 C   0  0  0  0  0  0
  -25.5969  -33.8573   24.2281 N   0  0  0  0  0  0
  -23.4026  -30.4854   21.5484 C   0  0  2  0  0  0
  -24.8562  -28.9494   20.1211 C   0  0  0  0  0  0
  -22.7430  -29.4606   22.4990 C   0  0  0  0  0  0
  -18.0254  -28.1323   22.8466 C   0  0  0  0  0  0
  -24.1497  -36.7297   23.2620 C   0  0  0  0  0  0
  -25.9365  -30.8310   21.3663 C   0  0  0  0  0  0
  -26.0155  -29.4692   20.7095 C   0  0  0  0  0  0
  -27.2132  -28.7241   20.6968 C   0  0  0  0  0  0
  -26.0650  -26.9296   19.5242 C   0  0  0  0  0  0
  -24.8730  -27.6752   19.5258 C   0  0  0  0  0  0
  -23.6175  -29.8082   20.1670 C   0  0  0  0  0  0
  -25.4125  -36.3059   24.0296 C   0  0  1  0  0  0
  -20.5835  -28.3637   23.1375 C   0  0  2  0  0  0
  -20.6751  -26.9337   22.5555 C   0  0  0  0  0  0
  -19.5783  -26.6328   21.5276 C   0  0  0  0  0  0
  -18.1939  -26.7831   22.1670 C   0  0  0  0  0  0
  -19.1494  -28.8810   23.2848 C   0  0  0  0  0  0
  -18.9435  -30.1442   23.8783 C   0  0  0  0  0  0
  -17.6437  -30.6542   24.0500 C   0  0  0  0  0  0
  -25.9066  -34.9436   23.5072 C   0  0  0  0  0  0
  -16.5318  -29.9014   23.6288 C   0  0  0  0  0  0
  -16.7231  -28.6426   23.0300 C   0  0  0  0  0  0
  -26.4502  -31.6592   25.0671 C   0  0  0  0  0  0
  -25.3739  -31.3805   26.1407 C   0  0  0  0  0  0
  -27.0391  -30.3008   24.6159 C   0  0  0  0  0  0
  -27.6031  -32.4345   25.7460 C   0  0  0  0  0  0
  -27.5579  -37.1814   24.8441 C   0  0  0  0  0  0
  -21.4136  -29.2983   22.3781 N   0  0  0  0  0  0
  -26.4294  -37.3770   23.9374 N   0  0  0  0  0  0
  -24.6682  -31.0776   22.0964 N   0  0  0  0  0  0
  -23.4233  -28.8128   23.2983 O   0  0  0  0  0  0
  -28.4045  -26.6993   20.1606 O   0  0  0  0  0  0
  -26.5609  -34.8902   22.4620 O   0  0  0  0  0  0
  -23.5376  -32.1365   23.7528 O   0  0  0  0  0  0
  -25.9725  -18.0238   22.3927 C   0  0  0  0  0  0
  -27.4142  -16.7102   23.8449 C   0  0  0  0  0  0
  -27.2639  -17.7148   22.8682 C   0  0  0  0  0  0
  -24.8422  -17.3377   22.8907 C   0  0  0  0  0  0
  -25.0018  -16.3304   23.8767 C   0  0  0  0  0  0
  -26.2958  -16.0235   24.3490 C   0  0  0  0  0  0
  -29.8369  -19.2892   21.0217 C   0  0  0  0  0  0
  -28.5106  -18.4589   22.4060 C   0  0  1  0  0  0
  -29.4025  -17.8396   21.3018 C   0  0  2  0  0  0
  -28.4996  -19.7892   21.5958 C   0  0  1  0  0  0
  -23.4743  -17.6953   22.3417 C   0  0  0  0  0  0
  -23.8061  -15.5691   24.4313 C   0  0  0  0  0  0
  -27.1137  -21.3431   23.0690 C   0  0  0  0  0  0
  -30.4896  -16.7946   21.6301 C   0  0  0  0  0  0
  -29.4724  -24.7612   21.2324 C   0  0  0  0  0  0
  -29.2060  -23.5221   22.1332 C   0  0  0  0  0  0
  -28.2339  -25.3148   20.4933 C   0  0  0  0  0  0
  -28.4573  -21.1448   22.3320 C   0  0  2  0  0  0
  -30.0448  -15.4136   21.3745 N   0  0  0  0  0  0
  -28.7465  -22.2928   21.4226 N   0  3  0  0  0  0
  -26.4715  -15.0682   25.2936 F   0  0  0  0  0  0
  -31.4647  -12.4568   19.1339 H   0  0  0  0  0  0
  -30.3284  -11.3216   19.8093 H   0  0  0  0  0  0
  -29.7572  -11.8538   17.4147 H   0  0  0  0  0  0
  -29.6598  -13.5537   17.8088 H   0  0  0  0  0  0
  -27.8320  -11.3341   18.7893 H   0  0  0  0  0  0
  -27.3753  -12.6805   17.7765 H   0  0  0  0  0  0
  -27.6981  -14.2671   19.5937 H   0  0  0  0  0  0
  -28.6574  -11.9428   21.3228 H   0  0  0  0  0  0
  -28.4188  -13.5649   21.8835 H   0  0  0  0  0  0
  -25.2722   -9.5708   22.4776 H   0  0  0  0  0  0
  -23.9984   -7.4640   22.7463 H   0  0  0  0  0  0
  -21.0886   -8.8702   19.8845 H   0  0  0  0  0  0
  -22.3713  -10.9625   19.6071 H   0  0  0  0  0  0
  -21.1973   -7.6109   23.9727 H   0  0  0  0  0  0
  -21.1504   -6.0455   25.9075 H   0  0  0  0  0  0
  -22.0604   -2.7596   23.2790 H   0  0  0  0  0  0
  -22.4177  -12.0046   22.5073 H   0  0  0  0  0  0
  -21.1078  -13.1237   22.2604 H   0  0  0  0  0  0
  -24.6963  -15.8428   20.6383 H   0  0  0  0  0  0
  -26.3115  -15.6305   20.1991 H   0  0  0  0  0  0
  -26.7169  -32.5504   23.1129 H   0  0  0  0  0  0
  -25.0218  -33.9697   25.0502 H   0  0  0  0  0  0
  -22.6825  -31.2942   21.4006 H   0  0  0  0  0  0
  -23.3743  -35.9649   23.3289 H   0  0  0  0  0  0
  -24.3561  -36.8920   22.2025 H   0  0  0  0  0  0
  -23.7294  -37.6518   23.6645 H   0  0  0  0  0  0
  -26.0613  -31.5968   20.6000 H   0  0  0  0  0  0
  -26.8214  -30.8724   21.9919 H   0  0  0  0  0  0
  -28.1082  -29.1146   21.1613 H   0  0  0  0  0  0
  -26.0625  -25.9501   19.0685 H   0  0  0  0  0  0
  -23.9804  -27.2584   19.0780 H   0  0  0  0  0  0
  -23.7383  -30.5709   19.3979 H   0  0  0  0  0  0
  -22.7468  -29.2208   19.8690 H   0  0  0  0  0  0
  -25.1332  -36.1887   25.0795 H   0  0  0  0  0  0
  -20.9843  -28.3251   24.1552 H   0  0  0  0  0  0
  -20.5537  -26.2278   23.3765 H   0  0  0  0  0  0
  -21.6663  -26.7267   22.1523 H   0  0  0  0  0  0
  -19.6966  -25.6253   21.1279 H   0  0  0  0  0  0
  -19.6818  -27.3189   20.6856 H   0  0  0  0  0  0
  -17.4260  -26.6481   21.4030 H   0  0  0  0  0  0
  -18.0321  -25.9973   22.9087 H   0  0  0  0  0  0
  -19.7910  -30.7265   24.2107 H   0  0  0  0  0  0
  -17.5009  -31.6210   24.5140 H   0  0  0  0  0  0
  -15.5322  -30.2906   23.7631 H   0  0  0  0  0  0
  -15.8664  -28.0675   22.7030 H   0  0  0  0  0  0
  -24.5827  -30.7266   25.7729 H   0  0  0  0  0  0
  -24.9086  -32.3062   26.4798 H   0  0  0  0  0  0
  -25.8046  -30.8954   27.0171 H   0  0  0  0  0  0
  -26.3018  -29.6711   24.1191 H   0  0  0  0  0  0
  -27.4091  -29.7282   25.4674 H   0  0  0  0  0  0
  -27.8828  -30.4258   23.9366 H   0  0  0  0  0  0
  -27.2572  -33.3580   26.2097 H   0  0  0  0  0  0
  -28.3833  -32.7042   25.0330 H   0  0  0  0  0  0
  -28.0717  -31.8463   26.5361 H   0  0  0  0  0  0
  -28.2612  -38.0103   24.7501 H   0  0  0  0  0  0
  -28.1071  -36.2641   24.6289 H   0  0  0  0  0  0
  -27.2254  -37.1462   25.8828 H   0  0  0  0  0  0
  -20.9282  -29.8745   21.7060 H   0  0  0  0  0  0
  -26.0160  -38.2817   24.1445 H   0  0  0  0  0  0
  -25.8424  -18.7957   21.6477 H   0  0  0  0  0  0
  -28.3945  -16.4674   24.2267 H   0  0  0  0  0  0
  -30.0087  -19.5073   19.9663 H   0  0  0  0  0  0
  -30.6910  -19.5913   21.6344 H   0  0  0  0  0  0
  -29.1079  -18.6190   23.3052 H   0  0  0  0  0  0
  -28.7824  -17.5068   20.4665 H   0  0  0  0  0  0
  -27.7540  -19.7528   20.7973 H   0  0  0  0  0  0
  -23.5688  -18.3134   21.4469 H   0  0  0  0  0  0
  -22.8840  -18.2472   23.0750 H   0  0  0  0  0  0
  -22.9281  -16.7976   22.0546 H   0  0  0  0  0  0
  -23.3131  -14.9998   23.6458 H   0  0  0  0  0  0
  -23.0870  -16.2553   24.8797 H   0  0  0  0  0  0
  -24.0946  -14.8584   25.2064 H   0  0  0  0  0  0
  -26.9062  -20.5064   23.7379 H   0  0  0  0  0  0
  -26.2735  -21.4249   22.3764 H   0  0  0  0  0  0
  -27.1186  -22.2411   23.6848 H   0  0  0  0  0  0
  -30.7828  -16.8780   22.6779 H   0  0  0  0  0  0
  -31.3939  -17.0186   21.0608 H   0  0  0  0  0  0
  -29.8646  -25.5482   21.8834 H   0  0  0  0  0  0
  -30.2755  -24.5559   20.5238 H   0  0  0  0  0  0
  -28.4865  -23.7986   22.9057 H   0  0  0  0  0  0
  -30.1241  -23.2778   22.6726 H   0  0  0  0  0  0
  -27.3536  -25.1786   21.1258 H   0  0  0  0  0  0
  -28.0580  -24.7535   19.5739 H   0  0  0  0  0  0
  -29.2446  -21.1287   23.0874 H   0  0  0  0  0  0
  -29.1460  -15.1550   21.7563 H   0  0  0  0  0  0
  -29.4766  -22.0219   20.7829 H   0  0  0  0  0  0
  -27.9230  -22.4757   20.8703 H   0  0  0  0  0  0
  1 25  1  0  0  0
  1 30  2  0  0  0
  1 89  1  0  0  0
  2  3  1  0  0  0
  2 25  1  0  0  0
  2 92  1  0  0  0
  2 93  1  0  0  0
  3  4  1  0  0  0
  3 94  1  0  0  0
  3 95  1  0  0  0
  4  5  1  0  0  0
  4 96  1  0  0  0
  4 97  1  0  0  0
  5  6  1  0  0  0
  5 26  1  0  0  0
  5 98  1  0  0  0
  6 25  1  0  0  0
  6 99  1  0  0  0
  6100  1  0  0  0
  7  8  2  0  0  0
  7 26  1  0  0  0
  7 29  1  0  0  0
  8  9  1  0  0  0
  8 22  1  0  0  0
  9 10  1  0  0  0
  9 27  2  0  0  0
 10 11  2  0  0  0
 10 15  1  0  0  0
 11 12  1  0  0  0
 11101  1  0  0  0
 12 13  2  0  0  0
 12102  1  0  0  0
 13 14  1  0  0  0
 13 31  1  0  0  0
 14 15  2  0  0  0
 14103  1  0  0  0
 15104  1  0  0  0
 16 17  2  0  0  0
 16 21  1  0  0  0
 16 31  1  0  0  0
 17 18  1  0  0  0
 17105  1  0  0  0
 18 19  2  0  0  0
 18106  1  0  0  0
 19 20  1  0  0  0
 19 24  1  0  0  0
 20 21  2  0  0  0
 20107  1  0  0  0
 21 23  1  0  0  0
 22 28  1  0  0  0
 22 32  2  0  0  0
 26 27  1  0  0  0
 28108  1  0  0  0
 28109  1  0  0  0
 29110  1  0  0  0
 29111  1  0  0  0
 33 34  1  0  0  0
 33 66  1  0  0  0
 33 70  2  0  0  0
 34 36  1  0  0  0
 34 59  1  0  0  0
 34112  1  0  0  0
 35 44  2  0  0  0
 35 45  1  0  0  0
 35 68  1  0  0  0
 36 56  1  0  0  0
 36113  1  0  0  0
 37 39  1  0  0  0
 37 47  1  0  0  0
 37 66  1  0  0  0
 37114  1  0  0  0
 38 43  2  0  0  0
 38 46  1  0  0  0
 38 47  1  0  0  0
 39 64  1  0  0  0
 39 67  2  0  0  0
 40 52  1  0  0  0
 40 53  2  0  0  0
 40 58  1  0  0  0
 41115  1  0  0  0
 41116  1  0  0  0
 41117  1  0  0  0
 41 48  1  0  0  0
 42 43  1  0  0  0
 42 66  1  0  0  0
 42118  1  0  0  0
 42119  1  0  0  0
 43 44  1  0  0  0
 44120  1  0  0  0
 45 46  2  0  0  0
 45121  1  0  0  0
 46122  1  0  0  0
 47123  1  0  0  0
 47124  1  0  0  0
 48 56  1  0  0  0
 48 65  1  0  0  0
 48125  1  0  0  0
 49 50  1  0  0  0
 49 53  1  0  0  0
 49 64  1  0  0  0
 49126  1  0  0  0
 50 51  1  0  0  0
 50127  1  0  0  0
 50128  1  0  0  0
 51 52  1  0  0  0
 51129  1  0  0  0
 51130  1  0  0  0
 52131  1  0  0  0
 52132  1  0  0  0
 53 54  1  0  0  0
 54 55  2  0  0  0
 54133  1  0  0  0
 55 57  1  0  0  0
 55134  1  0  0  0
 56 69  2  0  0  0
 57 58  2  0  0  0
 57135  1  0  0  0
 58136  1  0  0  0
 59 60  1  0  0  0
 59 61  1  0  0  0
 59 62  1  0  0  0
 60137  1  0  0  0
 60138  1  0  0  0
 60139  1  0  0  0
 61140  1  0  0  0
 61141  1  0  0  0
 61142  1  0  0  0
 62143  1  0  0  0
 62144  1  0  0  0
 62145  1  0  0  0
 63 65  1  0  0  0
 63146  1  0  0  0
 63147  1  0  0  0
 63148  1  0  0  0
 64149  1  0  0  0
 65150  1  0  0  0
 68 87  1  0  0  0
 71 73  2  0  0  0
 71 74  1  0  0  0
 71151  1  0  0  0
 72 73  1  0  0  0
 72 76  2  0  0  0
 72152  1  0  0  0
 73 78  1  0  0  0
 74 75  2  0  0  0
 74 81  1  0  0  0
 75 76  1  0  0  0
 75 82  1  0  0  0
 76 91  1  0  0  0
 77 79  1  0  0  0
 77153  1  0  0  0
 77154  1  0  0  0
 77 80  1  0  0  0
 78 79  1  0  0  0
 78 80  1  0  0  0
 78155  1  0  0  0
 79 84  1  0  0  0
 79156  1  0  0  0
 80 88  1  0  0  0
 80157  1  0  0  0
 81158  1  0  0  0
 81159  1  0  0  0
 81160  1  0  0  0
 82161  1  0  0  0
 82162  1  0  0  0
 82163  1  0  0  0
 83164  1  0  0  0
 83165  1  0  0  0
 83166  1  0  0  0
 83 88  1  0  0  0
 84 89  1  0  0  0
 84167  1  0  0  0
 84168  1  0  0  0
 85 86  1  0  0  0
 85 87  1  0  0  0
 85169  1  0  0  0
 85170  1  0  0  0
 86 90  1  0  0  0
 86171  1  0  0  0
 86172  1  0  0  0
 87173  1  0  0  0
 87174  1  0  0  0
 88 90  1  0  0  0
 88175  1  0  0  0
 89176  1  0  0  0
 90177  1  0  0  0
 90178  1  0  0  0
M  CHG  1  90   1
M  ISO  4   1 100  68 101  87 101  89 100
M  END
> <chiral flag>
0

> <version>
0

> <s_m_source_file>
/data/baiqing/PycharmProjects/Reinvent-master-3.2/result/LINK_invent/BTK/process_docking_weight1_custom_sum_contain_oxygen_bond_distance_aromatic_linkinvent_7_9_3/rearranged_h_0168.sdf

> <i_m_source_file_index>
67

> <r_mmod_Potential_Energy-OPLS-2005>
-199.285659790039

> <r_mmod_Stretch_Energy-OPLS-2005>
39.3357963562012

> <r_mmod_Bend_Energy-OPLS-2005>
109.008010864258

> <r_mmod_Torsional_Energy-OPLS-2005>
251.682174682617

> <r_mmod_Improper_Torsional_Energy-OPLS-2005>
2.56671380996704

> <r_mmod_Van_der_Waal_Energy-OPLS-2005>
130.321670532227

> <r_mmod_Electrostatic_Energy-OPLS-2005>
-289.848175048828

> <r_mmod_Solvation_Energy-OPLS-2005>
-456.606964111328

> <b_mmod_Minimization_Converged-OPLS-2005>
0

> <r_mmod_RMS_Derivative-OPLS-2005>
5.32920598983765

$$$$
67
                    3D
 Structure written by MMmdl.
167176  0  0  1  0            999 V2000
  -30.6642  -14.4933   20.5774 C   0  0  0  0  0  0
  -30.4311  -12.3071   19.4448 C   0  0  0  0  0  0
  -29.5116  -12.5024   18.2217 C   0  0  0  0  0  0
  -28.0303  -12.3575   18.6260 C   0  0  0  0  0  0
  -27.6628  -13.1925   19.8798 C   0  0  2  0  0  0
  -28.7008  -12.9753   21.0060 C   0  0  0  0  0  0
  -25.2474  -13.7783   20.5448 C   0  0  0  0  0  0
  -24.1774  -13.0217   20.9166 C   0  0  0  0  0  0
  -24.6366  -11.6720   20.8745 C   0  0  0  0  0  0
  -23.8977  -10.4179   21.0410 C   0  0  0  0  0  0
  -24.3507   -9.4118   21.9213 C   0  0  0  0  0  0
  -23.6191   -8.2153   22.0765 C   0  0  0  0  0  0
  -22.4191   -8.0192   21.3539 C   0  0  0  0  0  0
  -21.9822   -9.0160   20.4657 C   0  0  0  0  0  0
  -22.7129  -10.2045   20.3069 C   0  0  0  0  0  0
  -21.6822   -6.0651   22.5259 C   0  0  0  0  0  0
  -21.3978   -6.5561   23.8179 C   0  0  0  0  0  0
  -21.3675   -5.6733   24.9159 C   0  0  0  0  0  0
  -21.6058   -4.2990   24.7229 C   0  0  0  0  0  0
  -21.8826   -3.8073   23.4347 C   0  0  0  0  0  0
  -21.9180   -4.6884   22.3396 C   0  0  0  0  0  0
  -22.7835  -13.5120   21.1799 C   0  0  0  0  0  0
  -22.1665   -4.2071   21.0971 F   0  0  0  0  0  0
  -21.5645   -3.4478   25.7745 F   0  0  0  0  0  0
  -30.0327  -13.2920   20.4666 N   0  0  0  0  0  0
  -26.3014  -12.9113   20.3327 N   0  0  0  0  0  0
  -25.9319  -11.6298   20.5802 N   0  0  0  0  0  0
  -22.0439  -12.8204   22.0371 N   0  0  0  0  0  0
  -25.3920  -15.1321   20.3411 N   0  0  0  0  0  0
  -31.7833  -14.7085   20.1042 O   0  0  0  0  0  0
  -21.6579   -6.8774   21.4215 O   0  0  0  0  0  0
  -22.3579  -14.5455   20.6640 O   0  0  0  0  0  0
  -24.6118  -31.8667   23.2059 C   0  0  0  0  0  0
  -25.9018  -32.4810   23.8361 C   0  0  1  0  0  0
  -27.2791  -27.4719   20.0886 C   0  0  0  0  0  0
  -25.5891  -33.8616   24.2305 N   0  0  0  0  0  0
  -23.4006  -30.4790   21.5479 C   0  0  2  0  0  0
  -24.8549  -28.9306   20.1288 C   0  0  0  0  0  0
  -22.7394  -29.4616   22.5033 C   0  0  0  0  0  0
  -18.0260  -28.1371   22.8505 C   0  0  0  0  0  0
  -24.1491  -36.7313   23.2639 C   0  0  0  0  0  0
  -25.9209  -30.8404   21.3520 C   0  0  0  0  0  0
  -26.0029  -29.4689   20.7162 C   0  0  0  0  0  0
  -27.2097  -28.7458   20.6914 C   0  0  0  0  0  0
  -26.1095  -26.9203   19.5213 C   0  0  0  0  0  0
  -24.8978  -27.6523   19.5360 C   0  0  0  0  0  0
  -23.6104  -29.7929   20.1688 C   0  0  0  0  0  0
  -25.4110  -36.3112   24.0340 C   0  0  1  0  0  0
  -20.5843  -28.3640   23.1347 C   0  0  2  0  0  0
  -20.6748  -26.9379   22.5440 C   0  0  0  0  0  0
  -19.5736  -26.6382   21.5222 C   0  0  0  0  0  0
  -18.1908  -26.7921   22.1627 C   0  0  0  0  0  0
  -19.1510  -28.8825   23.2921 C   0  0  0  0  0  0
  -18.9432  -30.1431   23.8930 C   0  0  0  0  0  0
  -17.6435  -30.6581   24.0562 C   0  0  0  0  0  0
  -25.9032  -34.9471   23.5110 C   0  0  0  0  0  0
  -16.5325  -29.9086   23.6319 C   0  0  0  0  0  0
  -16.7249  -28.6502   23.0340 C   0  0  0  0  0  0
  -26.4469  -31.6591   25.0676 C   0  0  0  0  0  0
  -25.3755  -31.3687   26.1428 C   0  0  0  0  0  0
  -27.0264  -30.3044   24.5993 C   0  0  0  0  0  0
  -27.6056  -32.4307   25.7442 C   0  0  0  0  0  0
  -27.5580  -37.1813   24.8461 C   0  0  0  0  0  0
  -21.4126  -29.3017   22.3787 N   0  0  0  0  0  0
  -26.4297  -37.3793   23.9395 N   0  0  0  0  0  0
  -24.6625  -31.0775   22.0967 N   0  0  0  0  0  0
  -23.4169  -28.8178   23.3081 O   0  0  0  0  0  0
  -28.5393  -26.9235   20.0175 O   0  0  0  0  0  0
  -26.5599  -34.8922   22.4681 O   0  0  0  0  0  0
  -23.5313  -32.1413   23.7478 O   0  0  0  0  0  0
  -29.2516  -20.3222   20.6857 C   0  0  0  0  0  0
  -28.5821  -19.0919   20.8916 C   0  0  0  0  0  0
  -28.5569  -21.4222   20.1152 C   0  0  0  0  0  0
  -27.2234  -19.0444   20.4980 C   0  0  0  0  0  0
  -27.2285  -21.2102   19.6819 C   0  0  0  0  0  0
  -28.2898  -24.7562   21.2391 C   0  0  0  0  0  0
  -28.7530  -24.7508   18.7258 C   0  0  0  0  0  0
  -29.0652  -23.4330   21.3856 C   0  0  0  0  0  0
  -29.4789  -23.3910   18.8685 C   0  0  0  0  0  0
  -28.8557  -25.5361   20.0467 C   0  0  0  0  0  0
  -26.2981  -17.9028   20.8102 C   0  0  0  0  0  0
  -26.3727  -22.2913   19.0497 C   0  0  0  0  0  0
  -29.2845  -17.9120   21.5953 C   0  0  0  0  0  0
  -29.9896  -16.9111   20.6327 C   0  0  0  0  0  0
  -26.5897  -20.0476   19.8697 N   0  0  0  0  0  0
  -29.1310  -22.7021   20.1163 N   0  0  0  0  0  0
  -29.8951  -15.4971   21.0488 N   0  0  0  0  0  0
  -31.4803  -12.4017   19.1579 H   0  0  0  0  0  0
  -30.3157  -11.2942   19.8351 H   0  0  0  0  0  0
  -29.7652  -11.7797   17.4439 H   0  0  0  0  0  0
  -29.6866  -13.4869   17.7853 H   0  0  0  0  0  0
  -27.8472  -11.3024   18.8252 H   0  0  0  0  0  0
  -27.3828  -12.6217   17.7899 H   0  0  0  0  0  0
  -27.6991  -14.2399   19.5796 H   0  0  0  0  0  0
  -28.6834  -11.9404   21.3511 H   0  0  0  0  0  0
  -28.4545  -13.5656   21.8886 H   0  0  0  0  0  0
  -25.2673   -9.5601   22.4754 H   0  0  0  0  0  0
  -23.9904   -7.4537   22.7483 H   0  0  0  0  0  0
  -21.0761   -8.8658   19.8961 H   0  0  0  0  0  0
  -22.3590  -10.9556   19.6131 H   0  0  0  0  0  0
  -21.1955   -7.6061   23.9647 H   0  0  0  0  0  0
  -21.1512   -6.0477   25.9051 H   0  0  0  0  0  0
  -22.0616   -2.7533   23.2862 H   0  0  0  0  0  0
  -22.4014  -11.9890   22.4807 H   0  0  0  0  0  0
  -21.1083  -13.1331   22.2558 H   0  0  0  0  0  0
  -24.5815  -15.7407   20.3669 H   0  0  0  0  0  0
  -26.2026  -15.5518   19.9096 H   0  0  0  0  0  0
  -26.7097  -32.5545   23.1134 H   0  0  0  0  0  0
  -25.0064  -33.9773   25.0465 H   0  0  0  0  0  0
  -22.6885  -31.2936   21.4005 H   0  0  0  0  0  0
  -23.3740  -35.9659   23.3321 H   0  0  0  0  0  0
  -24.3582  -36.8904   22.2047 H   0  0  0  0  0  0
  -23.7243  -37.6533   23.6631 H   0  0  0  0  0  0
  -26.0146  -31.5999   20.5741 H   0  0  0  0  0  0
  -26.8169  -30.9126   21.9578 H   0  0  0  0  0  0
  -28.1043  -29.1744   21.1205 H   0  0  0  0  0  0
  -26.1308  -25.9560   19.0407 H   0  0  0  0  0  0
  -24.0159  -27.2274   19.0789 H   0  0  0  0  0  0
  -23.7188  -30.5582   19.4004 H   0  0  0  0  0  0
  -22.7398  -29.2022   19.8789 H   0  0  0  0  0  0
  -25.1287  -36.1984   25.0836 H   0  0  0  0  0  0
  -20.9906  -28.3179   24.1473 H   0  0  0  0  0  0
  -20.5632  -26.2228   23.3605 H   0  0  0  0  0  0
  -21.6617  -26.7420   22.1238 H   0  0  0  0  0  0
  -19.6885  -25.6299   21.1230 H   0  0  0  0  0  0
  -19.6682  -27.3212   20.6764 H   0  0  0  0  0  0
  -17.4186  -26.6678   21.4020 H   0  0  0  0  0  0
  -18.0292  -26.0056   22.9019 H   0  0  0  0  0  0
  -19.7898  -30.7247   24.2313 H   0  0  0  0  0  0
  -17.4974  -31.6260   24.5151 H   0  0  0  0  0  0
  -15.5320  -30.2990   23.7603 H   0  0  0  0  0  0
  -15.8653  -28.0815   22.7027 H   0  0  0  0  0  0
  -24.5927  -30.7033   25.7750 H   0  0  0  0  0  0
  -24.8945  -32.2843   26.4881 H   0  0  0  0  0  0
  -25.8130  -30.8840   27.0162 H   0  0  0  0  0  0
  -26.2765  -29.6839   24.1063 H   0  0  0  0  0  0
  -27.4067  -29.7225   25.4397 H   0  0  0  0  0  0
  -27.8584  -30.4353   23.9069 H   0  0  0  0  0  0
  -27.2675  -33.3588   26.2047 H   0  0  0  0  0  0
  -28.3853  -32.6899   25.0272 H   0  0  0  0  0  0
  -28.0728  -31.8411   26.5331 H   0  0  0  0  0  0
  -28.2621  -38.0098   24.7502 H   0  0  0  0  0  0
  -28.1063  -36.2627   24.6303 H   0  0  0  0  0  0
  -27.2297  -37.1481   25.8871 H   0  0  0  0  0  0
  -20.9293  -29.8754   21.7025 H   0  0  0  0  0  0
  -26.0188  -38.2878   24.1404 H   0  0  0  0  0  0
  -30.2739  -20.4390   21.0169 H   0  0  0  0  0  0
  -28.4015  -25.3355   22.1571 H   0  0  0  0  0  0
  -27.2200  -24.5842   21.1277 H   0  0  0  0  0  0
  -27.7212  -24.6115   18.4233 H   0  0  0  0  0  0
  -29.2209  -25.3216   17.9213 H   0  0  0  0  0  0
  -28.5992  -22.8223   22.1614 H   0  0  0  0  0  0
  -30.0793  -23.6366   21.7267 H   0  0  0  0  0  0
  -30.5559  -23.5649   18.8786 H   0  0  0  0  0  0
  -29.2884  -22.7585   18.0006 H   0  0  0  0  0  0
  -29.9286  -25.5928   20.2405 H   0  0  0  0  0  0
  -26.8349  -17.0148   21.1215 H   0  0  0  0  0  0
  -25.7106  -17.6735   19.9206 H   0  0  0  0  0  0
  -25.6049  -18.1769   21.6086 H   0  0  0  0  0  0
  -26.7100  -22.5155   18.0389 H   0  0  0  0  0  0
  -26.4064  -23.2005   19.6414 H   0  0  0  0  0  0
  -25.3287  -21.9845   18.9951 H   0  0  0  0  0  0
  -28.5868  -17.4027   22.2580 H   0  0  0  0  0  0
  -30.0331  -18.3217   22.2748 H   0  0  0  0  0  0
  -31.0288  -17.2114   20.4998 H   0  0  0  0  0  0
  -29.5396  -16.9675   19.6403 H   0  0  0  0  0  0
  -29.0237  -15.2097   21.4655 H   0  0  0  0  0  0
  1 25  1  0  0  0
  1 30  2  0  0  0
  1 87  1  0  0  0
  2  3  1  0  0  0
  2 25  1  0  0  0
  2 88  1  0  0  0
  2 89  1  0  0  0
  3  4  1  0  0  0
  3 90  1  0  0  0
  3 91  1  0  0  0
  4  5  1  0  0  0
  4 92  1  0  0  0
  4 93  1  0  0  0
  5  6  1  0  0  0
  5 26  1  0  0  0
  5 94  1  0  0  0
  6 25  1  0  0  0
  6 95  1  0  0  0
  6 96  1  0  0  0
  7  8  2  0  0  0
  7 26  1  0  0  0
  7 29  1  0  0  0
  8  9  1  0  0  0
  8 22  1  0  0  0
  9 10  1  0  0  0
  9 27  2  0  0  0
 10 11  2  0  0  0
 10 15  1  0  0  0
 11 12  1  0  0  0
 11 97  1  0  0  0
 12 13  2  0  0  0
 12 98  1  0  0  0
 13 14  1  0  0  0
 13 31  1  0  0  0
 14 15  2  0  0  0
 14 99  1  0  0  0
 15100  1  0  0  0
 16 17  2  0  0  0
 16 21  1  0  0  0
 16 31  1  0  0  0
 17 18  1  0  0  0
 17101  1  0  0  0
 18 19  2  0  0  0
 18102  1  0  0  0
 19 20  1  0  0  0
 19 24  1  0  0  0
 20 21  2  0  0  0
 20103  1  0  0  0
 21 23  1  0  0  0
 22 28  1  0  0  0
 22 32  2  0  0  0
 26 27  1  0  0  0
 28104  1  0  0  0
 28105  1  0  0  0
 29106  1  0  0  0
 29107  1  0  0  0
 33 34  1  0  0  0
 33 66  1  0  0  0
 33 70  2  0  0  0
 34 36  1  0  0  0
 34 59  1  0  0  0
 34108  1  0  0  0
 35 44  2  0  0  0
 35 45  1  0  0  0
 35 68  1  0  0  0
 36 56  1  0  0  0
 36109  1  0  0  0
 37 39  1  0  0  0
 37 47  1  0  0  0
 37 66  1  0  0  0
 37110  1  0  0  0
 38 43  2  0  0  0
 38 46  1  0  0  0
 38 47  1  0  0  0
 39 64  1  0  0  0
 39 67  2  0  0  0
 40 52  1  0  0  0
 40 53  2  0  0  0
 40 58  1  0  0  0
 41111  1  0  0  0
 41112  1  0  0  0
 41113  1  0  0  0
 41 48  1  0  0  0
 42 43  1  0  0  0
 42 66  1  0  0  0
 42114  1  0  0  0
 42115  1  0  0  0
 43 44  1  0  0  0
 44116  1  0  0  0
 45 46  2  0  0  0
 45117  1  0  0  0
 46118  1  0  0  0
 47119  1  0  0  0
 47120  1  0  0  0
 48 56  1  0  0  0
 48 65  1  0  0  0
 48121  1  0  0  0
 49 50  1  0  0  0
 49 53  1  0  0  0
 49 64  1  0  0  0
 49122  1  0  0  0
 50 51  1  0  0  0
 50123  1  0  0  0
 50124  1  0  0  0
 51 52  1  0  0  0
 51125  1  0  0  0
 51126  1  0  0  0
 52127  1  0  0  0
 52128  1  0  0  0
 53 54  1  0  0  0
 54 55  2  0  0  0
 54129  1  0  0  0
 55 57  1  0  0  0
 55130  1  0  0  0
 56 69  2  0  0  0
 57 58  2  0  0  0
 57131  1  0  0  0
 58132  1  0  0  0
 59 60  1  0  0  0
 59 61  1  0  0  0
 59 62  1  0  0  0
 60133  1  0  0  0
 60134  1  0  0  0
 60135  1  0  0  0
 61136  1  0  0  0
 61137  1  0  0  0
 61138  1  0  0  0
 62139  1  0  0  0
 62140  1  0  0  0
 62141  1  0  0  0
 63 65  1  0  0  0
 63142  1  0  0  0
 63143  1  0  0  0
 63144  1  0  0  0
 64145  1  0  0  0
 65146  1  0  0  0
 68 80  1  0  0  0
 71 72  2  0  0  0
 71 73  1  0  0  0
 71147  1  0  0  0
 72 74  1  0  0  0
 72 83  1  0  0  0
 73 75  2  0  0  0
 73 86  1  0  0  0
 74 81  1  0  0  0
 74 85  2  0  0  0
 75 82  1  0  0  0
 75 85  1  0  0  0
 76 78  1  0  0  0
 76 80  1  0  0  0
 76148  1  0  0  0
 76149  1  0  0  0
 77 79  1  0  0  0
 77 80  1  0  0  0
 77150  1  0  0  0
 77151  1  0  0  0
 78 86  1  0  0  0
 78152  1  0  0  0
 78153  1  0  0  0
 79 86  1  0  0  0
 79154  1  0  0  0
 79155  1  0  0  0
 80156  1  0  0  0
 81157  1  0  0  0
 81158  1  0  0  0
 81159  1  0  0  0
 82160  1  0  0  0
 82161  1  0  0  0
 82162  1  0  0  0
 83 84  1  0  0  0
 83163  1  0  0  0
 83164  1  0  0  0
 84 87  1  0  0  0
 84165  1  0  0  0
 84166  1  0  0  0
 87167  1  0  0  0
M  ISO  4   1 100  68 101  80 101  87 100
M  END
> <chiral flag>
0

> <version>
0

> <s_m_source_file>
/data/baiqing/PycharmProjects/Reinvent-master-3.2/result/LINK_invent/BTK/process_docking_weight1_custom_sum_contain_oxygen_bond_distance_aromatic_linkinvent_7_9_3/rearranged_h_0168.sdf

> <i_m_source_file_index>
68

> <r_mmod_Potential_Energy-OPLS-2005>
-113.317222595215

> <r_mmod_Stretch_Energy-OPLS-2005>
38.1801223754883

> <r_mmod_Bend_Energy-OPLS-2005>
146.961441040039

> <r_mmod_Torsional_Energy-OPLS-2005>
280.972076416016

> <r_mmod_Improper_Torsional_Energy-OPLS-2005>
8.62190628051758

> <r_mmod_Van_der_Waal_Energy-OPLS-2005>
162.61735534668

> <r_mmod_Electrostatic_Energy-OPLS-2005>
-541.425231933594

> <r_mmod_Solvation_Energy-OPLS-2005>
-228.524536132812

> <b_mmod_Minimization_Converged-OPLS-2005>
0

> <r_mmod_RMS_Derivative-OPLS-2005>
4.24474191665649

$$$$
68
                    3D
 Structure written by MMmdl.
168178  0  0  1  0            999 V2000
  -30.7554  -14.4583   20.5456 C   0  0  0  0  0  0
  -30.4097  -12.2909   19.4438 C   0  0  0  0  0  0
  -29.5031  -12.4872   18.2155 C   0  0  0  0  0  0
  -28.0219  -12.3554   18.6202 C   0  0  0  0  0  0
  -27.6587  -13.2172   19.8641 C   0  0  2  0  0  0
  -28.7003  -13.0512   20.9936 C   0  0  0  0  0  0
  -25.2603  -13.8192   20.5684 C   0  0  0  0  0  0
  -24.1861  -13.0459   20.9172 C   0  0  0  0  0  0
  -24.6422  -11.6920   20.8729 C   0  0  0  0  0  0
  -23.9082  -10.4308   21.0379 C   0  0  0  0  0  0
  -24.3646   -9.4219   21.9158 C   0  0  0  0  0  0
  -23.6328   -8.2249   22.0734 C   0  0  0  0  0  0
  -22.4294   -8.0294   21.3533 C   0  0  0  0  0  0
  -21.9926   -9.0256   20.4626 C   0  0  0  0  0  0
  -22.7256  -10.2138   20.3032 C   0  0  0  0  0  0
  -21.6870   -6.0744   22.5268 C   0  0  0  0  0  0
  -21.4028   -6.5628   23.8210 C   0  0  0  0  0  0
  -21.3671   -5.6781   24.9168 C   0  0  0  0  0  0
  -21.6055   -4.3047   24.7214 C   0  0  0  0  0  0
  -21.8828   -3.8143   23.4341 C   0  0  0  0  0  0
  -21.9199   -4.6971   22.3393 C   0  0  0  0  0  0
  -22.7883  -13.5257   21.1827 C   0  0  0  0  0  0
  -22.1661   -4.2144   21.0977 F   0  0  0  0  0  0
  -21.5629   -3.4528   25.7732 F   0  0  0  0  0  0
  -30.0306  -13.3130   20.4282 N   0  0  0  0  0  0
  -26.3034  -12.9366   20.3338 N   0  0  0  0  0  0
  -25.9355  -11.6523   20.5764 N   0  0  0  0  0  0
  -22.0514  -12.8257   22.0391 N   0  0  0  0  0  0
  -25.4330  -15.1910   20.4096 N   0  0  0  0  0  0
  -31.9290  -14.5300   20.1650 O   0  0  0  0  0  0
  -21.6670   -6.8883   21.4235 O   0  0  0  0  0  0
  -22.3554  -14.5536   20.6639 O   0  0  0  0  0  0
  -24.6123  -31.8709   23.2141 C   0  0  0  0  0  0
  -25.9019  -32.4836   23.8429 C   0  0  1  0  0  0
  -27.2093  -27.4387   20.1057 C   0  0  0  0  0  0
  -25.5863  -33.8635   24.2343 N   0  0  0  0  0  0
  -23.3993  -30.4998   21.5543 C   0  0  2  0  0  0
  -24.8450  -28.9800   20.1062 C   0  0  0  0  0  0
  -22.7401  -29.4672   22.4981 C   0  0  0  0  0  0
  -18.0275  -28.1379   22.8494 C   0  0  0  0  0  0
  -24.1475  -36.7336   23.2641 C   0  0  0  0  0  0
  -25.9319  -30.8398   21.3706 C   0  0  0  0  0  0
  -26.0070  -29.4806   20.7073 C   0  0  0  0  0  0
  -27.1981  -28.7164   20.7054 C   0  0  0  0  0  0
  -26.0419  -26.9766   19.4534 C   0  0  0  0  0  0
  -24.8576  -27.7276   19.4729 C   0  0  0  0  0  0
  -23.6076  -29.8448   20.1638 C   0  0  0  0  0  0
  -25.4099  -36.3130   24.0343 C   0  0  1  0  0  0
  -20.5858  -28.3666   23.1309 C   0  0  2  0  0  0
  -20.6760  -26.9397   22.5414 C   0  0  0  0  0  0
  -19.5741  -26.6388   21.5209 C   0  0  0  0  0  0
  -18.1923  -26.7934   22.1622 C   0  0  0  0  0  0
  -19.1527  -28.8840   23.2903 C   0  0  0  0  0  0
  -18.9457  -30.1447   23.8916 C   0  0  0  0  0  0
  -17.6461  -30.6582   24.0568 C   0  0  0  0  0  0
  -25.9025  -34.9492   23.5148 C   0  0  0  0  0  0
  -16.5352  -29.9096   23.6322 C   0  0  0  0  0  0
  -16.7263  -28.6515   23.0342 C   0  0  0  0  0  0
  -26.4446  -31.6624   25.0761 C   0  0  0  0  0  0
  -25.3714  -31.3754   26.1514 C   0  0  0  0  0  0
  -27.0257  -30.3050   24.6160 C   0  0  0  0  0  0
  -27.6025  -32.4352   25.7502 C   0  0  0  0  0  0
  -27.5585  -37.1812   24.8457 C   0  0  0  0  0  0
  -21.4125  -29.3033   22.3704 N   0  0  0  0  0  0
  -26.4289  -37.3811   23.9403 N   0  0  0  0  0  0
  -24.6653  -31.0837   22.1034 N   0  0  0  0  0  0
  -23.4200  -28.8200   23.2993 O   0  0  0  0  0  0
  -28.3021  -26.6097   20.2311 O   0  0  0  0  0  0
  -26.5599  -34.8932   22.4713 O   0  0  0  0  0  0
  -23.5313  -32.1448   23.7537 O   0  0  0  0  0  0
  -28.6351  -21.8735   21.1474 C   0  0  0  0  0  0
  -28.4853  -20.8237   18.9856 C   0  0  0  0  0  0
  -28.9530  -23.0922   20.4943 C   0  0  0  0  0  0
  -28.4156  -20.6988   20.3899 C   0  0  0  0  0  0
  -29.0985  -23.0543   19.0855 C   0  0  0  0  0  0
  -30.4078  -24.9268   21.6532 C   0  0  0  0  0  0
  -29.4560  -24.4391   22.7149 C   0  0  0  0  0  0
  -29.2892  -17.7478   19.6405 C   0  0  0  0  0  0
  -28.8917  -17.3672   22.0772 C   0  0  0  0  0  0
  -30.3607  -16.6547   19.7009 C   0  0  0  0  0  0
  -29.9276  -16.2090   22.0345 C   0  0  0  0  0  0
  -29.1435  -18.4510   21.0017 C   0  0  0  0  0  0
  -29.0443  -24.4054   21.2530 C   0  0  0  0  0  0
  -29.4987  -24.2729   18.2701 C   0  0  0  0  0  0
  -27.9164  -25.3479   20.8190 C   0  0  0  0  0  0
  -28.8480  -21.9539   18.3510 N   0  0  0  0  0  0
  -30.0494  -15.6080   20.6938 N   0  0  0  0  0  0
  -28.0881  -19.4715   21.0025 N   0  0  0  0  0  0
  -31.4604  -12.3468   19.1526 H   0  0  0  0  0  0
  -30.2788  -11.2941   19.8663 H   0  0  0  0  0  0
  -29.7524  -11.7484   17.4521 H   0  0  0  0  0  0
  -29.6875  -13.4674   17.7745 H   0  0  0  0  0  0
  -27.8363  -11.3013   18.8291 H   0  0  0  0  0  0
  -27.3807  -12.6106   17.7774 H   0  0  0  0  0  0
  -27.6887  -14.2578   19.5374 H   0  0  0  0  0  0
  -28.6652  -12.0413   21.4069 H   0  0  0  0  0  0
  -28.4738  -13.7258   21.8185 H   0  0  0  0  0  0
  -25.2782   -9.5707   22.4737 H   0  0  0  0  0  0
  -24.0039   -7.4647   22.7460 H   0  0  0  0  0  0
  -21.0850   -8.8779   19.8942 H   0  0  0  0  0  0
  -22.3706  -10.9675   19.6144 H   0  0  0  0  0  0
  -21.2016   -7.6138   23.9720 H   0  0  0  0  0  0
  -21.1487   -6.0505   25.9081 H   0  0  0  0  0  0
  -22.0597   -2.7605   23.2843 H   0  0  0  0  0  0
  -22.4153  -11.9955   22.4845 H   0  0  0  0  0  0
  -21.1088  -13.1241   22.2485 H   0  0  0  0  0  0
  -24.6750  -15.8506   20.5382 H   0  0  0  0  0  0
  -26.3035  -15.6294   20.1351 H   0  0  0  0  0  0
  -26.7092  -32.5550   23.1194 H   0  0  0  0  0  0
  -24.9947  -33.9809   25.0442 H   0  0  0  0  0  0
  -22.6880  -31.3170   21.4199 H   0  0  0  0  0  0
  -23.3733  -35.9668   23.3305 H   0  0  0  0  0  0
  -24.3577  -36.8950   22.2054 H   0  0  0  0  0  0
  -23.7228  -37.6543   23.6657 H   0  0  0  0  0  0
  -26.0519  -31.6134   20.6107 H   0  0  0  0  0  0
  -26.8153  -30.8826   21.9953 H   0  0  0  0  0  0
  -28.0843  -29.0828   21.2059 H   0  0  0  0  0  0
  -26.0278  -26.0238   18.9457 H   0  0  0  0  0  0
  -23.9655  -27.3405   18.9994 H   0  0  0  0  0  0
  -23.7193  -30.6263   19.4102 H   0  0  0  0  0  0
  -22.7298  -29.2694   19.8608 H   0  0  0  0  0  0
  -25.1274  -36.2003   25.0838 H   0  0  0  0  0  0
  -20.9974  -28.3235   24.1419 H   0  0  0  0  0  0
  -20.5643  -26.2281   23.3607 H   0  0  0  0  0  0
  -21.6637  -26.7433   22.1204 H   0  0  0  0  0  0
  -19.6890  -25.6301   21.1230 H   0  0  0  0  0  0
  -19.6675  -27.3204   20.6743 H   0  0  0  0  0  0
  -17.4184  -26.6689   21.4020 H   0  0  0  0  0  0
  -18.0313  -26.0068   22.9013 H   0  0  0  0  0  0
  -19.7937  -30.7255   24.2295 H   0  0  0  0  0  0
  -17.5019  -31.6267   24.5168 H   0  0  0  0  0  0
  -15.5349  -30.3010   23.7630 H   0  0  0  0  0  0
  -15.8667  -28.0840   22.7048 H   0  0  0  0  0  0
  -24.5862  -30.7121   25.7868 H   0  0  0  0  0  0
  -24.8930  -32.2921   26.4969 H   0  0  0  0  0  0
  -25.8058  -30.8919   27.0270 H   0  0  0  0  0  0
  -26.2811  -29.6837   24.1162 H   0  0  0  0  0  0
  -27.3939  -29.7266   25.4646 H   0  0  0  0  0  0
  -27.8691  -30.4339   23.9370 H   0  0  0  0  0  0
  -27.2632  -33.3621   26.2131 H   0  0  0  0  0  0
  -28.3785  -32.6965   25.0301 H   0  0  0  0  0  0
  -28.0743  -31.8457   26.5369 H   0  0  0  0  0  0
  -28.2601  -38.0114   24.7514 H   0  0  0  0  0  0
  -28.1086  -36.2648   24.6261 H   0  0  0  0  0  0
  -27.2317  -37.1443   25.8865 H   0  0  0  0  0  0
  -20.9278  -29.8788   21.6953 H   0  0  0  0  0  0
  -26.0190  -38.2887   24.1415 H   0  0  0  0  0  0
  -28.5191  -21.8401   22.2206 H   0  0  0  0  0  0
  -28.2463  -19.9939   18.3371 H   0  0  0  0  0  0
  -31.2713  -24.2997   21.4394 H   0  0  0  0  0  0
  -30.5925  -25.9985   21.6242 H   0  0  0  0  0  0
  -29.0055  -25.1999   23.3505 H   0  0  0  0  0  0
  -29.7094  -23.5100   23.2227 H   0  0  0  0  0  0
  -28.3408  -17.3156   19.3171 H   0  0  0  0  0  0
  -29.6089  -18.4415   18.8664 H   0  0  0  0  0  0
  -28.9078  -17.8285   23.0683 H   0  0  0  0  0  0
  -27.8953  -16.9459   21.9509 H   0  0  0  0  0  0
  -31.3264  -17.1077   19.9426 H   0  0  0  0  0  0
  -30.4650  -16.2223   18.7033 H   0  0  0  0  0  0
  -29.6608  -15.4469   22.7686 H   0  0  0  0  0  0
  -30.9060  -16.5866   22.3367 H   0  0  0  0  0  0
  -30.0931  -18.9395   21.2342 H   0  0  0  0  0  0
  -28.6160  -24.7434   17.8365 H   0  0  0  0  0  0
  -30.1694  -23.9893   17.4592 H   0  0  0  0  0  0
  -30.0234  -25.0167   18.8699 H   0  0  0  0  0  0
  -27.2856  -25.5355   21.6910 H   0  0  0  0  0  0
  -27.2734  -24.8011   20.1300 H   0  0  0  0  0  0
  -27.2158  -19.0866   20.6452 H   0  0  0  0  0  0
  1 25  1  0  0  0
  1 30  2  0  0  0
  1 87  1  0  0  0
  2  3  1  0  0  0
  2 25  1  0  0  0
  2 89  1  0  0  0
  2 90  1  0  0  0
  3  4  1  0  0  0
  3 91  1  0  0  0
  3 92  1  0  0  0
  4  5  1  0  0  0
  4 93  1  0  0  0
  4 94  1  0  0  0
  5  6  1  0  0  0
  5 26  1  0  0  0
  5 95  1  0  0  0
  6 25  1  0  0  0
  6 96  1  0  0  0
  6 97  1  0  0  0
  7  8  2  0  0  0
  7 26  1  0  0  0
  7 29  1  0  0  0
  8  9  1  0  0  0
  8 22  1  0  0  0
  9 10  1  0  0  0
  9 27  2  0  0  0
 10 11  2  0  0  0
 10 15  1  0  0  0
 11 12  1  0  0  0
 11 98  1  0  0  0
 12 13  2  0  0  0
 12 99  1  0  0  0
 13 14  1  0  0  0
 13 31  1  0  0  0
 14 15  2  0  0  0
 14100  1  0  0  0
 15101  1  0  0  0
 16 17  2  0  0  0
 16 21  1  0  0  0
 16 31  1  0  0  0
 17 18  1  0  0  0
 17102  1  0  0  0
 18 19  2  0  0  0
 18103  1  0  0  0
 19 20  1  0  0  0
 19 24  1  0  0  0
 20 21  2  0  0  0
 20104  1  0  0  0
 21 23  1  0  0  0
 22 28  1  0  0  0
 22 32  2  0  0  0
 26 27  1  0  0  0
 28105  1  0  0  0
 28106  1  0  0  0
 29107  1  0  0  0
 29108  1  0  0  0
 33 34  1  0  0  0
 33 66  1  0  0  0
 33 70  2  0  0  0
 34 36  1  0  0  0
 34 59  1  0  0  0
 34109  1  0  0  0
 35 44  2  0  0  0
 35 45  1  0  0  0
 35 68  1  0  0  0
 36 56  1  0  0  0
 36110  1  0  0  0
 37 39  1  0  0  0
 37 47  1  0  0  0
 37 66  1  0  0  0
 37111  1  0  0  0
 38 43  2  0  0  0
 38 46  1  0  0  0
 38 47  1  0  0  0
 39 64  1  0  0  0
 39 67  2  0  0  0
 40 52  1  0  0  0
 40 53  2  0  0  0
 40 58  1  0  0  0
 41112  1  0  0  0
 41113  1  0  0  0
 41114  1  0  0  0
 41 48  1  0  0  0
 42 43  1  0  0  0
 42 66  1  0  0  0
 42115  1  0  0  0
 42116  1  0  0  0
 43 44  1  0  0  0
 44117  1  0  0  0
 45 46  2  0  0  0
 45118  1  0  0  0
 46119  1  0  0  0
 47120  1  0  0  0
 47121  1  0  0  0
 48 56  1  0  0  0
 48 65  1  0  0  0
 48122  1  0  0  0
 49 50  1  0  0  0
 49 53  1  0  0  0
 49 64  1  0  0  0
 49123  1  0  0  0
 50 51  1  0  0  0
 50124  1  0  0  0
 50125  1  0  0  0
 51 52  1  0  0  0
 51126  1  0  0  0
 51127  1  0  0  0
 52128  1  0  0  0
 52129  1  0  0  0
 53 54  1  0  0  0
 54 55  2  0  0  0
 54130  1  0  0  0
 55 57  1  0  0  0
 55131  1  0  0  0
 56 69  2  0  0  0
 57 58  2  0  0  0
 57132  1  0  0  0
 58133  1  0  0  0
 59 60  1  0  0  0
 59 61  1  0  0  0
 59 62  1  0  0  0
 60134  1  0  0  0
 60135  1  0  0  0
 60136  1  0  0  0
 61137  1  0  0  0
 61138  1  0  0  0
 61139  1  0  0  0
 62140  1  0  0  0
 62141  1  0  0  0
 62142  1  0  0  0
 63 65  1  0  0  0
 63143  1  0  0  0
 63144  1  0  0  0
 63145  1  0  0  0
 64146  1  0  0  0
 65147  1  0  0  0
 68 85  1  0  0  0
 71 73  2  0  0  0
 71 74  1  0  0  0
 71148  1  0  0  0
 72 74  2  0  0  0
 72 86  1  0  0  0
 72149  1  0  0  0
 73 75  1  0  0  0
 73 83  1  0  0  0
 74 88  1  0  0  0
 75 84  1  0  0  0
 75 86  2  0  0  0
 76 77  1  0  0  0
 76 83  1  0  0  0
 76150  1  0  0  0
 76151  1  0  0  0
 77 83  1  0  0  0
 77152  1  0  0  0
 77153  1  0  0  0
 78 80  1  0  0  0
 78 82  1  0  0  0
 78154  1  0  0  0
 78155  1  0  0  0
 79 81  1  0  0  0
 79 82  1  0  0  0
 79156  1  0  0  0
 79157  1  0  0  0
 80 87  1  0  0  0
 80158  1  0  0  0
 80159  1  0  0  0
 81 87  1  0  0  0
 81160  1  0  0  0
 81161  1  0  0  0
 82 88  1  0  0  0
 82162  1  0  0  0
 83 85  1  0  0  0
 84163  1  0  0  0
 84164  1  0  0  0
 84165  1  0  0  0
 85166  1  0  0  0
 85167  1  0  0  0
 88168  1  0  0  0
M  ISO  4   1 100  68 101  85 101  87 100
M  END
> <chiral flag>
0

> <version>
0

> <s_m_source_file>
/data/baiqing/PycharmProjects/Reinvent-master-3.2/result/LINK_invent/BTK/process_docking_weight1_custom_sum_contain_oxygen_bond_distance_aromatic_linkinvent_7_9_3/rearranged_h_0168.sdf

> <i_m_source_file_index>
69

> <r_mmod_Potential_Energy-OPLS-2005>
159.20573425293

> <r_mmod_Stretch_Energy-OPLS-2005>
40.1953086853027

> <r_mmod_Bend_Energy-OPLS-2005>
105.758018493652

> <r_mmod_Torsional_Energy-OPLS-2005>
398.063690185547

> <r_mmod_Improper_Torsional_Energy-OPLS-2005>
21.4659023284912

> <r_mmod_Van_der_Waal_Energy-OPLS-2005>
166.791458129883

> <r_mmod_Electrostatic_Energy-OPLS-2005>
-393.958648681641

> <r_mmod_Solvation_Energy-OPLS-2005>
-205.353134155273

> <b_mmod_Minimization_Converged-OPLS-2005>
0

> <r_mmod_RMS_Derivative-OPLS-2005>
3.60255312919617

$$$$
69
                    3D
 Structure written by MMmdl.
168178  0  0  1  0            999 V2000
  -30.6775  -14.6864   20.4921 C   0  0  0  0  0  0
  -30.4249  -12.4365   19.4470 C   0  0  0  0  0  0
  -29.4922  -12.4944   18.2196 C   0  0  0  0  0  0
  -28.0236  -12.2950   18.6424 C   0  0  0  0  0  0
  -27.6371  -13.1853   19.8467 C   0  0  2  0  0  0
  -28.6989  -13.0977   20.9761 C   0  0  0  0  0  0
  -25.2496  -13.8070   20.5673 C   0  0  0  0  0  0
  -24.1767  -13.0380   20.9228 C   0  0  0  0  0  0
  -24.6326  -11.6853   20.8804 C   0  0  0  0  0  0
  -23.8997  -10.4259   21.0435 C   0  0  0  0  0  0
  -24.3571   -9.4183   21.9202 C   0  0  0  0  0  0
  -23.6271   -8.2211   22.0760 C   0  0  0  0  0  0
  -22.4254   -8.0249   21.3545 C   0  0  0  0  0  0
  -21.9872   -9.0224   20.4651 C   0  0  0  0  0  0
  -22.7188  -10.2107   20.3071 C   0  0  0  0  0  0
  -21.6846   -6.0705   22.5275 C   0  0  0  0  0  0
  -21.4007   -6.5621   23.8207 C   0  0  0  0  0  0
  -21.3659   -5.6781   24.9173 C   0  0  0  0  0  0
  -21.6045   -4.3045   24.7229 C   0  0  0  0  0  0
  -21.8825   -3.8129   23.4355 C   0  0  0  0  0  0
  -21.9192   -4.6938   22.3403 C   0  0  0  0  0  0
  -22.7796  -13.5211   21.1872 C   0  0  0  0  0  0
  -22.1666   -4.2123   21.0984 F   0  0  0  0  0  0
  -21.5634   -3.4535   25.7743 F   0  0  0  0  0  0
  -29.9820  -13.4971   20.3849 N   0  0  0  0  0  0
  -26.2897  -12.9199   20.3291 N   0  0  0  0  0  0
  -25.9239  -11.6396   20.5812 N   0  0  0  0  0  0
  -22.0434  -12.8223   22.0430 N   0  0  0  0  0  0
  -25.4103  -15.1791   20.4045 N   0  0  0  0  0  0
  -31.8809  -14.6750   20.2143 O   0  0  0  0  0  0
  -21.6638   -6.8835   21.4232 O   0  0  0  0  0  0
  -22.3499  -14.5531   20.6724 O   0  0  0  0  0  0
  -24.6223  -31.8615   23.2020 C   0  0  0  0  0  0
  -25.9090  -32.4781   23.8340 C   0  0  1  0  0  0
  -27.2331  -27.3516   20.1283 C   0  0  0  0  0  0
  -25.5935  -33.8584   24.2284 N   0  0  0  0  0  0
  -23.4150  -30.4803   21.5430 C   0  0  2  0  0  0
  -24.8644  -28.9300   20.1173 C   0  0  0  0  0  0
  -22.7457  -29.4617   22.4947 C   0  0  0  0  0  0
  -18.0301  -28.1362   22.8457 C   0  0  0  0  0  0
  -24.1493  -36.7296   23.2634 C   0  0  0  0  0  0
  -25.9500  -30.8038   21.3653 C   0  0  0  0  0  0
  -26.0289  -29.4289   20.7160 C   0  0  0  0  0  0
  -27.2198  -28.6520   20.7072 C   0  0  0  0  0  0
  -26.0524  -26.8856   19.5172 C   0  0  0  0  0  0
  -24.8760  -27.6624   19.5085 C   0  0  0  0  0  0
  -23.6296  -29.8062   20.1597 C   0  0  0  0  0  0
  -25.4116  -36.3086   24.0329 C   0  0  1  0  0  0
  -20.5887  -28.3662   23.1296 C   0  0  2  0  0  0
  -20.6784  -26.9387   22.5442 C   0  0  0  0  0  0
  -19.5792  -26.6359   21.5219 C   0  0  0  0  0  0
  -18.1962  -26.7900   22.1613 C   0  0  0  0  0  0
  -19.1549  -28.8828   23.2869 C   0  0  0  0  0  0
  -18.9467  -30.1422   23.8901 C   0  0  0  0  0  0
  -17.6465  -30.6559   24.0539 C   0  0  0  0  0  0
  -25.9045  -34.9454   23.5097 C   0  0  0  0  0  0
  -16.5362  -29.9060   23.6288 C   0  0  0  0  0  0
  -16.7290  -28.6466   23.0322 C   0  0  0  0  0  0
  -26.4485  -31.6576   25.0694 C   0  0  0  0  0  0
  -25.3721  -31.3725   26.1423 C   0  0  0  0  0  0
  -27.0319  -30.3004   24.6121 C   0  0  0  0  0  0
  -27.6054  -32.4292   25.7464 C   0  0  0  0  0  0
  -27.5581  -37.1807   24.8464 C   0  0  0  0  0  0
  -21.4181  -29.3013   22.3689 N   0  0  0  0  0  0
  -26.4292  -37.3777   23.9408 N   0  0  0  0  0  0
  -24.6806  -31.0652   22.0944 N   0  0  0  0  0  0
  -23.4191  -28.8188   23.3039 O   0  0  0  0  0  0
  -28.3762  -26.5576   20.1078 O   0  0  0  0  0  0
  -26.5605  -34.8914   22.4657 O   0  0  0  0  0  0
  -23.5402  -32.1423   23.7351 O   0  0  0  0  0  0
  -28.6437  -21.3686   20.7474 C   0  0  0  0  0  0
  -26.3060  -21.4788   22.2465 C   0  0  0  0  0  0
  -28.2509  -20.1913   21.4890 C   0  0  0  0  0  0
  -27.1112  -20.3254   22.3435 C   0  0  0  0  0  0
  -27.8819  -22.6004   20.7513 C   0  0  0  0  0  0
  -26.6454  -22.5738   21.4398 C   0  0  0  0  0  0
  -25.4593  -18.4610   23.2118 C   0  0  0  0  0  0
  -25.6123  -19.3966   24.3873 C   0  0  0  0  0  0
  -28.0814  -17.5632   21.2432 C   0  0  0  0  0  0
  -30.2044  -18.5591   20.5161 C   0  0  0  0  0  0
  -28.6371  -16.2725   20.5594 C   0  0  0  0  0  0
  -30.9055  -17.1704   20.7993 C   0  0  0  0  0  0
  -29.0087  -18.7943   21.4563 C   0  0  0  0  0  0
  -26.7280  -19.2712   23.3664 C   0  0  0  0  0  0
  -28.3566  -25.2665   20.8126 C   0  0  0  0  0  0
  -28.2810  -23.9122   19.9730 C   0  0  1  0  0  0
  -30.0651  -15.9251   20.7360 N   0  0  0  0  0  0
  -29.5434  -23.7755   19.3373 O   0  0  0  0  0  0
  -25.4747  -23.8421   21.3083 Cl  0  0  0  0  0  0
  -31.4610  -12.5549   19.1245 H   0  0  0  0  0  0
  -30.3795  -11.4558   19.9239 H   0  0  0  0  0  0
  -29.7789  -11.7372   17.4891 H   0  0  0  0  0  0
  -29.6044  -13.4573   17.7173 H   0  0  0  0  0  0
  -27.8903  -11.2441   18.9030 H   0  0  0  0  0  0
  -27.3562  -12.4877   17.8013 H   0  0  0  0  0  0
  -27.6182  -14.1798   19.4169 H   0  0  0  0  0  0
  -28.7589  -12.0737   21.3505 H   0  0  0  0  0  0
  -28.4538  -13.6921   21.8555 H   0  0  0  0  0  0
  -25.2710   -9.5675   22.4789 H   0  0  0  0  0  0
  -23.9989   -7.4594   22.7471 H   0  0  0  0  0  0
  -21.0800   -8.8737   19.8949 H   0  0  0  0  0  0
  -22.3644  -10.9651   19.6197 H   0  0  0  0  0  0
  -21.2002   -7.6132   23.9705 H   0  0  0  0  0  0
  -21.1476   -6.0507   25.9071 H   0  0  0  0  0  0
  -22.0606   -2.7589   23.2865 H   0  0  0  0  0  0
  -22.4061  -11.9903   22.4838 H   0  0  0  0  0  0
  -21.1056  -13.1260   22.2639 H   0  0  0  0  0  0
  -24.6408  -15.8238   20.5458 H   0  0  0  0  0  0
  -26.2574  -15.6323   20.0918 H   0  0  0  0  0  0
  -26.7146  -32.5456   23.1081 H   0  0  0  0  0  0
  -25.0095  -33.9718   25.0439 H   0  0  0  0  0  0
  -22.7059  -31.2978   21.3952 H   0  0  0  0  0  0
  -23.3740  -35.9640   23.3300 H   0  0  0  0  0  0
  -24.3584  -36.8916   22.2048 H   0  0  0  0  0  0
  -23.7262  -37.6507   23.6644 H   0  0  0  0  0  0
  -26.0712  -31.5656   20.5934 H   0  0  0  0  0  0
  -26.8330  -30.8593   21.9906 H   0  0  0  0  0  0
  -28.1215  -29.0368   21.1629 H   0  0  0  0  0  0
  -26.0404  -25.9140   19.0437 H   0  0  0  0  0  0
  -23.9862  -27.2744   19.0324 H   0  0  0  0  0  0
  -23.7443  -30.5770   19.3963 H   0  0  0  0  0  0
  -22.7531  -29.2274   19.8615 H   0  0  0  0  0  0
  -25.1295  -36.1930   25.0821 H   0  0  0  0  0  0
  -20.9970  -28.3249   24.1415 H   0  0  0  0  0  0
  -20.5655  -26.2291   23.3652 H   0  0  0  0  0  0
  -21.6666  -26.7393   22.1274 H   0  0  0  0  0  0
  -19.6963  -25.6261   21.1288 H   0  0  0  0  0  0
  -19.6763  -27.3151   20.6738 H   0  0  0  0  0  0
  -17.4243  -26.6606   21.4012 H   0  0  0  0  0  0
  -18.0390  -26.0057   22.9031 H   0  0  0  0  0  0
  -19.7933  -30.7223   24.2318 H   0  0  0  0  0  0
  -17.5018  -31.6230   24.5160 H   0  0  0  0  0  0
  -15.5359  -30.2951   23.7606 H   0  0  0  0  0  0
  -15.8696  -28.0764   22.7051 H   0  0  0  0  0  0
  -24.5893  -30.7071   25.7758 H   0  0  0  0  0  0
  -24.8898  -32.2898   26.4818 H   0  0  0  0  0  0
  -25.8051  -30.8929   27.0211 H   0  0  0  0  0  0
  -26.2891  -29.6760   24.1136 H   0  0  0  0  0  0
  -27.4035  -29.7247   25.4606 H   0  0  0  0  0  0
  -27.8747  -30.4294   23.9319 H   0  0  0  0  0  0
  -27.2676  -33.3590   26.2046 H   0  0  0  0  0  0
  -28.3866  -32.6856   25.0295 H   0  0  0  0  0  0
  -28.0704  -31.8401   26.5377 H   0  0  0  0  0  0
  -28.2602  -38.0099   24.7497 H   0  0  0  0  0  0
  -28.1074  -36.2633   24.6297 H   0  0  0  0  0  0
  -27.2296  -37.1473   25.8864 H   0  0  0  0  0  0
  -20.9355  -29.8736   21.6902 H   0  0  0  0  0  0
  -26.0177  -38.2856   24.1380 H   0  0  0  0  0  0
  -29.5487  -21.3210   20.1596 H   0  0  0  0  0  0
  -25.3824  -21.5485   22.7975 H   0  0  0  0  0  0
  -24.7586  -18.7549   22.4336 H   0  0  0  0  0  0
  -25.5169  -17.3921   23.4091 H   0  0  0  0  0  0
  -25.7747  -18.9289   25.3565 H   0  0  0  0  0  0
  -24.9777  -20.2774   24.4119 H   0  0  0  0  0  0
  -27.6902  -17.2363   22.2030 H   0  0  0  0  0  0
  -27.2108  -17.8793   20.6660 H   0  0  0  0  0  0
  -29.8824  -18.6140   19.4764 H   0  0  0  0  0  0
  -30.9354  -19.3570   20.6500 H   0  0  0  0  0  0
  -28.4412  -16.3180   19.4869 H   0  0  0  0  0  0
  -28.0045  -15.5085   20.9779 H   0  0  0  0  0  0
  -31.3532  -17.2000   21.7935 H   0  0  0  0  0  0
  -31.7431  -17.0962   20.1041 H   0  0  0  0  0  0
  -29.4352  -18.7010   22.4553 H   0  0  0  0  0  0
  -27.6148  -18.7936   23.7782 H   0  0  0  0  0  0
  -29.2583  -25.2313   21.4240 H   0  0  0  0  0  0
  -27.5595  -25.3128   21.5508 H   0  0  0  0  0  0
  -27.5277  -24.0389   19.1945 H   0  0  0  0  0  0
  -29.4574  -23.1007   18.6723 H   0  0  0  0  0  0
  1 25  1  0  0  0
  1 30  2  0  0  0
  1 87  1  0  0  0
  2  3  1  0  0  0
  2 25  1  0  0  0
  2 90  1  0  0  0
  2 91  1  0  0  0
  3  4  1  0  0  0
  3 92  1  0  0  0
  3 93  1  0  0  0
  4  5  1  0  0  0
  4 94  1  0  0  0
  4 95  1  0  0  0
  5  6  1  0  0  0
  5 26  1  0  0  0
  5 96  1  0  0  0
  6 25  1  0  0  0
  6 97  1  0  0  0
  6 98  1  0  0  0
  7  8  2  0  0  0
  7 26  1  0  0  0
  7 29  1  0  0  0
  8  9  1  0  0  0
  8 22  1  0  0  0
  9 10  1  0  0  0
  9 27  2  0  0  0
 10 11  2  0  0  0
 10 15  1  0  0  0
 11 12  1  0  0  0
 11 99  1  0  0  0
 12 13  2  0  0  0
 12100  1  0  0  0
 13 14  1  0  0  0
 13 31  1  0  0  0
 14 15  2  0  0  0
 14101  1  0  0  0
 15102  1  0  0  0
 16 17  2  0  0  0
 16 21  1  0  0  0
 16 31  1  0  0  0
 17 18  1  0  0  0
 17103  1  0  0  0
 18 19  2  0  0  0
 18104  1  0  0  0
 19 20  1  0  0  0
 19 24  1  0  0  0
 20 21  2  0  0  0
 20105  1  0  0  0
 21 23  1  0  0  0
 22 28  1  0  0  0
 22 32  2  0  0  0
 26 27  1  0  0  0
 28106  1  0  0  0
 28107  1  0  0  0
 29108  1  0  0  0
 29109  1  0  0  0
 33 34  1  0  0  0
 33 66  1  0  0  0
 33 70  2  0  0  0
 34 36  1  0  0  0
 34 59  1  0  0  0
 34110  1  0  0  0
 35 44  2  0  0  0
 35 45  1  0  0  0
 35 68  1  0  0  0
 36 56  1  0  0  0
 36111  1  0  0  0
 37 39  1  0  0  0
 37 47  1  0  0  0
 37 66  1  0  0  0
 37112  1  0  0  0
 38 43  2  0  0  0
 38 46  1  0  0  0
 38 47  1  0  0  0
 39 64  1  0  0  0
 39 67  2  0  0  0
 40 52  1  0  0  0
 40 53  2  0  0  0
 40 58  1  0  0  0
 41113  1  0  0  0
 41114  1  0  0  0
 41115  1  0  0  0
 41 48  1  0  0  0
 42 43  1  0  0  0
 42 66  1  0  0  0
 42116  1  0  0  0
 42117  1  0  0  0
 43 44  1  0  0  0
 44118  1  0  0  0
 45 46  2  0  0  0
 45119  1  0  0  0
 46120  1  0  0  0
 47121  1  0  0  0
 47122  1  0  0  0
 48 56  1  0  0  0
 48 65  1  0  0  0
 48123  1  0  0  0
 49 50  1  0  0  0
 49 53  1  0  0  0
 49 64  1  0  0  0
 49124  1  0  0  0
 50 51  1  0  0  0
 50125  1  0  0  0
 50126  1  0  0  0
 51 52  1  0  0  0
 51127  1  0  0  0
 51128  1  0  0  0
 52129  1  0  0  0
 52130  1  0  0  0
 53 54  1  0  0  0
 54 55  2  0  0  0
 54131  1  0  0  0
 55 57  1  0  0  0
 55132  1  0  0  0
 56 69  2  0  0  0
 57 58  2  0  0  0
 57133  1  0  0  0
 58134  1  0  0  0
 59 60  1  0  0  0
 59 61  1  0  0  0
 59 62  1  0  0  0
 60135  1  0  0  0
 60136  1  0  0  0
 60137  1  0  0  0
 61138  1  0  0  0
 61139  1  0  0  0
 61140  1  0  0  0
 62141  1  0  0  0
 62142  1  0  0  0
 62143  1  0  0  0
 63 65  1  0  0  0
 63144  1  0  0  0
 63145  1  0  0  0
 63146  1  0  0  0
 64147  1  0  0  0
 65148  1  0  0  0
 68 85  1  0  0  0
 71 73  2  0  0  0
 71 75  1  0  0  0
 71149  1  0  0  0
 72 74  2  0  0  0
 72 76  1  0  0  0
 72150  1  0  0  0
 73 74  1  0  0  0
 73 83  1  0  0  0
 74 84  1  0  0  0
 75 76  2  0  0  0
 75 86  1  0  0  0
 76 89  1  0  0  0
 77 78  1  0  0  0
 77 84  1  0  0  0
 77151  1  0  0  0
 77152  1  0  0  0
 78 84  1  0  0  0
 78153  1  0  0  0
 78154  1  0  0  0
 79 81  1  0  0  0
 79 83  1  0  0  0
 79155  1  0  0  0
 79156  1  0  0  0
 80 82  1  0  0  0
 80 83  1  0  0  0
 80157  1  0  0  0
 80158  1  0  0  0
 81 87  1  0  0  0
 81159  1  0  0  0
 81160  1  0  0  0
 82 87  1  0  0  0
 82161  1  0  0  0
 82162  1  0  0  0
 83163  1  0  0  0
 84164  1  0  0  0
 85 86  1  0  0  0
 85165  1  0  0  0
 85166  1  0  0  0
 86 88  1  0  0  0
 86167  1  0  0  0
 88168  1  0  0  0
M  ISO  4   1 100  68 101  85 101  87 100
M  END
> <chiral flag>
0

> <version>
0

> <s_m_source_file>
/data/baiqing/PycharmProjects/Reinvent-master-3.2/result/LINK_invent/BTK/process_docking_weight1_custom_sum_contain_oxygen_bond_distance_aromatic_linkinvent_7_9_3/rearranged_h_0168.sdf

> <i_m_source_file_index>
70

> <r_mmod_Potential_Energy-OPLS-2005>
387.487213134766

> <r_mmod_Stretch_Energy-OPLS-2005>
93.6360702514648

> <r_mmod_Bend_Energy-OPLS-2005>
186.643005371094

> <r_mmod_Torsional_Energy-OPLS-2005>
378.630615234375

> <r_mmod_Improper_Torsional_Energy-OPLS-2005>
4.36798810958862

> <r_mmod_Van_der_Waal_Energy-OPLS-2005>
169.77197265625

> <r_mmod_Electrostatic_Energy-OPLS-2005>
-282.792572021484

> <r_mmod_Solvation_Energy-OPLS-2005>
-214.480163574219

> <b_mmod_Minimization_Converged-OPLS-2005>
0

> <r_mmod_RMS_Derivative-OPLS-2005>
2.13428521156311

$$$$
70
                    3D
 Structure written by MMmdl.
165174  0  0  1  0            999 V2000
  -30.7684  -14.4531   20.5883 C   0  0  0  0  0  0
  -30.4007  -12.3053   19.4356 C   0  0  0  0  0  0
  -29.4880  -12.5043   18.2113 C   0  0  0  0  0  0
  -28.0110  -12.3682   18.6216 C   0  0  0  0  0  0
  -27.6555  -13.2210   19.8697 C   0  0  2  0  0  0
  -28.6972  -13.0462   20.9996 C   0  0  0  0  0  0
  -25.2542  -13.8203   20.5687 C   0  0  0  0  0  0
  -24.1809  -13.0447   20.9176 C   0  0  0  0  0  0
  -24.6390  -11.6926   20.8729 C   0  0  0  0  0  0
  -23.9072  -10.4297   21.0400 C   0  0  0  0  0  0
  -24.3619   -9.4211   21.9181 C   0  0  0  0  0  0
  -23.6288   -8.2250   22.0755 C   0  0  0  0  0  0
  -22.4276   -8.0286   21.3540 C   0  0  0  0  0  0
  -21.9922   -9.0258   20.4634 C   0  0  0  0  0  0
  -22.7254  -10.2131   20.3042 C   0  0  0  0  0  0
  -21.6852   -6.0737   22.5275 C   0  0  0  0  0  0
  -21.4016   -6.5637   23.8207 C   0  0  0  0  0  0
  -21.3657   -5.6789   24.9165 C   0  0  0  0  0  0
  -21.6047   -4.3053   24.7217 C   0  0  0  0  0  0
  -21.8819   -3.8146   23.4336 C   0  0  0  0  0  0
  -21.9189   -4.6966   22.3396 C   0  0  0  0  0  0
  -22.7823  -13.5226   21.1838 C   0  0  0  0  0  0
  -22.1654   -4.2150   21.0972 F   0  0  0  0  0  0
  -21.5631   -3.4542   25.7728 F   0  0  0  0  0  0
  -30.0310  -13.3174   20.4419 N   0  0  0  0  0  0
  -26.2991  -12.9402   20.3357 N   0  0  0  0  0  0
  -25.9324  -11.6547   20.5780 N   0  0  0  0  0  0
  -22.0461  -12.8195   22.0371 N   0  0  0  0  0  0
  -25.4258  -15.1921   20.4103 N   0  0  0  0  0  0
  -31.8708  -14.5826   20.0516 O   0  0  0  0  0  0
  -21.6638   -6.8881   21.4237 O   0  0  0  0  0  0
  -22.3500  -14.5532   20.6694 O   0  0  0  0  0  0
  -24.6175  -31.8664   23.2110 C   0  0  0  0  0  0
  -25.9059  -32.4806   23.8388 C   0  0  1  0  0  0
  -27.2178  -27.4079   20.1018 C   0  0  0  0  0  0
  -25.5921  -33.8604   24.2334 N   0  0  0  0  0  0
  -23.4048  -30.4945   21.5521 C   0  0  2  0  0  0
  -24.8471  -28.9639   20.1102 C   0  0  0  0  0  0
  -22.7419  -29.4651   22.4979 C   0  0  0  0  0  0
  -18.0276  -28.1388   22.8472 C   0  0  0  0  0  0
  -24.1488  -36.7304   23.2632 C   0  0  0  0  0  0
  -25.9369  -30.8253   21.3664 C   0  0  0  0  0  0
  -26.0092  -29.4592   20.7121 C   0  0  0  0  0  0
  -27.1974  -28.6881   20.7074 C   0  0  0  0  0  0
  -26.0369  -26.9438   19.4744 C   0  0  0  0  0  0
  -24.8574  -27.7061   19.4863 C   0  0  0  0  0  0
  -23.6116  -29.8342   20.1641 C   0  0  0  0  0  0
  -25.4107  -36.3108   24.0348 C   0  0  1  0  0  0
  -20.5875  -28.3671   23.1318 C   0  0  2  0  0  0
  -20.6779  -26.9405   22.5418 C   0  0  0  0  0  0
  -19.5755  -26.6403   21.5210 C   0  0  0  0  0  0
  -18.1919  -26.7937   22.1601 C   0  0  0  0  0  0
  -19.1527  -28.8843   23.2889 C   0  0  0  0  0  0
  -18.9461  -30.1435   23.8918 C   0  0  0  0  0  0
  -17.6473  -30.6584   24.0568 C   0  0  0  0  0  0
  -25.9047  -34.9466   23.5141 C   0  0  0  0  0  0
  -16.5351  -29.9093   23.6347 C   0  0  0  0  0  0
  -16.7269  -28.6517   23.0346 C   0  0  0  0  0  0
  -26.4480  -31.6579   25.0715 C   0  0  0  0  0  0
  -25.3750  -31.3661   26.1460 C   0  0  0  0  0  0
  -27.0325  -30.3037   24.6073 C   0  0  0  0  0  0
  -27.6053  -32.4281   25.7509 C   0  0  0  0  0  0
  -27.5584  -37.1790   24.8452 C   0  0  0  0  0  0
  -21.4154  -29.3028   22.3719 N   0  0  0  0  0  0
  -26.4276  -37.3800   23.9430 N   0  0  0  0  0  0
  -24.6716  -31.0758   22.1013 N   0  0  0  0  0  0
  -23.4184  -28.8185   23.3021 O   0  0  0  0  0  0
  -28.3701  -26.6387   20.1463 O   0  0  0  0  0  0
  -26.5598  -34.8910   22.4693 O   0  0  0  0  0  0
  -23.5368  -32.1414   23.7497 O   0  0  0  0  0  0
  -29.3226  -19.8692   22.9081 C   0  0  0  0  0  0
  -29.3939  -20.6618   21.7425 C   0  0  0  0  0  0
  -29.7716  -18.5316   22.8783 C   0  0  0  0  0  0
  -29.8761  -20.0410   20.5729 C   0  0  0  0  0  0
  -30.2821  -18.0127   21.6676 C   0  0  0  0  0  0
  -29.9926  -20.8534   19.2995 C   0  0  0  0  0  0
  -30.2507  -22.3361   19.6147 C   0  0  0  0  0  0
  -29.0393  -22.1680   21.7917 C   0  0  2  0  0  0
  -29.7657  -17.7133   24.1611 C   0  0  0  0  0  0
  -27.6268  -22.3966   22.3658 C   0  0  0  0  0  0
  -31.0299  -16.6762   21.6128 C   0  0  0  0  0  0
  -29.3518  -24.4020   20.6648 C   0  0  0  0  0  0
  -28.2055  -25.2088   20.0103 C   0  0  0  0  0  0
  -30.2946  -18.7499   20.5306 N   0  0  0  0  0  0
  -30.2462  -15.4674   21.3009 N   0  0  0  0  0  0
  -29.2007  -22.9136   20.4973 N   0  3  1  0  0  0
  -31.4498  -12.3613   19.1393 H   0  0  0  0  0  0
  -30.2688  -11.3047   19.8513 H   0  0  0  0  0  0
  -29.7293  -11.7743   17.4374 H   0  0  0  0  0  0
  -29.6618  -13.4884   17.7718 H   0  0  0  0  0  0
  -27.8207  -11.3138   18.8250 H   0  0  0  0  0  0
  -27.3632  -12.6369   17.7865 H   0  0  0  0  0  0
  -27.6883  -14.2640   19.5531 H   0  0  0  0  0  0
  -28.6657  -12.0292   21.3930 H   0  0  0  0  0  0
  -28.4594  -13.6977   21.8422 H   0  0  0  0  0  0
  -25.2765   -9.5682   22.4756 H   0  0  0  0  0  0
  -23.9988   -7.4645   22.7485 H   0  0  0  0  0  0
  -21.0858   -8.8774   19.8931 H   0  0  0  0  0  0
  -22.3727  -10.9662   19.6136 H   0  0  0  0  0  0
  -21.2015   -7.6144   23.9709 H   0  0  0  0  0  0
  -21.1479   -6.0517   25.9064 H   0  0  0  0  0  0
  -22.0603   -2.7612   23.2834 H   0  0  0  0  0  0
  -22.4069  -11.9834   22.4724 H   0  0  0  0  0  0
  -21.1068  -13.1195   22.2571 H   0  0  0  0  0  0
  -24.6649  -15.8532   20.5257 H   0  0  0  0  0  0
  -26.2861  -15.6306   20.1063 H   0  0  0  0  0  0
  -26.7116  -32.5507   23.1143 H   0  0  0  0  0  0
  -25.0106  -33.9759   25.0506 H   0  0  0  0  0  0
  -22.6953  -31.3134   21.4148 H   0  0  0  0  0  0
  -23.3763  -35.9619   23.3279 H   0  0  0  0  0  0
  -24.3599  -36.8945   22.2049 H   0  0  0  0  0  0
  -23.7207  -37.6491   23.6659 H   0  0  0  0  0  0
  -26.0479  -31.5906   20.5963 H   0  0  0  0  0  0
  -26.8255  -30.8787   21.9820 H   0  0  0  0  0  0
  -28.0908  -29.0591   21.1904 H   0  0  0  0  0  0
  -25.9986  -25.9897   18.9694 H   0  0  0  0  0  0
  -23.9678  -27.3223   19.0073 H   0  0  0  0  0  0
  -23.7162  -30.6139   19.4085 H   0  0  0  0  0  0
  -22.7335  -29.2575   19.8666 H   0  0  0  0  0  0
  -25.1269  -36.1978   25.0841 H   0  0  0  0  0  0
  -20.9935  -28.3244   24.1449 H   0  0  0  0  0  0
  -20.5704  -26.2281   23.3621 H   0  0  0  0  0  0
  -21.6638  -26.7465   22.1172 H   0  0  0  0  0  0
  -19.6937  -25.6323   21.1204 H   0  0  0  0  0  0
  -19.6715  -27.3252   20.6770 H   0  0  0  0  0  0
  -17.4206  -26.6718   21.3979 H   0  0  0  0  0  0
  -18.0268  -26.0074   22.8999 H   0  0  0  0  0  0
  -19.7950  -30.7224   24.2308 H   0  0  0  0  0  0
  -17.5038  -31.6275   24.5148 H   0  0  0  0  0  0
  -15.5350  -30.2990   23.7678 H   0  0  0  0  0  0
  -15.8673  -28.0845   22.7044 H   0  0  0  0  0  0
  -24.5995  -30.6923   25.7817 H   0  0  0  0  0  0
  -24.8838  -32.2782   26.4847 H   0  0  0  0  0  0
  -25.8104  -30.8911   27.0262 H   0  0  0  0  0  0
  -26.2866  -29.6794   24.1133 H   0  0  0  0  0  0
  -27.4146  -29.7269   25.4511 H   0  0  0  0  0  0
  -27.8683  -30.4403   23.9204 H   0  0  0  0  0  0
  -27.2694  -33.3603   26.2053 H   0  0  0  0  0  0
  -28.3891  -32.6776   25.0355 H   0  0  0  0  0  0
  -28.0667  -31.8406   26.5452 H   0  0  0  0  0  0
  -28.2534  -38.0146   24.7558 H   0  0  0  0  0  0
  -28.1138  -36.2673   24.6195 H   0  0  0  0  0  0
  -27.2305  -37.1334   25.8849 H   0  0  0  0  0  0
  -20.9333  -29.8791   21.6973 H   0  0  0  0  0  0
  -26.0179  -38.2881   24.1473 H   0  0  0  0  0  0
  -28.9732  -20.3003   23.8361 H   0  0  0  0  0  0
  -29.0765  -20.7377   18.7177 H   0  0  0  0  0  0
  -30.8052  -20.4690   18.6817 H   0  0  0  0  0  0
  -30.2973  -22.8992   18.6810 H   0  0  0  0  0  0
  -31.2241  -22.4426   20.0938 H   0  0  0  0  0  0
  -29.7643  -22.5880   22.4919 H   0  0  0  0  0  0
  -29.1712  -18.1950   24.9392 H   0  0  0  0  0  0
  -30.7787  -17.5945   24.5473 H   0  0  0  0  0  0
  -29.3469  -16.7213   23.9903 H   0  0  0  0  0  0
  -26.8629  -21.9301   21.7437 H   0  0  0  0  0  0
  -27.3886  -23.4577   22.4460 H   0  0  0  0  0  0
  -27.5276  -21.9890   23.3708 H   0  0  0  0  0  0
  -31.5398  -16.5010   22.5597 H   0  0  0  0  0  0
  -31.8417  -16.8222   20.8983 H   0  0  0  0  0  0
  -29.3868  -24.6650   21.7221 H   0  0  0  0  0  0
  -30.3032  -24.7387   20.2507 H   0  0  0  0  0  0
  -27.2792  -24.8853   20.4885 H   0  0  0  0  0  0
  -28.1275  -24.9603   18.9510 H   0  0  0  0  0  0
  -29.3282  -15.3752   21.7054 H   0  0  0  0  0  0
  -28.3358  -22.7720   19.9956 H   0  0  0  0  0  0
  1 25  1  0  0  0
  1 30  2  0  0  0
  1 85  1  0  0  0
  2  3  1  0  0  0
  2 25  1  0  0  0
  2 87  1  0  0  0
  2 88  1  0  0  0
  3  4  1  0  0  0
  3 89  1  0  0  0
  3 90  1  0  0  0
  4  5  1  0  0  0
  4 91  1  0  0  0
  4 92  1  0  0  0
  5  6  1  0  0  0
  5 26  1  0  0  0
  5 93  1  0  0  0
  6 25  1  0  0  0
  6 94  1  0  0  0
  6 95  1  0  0  0
  7  8  2  0  0  0
  7 26  1  0  0  0
  7 29  1  0  0  0
  8  9  1  0  0  0
  8 22  1  0  0  0
  9 10  1  0  0  0
  9 27  2  0  0  0
 10 11  2  0  0  0
 10 15  1  0  0  0
 11 12  1  0  0  0
 11 96  1  0  0  0
 12 13  2  0  0  0
 12 97  1  0  0  0
 13 14  1  0  0  0
 13 31  1  0  0  0
 14 15  2  0  0  0
 14 98  1  0  0  0
 15 99  1  0  0  0
 16 17  2  0  0  0
 16 21  1  0  0  0
 16 31  1  0  0  0
 17 18  1  0  0  0
 17100  1  0  0  0
 18 19  2  0  0  0
 18101  1  0  0  0
 19 20  1  0  0  0
 19 24  1  0  0  0
 20 21  2  0  0  0
 20102  1  0  0  0
 21 23  1  0  0  0
 22 28  1  0  0  0
 22 32  2  0  0  0
 26 27  1  0  0  0
 28103  1  0  0  0
 28104  1  0  0  0
 29105  1  0  0  0
 29106  1  0  0  0
 33 34  1  0  0  0
 33 66  1  0  0  0
 33 70  2  0  0  0
 34 36  1  0  0  0
 34 59  1  0  0  0
 34107  1  0  0  0
 35 44  2  0  0  0
 35 45  1  0  0  0
 35 68  1  0  0  0
 36 56  1  0  0  0
 36108  1  0  0  0
 37 39  1  0  0  0
 37 47  1  0  0  0
 37 66  1  0  0  0
 37109  1  0  0  0
 38 43  2  0  0  0
 38 46  1  0  0  0
 38 47  1  0  0  0
 39 64  1  0  0  0
 39 67  2  0  0  0
 40 52  1  0  0  0
 40 53  2  0  0  0
 40 58  1  0  0  0
 41110  1  0  0  0
 41111  1  0  0  0
 41112  1  0  0  0
 41 48  1  0  0  0
 42 43  1  0  0  0
 42 66  1  0  0  0
 42113  1  0  0  0
 42114  1  0  0  0
 43 44  1  0  0  0
 44115  1  0  0  0
 45 46  2  0  0  0
 45116  1  0  0  0
 46117  1  0  0  0
 47118  1  0  0  0
 47119  1  0  0  0
 48 56  1  0  0  0
 48 65  1  0  0  0
 48120  1  0  0  0
 49 50  1  0  0  0
 49 53  1  0  0  0
 49 64  1  0  0  0
 49121  1  0  0  0
 50 51  1  0  0  0
 50122  1  0  0  0
 50123  1  0  0  0
 51 52  1  0  0  0
 51124  1  0  0  0
 51125  1  0  0  0
 52126  1  0  0  0
 52127  1  0  0  0
 53 54  1  0  0  0
 54 55  2  0  0  0
 54128  1  0  0  0
 55 57  1  0  0  0
 55129  1  0  0  0
 56 69  2  0  0  0
 57 58  2  0  0  0
 57130  1  0  0  0
 58131  1  0  0  0
 59 60  1  0  0  0
 59 61  1  0  0  0
 59 62  1  0  0  0
 60132  1  0  0  0
 60133  1  0  0  0
 60134  1  0  0  0
 61135  1  0  0  0
 61136  1  0  0  0
 61137  1  0  0  0
 62138  1  0  0  0
 62139  1  0  0  0
 62140  1  0  0  0
 63 65  1  0  0  0
 63141  1  0  0  0
 63142  1  0  0  0
 63143  1  0  0  0
 64144  1  0  0  0
 65145  1  0  0  0
 68 83  1  0  0  0
 71 72  2  0  0  0
 71 73  1  0  0  0
 71146  1  0  0  0
 72 74  1  0  0  0
 72 78  1  0  0  0
 73 75  2  0  0  0
 73 79  1  0  0  0
 74 76  1  0  0  0
 74 84  2  0  0  0
 75 81  1  0  0  0
 75 84  1  0  0  0
 76 77  1  0  0  0
 76147  1  0  0  0
 76148  1  0  0  0
 77 86  1  0  0  0
 77149  1  0  0  0
 77150  1  0  0  0
 78 80  1  0  0  0
 78 86  1  0  0  0
 78151  1  0  0  0
 79152  1  0  0  0
 79153  1  0  0  0
 79154  1  0  0  0
 80155  1  0  0  0
 80156  1  0  0  0
 80157  1  0  0  0
 81 85  1  0  0  0
 81158  1  0  0  0
 81159  1  0  0  0
 82 83  1  0  0  0
 82160  1  0  0  0
 82161  1  0  0  0
 82 86  1  0  0  0
 83162  1  0  0  0
 83163  1  0  0  0
 85164  1  0  0  0
 86165  1  0  0  0
M  CHG  1  86   1
M  ISO  4   1 100  68 101  83 101  85 100
M  END
> <chiral flag>
0

> <version>
0

> <s_m_source_file>
/data/baiqing/PycharmProjects/Reinvent-master-3.2/result/LINK_invent/BTK/process_docking_weight1_custom_sum_contain_oxygen_bond_distance_aromatic_linkinvent_7_9_3/rearranged_h_0168.sdf

> <i_m_source_file_index>
71

> <r_mmod_Potential_Energy-OPLS-2005>
-404.996856689453

> <r_mmod_Stretch_Energy-OPLS-2005>
42.8749160766602

> <r_mmod_Bend_Energy-OPLS-2005>
103.431938171387

> <r_mmod_Torsional_Energy-OPLS-2005>
227.974502563477

> <r_mmod_Improper_Torsional_Energy-OPLS-2005>
2.8650267124176

> <r_mmod_Van_der_Waal_Energy-OPLS-2005>
171.436218261719

> <r_mmod_Electrostatic_Energy-OPLS-2005>
-527.461547851562

> <r_mmod_Solvation_Energy-OPLS-2005>
-443.442413330078

> <b_mmod_Minimization_Converged-OPLS-2005>
0

> <r_mmod_RMS_Derivative-OPLS-2005>
2.34371304512024

$$$$
71
                    3D
 Structure written by MMmdl.
160169  0  0  1  0            999 V2000
  -30.4207  -15.3496   20.4833 C   0  0  0  0  0  0
  -30.4571  -12.8791   19.5977 C   0  0  0  0  0  0
  -29.5788  -12.6265   18.3438 C   0  0  0  0  0  0
  -28.1212  -12.3260   18.7338 C   0  0  0  0  0  0
  -27.6286  -13.2855   19.8454 C   0  0  2  0  0  0
  -28.6447  -13.4642   20.9992 C   0  0  0  0  0  0
  -25.2482  -13.8282   20.5792 C   0  0  0  0  0  0
  -24.1803  -13.0465   20.9252 C   0  0  0  0  0  0
  -24.6428  -11.6950   20.8742 C   0  0  0  0  0  0
  -23.9116  -10.4342   21.0373 C   0  0  0  0  0  0
  -24.3677   -9.4256   21.9146 C   0  0  0  0  0  0
  -23.6350   -8.2289   22.0722 C   0  0  0  0  0  0
  -22.4325   -8.0320   21.3540 C   0  0  0  0  0  0
  -21.9972   -9.0280   20.4622 C   0  0  0  0  0  0
  -22.7280  -10.2167   20.3020 C   0  0  0  0  0  0
  -21.6839   -6.0724   22.5264 C   0  0  0  0  0  0
  -21.3996   -6.5613   23.8209 C   0  0  0  0  0  0
  -21.3677   -5.6763   24.9166 C   0  0  0  0  0  0
  -21.6086   -4.3031   24.7164 C   0  0  0  0  0  0
  -21.8829   -3.8122   23.4266 C   0  0  0  0  0  0
  -21.9218   -4.6969   22.3362 C   0  0  0  0  0  0
  -22.7811  -13.5289   21.1833 C   0  0  0  0  0  0
  -22.1666   -4.2183   21.0927 F   0  0  0  0  0  0
  -21.5700   -3.4499   25.7652 F   0  0  0  0  0  0
  -29.8688  -14.0219   20.4057 N   0  0  0  0  0  0
  -26.2936  -12.9551   20.3269 N   0  0  0  0  0  0
  -25.9398  -11.6662   20.5704 N   0  0  0  0  0  0
  -22.0348  -12.8392   22.0364 N   0  0  0  0  0  0
  -25.4191  -15.1993   20.4241 N   0  0  0  0  0  0
  -31.6133  -15.3360   20.1264 O   0  0  0  0  0  0
  -21.6655   -6.8894   21.4227 O   0  0  0  0  0  0
  -22.3532  -14.5568   20.6547 O   0  0  0  0  0  0
  -24.6695  -31.8120   23.1639 C   0  0  0  0  0  0
  -25.9362  -32.4478   23.8135 C   0  0  1  0  0  0
  -27.2316  -26.8710   20.2249 C   0  0  0  0  0  0
  -25.6047  -33.8310   24.2021 N   0  0  0  0  0  0
  -23.4885  -30.4196   21.5128 C   0  0  2  0  0  0
  -24.9462  -28.7891   20.1220 C   0  0  0  0  0  0
  -22.7712  -29.4369   22.4763 C   0  0  0  0  0  0
  -18.0331  -28.1401   22.8449 C   0  0  0  0  0  0
  -24.1505  -36.7191   23.2636 C   0  0  0  0  0  0
  -26.0597  -30.6023   21.4067 C   0  0  0  0  0  0
  -26.1278  -29.1840   20.7611 C   0  0  0  0  0  0
  -27.2653  -28.2476   20.7801 C   0  0  0  0  0  0
  -26.0224  -26.6383   19.5318 C   0  0  0  0  0  0
  -24.9130  -27.5371   19.4874 C   0  0  0  0  0  0
  -23.7360  -29.7272   20.1445 C   0  0  0  0  0  0
  -25.4146  -36.2904   24.0264 C   0  0  1  0  0  0
  -20.5962  -28.3768   23.1176 C   0  0  2  0  0  0
  -20.6812  -26.9446   22.5385 C   0  0  0  0  0  0
  -19.5782  -26.6375   21.5209 C   0  0  0  0  0  0
  -18.1963  -26.7930   22.1612 C   0  0  0  0  0  0
  -19.1596  -28.8917   23.2791 C   0  0  0  0  0  0
  -18.9518  -30.1538   23.8778 C   0  0  0  0  0  0
  -17.6493  -30.6573   24.0559 C   0  0  0  0  0  0
  -25.9148  -34.9278   23.4969 C   0  0  0  0  0  0
  -16.5391  -29.9044   23.6352 C   0  0  0  0  0  0
  -16.7314  -28.6499   23.0311 C   0  0  0  0  0  0
  -26.4599  -31.6430   25.0684 C   0  0  0  0  0  0
  -25.3745  -31.3709   26.1383 C   0  0  0  0  0  0
  -27.0526  -30.2765   24.6481 C   0  0  0  0  0  0
  -27.6071  -32.4259   25.7503 C   0  0  0  0  0  0
  -27.5573  -37.1745   24.8451 C   0  0  0  0  0  0
  -21.4368  -29.3050   22.3538 N   0  0  0  0  0  0
  -26.4274  -37.3659   23.9387 N   0  0  0  0  0  0
  -24.7594  -30.9751   22.0805 N   0  0  0  0  0  0
  -23.4238  -28.8018   23.3081 O   0  0  0  0  0  0
  -28.2478  -25.7553   20.2750 O   0  0  0  0  0  0
  -26.5773  -34.8813   22.4571 O   0  0  0  0  0  0
  -23.5746  -32.1189   23.6668 O   0  0  0  0  0  0
  -28.4567  -19.0897   23.4305 C   0  0  0  0  0  0
  -28.8316  -18.5823   22.1693 C   0  0  0  0  0  0
  -29.1755  -19.4552   21.0997 C   0  0  0  0  0  0
  -28.5366  -20.4687   23.6864 C   0  0  0  0  0  0
  -28.9658  -21.0396   21.2421 C   0  0  0  0  0  0
  -28.8557  -21.3921   22.6459 C   0  0  0  0  0  0
  -28.9352  -17.0263   21.9179 C   0  0  0  0  0  0
  -29.7959  -18.2136   20.1423 C   0  0  0  0  0  0
  -28.3314  -20.9321   25.1431 C   0  0  0  0  0  0
  -29.2077  -22.7962   23.1531 C   0  0  0  0  0  0
  -28.6769  -22.0889   18.7694 C   0  0  0  0  0  0
  -28.0141  -24.1097   20.4793 C   0  0  0  0  0  0
  -28.9219  -22.5070   20.2503 C   0  0  1  0  0  0
  -29.6890  -16.6612   20.6791 N   0  0  0  0  0  0
  -31.4825  -13.0885   19.2841 H   0  0  0  0  0  0
  -30.5461  -11.9734   20.1958 H   0  0  0  0  0  0
  -30.0002  -11.8074   17.7618 H   0  0  0  0  0  0
  -29.6145  -13.5130   17.7079 H   0  0  0  0  0  0
  -28.0950  -11.2964   19.0975 H   0  0  0  0  0  0
  -27.4755  -12.3790   17.8576 H   0  0  0  0  0  0
  -27.5507  -14.2565   19.3532 H   0  0  0  0  0  0
  -28.8288  -12.5212   21.5224 H   0  0  0  0  0  0
  -28.2645  -14.1620   21.7456 H   0  0  0  0  0  0
  -25.2817   -9.5739   22.4732 H   0  0  0  0  0  0
  -24.0049   -7.4673   22.7452 H   0  0  0  0  0  0
  -21.0900   -8.8788   19.8913 H   0  0  0  0  0  0
  -22.3729  -10.9701   19.6143 H   0  0  0  0  0  0
  -21.1878   -7.6085   23.9735 H   0  0  0  0  0  0
  -21.1560   -6.0437   25.9091 H   0  0  0  0  0  0
  -22.0584   -2.7586   23.2738 H   0  0  0  0  0  0
  -22.3880  -12.0144   22.5001 H   0  0  0  0  0  0
  -21.0918  -13.1440   22.2257 H   0  0  0  0  0  0
  -24.6656  -15.8656   20.5397 H   0  0  0  0  0  0
  -26.2828  -15.6259   20.1064 H   0  0  0  0  0  0
  -26.7449  -32.5011   23.0870 H   0  0  0  0  0  0
  -25.0068  -33.9362   25.0086 H   0  0  0  0  0  0
  -22.8043  -31.2539   21.3306 H   0  0  0  0  0  0
  -23.3749  -35.9543   23.3192 H   0  0  0  0  0  0
  -24.3640  -36.8946   22.2085 H   0  0  0  0  0  0
  -23.7277  -37.6326   23.6803 H   0  0  0  0  0  0
  -26.2512  -31.3310   20.6215 H   0  0  0  0  0  0
  -26.9127  -30.6703   22.0684 H   0  0  0  0  0  0
  -28.1590  -28.5542   21.3013 H   0  0  0  0  0  0
  -25.9087  -25.6855   19.0340 H   0  0  0  0  0  0
  -24.0192  -27.2150   18.9736 H   0  0  0  0  0  0
  -23.9127  -30.4888   19.3845 H   0  0  0  0  0  0
  -22.8465  -29.1837   19.8202 H   0  0  0  0  0  0
  -25.1345  -36.1643   25.0752 H   0  0  0  0  0  0
  -21.0035  -28.3354   24.1313 H   0  0  0  0  0  0
  -20.5648  -26.2427   23.3659 H   0  0  0  0  0  0
  -21.6673  -26.7391   22.1228 H   0  0  0  0  0  0
  -19.6922  -25.6267   21.1281 H   0  0  0  0  0  0
  -19.6642  -27.3148   20.6704 H   0  0  0  0  0  0
  -17.4230  -26.6689   21.4002 H   0  0  0  0  0  0
  -18.0312  -26.0080   22.9023 H   0  0  0  0  0  0
  -19.8007  -30.7418   24.1995 H   0  0  0  0  0  0
  -17.5035  -31.6209   24.5237 H   0  0  0  0  0  0
  -15.5381  -30.2897   23.7702 H   0  0  0  0  0  0
  -15.8744  -28.0797   22.6964 H   0  0  0  0  0  0
  -24.5919  -30.7047   25.7714 H   0  0  0  0  0  0
  -24.8996  -32.2939   26.4713 H   0  0  0  0  0  0
  -25.8024  -30.8938   27.0222 H   0  0  0  0  0  0
  -26.3238  -29.6373   24.1483 H   0  0  0  0  0  0
  -27.4014  -29.7160   25.5165 H   0  0  0  0  0  0
  -27.9175  -30.3838   23.9938 H   0  0  0  0  0  0
  -27.2570  -33.3574   26.1959 H   0  0  0  0  0  0
  -28.3948  -32.6774   25.0387 H   0  0  0  0  0  0
  -28.0689  -31.8493   26.5534 H   0  0  0  0  0  0
  -28.2508  -38.0112   24.7558 H   0  0  0  0  0  0
  -28.1145  -36.2651   24.6182 H   0  0  0  0  0  0
  -27.2356  -37.1252   25.8868 H   0  0  0  0  0  0
  -20.9651  -29.8785   21.6667 H   0  0  0  0  0  0
  -26.0073  -38.2679   24.1422 H   0  0  0  0  0  0
  -28.2026  -18.4252   24.2508 H   0  0  0  0  0  0
  -27.9194  -16.6355   21.8219 H   0  0  0  0  0  0
  -29.3628  -16.5424   22.8004 H   0  0  0  0  0  0
  -30.8527  -18.4182   19.9700 H   0  0  0  0  0  0
  -29.3243  -18.2619   19.1583 H   0  0  0  0  0  0
  -27.7676  -20.2084   25.7338 H   0  0  0  0  0  0
  -27.7686  -21.8678   25.2102 H   0  0  0  0  0  0
  -29.2831  -21.0808   25.6640 H   0  0  0  0  0  0
  -29.8699  -22.7342   24.0216 H   0  0  0  0  0  0
  -28.3110  -23.3348   23.4618 H   0  0  0  0  0  0
  -29.7909  -23.4056   22.4664 H   0  0  0  0  0  0
  -29.3643  -21.3092   18.4222 H   0  0  0  0  0  0
  -28.8173  -22.9288   18.0887 H   0  0  0  0  0  0
  -27.6597  -21.7205   18.6031 H   0  0  0  0  0  0
  -27.6342  -24.0883   21.4967 H   0  0  0  0  0  0
  -27.0996  -23.9295   19.9133 H   0  0  0  0  0  0
  -29.9737  -22.8064   20.2617 H   0  0  0  0  0  0
  1 25  1  0  0  0
  1 30  2  0  0  0
  1 84  1  0  0  0
  2  3  1  0  0  0
  2 25  1  0  0  0
  2 85  1  0  0  0
  2 86  1  0  0  0
  3  4  1  0  0  0
  3 87  1  0  0  0
  3 88  1  0  0  0
  4  5  1  0  0  0
  4 89  1  0  0  0
  4 90  1  0  0  0
  5  6  1  0  0  0
  5 26  1  0  0  0
  5 91  1  0  0  0
  6 25  1  0  0  0
  6 92  1  0  0  0
  6 93  1  0  0  0
  7  8  2  0  0  0
  7 26  1  0  0  0
  7 29  1  0  0  0
  8  9  1  0  0  0
  8 22  1  0  0  0
  9 10  1  0  0  0
  9 27  2  0  0  0
 10 11  2  0  0  0
 10 15  1  0  0  0
 11 12  1  0  0  0
 11 94  1  0  0  0
 12 13  2  0  0  0
 12 95  1  0  0  0
 13 14  1  0  0  0
 13 31  1  0  0  0
 14 15  2  0  0  0
 14 96  1  0  0  0
 15 97  1  0  0  0
 16 17  2  0  0  0
 16 21  1  0  0  0
 16 31  1  0  0  0
 17 18  1  0  0  0
 17 98  1  0  0  0
 18 19  2  0  0  0
 18 99  1  0  0  0
 19 20  1  0  0  0
 19 24  1  0  0  0
 20 21  2  0  0  0
 20100  1  0  0  0
 21 23  1  0  0  0
 22 28  1  0  0  0
 22 32  2  0  0  0
 26 27  1  0  0  0
 28101  1  0  0  0
 28102  1  0  0  0
 29103  1  0  0  0
 29104  1  0  0  0
 33 34  1  0  0  0
 33 66  1  0  0  0
 33 70  2  0  0  0
 34 36  1  0  0  0
 34 59  1  0  0  0
 34105  1  0  0  0
 35 44  2  0  0  0
 35 45  1  0  0  0
 35 68  1  0  0  0
 36 56  1  0  0  0
 36106  1  0  0  0
 37 39  1  0  0  0
 37 47  1  0  0  0
 37 66  1  0  0  0
 37107  1  0  0  0
 38 43  2  0  0  0
 38 46  1  0  0  0
 38 47  1  0  0  0
 39 64  1  0  0  0
 39 67  2  0  0  0
 40 52  1  0  0  0
 40 53  2  0  0  0
 40 58  1  0  0  0
 41108  1  0  0  0
 41109  1  0  0  0
 41110  1  0  0  0
 41 48  1  0  0  0
 42 43  1  0  0  0
 42 66  1  0  0  0
 42111  1  0  0  0
 42112  1  0  0  0
 43 44  1  0  0  0
 44113  1  0  0  0
 45 46  2  0  0  0
 45114  1  0  0  0
 46115  1  0  0  0
 47116  1  0  0  0
 47117  1  0  0  0
 48 56  1  0  0  0
 48 65  1  0  0  0
 48118  1  0  0  0
 49 50  1  0  0  0
 49 53  1  0  0  0
 49 64  1  0  0  0
 49119  1  0  0  0
 50 51  1  0  0  0
 50120  1  0  0  0
 50121  1  0  0  0
 51 52  1  0  0  0
 51122  1  0  0  0
 51123  1  0  0  0
 52124  1  0  0  0
 52125  1  0  0  0
 53 54  1  0  0  0
 54 55  2  0  0  0
 54126  1  0  0  0
 55 57  1  0  0  0
 55127  1  0  0  0
 56 69  2  0  0  0
 57 58  2  0  0  0
 57128  1  0  0  0
 58129  1  0  0  0
 59 60  1  0  0  0
 59 61  1  0  0  0
 59 62  1  0  0  0
 60130  1  0  0  0
 60131  1  0  0  0
 60132  1  0  0  0
 61133  1  0  0  0
 61134  1  0  0  0
 61135  1  0  0  0
 62136  1  0  0  0
 62137  1  0  0  0
 62138  1  0  0  0
 63 65  1  0  0  0
 63139  1  0  0  0
 63140  1  0  0  0
 63141  1  0  0  0
 64142  1  0  0  0
 65143  1  0  0  0
 68 82  1  0  0  0
 71 72  2  0  0  0
 71 74  1  0  0  0
 71144  1  0  0  0
 72 73  1  0  0  0
 72 77  1  0  0  0
 73 75  2  0  0  0
 73 78  1  0  0  0
 74 76  2  0  0  0
 74 79  1  0  0  0
 75 76  1  0  0  0
 75 83  1  0  0  0
 76 80  1  0  0  0
 77 84  1  0  0  0
 77145  1  0  0  0
 77146  1  0  0  0
 78 84  1  0  0  0
 78147  1  0  0  0
 78148  1  0  0  0
 79149  1  0  0  0
 79150  1  0  0  0
 79151  1  0  0  0
 80152  1  0  0  0
 80153  1  0  0  0
 80154  1  0  0  0
 81155  1  0  0  0
 81156  1  0  0  0
 81157  1  0  0  0
 81 83  1  0  0  0
 82 83  1  0  0  0
 82158  1  0  0  0
 82159  1  0  0  0
 83160  1  0  0  0
M  ISO  4   1 100  68 101  82 101  84 100
M  END
> <chiral flag>
0

> <version>
0

> <s_m_source_file>
/data/baiqing/PycharmProjects/Reinvent-master-3.2/result/LINK_invent/BTK/process_docking_weight1_custom_sum_contain_oxygen_bond_distance_aromatic_linkinvent_7_9_3/rearranged_h_0168.sdf

> <i_m_source_file_index>
72

> <r_mmod_Potential_Energy-OPLS-2005>
1697.193359375

> <r_mmod_Stretch_Energy-OPLS-2005>
703.39794921875

> <r_mmod_Bend_Energy-OPLS-2005>
567.244201660156

> <r_mmod_Torsional_Energy-OPLS-2005>
305.517547607422

> <r_mmod_Improper_Torsional_Energy-OPLS-2005>
8.65126800537109

> <r_mmod_Van_der_Waal_Energy-OPLS-2005>
126.352607727051

> <r_mmod_Electrostatic_Energy-OPLS-2005>
-346.156127929688

> <r_mmod_Solvation_Energy-OPLS-2005>
-208.935897827148

> <b_mmod_Minimization_Converged-OPLS-2005>
0

> <r_mmod_RMS_Derivative-OPLS-2005>
10.215181350708

$$$$
72
                    3D
 Structure written by MMmdl.
155164  0  0  1  0            999 V2000
  -30.4630  -15.0909   20.2964 C   0  0  0  0  0  0
  -30.4685  -12.6459   19.5204 C   0  0  0  0  0  0
  -29.5530  -12.3561   18.3016 C   0  0  0  0  0  0
  -28.0584  -12.2602   18.6980 C   0  0  0  0  0  0
  -27.6139  -13.2252   19.8348 C   0  0  2  0  0  0
  -28.6694  -13.3517   20.9495 C   0  0  0  0  0  0
  -25.2430  -13.8094   20.5800 C   0  0  0  0  0  0
  -24.1728  -13.0342   20.9292 C   0  0  0  0  0  0
  -24.6351  -11.6830   20.8883 C   0  0  0  0  0  0
  -23.9042  -10.4212   21.0474 C   0  0  0  0  0  0
  -24.3584   -9.4117   21.9221 C   0  0  0  0  0  0
  -23.6266   -8.2156   22.0739 C   0  0  0  0  0  0
  -22.4251   -8.0226   21.3520 C   0  0  0  0  0  0
  -21.9908   -9.0209   20.4618 C   0  0  0  0  0  0
  -22.7241  -10.2086   20.3075 C   0  0  0  0  0  0
  -21.6820   -6.0710   22.5293 C   0  0  0  0  0  0
  -21.3960   -6.5605   23.8223 C   0  0  0  0  0  0
  -21.3677   -5.6771   24.9191 C   0  0  0  0  0  0
  -21.6060   -4.3036   24.7251 C   0  0  0  0  0  0
  -21.8817   -3.8125   23.4369 C   0  0  0  0  0  0
  -21.9171   -4.6940   22.3420 C   0  0  0  0  0  0
  -22.7748  -13.5129   21.1974 C   0  0  0  0  0  0
  -22.1634   -4.2116   21.1006 F   0  0  0  0  0  0
  -21.5690   -3.4535   25.7775 F   0  0  0  0  0  0
  -29.9151  -13.7925   20.3031 N   0  0  0  0  0  0
  -26.2830  -12.9251   20.3388 N   0  0  0  0  0  0
  -25.9280  -11.6424   20.5944 N   0  0  0  0  0  0
  -22.0404  -12.8092   22.0512 N   0  0  0  0  0  0
  -25.4121  -15.1823   20.4214 N   0  0  0  0  0  0
  -31.7018  -15.1386   20.2628 O   0  0  0  0  0  0
  -21.6586   -6.8848   21.4241 O   0  0  0  0  0  0
  -22.3447  -14.5477   20.6890 O   0  0  0  0  0  0
  -24.6464  -31.8415   23.1821 C   0  0  0  0  0  0
  -25.9233  -32.4673   23.8225 C   0  0  1  0  0  0
  -27.2213  -27.0790   20.1900 C   0  0  0  0  0  0
  -25.5971  -33.8478   24.2138 N   0  0  0  0  0  0
  -23.4511  -30.4549   21.5305 C   0  0  2  0  0  0
  -24.9023  -28.8589   20.1227 C   0  0  0  0  0  0
  -22.7579  -29.4539   22.4891 C   0  0  0  0  0  0
  -18.0351  -28.1437   22.8462 C   0  0  0  0  0  0
  -24.1512  -36.7244   23.2641 C   0  0  0  0  0  0
  -26.0083  -30.6960   21.3871 C   0  0  0  0  0  0
  -26.0809  -29.2969   20.7388 C   0  0  0  0  0  0
  -27.2380  -28.4259   20.7512 C   0  0  0  0  0  0
  -26.0157  -26.7472   19.5363 C   0  0  0  0  0  0
  -24.8832  -27.5947   19.5093 C   0  0  0  0  0  0
  -23.6793  -29.7682   20.1561 C   0  0  0  0  0  0
  -25.4148  -36.3009   24.0295 C   0  0  1  0  0  0
  -20.5971  -28.3725   23.1273 C   0  0  2  0  0  0
  -20.6828  -26.9450   22.5412 C   0  0  0  0  0  0
  -19.5781  -26.6380   21.5246 C   0  0  0  0  0  0
  -18.1962  -26.7996   22.1605 C   0  0  0  0  0  0
  -19.1617  -28.8894   23.2869 C   0  0  0  0  0  0
  -18.9568  -30.1476   23.8900 C   0  0  0  0  0  0
  -17.6579  -30.6618   24.0590 C   0  0  0  0  0  0
  -25.9081  -34.9389   23.5015 C   0  0  0  0  0  0
  -16.5466  -29.9130   23.6350 C   0  0  0  0  0  0
  -16.7344  -28.6567   23.0349 C   0  0  0  0  0  0
  -26.4520  -31.6558   25.0696 C   0  0  0  0  0  0
  -25.3670  -31.3791   26.1359 C   0  0  0  0  0  0
  -27.0404  -30.2950   24.6333 C   0  0  0  0  0  0
  -27.6046  -32.4322   25.7491 C   0  0  0  0  0  0
  -27.5580  -37.1792   24.8468 C   0  0  0  0  0  0
  -21.4285  -29.3040   22.3620 N   0  0  0  0  0  0
  -26.4310  -37.3728   23.9370 N   0  0  0  0  0  0
  -24.7225  -31.0214   22.0883 N   0  0  0  0  0  0
  -23.4211  -28.8118   23.3091 O   0  0  0  0  0  0
  -28.2893  -26.0928   20.2042 O   0  0  0  0  0  0
  -26.5677  -34.8900   22.4604 O   0  0  0  0  0  0
  -23.5563  -32.1320   23.6990 O   0  0  0  0  0  0
  -29.5865  -19.0311   20.5064 C   0  0  0  0  0  0
  -28.0469  -19.2449   18.2753 C   0  0  0  0  0  0
  -28.5614  -17.9862   18.6350 C   0  0  0  0  0  0
  -29.3683  -17.7412   19.7640 C   0  0  0  0  0  0
  -29.0268  -20.3700   20.0614 C   0  0  0  0  0  0
  -29.3602  -15.8235   18.3473 C   0  0  0  0  0  0
  -28.2847  -16.7549   17.8385 C   0  0  2  0  0  0
  -28.3025  -16.9032   16.3110 C   0  0  0  0  0  0
  -28.8767  -23.1678   19.9490 C   0  0  0  0  0  0
  -28.1240  -24.5684   20.5995 C   0  0  0  0  0  0
  -28.2816  -20.3852   18.9468 N   0  0  0  0  0  0
  -29.6773  -16.1855   19.7413 N   0  0  0  0  0  0
  -29.0786  -21.7489   20.6406 N   0  0  0  0  0  0
  -31.4796  -12.8625   19.1703 H   0  0  0  0  0  0
  -30.5589  -11.7657   20.1568 H   0  0  0  0  0  0
  -29.8577  -11.4094   17.8531 H   0  0  0  0  0  0
  -29.7183  -13.0686   17.4975 H   0  0  0  0  0  0
  -27.9097  -11.2354   19.0387 H   0  0  0  0  0  0
  -27.4209  -12.3778   17.8232 H   0  0  0  0  0  0
  -27.5045  -14.2023   19.3843 H   0  0  0  0  0  0
  -28.7999  -12.4091   21.4855 H   0  0  0  0  0  0
  -28.3545  -14.0915   21.6877 H   0  0  0  0  0  0
  -25.2724   -9.5581   22.4791 H   0  0  0  0  0  0
  -23.9983   -7.4517   22.7426 H   0  0  0  0  0  0
  -21.0854   -8.8719   19.8899 H   0  0  0  0  0  0
  -22.3723  -10.9619   19.6183 H   0  0  0  0  0  0
  -21.1875   -7.6101   23.9720 H   0  0  0  0  0  0
  -21.1530   -6.0499   25.9106 H   0  0  0  0  0  0
  -22.0589   -2.7585   23.2888 H   0  0  0  0  0  0
  -22.4054  -11.9764   22.4888 H   0  0  0  0  0  0
  -21.1023  -13.1091   22.2768 H   0  0  0  0  0  0
  -24.6479  -15.8378   20.5411 H   0  0  0  0  0  0
  -26.2805  -15.6281   20.1571 H   0  0  0  0  0  0
  -26.7315  -32.5257   23.0944 H   0  0  0  0  0  0
  -25.0095  -33.9591   25.0264 H   0  0  0  0  0  0
  -22.7529  -31.2793   21.3681 H   0  0  0  0  0  0
  -23.3772  -35.9582   23.3315 H   0  0  0  0  0  0
  -24.3579  -36.8867   22.2054 H   0  0  0  0  0  0
  -23.7284  -37.6449   23.6671 H   0  0  0  0  0  0
  -26.1645  -31.4440   20.6078 H   0  0  0  0  0  0
  -26.8763  -30.7509   22.0312 H   0  0  0  0  0  0
  -28.1328  -28.7595   21.2565 H   0  0  0  0  0  0
  -25.9343  -25.7808   19.0601 H   0  0  0  0  0  0
  -23.9784  -27.2471   19.0266 H   0  0  0  0  0  0
  -23.8126  -30.5340   19.3912 H   0  0  0  0  0  0
  -22.7949  -29.2060   19.8540 H   0  0  0  0  0  0
  -25.1354  -36.1828   25.0798 H   0  0  0  0  0  0
  -21.0091  -28.3313   24.1390 H   0  0  0  0  0  0
  -20.5800  -26.2342   23.3607 H   0  0  0  0  0  0
  -21.6677  -26.7539   22.1129 H   0  0  0  0  0  0
  -19.6884  -25.6234   21.1378 H   0  0  0  0  0  0
  -19.6752  -27.3070   20.6690 H   0  0  0  0  0  0
  -17.4270  -26.6729   21.3957 H   0  0  0  0  0  0
  -18.0325  -26.0158   22.9025 H   0  0  0  0  0  0
  -19.8070  -30.7276   24.2244 H   0  0  0  0  0  0
  -17.5189  -31.6266   24.5258 H   0  0  0  0  0  0
  -15.5473  -30.3037   23.7718 H   0  0  0  0  0  0
  -15.8733  -28.0858   22.7096 H   0  0  0  0  0  0
  -24.5859  -30.7142   25.7649 H   0  0  0  0  0  0
  -24.8853  -32.3010   26.4650 H   0  0  0  0  0  0
  -25.7894  -30.9039   27.0218 H   0  0  0  0  0  0
  -26.3059  -29.6655   24.1302 H   0  0  0  0  0  0
  -27.3969  -29.7270   25.4931 H   0  0  0  0  0  0
  -27.8970  -30.4192   23.9699 H   0  0  0  0  0  0
  -27.2649  -33.3645   26.2007 H   0  0  0  0  0  0
  -28.3889  -32.6829   25.0343 H   0  0  0  0  0  0
  -28.0666  -31.8487   26.5463 H   0  0  0  0  0  0
  -28.2612  -38.0075   24.7467 H   0  0  0  0  0  0
  -28.1067  -36.2592   24.6363 H   0  0  0  0  0  0
  -27.2279  -37.1518   25.8873 H   0  0  0  0  0  0
  -20.9510  -29.8646   21.6696 H   0  0  0  0  0  0
  -26.0171  -38.2802   24.1338 H   0  0  0  0  0  0
  -30.1919  -18.9929   21.4022 H   0  0  0  0  0  0
  -27.4280  -19.3529   17.3977 H   0  0  0  0  0  0
  -30.2761  -15.9410   17.7626 H   0  0  0  0  0  0
  -29.0155  -14.8271   18.1653 H   0  0  0  0  0  0
  -27.3101  -16.3716   18.1472 H   0  0  0  0  0  0
  -27.4644  -17.5018   15.9528 H   0  0  0  0  0  0
  -28.2174  -15.9230   15.8371 H   0  0  0  0  0  0
  -29.2286  -17.3565   15.9601 H   0  0  0  0  0  0
  -29.8955  -23.4791   19.7218 H   0  0  0  0  0  0
  -28.4252  -23.0001   18.9700 H   0  0  0  0  0  0
  -28.4090  -24.5660   21.6530 H   0  0  0  0  0  0
  -27.0564  -24.3558   20.6231 H   0  0  0  0  0  0
  -29.6145  -21.8097   21.5034 H   0  0  0  0  0  0
  1 25  1  0  0  0
  1 30  2  0  0  0
  1 82  1  0  0  0
  2  3  1  0  0  0
  2 25  1  0  0  0
  2 84  1  0  0  0
  2 85  1  0  0  0
  3  4  1  0  0  0
  3 86  1  0  0  0
  3 87  1  0  0  0
  4  5  1  0  0  0
  4 88  1  0  0  0
  4 89  1  0  0  0
  5  6  1  0  0  0
  5 26  1  0  0  0
  5 90  1  0  0  0
  6 25  1  0  0  0
  6 91  1  0  0  0
  6 92  1  0  0  0
  7  8  2  0  0  0
  7 26  1  0  0  0
  7 29  1  0  0  0
  8  9  1  0  0  0
  8 22  1  0  0  0
  9 10  1  0  0  0
  9 27  2  0  0  0
 10 11  2  0  0  0
 10 15  1  0  0  0
 11 12  1  0  0  0
 11 93  1  0  0  0
 12 13  2  0  0  0
 12 94  1  0  0  0
 13 14  1  0  0  0
 13 31  1  0  0  0
 14 15  2  0  0  0
 14 95  1  0  0  0
 15 96  1  0  0  0
 16 17  2  0  0  0
 16 21  1  0  0  0
 16 31  1  0  0  0
 17 18  1  0  0  0
 17 97  1  0  0  0
 18 19  2  0  0  0
 18 98  1  0  0  0
 19 20  1  0  0  0
 19 24  1  0  0  0
 20 21  2  0  0  0
 20 99  1  0  0  0
 21 23  1  0  0  0
 22 28  1  0  0  0
 22 32  2  0  0  0
 26 27  1  0  0  0
 28100  1  0  0  0
 28101  1  0  0  0
 29102  1  0  0  0
 29103  1  0  0  0
 33 34  1  0  0  0
 33 66  1  0  0  0
 33 70  2  0  0  0
 34 36  1  0  0  0
 34 59  1  0  0  0
 34104  1  0  0  0
 35 44  2  0  0  0
 35 45  1  0  0  0
 35 68  1  0  0  0
 36 56  1  0  0  0
 36105  1  0  0  0
 37 39  1  0  0  0
 37 47  1  0  0  0
 37 66  1  0  0  0
 37106  1  0  0  0
 38 43  2  0  0  0
 38 46  1  0  0  0
 38 47  1  0  0  0
 39 64  1  0  0  0
 39 67  2  0  0  0
 40 52  1  0  0  0
 40 53  2  0  0  0
 40 58  1  0  0  0
 41107  1  0  0  0
 41108  1  0  0  0
 41109  1  0  0  0
 41 48  1  0  0  0
 42 43  1  0  0  0
 42 66  1  0  0  0
 42110  1  0  0  0
 42111  1  0  0  0
 43 44  1  0  0  0
 44112  1  0  0  0
 45 46  2  0  0  0
 45113  1  0  0  0
 46114  1  0  0  0
 47115  1  0  0  0
 47116  1  0  0  0
 48 56  1  0  0  0
 48 65  1  0  0  0
 48117  1  0  0  0
 49 50  1  0  0  0
 49 53  1  0  0  0
 49 64  1  0  0  0
 49118  1  0  0  0
 50 51  1  0  0  0
 50119  1  0  0  0
 50120  1  0  0  0
 51 52  1  0  0  0
 51121  1  0  0  0
 51122  1  0  0  0
 52123  1  0  0  0
 52124  1  0  0  0
 53 54  1  0  0  0
 54 55  2  0  0  0
 54125  1  0  0  0
 55 57  1  0  0  0
 55126  1  0  0  0
 56 69  2  0  0  0
 57 58  2  0  0  0
 57127  1  0  0  0
 58128  1  0  0  0
 59 60  1  0  0  0
 59 61  1  0  0  0
 59 62  1  0  0  0
 60129  1  0  0  0
 60130  1  0  0  0
 60131  1  0  0  0
 61132  1  0  0  0
 61133  1  0  0  0
 61134  1  0  0  0
 62135  1  0  0  0
 62136  1  0  0  0
 62137  1  0  0  0
 63 65  1  0  0  0
 63138  1  0  0  0
 63139  1  0  0  0
 63140  1  0  0  0
 64141  1  0  0  0
 65142  1  0  0  0
 68 80  1  0  0  0
 71 74  2  0  0  0
 71 75  1  0  0  0
 71143  1  0  0  0
 72 73  2  0  0  0
 72 81  1  0  0  0
 72144  1  0  0  0
 73 74  1  0  0  0
 73 77  1  0  0  0
 74 82  1  0  0  0
 75 81  2  0  0  0
 75 83  1  0  0  0
 76 77  1  0  0  0
 76 82  1  0  0  0
 76145  1  0  0  0
 76146  1  0  0  0
 77 78  1  0  0  0
 77147  1  0  0  0
 78148  1  0  0  0
 78149  1  0  0  0
 78150  1  0  0  0
 79 80  1  0  0  0
 79 83  1  0  0  0
 79151  1  0  0  0
 79152  1  0  0  0
 80153  1  0  0  0
 80154  1  0  0  0
 83155  1  0  0  0
M  ISO  4   1 100  68 101  80 101  82 100
M  END
> <chiral flag>
0

> <version>
0

> <s_m_source_file>
/data/baiqing/PycharmProjects/Reinvent-master-3.2/result/LINK_invent/BTK/process_docking_weight1_custom_sum_contain_oxygen_bond_distance_aromatic_linkinvent_7_9_3/rearranged_h_0168.sdf

> <i_m_source_file_index>
73

> <r_mmod_Potential_Energy-OPLS-2005>
846.343811035156

> <r_mmod_Stretch_Energy-OPLS-2005>
339.9169921875

> <r_mmod_Bend_Energy-OPLS-2005>
456.095092773438

> <r_mmod_Torsional_Energy-OPLS-2005>
315.8779296875

> <r_mmod_Improper_Torsional_Energy-OPLS-2005>
24.7769184112549

> <r_mmod_Van_der_Waal_Energy-OPLS-2005>
141.762329101562

> <r_mmod_Electrostatic_Energy-OPLS-2005>
-491.46875

> <r_mmod_Solvation_Energy-OPLS-2005>
-228.656921386719

> <b_mmod_Minimization_Converged-OPLS-2005>
0

> <r_mmod_RMS_Derivative-OPLS-2005>
4.3496356010437

$$$$
73
                    3D
 Structure written by MMmdl.
163174  0  0  1  0            999 V2000
  -30.6508  -14.7852   20.4548 C   0  0  0  0  0  0
  -30.4218  -12.4865   19.4887 C   0  0  0  0  0  0
  -29.5082  -12.5028   18.2456 C   0  0  0  0  0  0
  -28.0432  -12.2979   18.6671 C   0  0  0  0  0  0
  -27.6320  -13.2234   19.8417 C   0  0  2  0  0  0
  -28.6768  -13.2350   20.9803 C   0  0  0  0  0  0
  -25.2490  -13.8172   20.5713 C   0  0  0  0  0  0
  -24.1776  -13.0425   20.9212 C   0  0  0  0  0  0
  -24.6364  -11.6899   20.8760 C   0  0  0  0  0  0
  -23.9043  -10.4287   21.0417 C   0  0  0  0  0  0
  -24.3610   -9.4199   21.9181 C   0  0  0  0  0  0
  -23.6291   -8.2230   22.0749 C   0  0  0  0  0  0
  -22.4272   -8.0281   21.3536 C   0  0  0  0  0  0
  -21.9895   -9.0252   20.4633 C   0  0  0  0  0  0
  -22.7225  -10.2132   20.3050 C   0  0  0  0  0  0
  -21.6855   -6.0729   22.5272 C   0  0  0  0  0  0
  -21.4025   -6.5625   23.8206 C   0  0  0  0  0  0
  -21.3660   -5.6773   24.9161 C   0  0  0  0  0  0
  -21.6048   -4.3040   24.7221 C   0  0  0  0  0  0
  -21.8818   -3.8136   23.4342 C   0  0  0  0  0  0
  -21.9189   -4.6955   22.3398 C   0  0  0  0  0  0
  -22.7796  -13.5219   21.1843 C   0  0  0  0  0  0
  -22.1645   -4.2129   21.0980 F   0  0  0  0  0  0
  -21.5627   -3.4531   25.7742 F   0  0  0  0  0  0
  -29.9741  -13.5821   20.3864 N   0  0  0  0  0  0
  -26.2888  -12.9355   20.3279 N   0  0  0  0  0  0
  -25.9295  -11.6512   20.5770 N   0  0  0  0  0  0
  -22.0417  -12.8255   22.0412 N   0  0  0  0  0  0
  -25.4216  -15.1893   20.4138 N   0  0  0  0  0  0
  -31.8485  -14.7944   20.1496 O   0  0  0  0  0  0
  -21.6632   -6.8884   21.4242 O   0  0  0  0  0  0
  -22.3494  -14.5514   20.6665 O   0  0  0  0  0  0
  -24.6335  -31.8537   23.1966 C   0  0  0  0  0  0
  -25.9152  -32.4746   23.8317 C   0  0  1  0  0  0
  -27.2191  -27.2461   20.1421 C   0  0  0  0  0  0
  -25.5936  -33.8547   24.2239 N   0  0  0  0  0  0
  -23.4317  -30.4748   21.5406 C   0  0  2  0  0  0
  -24.8818  -28.9186   20.1121 C   0  0  0  0  0  0
  -22.7510  -29.4593   22.4908 C   0  0  0  0  0  0
  -18.0289  -28.1394   22.8482 C   0  0  0  0  0  0
  -24.1490  -36.7282   23.2642 C   0  0  0  0  0  0
  -25.9792  -30.7618   21.3806 C   0  0  0  0  0  0
  -26.0538  -29.3816   20.7253 C   0  0  0  0  0  0
  -27.2284  -28.5585   20.7301 C   0  0  0  0  0  0
  -26.0304  -26.8580   19.4904 C   0  0  0  0  0  0
  -24.8757  -27.6641   19.4817 C   0  0  0  0  0  0
  -23.6524  -29.8067   20.1579 C   0  0  0  0  0  0
  -25.4116  -36.3065   24.0327 C   0  0  1  0  0  0
  -20.5894  -28.3701   23.1265 C   0  0  2  0  0  0
  -20.6784  -26.9416   22.5409 C   0  0  0  0  0  0
  -19.5760  -26.6383   21.5214 C   0  0  0  0  0  0
  -18.1937  -26.7939   22.1620 C   0  0  0  0  0  0
  -19.1544  -28.8862   23.2867 C   0  0  0  0  0  0
  -18.9468  -30.1467   23.8879 C   0  0  0  0  0  0
  -17.6469  -30.6598   24.0559 C   0  0  0  0  0  0
  -25.9054  -34.9435   23.5089 C   0  0  0  0  0  0
  -16.5358  -29.9092   23.6341 C   0  0  0  0  0  0
  -16.7274  -28.6512   23.0353 C   0  0  0  0  0  0
  -26.4513  -31.6578   25.0715 C   0  0  0  0  0  0
  -25.3730  -31.3740   26.1431 C   0  0  0  0  0  0
  -27.0370  -30.2992   24.6222 C   0  0  0  0  0  0
  -27.6060  -32.4327   25.7486 C   0  0  0  0  0  0
  -27.5579  -37.1795   24.8464 C   0  0  0  0  0  0
  -21.4219  -29.3041   22.3652 N   0  0  0  0  0  0
  -26.4287  -37.3767   23.9412 N   0  0  0  0  0  0
  -24.7005  -31.0484   22.0956 N   0  0  0  0  0  0
  -23.4202  -28.8129   23.3018 O   0  0  0  0  0  0
  -28.2790  -26.3072   20.1721 O   0  0  0  0  0  0
  -26.5627  -34.8919   22.4653 O   0  0  0  0  0  0
  -23.5475  -32.1362   23.7240 O   0  0  0  0  0  0
  -30.2382  -21.8667   20.6260 C   0  0  0  0  0  0
  -29.3942  -20.7896   20.1823 C   0  0  0  0  0  0
  -27.6957  -22.4561   20.0081 C   0  0  0  0  0  0
  -28.5406  -23.5369   20.4429 C   0  0  0  0  0  0
  -32.2492  -20.6934   21.8368 C   0  0  0  0  0  0
  -32.4155  -22.1737   22.0618 C   0  0  0  0  0  0
  -30.7611  -17.2273   21.1955 C   0  0  0  0  0  0
  -28.9819  -16.7351   20.0119 C   0  0  0  0  0  0
  -31.7144  -21.6736   20.8170 C   0  0  0  0  0  0
  -29.9898  -19.4617   19.5326 C   0  0  1  0  0  0
  -30.8322  -18.2613   20.0428 C   0  0  2  0  0  0
  -29.5548  -17.9815   19.2680 C   0  0  1  0  0  0
  -26.2301  -22.6867   19.6957 C   0  0  0  0  0  0
  -27.9872  -24.9963   20.8632 C   0  0  0  0  0  0
  -28.1135  -21.1445   19.8606 N   0  0  0  0  0  0
  -29.8219  -23.1803   20.7638 N   0  0  0  0  0  0
  -30.0196  -15.9982   20.7860 N   0  0  0  0  0  0
  -31.4639  -12.5895   19.1850 H   0  0  0  0  0  0
  -30.3605  -11.5268   20.0038 H   0  0  0  0  0  0
  -29.8129  -11.7239   17.5456 H   0  0  0  0  0  0
  -29.6130  -13.4515   17.7168 H   0  0  0  0  0  0
  -27.9344  -11.2554   18.9692 H   0  0  0  0  0  0
  -27.3787  -12.4385   17.8140 H   0  0  0  0  0  0
  -27.5960  -14.2194   19.4155 H   0  0  0  0  0  0
  -28.7272  -12.2652   21.4770 H   0  0  0  0  0  0
  -28.3984  -13.9616   21.7445 H   0  0  0  0  0  0
  -25.2751   -9.5684   22.4753 H   0  0  0  0  0  0
  -23.9982   -7.4627   22.7486 H   0  0  0  0  0  0
  -21.0803   -8.8800   19.8959 H   0  0  0  0  0  0
  -22.3683  -10.9685   19.6167 H   0  0  0  0  0  0
  -21.2035   -7.6133   23.9711 H   0  0  0  0  0  0
  -21.1476   -6.0498   25.9062 H   0  0  0  0  0  0
  -22.0603   -2.7599   23.2843 H   0  0  0  0  0  0
  -22.4020  -11.9950   22.4878 H   0  0  0  0  0  0
  -21.1037  -13.1318   22.2587 H   0  0  0  0  0  0
  -24.6655  -15.8534   20.5435 H   0  0  0  0  0  0
  -26.2829  -15.6286   20.1181 H   0  0  0  0  0  0
  -26.7218  -32.5398   23.1053 H   0  0  0  0  0  0
  -25.0090  -33.9675   25.0393 H   0  0  0  0  0  0
  -22.7286  -31.2971   21.3917 H   0  0  0  0  0  0
  -23.3755  -35.9613   23.3303 H   0  0  0  0  0  0
  -24.3578  -36.8905   22.2056 H   0  0  0  0  0  0
  -23.7243  -37.6482   23.6667 H   0  0  0  0  0  0
  -26.1190  -31.5202   20.6091 H   0  0  0  0  0  0
  -26.8550  -30.8118   22.0154 H   0  0  0  0  0  0
  -28.1222  -28.9043   21.2290 H   0  0  0  0  0  0
  -25.9840  -25.8952   19.0019 H   0  0  0  0  0  0
  -23.9808  -27.3051   18.9917 H   0  0  0  0  0  0
  -23.7790  -30.5818   19.4013 H   0  0  0  0  0  0
  -22.7715  -29.2402   19.8509 H   0  0  0  0  0  0
  -25.1300  -36.1908   25.0821 H   0  0  0  0  0  0
  -20.9978  -28.3295   24.1390 H   0  0  0  0  0  0
  -20.5691  -26.2313   23.3619 H   0  0  0  0  0  0
  -21.6655  -26.7452   22.1200 H   0  0  0  0  0  0
  -19.6923  -25.6289   21.1259 H   0  0  0  0  0  0
  -19.6708  -27.3183   20.6737 H   0  0  0  0  0  0
  -17.4209  -26.6677   21.4021 H   0  0  0  0  0  0
  -18.0337  -26.0084   22.9021 H   0  0  0  0  0  0
  -19.7941  -30.7286   24.2246 H   0  0  0  0  0  0
  -17.5022  -31.6275   24.5164 H   0  0  0  0  0  0
  -15.5357  -30.2985   23.7683 H   0  0  0  0  0  0
  -15.8676  -28.0829   22.7077 H   0  0  0  0  0  0
  -24.5887  -30.7113   25.7755 H   0  0  0  0  0  0
  -24.8943  -32.2916   26.4860 H   0  0  0  0  0  0
  -25.8034  -30.8902   27.0206 H   0  0  0  0  0  0
  -26.2967  -29.6721   24.1241 H   0  0  0  0  0  0
  -27.4038  -29.7274   25.4756 H   0  0  0  0  0  0
  -27.8849  -30.4259   23.9487 H   0  0  0  0  0  0
  -27.2660  -33.3624   26.2059 H   0  0  0  0  0  0
  -28.3869  -32.6892   25.0316 H   0  0  0  0  0  0
  -28.0734  -31.8460   26.5402 H   0  0  0  0  0  0
  -28.2596  -38.0092   24.7508 H   0  0  0  0  0  0
  -28.1071  -36.2621   24.6291 H   0  0  0  0  0  0
  -27.2296  -37.1454   25.8866 H   0  0  0  0  0  0
  -20.9411  -29.8759   21.6843 H   0  0  0  0  0  0
  -26.0167  -38.2842   24.1409 H   0  0  0  0  0  0
  -31.5282  -20.1666   22.4577 H   0  0  0  0  0  0
  -33.1443  -20.1320   21.5766 H   0  0  0  0  0  0
  -33.4159  -22.5853   21.9414 H   0  0  0  0  0  0
  -31.8069  -22.6360   22.8368 H   0  0  0  0  0  0
  -30.2581  -17.6806   22.0510 H   0  0  0  0  0  0
  -31.7744  -16.9914   21.5285 H   0  0  0  0  0  0
  -28.5381  -16.0883   19.2601 H   0  0  0  0  0  0
  -28.1772  -17.0471   20.6808 H   0  0  0  0  0  0
  -32.2430  -21.7504   19.8682 H   0  0  0  0  0  0
  -30.4259  -19.9005   18.6362 H   0  0  0  0  0  0
  -31.7569  -18.1340   19.4832 H   0  0  0  0  0  0
  -29.6734  -17.7369   18.2137 H   0  0  0  0  0  0
  -25.6784  -22.9225   20.6053 H   0  0  0  0  0  0
  -25.7747  -21.8032   19.2478 H   0  0  0  0  0  0
  -26.1131  -23.5117   18.9943 H   0  0  0  0  0  0
  -28.3560  -25.1442   21.8786 H   0  0  0  0  0  0
  -26.9127  -24.9012   21.0110 H   0  0  0  0  0  0
  1 25  1  0  0  0
  1 30  2  0  0  0
  1 87  1  0  0  0
  2  3  1  0  0  0
  2 25  1  0  0  0
  2 88  1  0  0  0
  2 89  1  0  0  0
  3  4  1  0  0  0
  3 90  1  0  0  0
  3 91  1  0  0  0
  4  5  1  0  0  0
  4 92  1  0  0  0
  4 93  1  0  0  0
  5  6  1  0  0  0
  5 26  1  0  0  0
  5 94  1  0  0  0
  6 25  1  0  0  0
  6 95  1  0  0  0
  6 96  1  0  0  0
  7  8  2  0  0  0
  7 26  1  0  0  0
  7 29  1  0  0  0
  8  9  1  0  0  0
  8 22  1  0  0  0
  9 10  1  0  0  0
  9 27  2  0  0  0
 10 11  2  0  0  0
 10 15  1  0  0  0
 11 12  1  0  0  0
 11 97  1  0  0  0
 12 13  2  0  0  0
 12 98  1  0  0  0
 13 14  1  0  0  0
 13 31  1  0  0  0
 14 15  2  0  0  0
 14 99  1  0  0  0
 15100  1  0  0  0
 16 17  2  0  0  0
 16 21  1  0  0  0
 16 31  1  0  0  0
 17 18  1  0  0  0
 17101  1  0  0  0
 18 19  2  0  0  0
 18102  1  0  0  0
 19 20  1  0  0  0
 19 24  1  0  0  0
 20 21  2  0  0  0
 20103  1  0  0  0
 21 23  1  0  0  0
 22 28  1  0  0  0
 22 32  2  0  0  0
 26 27  1  0  0  0
 28104  1  0  0  0
 28105  1  0  0  0
 29106  1  0  0  0
 29107  1  0  0  0
 33 34  1  0  0  0
 33 66  1  0  0  0
 33 70  2  0  0  0
 34 36  1  0  0  0
 34 59  1  0  0  0
 34108  1  0  0  0
 35 44  2  0  0  0
 35 45  1  0  0  0
 35 68  1  0  0  0
 36 56  1  0  0  0
 36109  1  0  0  0
 37 39  1  0  0  0
 37 47  1  0  0  0
 37 66  1  0  0  0
 37110  1  0  0  0
 38 43  2  0  0  0
 38 46  1  0  0  0
 38 47  1  0  0  0
 39 64  1  0  0  0
 39 67  2  0  0  0
 40 52  1  0  0  0
 40 53  2  0  0  0
 40 58  1  0  0  0
 41111  1  0  0  0
 41112  1  0  0  0
 41113  1  0  0  0
 41 48  1  0  0  0
 42 43  1  0  0  0
 42 66  1  0  0  0
 42114  1  0  0  0
 42115  1  0  0  0
 43 44  1  0  0  0
 44116  1  0  0  0
 45 46  2  0  0  0
 45117  1  0  0  0
 46118  1  0  0  0
 47119  1  0  0  0
 47120  1  0  0  0
 48 56  1  0  0  0
 48 65  1  0  0  0
 48121  1  0  0  0
 49 50  1  0  0  0
 49 53  1  0  0  0
 49 64  1  0  0  0
 49122  1  0  0  0
 50 51  1  0  0  0
 50123  1  0  0  0
 50124  1  0  0  0
 51 52  1  0  0  0
 51125  1  0  0  0
 51126  1  0  0  0
 52127  1  0  0  0
 52128  1  0  0  0
 53 54  1  0  0  0
 54 55  2  0  0  0
 54129  1  0  0  0
 55 57  1  0  0  0
 55130  1  0  0  0
 56 69  2  0  0  0
 57 58  2  0  0  0
 57131  1  0  0  0
 58132  1  0  0  0
 59 60  1  0  0  0
 59 61  1  0  0  0
 59 62  1  0  0  0
 60133  1  0  0  0
 60134  1  0  0  0
 60135  1  0  0  0
 61136  1  0  0  0
 61137  1  0  0  0
 61138  1  0  0  0
 62139  1  0  0  0
 62140  1  0  0  0
 62141  1  0  0  0
 63 65  1  0  0  0
 63142  1  0  0  0
 63143  1  0  0  0
 63144  1  0  0  0
 64145  1  0  0  0
 65146  1  0  0  0
 68 84  1  0  0  0
 71 72  1  0  0  0
 71 86  2  0  0  0
 71 79  1  0  0  0
 72 85  2  0  0  0
 72 80  1  0  0  0
 73 74  2  0  0  0
 73 83  1  0  0  0
 73 85  1  0  0  0
 74 84  1  0  0  0
 74 86  1  0  0  0
 75 76  1  0  0  0
 75 79  1  0  0  0
 75147  1  0  0  0
 75148  1  0  0  0
 76 79  1  0  0  0
 76149  1  0  0  0
 76150  1  0  0  0
 77 87  1  0  0  0
 77151  1  0  0  0
 77152  1  0  0  0
 77 81  1  0  0  0
 78 87  1  0  0  0
 78153  1  0  0  0
 78154  1  0  0  0
 78 82  1  0  0  0
 79155  1  0  0  0
 80 81  1  0  0  0
 80 82  1  0  0  0
 80156  1  0  0  0
 81 82  1  0  0  0
 81157  1  0  0  0
 82158  1  0  0  0
 83159  1  0  0  0
 83160  1  0  0  0
 83161  1  0  0  0
 84162  1  0  0  0
 84163  1  0  0  0
M  ISO  4   1 100  68 101  84 101  87 100
M  END
> <chiral flag>
0

> <version>
0

> <s_m_source_file>
/data/baiqing/PycharmProjects/Reinvent-master-3.2/result/LINK_invent/BTK/process_docking_weight1_custom_sum_contain_oxygen_bond_distance_aromatic_linkinvent_7_9_3/rearranged_h_0168.sdf

> <i_m_source_file_index>
74

> <r_mmod_Potential_Energy-OPLS-2005>
729.172302246094

> <r_mmod_Stretch_Energy-OPLS-2005>
129.763397216797

> <r_mmod_Bend_Energy-OPLS-2005>
362.048645019531

> <r_mmod_Torsional_Energy-OPLS-2005>
419.533355712891

> <r_mmod_Improper_Torsional_Energy-OPLS-2005>
14.9264039993286

> <r_mmod_Van_der_Waal_Energy-OPLS-2005>
129.714157104492

> <r_mmod_Electrostatic_Energy-OPLS-2005>
-213.450775146484

> <r_mmod_Solvation_Energy-OPLS-2005>
-218.740509033203

> <b_mmod_Minimization_Converged-OPLS-2005>
0

> <r_mmod_RMS_Derivative-OPLS-2005>
1.91001152992249

$$$$
74
                    3D
 Structure written by MMmdl.
168177  0  0  1  0            999 V2000
  -30.5366  -14.9092   20.4290 C   0  0  0  0  0  0
  -30.4373  -12.5571   19.5037 C   0  0  0  0  0  0
  -29.5214  -12.5215   18.2572 C   0  0  0  0  0  0
  -28.0513  -12.3169   18.6680 C   0  0  0  0  0  0
  -27.6318  -13.2417   19.8413 C   0  0  2  0  0  0
  -28.6692  -13.2415   20.9840 C   0  0  0  0  0  0
  -25.2470  -13.8206   20.5684 C   0  0  0  0  0  0
  -24.1779  -13.0443   20.9211 C   0  0  0  0  0  0
  -24.6379  -11.6918   20.8742 C   0  0  0  0  0  0
  -23.9056  -10.4292   21.0401 C   0  0  0  0  0  0
  -24.3613   -9.4216   21.9182 C   0  0  0  0  0  0
  -23.6293   -8.2250   22.0762 C   0  0  0  0  0  0
  -22.4273   -8.0288   21.3550 C   0  0  0  0  0  0
  -21.9902   -9.0250   20.4646 C   0  0  0  0  0  0
  -22.7227  -10.2131   20.3051 C   0  0  0  0  0  0
  -21.6855   -6.0732   22.5278 C   0  0  0  0  0  0
  -21.4010   -6.5638   23.8209 C   0  0  0  0  0  0
  -21.3655   -5.6791   24.9171 C   0  0  0  0  0  0
  -21.6045   -4.3052   24.7226 C   0  0  0  0  0  0
  -21.8820   -3.8144   23.4345 C   0  0  0  0  0  0
  -21.9190   -4.6959   22.3398 C   0  0  0  0  0  0
  -22.7803  -13.5224   21.1875 C   0  0  0  0  0  0
  -22.1662   -4.2145   21.0974 F   0  0  0  0  0  0
  -21.5628   -3.4535   25.7739 F   0  0  0  0  0  0
  -29.9546  -13.6451   20.4012 N   0  0  0  0  0  0
  -26.2880  -12.9422   20.3217 N   0  0  0  0  0  0
  -25.9303  -11.6556   20.5716 N   0  0  0  0  0  0
  -22.0445  -12.8206   22.0432 N   0  0  0  0  0  0
  -25.4159  -15.1935   20.4119 N   0  0  0  0  0  0
  -31.7249  -14.9988   20.1039 O   0  0  0  0  0  0
  -21.6646   -6.8881   21.4240 O   0  0  0  0  0  0
  -22.3476  -14.5519   20.6718 O   0  0  0  0  0  0
  -24.6474  -31.8423   23.1889 C   0  0  0  0  0  0
  -25.9231  -32.4689   23.8281 C   0  0  1  0  0  0
  -27.2052  -27.1101   20.1449 C   0  0  0  0  0  0
  -25.5973  -33.8498   24.2189 N   0  0  0  0  0  0
  -23.4522  -30.4660   21.5350 C   0  0  2  0  0  0
  -24.8988  -28.8989   20.1065 C   0  0  0  0  0  0
  -22.7606  -29.4528   22.4845 C   0  0  0  0  0  0
  -18.0305  -28.1408   22.8475 C   0  0  0  0  0  0
  -24.1483  -36.7230   23.2646 C   0  0  0  0  0  0
  -26.0138  -30.7062   21.3954 C   0  0  0  0  0  0
  -26.0814  -29.3194   20.7307 C   0  0  0  0  0  0
  -27.2344  -28.4417   20.7340 C   0  0  0  0  0  0
  -25.9962  -26.8121   19.4686 C   0  0  0  0  0  0
  -24.8719  -27.6588   19.4600 C   0  0  0  0  0  0
  -23.6804  -29.8059   20.1509 C   0  0  0  0  0  0
  -25.4123  -36.3017   24.0312 C   0  0  1  0  0  0
  -20.5923  -28.3717   23.1234 C   0  0  2  0  0  0
  -20.6789  -26.9428   22.5404 C   0  0  0  0  0  0
  -19.5753  -26.6380   21.5219 C   0  0  0  0  0  0
  -18.1932  -26.7950   22.1619 C   0  0  0  0  0  0
  -19.1566  -28.8886   23.2841 C   0  0  0  0  0  0
  -18.9487  -30.1479   23.8866 C   0  0  0  0  0  0
  -17.6478  -30.6601   24.0560 C   0  0  0  0  0  0
  -25.9079  -34.9399   23.5045 C   0  0  0  0  0  0
  -16.5366  -29.9094   23.6342 C   0  0  0  0  0  0
  -16.7282  -28.6516   23.0362 C   0  0  0  0  0  0
  -26.4534  -31.6585   25.0744 C   0  0  0  0  0  0
  -25.3705  -31.3787   26.1430 C   0  0  0  0  0  0
  -27.0411  -30.2976   24.6370 C   0  0  0  0  0  0
  -27.6052  -32.4376   25.7525 C   0  0  0  0  0  0
  -27.5562  -37.1780   24.8474 C   0  0  0  0  0  0
  -21.4292  -29.3041   22.3615 N   0  0  0  0  0  0
  -26.4272  -37.3748   23.9421 N   0  0  0  0  0  0
  -24.7251  -31.0263   22.0932 N   0  0  0  0  0  0
  -23.4248  -28.8062   23.2982 O   0  0  0  0  0  0
  -28.2177  -26.0726   20.2405 O   0  0  0  0  0  0
  -26.5669  -34.8895   22.4628 O   0  0  0  0  0  0
  -23.5580  -32.1307   23.7073 O   0  0  0  0  0  0
  -28.5614  -20.5533   19.7471 C   0  0  0  0  0  0
  -28.0891  -21.9166   19.4550 C   0  0  0  0  0  0
  -28.5191  -23.1083   20.1862 C   0  0  0  0  0  0
  -29.4846  -20.3327   20.7889 C   0  0  0  0  0  0
  -29.4470  -22.7422   21.2103 C   0  0  0  0  0  0
  -29.0165  -18.0212   18.9625 C   0  0  0  0  0  0
  -28.0467  -19.2707   19.0344 C   0  0  1  0  0  0
  -29.8861  -17.5896   20.1923 C   0  0  1  0  0  0
  -29.9371  -18.8372   21.2653 C   0  0  0  0  0  0
  -27.0627  -22.1156   18.3423 C   0  0  0  0  0  0
  -30.0182  -23.8142   22.1142 C   0  0  0  0  0  0
  -26.6713  -18.8400   19.5774 C   0  0  0  0  0  0
  -31.4126  -18.9072   21.7072 C   0  0  0  0  0  0
  -29.1043  -18.4482   22.5025 C   0  0  0  0  0  0
  -27.8117  -24.5991   19.9248 C   0  0  0  0  0  0
  -29.8795  -21.4502   21.4915 N   0  0  0  0  0  0
  -29.7363  -16.0656   20.6051 N   0  0  0  0  0  0
  -31.4742  -12.7084   19.1994 H   0  0  0  0  0  0
  -30.4183  -11.5966   20.0221 H   0  0  0  0  0  0
  -29.8353  -11.7242   17.5814 H   0  0  0  0  0  0
  -29.6219  -13.4537   17.6981 H   0  0  0  0  0  0
  -27.9362  -11.2732   18.9645 H   0  0  0  0  0  0
  -27.3908  -12.4617   17.8120 H   0  0  0  0  0  0
  -27.6050  -14.2494   19.4272 H   0  0  0  0  0  0
  -28.7417  -12.2554   21.4454 H   0  0  0  0  0  0
  -28.3679  -13.9298   21.7747 H   0  0  0  0  0  0
  -25.2757   -9.5698   22.4752 H   0  0  0  0  0  0
  -24.0004   -7.4639   22.7483 H   0  0  0  0  0  0
  -21.0836   -8.8756   19.8947 H   0  0  0  0  0  0
  -22.3684  -10.9662   19.6161 H   0  0  0  0  0  0
  -21.2004   -7.6151   23.9711 H   0  0  0  0  0  0
  -21.1471   -6.0523   25.9075 H   0  0  0  0  0  0
  -22.0600   -2.7608   23.2841 H   0  0  0  0  0  0
  -22.4057  -11.9868   22.4817 H   0  0  0  0  0  0
  -21.1063  -13.1232   22.2634 H   0  0  0  0  0  0
  -24.6443  -15.8432   20.5191 H   0  0  0  0  0  0
  -26.2578  -15.6325   20.0651 H   0  0  0  0  0  0
  -26.7300  -32.5280   23.1010 H   0  0  0  0  0  0
  -25.0133  -33.9647   25.0340 H   0  0  0  0  0  0
  -22.7542  -31.2918   21.3846 H   0  0  0  0  0  0
  -23.3755  -35.9549   23.3300 H   0  0  0  0  0  0
  -24.3556  -36.8873   22.2061 H   0  0  0  0  0  0
  -23.7222  -37.6415   23.6688 H   0  0  0  0  0  0
  -26.1850  -31.4624   20.6285 H   0  0  0  0  0  0
  -26.8786  -30.7453   22.0463 H   0  0  0  0  0  0
  -28.1316  -28.7557   21.2487 H   0  0  0  0  0  0
  -25.8547  -25.8730   18.9572 H   0  0  0  0  0  0
  -23.9720  -27.3307   18.9565 H   0  0  0  0  0  0
  -23.8283  -30.5854   19.4027 H   0  0  0  0  0  0
  -22.7930  -29.2576   19.8301 H   0  0  0  0  0  0
  -25.1317  -36.1824   25.0805 H   0  0  0  0  0  0
  -20.9993  -28.3283   24.1361 H   0  0  0  0  0  0
  -20.5688  -26.2334   23.3622 H   0  0  0  0  0  0
  -21.6657  -26.7443   22.1200 H   0  0  0  0  0  0
  -19.6917  -25.6282   21.1270 H   0  0  0  0  0  0
  -19.6690  -27.3180   20.6740 H   0  0  0  0  0  0
  -17.4214  -26.6687   21.4013 H   0  0  0  0  0  0
  -18.0310  -26.0119   22.9036 H   0  0  0  0  0  0
  -19.7961  -30.7305   24.2225 H   0  0  0  0  0  0
  -17.5033  -31.6282   24.5164 H   0  0  0  0  0  0
  -15.5365  -30.2986   23.7701 H   0  0  0  0  0  0
  -15.8677  -28.0823   22.7103 H   0  0  0  0  0  0
  -24.5885  -30.7142   25.7747 H   0  0  0  0  0  0
  -24.8895  -32.2973   26.4799 H   0  0  0  0  0  0
  -25.7974  -30.8994   27.0247 H   0  0  0  0  0  0
  -26.3043  -29.6699   24.1351 H   0  0  0  0  0  0
  -27.3976  -29.7292   25.4969 H   0  0  0  0  0  0
  -27.8968  -30.4215   23.9731 H   0  0  0  0  0  0
  -27.2641  -33.3722   26.1995 H   0  0  0  0  0  0
  -28.3908  -32.6878   25.0381 H   0  0  0  0  0  0
  -28.0664  -31.8577   26.5536 H   0  0  0  0  0  0
  -28.2585  -38.0074   24.7530 H   0  0  0  0  0  0
  -28.1049  -36.2609   24.6281 H   0  0  0  0  0  0
  -27.2285  -37.1403   25.8879 H   0  0  0  0  0  0
  -20.9505  -29.8771   21.6812 H   0  0  0  0  0  0
  -26.0114  -38.2799   24.1455 H   0  0  0  0  0  0
  -29.7238  -18.2451   18.1615 H   0  0  0  0  0  0
  -28.4669  -17.1577   18.5848 H   0  0  0  0  0  0
  -27.8958  -19.5418   17.9898 H   0  0  0  0  0  0
  -30.8838  -17.5709   19.7509 H   0  0  0  0  0  0
  -26.5528  -21.2066   18.0374 H   0  0  0  0  0  0
  -27.5462  -22.5295   17.4574 H   0  0  0  0  0  0
  -26.2687  -22.7945   18.6508 H   0  0  0  0  0  0
  -30.3303  -24.6779   21.5262 H   0  0  0  0  0  0
  -30.8891  -23.4541   22.6621 H   0  0  0  0  0  0
  -29.2719  -24.1426   22.8382 H   0  0  0  0  0  0
  -26.7414  -18.3934   20.5657 H   0  0  0  0  0  0
  -26.2119  -18.0970   18.9241 H   0  0  0  0  0  0
  -25.9764  -19.6762   19.6517 H   0  0  0  0  0  0
  -32.0466  -19.2409   20.8851 H   0  0  0  0  0  0
  -31.7742  -17.9310   22.0313 H   0  0  0  0  0  0
  -31.5563  -19.6007   22.5360 H   0  0  0  0  0  0
  -28.0488  -18.3468   22.2671 H   0  0  0  0  0  0
  -29.1861  -19.2037   23.2843 H   0  0  0  0  0  0
  -29.4345  -17.5024   22.9328 H   0  0  0  0  0  0
  -26.8377  -24.4654   20.3981 H   0  0  0  0  0  0
  -27.6363  -24.6233   18.8499 H   0  0  0  0  0  0
  -28.8033  -15.8330   20.9096 H   0  0  0  0  0  0
  1 25  1  0  0  0
  1 30  2  0  0  0
  1 87  1  0  0  0
  2  3  1  0  0  0
  2 25  1  0  0  0
  2 88  1  0  0  0
  2 89  1  0  0  0
  3  4  1  0  0  0
  3 90  1  0  0  0
  3 91  1  0  0  0
  4  5  1  0  0  0
  4 92  1  0  0  0
  4 93  1  0  0  0
  5  6  1  0  0  0
  5 26  1  0  0  0
  5 94  1  0  0  0
  6 25  1  0  0  0
  6 95  1  0  0  0
  6 96  1  0  0  0
  7  8  2  0  0  0
  7 26  1  0  0  0
  7 29  1  0  0  0
  8  9  1  0  0  0
  8 22  1  0  0  0
  9 10  1  0  0  0
  9 27  2  0  0  0
 10 11  2  0  0  0
 10 15  1  0  0  0
 11 12  1  0  0  0
 11 97  1  0  0  0
 12 13  2  0  0  0
 12 98  1  0  0  0
 13 14  1  0  0  0
 13 31  1  0  0  0
 14 15  2  0  0  0
 14 99  1  0  0  0
 15100  1  0  0  0
 16 17  2  0  0  0
 16 21  1  0  0  0
 16 31  1  0  0  0
 17 18  1  0  0  0
 17101  1  0  0  0
 18 19  2  0  0  0
 18102  1  0  0  0
 19 20  1  0  0  0
 19 24  1  0  0  0
 20 21  2  0  0  0
 20103  1  0  0  0
 21 23  1  0  0  0
 22 28  1  0  0  0
 22 32  2  0  0  0
 26 27  1  0  0  0
 28104  1  0  0  0
 28105  1  0  0  0
 29106  1  0  0  0
 29107  1  0  0  0
 33 34  1  0  0  0
 33 66  1  0  0  0
 33 70  2  0  0  0
 34 36  1  0  0  0
 34 59  1  0  0  0
 34108  1  0  0  0
 35 44  2  0  0  0
 35 45  1  0  0  0
 35 68  1  0  0  0
 36 56  1  0  0  0
 36109  1  0  0  0
 37 39  1  0  0  0
 37 47  1  0  0  0
 37 66  1  0  0  0
 37110  1  0  0  0
 38 43  2  0  0  0
 38 46  1  0  0  0
 38 47  1  0  0  0
 39 64  1  0  0  0
 39 67  2  0  0  0
 40 52  1  0  0  0
 40 53  2  0  0  0
 40 58  1  0  0  0
 41111  1  0  0  0
 41112  1  0  0  0
 41113  1  0  0  0
 41 48  1  0  0  0
 42 43  1  0  0  0
 42 66  1  0  0  0
 42114  1  0  0  0
 42115  1  0  0  0
 43 44  1  0  0  0
 44116  1  0  0  0
 45 46  2  0  0  0
 45117  1  0  0  0
 46118  1  0  0  0
 47119  1  0  0  0
 47120  1  0  0  0
 48 56  1  0  0  0
 48 65  1  0  0  0
 48121  1  0  0  0
 49 50  1  0  0  0
 49 53  1  0  0  0
 49 64  1  0  0  0
 49122  1  0  0  0
 50 51  1  0  0  0
 50123  1  0  0  0
 50124  1  0  0  0
 51 52  1  0  0  0
 51125  1  0  0  0
 51126  1  0  0  0
 52127  1  0  0  0
 52128  1  0  0  0
 53 54  1  0  0  0
 54 55  2  0  0  0
 54129  1  0  0  0
 55 57  1  0  0  0
 55130  1  0  0  0
 56 69  2  0  0  0
 57 58  2  0  0  0
 57131  1  0  0  0
 58132  1  0  0  0
 59 60  1  0  0  0
 59 61  1  0  0  0
 59 62  1  0  0  0
 60133  1  0  0  0
 60134  1  0  0  0
 60135  1  0  0  0
 61136  1  0  0  0
 61137  1  0  0  0
 61138  1  0  0  0
 62139  1  0  0  0
 62140  1  0  0  0
 62141  1  0  0  0
 63 65  1  0  0  0
 63142  1  0  0  0
 63143  1  0  0  0
 63144  1  0  0  0
 64145  1  0  0  0
 65146  1  0  0  0
 68 85  1  0  0  0
 71 72  2  0  0  0
 71 74  1  0  0  0
 71 77  1  0  0  0
 72 73  1  0  0  0
 72 80  1  0  0  0
 73 75  2  0  0  0
 73 85  1  0  0  0
 74 79  1  0  0  0
 74 86  2  0  0  0
 75 81  1  0  0  0
 75 86  1  0  0  0
 76 77  1  0  0  0
 76 78  1  0  0  0
 76147  1  0  0  0
 76148  1  0  0  0
 77 82  1  0  0  0
 77149  1  0  0  0
 78 79  1  0  0  0
 78 87  1  0  0  0
 78150  1  0  0  0
 79 83  1  0  0  0
 79 84  1  0  0  0
 80151  1  0  0  0
 80152  1  0  0  0
 80153  1  0  0  0
 81154  1  0  0  0
 81155  1  0  0  0
 81156  1  0  0  0
 82157  1  0  0  0
 82158  1  0  0  0
 82159  1  0  0  0
 83160  1  0  0  0
 83161  1  0  0  0
 83162  1  0  0  0
 84163  1  0  0  0
 84164  1  0  0  0
 84165  1  0  0  0
 85166  1  0  0  0
 85167  1  0  0  0
 87168  1  0  0  0
M  ISO  4   1 100  68 101  85 101  87 100
M  END
> <chiral flag>
0

> <version>
0

> <s_m_source_file>
/data/baiqing/PycharmProjects/Reinvent-master-3.2/result/LINK_invent/BTK/process_docking_weight1_custom_sum_contain_oxygen_bond_distance_aromatic_linkinvent_7_9_3/rearranged_h_0168.sdf

> <i_m_source_file_index>
75

> <r_mmod_Potential_Energy-OPLS-2005>
368.468048095703

> <r_mmod_Stretch_Energy-OPLS-2005>
243.375549316406

> <r_mmod_Bend_Energy-OPLS-2005>
284.517059326172

> <r_mmod_Torsional_Energy-OPLS-2005>
237.60173034668

> <r_mmod_Improper_Torsional_Energy-OPLS-2005>
6.84748697280884

> <r_mmod_Van_der_Waal_Energy-OPLS-2005>
143.053497314453

> <r_mmod_Electrostatic_Energy-OPLS-2005>
-525.065185546875

> <r_mmod_Solvation_Energy-OPLS-2005>
-217.580474853516

> <b_mmod_Minimization_Converged-OPLS-2005>
0

> <r_mmod_RMS_Derivative-OPLS-2005>
2.02134084701538

$$$$
75
                    3D
 Structure written by MMmdl.
156165  0  0  1  0            999 V2000
  -30.5758  -14.9038   20.4018 C   0  0  0  0  0  0
  -30.4386  -12.5571   19.4790 C   0  0  0  0  0  0
  -29.5159  -12.5126   18.2412 C   0  0  0  0  0  0
  -28.0488  -12.3028   18.6659 C   0  0  0  0  0  0
  -27.6273  -13.2261   19.8396 C   0  0  2  0  0  0
  -28.6804  -13.2687   20.9662 C   0  0  0  0  0  0
  -25.2504  -13.8157   20.5739 C   0  0  0  0  0  0
  -24.1788  -13.0412   20.9223 C   0  0  0  0  0  0
  -24.6375  -11.6890   20.8768 C   0  0  0  0  0  0
  -23.9058  -10.4278   21.0410 C   0  0  0  0  0  0
  -24.3619   -9.4197   21.9180 C   0  0  0  0  0  0
  -23.6298   -8.2227   22.0749 C   0  0  0  0  0  0
  -22.4278   -8.0269   21.3536 C   0  0  0  0  0  0
  -21.9907   -9.0247   20.4644 C   0  0  0  0  0  0
  -22.7235  -10.2124   20.3053 C   0  0  0  0  0  0
  -21.6848   -6.0736   22.5282 C   0  0  0  0  0  0
  -21.4011   -6.5639   23.8216 C   0  0  0  0  0  0
  -21.3656   -5.6792   24.9176 C   0  0  0  0  0  0
  -21.6038   -4.3055   24.7225 C   0  0  0  0  0  0
  -21.8823   -3.8144   23.4347 C   0  0  0  0  0  0
  -21.9198   -4.6964   22.3402 C   0  0  0  0  0  0
  -22.7819  -13.5212   21.1868 C   0  0  0  0  0  0
  -22.1665   -4.2145   21.0981 F   0  0  0  0  0  0
  -21.5630   -3.4537   25.7738 F   0  0  0  0  0  0
  -29.9537  -13.6613   20.3477 N   0  0  0  0  0  0
  -26.2893  -12.9324   20.3299 N   0  0  0  0  0  0
  -25.9298  -11.6478   20.5768 N   0  0  0  0  0  0
  -22.0459  -12.8224   22.0428 N   0  0  0  0  0  0
  -25.4240  -15.1889   20.4209 N   0  0  0  0  0  0
  -31.8019  -14.9384   20.2538 O   0  0  0  0  0  0
  -21.6638   -6.8872   21.4240 O   0  0  0  0  0  0
  -22.3510  -14.5516   20.6703 O   0  0  0  0  0  0
  -24.6435  -31.8452   23.1910 C   0  0  0  0  0  0
  -25.9215  -32.4695   23.8297 C   0  0  1  0  0  0
  -27.2120  -27.1465   20.1595 C   0  0  0  0  0  0
  -25.5980  -33.8498   24.2220 N   0  0  0  0  0  0
  -23.4464  -30.4667   21.5350 C   0  0  2  0  0  0
  -24.8971  -28.8967   20.1118 C   0  0  0  0  0  0
  -22.7563  -29.4561   22.4860 C   0  0  0  0  0  0
  -18.0302  -28.1391   22.8479 C   0  0  0  0  0  0
  -24.1497  -36.7252   23.2638 C   0  0  0  0  0  0
  -26.0028  -30.7205   21.3925 C   0  0  0  0  0  0
  -26.0738  -29.3329   20.7358 C   0  0  0  0  0  0
  -27.2346  -28.4733   20.7448 C   0  0  0  0  0  0
  -26.0187  -26.8203   19.4766 C   0  0  0  0  0  0
  -24.8819  -27.6534   19.4655 C   0  0  0  0  0  0
  -23.6740  -29.7974   20.1537 C   0  0  0  0  0  0
  -25.4122  -36.3029   24.0323 C   0  0  1  0  0  0
  -20.5912  -28.3718   23.1225 C   0  0  2  0  0  0
  -20.6783  -26.9422   22.5392 C   0  0  0  0  0  0
  -19.5759  -26.6376   21.5203 C   0  0  0  0  0  0
  -18.1944  -26.7934   22.1618 C   0  0  0  0  0  0
  -19.1558  -28.8872   23.2847 C   0  0  0  0  0  0
  -18.9476  -30.1469   23.8872 C   0  0  0  0  0  0
  -17.6470  -30.6588   24.0549 C   0  0  0  0  0  0
  -25.9077  -34.9402   23.5075 C   0  0  0  0  0  0
  -16.5365  -29.9074   23.6334 C   0  0  0  0  0  0
  -16.7286  -28.6493   23.0362 C   0  0  0  0  0  0
  -26.4539  -31.6556   25.0732 C   0  0  0  0  0  0
  -25.3739  -31.3762   26.1448 C   0  0  0  0  0  0
  -27.0382  -30.2940   24.6329 C   0  0  0  0  0  0
  -27.6105  -32.4300   25.7485 C   0  0  0  0  0  0
  -27.5581  -37.1777   24.8460 C   0  0  0  0  0  0
  -21.4257  -29.3050   22.3596 N   0  0  0  0  0  0
  -26.4286  -37.3741   23.9420 N   0  0  0  0  0  0
  -24.7167  -31.0322   22.0939 N   0  0  0  0  0  0
  -23.4212  -28.8104   23.2999 O   0  0  0  0  0  0
  -28.2439  -26.1437   20.2093 O   0  0  0  0  0  0
  -26.5638  -34.8892   22.4640 O   0  0  0  0  0  0
  -23.5555  -32.1327   23.7135 O   0  0  0  0  0  0
  -28.9980  -21.1663   19.0647 C   0  0  0  0  0  0
  -29.3210  -20.3286   20.1862 C   0  0  0  0  0  0
  -28.6365  -22.5636   19.1470 C   0  0  0  0  0  0
  -29.2829  -21.1094   21.3911 C   0  0  0  0  0  0
  -28.6033  -23.2573   20.3930 C   0  0  0  0  0  0
  -28.8134  -17.9742   19.0049 C   0  0  0  0  0  0
  -29.3211  -16.5053   18.9878 C   0  0  0  0  0  0
  -30.0026  -17.5040   20.9762 C   0  0  0  0  0  0
  -29.7340  -18.7442   19.9457 C   0  0  2  0  0  0
  -29.6219  -20.4531   22.7139 C   0  0  0  0  0  0
  -27.8474  -24.7051   20.6372 C   0  0  0  0  0  0
  -28.9377  -22.4629   21.4791 N   0  0  0  0  0  0
  -29.8145  -16.1065   20.3229 N   0  0  0  0  0  0
  -28.1652  -23.3837   17.7013 Cl  0  0  0  0  0  0
  -31.4736  -12.7064   19.1671 H   0  0  0  0  0  0
  -30.4193  -11.6063   20.0138 H   0  0  0  0  0  0
  -29.8291  -11.7166   17.5645 H   0  0  0  0  0  0
  -29.6062  -13.4448   17.6811 H   0  0  0  0  0  0
  -27.9435  -11.2603   18.9673 H   0  0  0  0  0  0
  -27.3825  -12.4413   17.8131 H   0  0  0  0  0  0
  -27.5675  -14.2197   19.4150 H   0  0  0  0  0  0
  -28.7651  -12.3027   21.4652 H   0  0  0  0  0  0
  -28.3909  -13.9931   21.7293 H   0  0  0  0  0  0
  -25.2755   -9.5681   22.4762 H   0  0  0  0  0  0
  -24.0011   -7.4617   22.7461 H   0  0  0  0  0  0
  -21.0834   -8.8773   19.8953 H   0  0  0  0  0  0
  -22.3691  -10.9674   19.6175 H   0  0  0  0  0  0
  -21.1999   -7.6148   23.9718 H   0  0  0  0  0  0
  -21.1471   -6.0518   25.9080 H   0  0  0  0  0  0
  -22.0606   -2.7607   23.2844 H   0  0  0  0  0  0
  -22.4067  -11.9901   22.4852 H   0  0  0  0  0  0
  -21.1062  -13.1249   22.2594 H   0  0  0  0  0  0
  -24.6660  -15.8504   20.5483 H   0  0  0  0  0  0
  -26.2940  -15.6298   20.1504 H   0  0  0  0  0  0
  -26.7284  -32.5304   23.1029 H   0  0  0  0  0  0
  -25.0142  -33.9611   25.0380 H   0  0  0  0  0  0
  -22.7499  -31.2929   21.3804 H   0  0  0  0  0  0
  -23.3766  -35.9576   23.3267 H   0  0  0  0  0  0
  -24.3596  -36.8908   22.2061 H   0  0  0  0  0  0
  -23.7235  -37.6436   23.6682 H   0  0  0  0  0  0
  -26.1604  -31.4735   20.6193 H   0  0  0  0  0  0
  -26.8729  -30.7687   22.0356 H   0  0  0  0  0  0
  -28.1291  -28.7992   21.2576 H   0  0  0  0  0  0
  -25.9392  -25.8806   18.9500 H   0  0  0  0  0  0
  -23.9895  -27.3186   18.9541 H   0  0  0  0  0  0
  -23.8124  -30.5720   19.3989 H   0  0  0  0  0  0
  -22.7897  -29.2397   19.8405 H   0  0  0  0  0  0
  -25.1303  -36.1858   25.0814 H   0  0  0  0  0  0
  -21.0012  -28.3302   24.1342 H   0  0  0  0  0  0
  -20.5656  -26.2337   23.3610 H   0  0  0  0  0  0
  -21.6647  -26.7412   22.1196 H   0  0  0  0  0  0
  -19.6912  -25.6277   21.1254 H   0  0  0  0  0  0
  -19.6696  -27.3162   20.6716 H   0  0  0  0  0  0
  -17.4207  -26.6668   21.4029 H   0  0  0  0  0  0
  -18.0356  -26.0081   22.9018 H   0  0  0  0  0  0
  -19.7950  -30.7289   24.2233 H   0  0  0  0  0  0
  -17.5023  -31.6267   24.5150 H   0  0  0  0  0  0
  -15.5362  -30.2964   23.7679 H   0  0  0  0  0  0
  -15.8688  -28.0792   22.7107 H   0  0  0  0  0  0
  -24.5866  -30.7177   25.7760 H   0  0  0  0  0  0
  -24.8996  -32.2955   26.4896 H   0  0  0  0  0  0
  -25.8022  -30.8884   27.0215 H   0  0  0  0  0  0
  -26.2991  -29.6665   24.1337 H   0  0  0  0  0  0
  -27.3967  -29.7249   25.4918 H   0  0  0  0  0  0
  -27.8925  -30.4144   23.9664 H   0  0  0  0  0  0
  -27.2745  -33.3628   26.2023 H   0  0  0  0  0  0
  -28.3927  -32.6809   25.0306 H   0  0  0  0  0  0
  -28.0766  -31.8443   26.5420 H   0  0  0  0  0  0
  -28.2575  -38.0094   24.7527 H   0  0  0  0  0  0
  -28.1099  -36.2627   24.6257 H   0  0  0  0  0  0
  -27.2305  -37.1383   25.8862 H   0  0  0  0  0  0
  -20.9472  -29.8770   21.6779 H   0  0  0  0  0  0
  -26.0152  -38.2810   24.1427 H   0  0  0  0  0  0
  -29.0034  -20.7186   18.0823 H   0  0  0  0  0  0
  -27.7930  -18.0061   19.3901 H   0  0  0  0  0  0
  -28.7943  -18.3942   17.9994 H   0  0  0  0  0  0
  -30.1497  -16.4300   18.2800 H   0  0  0  0  0  0
  -28.5439  -15.8498   18.6081 H   0  0  0  0  0  0
  -29.2843  -17.5555   21.7952 H   0  0  0  0  0  0
  -30.9921  -17.5810   21.4291 H   0  0  0  0  0  0
  -30.6809  -18.8421   19.4117 H   0  0  0  0  0  0
  -30.5503  -19.8876   22.6356 H   0  0  0  0  0  0
  -28.8290  -19.7657   23.0076 H   0  0  0  0  0  0
  -29.7446  -21.1873   23.5109 H   0  0  0  0  0  0
  -27.7275  -24.7795   21.7179 H   0  0  0  0  0  0
  -26.8378  -24.5009   20.2886 H   0  0  0  0  0  0
  1 25  1  0  0  0
  1 30  2  0  0  0
  1 83  1  0  0  0
  2  3  1  0  0  0
  2 25  1  0  0  0
  2 85  1  0  0  0
  2 86  1  0  0  0
  3  4  1  0  0  0
  3 87  1  0  0  0
  3 88  1  0  0  0
  4  5  1  0  0  0
  4 89  1  0  0  0
  4 90  1  0  0  0
  5  6  1  0  0  0
  5 26  1  0  0  0
  5 91  1  0  0  0
  6 25  1  0  0  0
  6 92  1  0  0  0
  6 93  1  0  0  0
  7  8  2  0  0  0
  7 26  1  0  0  0
  7 29  1  0  0  0
  8  9  1  0  0  0
  8 22  1  0  0  0
  9 10  1  0  0  0
  9 27  2  0  0  0
 10 11  2  0  0  0
 10 15  1  0  0  0
 11 12  1  0  0  0
 11 94  1  0  0  0
 12 13  2  0  0  0
 12 95  1  0  0  0
 13 14  1  0  0  0
 13 31  1  0  0  0
 14 15  2  0  0  0
 14 96  1  0  0  0
 15 97  1  0  0  0
 16 17  2  0  0  0
 16 21  1  0  0  0
 16 31  1  0  0  0
 17 18  1  0  0  0
 17 98  1  0  0  0
 18 19  2  0  0  0
 18 99  1  0  0  0
 19 20  1  0  0  0
 19 24  1  0  0  0
 20 21  2  0  0  0
 20100  1  0  0  0
 21 23  1  0  0  0
 22 28  1  0  0  0
 22 32  2  0  0  0
 26 27  1  0  0  0
 28101  1  0  0  0
 28102  1  0  0  0
 29103  1  0  0  0
 29104  1  0  0  0
 33 34  1  0  0  0
 33 66  1  0  0  0
 33 70  2  0  0  0
 34 36  1  0  0  0
 34 59  1  0  0  0
 34105  1  0  0  0
 35 44  2  0  0  0
 35 45  1  0  0  0
 35 68  1  0  0  0
 36 56  1  0  0  0
 36106  1  0  0  0
 37 39  1  0  0  0
 37 47  1  0  0  0
 37 66  1  0  0  0
 37107  1  0  0  0
 38 43  2  0  0  0
 38 46  1  0  0  0
 38 47  1  0  0  0
 39 64  1  0  0  0
 39 67  2  0  0  0
 40 52  1  0  0  0
 40 53  2  0  0  0
 40 58  1  0  0  0
 41108  1  0  0  0
 41109  1  0  0  0
 41110  1  0  0  0
 41 48  1  0  0  0
 42 43  1  0  0  0
 42 66  1  0  0  0
 42111  1  0  0  0
 42112  1  0  0  0
 43 44  1  0  0  0
 44113  1  0  0  0
 45 46  2  0  0  0
 45114  1  0  0  0
 46115  1  0  0  0
 47116  1  0  0  0
 47117  1  0  0  0
 48 56  1  0  0  0
 48 65  1  0  0  0
 48118  1  0  0  0
 49 50  1  0  0  0
 49 53  1  0  0  0
 49 64  1  0  0  0
 49119  1  0  0  0
 50 51  1  0  0  0
 50120  1  0  0  0
 50121  1  0  0  0
 51 52  1  0  0  0
 51122  1  0  0  0
 51123  1  0  0  0
 52124  1  0  0  0
 52125  1  0  0  0
 53 54  1  0  0  0
 54 55  2  0  0  0
 54126  1  0  0  0
 55 57  1  0  0  0
 55127  1  0  0  0
 56 69  2  0  0  0
 57 58  2  0  0  0
 57128  1  0  0  0
 58129  1  0  0  0
 59 60  1  0  0  0
 59 61  1  0  0  0
 59 62  1  0  0  0
 60130  1  0  0  0
 60131  1  0  0  0
 60132  1  0  0  0
 61133  1  0  0  0
 61134  1  0  0  0
 61135  1  0  0  0
 62136  1  0  0  0
 62137  1  0  0  0
 62138  1  0  0  0
 63 65  1  0  0  0
 63139  1  0  0  0
 63140  1  0  0  0
 63141  1  0  0  0
 64142  1  0  0  0
 65143  1  0  0  0
 68 81  1  0  0  0
 71 72  2  0  0  0
 71 73  1  0  0  0
 71144  1  0  0  0
 72 74  1  0  0  0
 72 79  1  0  0  0
 73 75  2  0  0  0
 73 84  1  0  0  0
 74 80  1  0  0  0
 74 82  2  0  0  0
 75 81  1  0  0  0
 75 82  1  0  0  0
 76 77  1  0  0  0
 76 79  1  0  0  0
 76145  1  0  0  0
 76146  1  0  0  0
 77 83  1  0  0  0
 77147  1  0  0  0
 77148  1  0  0  0
 78 79  1  0  0  0
 78 83  1  0  0  0
 78149  1  0  0  0
 78150  1  0  0  0
 79151  1  0  0  0
 80152  1  0  0  0
 80153  1  0  0  0
 80154  1  0  0  0
 81155  1  0  0  0
 81156  1  0  0  0
M  ISO  4   1 100  68 101  81 101  83 100
M  END
> <chiral flag>
0

> <version>
0

> <s_m_source_file>
/data/baiqing/PycharmProjects/Reinvent-master-3.2/result/LINK_invent/BTK/process_docking_weight1_custom_sum_contain_oxygen_bond_distance_aromatic_linkinvent_7_9_3/rearranged_h_0168.sdf

> <i_m_source_file_index>
76

> <r_mmod_Potential_Energy-OPLS-2005>
588.095153808594

> <r_mmod_Stretch_Energy-OPLS-2005>
208.820419311523

> <r_mmod_Bend_Energy-OPLS-2005>
292.686828613281

> <r_mmod_Torsional_Energy-OPLS-2005>
359.598480224609

> <r_mmod_Improper_Torsional_Energy-OPLS-2005>
13.2877531051636

> <r_mmod_Van_der_Waal_Energy-OPLS-2005>
125.682525634766

> <r_mmod_Electrostatic_Energy-OPLS-2005>
-382.893951416016

> <r_mmod_Solvation_Energy-OPLS-2005>
-208.644561767578

> <b_mmod_Minimization_Converged-OPLS-2005>
0

> <r_mmod_RMS_Derivative-OPLS-2005>
1.5720773935318

$$$$
76
                    3D
 Structure written by MMmdl.
172181  0  0  1  0            999 V2000
  -30.7060  -14.5887   20.4952 C   0  0  0  0  0  0
  -30.4316  -12.3844   19.4229 C   0  0  0  0  0  0
  -29.4957  -12.4900   18.2002 C   0  0  0  0  0  0
  -28.0231  -12.3385   18.6275 C   0  0  0  0  0  0
  -27.6529  -13.2202   19.8465 C   0  0  2  0  0  0
  -28.7047  -13.1204   20.9731 C   0  0  0  0  0  0
  -25.2600  -13.8181   20.5650 C   0  0  0  0  0  0
  -24.1832  -13.0424   20.9103 C   0  0  0  0  0  0
  -24.6451  -11.6894   20.8706 C   0  0  0  0  0  0
  -23.9120  -10.4260   21.0360 C   0  0  0  0  0  0
  -24.3665   -9.4204   21.9149 C   0  0  0  0  0  0
  -23.6351   -8.2228   22.0760 C   0  0  0  0  0  0
  -22.4329   -8.0265   21.3580 C   0  0  0  0  0  0
  -21.9929   -9.0253   20.4686 C   0  0  0  0  0  0
  -22.7251  -10.2125   20.3083 C   0  0  0  0  0  0
  -21.6882   -6.0724   22.5280 C   0  0  0  0  0  0
  -21.3978   -6.5647   23.8211 C   0  0  0  0  0  0
  -21.3694   -5.6805   24.9192 C   0  0  0  0  0  0
  -21.6087   -4.3065   24.7228 C   0  0  0  0  0  0
  -21.8828   -3.8143   23.4344 C   0  0  0  0  0  0
  -21.9187   -4.6931   22.3410 C   0  0  0  0  0  0
  -22.7901  -13.5262   21.1825 C   0  0  0  0  0  0
  -22.1639   -4.2169   21.0968 F   0  0  0  0  0  0
  -21.5679   -3.4557   25.7712 F   0  0  0  0  0  0
  -30.0186  -13.4154   20.3874 N   0  0  0  0  0  0
  -26.3014  -12.9350   20.3244 N   0  0  0  0  0  0
  -25.9369  -11.6520   20.5763 N   0  0  0  0  0  0
  -22.0510  -12.8292   22.0399 N   0  0  0  0  0  0
  -25.4267  -15.1901   20.4129 N   0  0  0  0  0  0
  -31.9145  -14.6533   20.2551 O   0  0  0  0  0  0
  -21.6695   -6.8877   21.4265 O   0  0  0  0  0  0
  -22.3573  -14.5600   20.6737 O   0  0  0  0  0  0
  -24.6204  -31.8631   23.2113 C   0  0  0  0  0  0
  -25.9083  -32.4759   23.8440 C   0  0  1  0  0  0
  -27.1924  -27.3654   20.0905 C   0  0  0  0  0  0
  -25.5881  -33.8569   24.2323 N   0  0  0  0  0  0
  -23.4071  -30.5001   21.5496 C   0  0  2  0  0  0
  -24.8430  -28.9591   20.1109 C   0  0  0  0  0  0
  -22.7421  -29.4722   22.4956 C   0  0  0  0  0  0
  -18.0329  -28.1367   22.8539 C   0  0  0  0  0  0
  -24.1501  -36.7340   23.2665 C   0  0  0  0  0  0
  -25.9488  -30.8086   21.3782 C   0  0  0  0  0  0
  -26.0139  -29.4406   20.7117 C   0  0  0  0  0  0
  -27.1985  -28.6555   20.6923 C   0  0  0  0  0  0
  -26.0047  -26.9290   19.4736 C   0  0  0  0  0  0
  -24.8325  -27.7059   19.4871 C   0  0  0  0  0  0
  -23.6098  -29.8383   20.1634 C   0  0  0  0  0  0
  -25.4110  -36.3090   24.0359 C   0  0  1  0  0  0
  -20.5928  -28.3689   23.1309 C   0  0  2  0  0  0
  -20.6809  -26.9407   22.5426 C   0  0  0  0  0  0
  -19.5769  -26.6400   21.5224 C   0  0  0  0  0  0
  -18.1976  -26.7936   22.1673 C   0  0  0  0  0  0
  -19.1577  -28.8853   23.2927 C   0  0  0  0  0  0
  -18.9496  -30.1487   23.8869 C   0  0  0  0  0  0
  -17.6493  -30.6577   24.0607 C   0  0  0  0  0  0
  -25.9060  -34.9428   23.5168 C   0  0  0  0  0  0
  -16.5394  -29.9094   23.6318 C   0  0  0  0  0  0
  -16.7322  -28.6521   23.0328 C   0  0  0  0  0  0
  -26.4429  -31.6606   25.0838 C   0  0  0  0  0  0
  -25.3721  -31.3759   26.1652 C   0  0  0  0  0  0
  -27.0340  -30.3058   24.6354 C   0  0  0  0  0  0
  -27.6027  -32.4374   25.7536 C   0  0  0  0  0  0
  -27.5588  -37.1855   24.8464 C   0  0  0  0  0  0
  -21.4161  -29.3054   22.3666 N   0  0  0  0  0  0
  -26.4289  -37.3767   23.9416 N   0  0  0  0  0  0
  -24.6782  -31.0787   22.1001 N   0  0  0  0  0  0
  -23.4172  -28.8279   23.3030 O   0  0  0  0  0  0
  -28.2936  -26.5181   20.0855 O   0  0  0  0  0  0
  -26.5682  -34.8860   22.4775 O   0  0  0  0  0  0
  -23.5416  -32.1388   23.7530 O   0  0  0  0  0  0
  -28.0737  -22.0994   21.9570 C   0  0  0  0  0  0
  -28.6729  -20.8232   22.2115 C   0  0  0  0  0  0
  -28.5783  -22.6090   20.7715 C   0  0  0  0  0  0
  -29.4804  -20.5576   21.1474 C   0  0  0  0  0  0
  -29.9482  -16.3989   19.1102 C   0  0  0  0  0  0
  -30.0051  -16.8268   21.4122 C   0  0  0  0  0  0
  -29.3810  -17.8221   19.2596 C   0  0  2  0  0  0
  -29.4554  -18.1270   20.7496 C   0  0  2  0  0  0
  -27.0349  -22.6989   22.8738 C   0  0  0  0  0  0
  -28.4451  -19.9338   23.4132 C   0  0  0  0  0  0
  -27.9495  -17.9404   18.7139 C   0  0  0  0  0  0
  -26.9584  -23.5542   19.1366 C   0  0  0  0  0  0
  -30.1859  -21.6792   18.9959 C   0  0  0  0  0  0
  -28.1253  -25.2331   20.7742 C   0  0  0  0  0  0
  -28.2239  -23.8738   19.9630 C   0  0  1  0  0  0
  -29.4597  -21.6286   20.2625 N   0  0  0  0  0  0
  -29.9614  -15.7303   20.4186 N   0  0  0  0  0  0
  -30.2109  -19.3654   21.0002 N   0  0  0  0  0  0
  -31.4666  -12.4983   19.0985 H   0  0  0  0  0  0
  -30.3582  -11.3973   19.8793 H   0  0  0  0  0  0
  -29.7474  -11.7302   17.4585 H   0  0  0  0  0  0
  -29.6374  -13.4530   17.7148 H   0  0  0  0  0  0
  -27.8641  -11.2882   18.8769 H   0  0  0  0  0  0
  -27.3614  -12.5494   17.7861 H   0  0  0  0  0  0
  -27.6630  -14.2472   19.4736 H   0  0  0  0  0  0
  -28.7179  -12.1331   21.4314 H   0  0  0  0  0  0
  -28.4697  -13.8253   21.7735 H   0  0  0  0  0  0
  -25.2762   -9.5750   22.4772 H   0  0  0  0  0  0
  -24.0104   -7.4695   22.7538 H   0  0  0  0  0  0
  -21.0795   -8.8805   19.9118 H   0  0  0  0  0  0
  -22.3582  -10.9717   19.6325 H   0  0  0  0  0  0
  -21.1908   -7.6138   23.9724 H   0  0  0  0  0  0
  -21.1512   -6.0500   25.9125 H   0  0  0  0  0  0
  -22.0570   -2.7588   23.2826 H   0  0  0  0  0  0
  -22.4085  -11.9912   22.4739 H   0  0  0  0  0  0
  -21.1162  -13.1439   22.2697 H   0  0  0  0  0  0
  -24.6495  -15.8342   20.5174 H   0  0  0  0  0  0
  -26.2800  -15.6327   20.0973 H   0  0  0  0  0  0
  -26.7236  -32.5328   23.1262 H   0  0  0  0  0  0
  -24.9777  -33.9729   25.0291 H   0  0  0  0  0  0
  -22.7034  -31.3225   21.4102 H   0  0  0  0  0  0
  -23.3695  -35.9735   23.3303 H   0  0  0  0  0  0
  -24.3635  -36.8970   22.2091 H   0  0  0  0  0  0
  -23.7286  -37.6574   23.6666 H   0  0  0  0  0  0
  -26.1082  -31.5758   20.6212 H   0  0  0  0  0  0
  -26.8219  -30.8384   22.0182 H   0  0  0  0  0  0
  -28.0966  -29.0204   21.1752 H   0  0  0  0  0  0
  -25.9636  -25.9828   18.9727 H   0  0  0  0  0  0
  -23.9348  -27.3437   19.0049 H   0  0  0  0  0  0
  -23.7260  -30.6112   19.4040 H   0  0  0  0  0  0
  -22.7258  -29.2727   19.8602 H   0  0  0  0  0  0
  -25.1260  -36.1973   25.0841 H   0  0  0  0  0  0
  -21.0089  -28.3264   24.1410 H   0  0  0  0  0  0
  -20.5733  -26.2271   23.3607 H   0  0  0  0  0  0
  -21.6681  -26.7427   22.1213 H   0  0  0  0  0  0
  -19.6921  -25.6310   21.1247 H   0  0  0  0  0  0
  -19.6716  -27.3207   20.6742 H   0  0  0  0  0  0
  -17.4237  -26.6731   21.4091 H   0  0  0  0  0  0
  -18.0410  -26.0029   22.9018 H   0  0  0  0  0  0
  -19.7963  -30.7374   24.2161 H   0  0  0  0  0  0
  -17.5015  -31.6232   24.5273 H   0  0  0  0  0  0
  -15.5382  -30.2988   23.7625 H   0  0  0  0  0  0
  -15.8735  -28.0843   22.6984 H   0  0  0  0  0  0
  -24.5795  -30.7183   25.8059 H   0  0  0  0  0  0
  -24.8997  -32.2920   26.5212 H   0  0  0  0  0  0
  -25.8077  -30.8850   27.0370 H   0  0  0  0  0  0
  -26.2963  -29.6772   24.1383 H   0  0  0  0  0  0
  -27.4081  -29.7379   25.4897 H   0  0  0  0  0  0
  -27.8748  -30.4415   23.9567 H   0  0  0  0  0  0
  -27.2643  -33.3620   26.2229 H   0  0  0  0  0  0
  -28.3674  -32.7095   25.0249 H   0  0  0  0  0  0
  -28.0888  -31.8469   26.5332 H   0  0  0  0  0  0
  -28.2617  -38.0143   24.7413 H   0  0  0  0  0  0
  -28.1069  -36.2680   24.6311 H   0  0  0  0  0  0
  -27.2334  -37.1485   25.8879 H   0  0  0  0  0  0
  -20.9329  -29.8726   21.6818 H   0  0  0  0  0  0
  -26.0179  -38.2861   24.1329 H   0  0  0  0  0  0
  -30.9705  -16.4750   18.7267 H   0  0  0  0  0  0
  -29.3822  -15.8184   18.3833 H   0  0  0  0  0  0
  -29.3813  -16.5652   22.2736 H   0  0  0  0  0  0
  -31.0285  -16.9664   21.7757 H   0  0  0  0  0  0
  -30.0013  -18.5133   18.6828 H   0  0  0  0  0  0
  -28.4388  -18.2868   21.1165 H   0  0  0  0  0  0
  -27.4769  -22.9422   23.8423 H   0  0  0  0  0  0
  -26.2503  -21.9566   23.0478 H   0  0  0  0  0  0
  -26.5584  -23.5852   22.4636 H   0  0  0  0  0  0
  -27.5031  -19.3908   23.3315 H   0  0  0  0  0  0
  -28.4228  -20.5214   24.3251 H   0  0  0  0  0  0
  -29.2420  -19.1945   23.5041 H   0  0  0  0  0  0
  -27.2592  -17.2763   19.2347 H   0  0  0  0  0  0
  -27.9108  -17.6893   17.6531 H   0  0  0  0  0  0
  -27.5742  -18.9580   18.8159 H   0  0  0  0  0  0
  -27.0094  -22.5520   18.6993 H   0  0  0  0  0  0
  -26.8481  -24.2478   18.3000 H   0  0  0  0  0  0
  -26.0564  -23.5660   19.7599 H   0  0  0  0  0  0
  -30.6411  -22.6568   18.8396 H   0  0  0  0  0  0
  -29.4988  -21.4817   18.1741 H   0  0  0  0  0  0
  -30.9866  -20.9406   18.9630 H   0  0  0  0  0  0
  -28.9387  -25.2217   21.4994 H   0  0  0  0  0  0
  -27.2104  -25.2472   21.3638 H   0  0  0  0  0  0
  -29.0189  -24.0543   19.2451 H   0  0  0  0  0  0
  -31.0076  -19.4535   20.3764 H   0  0  0  0  0  0
  1 25  1  0  0  0
  1 30  2  0  0  0
  1 87  1  0  0  0
  2  3  1  0  0  0
  2 25  1  0  0  0
  2 89  1  0  0  0
  2 90  1  0  0  0
  3  4  1  0  0  0
  3 91  1  0  0  0
  3 92  1  0  0  0
  4  5  1  0  0  0
  4 93  1  0  0  0
  4 94  1  0  0  0
  5  6  1  0  0  0
  5 26  1  0  0  0
  5 95  1  0  0  0
  6 25  1  0  0  0
  6 96  1  0  0  0
  6 97  1  0  0  0
  7  8  2  0  0  0
  7 26  1  0  0  0
  7 29  1  0  0  0
  8  9  1  0  0  0
  8 22  1  0  0  0
  9 10  1  0  0  0
  9 27  2  0  0  0
 10 11  2  0  0  0
 10 15  1  0  0  0
 11 12  1  0  0  0
 11 98  1  0  0  0
 12 13  2  0  0  0
 12 99  1  0  0  0
 13 14  1  0  0  0
 13 31  1  0  0  0
 14 15  2  0  0  0
 14100  1  0  0  0
 15101  1  0  0  0
 16 17  2  0  0  0
 16 21  1  0  0  0
 16 31  1  0  0  0
 17 18  1  0  0  0
 17102  1  0  0  0
 18 19  2  0  0  0
 18103  1  0  0  0
 19 20  1  0  0  0
 19 24  1  0  0  0
 20 21  2  0  0  0
 20104  1  0  0  0
 21 23  1  0  0  0
 22 28  1  0  0  0
 22 32  2  0  0  0
 26 27  1  0  0  0
 28105  1  0  0  0
 28106  1  0  0  0
 29107  1  0  0  0
 29108  1  0  0  0
 33 34  1  0  0  0
 33 66  1  0  0  0
 33 70  2  0  0  0
 34 36  1  0  0  0
 34 59  1  0  0  0
 34109  1  0  0  0
 35 44  2  0  0  0
 35 45  1  0  0  0
 35 68  1  0  0  0
 36 56  1  0  0  0
 36110  1  0  0  0
 37 39  1  0  0  0
 37 47  1  0  0  0
 37 66  1  0  0  0
 37111  1  0  0  0
 38 43  2  0  0  0
 38 46  1  0  0  0
 38 47  1  0  0  0
 39 64  1  0  0  0
 39 67  2  0  0  0
 40 52  1  0  0  0
 40 53  2  0  0  0
 40 58  1  0  0  0
 41112  1  0  0  0
 41113  1  0  0  0
 41114  1  0  0  0
 41 48  1  0  0  0
 42 43  1  0  0  0
 42 66  1  0  0  0
 42115  1  0  0  0
 42116  1  0  0  0
 43 44  1  0  0  0
 44117  1  0  0  0
 45 46  2  0  0  0
 45118  1  0  0  0
 46119  1  0  0  0
 47120  1  0  0  0
 47121  1  0  0  0
 48 56  1  0  0  0
 48 65  1  0  0  0
 48122  1  0  0  0
 49 50  1  0  0  0
 49 53  1  0  0  0
 49 64  1  0  0  0
 49123  1  0  0  0
 50 51  1  0  0  0
 50124  1  0  0  0
 50125  1  0  0  0
 51 52  1  0  0  0
 51126  1  0  0  0
 51127  1  0  0  0
 52128  1  0  0  0
 52129  1  0  0  0
 53 54  1  0  0  0
 54 55  2  0  0  0
 54130  1  0  0  0
 55 57  1  0  0  0
 55131  1  0  0  0
 56 69  2  0  0  0
 57 58  2  0  0  0
 57132  1  0  0  0
 58133  1  0  0  0
 59 60  1  0  0  0
 59 61  1  0  0  0
 59 62  1  0  0  0
 60134  1  0  0  0
 60135  1  0  0  0
 60136  1  0  0  0
 61137  1  0  0  0
 61138  1  0  0  0
 61139  1  0  0  0
 62140  1  0  0  0
 62141  1  0  0  0
 62142  1  0  0  0
 63 65  1  0  0  0
 63143  1  0  0  0
 63144  1  0  0  0
 63145  1  0  0  0
 64146  1  0  0  0
 65147  1  0  0  0
 68 84  1  0  0  0
 71 72  1  0  0  0
 71 73  2  0  0  0
 71 79  1  0  0  0
 72 74  2  0  0  0
 72 80  1  0  0  0
 73 85  1  0  0  0
 73 86  1  0  0  0
 74 86  1  0  0  0
 74 88  1  0  0  0
 75 77  1  0  0  0
 75 87  1  0  0  0
 75148  1  0  0  0
 75149  1  0  0  0
 76 78  1  0  0  0
 76 87  1  0  0  0
 76150  1  0  0  0
 76151  1  0  0  0
 77 78  1  0  0  0
 77 81  1  0  0  0
 77152  1  0  0  0
 78 88  1  0  0  0
 78153  1  0  0  0
 79154  1  0  0  0
 79155  1  0  0  0
 79156  1  0  0  0
 80157  1  0  0  0
 80158  1  0  0  0
 80159  1  0  0  0
 81160  1  0  0  0
 81161  1  0  0  0
 81162  1  0  0  0
 82163  1  0  0  0
 82164  1  0  0  0
 82165  1  0  0  0
 82 85  1  0  0  0
 83 86  1  0  0  0
 83166  1  0  0  0
 83167  1  0  0  0
 83168  1  0  0  0
 84 85  1  0  0  0
 84169  1  0  0  0
 84170  1  0  0  0
 85171  1  0  0  0
 88172  1  0  0  0
M  ISO  4   1 100  68 101  84 101  87 100
M  END
> <chiral flag>
0

> <version>
0

> <s_m_source_file>
/data/baiqing/PycharmProjects/Reinvent-master-3.2/result/LINK_invent/BTK/process_docking_weight1_custom_sum_contain_oxygen_bond_distance_aromatic_linkinvent_7_9_3/rearranged_h_0168.sdf

> <i_m_source_file_index>
77

> <r_mmod_Potential_Energy-OPLS-2005>
138.157531738281

> <r_mmod_Stretch_Energy-OPLS-2005>
54.6403350830078

> <r_mmod_Bend_Energy-OPLS-2005>
146.604232788086

> <r_mmod_Torsional_Energy-OPLS-2005>
421.143341064453

> <r_mmod_Improper_Torsional_Energy-OPLS-2005>
22.6431465148926

> <r_mmod_Van_der_Waal_Energy-OPLS-2005>
110.009284973145

> <r_mmod_Electrostatic_Energy-OPLS-2005>
-463.010894775391

> <r_mmod_Solvation_Energy-OPLS-2005>
-197.632904052734

> <b_mmod_Minimization_Converged-OPLS-2005>
0

> <r_mmod_RMS_Derivative-OPLS-2005>
10.2046384811401

$$$$
77
                    3D
 Structure written by MMmdl.
174184  0  0  1  0            999 V2000
  -30.6339  -14.7638   20.4541 C   0  0  0  0  0  0
  -30.4215  -12.4721   19.4716 C   0  0  0  0  0  0
  -29.5029  -12.5035   18.2324 C   0  0  0  0  0  0
  -28.0316  -12.3255   18.6516 C   0  0  0  0  0  0
  -27.6340  -13.2388   19.8425 C   0  0  2  0  0  0
  -28.6803  -13.2068   20.9763 C   0  0  0  0  0  0
  -25.2477  -13.8213   20.5706 C   0  0  0  0  0  0
  -24.1783  -13.0444   20.9222 C   0  0  0  0  0  0
  -24.6387  -11.6926   20.8759 C   0  0  0  0  0  0
  -23.9072  -10.4296   21.0411 C   0  0  0  0  0  0
  -24.3621   -9.4208   21.9188 C   0  0  0  0  0  0
  -23.6296   -8.2243   22.0755 C   0  0  0  0  0  0
  -22.4280   -8.0282   21.3543 C   0  0  0  0  0  0
  -21.9916   -9.0255   20.4646 C   0  0  0  0  0  0
  -22.7244  -10.2135   20.3058 C   0  0  0  0  0  0
  -21.6854   -6.0736   22.5278 C   0  0  0  0  0  0
  -21.4014   -6.5640   23.8211 C   0  0  0  0  0  0
  -21.3659   -5.6794   24.9173 C   0  0  0  0  0  0
  -21.6044   -4.3057   24.7224 C   0  0  0  0  0  0
  -21.8818   -3.8147   23.4347 C   0  0  0  0  0  0
  -21.9192   -4.6964   22.3401 C   0  0  0  0  0  0
  -22.7803  -13.5218   21.1880 C   0  0  0  0  0  0
  -22.1661   -4.2149   21.0980 F   0  0  0  0  0  0
  -21.5630   -3.4541   25.7738 F   0  0  0  0  0  0
  -29.9726  -13.5562   20.3782 N   0  0  0  0  0  0
  -26.2902  -12.9432   20.3270 N   0  0  0  0  0  0
  -25.9317  -11.6568   20.5758 N   0  0  0  0  0  0
  -22.0453  -12.8200   22.0433 N   0  0  0  0  0  0
  -25.4155  -15.1936   20.4111 N   0  0  0  0  0  0
  -31.8361  -14.7965   20.1808 O   0  0  0  0  0  0
  -21.6642   -6.8879   21.4240 O   0  0  0  0  0  0
  -22.3483  -14.5522   20.6727 O   0  0  0  0  0  0
  -24.6329  -31.8535   23.1956 C   0  0  0  0  0  0
  -25.9146  -32.4747   23.8312 C   0  0  1  0  0  0
  -27.2191  -27.2463   20.1404 C   0  0  0  0  0  0
  -25.5935  -33.8548   24.2240 N   0  0  0  0  0  0
  -23.4306  -30.4750   21.5392 C   0  0  2  0  0  0
  -24.8787  -28.9149   20.1138 C   0  0  0  0  0  0
  -22.7511  -29.4596   22.4902 C   0  0  0  0  0  0
  -18.0296  -28.1389   22.8484 C   0  0  0  0  0  0
  -24.1490  -36.7276   23.2641 C   0  0  0  0  0  0
  -25.9771  -30.7632   21.3759 C   0  0  0  0  0  0
  -26.0514  -29.3824   20.7216 C   0  0  0  0  0  0
  -27.2280  -28.5630   20.7176 C   0  0  0  0  0  0
  -26.0256  -26.8474   19.5052 C   0  0  0  0  0  0
  -24.8716  -27.6559   19.4924 C   0  0  0  0  0  0
  -23.6505  -29.8047   20.1571 C   0  0  0  0  0  0
  -25.4119  -36.3063   24.0325 C   0  0  1  0  0  0
  -20.5901  -28.3704   23.1264 C   0  0  2  0  0  0
  -20.6785  -26.9420   22.5407 C   0  0  0  0  0  0
  -19.5760  -26.6386   21.5212 C   0  0  0  0  0  0
  -18.1940  -26.7930   22.1622 C   0  0  0  0  0  0
  -19.1551  -28.8863   23.2870 C   0  0  0  0  0  0
  -18.9472  -30.1460   23.8894 C   0  0  0  0  0  0
  -17.6471  -30.6591   24.0565 C   0  0  0  0  0  0
  -25.9061  -34.9437   23.5088 C   0  0  0  0  0  0
  -16.5363  -29.9088   23.6335 C   0  0  0  0  0  0
  -16.7282  -28.6505   23.0355 C   0  0  0  0  0  0
  -26.4507  -31.6576   25.0708 C   0  0  0  0  0  0
  -25.3719  -31.3727   26.1420 C   0  0  0  0  0  0
  -27.0360  -30.2995   24.6196 C   0  0  0  0  0  0
  -27.6061  -32.4316   25.7482 C   0  0  0  0  0  0
  -27.5577  -37.1796   24.8467 C   0  0  0  0  0  0
  -21.4216  -29.3049   22.3650 N   0  0  0  0  0  0
  -26.4290  -37.3766   23.9410 N   0  0  0  0  0  0
  -24.6994  -31.0489   22.0934 N   0  0  0  0  0  0
  -23.4204  -28.8139   23.3010 O   0  0  0  0  0  0
  -28.3088  -26.3433   20.1517 O   0  0  0  0  0  0
  -26.5636  -34.8916   22.4658 O   0  0  0  0  0  0
  -23.5474  -32.1361   23.7243 O   0  0  0  0  0  0
  -29.0448  -20.9246   20.5286 C   0  0  0  0  0  0
  -28.8518  -19.4713   20.5761 C   0  0  0  0  0  0
  -30.3843  -21.1293   20.5995 C   0  0  0  0  0  0
  -30.0731  -18.8102   20.7385 C   0  0  0  0  0  0
  -28.0527  -22.1507   20.4597 C   0  0  0  0  0  0
  -32.9400  -18.8352   22.1839 C   0  0  0  0  0  0
  -33.0380  -20.3233   22.2732 C   0  0  0  0  0  0
  -30.0971  -23.4829   19.6070 C   0  0  0  0  0  0
  -32.4587  -19.6923   21.0176 C   0  0  0  0  0  0
  -30.9870  -22.5426   20.5024 C   0  0  0  0  0  0
  -28.5528  -23.5705   19.8482 C   0  0  1  0  0  0
  -27.5156  -18.7816   20.4924 C   0  0  0  0  0  0
  -31.0810  -23.2102   21.8892 C   0  0  0  0  0  0
  -32.3804  -22.5716   19.8345 C   0  0  0  0  0  0
  -27.8711  -23.7069   18.4690 C   0  0  0  0  0  0
  -30.6142  -17.3055   20.9101 C   0  0  0  0  0  0
  -28.1039  -24.9283   20.6488 C   0  0  0  0  0  0
  -31.0105  -19.8761   20.8330 N   0  0  0  0  0  0
  -29.9382  -15.9573   20.6494 N   0  0  0  0  0  0
  -31.4630  -12.5858   19.1661 H   0  0  0  0  0  0
  -30.3623  -11.5054   19.9741 H   0  0  0  0  0  0
  -29.7889  -11.7208   17.5285 H   0  0  0  0  0  0
  -29.6244  -13.4509   17.7048 H   0  0  0  0  0  0
  -27.8963  -11.2796   18.9290 H   0  0  0  0  0  0
  -27.3706  -12.5013   17.8020 H   0  0  0  0  0  0
  -27.6181  -14.2542   19.4458 H   0  0  0  0  0  0
  -28.7246  -12.2213   21.4416 H   0  0  0  0  0  0
  -28.4149  -13.9112   21.7663 H   0  0  0  0  0  0
  -25.2764   -9.5687   22.4765 H   0  0  0  0  0  0
  -24.0005   -7.4636   22.7475 H   0  0  0  0  0  0
  -21.0848   -8.8773   19.8951 H   0  0  0  0  0  0
  -22.3701  -10.9674   19.6169 H   0  0  0  0  0  0
  -21.2007   -7.6149   23.9713 H   0  0  0  0  0  0
  -21.1483   -6.0525   25.9076 H   0  0  0  0  0  0
  -22.0598   -2.7610   23.2846 H   0  0  0  0  0  0
  -22.4075  -11.9859   22.4814 H   0  0  0  0  0  0
  -21.1069  -13.1216   22.2646 H   0  0  0  0  0  0
  -24.6449  -15.8445   20.5167 H   0  0  0  0  0  0
  -26.2569  -15.6305   20.0595 H   0  0  0  0  0  0
  -26.7211  -32.5398   23.1052 H   0  0  0  0  0  0
  -25.0090  -33.9687   25.0390 H   0  0  0  0  0  0
  -22.7277  -31.2974   21.3895 H   0  0  0  0  0  0
  -23.3754  -35.9606   23.3305 H   0  0  0  0  0  0
  -24.3575  -36.8897   22.2055 H   0  0  0  0  0  0
  -23.7242  -37.6476   23.6667 H   0  0  0  0  0  0
  -26.1141  -31.5203   20.6026 H   0  0  0  0  0  0
  -26.8556  -30.8170   22.0073 H   0  0  0  0  0  0
  -28.1293  -28.9183   21.1976 H   0  0  0  0  0  0
  -25.9752  -25.8827   19.0234 H   0  0  0  0  0  0
  -23.9756  -27.2936   19.0077 H   0  0  0  0  0  0
  -23.7776  -30.5788   19.3994 H   0  0  0  0  0  0
  -22.7683  -29.2389   19.8519 H   0  0  0  0  0  0
  -25.1299  -36.1909   25.0817 H   0  0  0  0  0  0
  -21.0000  -28.3287   24.1381 H   0  0  0  0  0  0
  -20.5688  -26.2316   23.3615 H   0  0  0  0  0  0
  -21.6652  -26.7439   22.1201 H   0  0  0  0  0  0
  -19.6926  -25.6295   21.1246 H   0  0  0  0  0  0
  -19.6698  -27.3194   20.6741 H   0  0  0  0  0  0
  -17.4210  -26.6683   21.4022 H   0  0  0  0  0  0
  -18.0334  -26.0068   22.9014 H   0  0  0  0  0  0
  -19.7948  -30.7278   24.2260 H   0  0  0  0  0  0
  -17.5026  -31.6270   24.5166 H   0  0  0  0  0  0
  -15.5364  -30.2991   23.7658 H   0  0  0  0  0  0
  -15.8681  -28.0825   22.7071 H   0  0  0  0  0  0
  -24.5916  -30.7055   25.7741 H   0  0  0  0  0  0
  -24.8884  -32.2893   26.4809 H   0  0  0  0  0  0
  -25.8024  -30.8931   27.0219 H   0  0  0  0  0  0
  -26.2948  -29.6733   24.1218 H   0  0  0  0  0  0
  -27.4046  -29.7266   25.4714 H   0  0  0  0  0  0
  -27.8815  -30.4273   23.9434 H   0  0  0  0  0  0
  -27.2684  -33.3635   26.2028 H   0  0  0  0  0  0
  -28.3888  -32.6845   25.0317 H   0  0  0  0  0  0
  -28.0709  -31.8454   26.5421 H   0  0  0  0  0  0
  -28.2594  -38.0092   24.7509 H   0  0  0  0  0  0
  -28.1071  -36.2623   24.6298 H   0  0  0  0  0  0
  -27.2292  -37.1447   25.8869 H   0  0  0  0  0  0
  -20.9409  -29.8771   21.6849 H   0  0  0  0  0  0
  -26.0165  -38.2837   24.1413 H   0  0  0  0  0  0
  -27.7522  -22.3306   21.4922 H   0  0  0  0  0  0
  -27.1381  -21.8230   19.9652 H   0  0  0  0  0  0
  -32.2541  -18.4135   22.9123 H   0  0  0  0  0  0
  -33.8672  -18.2820   22.0484 H   0  0  0  0  0  0
  -34.0336  -20.7588   22.2168 H   0  0  0  0  0  0
  -32.3761  -20.7621   23.0137 H   0  0  0  0  0  0
  -30.2423  -23.1271   18.5856 H   0  0  0  0  0  0
  -30.5064  -24.4944   19.5939 H   0  0  0  0  0  0
  -33.0142  -19.7034   20.0814 H   0  0  0  0  0  0
  -26.7721  -19.4243   20.0213 H   0  0  0  0  0  0
  -27.1596  -18.5201   21.4891 H   0  0  0  0  0  0
  -27.5912  -17.8682   19.9025 H   0  0  0  0  0  0
  -30.1228  -23.1891   22.4079 H   0  0  0  0  0  0
  -31.3845  -24.2543   21.8064 H   0  0  0  0  0  0
  -31.8094  -22.7366   22.5378 H   0  0  0  0  0  0
  -32.3767  -22.0370   18.8840 H   0  0  0  0  0  0
  -33.1641  -22.1466   20.4533 H   0  0  0  0  0  0
  -32.6982  -23.5944   19.6289 H   0  0  0  0  0  0
  -28.0857  -22.8529   17.8248 H   0  0  0  0  0  0
  -28.2043  -24.6051   17.9469 H   0  0  0  0  0  0
  -26.7870  -23.7673   18.5660 H   0  0  0  0  0  0
  -30.8585  -17.1906   21.9623 H   0  0  0  0  0  0
  -31.5664  -17.2619   20.3808 H   0  0  0  0  0  0
  -28.6031  -24.9006   21.6171 H   0  0  0  0  0  0
  -27.0507  -24.8090   20.9055 H   0  0  0  0  0  0
  -28.9410  -15.9027   20.7859 H   0  0  0  0  0  0
  1 25  1  0  0  0
  1 30  2  0  0  0
  1 89  1  0  0  0
  2  3  1  0  0  0
  2 25  1  0  0  0
  2 90  1  0  0  0
  2 91  1  0  0  0
  3  4  1  0  0  0
  3 92  1  0  0  0
  3 93  1  0  0  0
  4  5  1  0  0  0
  4 94  1  0  0  0
  4 95  1  0  0  0
  5  6  1  0  0  0
  5 26  1  0  0  0
  5 96  1  0  0  0
  6 25  1  0  0  0
  6 97  1  0  0  0
  6 98  1  0  0  0
  7  8  2  0  0  0
  7 26  1  0  0  0
  7 29  1  0  0  0
  8  9  1  0  0  0
  8 22  1  0  0  0
  9 10  1  0  0  0
  9 27  2  0  0  0
 10 11  2  0  0  0
 10 15  1  0  0  0
 11 12  1  0  0  0
 11 99  1  0  0  0
 12 13  2  0  0  0
 12100  1  0  0  0
 13 14  1  0  0  0
 13 31  1  0  0  0
 14 15  2  0  0  0
 14101  1  0  0  0
 15102  1  0  0  0
 16 17  2  0  0  0
 16 21  1  0  0  0
 16 31  1  0  0  0
 17 18  1  0  0  0
 17103  1  0  0  0
 18 19  2  0  0  0
 18104  1  0  0  0
 19 20  1  0  0  0
 19 24  1  0  0  0
 20 21  2  0  0  0
 20105  1  0  0  0
 21 23  1  0  0  0
 22 28  1  0  0  0
 22 32  2  0  0  0
 26 27  1  0  0  0
 28106  1  0  0  0
 28107  1  0  0  0
 29108  1  0  0  0
 29109  1  0  0  0
 33 34  1  0  0  0
 33 66  1  0  0  0
 33 70  2  0  0  0
 34 36  1  0  0  0
 34 59  1  0  0  0
 34110  1  0  0  0
 35 44  2  0  0  0
 35 45  1  0  0  0
 35 68  1  0  0  0
 36 56  1  0  0  0
 36111  1  0  0  0
 37 39  1  0  0  0
 37 47  1  0  0  0
 37 66  1  0  0  0
 37112  1  0  0  0
 38 43  2  0  0  0
 38 46  1  0  0  0
 38 47  1  0  0  0
 39 64  1  0  0  0
 39 67  2  0  0  0
 40 52  1  0  0  0
 40 53  2  0  0  0
 40 58  1  0  0  0
 41113  1  0  0  0
 41114  1  0  0  0
 41115  1  0  0  0
 41 48  1  0  0  0
 42 43  1  0  0  0
 42 66  1  0  0  0
 42116  1  0  0  0
 42117  1  0  0  0
 43 44  1  0  0  0
 44118  1  0  0  0
 45 46  2  0  0  0
 45119  1  0  0  0
 46120  1  0  0  0
 47121  1  0  0  0
 47122  1  0  0  0
 48 56  1  0  0  0
 48 65  1  0  0  0
 48123  1  0  0  0
 49 50  1  0  0  0
 49 53  1  0  0  0
 49 64  1  0  0  0
 49124  1  0  0  0
 50 51  1  0  0  0
 50125  1  0  0  0
 50126  1  0  0  0
 51 52  1  0  0  0
 51127  1  0  0  0
 51128  1  0  0  0
 52129  1  0  0  0
 52130  1  0  0  0
 53 54  1  0  0  0
 54 55  2  0  0  0
 54131  1  0  0  0
 55 57  1  0  0  0
 55132  1  0  0  0
 56 69  2  0  0  0
 57 58  2  0  0  0
 57133  1  0  0  0
 58134  1  0  0  0
 59 60  1  0  0  0
 59 61  1  0  0  0
 59 62  1  0  0  0
 60135  1  0  0  0
 60136  1  0  0  0
 60137  1  0  0  0
 61138  1  0  0  0
 61139  1  0  0  0
 61140  1  0  0  0
 62141  1  0  0  0
 62142  1  0  0  0
 62143  1  0  0  0
 63 65  1  0  0  0
 63144  1  0  0  0
 63145  1  0  0  0
 63146  1  0  0  0
 64147  1  0  0  0
 65148  1  0  0  0
 68 87  1  0  0  0
 71 72  1  0  0  0
 71 73  2  0  0  0
 71 75  1  0  0  0
 72 74  2  0  0  0
 72 82  1  0  0  0
 73 80  1  0  0  0
 73 88  1  0  0  0
 74 86  1  0  0  0
 74 88  1  0  0  0
 75 81  1  0  0  0
 75149  1  0  0  0
 75150  1  0  0  0
 76 77  1  0  0  0
 76 79  1  0  0  0
 76151  1  0  0  0
 76152  1  0  0  0
 77 79  1  0  0  0
 77153  1  0  0  0
 77154  1  0  0  0
 78 80  1  0  0  0
 78 81  1  0  0  0
 78155  1  0  0  0
 78156  1  0  0  0
 79 88  1  0  0  0
 79157  1  0  0  0
 80 83  1  0  0  0
 80 84  1  0  0  0
 81 85  1  0  0  0
 81 87  1  0  0  0
 82158  1  0  0  0
 82159  1  0  0  0
 82160  1  0  0  0
 83161  1  0  0  0
 83162  1  0  0  0
 83163  1  0  0  0
 84164  1  0  0  0
 84165  1  0  0  0
 84166  1  0  0  0
 85167  1  0  0  0
 85168  1  0  0  0
 85169  1  0  0  0
 86 89  1  0  0  0
 86170  1  0  0  0
 86171  1  0  0  0
 87172  1  0  0  0
 87173  1  0  0  0
 89174  1  0  0  0
M  ISO  4   1 100  68 101  87 101  89 100
M  END
> <chiral flag>
0

> <version>
0

> <s_m_source_file>
/data/baiqing/PycharmProjects/Reinvent-master-3.2/result/LINK_invent/BTK/process_docking_weight1_custom_sum_contain_oxygen_bond_distance_aromatic_linkinvent_7_9_3/rearranged_h_0168.sdf

> <i_m_source_file_index>
78

> <r_mmod_Potential_Energy-OPLS-2005>
269.622528076172

> <r_mmod_Stretch_Energy-OPLS-2005>
144.653839111328

> <r_mmod_Bend_Energy-OPLS-2005>
252.587051391602

> <r_mmod_Torsional_Energy-OPLS-2005>
304.108215332031

> <r_mmod_Improper_Torsional_Energy-OPLS-2005>
4.68936204910278

> <r_mmod_Van_der_Waal_Energy-OPLS-2005>
128.149169921875

> <r_mmod_Electrostatic_Energy-OPLS-2005>
-461.663330078125

> <r_mmod_Solvation_Energy-OPLS-2005>
-198.132858276367

> <b_mmod_Minimization_Converged-OPLS-2005>
0

> <r_mmod_RMS_Derivative-OPLS-2005>
0.487588316202164

$$$$
78
                    3D
 Structure written by MMmdl.
160169  0  0  1  0            999 V2000
  -30.3711  -15.3819   20.3827 C   0  0  0  0  0  0
  -30.4374  -12.9007   19.5300 C   0  0  0  0  0  0
  -29.5421  -12.6016   18.2981 C   0  0  0  0  0  0
  -28.0937  -12.2996   18.7223 C   0  0  0  0  0  0
  -27.6081  -13.2710   19.8250 C   0  0  2  0  0  0
  -28.6435  -13.4323   20.9578 C   0  0  0  0  0  0
  -25.2384  -13.8228   20.5700 C   0  0  0  0  0  0
  -24.1732  -13.0438   20.9218 C   0  0  0  0  0  0
  -24.6369  -11.6921   20.8710 C   0  0  0  0  0  0
  -23.9060  -10.4295   21.0381 C   0  0  0  0  0  0
  -24.3620   -9.4224   21.9178 C   0  0  0  0  0  0
  -23.6300   -8.2253   22.0769 C   0  0  0  0  0  0
  -22.4285   -8.0276   21.3550 C   0  0  0  0  0  0
  -21.9900   -9.0230   20.4645 C   0  0  0  0  0  0
  -22.7218  -10.2119   20.3051 C   0  0  0  0  0  0
  -21.6866   -6.0725   22.5272 C   0  0  0  0  0  0
  -21.4024   -6.5629   23.8199 C   0  0  0  0  0  0
  -21.3659   -5.6787   24.9175 C   0  0  0  0  0  0
  -21.6045   -4.3052   24.7224 C   0  0  0  0  0  0
  -21.8812   -3.8133   23.4345 C   0  0  0  0  0  0
  -21.9203   -4.6945   22.3404 C   0  0  0  0  0  0
  -22.7762  -13.5200   21.1882 C   0  0  0  0  0  0
  -22.1668   -4.2124   21.0984 F   0  0  0  0  0  0
  -21.5631   -3.4539   25.7747 F   0  0  0  0  0  0
  -29.8347  -14.0437   20.3314 N   0  0  0  0  0  0
  -26.2787  -12.9469   20.3176 N   0  0  0  0  0  0
  -25.9308  -11.6583   20.5679 N   0  0  0  0  0  0
  -22.0442  -12.8162   22.0428 N   0  0  0  0  0  0
  -25.4043  -15.1950   20.4070 N   0  0  0  0  0  0
  -31.5855  -15.3554   20.1170 O   0  0  0  0  0  0
  -21.6665   -6.8864   21.4239 O   0  0  0  0  0  0
  -22.3436  -14.5516   20.6765 O   0  0  0  0  0  0
  -24.6685  -31.8188   23.1636 C   0  0  0  0  0  0
  -25.9348  -32.4560   23.8138 C   0  0  1  0  0  0
  -27.2129  -26.8671   20.1827 C   0  0  0  0  0  0
  -25.6010  -33.8378   24.2040 N   0  0  0  0  0  0
  -23.4851  -30.4280   21.5149 C   0  0  2  0  0  0
  -24.9375  -28.8044   20.1054 C   0  0  0  0  0  0
  -22.7695  -29.4417   22.4764 C   0  0  0  0  0  0
  -18.0333  -28.1413   22.8469 C   0  0  0  0  0  0
  -24.1482  -36.7195   23.2650 C   0  0  0  0  0  0
  -26.0553  -30.6025   21.4013 C   0  0  0  0  0  0
  -26.1211  -29.1856   20.7489 C   0  0  0  0  0  0
  -27.2446  -28.2368   20.7703 C   0  0  0  0  0  0
  -26.0090  -26.6613   19.4709 C   0  0  0  0  0  0
  -24.9127  -27.5642   19.4432 C   0  0  0  0  0  0
  -23.7261  -29.7389   20.1412 C   0  0  0  0  0  0
  -25.4116  -36.2932   24.0296 C   0  0  1  0  0  0
  -20.5962  -28.3772   23.1176 C   0  0  2  0  0  0
  -20.6814  -26.9447   22.5402 C   0  0  0  0  0  0
  -19.5772  -26.6375   21.5220 C   0  0  0  0  0  0
  -18.1954  -26.7962   22.1609 C   0  0  0  0  0  0
  -19.1593  -28.8910   23.2815 C   0  0  0  0  0  0
  -18.9501  -30.1507   23.8847 C   0  0  0  0  0  0
  -17.6506  -30.6613   24.0554 C   0  0  0  0  0  0
  -25.9092  -34.9335   23.4977 C   0  0  0  0  0  0
  -16.5389  -29.9091   23.6365 C   0  0  0  0  0  0
  -16.7320  -28.6511   23.0387 C   0  0  0  0  0  0
  -26.4550  -31.6551   25.0716 C   0  0  0  0  0  0
  -25.3648  -31.3847   26.1365 C   0  0  0  0  0  0
  -27.0469  -30.2921   24.6516 C   0  0  0  0  0  0
  -27.6010  -32.4436   25.7505 C   0  0  0  0  0  0
  -27.5536  -37.1749   24.8457 C   0  0  0  0  0  0
  -21.4361  -29.3059   22.3530 N   0  0  0  0  0  0
  -26.4242  -37.3691   23.9415 N   0  0  0  0  0  0
  -24.7594  -30.9786   22.0804 N   0  0  0  0  0  0
  -23.4230  -28.7993   23.3039 O   0  0  0  0  0  0
  -28.1798  -25.7193   20.3380 O   0  0  0  0  0  0
  -26.5658  -34.8878   22.4560 O   0  0  0  0  0  0
  -23.5754  -32.1201   23.6682 O   0  0  0  0  0  0
  -27.2084  -20.6376   21.5979 C   0  0  0  0  0  0
  -27.9965  -19.5402   21.1369 C   0  0  0  0  0  0
  -29.0954  -19.7523   20.3016 C   0  0  0  0  0  0
  -27.3718  -22.0180   21.2373 C   0  0  0  0  0  0
  -29.2259  -21.2558   19.9012 C   0  0  0  0  0  0
  -28.3725  -22.4860   20.3363 C   0  0  0  0  0  0
  -27.5571  -18.0909   21.4219 C   0  0  0  0  0  0
  -28.6059  -16.9121   21.5164 C   0  0  0  0  0  0
  -29.9322  -18.2644   19.9270 C   0  0  2  0  0  0
  -26.3441  -23.0002   21.7764 C   0  0  0  0  0  0
  -30.3153  -21.5611   18.8944 C   0  0  0  0  0  0
  -30.0766  -18.1603   18.4013 C   0  0  0  0  0  0
  -28.2140  -24.1584   19.7259 C   0  0  0  0  0  0
  -29.6248  -16.7109   20.4540 N   0  0  0  0  0  0
  -31.4398  -13.1458   19.1772 H   0  0  0  0  0  0
  -30.5657  -12.0103   20.1462 H   0  0  0  0  0  0
  -29.9518  -11.7657   17.7284 H   0  0  0  0  0  0
  -29.5510  -13.4646   17.6300 H   0  0  0  0  0  0
  -28.0676  -11.2772   19.1017 H   0  0  0  0  0  0
  -27.4325  -12.3271   17.8542 H   0  0  0  0  0  0
  -27.5226  -14.2380   19.3272 H   0  0  0  0  0  0
  -28.8624  -12.4710   21.4243 H   0  0  0  0  0  0
  -28.2592  -14.0327   21.7739 H   0  0  0  0  0  0
  -25.2778   -9.5715   22.4723 H   0  0  0  0  0  0
  -24.0015   -7.4651   22.7501 H   0  0  0  0  0  0
  -21.0834   -8.8723   19.8941 H   0  0  0  0  0  0
  -22.3667  -10.9639   19.6142 H   0  0  0  0  0  0
  -21.2013   -7.6130   23.9706 H   0  0  0  0  0  0
  -21.1493   -6.0530   25.9078 H   0  0  0  0  0  0
  -22.0589   -2.7589   23.2872 H   0  0  0  0  0  0
  -22.4090  -11.9809   22.4761 H   0  0  0  0  0  0
  -21.1063  -13.1168   22.2657 H   0  0  0  0  0  0
  -24.6306  -15.8469   20.4752 H   0  0  0  0  0  0
  -26.2410  -15.6128   20.0222 H   0  0  0  0  0  0
  -26.7424  -32.5084   23.0857 H   0  0  0  0  0  0
  -25.0287  -33.9465   25.0277 H   0  0  0  0  0  0
  -22.8012  -31.2618   21.3422 H   0  0  0  0  0  0
  -23.3745  -35.9518   23.3256 H   0  0  0  0  0  0
  -24.3555  -36.8895   22.2068 H   0  0  0  0  0  0
  -23.7229  -37.6368   23.6749 H   0  0  0  0  0  0
  -26.2401  -31.3341   20.6139 H   0  0  0  0  0  0
  -26.9153  -30.6659   22.0573 H   0  0  0  0  0  0
  -28.1316  -28.5212   21.3174 H   0  0  0  0  0  0
  -25.8635  -25.7175   18.9687 H   0  0  0  0  0  0
  -24.0182  -27.2719   18.9121 H   0  0  0  0  0  0
  -23.8769  -30.5062   19.3816 H   0  0  0  0  0  0
  -22.8333  -29.1934   19.8286 H   0  0  0  0  0  0
  -25.1303  -36.1710   25.0778 H   0  0  0  0  0  0
  -21.0043  -28.3384   24.1303 H   0  0  0  0  0  0
  -20.5712  -26.2385   23.3656 H   0  0  0  0  0  0
  -21.6671  -26.7426   22.1172 H   0  0  0  0  0  0
  -19.6920  -25.6258   21.1312 H   0  0  0  0  0  0
  -19.6707  -27.3140   20.6712 H   0  0  0  0  0  0
  -17.4231  -26.6740   21.3993 H   0  0  0  0  0  0
  -18.0295  -26.0098   22.8990 H   0  0  0  0  0  0
  -19.7976  -30.7351   24.2156 H   0  0  0  0  0  0
  -17.5054  -31.6290   24.5157 H   0  0  0  0  0  0
  -15.5391  -30.2979   23.7732 H   0  0  0  0  0  0
  -15.8706  -28.0824   22.7130 H   0  0  0  0  0  0
  -24.5863  -30.7125   25.7721 H   0  0  0  0  0  0
  -24.8782  -32.3059   26.4594 H   0  0  0  0  0  0
  -25.7877  -30.9175   27.0275 H   0  0  0  0  0  0
  -26.3164  -29.6607   24.1449 H   0  0  0  0  0  0
  -27.3890  -29.7282   25.5206 H   0  0  0  0  0  0
  -27.9132  -30.4088   23.9997 H   0  0  0  0  0  0
  -27.2542  -33.3854   26.1781 H   0  0  0  0  0  0
  -28.3937  -32.6847   25.0401 H   0  0  0  0  0  0
  -28.0518  -31.8774   26.5668 H   0  0  0  0  0  0
  -28.2521  -38.0077   24.7520 H   0  0  0  0  0  0
  -28.1063  -36.2607   24.6256 H   0  0  0  0  0  0
  -27.2264  -37.1340   25.8862 H   0  0  0  0  0  0
  -20.9648  -29.8772   21.6654 H   0  0  0  0  0  0
  -26.0067  -38.2736   24.1473 H   0  0  0  0  0  0
  -26.3727  -20.3915   22.2384 H   0  0  0  0  0  0
  -26.8354  -17.8412   20.6426 H   0  0  0  0  0  0
  -26.9773  -18.1005   22.3466 H   0  0  0  0  0  0
  -27.9924  -16.0245   21.5895 H   0  0  0  0  0  0
  -29.1420  -17.0010   22.4597 H   0  0  0  0  0  0
  -30.9356  -18.4515   20.3118 H   0  0  0  0  0  0
  -25.7895  -22.5847   22.6209 H   0  0  0  0  0  0
  -25.6246  -23.2596   20.9986 H   0  0  0  0  0  0
  -26.8216  -23.9173   22.1178 H   0  0  0  0  0  0
  -31.2329  -21.0310   19.1512 H   0  0  0  0  0  0
  -30.5546  -22.6209   18.8626 H   0  0  0  0  0  0
  -29.9981  -21.2578   17.8957 H   0  0  0  0  0  0
  -29.0961  -18.1076   17.9272 H   0  0  0  0  0  0
  -30.6354  -17.2725   18.1035 H   0  0  0  0  0  0
  -30.6109  -19.0103   17.9818 H   0  0  0  0  0  0
  -27.3096  -24.0892   19.1267 H   0  0  0  0  0  0
  -28.9962  -24.2368   18.9728 H   0  0  0  0  0  0
  1 25  1  0  0  0
  1 30  2  0  0  0
  1 84  1  0  0  0
  2  3  1  0  0  0
  2 25  1  0  0  0
  2 85  1  0  0  0
  2 86  1  0  0  0
  3  4  1  0  0  0
  3 87  1  0  0  0
  3 88  1  0  0  0
  4  5  1  0  0  0
  4 89  1  0  0  0
  4 90  1  0  0  0
  5  6  1  0  0  0
  5 26  1  0  0  0
  5 91  1  0  0  0
  6 25  1  0  0  0
  6 92  1  0  0  0
  6 93  1  0  0  0
  7  8  2  0  0  0
  7 26  1  0  0  0
  7 29  1  0  0  0
  8  9  1  0  0  0
  8 22  1  0  0  0
  9 10  1  0  0  0
  9 27  2  0  0  0
 10 11  2  0  0  0
 10 15  1  0  0  0
 11 12  1  0  0  0
 11 94  1  0  0  0
 12 13  2  0  0  0
 12 95  1  0  0  0
 13 14  1  0  0  0
 13 31  1  0  0  0
 14 15  2  0  0  0
 14 96  1  0  0  0
 15 97  1  0  0  0
 16 17  2  0  0  0
 16 21  1  0  0  0
 16 31  1  0  0  0
 17 18  1  0  0  0
 17 98  1  0  0  0
 18 19  2  0  0  0
 18 99  1  0  0  0
 19 20  1  0  0  0
 19 24  1  0  0  0
 20 21  2  0  0  0
 20100  1  0  0  0
 21 23  1  0  0  0
 22 28  1  0  0  0
 22 32  2  0  0  0
 26 27  1  0  0  0
 28101  1  0  0  0
 28102  1  0  0  0
 29103  1  0  0  0
 29104  1  0  0  0
 33 34  1  0  0  0
 33 66  1  0  0  0
 33 70  2  0  0  0
 34 36  1  0  0  0
 34 59  1  0  0  0
 34105  1  0  0  0
 35 44  2  0  0  0
 35 45  1  0  0  0
 35 68  1  0  0  0
 36 56  1  0  0  0
 36106  1  0  0  0
 37 39  1  0  0  0
 37 47  1  0  0  0
 37 66  1  0  0  0
 37107  1  0  0  0
 38 43  2  0  0  0
 38 46  1  0  0  0
 38 47  1  0  0  0
 39 64  1  0  0  0
 39 67  2  0  0  0
 40 52  1  0  0  0
 40 53  2  0  0  0
 40 58  1  0  0  0
 41108  1  0  0  0
 41109  1  0  0  0
 41110  1  0  0  0
 41 48  1  0  0  0
 42 43  1  0  0  0
 42 66  1  0  0  0
 42111  1  0  0  0
 42112  1  0  0  0
 43 44  1  0  0  0
 44113  1  0  0  0
 45 46  2  0  0  0
 45114  1  0  0  0
 46115  1  0  0  0
 47116  1  0  0  0
 47117  1  0  0  0
 48 56  1  0  0  0
 48 65  1  0  0  0
 48118  1  0  0  0
 49 50  1  0  0  0
 49 53  1  0  0  0
 49 64  1  0  0  0
 49119  1  0  0  0
 50 51  1  0  0  0
 50120  1  0  0  0
 50121  1  0  0  0
 51 52  1  0  0  0
 51122  1  0  0  0
 51123  1  0  0  0
 52124  1  0  0  0
 52125  1  0  0  0
 53 54  1  0  0  0
 54 55  2  0  0  0
 54126  1  0  0  0
 55 57  1  0  0  0
 55127  1  0  0  0
 56 69  2  0  0  0
 57 58  2  0  0  0
 57128  1  0  0  0
 58129  1  0  0  0
 59 60  1  0  0  0
 59 61  1  0  0  0
 59 62  1  0  0  0
 60130  1  0  0  0
 60131  1  0  0  0
 60132  1  0  0  0
 61133  1  0  0  0
 61134  1  0  0  0
 61135  1  0  0  0
 62136  1  0  0  0
 62137  1  0  0  0
 62138  1  0  0  0
 63 65  1  0  0  0
 63139  1  0  0  0
 63140  1  0  0  0
 63141  1  0  0  0
 64142  1  0  0  0
 65143  1  0  0  0
 68 83  1  0  0  0
 71 72  2  0  0  0
 71 74  1  0  0  0
 71144  1  0  0  0
 72 73  1  0  0  0
 72 77  1  0  0  0
 73 75  2  0  0  0
 73 79  1  0  0  0
 74 76  2  0  0  0
 74 80  1  0  0  0
 75 76  1  0  0  0
 75 81  1  0  0  0
 76 83  1  0  0  0
 77 78  1  0  0  0
 77145  1  0  0  0
 77146  1  0  0  0
 78 84  1  0  0  0
 78147  1  0  0  0
 78148  1  0  0  0
 79 82  1  0  0  0
 79 84  1  0  0  0
 79149  1  0  0  0
 80150  1  0  0  0
 80151  1  0  0  0
 80152  1  0  0  0
 81153  1  0  0  0
 81154  1  0  0  0
 81155  1  0  0  0
 82156  1  0  0  0
 82157  1  0  0  0
 82158  1  0  0  0
 83159  1  0  0  0
 83160  1  0  0  0
M  ISO  4   1 100  68 101  83 101  84 100
M  END
> <chiral flag>
0

> <version>
0

> <s_m_source_file>
/data/baiqing/PycharmProjects/Reinvent-master-3.2/result/LINK_invent/BTK/process_docking_weight1_custom_sum_contain_oxygen_bond_distance_aromatic_linkinvent_7_9_3/rearranged_h_0168.sdf

> <i_m_source_file_index>
79

> <r_mmod_Potential_Energy-OPLS-2005>
1655.07336425781

> <r_mmod_Stretch_Energy-OPLS-2005>
663.251770019531

> <r_mmod_Bend_Energy-OPLS-2005>
480.010192871094

> <r_mmod_Torsional_Energy-OPLS-2005>
294.772613525391

> <r_mmod_Improper_Torsional_Energy-OPLS-2005>
10.8550624847412

> <r_mmod_Van_der_Waal_Energy-OPLS-2005>
126.893173217773

> <r_mmod_Electrostatic_Energy-OPLS-2005>
-295.758117675781

> <r_mmod_Solvation_Energy-OPLS-2005>
-196.390548706055

> <b_mmod_Minimization_Converged-OPLS-2005>
0

> <r_mmod_RMS_Derivative-OPLS-2005>
3.54911184310913

$$$$
80
                    3D
 Structure written by MMmdl.
182192  0  0  1  0            999 V2000
  -30.6117  -14.7355   20.3976 C   0  0  0  0  0  0
  -30.4340  -12.4295   19.4639 C   0  0  0  0  0  0
  -29.5041  -12.4474   18.2311 C   0  0  0  0  0  0
  -28.0291  -12.3036   18.6519 C   0  0  0  0  0  0
  -27.6392  -13.2237   19.8406 C   0  0  2  0  0  0
  -28.6915  -13.1870   20.9699 C   0  0  0  0  0  0
  -25.2544  -13.8192   20.5698 C   0  0  0  0  0  0
  -24.1821  -13.0442   20.9200 C   0  0  0  0  0  0
  -24.6398  -11.6912   20.8758 C   0  0  0  0  0  0
  -23.9080  -10.4291   21.0415 C   0  0  0  0  0  0
  -24.3632   -9.4202   21.9186 C   0  0  0  0  0  0
  -23.6303   -8.2237   22.0753 C   0  0  0  0  0  0
  -22.4285   -8.0283   21.3542 C   0  0  0  0  0  0
  -21.9922   -9.0263   20.4649 C   0  0  0  0  0  0
  -22.7251  -10.2138   20.3062 C   0  0  0  0  0  0
  -21.6867   -6.0739   22.5275 C   0  0  0  0  0  0
  -21.4022   -6.5642   23.8205 C   0  0  0  0  0  0
  -21.3657   -5.6795   24.9167 C   0  0  0  0  0  0
  -21.6043   -4.3056   24.7228 C   0  0  0  0  0  0
  -21.8824   -3.8149   23.4350 C   0  0  0  0  0  0
  -21.9198   -4.6964   22.3401 C   0  0  0  0  0  0
  -22.7839  -13.5222   21.1855 C   0  0  0  0  0  0
  -22.1663   -4.2146   21.0979 F   0  0  0  0  0  0
  -21.5627   -3.4540   25.7742 F   0  0  0  0  0  0
  -29.9855  -13.5131   20.3630 N   0  0  0  0  0  0
  -26.2954  -12.9369   20.3288 N   0  0  0  0  0  0
  -25.9332  -11.6523   20.5801 N   0  0  0  0  0  0
  -22.0495  -12.8209   22.0413 N   0  0  0  0  0  0
  -25.4276  -15.1904   20.4077 N   0  0  0  0  0  0
  -31.8378  -14.7929   20.2674 O   0  0  0  0  0  0
  -21.6649   -6.8882   21.4237 O   0  0  0  0  0  0
  -22.3514  -14.5527   20.6698 O   0  0  0  0  0  0
  -24.6315  -31.8565   23.1988 C   0  0  0  0  0  0
  -25.9144  -32.4749   23.8336 C   0  0  1  0  0  0
  -27.2223  -27.2746   20.1290 C   0  0  0  0  0  0
  -25.5948  -33.8554   24.2261 N   0  0  0  0  0  0
  -23.4276  -30.4784   21.5433 C   0  0  2  0  0  0
  -24.8744  -28.9291   20.1121 C   0  0  0  0  0  0
  -22.7514  -29.4599   22.4935 C   0  0  0  0  0  0
  -18.0296  -28.1389   22.8490 C   0  0  0  0  0  0
  -24.1490  -36.7284   23.2636 C   0  0  0  0  0  0
  -25.9735  -30.7734   21.3778 C   0  0  0  0  0  0
  -26.0466  -29.3975   20.7197 C   0  0  0  0  0  0
  -27.2242  -28.5842   20.7144 C   0  0  0  0  0  0
  -26.0250  -26.8729   19.4935 C   0  0  0  0  0  0
  -24.8687  -27.6741   19.4883 C   0  0  0  0  0  0
  -23.6454  -29.8144   20.1591 C   0  0  0  0  0  0
  -25.4112  -36.3065   24.0326 C   0  0  1  0  0  0
  -20.5901  -28.3696   23.1290 C   0  0  2  0  0  0
  -20.6790  -26.9415   22.5433 C   0  0  0  0  0  0
  -19.5762  -26.6383   21.5236 C   0  0  0  0  0  0
  -18.1935  -26.7936   22.1624 C   0  0  0  0  0  0
  -19.1551  -28.8860   23.2880 C   0  0  0  0  0  0
  -18.9467  -30.1463   23.8892 C   0  0  0  0  0  0
  -17.6465  -30.6587   24.0566 C   0  0  0  0  0  0
  -25.9057  -34.9437   23.5094 C   0  0  0  0  0  0
  -16.5356  -29.9086   23.6329 C   0  0  0  0  0  0
  -16.7284  -28.6505   23.0349 C   0  0  0  0  0  0
  -26.4497  -31.6564   25.0726 C   0  0  0  0  0  0
  -25.3714  -31.3743   26.1450 C   0  0  0  0  0  0
  -27.0314  -30.2958   24.6220 C   0  0  0  0  0  0
  -27.6053  -32.4301   25.7503 C   0  0  0  0  0  0
  -27.5589  -37.1792   24.8457 C   0  0  0  0  0  0
  -21.4223  -29.3040   22.3680 N   0  0  0  0  0  0
  -26.4279  -37.3776   23.9424 N   0  0  0  0  0  0
  -24.6963  -31.0537   22.0961 N   0  0  0  0  0  0
  -23.4220  -28.8144   23.3027 O   0  0  0  0  0  0
  -28.3247  -26.3903   20.1701 O   0  0  0  0  0  0
  -26.5630  -34.8914   22.4662 O   0  0  0  0  0  0
  -23.5460  -32.1403   23.7265 O   0  0  0  0  0  0
  -29.2432  -22.0617   23.3718 C   0  0  0  0  0  0
  -28.7733  -22.1129   24.6984 C   0  0  0  0  0  0
  -27.0184  -22.5798   22.5715 C   0  0  0  0  0  0
  -28.3702  -22.2709   22.2735 C   0  0  0  0  0  0
  -27.4197  -22.3915   24.9700 C   0  0  0  0  0  0
  -26.5385  -22.6360   23.8955 C   0  0  0  0  0  0
  -28.8722  -17.0321   18.5828 C   0  0  0  0  0  0
  -27.8075  -21.5839   19.8967 C   0  0  0  0  0  0
  -30.1691  -16.2450   18.4662 C   0  0  0  0  0  0
  -27.9035  -20.0630   20.1979 C   0  0  0  0  0  0
  -29.1560  -17.0978   20.0845 C   0  0  2  0  0  0
  -30.0027  -21.0956   20.5605 C   0  0  2  0  0  0
  -28.8763  -22.2576   20.8014 C   0  0  2  0  0  0
  -26.9352  -22.4524   26.4093 C   0  0  0  0  0  0
  -25.0791  -22.9786   24.1424 C   0  0  0  0  0  0
  -31.0489  -21.4678   19.4913 C   0  0  0  0  0  0
  -30.3253  -24.3891   21.3233 C   0  0  0  0  0  0
  -29.9047  -18.4178   20.6150 C   0  0  0  0  0  0
  -28.0518  -24.9217   20.3335 C   0  0  0  0  0  0
  -29.2290  -23.8162   20.4006 C   0  0  2  0  0  0
  -29.8822  -15.7655   19.8220 N   0  0  0  0  0  0
  -29.3497  -19.7841   20.1476 N   0  3  1  0  0  0
  -31.4710  -12.5592   19.1501 H   0  0  0  0  0  0
  -30.3889  -11.4648   19.9719 H   0  0  0  0  0  0
  -29.7735  -11.6430   17.5450 H   0  0  0  0  0  0
  -29.6376  -13.3703   17.6722 H   0  0  0  0  0  0
  -27.8747  -11.2605   18.9286 H   0  0  0  0  0  0
  -27.3741  -12.4868   17.7995 H   0  0  0  0  0  0
  -27.6229  -14.2364   19.4397 H   0  0  0  0  0  0
  -28.7242  -12.2078   21.4506 H   0  0  0  0  0  0
  -28.4452  -13.9135   21.7460 H   0  0  0  0  0  0
  -25.2780   -9.5674   22.4755 H   0  0  0  0  0  0
  -24.0017   -7.4633   22.7470 H   0  0  0  0  0  0
  -21.0853   -8.8776   19.8958 H   0  0  0  0  0  0
  -22.3708  -10.9677   19.6171 H   0  0  0  0  0  0
  -21.2018   -7.6150   23.9711 H   0  0  0  0  0  0
  -21.1468   -6.0522   25.9067 H   0  0  0  0  0  0
  -22.0610   -2.7612   23.2853 H   0  0  0  0  0  0
  -22.4125  -11.9865   22.4790 H   0  0  0  0  0  0
  -21.1118  -13.1218   22.2641 H   0  0  0  0  0  0
  -24.6676  -15.8524   20.5179 H   0  0  0  0  0  0
  -26.2839  -15.6161   20.0783 H   0  0  0  0  0  0
  -26.7217  -32.5399   23.1086 H   0  0  0  0  0  0
  -25.0101  -33.9692   25.0407 H   0  0  0  0  0  0
  -22.7236  -31.2997   21.3966 H   0  0  0  0  0  0
  -23.3761  -35.9606   23.3249 H   0  0  0  0  0  0
  -24.3600  -36.8954   22.2062 H   0  0  0  0  0  0
  -23.7219  -37.6459   23.6691 H   0  0  0  0  0  0
  -26.1123  -31.5356   20.6099 H   0  0  0  0  0  0
  -26.8521  -30.8212   22.0101 H   0  0  0  0  0  0
  -28.1215  -28.9390   21.2013 H   0  0  0  0  0  0
  -25.9465  -25.9235   18.9892 H   0  0  0  0  0  0
  -23.9733  -27.3107   19.0033 H   0  0  0  0  0  0
  -23.7717  -30.5927   19.4060 H   0  0  0  0  0  0
  -22.7643  -29.2489   19.8507 H   0  0  0  0  0  0
  -25.1285  -36.1911   25.0814 H   0  0  0  0  0  0
  -20.9979  -28.3275   24.1413 H   0  0  0  0  0  0
  -20.5706  -26.2305   23.3638 H   0  0  0  0  0  0
  -21.6657  -26.7451   22.1216 H   0  0  0  0  0  0
  -19.6927  -25.6295   21.1265 H   0  0  0  0  0  0
  -19.6700  -27.3199   20.6770 H   0  0  0  0  0  0
  -17.4224  -26.6716   21.4004 H   0  0  0  0  0  0
  -18.0288  -26.0072   22.9003 H   0  0  0  0  0  0
  -19.7941  -30.7291   24.2249 H   0  0  0  0  0  0
  -17.5013  -31.6262   24.5176 H   0  0  0  0  0  0
  -15.5356  -30.2982   23.7650 H   0  0  0  0  0  0
  -15.8690  -28.0827   22.7049 H   0  0  0  0  0  0
  -24.5948  -30.6991   25.7834 H   0  0  0  0  0  0
  -24.8824  -32.2906   26.4768 H   0  0  0  0  0  0
  -25.8049  -30.9057   27.0295 H   0  0  0  0  0  0
  -26.2892  -29.6726   24.1213 H   0  0  0  0  0  0
  -27.3928  -29.7202   25.4755 H   0  0  0  0  0  0
  -27.8810  -30.4185   23.9498 H   0  0  0  0  0  0
  -27.2663  -33.3619   26.2042 H   0  0  0  0  0  0
  -28.3894  -32.6822   25.0353 H   0  0  0  0  0  0
  -28.0682  -31.8443   26.5455 H   0  0  0  0  0  0
  -28.2569  -38.0123   24.7538 H   0  0  0  0  0  0
  -28.1115  -36.2656   24.6217 H   0  0  0  0  0  0
  -27.2330  -37.1373   25.8863 H   0  0  0  0  0  0
  -20.9414  -29.8751   21.6877 H   0  0  0  0  0  0
  -26.0150  -38.2840   24.1447 H   0  0  0  0  0  0
  -30.3004  -21.8960   23.2376 H   0  0  0  0  0  0
  -29.4683  -21.9535   25.5120 H   0  0  0  0  0  0
  -26.3193  -22.8215   21.7864 H   0  0  0  0  0  0
  -27.9903  -16.4393   18.3304 H   0  0  0  0  0  0
  -28.8768  -17.9788   18.0448 H   0  0  0  0  0  0
  -26.7943  -21.9632   19.9929 H   0  0  0  0  0  0
  -28.0640  -21.7516   18.8492 H   0  0  0  0  0  0
  -31.0692  -16.8580   18.3868 H   0  0  0  0  0  0
  -30.1432  -15.4921   17.6803 H   0  0  0  0  0  0
  -27.3460  -19.4674   19.4747 H   0  0  0  0  0  0
  -27.5110  -19.8378   21.1906 H   0  0  0  0  0  0
  -28.2210  -16.9466   20.6260 H   0  0  0  0  0  0
  -30.5741  -20.8994   21.4633 H   0  0  0  0  0  0
  -27.7371  -22.2283   27.1130 H   0  0  0  0  0  0
  -26.1334  -21.7328   26.5784 H   0  0  0  0  0  0
  -26.5563  -23.4478   26.6437 H   0  0  0  0  0  0
  -24.5395  -23.1413   23.2085 H   0  0  0  0  0  0
  -24.9942  -23.8882   24.7376 H   0  0  0  0  0  0
  -24.5844  -22.1671   24.6761 H   0  0  0  0  0  0
  -30.5887  -21.6863   18.5271 H   0  0  0  0  0  0
  -31.7631  -20.6575   19.3405 H   0  0  0  0  0  0
  -31.6356  -22.3379   19.7788 H   0  0  0  0  0  0
  -31.1688  -23.7116   21.4468 H   0  0  0  0  0  0
  -29.9349  -24.6045   22.3184 H   0  0  0  0  0  0
  -30.7144  -25.3254   20.9237 H   0  0  0  0  0  0
  -30.9567  -18.3829   20.3324 H   0  0  0  0  0  0
  -29.9032  -18.4157   21.7055 H   0  0  0  0  0  0
  -27.4600  -24.8447   21.2438 H   0  0  0  0  0  0
  -27.4094  -24.5810   19.5251 H   0  0  0  0  0  0
  -29.6480  -23.7901   19.3950 H   0  0  0  0  0  0
  -29.5287  -19.7622   19.1555 H   0  0  0  0  0  0
  1 25  1  0  0  0
  1 30  2  0  0  0
  1 91  1  0  0  0
  2  3  1  0  0  0
  2 25  1  0  0  0
  2 93  1  0  0  0
  2 94  1  0  0  0
  3  4  1  0  0  0
  3 95  1  0  0  0
  3 96  1  0  0  0
  4  5  1  0  0  0
  4 97  1  0  0  0
  4 98  1  0  0  0
  5  6  1  0  0  0
  5 26  1  0  0  0
  5 99  1  0  0  0
  6 25  1  0  0  0
  6100  1  0  0  0
  6101  1  0  0  0
  7  8  2  0  0  0
  7 26  1  0  0  0
  7 29  1  0  0  0
  8  9  1  0  0  0
  8 22  1  0  0  0
  9 10  1  0  0  0
  9 27  2  0  0  0
 10 11  2  0  0  0
 10 15  1  0  0  0
 11 12  1  0  0  0
 11102  1  0  0  0
 12 13  2  0  0  0
 12103  1  0  0  0
 13 14  1  0  0  0
 13 31  1  0  0  0
 14 15  2  0  0  0
 14104  1  0  0  0
 15105  1  0  0  0
 16 17  2  0  0  0
 16 21  1  0  0  0
 16 31  1  0  0  0
 17 18  1  0  0  0
 17106  1  0  0  0
 18 19  2  0  0  0
 18107  1  0  0  0
 19 20  1  0  0  0
 19 24  1  0  0  0
 20 21  2  0  0  0
 20108  1  0  0  0
 21 23  1  0  0  0
 22 28  1  0  0  0
 22 32  2  0  0  0
 26 27  1  0  0  0
 28109  1  0  0  0
 28110  1  0  0  0
 29111  1  0  0  0
 29112  1  0  0  0
 33 34  1  0  0  0
 33 66  1  0  0  0
 33 70  2  0  0  0
 34 36  1  0  0  0
 34 59  1  0  0  0
 34113  1  0  0  0
 35 44  2  0  0  0
 35 45  1  0  0  0
 35 68  1  0  0  0
 36 56  1  0  0  0
 36114  1  0  0  0
 37 39  1  0  0  0
 37 47  1  0  0  0
 37 66  1  0  0  0
 37115  1  0  0  0
 38 43  2  0  0  0
 38 46  1  0  0  0
 38 47  1  0  0  0
 39 64  1  0  0  0
 39 67  2  0  0  0
 40 52  1  0  0  0
 40 53  2  0  0  0
 40 58  1  0  0  0
 41116  1  0  0  0
 41117  1  0  0  0
 41118  1  0  0  0
 41 48  1  0  0  0
 42 43  1  0  0  0
 42 66  1  0  0  0
 42119  1  0  0  0
 42120  1  0  0  0
 43 44  1  0  0  0
 44121  1  0  0  0
 45 46  2  0  0  0
 45122  1  0  0  0
 46123  1  0  0  0
 47124  1  0  0  0
 47125  1  0  0  0
 48 56  1  0  0  0
 48 65  1  0  0  0
 48126  1  0  0  0
 49 50  1  0  0  0
 49 53  1  0  0  0
 49 64  1  0  0  0
 49127  1  0  0  0
 50 51  1  0  0  0
 50128  1  0  0  0
 50129  1  0  0  0
 51 52  1  0  0  0
 51130  1  0  0  0
 51131  1  0  0  0
 52132  1  0  0  0
 52133  1  0  0  0
 53 54  1  0  0  0
 54 55  2  0  0  0
 54134  1  0  0  0
 55 57  1  0  0  0
 55135  1  0  0  0
 56 69  2  0  0  0
 57 58  2  0  0  0
 57136  1  0  0  0
 58137  1  0  0  0
 59 60  1  0  0  0
 59 61  1  0  0  0
 59 62  1  0  0  0
 60138  1  0  0  0
 60139  1  0  0  0
 60140  1  0  0  0
 61141  1  0  0  0
 61142  1  0  0  0
 61143  1  0  0  0
 62144  1  0  0  0
 62145  1  0  0  0
 62146  1  0  0  0
 63 65  1  0  0  0
 63147  1  0  0  0
 63148  1  0  0  0
 63149  1  0  0  0
 64150  1  0  0  0
 65151  1  0  0  0
 68 89  1  0  0  0
 71 72  2  0  0  0
 71 74  1  0  0  0
 71152  1  0  0  0
 72 75  1  0  0  0
 72153  1  0  0  0
 73 74  2  0  0  0
 73 76  1  0  0  0
 73154  1  0  0  0
 74 83  1  0  0  0
 75 76  2  0  0  0
 75 84  1  0  0  0
 76 85  1  0  0  0
 77 79  1  0  0  0
 77 81  1  0  0  0
 77155  1  0  0  0
 77156  1  0  0  0
 78 80  1  0  0  0
 78 83  1  0  0  0
 78157  1  0  0  0
 78158  1  0  0  0
 79 91  1  0  0  0
 79159  1  0  0  0
 79160  1  0  0  0
 80 92  1  0  0  0
 80161  1  0  0  0
 80162  1  0  0  0
 81 88  1  0  0  0
 81 91  1  0  0  0
 81163  1  0  0  0
 82 83  1  0  0  0
 82 86  1  0  0  0
 82 92  1  0  0  0
 82164  1  0  0  0
 83 90  1  0  0  0
 84165  1  0  0  0
 84166  1  0  0  0
 84167  1  0  0  0
 85168  1  0  0  0
 85169  1  0  0  0
 85170  1  0  0  0
 86171  1  0  0  0
 86172  1  0  0  0
 86173  1  0  0  0
 87174  1  0  0  0
 87175  1  0  0  0
 87176  1  0  0  0
 87 90  1  0  0  0
 88177  1  0  0  0
 88178  1  0  0  0
 88 92  1  0  0  0
 89 90  1  0  0  0
 89179  1  0  0  0
 89180  1  0  0  0
 90181  1  0  0  0
 92182  1  0  0  0
M  CHG  1  92   1
M  ISO  4   1 100  68 101  89 101  91 100
M  END
> <chiral flag>
0

> <version>
0

> <s_m_source_file>
/data/baiqing/PycharmProjects/Reinvent-master-3.2/result/LINK_invent/BTK/process_docking_weight1_custom_sum_contain_oxygen_bond_distance_aromatic_linkinvent_7_9_3/rearranged_h_0168.sdf

> <i_m_source_file_index>
80

> <r_mmod_Potential_Energy-OPLS-2005>
392.237823486328

> <r_mmod_Stretch_Energy-OPLS-2005>
135.738067626953

> <r_mmod_Bend_Energy-OPLS-2005>
260.889984130859

> <r_mmod_Torsional_Energy-OPLS-2005>
418.085968017578

> <r_mmod_Improper_Torsional_Energy-OPLS-2005>
32.8174209594727

> <r_mmod_Van_der_Waal_Energy-OPLS-2005>
135.423324584961

> <r_mmod_Electrostatic_Energy-OPLS-2005>
-248.387664794922

> <r_mmod_Solvation_Energy-OPLS-2005>
-429.951080322266

> <b_mmod_Minimization_Converged-OPLS-2005>
0

> <r_mmod_RMS_Derivative-OPLS-2005>
1.68878543376923

$$$$
81
                    3D
 Structure written by MMmdl.
165174  0  0  1  0            999 V2000
  -30.6251  -14.6291   20.5017 C   0  0  0  0  0  0
  -30.4380  -12.3840   19.4494 C   0  0  0  0  0  0
  -29.5066  -12.5073   18.2225 C   0  0  0  0  0  0
  -28.0295  -12.3481   18.6337 C   0  0  0  0  0  0
  -27.6553  -13.2148   19.8650 C   0  0  2  0  0  0
  -28.6999  -13.0601   20.9941 C   0  0  0  0  0  0
  -25.2572  -13.8172   20.5684 C   0  0  0  0  0  0
  -24.1838  -13.0436   20.9195 C   0  0  0  0  0  0
  -24.6403  -11.6906   20.8745 C   0  0  0  0  0  0
  -23.9069  -10.4288   21.0409 C   0  0  0  0  0  0
  -24.3622   -9.4201   21.9185 C   0  0  0  0  0  0
  -23.6297   -8.2239   22.0755 C   0  0  0  0  0  0
  -22.4280   -8.0279   21.3543 C   0  0  0  0  0  0
  -21.9915   -9.0252   20.4644 C   0  0  0  0  0  0
  -22.7243  -10.2132   20.3053 C   0  0  0  0  0  0
  -21.6853   -6.0738   22.5282 C   0  0  0  0  0  0
  -21.4012   -6.5641   23.8214 C   0  0  0  0  0  0
  -21.3661   -5.6795   24.9177 C   0  0  0  0  0  0
  -21.6045   -4.3058   24.7229 C   0  0  0  0  0  0
  -21.8820   -3.8149   23.4351 C   0  0  0  0  0  0
  -21.9193   -4.6964   22.3406 C   0  0  0  0  0  0
  -22.7859  -13.5226   21.1857 C   0  0  0  0  0  0
  -22.1663   -4.2149   21.0982 F   0  0  0  0  0  0
  -21.5630   -3.4541   25.7740 F   0  0  0  0  0  0
  -30.0183  -13.4013   20.4343 N   0  0  0  0  0  0
  -26.3000  -12.9349   20.3323 N   0  0  0  0  0  0
  -25.9329  -11.6505   20.5757 N   0  0  0  0  0  0
  -22.0507  -12.8206   22.0413 N   0  0  0  0  0  0
  -25.4276  -15.1895   20.4098 N   0  0  0  0  0  0
  -31.7872  -14.7837   20.1093 O   0  0  0  0  0  0
  -21.6639   -6.8882   21.4242 O   0  0  0  0  0  0
  -22.3540  -14.5532   20.6710 O   0  0  0  0  0  0
  -24.6237  -31.8610   23.2034 C   0  0  0  0  0  0
  -25.9091  -32.4788   23.8363 C   0  0  1  0  0  0
  -27.2268  -27.3395   20.1213 C   0  0  0  0  0  0
  -25.5914  -33.8589   24.2288 N   0  0  0  0  0  0
  -23.4171  -30.4828   21.5457 C   0  0  2  0  0  0
  -24.8651  -28.9366   20.1148 C   0  0  0  0  0  0
  -22.7463  -29.4624   22.4955 C   0  0  0  0  0  0
  -18.0282  -28.1378   22.8486 C   0  0  0  0  0  0
  -24.1489  -36.7298   23.2641 C   0  0  0  0  0  0
  -25.9553  -30.7985   21.3710 C   0  0  0  0  0  0
  -26.0322  -29.4260   20.7164 C   0  0  0  0  0  0
  -27.2194  -28.6388   20.7085 C   0  0  0  0  0  0
  -26.0422  -26.8947   19.4976 C   0  0  0  0  0  0
  -24.8701  -27.6749   19.4971 C   0  0  0  0  0  0
  -23.6314  -29.8140   20.1621 C   0  0  0  0  0  0
  -25.4115  -36.3092   24.0332 C   0  0  1  0  0  0
  -20.5879  -28.3678   23.1294 C   0  0  2  0  0  0
  -20.6769  -26.9404   22.5417 C   0  0  0  0  0  0
  -19.5749  -26.6379   21.5212 C   0  0  0  0  0  0
  -18.1927  -26.7924   22.1619 C   0  0  0  0  0  0
  -19.1533  -28.8845   23.2885 C   0  0  0  0  0  0
  -18.9458  -30.1448   23.8897 C   0  0  0  0  0  0
  -17.6460  -30.6584   24.0560 C   0  0  0  0  0  0
  -25.9047  -34.9460   23.5111 C   0  0  0  0  0  0
  -16.5350  -29.9084   23.6327 C   0  0  0  0  0  0
  -16.7270  -28.6498   23.0354 C   0  0  0  0  0  0
  -26.4485  -31.6593   25.0726 C   0  0  0  0  0  0
  -25.3728  -31.3717   26.1456 C   0  0  0  0  0  0
  -27.0333  -30.3024   24.6164 C   0  0  0  0  0  0
  -27.6046  -32.4328   25.7501 C   0  0  0  0  0  0
  -27.5583  -37.1806   24.8465 C   0  0  0  0  0  0
  -21.4178  -29.3035   22.3694 N   0  0  0  0  0  0
  -26.4295  -37.3785   23.9410 N   0  0  0  0  0  0
  -24.6841  -31.0637   22.0974 N   0  0  0  0  0  0
  -23.4194  -28.8165   23.3028 O   0  0  0  0  0  0
  -28.3466  -26.5043   20.1244 O   0  0  0  0  0  0
  -26.5619  -34.8922   22.4679 O   0  0  0  0  0  0
  -23.5404  -32.1397   23.7370 O   0  0  0  0  0  0
  -28.7139  -17.8338   21.1144 C   0  0  0  0  0  0
  -29.6340  -19.9710   20.2751 C   0  0  0  0  0  0
  -28.5900  -19.2406   20.9177 C   0  0  0  0  0  0
  -30.7527  -19.1573   19.8963 C   0  0  0  0  0  0
  -29.8477  -17.1027   20.6848 C   0  0  0  0  0  0
  -28.3883  -23.3124   18.8112 C   0  0  0  0  0  0
  -29.5856  -21.5299   19.9363 C   0  0  2  0  0  0
  -28.9902  -23.9309   20.0955 C   0  0  2  0  0  0
  -29.1568  -22.6308   20.9698 C   0  0  2  0  0  0
  -27.3115  -19.9057   21.3945 C   0  0  0  0  0  0
  -31.9682  -19.7400   19.1943 C   0  0  0  0  0  0
  -30.1556  -22.7814   22.1278 C   0  0  0  0  0  0
  -28.1753  -25.1574   20.7014 C   0  0  0  0  0  0
  -30.8446  -17.8054   20.0918 N   0  0  0  0  0  0
  -29.8159  -15.6612   20.8960 N   0  0  0  0  0  0
  -28.8198  -21.8874   18.7238 N   0  3  0  0  0  0
  -31.4789  -12.5063   19.1445 H   0  0  0  0  0  0
  -30.3706  -11.3856   19.8849 H   0  0  0  0  0  0
  -29.7666  -11.7580   17.4736 H   0  0  0  0  0  0
  -29.6524  -13.4782   17.7460 H   0  0  0  0  0  0
  -27.8611  -11.2944   18.8595 H   0  0  0  0  0  0
  -27.3758  -12.5851   17.7932 H   0  0  0  0  0  0
  -27.6754  -14.2516   19.5292 H   0  0  0  0  0  0
  -28.7076  -12.0355   21.3686 H   0  0  0  0  0  0
  -28.4447  -13.6840   21.8520 H   0  0  0  0  0  0
  -25.2773   -9.5675   22.4752 H   0  0  0  0  0  0
  -24.0008   -7.4629   22.7474 H   0  0  0  0  0  0
  -21.0848   -8.8770   19.8947 H   0  0  0  0  0  0
  -22.3707  -10.9671   19.6160 H   0  0  0  0  0  0
  -21.2003   -7.6150   23.9715 H   0  0  0  0  0  0
  -21.1482   -6.0527   25.9079 H   0  0  0  0  0  0
  -22.0598   -2.7610   23.2850 H   0  0  0  0  0  0
  -22.4132  -11.9861   22.4787 H   0  0  0  0  0  0
  -21.1123  -13.1215   22.2628 H   0  0  0  0  0  0
  -24.6527  -15.8364   20.5064 H   0  0  0  0  0  0
  -26.2629  -15.6275   20.0444 H   0  0  0  0  0  0
  -26.7162  -32.5472   23.1119 H   0  0  0  0  0  0
  -25.0062  -33.9737   25.0434 H   0  0  0  0  0  0
  -22.7097  -31.3021   21.4017 H   0  0  0  0  0  0
  -23.3754  -35.9628   23.3304 H   0  0  0  0  0  0
  -24.3580  -36.8921   22.2056 H   0  0  0  0  0  0
  -23.7239  -37.6499   23.6663 H   0  0  0  0  0  0
  -26.0815  -31.5618   20.6020 H   0  0  0  0  0  0
  -26.8373  -30.8499   21.9976 H   0  0  0  0  0  0
  -28.1181  -29.0100   21.1810 H   0  0  0  0  0  0
  -26.0183  -25.9294   19.0122 H   0  0  0  0  0  0
  -23.9757  -27.2952   19.0220 H   0  0  0  0  0  0
  -23.7479  -30.5882   19.4028 H   0  0  0  0  0  0
  -22.7524  -29.2402   19.8630 H   0  0  0  0  0  0
  -25.1294  -36.1952   25.0826 H   0  0  0  0  0  0
  -20.9967  -28.3250   24.1415 H   0  0  0  0  0  0
  -20.5664  -26.2288   23.3611 H   0  0  0  0  0  0
  -21.6640  -26.7433   22.1218 H   0  0  0  0  0  0
  -19.6912  -25.6290   21.1239 H   0  0  0  0  0  0
  -19.6690  -27.3187   20.6740 H   0  0  0  0  0  0
  -17.4200  -26.6678   21.4016 H   0  0  0  0  0  0
  -18.0318  -26.0061   22.9009 H   0  0  0  0  0  0
  -19.7935  -30.7259   24.2274 H   0  0  0  0  0  0
  -17.5017  -31.6266   24.5156 H   0  0  0  0  0  0
  -15.5351  -30.2986   23.7649 H   0  0  0  0  0  0
  -15.8670  -28.0814   22.7074 H   0  0  0  0  0  0
  -24.5911  -30.7057   25.7786 H   0  0  0  0  0  0
  -24.8908  -32.2875   26.4885 H   0  0  0  0  0  0
  -25.8064  -30.8899   27.0226 H   0  0  0  0  0  0
  -26.2902  -29.6776   24.1191 H   0  0  0  0  0  0
  -27.4043  -29.7277   25.4661 H   0  0  0  0  0  0
  -27.8766  -30.4321   23.9376 H   0  0  0  0  0  0
  -27.2652  -33.3620   26.2090 H   0  0  0  0  0  0
  -28.3854  -32.6902   25.0331 H   0  0  0  0  0  0
  -28.0718  -31.8447   26.5410 H   0  0  0  0  0  0
  -28.2600  -38.0104   24.7518 H   0  0  0  0  0  0
  -28.1081  -36.2637   24.6291 H   0  0  0  0  0  0
  -27.2301  -37.1457   25.8867 H   0  0  0  0  0  0
  -20.9351  -29.8772   21.6920 H   0  0  0  0  0  0
  -26.0180  -38.2862   24.1414 H   0  0  0  0  0  0
  -27.9026  -17.3038   21.5955 H   0  0  0  0  0  0
  -28.6819  -23.8684   17.9199 H   0  0  0  0  0  0
  -27.2989  -23.3299   18.8551 H   0  0  0  0  0  0
  -30.6050  -21.8165   19.6834 H   0  0  0  0  0  0
  -29.9921  -24.2922   19.8588 H   0  0  0  0  0  0
  -28.1791  -22.3999   21.3861 H   0  0  0  0  0  0
  -26.5379  -19.1673   21.6058 H   0  0  0  0  0  0
  -26.9068  -20.5823   20.6435 H   0  0  0  0  0  0
  -27.4907  -20.4565   22.3178 H   0  0  0  0  0  0
  -32.4891  -20.4414   19.8459 H   0  0  0  0  0  0
  -31.6788  -20.2582   18.2802 H   0  0  0  0  0  0
  -32.6815  -18.9638   18.9135 H   0  0  0  0  0  0
  -31.1468  -23.0606   21.7682 H   0  0  0  0  0  0
  -30.2555  -21.8467   22.6802 H   0  0  0  0  0  0
  -29.8321  -23.5470   22.8333 H   0  0  0  0  0  0
  -28.4840  -25.2660   21.7413 H   0  0  0  0  0  0
  -27.1242  -24.8761   20.7666 H   0  0  0  0  0  0
  -28.9446  -15.3293   21.2739 H   0  0  0  0  0  0
  -29.3834  -21.7486   17.9003 H   0  0  0  0  0  0
  -28.0010  -21.3086   18.6379 H   0  0  0  0  0  0
  1 25  1  0  0  0
  1 30  2  0  0  0
  1 85  1  0  0  0
  2  3  1  0  0  0
  2 25  1  0  0  0
  2 87  1  0  0  0
  2 88  1  0  0  0
  3  4  1  0  0  0
  3 89  1  0  0  0
  3 90  1  0  0  0
  4  5  1  0  0  0
  4 91  1  0  0  0
  4 92  1  0  0  0
  5  6  1  0  0  0
  5 26  1  0  0  0
  5 93  1  0  0  0
  6 25  1  0  0  0
  6 94  1  0  0  0
  6 95  1  0  0  0
  7  8  2  0  0  0
  7 26  1  0  0  0
  7 29  1  0  0  0
  8  9  1  0  0  0
  8 22  1  0  0  0
  9 10  1  0  0  0
  9 27  2  0  0  0
 10 11  2  0  0  0
 10 15  1  0  0  0
 11 12  1  0  0  0
 11 96  1  0  0  0
 12 13  2  0  0  0
 12 97  1  0  0  0
 13 14  1  0  0  0
 13 31  1  0  0  0
 14 15  2  0  0  0
 14 98  1  0  0  0
 15 99  1  0  0  0
 16 17  2  0  0  0
 16 21  1  0  0  0
 16 31  1  0  0  0
 17 18  1  0  0  0
 17100  1  0  0  0
 18 19  2  0  0  0
 18101  1  0  0  0
 19 20  1  0  0  0
 19 24  1  0  0  0
 20 21  2  0  0  0
 20102  1  0  0  0
 21 23  1  0  0  0
 22 28  1  0  0  0
 22 32  2  0  0  0
 26 27  1  0  0  0
 28103  1  0  0  0
 28104  1  0  0  0
 29105  1  0  0  0
 29106  1  0  0  0
 33 34  1  0  0  0
 33 66  1  0  0  0
 33 70  2  0  0  0
 34 36  1  0  0  0
 34 59  1  0  0  0
 34107  1  0  0  0
 35 44  2  0  0  0
 35 45  1  0  0  0
 35 68  1  0  0  0
 36 56  1  0  0  0
 36108  1  0  0  0
 37 39  1  0  0  0
 37 47  1  0  0  0
 37 66  1  0  0  0
 37109  1  0  0  0
 38 43  2  0  0  0
 38 46  1  0  0  0
 38 47  1  0  0  0
 39 64  1  0  0  0
 39 67  2  0  0  0
 40 52  1  0  0  0
 40 53  2  0  0  0
 40 58  1  0  0  0
 41110  1  0  0  0
 41111  1  0  0  0
 41112  1  0  0  0
 41 48  1  0  0  0
 42 43  1  0  0  0
 42 66  1  0  0  0
 42113  1  0  0  0
 42114  1  0  0  0
 43 44  1  0  0  0
 44115  1  0  0  0
 45 46  2  0  0  0
 45116  1  0  0  0
 46117  1  0  0  0
 47118  1  0  0  0
 47119  1  0  0  0
 48 56  1  0  0  0
 48 65  1  0  0  0
 48120  1  0  0  0
 49 50  1  0  0  0
 49 53  1  0  0  0
 49 64  1  0  0  0
 49121  1  0  0  0
 50 51  1  0  0  0
 50122  1  0  0  0
 50123  1  0  0  0
 51 52  1  0  0  0
 51124  1  0  0  0
 51125  1  0  0  0
 52126  1  0  0  0
 52127  1  0  0  0
 53 54  1  0  0  0
 54 55  2  0  0  0
 54128  1  0  0  0
 55 57  1  0  0  0
 55129  1  0  0  0
 56 69  2  0  0  0
 57 58  2  0  0  0
 57130  1  0  0  0
 58131  1  0  0  0
 59 60  1  0  0  0
 59 61  1  0  0  0
 59 62  1  0  0  0
 60132  1  0  0  0
 60133  1  0  0  0
 60134  1  0  0  0
 61135  1  0  0  0
 61136  1  0  0  0
 61137  1  0  0  0
 62138  1  0  0  0
 62139  1  0  0  0
 62140  1  0  0  0
 63 65  1  0  0  0
 63141  1  0  0  0
 63142  1  0  0  0
 63143  1  0  0  0
 64144  1  0  0  0
 65145  1  0  0  0
 68 83  1  0  0  0
 71 73  2  0  0  0
 71 75  1  0  0  0
 71146  1  0  0  0
 72 73  1  0  0  0
 72 74  2  0  0  0
 72 77  1  0  0  0
 73 80  1  0  0  0
 74 81  1  0  0  0
 74 84  1  0  0  0
 75 84  2  0  0  0
 75 85  1  0  0  0
 76 78  1  0  0  0
 76 86  1  0  0  0
 76147  1  0  0  0
 76148  1  0  0  0
 77 79  1  0  0  0
 77 86  1  0  0  0
 77149  1  0  0  0
 78 79  1  0  0  0
 78 83  1  0  0  0
 78150  1  0  0  0
 79 82  1  0  0  0
 79151  1  0  0  0
 80152  1  0  0  0
 80153  1  0  0  0
 80154  1  0  0  0
 81155  1  0  0  0
 81156  1  0  0  0
 81157  1  0  0  0
 82158  1  0  0  0
 82159  1  0  0  0
 82160  1  0  0  0
 83161  1  0  0  0
 83162  1  0  0  0
 85163  1  0  0  0
 86164  1  0  0  0
 86165  1  0  0  0
M  CHG  1  86   1
M  ISO  4   1 100  68 101  83 101  85 100
M  END
> <chiral flag>
0

> <version>
0

> <s_m_source_file>
/data/baiqing/PycharmProjects/Reinvent-master-3.2/result/LINK_invent/BTK/process_docking_weight1_custom_sum_contain_oxygen_bond_distance_aromatic_linkinvent_7_9_3/rearranged_h_0168.sdf

> <i_m_source_file_index>
81

> <r_mmod_Potential_Energy-OPLS-2005>
-163.637786865234

> <r_mmod_Stretch_Energy-OPLS-2005>
76.1097793579102

> <r_mmod_Bend_Energy-OPLS-2005>
174.741943359375

> <r_mmod_Torsional_Energy-OPLS-2005>
275.123687744141

> <r_mmod_Improper_Torsional_Energy-OPLS-2005>
3.85673546791077

> <r_mmod_Van_der_Waal_Energy-OPLS-2005>
137.408203125

> <r_mmod_Electrostatic_Energy-OPLS-2005>
-379.854797363281

> <r_mmod_Solvation_Energy-OPLS-2005>
-492.309661865234

> <b_mmod_Minimization_Converged-OPLS-2005>
0

> <r_mmod_RMS_Derivative-OPLS-2005>
0.771320700645447

$$$$
82
                    3D
 Structure written by MMmdl.
165174  0  0  1  0            999 V2000
  -30.6221  -14.7545   20.4451 C   0  0  0  0  0  0
  -30.4260  -12.4521   19.5028 C   0  0  0  0  0  0
  -29.5198  -12.5099   18.2528 C   0  0  0  0  0  0
  -28.0415  -12.3405   18.6520 C   0  0  0  0  0  0
  -27.6424  -13.2394   19.8532 C   0  0  2  0  0  0
  -28.6791  -13.1860   20.9976 C   0  0  0  0  0  0
  -25.2509  -13.8209   20.5693 C   0  0  0  0  0  0
  -24.1806  -13.0448   20.9196 C   0  0  0  0  0  0
  -24.6406  -11.6927   20.8726 C   0  0  0  0  0  0
  -23.9083  -10.4302   21.0392 C   0  0  0  0  0  0
  -24.3631   -9.4217   21.9175 C   0  0  0  0  0  0
  -23.6301   -8.2253   22.0757 C   0  0  0  0  0  0
  -22.4285   -8.0280   21.3541 C   0  0  0  0  0  0
  -21.9919   -9.0253   20.4645 C   0  0  0  0  0  0
  -22.7245  -10.2139   20.3052 C   0  0  0  0  0  0
  -21.6871   -6.0734   22.5277 C   0  0  0  0  0  0
  -21.4012   -6.5633   23.8210 C   0  0  0  0  0  0
  -21.3674   -5.6789   24.9179 C   0  0  0  0  0  0
  -21.6057   -4.3052   24.7228 C   0  0  0  0  0  0
  -21.8817   -3.8144   23.4345 C   0  0  0  0  0  0
  -21.9199   -4.6962   22.3402 C   0  0  0  0  0  0
  -22.7833  -13.5223   21.1861 C   0  0  0  0  0  0
  -22.1668   -4.2143   21.0985 F   0  0  0  0  0  0
  -21.5638   -3.4541   25.7746 F   0  0  0  0  0  0
  -29.9867  -13.5281   20.4260 N   0  0  0  0  0  0
  -26.2941  -12.9426   20.3284 N   0  0  0  0  0  0
  -25.9334  -11.6559   20.5733 N   0  0  0  0  0  0
  -22.0485  -12.8196   22.0418 N   0  0  0  0  0  0
  -25.4218  -15.1938   20.4115 N   0  0  0  0  0  0
  -31.8095  -14.8114   20.1052 O   0  0  0  0  0  0
  -21.6654   -6.8873   21.4238 O   0  0  0  0  0  0
  -22.3504  -14.5521   20.6708 O   0  0  0  0  0  0
  -24.6296  -31.8558   23.2009 C   0  0  0  0  0  0
  -25.9128  -32.4754   23.8321 C   0  0  1  0  0  0
  -27.2133  -27.2676   20.1119 C   0  0  0  0  0  0
  -25.5930  -33.8561   24.2230 N   0  0  0  0  0  0
  -23.4246  -30.4795   21.5464 C   0  0  2  0  0  0
  -24.8684  -28.9306   20.1122 C   0  0  0  0  0  0
  -22.7498  -29.4596   22.4955 C   0  0  0  0  0  0
  -18.0284  -28.1396   22.8455 C   0  0  0  0  0  0
  -24.1499  -36.7292   23.2637 C   0  0  0  0  0  0
  -25.9715  -30.7696   21.3787 C   0  0  0  0  0  0
  -26.0435  -29.3944   20.7176 C   0  0  0  0  0  0
  -27.2198  -28.5757   20.7057 C   0  0  0  0  0  0
  -26.0163  -26.8827   19.4640 C   0  0  0  0  0  0
  -24.8604  -27.6829   19.4749 C   0  0  0  0  0  0
  -23.6388  -29.8166   20.1632 C   0  0  0  0  0  0
  -25.4129  -36.3060   24.0310 C   0  0  1  0  0  0
  -20.5881  -28.3680   23.1286 C   0  0  2  0  0  0
  -20.6770  -26.9402   22.5410 C   0  0  0  0  0  0
  -19.5758  -26.6379   21.5206 C   0  0  0  0  0  0
  -18.1931  -26.7929   22.1603 C   0  0  0  0  0  0
  -19.1529  -28.8855   23.2850 C   0  0  0  0  0  0
  -18.9466  -30.1454   23.8871 C   0  0  0  0  0  0
  -17.6465  -30.6586   24.0555 C   0  0  0  0  0  0
  -25.9071  -34.9439   23.5077 C   0  0  0  0  0  0
  -16.5357  -29.9077   23.6345 C   0  0  0  0  0  0
  -16.7264  -28.6509   23.0336 C   0  0  0  0  0  0
  -26.4495  -31.6594   25.0725 C   0  0  0  0  0  0
  -25.3712  -31.3768   26.1441 C   0  0  0  0  0  0
  -27.0326  -30.3007   24.6208 C   0  0  0  0  0  0
  -27.6038  -32.4349   25.7505 C   0  0  0  0  0  0
  -27.5583  -37.1791   24.8454 C   0  0  0  0  0  0
  -21.4203  -29.3033   22.3696 N   0  0  0  0  0  0
  -26.4294  -37.3770   23.9412 N   0  0  0  0  0  0
  -24.6949  -31.0517   22.0988 N   0  0  0  0  0  0
  -23.4213  -28.8132   23.3040 O   0  0  0  0  0  0
  -28.3036  -26.3628   20.1673 O   0  0  0  0  0  0
  -26.5641  -34.8906   22.4642 O   0  0  0  0  0  0
  -23.5452  -32.1375   23.7314 O   0  0  0  0  0  0
  -29.7991  -18.5460   20.5139 C   0  0  0  0  0  0
  -29.9242  -19.7340   19.6720 C   0  0  0  0  0  0
  -30.2217  -19.4667   18.3374 C   0  0  0  0  0  0
  -30.2844  -18.1594   17.8342 C   0  0  0  0  0  0
  -29.9590  -17.1961   19.9576 C   0  0  0  0  0  0
  -30.6698  -20.6839   17.5843 C   0  0  0  0  0  0
  -30.1292  -21.3062   19.9477 C   0  0  1  0  0  0
  -30.9782  -21.7092   18.6880 C   0  0  1  0  0  0
  -30.6249  -17.8771   16.3873 C   0  0  0  0  0  0
  -32.4848  -21.7772   18.9943 C   0  0  0  0  0  0
  -27.3745  -24.6712   21.6752 C   0  0  0  0  0  0
  -29.2542  -23.8301   20.1607 C   0  0  0  0  0  0
  -28.0373  -24.8798   20.3038 C   0  0  2  0  0  0
  -30.1389  -17.0813   18.6221 N   0  0  0  0  0  0
  -29.9067  -15.9209   20.7108 N   0  0  0  0  0  0
  -28.9579  -22.3023   20.0544 N   0  3  0  0  0  0
  -31.4733  -12.5510   19.2128 H   0  0  0  0  0  0
  -30.3468  -11.4792   19.9896 H   0  0  0  0  0  0
  -29.8071  -11.7314   17.5445 H   0  0  0  0  0  0
  -29.6606  -13.4626   17.7395 H   0  0  0  0  0  0
  -27.8919  -11.2902   18.9063 H   0  0  0  0  0  0
  -27.3952  -12.5438   17.7975 H   0  0  0  0  0  0
  -27.6366  -14.2617   19.4724 H   0  0  0  0  0  0
  -28.7078  -12.1938   21.4513 H   0  0  0  0  0  0
  -28.4079  -13.8781   21.7960 H   0  0  0  0  0  0
  -25.2779   -9.5701   22.4741 H   0  0  0  0  0  0
  -24.0027   -7.4651   22.7470 H   0  0  0  0  0  0
  -21.0859   -8.8751   19.8940 H   0  0  0  0  0  0
  -22.3695  -10.9664   19.6149 H   0  0  0  0  0  0
  -21.1989   -7.6141   23.9703 H   0  0  0  0  0  0
  -21.1505   -6.0530   25.9080 H   0  0  0  0  0  0
  -22.0586   -2.7600   23.2858 H   0  0  0  0  0  0
  -22.4120  -11.9855   22.4790 H   0  0  0  0  0  0
  -21.1087  -13.1186   22.2601 H   0  0  0  0  0  0
  -24.6563  -15.8500   20.5175 H   0  0  0  0  0  0
  -26.2679  -15.6286   20.0648 H   0  0  0  0  0  0
  -26.7191  -32.5392   23.1053 H   0  0  0  0  0  0
  -25.0067  -33.9715   25.0360 H   0  0  0  0  0  0
  -22.7194  -31.3008   21.4043 H   0  0  0  0  0  0
  -23.3755  -35.9628   23.3285 H   0  0  0  0  0  0
  -24.3577  -36.8943   22.2054 H   0  0  0  0  0  0
  -23.7263  -37.6487   23.6686 H   0  0  0  0  0  0
  -26.1073  -31.5324   20.6101 H   0  0  0  0  0  0
  -26.8493  -30.8173   22.0106 H   0  0  0  0  0  0
  -28.1157  -28.9231   21.1999 H   0  0  0  0  0  0
  -25.9297  -25.9464   18.9386 H   0  0  0  0  0  0
  -23.9617  -27.3270   18.9892 H   0  0  0  0  0  0
  -23.7607  -30.5925   19.4074 H   0  0  0  0  0  0
  -22.7565  -29.2501   19.8608 H   0  0  0  0  0  0
  -25.1315  -36.1895   25.0801 H   0  0  0  0  0  0
  -20.9935  -28.3240   24.1422 H   0  0  0  0  0  0
  -20.5692  -26.2286   23.3601 H   0  0  0  0  0  0
  -21.6640  -26.7448   22.1199 H   0  0  0  0  0  0
  -19.6938  -25.6295   21.1234 H   0  0  0  0  0  0
  -19.6714  -27.3187   20.6745 H   0  0  0  0  0  0
  -17.4205  -26.6659   21.3996 H   0  0  0  0  0  0
  -18.0318  -26.0078   22.9019 H   0  0  0  0  0  0
  -19.7949  -30.7260   24.2230 H   0  0  0  0  0  0
  -17.5036  -31.6269   24.5155 H   0  0  0  0  0  0
  -15.5357  -30.2976   23.7711 H   0  0  0  0  0  0
  -15.8661  -28.0842   22.7058 H   0  0  0  0  0  0
  -24.5887  -30.7118   25.7776 H   0  0  0  0  0  0
  -24.8902  -32.2955   26.4818 H   0  0  0  0  0  0
  -25.8008  -30.8979   27.0249 H   0  0  0  0  0  0
  -26.2902  -29.6774   24.1216 H   0  0  0  0  0  0
  -27.3989  -29.7254   25.4718 H   0  0  0  0  0  0
  -27.8788  -30.4273   23.9451 H   0  0  0  0  0  0
  -27.2619  -33.3647   26.2064 H   0  0  0  0  0  0
  -28.3847  -32.6932   25.0340 H   0  0  0  0  0  0
  -28.0703  -31.8504   26.5435 H   0  0  0  0  0  0
  -28.2573  -38.0114   24.7505 H   0  0  0  0  0  0
  -28.1095  -36.2636   24.6258 H   0  0  0  0  0  0
  -27.2290  -37.1419   25.8852 H   0  0  0  0  0  0
  -20.9407  -29.8761   21.6896 H   0  0  0  0  0  0
  -26.0156  -38.2833   24.1439 H   0  0  0  0  0  0
  -29.6667  -18.6686   21.5808 H   0  0  0  0  0  0
  -29.8527  -21.0281   16.9483 H   0  0  0  0  0  0
  -31.5341  -20.4853   16.9473 H   0  0  0  0  0  0
  -30.7275  -21.4140   20.8525 H   0  0  0  0  0  0
  -30.7369  -22.6797   18.2704 H   0  0  0  0  0  0
  -30.1420  -18.5978   15.7277 H   0  0  0  0  0  0
  -30.2944  -16.8797   16.0936 H   0  0  0  0  0  0
  -31.7038  -17.9422   16.2431 H   0  0  0  0  0  0
  -32.8629  -20.8205   19.3594 H   0  0  0  0  0  0
  -32.6979  -22.5315   19.7526 H   0  0  0  0  0  0
  -33.0576  -22.0416   18.1034 H   0  0  0  0  0  0
  -27.0784  -23.6324   21.8176 H   0  0  0  0  0  0
  -26.4780  -25.2788   21.7934 H   0  0  0  0  0  0
  -28.0630  -24.9332   22.4773 H   0  0  0  0  0  0
  -29.9525  -23.9894   20.9833 H   0  0  0  0  0  0
  -29.7833  -24.1678   19.2750 H   0  0  0  0  0  0
  -27.3359  -24.5779   19.5298 H   0  0  0  0  0  0
  -29.0722  -15.7967   21.2622 H   0  0  0  0  0  0
  -28.4198  -22.0183   20.8558 H   0  0  0  0  0  0
  -28.3740  -22.1464   19.2488 H   0  0  0  0  0  0
  1 25  1  0  0  0
  1 30  2  0  0  0
  1 85  1  0  0  0
  2  3  1  0  0  0
  2 25  1  0  0  0
  2 87  1  0  0  0
  2 88  1  0  0  0
  3  4  1  0  0  0
  3 89  1  0  0  0
  3 90  1  0  0  0
  4  5  1  0  0  0
  4 91  1  0  0  0
  4 92  1  0  0  0
  5  6  1  0  0  0
  5 26  1  0  0  0
  5 93  1  0  0  0
  6 25  1  0  0  0
  6 94  1  0  0  0
  6 95  1  0  0  0
  7  8  2  0  0  0
  7 26  1  0  0  0
  7 29  1  0  0  0
  8  9  1  0  0  0
  8 22  1  0  0  0
  9 10  1  0  0  0
  9 27  2  0  0  0
 10 11  2  0  0  0
 10 15  1  0  0  0
 11 12  1  0  0  0
 11 96  1  0  0  0
 12 13  2  0  0  0
 12 97  1  0  0  0
 13 14  1  0  0  0
 13 31  1  0  0  0
 14 15  2  0  0  0
 14 98  1  0  0  0
 15 99  1  0  0  0
 16 17  2  0  0  0
 16 21  1  0  0  0
 16 31  1  0  0  0
 17 18  1  0  0  0
 17100  1  0  0  0
 18 19  2  0  0  0
 18101  1  0  0  0
 19 20  1  0  0  0
 19 24  1  0  0  0
 20 21  2  0  0  0
 20102  1  0  0  0
 21 23  1  0  0  0
 22 28  1  0  0  0
 22 32  2  0  0  0
 26 27  1  0  0  0
 28103  1  0  0  0
 28104  1  0  0  0
 29105  1  0  0  0
 29106  1  0  0  0
 33 34  1  0  0  0
 33 66  1  0  0  0
 33 70  2  0  0  0
 34 36  1  0  0  0
 34 59  1  0  0  0
 34107  1  0  0  0
 35 44  2  0  0  0
 35 45  1  0  0  0
 35 68  1  0  0  0
 36 56  1  0  0  0
 36108  1  0  0  0
 37 39  1  0  0  0
 37 47  1  0  0  0
 37 66  1  0  0  0
 37109  1  0  0  0
 38 43  2  0  0  0
 38 46  1  0  0  0
 38 47  1  0  0  0
 39 64  1  0  0  0
 39 67  2  0  0  0
 40 52  1  0  0  0
 40 53  2  0  0  0
 40 58  1  0  0  0
 41110  1  0  0  0
 41111  1  0  0  0
 41112  1  0  0  0
 41 48  1  0  0  0
 42 43  1  0  0  0
 42 66  1  0  0  0
 42113  1  0  0  0
 42114  1  0  0  0
 43 44  1  0  0  0
 44115  1  0  0  0
 45 46  2  0  0  0
 45116  1  0  0  0
 46117  1  0  0  0
 47118  1  0  0  0
 47119  1  0  0  0
 48 56  1  0  0  0
 48 65  1  0  0  0
 48120  1  0  0  0
 49 50  1  0  0  0
 49 53  1  0  0  0
 49 64  1  0  0  0
 49121  1  0  0  0
 50 51  1  0  0  0
 50122  1  0  0  0
 50123  1  0  0  0
 51 52  1  0  0  0
 51124  1  0  0  0
 51125  1  0  0  0
 52126  1  0  0  0
 52127  1  0  0  0
 53 54  1  0  0  0
 54 55  2  0  0  0
 54128  1  0  0  0
 55 57  1  0  0  0
 55129  1  0  0  0
 56 69  2  0  0  0
 57 58  2  0  0  0
 57130  1  0  0  0
 58131  1  0  0  0
 59 60  1  0  0  0
 59 61  1  0  0  0
 59 62  1  0  0  0
 60132  1  0  0  0
 60133  1  0  0  0
 60134  1  0  0  0
 61135  1  0  0  0
 61136  1  0  0  0
 61137  1  0  0  0
 62138  1  0  0  0
 62139  1  0  0  0
 62140  1  0  0  0
 63 65  1  0  0  0
 63141  1  0  0  0
 63142  1  0  0  0
 63143  1  0  0  0
 64144  1  0  0  0
 65145  1  0  0  0
 68 83  1  0  0  0
 71 72  2  0  0  0
 71 75  1  0  0  0
 71146  1  0  0  0
 72 73  1  0  0  0
 72 77  1  0  0  0
 73 74  2  0  0  0
 73 76  1  0  0  0
 74 79  1  0  0  0
 74 84  1  0  0  0
 75 84  2  0  0  0
 75 85  1  0  0  0
 76 78  1  0  0  0
 76147  1  0  0  0
 76148  1  0  0  0
 77 78  1  0  0  0
 77 86  1  0  0  0
 77149  1  0  0  0
 78 80  1  0  0  0
 78150  1  0  0  0
 79151  1  0  0  0
 79152  1  0  0  0
 79153  1  0  0  0
 80154  1  0  0  0
 80155  1  0  0  0
 80156  1  0  0  0
 81157  1  0  0  0
 81158  1  0  0  0
 81159  1  0  0  0
 81 83  1  0  0  0
 82 83  1  0  0  0
 82 86  1  0  0  0
 82160  1  0  0  0
 82161  1  0  0  0
 83162  1  0  0  0
 85163  1  0  0  0
 86164  1  0  0  0
 86165  1  0  0  0
M  CHG  1  86   1
M  ISO  4   1 100  68 101  83 101  85 100
M  END
> <chiral flag>
0

> <version>
0

> <s_m_source_file>
/data/baiqing/PycharmProjects/Reinvent-master-3.2/result/LINK_invent/BTK/process_docking_weight1_custom_sum_contain_oxygen_bond_distance_aromatic_linkinvent_7_9_3/rearranged_h_0168.sdf

> <i_m_source_file_index>
82

> <r_mmod_Potential_Energy-OPLS-2005>
-111.179084777832

> <r_mmod_Stretch_Energy-OPLS-2005>
135.336349487305

> <r_mmod_Bend_Energy-OPLS-2005>
228.347885131836

> <r_mmod_Torsional_Energy-OPLS-2005>
261.605316162109

> <r_mmod_Improper_Torsional_Energy-OPLS-2005>
7.90824127197266

> <r_mmod_Van_der_Waal_Energy-OPLS-2005>
144.147552490234

> <r_mmod_Electrostatic_Energy-OPLS-2005>
-491.838684082031

> <r_mmod_Solvation_Energy-OPLS-2005>
-483.019012451172

> <b_mmod_Minimization_Converged-OPLS-2005>
0

> <r_mmod_RMS_Derivative-OPLS-2005>
2.58452105522156

$$$$
83
                    3D
 Structure written by MMmdl.
172181  0  0  1  0            999 V2000
  -30.5979  -14.8495   20.5510 C   0  0  0  0  0  0
  -30.4436  -12.5494   19.4865 C   0  0  0  0  0  0
  -29.5210  -12.5578   18.2439 C   0  0  0  0  0  0
  -28.0463  -12.3438   18.6392 C   0  0  0  0  0  0
  -27.6384  -13.2324   19.8404 C   0  0  2  0  0  0
  -28.6732  -13.1481   20.9733 C   0  0  0  0  0  0
  -25.2495  -13.8161   20.5651 C   0  0  0  0  0  0
  -24.1783  -13.0414   20.9177 C   0  0  0  0  0  0
  -24.6379  -11.6893   20.8688 C   0  0  0  0  0  0
  -23.9042  -10.4285   21.0368 C   0  0  0  0  0  0
  -24.3596   -9.4215   21.9158 C   0  0  0  0  0  0
  -23.6281   -8.2243   22.0737 C   0  0  0  0  0  0
  -22.4274   -8.0273   21.3517 C   0  0  0  0  0  0
  -21.9899   -9.0241   20.4624 C   0  0  0  0  0  0
  -22.7210  -10.2126   20.3019 C   0  0  0  0  0  0
  -21.6849   -6.0723   22.5255 C   0  0  0  0  0  0
  -21.4021   -6.5618   23.8204 C   0  0  0  0  0  0
  -21.3659   -5.6757   24.9148 C   0  0  0  0  0  0
  -21.6046   -4.3017   24.7183 C   0  0  0  0  0  0
  -21.8826   -3.8122   23.4298 C   0  0  0  0  0  0
  -21.9198   -4.6955   22.3366 C   0  0  0  0  0  0
  -22.7818  -13.5215   21.1845 C   0  0  0  0  0  0
  -22.1658   -4.2144   21.0939 F   0  0  0  0  0  0
  -21.5638   -3.4493   25.7693 F   0  0  0  0  0  0
  -29.9724  -13.6022   20.4340 N   0  0  0  0  0  0
  -26.2899  -12.9361   20.3163 N   0  0  0  0  0  0
  -25.9290  -11.6497   20.5633 N   0  0  0  0  0  0
  -22.0449  -12.8222   22.0399 N   0  0  0  0  0  0
  -25.4175  -15.1890   20.4120 N   0  0  0  0  0  0
  -31.7305  -14.9659   20.0688 O   0  0  0  0  0  0
  -21.6622   -6.8872   21.4229 O   0  0  0  0  0  0
  -22.3492  -14.5529   20.6713 O   0  0  0  0  0  0
  -24.6415  -31.8482   23.1962 C   0  0  0  0  0  0
  -25.9224  -32.4709   23.8326 C   0  0  1  0  0  0
  -27.2108  -27.1703   20.1265 C   0  0  0  0  0  0
  -25.5995  -33.8517   24.2238 N   0  0  0  0  0  0
  -23.4416  -30.4752   21.5421 C   0  0  2  0  0  0
  -24.8905  -28.9223   20.1075 C   0  0  0  0  0  0
  -22.7540  -29.4592   22.4885 C   0  0  0  0  0  0
  -18.0297  -28.1389   22.8465 C   0  0  0  0  0  0
  -24.1494  -36.7248   23.2646 C   0  0  0  0  0  0
  -26.0000  -30.7306   21.3973 C   0  0  0  0  0  0
  -26.0696  -29.3491   20.7320 C   0  0  0  0  0  0
  -27.2296  -28.4840   20.7391 C   0  0  0  0  0  0
  -26.0093  -26.8694   19.4349 C   0  0  0  0  0  0
  -24.8721  -27.6926   19.4453 C   0  0  0  0  0  0
  -23.6647  -29.8165   20.1576 C   0  0  0  0  0  0
  -25.4123  -36.3036   24.0332 C   0  0  1  0  0  0
  -20.5907  -28.3721   23.1224 C   0  0  2  0  0  0
  -20.6793  -26.9437   22.5383 C   0  0  0  0  0  0
  -19.5769  -26.6379   21.5192 C   0  0  0  0  0  0
  -18.1944  -26.7936   22.1603 C   0  0  0  0  0  0
  -19.1555  -28.8874   23.2834 C   0  0  0  0  0  0
  -18.9471  -30.1471   23.8864 C   0  0  0  0  0  0
  -17.6471  -30.6598   24.0544 C   0  0  0  0  0  0
  -25.9075  -34.9409   23.5082 C   0  0  0  0  0  0
  -16.5355  -29.9077   23.6351 C   0  0  0  0  0  0
  -16.7283  -28.6499   23.0366 C   0  0  0  0  0  0
  -26.4560  -31.6558   25.0750 C   0  0  0  0  0  0
  -25.3757  -31.3707   26.1447 C   0  0  0  0  0  0
  -27.0437  -30.2961   24.6315 C   0  0  0  0  0  0
  -27.6092  -32.4314   25.7528 C   0  0  0  0  0  0
  -27.5576  -37.1773   24.8464 C   0  0  0  0  0  0
  -21.4245  -29.3050   22.3607 N   0  0  0  0  0  0
  -26.4275  -37.3746   23.9430 N   0  0  0  0  0  0
  -24.7130  -31.0371   22.0991 N   0  0  0  0  0  0
  -23.4205  -28.8117   23.2995 O   0  0  0  0  0  0
  -28.2330  -26.1503   20.2173 O   0  0  0  0  0  0
  -26.5620  -34.8887   22.4631 O   0  0  0  0  0  0
  -23.5545  -32.1357   23.7198 O   0  0  0  0  0  0
  -27.8382  -20.6838   20.0851 C   0  0  0  0  0  0
  -30.1129  -21.3251   20.4002 C   0  0  0  0  0  0
  -27.4692  -22.0843   19.9572 C   0  0  0  0  0  0
  -29.7265  -22.7428   20.3759 C   0  0  0  0  0  0
  -29.1887  -20.2254   20.2266 C   0  0  0  0  0  0
  -28.3836  -23.1934   20.1250 C   0  0  0  0  0  0
  -30.0184  -18.0909   22.4357 C   0  0  0  0  0  0
  -29.4859  -15.7966   22.4687 C   0  0  0  0  0  0
  -30.1798  -16.8663   23.3036 C   0  0  2  0  0  0
  -30.2278  -17.5451   21.0142 C   0  0  2  0  0  0
  -26.7381  -19.6219   20.0416 C   0  0  0  0  0  0
  -31.5841  -20.9895   20.6044 C   0  0  0  0  0  0
  -26.0153  -22.3877   19.5616 C   0  0  0  0  0  0
  -30.7992  -23.8024   20.5888 C   0  0  0  0  0  0
  -29.5742  -18.6373   19.9623 C   0  0  0  0  0  0
  -27.7927  -24.7154   19.8740 C   0  0  0  0  0  0
  -29.9190  -15.9864   21.0703 N   0  0  0  0  0  0
  -29.6463  -16.9951   24.6717 N   0  3  0  0  0  0
  -31.4786  -12.7026   19.1770 H   0  0  0  0  0  0
  -30.4310  -11.5665   19.9624 H   0  0  0  0  0  0
  -29.8367  -11.7948   17.5313 H   0  0  0  0  0  0
  -29.6209  -13.5144   17.7270 H   0  0  0  0  0  0
  -27.9139  -11.2919   18.8939 H   0  0  0  0  0  0
  -27.3949  -12.5377   17.7877 H   0  0  0  0  0  0
  -27.6363  -14.2608   19.4760 H   0  0  0  0  0  0
  -28.7460  -12.1254   21.3463 H   0  0  0  0  0  0
  -28.3077  -13.7157   21.8172 H   0  0  0  0  0  0
  -25.2732   -9.5688   22.4732 H   0  0  0  0  0  0
  -23.9970   -7.4626   22.7452 H   0  0  0  0  0  0
  -21.0822   -8.8729   19.8938 H   0  0  0  0  0  0
  -22.3636  -10.9651   19.6111 H   0  0  0  0  0  0
  -21.2016   -7.6127   23.9722 H   0  0  0  0  0  0
  -21.1486   -6.0459   25.9066 H   0  0  0  0  0  0
  -22.0625   -2.7588   23.2765 H   0  0  0  0  0  0
  -22.4062  -11.9891   22.4795 H   0  0  0  0  0  0
  -21.1062  -13.1259   22.2602 H   0  0  0  0  0  0
  -24.6453  -15.8342   20.5320 H   0  0  0  0  0  0
  -26.2565  -15.6344   20.0647 H   0  0  0  0  0  0
  -26.7278  -32.5327   23.1050 H   0  0  0  0  0  0
  -25.0204  -33.9639   25.0427 H   0  0  0  0  0  0
  -22.7449  -31.3033   21.3947 H   0  0  0  0  0  0
  -23.3766  -35.9561   23.3257 H   0  0  0  0  0  0
  -24.3592  -36.8919   22.2067 H   0  0  0  0  0  0
  -23.7213  -37.6424   23.6685 H   0  0  0  0  0  0
  -26.1581  -31.4860   20.6265 H   0  0  0  0  0  0
  -26.8712  -30.7722   22.0404 H   0  0  0  0  0  0
  -28.1181  -28.7991   21.2683 H   0  0  0  0  0  0
  -25.8770  -25.9507   18.8873 H   0  0  0  0  0  0
  -23.9775  -27.3654   18.9323 H   0  0  0  0  0  0
  -23.7922  -30.5955   19.4037 H   0  0  0  0  0  0
  -22.7797  -29.2551   19.8483 H   0  0  0  0  0  0
  -25.1296  -36.1866   25.0819 H   0  0  0  0  0  0
  -21.0003  -28.3299   24.1340 H   0  0  0  0  0  0
  -20.5674  -26.2342   23.3592 H   0  0  0  0  0  0
  -21.6655  -26.7435   22.1177 H   0  0  0  0  0  0
  -19.6920  -25.6272   21.1253 H   0  0  0  0  0  0
  -19.6714  -27.3163   20.6696 H   0  0  0  0  0  0
  -17.4216  -26.6675   21.3998 H   0  0  0  0  0  0
  -18.0347  -26.0081   22.8997 H   0  0  0  0  0  0
  -19.7956  -30.7281   24.2225 H   0  0  0  0  0  0
  -17.5033  -31.6285   24.5129 H   0  0  0  0  0  0
  -15.5355  -30.2959   23.7716 H   0  0  0  0  0  0
  -15.8683  -28.0795   22.7118 H   0  0  0  0  0  0
  -24.5964  -30.7034   25.7758 H   0  0  0  0  0  0
  -24.8921  -32.2865   26.4839 H   0  0  0  0  0  0
  -25.8077  -30.8908   27.0241 H   0  0  0  0  0  0
  -26.3066  -29.6667   24.1326 H   0  0  0  0  0  0
  -27.4062  -29.7277   25.4889 H   0  0  0  0  0  0
  -27.8959  -30.4204   23.9640 H   0  0  0  0  0  0
  -27.2703  -33.3638   26.2048 H   0  0  0  0  0  0
  -28.3934  -32.6838   25.0378 H   0  0  0  0  0  0
  -28.0723  -31.8475   26.5490 H   0  0  0  0  0  0
  -28.2553  -38.0109   24.7558 H   0  0  0  0  0  0
  -28.1114  -36.2639   24.6231 H   0  0  0  0  0  0
  -27.2305  -37.1346   25.8867 H   0  0  0  0  0  0
  -20.9450  -29.8796   21.6819 H   0  0  0  0  0  0
  -26.0147  -38.2810   24.1435 H   0  0  0  0  0  0
  -30.7248  -18.8811   22.6926 H   0  0  0  0  0  0
  -29.0097  -18.4955   22.5376 H   0  0  0  0  0  0
  -28.4009  -15.9018   22.5146 H   0  0  0  0  0  0
  -29.7557  -14.8277   22.8985 H   0  0  0  0  0  0
  -31.2436  -16.6299   23.3746 H   0  0  0  0  0  0
  -31.3046  -17.5868   20.8461 H   0  0  0  0  0  0
  -25.7880  -19.9862   20.4302 H   0  0  0  0  0  0
  -26.9820  -18.7698   20.6740 H   0  0  0  0  0  0
  -26.5804  -19.2659   19.0223 H   0  0  0  0  0  0
  -32.1901  -21.3949   19.7940 H   0  0  0  0  0  0
  -31.7778  -19.9210   20.6456 H   0  0  0  0  0  0
  -31.9435  -21.4103   21.5438 H   0  0  0  0  0  0
  -25.5904  -21.6106   18.9280 H   0  0  0  0  0  0
  -25.8980  -23.2861   18.9589 H   0  0  0  0  0  0
  -25.3874  -22.4860   20.4454 H   0  0  0  0  0  0
  -31.1380  -23.7943   21.6249 H   0  0  0  0  0  0
  -30.4356  -24.8051   20.3759 H   0  0  0  0  0  0
  -31.6636  -23.6354   19.9443 H   0  0  0  0  0  0
  -30.2638  -18.6759   19.1188 H   0  0  0  0  0  0
  -28.7193  -18.1410   19.5112 H   0  0  0  0  0  0
  -26.8394  -24.6489   20.3959 H   0  0  0  0  0  0
  -27.6143  -24.7284   18.7975 H   0  0  0  0  0  0
  -28.6572  -17.1705   24.6764 H   0  0  0  0  0  0
  -30.1017  -17.7477   25.1571 H   0  0  0  0  0  0
  -29.8211  -16.1535   25.1940 H   0  0  0  0  0  0
  1 25  1  0  0  0
  1 30  2  0  0  0
  1 87  1  0  0  0
  2  3  1  0  0  0
  2 25  1  0  0  0
  2 89  1  0  0  0
  2 90  1  0  0  0
  3  4  1  0  0  0
  3 91  1  0  0  0
  3 92  1  0  0  0
  4  5  1  0  0  0
  4 93  1  0  0  0
  4 94  1  0  0  0
  5  6  1  0  0  0
  5 26  1  0  0  0
  5 95  1  0  0  0
  6 25  1  0  0  0
  6 96  1  0  0  0
  6 97  1  0  0  0
  7  8  2  0  0  0
  7 26  1  0  0  0
  7 29  1  0  0  0
  8  9  1  0  0  0
  8 22  1  0  0  0
  9 10  1  0  0  0
  9 27  2  0  0  0
 10 11  2  0  0  0
 10 15  1  0  0  0
 11 12  1  0  0  0
 11 98  1  0  0  0
 12 13  2  0  0  0
 12 99  1  0  0  0
 13 14  1  0  0  0
 13 31  1  0  0  0
 14 15  2  0  0  0
 14100  1  0  0  0
 15101  1  0  0  0
 16 17  2  0  0  0
 16 21  1  0  0  0
 16 31  1  0  0  0
 17 18  1  0  0  0
 17102  1  0  0  0
 18 19  2  0  0  0
 18103  1  0  0  0
 19 20  1  0  0  0
 19 24  1  0  0  0
 20 21  2  0  0  0
 20104  1  0  0  0
 21 23  1  0  0  0
 22 28  1  0  0  0
 22 32  2  0  0  0
 26 27  1  0  0  0
 28105  1  0  0  0
 28106  1  0  0  0
 29107  1  0  0  0
 29108  1  0  0  0
 33 34  1  0  0  0
 33 66  1  0  0  0
 33 70  2  0  0  0
 34 36  1  0  0  0
 34 59  1  0  0  0
 34109  1  0  0  0
 35 44  2  0  0  0
 35 45  1  0  0  0
 35 68  1  0  0  0
 36 56  1  0  0  0
 36110  1  0  0  0
 37 39  1  0  0  0
 37 47  1  0  0  0
 37 66  1  0  0  0
 37111  1  0  0  0
 38 43  2  0  0  0
 38 46  1  0  0  0
 38 47  1  0  0  0
 39 64  1  0  0  0
 39 67  2  0  0  0
 40 52  1  0  0  0
 40 53  2  0  0  0
 40 58  1  0  0  0
 41112  1  0  0  0
 41113  1  0  0  0
 41114  1  0  0  0
 41 48  1  0  0  0
 42 43  1  0  0  0
 42 66  1  0  0  0
 42115  1  0  0  0
 42116  1  0  0  0
 43 44  1  0  0  0
 44117  1  0  0  0
 45 46  2  0  0  0
 45118  1  0  0  0
 46119  1  0  0  0
 47120  1  0  0  0
 47121  1  0  0  0
 48 56  1  0  0  0
 48 65  1  0  0  0
 48122  1  0  0  0
 49 50  1  0  0  0
 49 53  1  0  0  0
 49 64  1  0  0  0
 49123  1  0  0  0
 50 51  1  0  0  0
 50124  1  0  0  0
 50125  1  0  0  0
 51 52  1  0  0  0
 51126  1  0  0  0
 51127  1  0  0  0
 52128  1  0  0  0
 52129  1  0  0  0
 53 54  1  0  0  0
 54 55  2  0  0  0
 54130  1  0  0  0
 55 57  1  0  0  0
 55131  1  0  0  0
 56 69  2  0  0  0
 57 58  2  0  0  0
 57132  1  0  0  0
 58133  1  0  0  0
 59 60  1  0  0  0
 59 61  1  0  0  0
 59 62  1  0  0  0
 60134  1  0  0  0
 60135  1  0  0  0
 60136  1  0  0  0
 61137  1  0  0  0
 61138  1  0  0  0
 61139  1  0  0  0
 62140  1  0  0  0
 62141  1  0  0  0
 62142  1  0  0  0
 63 65  1  0  0  0
 63143  1  0  0  0
 63144  1  0  0  0
 63145  1  0  0  0
 64146  1  0  0  0
 65147  1  0  0  0
 68 86  1  0  0  0
 71 73  2  0  0  0
 71 75  1  0  0  0
 71 81  1  0  0  0
 72 74  1  0  0  0
 72 75  2  0  0  0
 72 82  1  0  0  0
 73 76  1  0  0  0
 73 83  1  0  0  0
 74 76  2  0  0  0
 74 84  1  0  0  0
 75 85  1  0  0  0
 76 86  1  0  0  0
 77 79  1  0  0  0
 77 80  1  0  0  0
 77148  1  0  0  0
 77149  1  0  0  0
 78 79  1  0  0  0
 78 87  1  0  0  0
 78150  1  0  0  0
 78151  1  0  0  0
 79 88  1  0  0  0
 79152  1  0  0  0
 80 85  1  0  0  0
 80 87  1  0  0  0
 80153  1  0  0  0
 81154  1  0  0  0
 81155  1  0  0  0
 81156  1  0  0  0
 82157  1  0  0  0
 82158  1  0  0  0
 82159  1  0  0  0
 83160  1  0  0  0
 83161  1  0  0  0
 83162  1  0  0  0
 84163  1  0  0  0
 84164  1  0  0  0
 84165  1  0  0  0
 85166  1  0  0  0
 85167  1  0  0  0
 86168  1  0  0  0
 86169  1  0  0  0
 88170  1  0  0  0
 88171  1  0  0  0
 88172  1  0  0  0
M  CHG  1  88   1
M  ISO  4   1 100  68 101  86 101  87 100
M  END
> <chiral flag>
0

> <version>
0

> <s_m_source_file>
/data/baiqing/PycharmProjects/Reinvent-master-3.2/result/LINK_invent/BTK/process_docking_weight1_custom_sum_contain_oxygen_bond_distance_aromatic_linkinvent_7_9_3/rearranged_h_0168.sdf

> <i_m_source_file_index>
83

> <r_mmod_Potential_Energy-OPLS-2005>
445.879272460938

> <r_mmod_Stretch_Energy-OPLS-2005>
234.114929199219

> <r_mmod_Bend_Energy-OPLS-2005>
337.044769287109

> <r_mmod_Torsional_Energy-OPLS-2005>
329.765014648438

> <r_mmod_Improper_Torsional_Energy-OPLS-2005>
8.94529724121094

> <r_mmod_Van_der_Waal_Energy-OPLS-2005>
171.954559326172

> <r_mmod_Electrostatic_Energy-OPLS-2005>
-285.496673583984

> <r_mmod_Solvation_Energy-OPLS-2005>
-497.349212646484

> <b_mmod_Minimization_Converged-OPLS-2005>
0

> <r_mmod_RMS_Derivative-OPLS-2005>
3.07380628585815

$$$$
84
                    3D
 Structure written by MMmdl.
168177  0  0  1  0            999 V2000
  -30.5698  -15.0079   20.3501 C   0  0  0  0  0  0
  -30.4324  -12.6168   19.4994 C   0  0  0  0  0  0
  -29.5168  -12.5006   18.2582 C   0  0  0  0  0  0
  -28.0551  -12.2800   18.6884 C   0  0  0  0  0  0
  -27.6144  -13.2473   19.8169 C   0  0  2  0  0  0
  -28.6611  -13.3598   20.9417 C   0  0  0  0  0  0
  -25.2412  -13.8198   20.5765 C   0  0  0  0  0  0
  -24.1736  -13.0397   20.9264 C   0  0  0  0  0  0
  -24.6374  -11.6902   20.8781 C   0  0  0  0  0  0
  -23.9077  -10.4268   21.0418 C   0  0  0  0  0  0
  -24.3628   -9.4186   21.9193 C   0  0  0  0  0  0
  -23.6298   -8.2227   22.0752 C   0  0  0  0  0  0
  -22.4274   -8.0268   21.3545 C   0  0  0  0  0  0
  -21.9919   -9.0246   20.4645 C   0  0  0  0  0  0
  -22.7255  -10.2120   20.3056 C   0  0  0  0  0  0
  -21.6837   -6.0735   22.5276 C   0  0  0  0  0  0
  -21.4007   -6.5642   23.8215 C   0  0  0  0  0  0
  -21.3652   -5.6794   24.9176 C   0  0  0  0  0  0
  -21.6034   -4.3059   24.7232 C   0  0  0  0  0  0
  -21.8813   -3.8146   23.4348 C   0  0  0  0  0  0
  -21.9186   -4.6969   22.3406 C   0  0  0  0  0  0
  -22.7763  -13.5174   21.1912 C   0  0  0  0  0  0
  -22.1665   -4.2155   21.0991 F   0  0  0  0  0  0
  -21.5629   -3.4543   25.7752 F   0  0  0  0  0  0
  -29.9342  -13.7585   20.3267 N   0  0  0  0  0  0
  -26.2826  -12.9425   20.3238 N   0  0  0  0  0  0
  -25.9295  -11.6559   20.5738 N   0  0  0  0  0  0
  -22.0413  -12.8153   22.0474 N   0  0  0  0  0  0
  -25.4000  -15.1941   20.4275 N   0  0  0  0  0  0
  -31.8005  -14.9320   20.2654 O   0  0  0  0  0  0
  -21.6617   -6.8874   21.4239 O   0  0  0  0  0  0
  -22.3459  -14.5473   20.6750 O   0  0  0  0  0  0
  -24.6445  -31.8399   23.1864 C   0  0  0  0  0  0
  -25.9217  -32.4663   23.8234 C   0  0  1  0  0  0
  -27.2047  -27.0990   20.1479 C   0  0  0  0  0  0
  -25.5966  -33.8468   24.2173 N   0  0  0  0  0  0
  -23.4507  -30.4581   21.5329 C   0  0  2  0  0  0
  -24.9005  -28.8851   20.1076 C   0  0  0  0  0  0
  -22.7579  -29.4483   22.4830 C   0  0  0  0  0  0
  -18.0312  -28.1383   22.8473 C   0  0  0  0  0  0
  -24.1499  -36.7236   23.2635 C   0  0  0  0  0  0
  -26.0111  -30.7009   21.3948 C   0  0  0  0  0  0
  -26.0795  -29.3107   20.7314 C   0  0  0  0  0  0
  -27.2317  -28.4322   20.7361 C   0  0  0  0  0  0
  -26.0027  -26.7931   19.4724 C   0  0  0  0  0  0
  -24.8778  -27.6426   19.4618 C   0  0  0  0  0  0
  -23.6799  -29.7896   20.1518 C   0  0  0  0  0  0
  -25.4137  -36.2997   24.0285 C   0  0  1  0  0  0
  -20.5937  -28.3695   23.1235 C   0  0  2  0  0  0
  -20.6795  -26.9391   22.5418 C   0  0  0  0  0  0
  -19.5776  -26.6367   21.5210 C   0  0  0  0  0  0
  -18.1951  -26.7924   22.1598 C   0  0  0  0  0  0
  -19.1572  -28.8849   23.2844 C   0  0  0  0  0  0
  -18.9478  -30.1453   23.8855 C   0  0  0  0  0  0
  -17.6480  -30.6577   24.0545 C   0  0  0  0  0  0
  -25.9083  -34.9374   23.5036 C   0  0  0  0  0  0
  -16.5373  -29.9076   23.6328 C   0  0  0  0  0  0
  -16.7293  -28.6502   23.0336 C   0  0  0  0  0  0
  -26.4546  -31.6525   25.0676 C   0  0  0  0  0  0
  -25.3710  -31.3746   26.1355 C   0  0  0  0  0  0
  -27.0408  -30.2889   24.6321 C   0  0  0  0  0  0
  -27.6062  -32.4307   25.7460 C   0  0  0  0  0  0
  -27.5586  -37.1764   24.8460 C   0  0  0  0  0  0
  -21.4267  -29.3017   22.3590 N   0  0  0  0  0  0
  -26.4299  -37.3710   23.9392 N   0  0  0  0  0  0
  -24.7225  -31.0213   22.0927 N   0  0  0  0  0  0
  -23.4225  -28.8015   23.2962 O   0  0  0  0  0  0
  -28.2288  -26.0767   20.2438 O   0  0  0  0  0  0
  -26.5667  -34.8868   22.4617 O   0  0  0  0  0  0
  -23.5553  -32.1314   23.7047 O   0  0  0  0  0  0
  -27.0456  -19.7676   20.2578 C   0  0  0  0  0  0
  -28.4821  -21.6239   19.6947 C   0  0  0  0  0  0
  -27.8292  -21.6573   18.4330 C   0  0  0  0  0  0
  -28.3738  -20.2581   20.3363 C   0  0  0  0  0  0
  -26.6921  -20.8407   18.2443 C   0  0  0  0  0  0
  -31.0704  -17.5720   19.6704 C   0  0  0  0  0  0
  -30.5094  -19.0410   19.6019 C   0  0  0  0  0  0
  -29.1558  -17.6487   20.9286 C   0  0  0  0  0  0
  -29.9280  -16.5430   19.9802 C   0  0  2  0  0  0
  -28.3177  -22.5438   17.2951 C   0  0  0  0  0  0
  -25.8775  -20.8702   16.9577 C   0  0  0  0  0  0
  -30.3025  -23.3873   20.3166 C   0  0  0  0  0  0
  -27.9810  -24.5683   19.8713 C   0  0  0  0  0  0
  -28.7919  -23.1308   20.3409 C   0  0  1  0  0  0
  -26.2373  -20.0189   19.2070 N   0  0  0  0  0  0
  -29.3534  -19.1308   20.4860 N   0  0  0  0  0  0
  -29.1478  -16.3901   18.7410 N   0  3  0  0  0  0
  -31.4651  -12.7560   19.1736 H   0  0  0  0  0  0
  -30.4311  -11.6910   20.0782 H   0  0  0  0  0  0
  -29.5941  -13.3999   17.6494 H   0  0  0  0  0  0
  -29.8468  -11.6788   17.6228 H   0  0  0  0  0  0
  -27.9734  -11.2508   19.0417 H   0  0  0  0  0  0
  -27.3853  -12.3537   17.8308 H   0  0  0  0  0  0
  -27.5419  -14.2223   19.3399 H   0  0  0  0  0  0
  -28.7611  -12.4168   21.4828 H   0  0  0  0  0  0
  -28.3546  -14.1046   21.6772 H   0  0  0  0  0  0
  -25.2774   -9.5657   22.4761 H   0  0  0  0  0  0
  -23.9987   -7.4603   22.7457 H   0  0  0  0  0  0
  -21.0849   -8.8764   19.8947 H   0  0  0  0  0  0
  -22.3716  -10.9653   19.6154 H   0  0  0  0  0  0
  -21.1998   -7.6145   23.9740 H   0  0  0  0  0  0
  -21.1485   -6.0517   25.9087 H   0  0  0  0  0  0
  -22.0602   -2.7606   23.2853 H   0  0  0  0  0  0
  -22.4019  -11.9798   22.4822 H   0  0  0  0  0  0
  -21.1024  -13.1157   22.2669 H   0  0  0  0  0  0
  -24.6137  -15.8249   20.5444 H   0  0  0  0  0  0
  -26.2510  -15.6753   20.1828 H   0  0  0  0  0  0
  -26.7258  -32.5269   23.0924 H   0  0  0  0  0  0
  -25.0037  -33.9569   25.0266 H   0  0  0  0  0  0
  -22.7547  -31.2830   21.3756 H   0  0  0  0  0  0
  -23.3744  -35.9579   23.3293 H   0  0  0  0  0  0
  -24.3584  -36.8909   22.2054 H   0  0  0  0  0  0
  -23.7293  -37.6426   23.6711 H   0  0  0  0  0  0
  -26.1787  -31.4522   20.6220 H   0  0  0  0  0  0
  -26.8759  -30.7495   22.0434 H   0  0  0  0  0  0
  -28.1276  -28.7490   21.2515 H   0  0  0  0  0  0
  -25.8893  -25.8450   18.9696 H   0  0  0  0  0  0
  -23.9758  -27.3157   18.9646 H   0  0  0  0  0  0
  -23.8229  -30.5663   19.4005 H   0  0  0  0  0  0
  -22.7966  -29.2335   19.8301 H   0  0  0  0  0  0
  -25.1333  -36.1796   25.0770 H   0  0  0  0  0  0
  -20.9999  -28.3283   24.1364 H   0  0  0  0  0  0
  -20.5700  -26.2279   23.3637 H   0  0  0  0  0  0
  -21.6662  -26.7408   22.1207 H   0  0  0  0  0  0
  -19.6936  -25.6271   21.1251 H   0  0  0  0  0  0
  -19.6736  -27.3151   20.6728 H   0  0  0  0  0  0
  -17.4237  -26.6671   21.3983 H   0  0  0  0  0  0
  -18.0327  -26.0068   22.8988 H   0  0  0  0  0  0
  -19.7954  -30.7278   24.2211 H   0  0  0  0  0  0
  -17.5038  -31.6255   24.5149 H   0  0  0  0  0  0
  -15.5369  -30.2959   23.7693 H   0  0  0  0  0  0
  -15.8695  -28.0823   22.7051 H   0  0  0  0  0  0
  -24.5952  -30.7006   25.7709 H   0  0  0  0  0  0
  -24.8797  -32.2916   26.4584 H   0  0  0  0  0  0
  -25.7960  -30.9091   27.0248 H   0  0  0  0  0  0
  -26.3021  -29.6575   24.1358 H   0  0  0  0  0  0
  -27.4002  -29.7234   25.4930 H   0  0  0  0  0  0
  -27.8954  -30.4055   23.9654 H   0  0  0  0  0  0
  -27.2652  -33.3660   26.1883 H   0  0  0  0  0  0
  -28.3922  -32.6772   25.0317 H   0  0  0  0  0  0
  -28.0643  -31.8531   26.5482 H   0  0  0  0  0  0
  -28.2569  -38.0094   24.7516 H   0  0  0  0  0  0
  -28.1124  -36.2612   24.6281 H   0  0  0  0  0  0
  -27.2307  -37.1422   25.8868 H   0  0  0  0  0  0
  -20.9469  -29.8742   21.6788 H   0  0  0  0  0  0
  -26.0147  -38.2758   24.1429 H   0  0  0  0  0  0
  -26.7293  -18.8931   20.8041 H   0  0  0  0  0  0
  -31.7963  -17.5345   20.4855 H   0  0  0  0  0  0
  -31.6360  -17.3204   18.7707 H   0  0  0  0  0  0
  -30.2020  -19.2827   18.5840 H   0  0  0  0  0  0
  -31.2748  -19.7647   19.8894 H   0  0  0  0  0  0
  -29.5689  -17.5620   21.9344 H   0  0  0  0  0  0
  -28.1070  -17.3776   21.0354 H   0  0  0  0  0  0
  -29.2686  -23.0223   17.5298 H   0  0  0  0  0  0
  -27.5900  -23.3126   17.0341 H   0  0  0  0  0  0
  -28.4898  -21.9307   16.4076 H   0  0  0  0  0  0
  -25.5474  -21.8822   16.7255 H   0  0  0  0  0  0
  -24.9846  -20.2452   17.0216 H   0  0  0  0  0  0
  -26.4678  -20.5071   16.1153 H   0  0  0  0  0  0
  -30.8379  -22.5981   20.8432 H   0  0  0  0  0  0
  -30.5395  -24.3305   20.8078 H   0  0  0  0  0  0
  -30.6866  -23.4371   19.2990 H   0  0  0  0  0  0
  -26.9389  -24.3567   20.1141 H   0  0  0  0  0  0
  -28.0235  -24.6128   18.7874 H   0  0  0  0  0  0
  -28.5291  -23.0074   21.3932 H   0  0  0  0  0  0
  -28.7570  -17.2846   18.4978 H   0  0  0  0  0  0
  -28.4024  -15.7311   18.8458 H   0  0  0  0  0  0
  -29.7462  -16.0824   17.9934 H   0  0  0  0  0  0
  1 25  1  0  0  0
  1 30  2  0  0  0
  1 79  1  0  0  0
  2  3  1  0  0  0
  2 25  1  0  0  0
  2 88  1  0  0  0
  2 89  1  0  0  0
  3  4  1  0  0  0
  3 90  1  0  0  0
  3 91  1  0  0  0
  4  5  1  0  0  0
  4 92  1  0  0  0
  4 93  1  0  0  0
  5  6  1  0  0  0
  5 26  1  0  0  0
  5 94  1  0  0  0
  6 25  1  0  0  0
  6 95  1  0  0  0
  6 96  1  0  0  0
  7  8  2  0  0  0
  7 26  1  0  0  0
  7 29  1  0  0  0
  8  9  1  0  0  0
  8 22  1  0  0  0
  9 10  1  0  0  0
  9 27  2  0  0  0
 10 11  2  0  0  0
 10 15  1  0  0  0
 11 12  1  0  0  0
 11 97  1  0  0  0
 12 13  2  0  0  0
 12 98  1  0  0  0
 13 14  1  0  0  0
 13 31  1  0  0  0
 14 15  2  0  0  0
 14 99  1  0  0  0
 15100  1  0  0  0
 16 17  2  0  0  0
 16 21  1  0  0  0
 16 31  1  0  0  0
 17 18  1  0  0  0
 17101  1  0  0  0
 18 19  2  0  0  0
 18102  1  0  0  0
 19 20  1  0  0  0
 19 24  1  0  0  0
 20 21  2  0  0  0
 20103  1  0  0  0
 21 23  1  0  0  0
 22 28  1  0  0  0
 22 32  2  0  0  0
 26 27  1  0  0  0
 28104  1  0  0  0
 28105  1  0  0  0
 29106  1  0  0  0
 29107  1  0  0  0
 33 34  1  0  0  0
 33 66  1  0  0  0
 33 70  2  0  0  0
 34 36  1  0  0  0
 34 59  1  0  0  0
 34108  1  0  0  0
 35 44  2  0  0  0
 35 45  1  0  0  0
 35 68  1  0  0  0
 36 56  1  0  0  0
 36109  1  0  0  0
 37 39  1  0  0  0
 37 47  1  0  0  0
 37 66  1  0  0  0
 37110  1  0  0  0
 38 43  2  0  0  0
 38 46  1  0  0  0
 38 47  1  0  0  0
 39 64  1  0  0  0
 39 67  2  0  0  0
 40 52  1  0  0  0
 40 53  2  0  0  0
 40 58  1  0  0  0
 41111  1  0  0  0
 41112  1  0  0  0
 41113  1  0  0  0
 41 48  1  0  0  0
 42 43  1  0  0  0
 42 66  1  0  0  0
 42114  1  0  0  0
 42115  1  0  0  0
 43 44  1  0  0  0
 44116  1  0  0  0
 45 46  2  0  0  0
 45117  1  0  0  0
 46118  1  0  0  0
 47119  1  0  0  0
 47120  1  0  0  0
 48 56  1  0  0  0
 48 65  1  0  0  0
 48121  1  0  0  0
 49 50  1  0  0  0
 49 53  1  0  0  0
 49 64  1  0  0  0
 49122  1  0  0  0
 50 51  1  0  0  0
 50123  1  0  0  0
 50124  1  0  0  0
 51 52  1  0  0  0
 51125  1  0  0  0
 51126  1  0  0  0
 52127  1  0  0  0
 52128  1  0  0  0
 53 54  1  0  0  0
 54 55  2  0  0  0
 54129  1  0  0  0
 55 57  1  0  0  0
 55130  1  0  0  0
 56 69  2  0  0  0
 57 58  2  0  0  0
 57131  1  0  0  0
 58132  1  0  0  0
 59 60  1  0  0  0
 59 61  1  0  0  0
 59 62  1  0  0  0
 60133  1  0  0  0
 60134  1  0  0  0
 60135  1  0  0  0
 61136  1  0  0  0
 61137  1  0  0  0
 61138  1  0  0  0
 62139  1  0  0  0
 62140  1  0  0  0
 62141  1  0  0  0
 63 65  1  0  0  0
 63142  1  0  0  0
 63143  1  0  0  0
 63144  1  0  0  0
 64145  1  0  0  0
 65146  1  0  0  0
 68 83  1  0  0  0
 71 74  2  0  0  0
 71 85  1  0  0  0
 71147  1  0  0  0
 72 73  2  0  0  0
 72 74  1  0  0  0
 72 84  1  0  0  0
 73 75  1  0  0  0
 73 80  1  0  0  0
 74 86  1  0  0  0
 75 81  1  0  0  0
 75 85  2  0  0  0
 76 77  1  0  0  0
 76 79  1  0  0  0
 76148  1  0  0  0
 76149  1  0  0  0
 77 86  1  0  0  0
 77150  1  0  0  0
 77151  1  0  0  0
 78 79  1  0  0  0
 78 86  1  0  0  0
 78152  1  0  0  0
 78153  1  0  0  0
 79 87  1  0  0  0
 80154  1  0  0  0
 80155  1  0  0  0
 80156  1  0  0  0
 81157  1  0  0  0
 81158  1  0  0  0
 81159  1  0  0  0
 82160  1  0  0  0
 82161  1  0  0  0
 82162  1  0  0  0
 82 84  1  0  0  0
 83 84  1  0  0  0
 83163  1  0  0  0
 83164  1  0  0  0
 84165  1  0  0  0
 87166  1  0  0  0
 87167  1  0  0  0
 87168  1  0  0  0
M  CHG  1  87   1
M  ISO  4   1 100  68 101  79 100  83 101
M  END
> <chiral flag>
0

> <version>
0

> <s_m_source_file>
/data/baiqing/PycharmProjects/Reinvent-master-3.2/result/LINK_invent/BTK/process_docking_weight1_custom_sum_contain_oxygen_bond_distance_aromatic_linkinvent_7_9_3/rearranged_h_0168.sdf

> <i_m_source_file_index>
84

> <r_mmod_Potential_Energy-OPLS-2005>
676.720153808594

> <r_mmod_Stretch_Energy-OPLS-2005>
311.990234375

> <r_mmod_Bend_Energy-OPLS-2005>
367.796722412109

> <r_mmod_Torsional_Energy-OPLS-2005>
484.477935791016

> <r_mmod_Improper_Torsional_Energy-OPLS-2005>
30.3092098236084

> <r_mmod_Van_der_Waal_Energy-OPLS-2005>
135.604278564453

> <r_mmod_Electrostatic_Energy-OPLS-2005>
-401.460296630859

> <r_mmod_Solvation_Energy-OPLS-2005>
-491.822326660156

> <b_mmod_Minimization_Converged-OPLS-2005>
0

> <r_mmod_RMS_Derivative-OPLS-2005>
3.42837929725647

$$$$
85
                    3D
 Structure written by MMmdl.
160169  0  0  1  0            999 V2000
  -30.3909  -15.3875   20.3639 C   0  0  0  0  0  0
  -30.4349  -12.9010   19.5229 C   0  0  0  0  0  0
  -29.5375  -12.5990   18.2943 C   0  0  0  0  0  0
  -28.0943  -12.2956   18.7310 C   0  0  0  0  0  0
  -27.6041  -13.2846   19.8159 C   0  0  2  0  0  0
  -28.6347  -13.5119   20.9424 C   0  0  0  0  0  0
  -25.2359  -13.8256   20.5760 C   0  0  0  0  0  0
  -24.1729  -13.0435   20.9276 C   0  0  0  0  0  0
  -24.6401  -11.6937   20.8772 C   0  0  0  0  0  0
  -23.9099  -10.4292   21.0409 C   0  0  0  0  0  0
  -24.3639   -9.4204   21.9188 C   0  0  0  0  0  0
  -23.6306   -8.2243   22.0754 C   0  0  0  0  0  0
  -22.4287   -8.0284   21.3546 C   0  0  0  0  0  0
  -21.9932   -9.0260   20.4646 C   0  0  0  0  0  0
  -22.7269  -10.2135   20.3057 C   0  0  0  0  0  0
  -21.6857   -6.0740   22.5281 C   0  0  0  0  0  0
  -21.4016   -6.5642   23.8215 C   0  0  0  0  0  0
  -21.3659   -5.6794   24.9177 C   0  0  0  0  0  0
  -21.6042   -4.3056   24.7229 C   0  0  0  0  0  0
  -21.8818   -3.8150   23.4349 C   0  0  0  0  0  0
  -21.9193   -4.6967   22.3405 C   0  0  0  0  0  0
  -22.7746  -13.5179   21.1923 C   0  0  0  0  0  0
  -22.1661   -4.2152   21.0981 F   0  0  0  0  0  0
  -21.5627   -3.4538   25.7740 F   0  0  0  0  0  0
  -29.8432  -14.0610   20.2998 N   0  0  0  0  0  0
  -26.2790  -12.9547   20.3211 N   0  0  0  0  0  0
  -25.9339  -11.6644   20.5716 N   0  0  0  0  0  0
  -22.0406  -12.8156   22.0472 N   0  0  0  0  0  0
  -25.3974  -15.1994   20.4187 N   0  0  0  0  0  0
  -31.6224  -15.3671   20.2073 O   0  0  0  0  0  0
  -21.6643   -6.8885   21.4244 O   0  0  0  0  0  0
  -22.3423  -14.5485   20.6766 O   0  0  0  0  0  0
  -24.6704  -31.8147   23.1637 C   0  0  0  0  0  0
  -25.9349  -32.4544   23.8128 C   0  0  1  0  0  0
  -27.2179  -26.8427   20.2083 C   0  0  0  0  0  0
  -25.5976  -33.8361   24.2020 N   0  0  0  0  0  0
  -23.4893  -30.4227   21.5151 C   0  0  2  0  0  0
  -24.9429  -28.7893   20.1217 C   0  0  0  0  0  0
  -22.7703  -29.4391   22.4762 C   0  0  0  0  0  0
  -18.0325  -28.1411   22.8456 C   0  0  0  0  0  0
  -24.1496  -36.7188   23.2651 C   0  0  0  0  0  0
  -26.0627  -30.5948   21.4064 C   0  0  0  0  0  0
  -26.1296  -29.1734   20.7585 C   0  0  0  0  0  0
  -27.2617  -28.2260   20.7681 C   0  0  0  0  0  0
  -26.0003  -26.6309   19.5212 C   0  0  0  0  0  0
  -24.9077  -27.5399   19.4814 C   0  0  0  0  0  0
  -23.7350  -29.7302   20.1460 C   0  0  0  0  0  0
  -25.4138  -36.2937   24.0292 C   0  0  1  0  0  0
  -20.5955  -28.3758   23.1163 C   0  0  2  0  0  0
  -20.6802  -26.9431   22.5395 C   0  0  0  0  0  0
  -19.5778  -26.6371   21.5208 C   0  0  0  0  0  0
  -18.1957  -26.7941   22.1614 C   0  0  0  0  0  0
  -19.1589  -28.8908   23.2796 C   0  0  0  0  0  0
  -18.9501  -30.1496   23.8836 C   0  0  0  0  0  0
  -17.6494  -30.6599   24.0547 C   0  0  0  0  0  0
  -25.9109  -34.9325   23.4983 C   0  0  0  0  0  0
  -16.5383  -29.9083   23.6343 C   0  0  0  0  0  0
  -16.7306  -28.6507   23.0356 C   0  0  0  0  0  0
  -26.4574  -31.6524   25.0693 C   0  0  0  0  0  0
  -25.3673  -31.3801   26.1331 C   0  0  0  0  0  0
  -27.0486  -30.2877   24.6493 C   0  0  0  0  0  0
  -27.6043  -32.4362   25.7499 C   0  0  0  0  0  0
  -27.5567  -37.1749   24.8467 C   0  0  0  0  0  0
  -21.4365  -29.3035   22.3509 N   0  0  0  0  0  0
  -26.4276  -37.3682   23.9410 N   0  0  0  0  0  0
  -24.7628  -30.9737   22.0815 N   0  0  0  0  0  0
  -23.4206  -28.7971   23.3046 O   0  0  0  0  0  0
  -28.2297  -25.7150   20.1958 O   0  0  0  0  0  0
  -26.5738  -34.8874   22.4592 O   0  0  0  0  0  0
  -23.5755  -32.1156   23.6679 O   0  0  0  0  0  0
  -27.5686  -22.2274   18.7220 C   0  0  0  0  0  0
  -28.2739  -22.5740   19.8805 C   0  0  0  0  0  0
  -28.9682  -21.3831   20.4907 C   0  0  0  0  0  0
  -27.5506  -20.8891   18.2247 C   0  0  0  0  0  0
  -29.0115  -19.8760   20.0356 C   0  0  0  0  0  0
  -28.2368  -19.7717   18.8358 C   0  0  0  0  0  0
  -29.5936  -22.0719   21.7037 C   0  0  0  0  0  0
  -29.3660  -23.6715   21.5970 C   0  0  0  0  0  0
  -28.1577  -24.0891   20.6708 C   0  0  1  0  0  0
  -26.7166  -20.6771   16.9682 C   0  0  0  0  0  0
  -28.1489  -18.3948   18.1793 C   0  0  0  0  0  0
  -26.8712  -24.0403   21.5112 C   0  0  0  0  0  0
  -29.8298  -18.3766   20.5858 C   0  0  0  0  0  0
  -29.6176  -16.6843   20.4145 N   0  0  0  0  0  0
  -31.4433  -13.1313   19.1778 H   0  0  0  0  0  0
  -30.5395  -12.0177   20.1551 H   0  0  0  0  0  0
  -29.9412  -11.7631   17.7214 H   0  0  0  0  0  0
  -29.5409  -13.4608   17.6252 H   0  0  0  0  0  0
  -28.0762  -11.2804   19.1296 H   0  0  0  0  0  0
  -27.4226  -12.3000   17.8718 H   0  0  0  0  0  0
  -27.5003  -14.2362   19.2928 H   0  0  0  0  0  0
  -28.8375  -12.5933   21.4949 H   0  0  0  0  0  0
  -28.2511  -14.2319   21.6666 H   0  0  0  0  0  0
  -25.2779   -9.5679   22.4772 H   0  0  0  0  0  0
  -24.0009   -7.4633   22.7476 H   0  0  0  0  0  0
  -21.0864   -8.8792   19.8950 H   0  0  0  0  0  0
  -22.3732  -10.9680   19.6171 H   0  0  0  0  0  0
  -21.2009   -7.6150   23.9722 H   0  0  0  0  0  0
  -21.1481   -6.0522   25.9080 H   0  0  0  0  0  0
  -22.0595   -2.7612   23.2850 H   0  0  0  0  0  0
  -22.4036  -11.9818   22.4850 H   0  0  0  0  0  0
  -21.1021  -13.1165   22.2687 H   0  0  0  0  0  0
  -24.6246  -15.8464   20.5301 H   0  0  0  0  0  0
  -26.2333  -15.6404   20.0606 H   0  0  0  0  0  0
  -26.7418  -32.5056   23.0835 H   0  0  0  0  0  0
  -25.0048  -33.9421   25.0120 H   0  0  0  0  0  0
  -22.8071  -31.2561   21.3365 H   0  0  0  0  0  0
  -23.3768  -35.9508   23.3280 H   0  0  0  0  0  0
  -24.3568  -36.8879   22.2073 H   0  0  0  0  0  0
  -23.7244  -37.6356   23.6742 H   0  0  0  0  0  0
  -26.2503  -31.3286   20.6216 H   0  0  0  0  0  0
  -26.9191  -30.6568   22.0656 H   0  0  0  0  0  0
  -28.1664  -28.5286   21.2762 H   0  0  0  0  0  0
  -25.8697  -25.6822   19.0199 H   0  0  0  0  0  0
  -24.0099  -27.2391   18.9588 H   0  0  0  0  0  0
  -23.9017  -30.4948   19.3863 H   0  0  0  0  0  0
  -22.8421  -29.1916   19.8246 H   0  0  0  0  0  0
  -25.1342  -36.1721   25.0782 H   0  0  0  0  0  0
  -21.0034  -28.3375   24.1288 H   0  0  0  0  0  0
  -20.5680  -26.2378   23.3643 H   0  0  0  0  0  0
  -21.6665  -26.7397   22.1208 H   0  0  0  0  0  0
  -19.6939  -25.6268   21.1273 H   0  0  0  0  0  0
  -19.6724  -27.3151   20.6715 H   0  0  0  0  0  0
  -17.4227  -26.6675   21.4015 H   0  0  0  0  0  0
  -18.0354  -26.0099   22.9029 H   0  0  0  0  0  0
  -19.7982  -30.7321   24.2176 H   0  0  0  0  0  0
  -17.5050  -31.6271   24.5164 H   0  0  0  0  0  0
  -15.5382  -30.2963   23.7710 H   0  0  0  0  0  0
  -15.8707  -28.0806   22.7098 H   0  0  0  0  0  0
  -24.5874  -30.7132   25.7636 H   0  0  0  0  0  0
  -24.8839  -32.3011   26.4600 H   0  0  0  0  0  0
  -25.7876  -30.9069   27.0212 H   0  0  0  0  0  0
  -26.3172  -29.6519   24.1489 H   0  0  0  0  0  0
  -27.3970  -29.7287   25.5188 H   0  0  0  0  0  0
  -27.9133  -30.4040   23.9953 H   0  0  0  0  0  0
  -27.2596  -33.3727   26.1897 H   0  0  0  0  0  0
  -28.3936  -32.6819   25.0382 H   0  0  0  0  0  0
  -28.0611  -31.8607   26.5561 H   0  0  0  0  0  0
  -28.2557  -38.0071   24.7510 H   0  0  0  0  0  0
  -28.1088  -36.2592   24.6298 H   0  0  0  0  0  0
  -27.2281  -37.1390   25.8869 H   0  0  0  0  0  0
  -20.9638  -29.8719   21.6620 H   0  0  0  0  0  0
  -26.0117  -38.2734   24.1425 H   0  0  0  0  0  0
  -26.9970  -23.0004   18.2266 H   0  0  0  0  0  0
  -30.6530  -21.8266   21.7838 H   0  0  0  0  0  0
  -29.1027  -21.6868   22.5978 H   0  0  0  0  0  0
  -30.2599  -24.0697   21.1154 H   0  0  0  0  0  0
  -29.3327  -24.1499   22.5761 H   0  0  0  0  0  0
  -26.2067  -21.5888   16.6548 H   0  0  0  0  0  0
  -25.9472  -19.9232   17.1378 H   0  0  0  0  0  0
  -27.3454  -20.3600   16.1358 H   0  0  0  0  0  0
  -27.6919  -18.3827   17.1931 H   0  0  0  0  0  0
  -27.5669  -17.7194   18.8066 H   0  0  0  0  0  0
  -29.1442  -17.9727   18.0417 H   0  0  0  0  0  0
  -26.8064  -23.1201   22.0929 H   0  0  0  0  0  0
  -25.9859  -24.0821   20.8776 H   0  0  0  0  0  0
  -26.8215  -24.8712   22.2146 H   0  0  0  0  0  0
  -29.8888  -18.5109   21.6660 H   0  0  0  0  0  0
  -30.8580  -18.5267   20.2547 H   0  0  0  0  0  0
  -28.6336  -16.4652   20.4432 H   0  0  0  0  0  0
  1 25  1  0  0  0
  1 30  2  0  0  0
  1 84  1  0  0  0
  2  3  1  0  0  0
  2 25  1  0  0  0
  2 85  1  0  0  0
  2 86  1  0  0  0
  3  4  1  0  0  0
  3 87  1  0  0  0
  3 88  1  0  0  0
  4  5  1  0  0  0
  4 89  1  0  0  0
  4 90  1  0  0  0
  5  6  1  0  0  0
  5 26  1  0  0  0
  5 91  1  0  0  0
  6 25  1  0  0  0
  6 92  1  0  0  0
  6 93  1  0  0  0
  7  8  2  0  0  0
  7 26  1  0  0  0
  7 29  1  0  0  0
  8  9  1  0  0  0
  8 22  1  0  0  0
  9 10  1  0  0  0
  9 27  2  0  0  0
 10 11  2  0  0  0
 10 15  1  0  0  0
 11 12  1  0  0  0
 11 94  1  0  0  0
 12 13  2  0  0  0
 12 95  1  0  0  0
 13 14  1  0  0  0
 13 31  1  0  0  0
 14 15  2  0  0  0
 14 96  1  0  0  0
 15 97  1  0  0  0
 16 17  2  0  0  0
 16 21  1  0  0  0
 16 31  1  0  0  0
 17 18  1  0  0  0
 17 98  1  0  0  0
 18 19  2  0  0  0
 18 99  1  0  0  0
 19 20  1  0  0  0
 19 24  1  0  0  0
 20 21  2  0  0  0
 20100  1  0  0  0
 21 23  1  0  0  0
 22 28  1  0  0  0
 22 32  2  0  0  0
 26 27  1  0  0  0
 28101  1  0  0  0
 28102  1  0  0  0
 29103  1  0  0  0
 29104  1  0  0  0
 33 34  1  0  0  0
 33 66  1  0  0  0
 33 70  2  0  0  0
 34 36  1  0  0  0
 34 59  1  0  0  0
 34105  1  0  0  0
 35 44  2  0  0  0
 35 45  1  0  0  0
 35 68  1  0  0  0
 36 56  1  0  0  0
 36106  1  0  0  0
 37 39  1  0  0  0
 37 47  1  0  0  0
 37 66  1  0  0  0
 37107  1  0  0  0
 38 43  2  0  0  0
 38 46  1  0  0  0
 38 47  1  0  0  0
 39 64  1  0  0  0
 39 67  2  0  0  0
 40 52  1  0  0  0
 40 53  2  0  0  0
 40 58  1  0  0  0
 41108  1  0  0  0
 41109  1  0  0  0
 41110  1  0  0  0
 41 48  1  0  0  0
 42 43  1  0  0  0
 42 66  1  0  0  0
 42111  1  0  0  0
 42112  1  0  0  0
 43 44  1  0  0  0
 44113  1  0  0  0
 45 46  2  0  0  0
 45114  1  0  0  0
 46115  1  0  0  0
 47116  1  0  0  0
 47117  1  0  0  0
 48 56  1  0  0  0
 48 65  1  0  0  0
 48118  1  0  0  0
 49 50  1  0  0  0
 49 53  1  0  0  0
 49 64  1  0  0  0
 49119  1  0  0  0
 50 51  1  0  0  0
 50120  1  0  0  0
 50121  1  0  0  0
 51 52  1  0  0  0
 51122  1  0  0  0
 51123  1  0  0  0
 52124  1  0  0  0
 52125  1  0  0  0
 53 54  1  0  0  0
 54 55  2  0  0  0
 54126  1  0  0  0
 55 57  1  0  0  0
 55127  1  0  0  0
 56 69  2  0  0  0
 57 58  2  0  0  0
 57128  1  0  0  0
 58129  1  0  0  0
 59 60  1  0  0  0
 59 61  1  0  0  0
 59 62  1  0  0  0
 60130  1  0  0  0
 60131  1  0  0  0
 60132  1  0  0  0
 61133  1  0  0  0
 61134  1  0  0  0
 61135  1  0  0  0
 62136  1  0  0  0
 62137  1  0  0  0
 62138  1  0  0  0
 63 65  1  0  0  0
 63139  1  0  0  0
 63140  1  0  0  0
 63141  1  0  0  0
 64142  1  0  0  0
 65143  1  0  0  0
 68 79  1  0  0  0
 71 72  2  0  0  0
 71 74  1  0  0  0
 71144  1  0  0  0
 72 73  1  0  0  0
 72 79  1  0  0  0
 73 75  2  0  0  0
 73 77  1  0  0  0
 74 76  2  0  0  0
 74 80  1  0  0  0
 75 76  1  0  0  0
 75 83  1  0  0  0
 76 81  1  0  0  0
 77 78  1  0  0  0
 77145  1  0  0  0
 77146  1  0  0  0
 78 79  1  0  0  0
 78147  1  0  0  0
 78148  1  0  0  0
 79 82  1  0  0  0
 80149  1  0  0  0
 80150  1  0  0  0
 80151  1  0  0  0
 81152  1  0  0  0
 81153  1  0  0  0
 81154  1  0  0  0
 82155  1  0  0  0
 82156  1  0  0  0
 82157  1  0  0  0
 83 84  1  0  0  0
 83158  1  0  0  0
 83159  1  0  0  0
 84160  1  0  0  0
M  ISO  4   1 100  68 101  79 101  84 100
M  END
> <chiral flag>
0

> <version>
0

> <s_m_source_file>
/data/baiqing/PycharmProjects/Reinvent-master-3.2/result/LINK_invent/BTK/process_docking_weight1_custom_sum_contain_oxygen_bond_distance_aromatic_linkinvent_7_9_3/rearranged_h_0168.sdf

> <i_m_source_file_index>
85

> <r_mmod_Potential_Energy-OPLS-2005>
1553.95166015625

> <r_mmod_Stretch_Energy-OPLS-2005>
675.162414550781

> <r_mmod_Bend_Energy-OPLS-2005>
552.261962890625

> <r_mmod_Torsional_Energy-OPLS-2005>
246.077911376953

> <r_mmod_Improper_Torsional_Energy-OPLS-2005>
5.30642318725586

> <r_mmod_Van_der_Waal_Energy-OPLS-2005>
125.565895080566

> <r_mmod_Electrostatic_Energy-OPLS-2005>
-429.301055908203

> <r_mmod_Solvation_Energy-OPLS-2005>
-209.553604125977

> <b_mmod_Minimization_Converged-OPLS-2005>
0

> <r_mmod_RMS_Derivative-OPLS-2005>
0.668932795524597

$$$$
86
                    3D
 Structure written by MMmdl.
158167  0  0  1  0            999 V2000
  -30.6102  -14.7704   20.4200 C   0  0  0  0  0  0
  -30.4132  -12.4684   19.4609 C   0  0  0  0  0  0
  -29.4912  -12.4806   18.2232 C   0  0  0  0  0  0
  -28.0250  -12.2846   18.6515 C   0  0  0  0  0  0
  -27.6205  -13.2129   19.8268 C   0  0  2  0  0  0
  -28.6658  -13.2163   20.9608 C   0  0  0  0  0  0
  -25.2449  -13.8133   20.5641 C   0  0  0  0  0  0
  -24.1749  -13.0384   20.9222 C   0  0  0  0  0  0
  -24.6344  -11.6873   20.8797 C   0  0  0  0  0  0
  -23.9028  -10.4250   21.0432 C   0  0  0  0  0  0
  -24.3596   -9.4171   21.9201 C   0  0  0  0  0  0
  -23.6269   -8.2209   22.0768 C   0  0  0  0  0  0
  -22.4261   -8.0251   21.3537 C   0  0  0  0  0  0
  -21.9874   -9.0228   20.4654 C   0  0  0  0  0  0
  -22.7199  -10.2109   20.3076 C   0  0  0  0  0  0
  -21.6841   -6.0706   22.5268 C   0  0  0  0  0  0
  -21.4000   -6.5624   23.8197 C   0  0  0  0  0  0
  -21.3655   -5.6780   24.9167 C   0  0  0  0  0  0
  -21.6057   -4.3047   24.7211 C   0  0  0  0  0  0
  -21.8818   -3.8132   23.4337 C   0  0  0  0  0  0
  -21.9181   -4.6937   22.3394 C   0  0  0  0  0  0
  -22.7789  -13.5199   21.1873 C   0  0  0  0  0  0
  -22.1661   -4.2131   21.0964 F   0  0  0  0  0  0
  -21.5628   -3.4537   25.7720 F   0  0  0  0  0  0
  -29.9570  -13.5569   20.3591 N   0  0  0  0  0  0
  -26.2819  -12.9286   20.3202 N   0  0  0  0  0  0
  -25.9251  -11.6468   20.5781 N   0  0  0  0  0  0
  -22.0453  -12.8180   22.0458 N   0  0  0  0  0  0
  -25.4112  -15.1838   20.3931 N   0  0  0  0  0  0
  -31.8197  -14.8022   20.1697 O   0  0  0  0  0  0
  -21.6635   -6.8844   21.4229 O   0  0  0  0  0  0
  -22.3486  -14.5509   20.6724 O   0  0  0  0  0  0
  -24.6366  -31.8551   23.2026 C   0  0  0  0  0  0
  -25.9172  -32.4745   23.8377 C   0  0  1  0  0  0
  -27.1822  -27.2189   20.1147 C   0  0  0  0  0  0
  -25.5964  -33.8554   24.2274 N   0  0  0  0  0  0
  -23.4319  -30.4850   21.5485 C   0  0  2  0  0  0
  -24.8720  -28.9525   20.1054 C   0  0  0  0  0  0
  -22.7548  -29.4576   22.4881 C   0  0  0  0  0  0
  -18.0296  -28.1358   22.8463 C   0  0  0  0  0  0
  -24.1500  -36.7306   23.2622 C   0  0  0  0  0  0
  -25.9886  -30.7527   21.3973 C   0  0  0  0  0  0
  -26.0528  -29.3780   20.7295 C   0  0  0  0  0  0
  -27.2133  -28.5252   20.7267 C   0  0  0  0  0  0
  -25.9746  -26.9047   19.4355 C   0  0  0  0  0  0
  -24.8420  -27.7258   19.4458 C   0  0  0  0  0  0
  -23.6509  -29.8475   20.1573 C   0  0  0  0  0  0
  -25.4112  -36.3065   24.0319 C   0  0  1  0  0  0
  -20.5907  -28.3683   23.1245 C   0  0  2  0  0  0
  -20.6779  -26.9392   22.5382 C   0  0  0  0  0  0
  -19.5747  -26.6350   21.5196 C   0  0  0  0  0  0
  -18.1938  -26.7889   22.1628 C   0  0  0  0  0  0
  -19.1545  -28.8837   23.2853 C   0  0  0  0  0  0
  -18.9466  -30.1431   23.8866 C   0  0  0  0  0  0
  -17.6466  -30.6546   24.0552 C   0  0  0  0  0  0
  -25.9060  -34.9432   23.5092 C   0  0  0  0  0  0
  -16.5358  -29.9040   23.6315 C   0  0  0  0  0  0
  -16.7290  -28.6471   23.0324 C   0  0  0  0  0  0
  -26.4523  -31.6560   25.0762 C   0  0  0  0  0  0
  -25.3741  -31.3721   26.1487 C   0  0  0  0  0  0
  -27.0359  -30.2953   24.6274 C   0  0  0  0  0  0
  -27.6049  -32.4333   25.7549 C   0  0  0  0  0  0
  -27.5585  -37.1796   24.8449 C   0  0  0  0  0  0
  -21.4241  -29.3044   22.3650 N   0  0  0  0  0  0
  -26.4277  -37.3773   23.9406 N   0  0  0  0  0  0
  -24.7046  -31.0490   22.1040 N   0  0  0  0  0  0
  -23.4252  -28.8076   23.2949 O   0  0  0  0  0  0
  -28.2027  -26.2189   20.1896 O   0  0  0  0  0  0
  -26.5618  -34.8906   22.4654 O   0  0  0  0  0  0
  -23.5509  -32.1397   23.7284 O   0  0  0  0  0  0
  -28.4576  -22.5266   18.9566 C   0  0  0  0  0  0
  -28.7259  -21.1235   19.0317 C   0  0  0  0  0  0
  -28.4454  -23.3723   20.1032 C   0  0  0  0  0  0
  -28.7799  -22.6608   21.2981 C   0  0  0  0  0  0
  -29.0223  -20.4913   20.2636 C   0  0  0  0  0  0
  -29.7189  -18.3940   21.6290 C   0  0  0  0  0  0
  -29.1433  -18.0726   19.2837 C   0  0  0  0  0  0
  -30.6042  -17.1022   21.3598 C   0  0  0  0  0  0
  -28.8950  -16.5642   19.7500 C   0  0  0  0  0  0
  -28.8036  -23.3727   22.6346 C   0  0  0  0  0  0
  -27.7007  -24.7956   20.0035 C   0  0  0  0  0  0
  -29.0633  -21.3046   21.3617 N   0  0  0  0  0  0
  -29.2531  -19.0525   20.3933 N   0  0  0  0  0  0
  -29.9223  -15.9670   20.6663 N   0  0  0  0  0  0
  -31.4533  -12.5833   19.1504 H   0  0  0  0  0  0
  -30.3607  -11.5062   19.9729 H   0  0  0  0  0  0
  -29.7810  -11.6972   17.5216 H   0  0  0  0  0  0
  -29.6000  -13.4237   17.6848 H   0  0  0  0  0  0
  -27.9049  -11.2398   18.9450 H   0  0  0  0  0  0
  -27.3627  -12.4397   17.7994 H   0  0  0  0  0  0
  -27.5817  -14.2076   19.3963 H   0  0  0  0  0  0
  -28.7153  -12.2481   21.4584 H   0  0  0  0  0  0
  -28.3930  -13.9453   21.7244 H   0  0  0  0  0  0
  -25.2744   -9.5638   22.4781 H   0  0  0  0  0  0
  -23.9982   -7.4583   22.7474 H   0  0  0  0  0  0
  -21.0811   -8.8725   19.8953 H   0  0  0  0  0  0
  -22.3648  -10.9653   19.6198 H   0  0  0  0  0  0
  -21.2012   -7.6135   23.9690 H   0  0  0  0  0  0
  -21.1485   -6.0522   25.9064 H   0  0  0  0  0  0
  -22.0611   -2.7594   23.2850 H   0  0  0  0  0  0
  -22.4085  -11.9832   22.4803 H   0  0  0  0  0  0
  -21.1087  -13.1192   22.2731 H   0  0  0  0  0  0
  -24.6347  -15.8317   20.4660 H   0  0  0  0  0  0
  -26.2446  -15.6079   20.0085 H   0  0  0  0  0  0
  -26.7218  -32.5366   23.1096 H   0  0  0  0  0  0
  -25.0113  -33.9704   25.0422 H   0  0  0  0  0  0
  -22.7265  -31.3072   21.4125 H   0  0  0  0  0  0
  -23.3738  -35.9663   23.3271 H   0  0  0  0  0  0
  -24.3605  -36.8964   22.2046 H   0  0  0  0  0  0
  -23.7309  -37.6514   23.6673 H   0  0  0  0  0  0
  -26.1404  -31.5151   20.6308 H   0  0  0  0  0  0
  -26.8628  -30.7968   22.0342 H   0  0  0  0  0  0
  -28.1092  -28.8376   21.2446 H   0  0  0  0  0  0
  -25.8145  -25.9947   18.8854 H   0  0  0  0  0  0
  -23.9457  -27.4024   18.9324 H   0  0  0  0  0  0
  -23.7918  -30.6375   19.4193 H   0  0  0  0  0  0
  -22.7654  -29.2986   19.8336 H   0  0  0  0  0  0
  -25.1291  -36.1888   25.0812 H   0  0  0  0  0  0
  -20.9998  -28.3237   24.1368 H   0  0  0  0  0  0
  -20.5647  -26.2292   23.3585 H   0  0  0  0  0  0
  -21.6651  -26.7384   22.1182 H   0  0  0  0  0  0
  -19.6902  -25.6254   21.1227 H   0  0  0  0  0  0
  -19.6659  -27.3150   20.6715 H   0  0  0  0  0  0
  -17.4192  -26.6595   21.4049 H   0  0  0  0  0  0
  -18.0367  -26.0029   22.9038 H   0  0  0  0  0  0
  -19.7944  -30.7247   24.2227 H   0  0  0  0  0  0
  -17.5019  -31.6222   24.5164 H   0  0  0  0  0  0
  -15.5349  -30.2939   23.7639 H   0  0  0  0  0  0
  -15.8700  -28.0784   22.7038 H   0  0  0  0  0  0
  -24.5866  -30.7128   25.7820 H   0  0  0  0  0  0
  -24.8976  -32.2896   26.4946 H   0  0  0  0  0  0
  -25.8064  -30.8854   27.0246 H   0  0  0  0  0  0
  -26.2934  -29.6704   24.1291 H   0  0  0  0  0  0
  -27.4000  -29.7223   25.4816 H   0  0  0  0  0  0
  -27.8872  -30.4175   23.9576 H   0  0  0  0  0  0
  -27.2582  -33.3605   26.2134 H   0  0  0  0  0  0
  -28.3857  -32.6967   25.0397 H   0  0  0  0  0  0
  -28.0733  -31.8475   26.5471 H   0  0  0  0  0  0
  -28.2554  -38.0131   24.7529 H   0  0  0  0  0  0
  -28.1138  -36.2671   24.6228 H   0  0  0  0  0  0
  -27.2319  -37.1406   25.8852 H   0  0  0  0  0  0
  -20.9412  -29.8908   21.6980 H   0  0  0  0  0  0
  -26.0149  -38.2844   24.1402 H   0  0  0  0  0  0
  -28.1706  -22.9314   17.9955 H   0  0  0  0  0  0
  -28.6552  -20.5477   18.1190 H   0  0  0  0  0  0
  -30.2897  -19.1060   22.2258 H   0  0  0  0  0  0
  -28.8443  -18.1275   22.2268 H   0  0  0  0  0  0
  -28.3597  -18.3727   18.5848 H   0  0  0  0  0  0
  -30.0764  -18.1136   18.7160 H   0  0  0  0  0  0
  -31.0203  -16.7390   22.3011 H   0  0  0  0  0  0
  -31.4639  -17.3988   20.7540 H   0  0  0  0  0  0
  -28.7908  -15.9465   18.8571 H   0  0  0  0  0  0
  -27.9345  -16.5177   20.2667 H   0  0  0  0  0  0
  -28.0875  -24.1935   22.6744 H   0  0  0  0  0  0
  -29.8022  -23.7742   22.8048 H   0  0  0  0  0  0
  -28.5709  -22.6897   23.4528 H   0  0  0  0  0  0
  -26.8182  -24.6796   20.6372 H   0  0  0  0  0  0
  -27.3553  -24.7544   18.9737 H   0  0  0  0  0  0
  1 25  1  0  0  0
  1 30  2  0  0  0
  1 84  1  0  0  0
  2  3  1  0  0  0
  2 25  1  0  0  0
  2 85  1  0  0  0
  2 86  1  0  0  0
  3  4  1  0  0  0
  3 87  1  0  0  0
  3 88  1  0  0  0
  4  5  1  0  0  0
  4 89  1  0  0  0
  4 90  1  0  0  0
  5  6  1  0  0  0
  5 26  1  0  0  0
  5 91  1  0  0  0
  6 25  1  0  0  0
  6 92  1  0  0  0
  6 93  1  0  0  0
  7  8  2  0  0  0
  7 26  1  0  0  0
  7 29  1  0  0  0
  8  9  1  0  0  0
  8 22  1  0  0  0
  9 10  1  0  0  0
  9 27  2  0  0  0
 10 11  2  0  0  0
 10 15  1  0  0  0
 11 12  1  0  0  0
 11 94  1  0  0  0
 12 13  2  0  0  0
 12 95  1  0  0  0
 13 14  1  0  0  0
 13 31  1  0  0  0
 14 15  2  0  0  0
 14 96  1  0  0  0
 15 97  1  0  0  0
 16 17  2  0  0  0
 16 21  1  0  0  0
 16 31  1  0  0  0
 17 18  1  0  0  0
 17 98  1  0  0  0
 18 19  2  0  0  0
 18 99  1  0  0  0
 19 20  1  0  0  0
 19 24  1  0  0  0
 20 21  2  0  0  0
 20100  1  0  0  0
 21 23  1  0  0  0
 22 28  1  0  0  0
 22 32  2  0  0  0
 26 27  1  0  0  0
 28101  1  0  0  0
 28102  1  0  0  0
 29103  1  0  0  0
 29104  1  0  0  0
 33 34  1  0  0  0
 33 66  1  0  0  0
 33 70  2  0  0  0
 34 36  1  0  0  0
 34 59  1  0  0  0
 34105  1  0  0  0
 35 44  2  0  0  0
 35 45  1  0  0  0
 35 68  1  0  0  0
 36 56  1  0  0  0
 36106  1  0  0  0
 37 39  1  0  0  0
 37 47  1  0  0  0
 37 66  1  0  0  0
 37107  1  0  0  0
 38 43  2  0  0  0
 38 46  1  0  0  0
 38 47  1  0  0  0
 39 64  1  0  0  0
 39 67  2  0  0  0
 40 52  1  0  0  0
 40 53  2  0  0  0
 40 58  1  0  0  0
 41108  1  0  0  0
 41109  1  0  0  0
 41110  1  0  0  0
 41 48  1  0  0  0
 42 43  1  0  0  0
 42 66  1  0  0  0
 42111  1  0  0  0
 42112  1  0  0  0
 43 44  1  0  0  0
 44113  1  0  0  0
 45 46  2  0  0  0
 45114  1  0  0  0
 46115  1  0  0  0
 47116  1  0  0  0
 47117  1  0  0  0
 48 56  1  0  0  0
 48 65  1  0  0  0
 48118  1  0  0  0
 49 50  1  0  0  0
 49 53  1  0  0  0
 49 64  1  0  0  0
 49119  1  0  0  0
 50 51  1  0  0  0
 50120  1  0  0  0
 50121  1  0  0  0
 51 52  1  0  0  0
 51122  1  0  0  0
 51123  1  0  0  0
 52124  1  0  0  0
 52125  1  0  0  0
 53 54  1  0  0  0
 54 55  2  0  0  0
 54126  1  0  0  0
 55 57  1  0  0  0
 55127  1  0  0  0
 56 69  2  0  0  0
 57 58  2  0  0  0
 57128  1  0  0  0
 58129  1  0  0  0
 59 60  1  0  0  0
 59 61  1  0  0  0
 59 62  1  0  0  0
 60130  1  0  0  0
 60131  1  0  0  0
 60132  1  0  0  0
 61133  1  0  0  0
 61134  1  0  0  0
 61135  1  0  0  0
 62136  1  0  0  0
 62137  1  0  0  0
 62138  1  0  0  0
 63 65  1  0  0  0
 63139  1  0  0  0
 63140  1  0  0  0
 63141  1  0  0  0
 64142  1  0  0  0
 65143  1  0  0  0
 68 81  1  0  0  0
 71 72  2  0  0  0
 71 73  1  0  0  0
 71144  1  0  0  0
 72 75  1  0  0  0
 72145  1  0  0  0
 73 74  2  0  0  0
 73 81  1  0  0  0
 74 80  1  0  0  0
 74 82  1  0  0  0
 75 82  2  0  0  0
 75 83  1  0  0  0
 76 78  1  0  0  0
 76 83  1  0  0  0
 76146  1  0  0  0
 76147  1  0  0  0
 77 79  1  0  0  0
 77 83  1  0  0  0
 77148  1  0  0  0
 77149  1  0  0  0
 78 84  1  0  0  0
 78150  1  0  0  0
 78151  1  0  0  0
 79 84  1  0  0  0
 79152  1  0  0  0
 79153  1  0  0  0
 80154  1  0  0  0
 80155  1  0  0  0
 80156  1  0  0  0
 81157  1  0  0  0
 81158  1  0  0  0
M  ISO  4   1 100  68 101  81 101  84 100
M  END
> <chiral flag>
0

> <version>
0

> <s_m_source_file>
/data/baiqing/PycharmProjects/Reinvent-master-3.2/result/LINK_invent/BTK/process_docking_weight1_custom_sum_contain_oxygen_bond_distance_aromatic_linkinvent_7_9_3/rearranged_h_0168.sdf

> <i_m_source_file_index>
86

> <r_mmod_Potential_Energy-OPLS-2005>
264.966766357422

> <r_mmod_Stretch_Energy-OPLS-2005>
128.392196655273

> <r_mmod_Bend_Energy-OPLS-2005>
221.470565795898

> <r_mmod_Torsional_Energy-OPLS-2005>
355.856597900391

> <r_mmod_Improper_Torsional_Energy-OPLS-2005>
9.15673637390137

> <r_mmod_Van_der_Waal_Energy-OPLS-2005>
170.591278076172

> <r_mmod_Electrostatic_Energy-OPLS-2005>
-508.761260986328

> <r_mmod_Solvation_Energy-OPLS-2005>
-232.496551513672

> <b_mmod_Minimization_Converged-OPLS-2005>
0

> <r_mmod_RMS_Derivative-OPLS-2005>
4.41387796401978

$$$$
87
                    3D
 Structure written by MMmdl.
180190  0  0  1  0            999 V2000
  -30.6760  -14.8090   20.4396 C   0  0  0  0  0  0
  -30.4100  -12.5109   19.4738 C   0  0  0  0  0  0
  -29.4962  -12.5088   18.2334 C   0  0  0  0  0  0
  -28.0287  -12.3208   18.6580 C   0  0  0  0  0  0
  -27.6277  -13.2412   19.8420 C   0  0  2  0  0  0
  -28.6819  -13.2434   20.9718 C   0  0  0  0  0  0
  -25.2448  -13.8203   20.5717 C   0  0  0  0  0  0
  -24.1762  -13.0433   20.9235 C   0  0  0  0  0  0
  -24.6369  -11.6917   20.8780 C   0  0  0  0  0  0
  -23.9060  -10.4288   21.0422 C   0  0  0  0  0  0
  -24.3605   -9.4202   21.9193 C   0  0  0  0  0  0
  -23.6289   -8.2230   22.0753 C   0  0  0  0  0  0
  -22.4277   -8.0269   21.3537 C   0  0  0  0  0  0
  -21.9913   -9.0244   20.4649 C   0  0  0  0  0  0
  -22.7234  -10.2123   20.3064 C   0  0  0  0  0  0
  -21.6851   -6.0725   22.5280 C   0  0  0  0  0  0
  -21.4008   -6.5631   23.8212 C   0  0  0  0  0  0
  -21.3660   -5.6782   24.9175 C   0  0  0  0  0  0
  -21.6051   -4.3047   24.7230 C   0  0  0  0  0  0
  -21.8815   -3.8138   23.4348 C   0  0  0  0  0  0
  -21.9189   -4.6955   22.3403 C   0  0  0  0  0  0
  -22.7787  -13.5222   21.1865 C   0  0  0  0  0  0
  -22.1666   -4.2136   21.0982 F   0  0  0  0  0  0
  -21.5631   -3.4534   25.7742 F   0  0  0  0  0  0
  -29.9557  -13.6256   20.3527 N   0  0  0  0  0  0
  -26.2879  -12.9427   20.3313 N   0  0  0  0  0  0
  -25.9308  -11.6566   20.5796 N   0  0  0  0  0  0
  -22.0409  -12.8242   22.0419 N   0  0  0  0  0  0
  -25.4095  -15.1919   20.4076 N   0  0  0  0  0  0
  -31.8864  -14.7176   20.2099 O   0  0  0  0  0  0
  -21.6639   -6.8869   21.4245 O   0  0  0  0  0  0
  -22.3492  -14.5540   20.6707 O   0  0  0  0  0  0
  -24.6341  -31.8534   23.1950 C   0  0  0  0  0  0
  -25.9152  -32.4745   23.8311 C   0  0  1  0  0  0
  -27.2047  -27.2311   20.1494 C   0  0  0  0  0  0
  -25.5922  -33.8547   24.2230 N   0  0  0  0  0  0
  -23.4320  -30.4761   21.5394 C   0  0  2  0  0  0
  -24.8793  -28.9183   20.1099 C   0  0  0  0  0  0
  -22.7515  -29.4598   22.4898 C   0  0  0  0  0  0
  -18.0290  -28.1394   22.8491 C   0  0  0  0  0  0
  -24.1484  -36.7284   23.2637 C   0  0  0  0  0  0
  -25.9802  -30.7594   21.3774 C   0  0  0  0  0  0
  -26.0535  -29.3783   20.7223 C   0  0  0  0  0  0
  -27.2252  -28.5491   20.7282 C   0  0  0  0  0  0
  -26.0155  -26.8472   19.4992 C   0  0  0  0  0  0
  -24.8673  -27.6620   19.4838 C   0  0  0  0  0  0
  -23.6520  -29.8092   20.1564 C   0  0  0  0  0  0
  -25.4109  -36.3064   24.0322 C   0  0  1  0  0  0
  -20.5898  -28.3705   23.1263 C   0  0  2  0  0  0
  -20.6775  -26.9419   22.5410 C   0  0  0  0  0  0
  -19.5747  -26.6382   21.5219 C   0  0  0  0  0  0
  -18.1928  -26.7935   22.1633 C   0  0  0  0  0  0
  -19.1544  -28.8865   23.2869 C   0  0  0  0  0  0
  -18.9469  -30.1468   23.8884 C   0  0  0  0  0  0
  -17.6469  -30.6594   24.0562 C   0  0  0  0  0  0
  -25.9063  -34.9436   23.5088 C   0  0  0  0  0  0
  -16.5359  -29.9092   23.6337 C   0  0  0  0  0  0
  -16.7277  -28.6509   23.0359 C   0  0  0  0  0  0
  -26.4494  -31.6575   25.0715 C   0  0  0  0  0  0
  -25.3694  -31.3744   26.1422 C   0  0  0  0  0  0
  -27.0331  -30.2977   24.6223 C   0  0  0  0  0  0
  -27.6043  -32.4316   25.7497 C   0  0  0  0  0  0
  -27.5585  -37.1778   24.8451 C   0  0  0  0  0  0
  -21.4218  -29.3046   22.3644 N   0  0  0  0  0  0
  -26.4274  -37.3775   23.9429 N   0  0  0  0  0  0
  -24.7015  -31.0482   22.0938 N   0  0  0  0  0  0
  -23.4209  -28.8141   23.3006 O   0  0  0  0  0  0
  -28.2397  -26.2634   20.1910 O   0  0  0  0  0  0
  -26.5657  -34.8920   22.4669 O   0  0  0  0  0  0
  -23.5482  -32.1366   23.7230 O   0  0  0  0  0  0
  -28.9532  -22.9905   19.5335 C   0  0  0  0  0  0
  -28.4682  -21.2591   21.5881 C   0  0  0  0  0  0
  -29.2404  -21.5783   19.3719 C   0  0  0  0  0  0
  -29.0164  -20.6241   20.4327 C   0  0  0  0  0  0
  -28.4327  -23.5203   20.7419 C   0  0  0  0  0  0
  -30.6662  -18.7512   20.6704 C   0  0  0  0  0  0
  -28.4079  -18.1474   20.9066 C   0  0  0  0  0  0
  -31.0498  -17.2794   20.2347 C   0  0  0  0  0  0
  -28.7146  -16.6151   20.5218 C   0  0  0  0  0  0
  -29.5265  -21.1261   15.6212 C   0  0  0  0  0  0
  -29.7092  -21.0887   17.9989 C   0  0  1  0  0  0
  -28.6731  -21.2701   16.8862 C   0  0  2  0  0  0
  -30.9517  -21.8033   17.4351 C   0  0  1  0  0  0
  -27.4870  -20.2921   16.9523 C   0  0  0  0  0  0
  -32.2728  -21.2818   18.0255 C   0  0  0  0  0  0
  -28.5717  -25.4876   22.4085 C   0  0  0  0  0  0
  -31.3126  -22.7818   15.1776 C   0  0  0  0  0  0
  -27.9798  -25.0499   21.0566 C   0  0  1  0  0  0
  -28.1892  -22.6002   21.7273 N   0  0  0  0  0  0
  -29.3041  -19.1817   20.3347 N   0  0  0  0  0  0
  -30.1290  -16.1197   20.5163 N   0  0  0  0  0  0
  -30.8884  -21.6022   15.9645 N   0  3  2  0  0  0
  -31.4499  -12.6082   19.1580 H   0  0  0  0  0  0
  -30.3542  -11.5543   19.9970 H   0  0  0  0  0  0
  -29.7934  -11.7199   17.5412 H   0  0  0  0  0  0
  -29.6053  -13.4510   17.6938 H   0  0  0  0  0  0
  -27.9007  -11.2765   18.9450 H   0  0  0  0  0  0
  -27.3639  -12.4829   17.8092 H   0  0  0  0  0  0
  -27.5966  -14.2449   19.4240 H   0  0  0  0  0  0
  -28.7553  -12.2599   21.4373 H   0  0  0  0  0  0
  -28.4126  -13.9286   21.7739 H   0  0  0  0  0  0
  -25.2726   -9.5709   22.4790 H   0  0  0  0  0  0
  -23.9980   -7.4632   22.7490 H   0  0  0  0  0  0
  -21.0827   -8.8785   19.8971 H   0  0  0  0  0  0
  -22.3680  -10.9668   19.6196 H   0  0  0  0  0  0
  -21.2006   -7.6137   23.9709 H   0  0  0  0  0  0
  -21.1492   -6.0518   25.9077 H   0  0  0  0  0  0
  -22.0599   -2.7602   23.2850 H   0  0  0  0  0  0
  -22.3986  -11.9901   22.4827 H   0  0  0  0  0  0
  -21.1040  -13.1324   22.2603 H   0  0  0  0  0  0
  -24.6364  -15.8415   20.5090 H   0  0  0  0  0  0
  -26.2490  -15.6266   20.0505 H   0  0  0  0  0  0
  -26.7222  -32.5385   23.1054 H   0  0  0  0  0  0
  -24.9991  -33.9672   25.0323 H   0  0  0  0  0  0
  -22.7296  -31.2983   21.3921 H   0  0  0  0  0  0
  -23.3761  -35.9599   23.3258 H   0  0  0  0  0  0
  -24.3581  -36.8960   22.2062 H   0  0  0  0  0  0
  -23.7214  -37.6459   23.6695 H   0  0  0  0  0  0
  -26.1182  -31.5163   20.6043 H   0  0  0  0  0  0
  -26.8585  -30.8124   22.0094 H   0  0  0  0  0  0
  -28.1226  -28.8919   21.2228 H   0  0  0  0  0  0
  -25.9617  -25.8749   19.0294 H   0  0  0  0  0  0
  -23.9693  -27.3052   18.9983 H   0  0  0  0  0  0
  -23.7771  -30.5848   19.4001 H   0  0  0  0  0  0
  -22.7698  -29.2435   19.8518 H   0  0  0  0  0  0
  -25.1285  -36.1895   25.0811 H   0  0  0  0  0  0
  -20.9994  -28.3288   24.1385 H   0  0  0  0  0  0
  -20.5677  -26.2319   23.3621 H   0  0  0  0  0  0
  -21.6643  -26.7433   22.1205 H   0  0  0  0  0  0
  -19.6907  -25.6287   21.1261 H   0  0  0  0  0  0
  -19.6686  -27.3183   20.6742 H   0  0  0  0  0  0
  -17.4200  -26.6684   21.4035 H   0  0  0  0  0  0
  -18.0326  -26.0079   22.9029 H   0  0  0  0  0  0
  -19.7944  -30.7280   24.2253 H   0  0  0  0  0  0
  -17.5026  -31.6280   24.5157 H   0  0  0  0  0  0
  -15.5358  -30.2991   23.7662 H   0  0  0  0  0  0
  -15.8680  -28.0821   22.7084 H   0  0  0  0  0  0
  -24.5863  -30.7110   25.7733 H   0  0  0  0  0  0
  -24.8891  -32.2921   26.4824 H   0  0  0  0  0  0
  -25.7983  -30.8918   27.0213 H   0  0  0  0  0  0
  -26.2918  -29.6734   24.1225 H   0  0  0  0  0  0
  -27.3962  -29.7237   25.4757 H   0  0  0  0  0  0
  -27.8819  -30.4225   23.9498 H   0  0  0  0  0  0
  -27.2644  -33.3615   26.2066 H   0  0  0  0  0  0
  -28.3861  -32.6879   25.0338 H   0  0  0  0  0  0
  -28.0703  -31.8447   26.5423 H   0  0  0  0  0  0
  -28.2543  -38.0135   24.7582 H   0  0  0  0  0  0
  -28.1137  -36.2669   24.6152 H   0  0  0  0  0  0
  -27.2323  -37.1283   25.8855 H   0  0  0  0  0  0
  -20.9408  -29.8761   21.6840 H   0  0  0  0  0  0
  -26.0145  -38.2835   24.1483 H   0  0  0  0  0  0
  -29.0963  -23.6810   18.7151 H   0  0  0  0  0  0
  -28.2385  -20.6603   22.4578 H   0  0  0  0  0  0
  -31.3854  -19.4450   20.2315 H   0  0  0  0  0  0
  -30.7964  -18.8410   21.7513 H   0  0  0  0  0  0
  -28.4414  -18.2363   21.9944 H   0  0  0  0  0  0
  -27.3792  -18.3818   20.6280 H   0  0  0  0  0  0
  -32.0256  -17.0893   20.6836 H   0  0  0  0  0  0
  -31.2263  -17.2815   19.1581 H   0  0  0  0  0  0
  -28.3350  -16.4483   19.5132 H   0  0  0  0  0  0
  -28.1160  -15.9894   21.1795 H   0  0  0  0  0  0
  -29.0870  -21.6537   14.7730 H   0  0  0  0  0  0
  -29.6061  -20.0769   15.3342 H   0  0  0  0  0  0
  -29.9438  -20.0253   18.0487 H   0  0  0  0  0  0
  -28.2903  -22.2918   16.9130 H   0  0  0  0  0  0
  -30.8759  -22.8730   17.6302 H   0  0  0  0  0  0
  -27.8203  -19.2534   16.9384 H   0  0  0  0  0  0
  -26.8110  -20.4377   16.1094 H   0  0  0  0  0  0
  -26.9105  -20.4389   17.8662 H   0  0  0  0  0  0
  -32.3882  -20.2077   17.8766 H   0  0  0  0  0  0
  -32.3139  -21.4715   19.0985 H   0  0  0  0  0  0
  -33.1329  -21.7784   17.5761 H   0  0  0  0  0  0
  -28.2923  -24.8045   23.2105 H   0  0  0  0  0  0
  -28.2192  -26.4767   22.6987 H   0  0  0  0  0  0
  -29.6600  -25.5204   22.3624 H   0  0  0  0  0  0
  -31.3224  -22.5501   14.1117 H   0  0  0  0  0  0
  -32.3179  -23.0964   15.4576 H   0  0  0  0  0  0
  -30.6382  -23.6252   15.3325 H   0  0  0  0  0  0
  -26.9005  -24.9717   21.1956 H   0  0  0  0  0  0
  -31.5172  -20.8501   15.7274 H   0  0  0  0  0  0
  1 25  1  0  0  0
  1 30  2  0  0  0
  1 91  1  0  0  0
  2  3  1  0  0  0
  2 25  1  0  0  0
  2 93  1  0  0  0
  2 94  1  0  0  0
  3  4  1  0  0  0
  3 95  1  0  0  0
  3 96  1  0  0  0
  4  5  1  0  0  0
  4 97  1  0  0  0
  4 98  1  0  0  0
  5  6  1  0  0  0
  5 26  1  0  0  0
  5 99  1  0  0  0
  6 25  1  0  0  0
  6100  1  0  0  0
  6101  1  0  0  0
  7  8  2  0  0  0
  7 26  1  0  0  0
  7 29  1  0  0  0
  8  9  1  0  0  0
  8 22  1  0  0  0
  9 10  1  0  0  0
  9 27  2  0  0  0
 10 11  2  0  0  0
 10 15  1  0  0  0
 11 12  1  0  0  0
 11102  1  0  0  0
 12 13  2  0  0  0
 12103  1  0  0  0
 13 14  1  0  0  0
 13 31  1  0  0  0
 14 15  2  0  0  0
 14104  1  0  0  0
 15105  1  0  0  0
 16 17  2  0  0  0
 16 21  1  0  0  0
 16 31  1  0  0  0
 17 18  1  0  0  0
 17106  1  0  0  0
 18 19  2  0  0  0
 18107  1  0  0  0
 19 20  1  0  0  0
 19 24  1  0  0  0
 20 21  2  0  0  0
 20108  1  0  0  0
 21 23  1  0  0  0
 22 28  1  0  0  0
 22 32  2  0  0  0
 26 27  1  0  0  0
 28109  1  0  0  0
 28110  1  0  0  0
 29111  1  0  0  0
 29112  1  0  0  0
 33 34  1  0  0  0
 33 66  1  0  0  0
 33 70  2  0  0  0
 34 36  1  0  0  0
 34 59  1  0  0  0
 34113  1  0  0  0
 35 44  2  0  0  0
 35 45  1  0  0  0
 35 68  1  0  0  0
 36 56  1  0  0  0
 36114  1  0  0  0
 37 39  1  0  0  0
 37 47  1  0  0  0
 37 66  1  0  0  0
 37115  1  0  0  0
 38 43  2  0  0  0
 38 46  1  0  0  0
 38 47  1  0  0  0
 39 64  1  0  0  0
 39 67  2  0  0  0
 40 52  1  0  0  0
 40 53  2  0  0  0
 40 58  1  0  0  0
 41116  1  0  0  0
 41117  1  0  0  0
 41118  1  0  0  0
 41 48  1  0  0  0
 42 43  1  0  0  0
 42 66  1  0  0  0
 42119  1  0  0  0
 42120  1  0  0  0
 43 44  1  0  0  0
 44121  1  0  0  0
 45 46  2  0  0  0
 45122  1  0  0  0
 46123  1  0  0  0
 47124  1  0  0  0
 47125  1  0  0  0
 48 56  1  0  0  0
 48 65  1  0  0  0
 48126  1  0  0  0
 49 50  1  0  0  0
 49 53  1  0  0  0
 49 64  1  0  0  0
 49127  1  0  0  0
 50 51  1  0  0  0
 50128  1  0  0  0
 50129  1  0  0  0
 51 52  1  0  0  0
 51130  1  0  0  0
 51131  1  0  0  0
 52132  1  0  0  0
 52133  1  0  0  0
 53 54  1  0  0  0
 54 55  2  0  0  0
 54134  1  0  0  0
 55 57  1  0  0  0
 55135  1  0  0  0
 56 69  2  0  0  0
 57 58  2  0  0  0
 57136  1  0  0  0
 58137  1  0  0  0
 59 60  1  0  0  0
 59 61  1  0  0  0
 59 62  1  0  0  0
 60138  1  0  0  0
 60139  1  0  0  0
 60140  1  0  0  0
 61141  1  0  0  0
 61142  1  0  0  0
 61143  1  0  0  0
 62144  1  0  0  0
 62145  1  0  0  0
 62146  1  0  0  0
 63 65  1  0  0  0
 63147  1  0  0  0
 63148  1  0  0  0
 63149  1  0  0  0
 64150  1  0  0  0
 65151  1  0  0  0
 68 88  1  0  0  0
 71 73  2  0  0  0
 71 75  1  0  0  0
 71152  1  0  0  0
 72 74  2  0  0  0
 72 89  1  0  0  0
 72153  1  0  0  0
 73 74  1  0  0  0
 73 81  1  0  0  0
 74 90  1  0  0  0
 75 88  1  0  0  0
 75 89  2  0  0  0
 76 78  1  0  0  0
 76 90  1  0  0  0
 76154  1  0  0  0
 76155  1  0  0  0
 77 79  1  0  0  0
 77 90  1  0  0  0
 77156  1  0  0  0
 77157  1  0  0  0
 78 91  1  0  0  0
 78158  1  0  0  0
 78159  1  0  0  0
 79 91  1  0  0  0
 79160  1  0  0  0
 79161  1  0  0  0
 80 82  1  0  0  0
 80 92  1  0  0  0
 80162  1  0  0  0
 80163  1  0  0  0
 81 82  1  0  0  0
 81 83  1  0  0  0
 81164  1  0  0  0
 82 84  1  0  0  0
 82165  1  0  0  0
 83 85  1  0  0  0
 83 92  1  0  0  0
 83166  1  0  0  0
 84167  1  0  0  0
 84168  1  0  0  0
 84169  1  0  0  0
 85170  1  0  0  0
 85171  1  0  0  0
 85172  1  0  0  0
 86173  1  0  0  0
 86174  1  0  0  0
 86175  1  0  0  0
 86 88  1  0  0  0
 87176  1  0  0  0
 87177  1  0  0  0
 87178  1  0  0  0
 87 92  1  0  0  0
 88179  1  0  0  0
 92180  1  0  0  0
M  CHG  1  92   1
M  ISO  4   1 100  68 101  88 101  91 100
M  END
> <chiral flag>
0

> <version>
0

> <s_m_source_file>
/data/baiqing/PycharmProjects/Reinvent-master-3.2/result/LINK_invent/BTK/process_docking_weight1_custom_sum_contain_oxygen_bond_distance_aromatic_linkinvent_7_9_3/rearranged_h_0168.sdf

> <i_m_source_file_index>
87

> <r_mmod_Potential_Energy-OPLS-2005>
384.625

> <r_mmod_Stretch_Energy-OPLS-2005>
146.948593139648

> <r_mmod_Bend_Energy-OPLS-2005>
271.126281738281

> <r_mmod_Torsional_Energy-OPLS-2005>
431.349212646484

> <r_mmod_Improper_Torsional_Energy-OPLS-2005>
11.2550020217896

> <r_mmod_Van_der_Waal_Energy-OPLS-2005>
139.309585571289

> <r_mmod_Electrostatic_Energy-OPLS-2005>
-292.665710449219

> <r_mmod_Solvation_Energy-OPLS-2005>
-444.020568847656

> <b_mmod_Minimization_Converged-OPLS-2005>
0

> <r_mmod_RMS_Derivative-OPLS-2005>
1.59115958213806

$$$$
88
                    3D
 Structure written by MMmdl.
174184  0  0  1  0            999 V2000
  -30.7112  -14.4471   20.5480 C   0  0  0  0  0  0
  -30.4152  -12.2833   19.4202 C   0  0  0  0  0  0
  -29.4911  -12.4923   18.2034 C   0  0  0  0  0  0
  -28.0127  -12.3594   18.6174 C   0  0  0  0  0  0
  -27.6590  -13.2046   19.8706 C   0  0  2  0  0  0
  -28.7005  -12.9959   20.9923 C   0  0  0  0  0  0
  -25.2588  -13.8149   20.5678 C   0  0  0  0  0  0
  -24.1838  -13.0450   20.9188 C   0  0  0  0  0  0
  -24.6379  -11.6908   20.8739 C   0  0  0  0  0  0
  -23.9037  -10.4296   21.0407 C   0  0  0  0  0  0
  -24.3594   -9.4213   21.9187 C   0  0  0  0  0  0
  -23.6277   -8.2245   22.0762 C   0  0  0  0  0  0
  -22.4258   -8.0279   21.3554 C   0  0  0  0  0  0
  -21.9886   -9.0253   20.4656 C   0  0  0  0  0  0
  -22.7206  -10.2139   20.3061 C   0  0  0  0  0  0
  -21.6856   -6.0720   22.5274 C   0  0  0  0  0  0
  -21.4011   -6.5625   23.8203 C   0  0  0  0  0  0
  -21.3657   -5.6788   24.9173 C   0  0  0  0  0  0
  -21.6054   -4.3051   24.7230 C   0  0  0  0  0  0
  -21.8820   -3.8132   23.4349 C   0  0  0  0  0  0
  -21.9196   -4.6947   22.3401 C   0  0  0  0  0  0
  -22.7857  -13.5260   21.1852 C   0  0  0  0  0  0
  -22.1674   -4.2128   21.0981 F   0  0  0  0  0  0
  -21.5634   -3.4537   25.7745 F   0  0  0  0  0  0
  -30.0309  -13.2770   20.4323 N   0  0  0  0  0  0
  -26.3011  -12.9318   20.3344 N   0  0  0  0  0  0
  -25.9306  -11.6482   20.5759 N   0  0  0  0  0  0
  -22.0486  -12.8258   22.0392 N   0  0  0  0  0  0
  -25.4334  -15.1859   20.4097 N   0  0  0  0  0  0
  -31.8709  -14.5887   20.1448 O   0  0  0  0  0  0
  -21.6651   -6.8860   21.4234 O   0  0  0  0  0  0
  -22.3542  -14.5579   20.6713 O   0  0  0  0  0  0
  -24.6155  -31.8696   23.2114 C   0  0  0  0  0  0
  -25.9069  -32.4824   23.8411 C   0  0  1  0  0  0
  -27.2304  -27.4442   20.1071 C   0  0  0  0  0  0
  -25.5947  -33.8614   24.2369 N   0  0  0  0  0  0
  -23.4009  -30.4932   21.5505 C   0  0  2  0  0  0
  -24.8475  -28.9545   20.1218 C   0  0  0  0  0  0
  -22.7400  -29.4661   22.4969 C   0  0  0  0  0  0
  -18.0260  -28.1372   22.8511 C   0  0  0  0  0  0
  -24.1492  -36.7305   23.2630 C   0  0  0  0  0  0
  -25.9270  -30.8377   21.3634 C   0  0  0  0  0  0
  -26.0041  -29.4688   20.7208 C   0  0  0  0  0  0
  -27.2003  -28.7216   20.7110 C   0  0  0  0  0  0
  -26.0672  -26.9473   19.4866 C   0  0  0  0  0  0
  -24.8716  -27.6901   19.5040 C   0  0  0  0  0  0
  -23.6121  -29.8253   20.1659 C   0  0  0  0  0  0
  -25.4112  -36.3111   24.0340 C   0  0  1  0  0  0
  -20.5856  -28.3666   23.1292 C   0  0  2  0  0  0
  -20.6749  -26.9404   22.5380 C   0  0  0  0  0  0
  -19.5690  -26.6351   21.5220 C   0  0  0  0  0  0
  -18.1890  -26.7909   22.1655 C   0  0  0  0  0  0
  -19.1520  -28.8844   23.2881 C   0  0  0  0  0  0
  -18.9463  -30.1466   23.8861 C   0  0  0  0  0  0
  -17.6471  -30.6604   24.0548 C   0  0  0  0  0  0
  -25.9034  -34.9471   23.5144 C   0  0  0  0  0  0
  -16.5354  -29.9095   23.6362 C   0  0  0  0  0  0
  -16.7258  -28.6503   23.0396 C   0  0  0  0  0  0
  -26.4478  -31.6571   25.0737 C   0  0  0  0  0  0
  -25.3745  -31.3684   26.1486 C   0  0  0  0  0  0
  -27.0271  -30.2990   24.6096 C   0  0  0  0  0  0
  -27.6092  -32.4232   25.7503 C   0  0  0  0  0  0
  -27.5580  -37.1812   24.8465 C   0  0  0  0  0  0
  -21.4123  -29.3043   22.3699 N   0  0  0  0  0  0
  -26.4296  -37.3798   23.9400 N   0  0  0  0  0  0
  -24.6655  -31.0810   22.1006 N   0  0  0  0  0  0
  -23.4172  -28.8181   23.2998 O   0  0  0  0  0  0
  -28.3961  -26.7203   20.0305 O   0  0  0  0  0  0
  -26.5558  -34.8918   22.4688 O   0  0  0  0  0  0
  -23.5354  -32.1442   23.7520 O   0  0  0  0  0  0
  -27.1237  -19.8337   20.3270 C   0  0  0  0  0  0
  -26.8469  -21.7953   21.6936 C   0  0  0  0  0  0
  -26.5030  -21.0899   20.5221 C   0  0  0  0  0  0
  -27.7190  -21.2048   22.5978 C   0  0  0  0  0  0
  -28.0242  -19.3238   21.2969 C   0  0  0  0  0  0
  -27.9200  -22.0505   23.8247 C   0  0  0  0  0  0
  -26.8680  -23.1757   23.6703 C   0  0  0  0  0  0
  -28.7978  -17.5318   19.7798 C   0  0  0  0  0  0
  -28.6775  -17.1247   22.2140 C   0  0  0  0  0  0
  -29.9968  -16.5768   19.7021 C   0  0  0  0  0  0
  -29.8474  -16.1188   22.0930 C   0  0  0  0  0  0
  -26.3261  -23.1305   22.2135 C   0  0  1  0  0  0
  -25.5059  -21.6262   19.5136 C   0  0  0  0  0  0
  -28.6557  -26.5142   22.5175 C   0  0  0  0  0  0
  -28.1739  -24.4295   21.0504 C   0  0  0  0  0  0
  -28.7582  -25.8630   21.1272 C   0  0  2  0  0  0
  -28.3074  -20.0022   22.4341 N   0  0  0  0  0  0
  -28.6962  -18.0973   21.1196 N   0  0  0  0  0  0
  -29.9360  -15.5373   20.7438 N   0  0  0  0  0  0
  -26.7404  -24.3288   21.4297 N   0  3  0  0  0  0
  -31.4625  -12.3678   19.1228 H   0  0  0  0  0  0
  -30.3007  -11.2755   19.8206 H   0  0  0  0  0  0
  -29.7259  -11.7666   17.4237 H   0  0  0  0  0  0
  -29.6628  -13.4763   17.7643 H   0  0  0  0  0  0
  -27.8205  -11.3048   18.8172 H   0  0  0  0  0  0
  -27.3642  -12.6348   17.7850 H   0  0  0  0  0  0
  -27.7012  -14.2499   19.5675 H   0  0  0  0  0  0
  -28.6673  -11.9695   21.3596 H   0  0  0  0  0  0
  -28.4703  -13.6270   21.8509 H   0  0  0  0  0  0
  -25.2742   -9.5702   22.4754 H   0  0  0  0  0  0
  -23.9989   -7.4641   22.7483 H   0  0  0  0  0  0
  -21.0814   -8.8768   19.8964 H   0  0  0  0  0  0
  -22.3656  -10.9680   19.6167 H   0  0  0  0  0  0
  -21.1997   -7.6132   23.9699 H   0  0  0  0  0  0
  -21.1485   -6.0521   25.9074 H   0  0  0  0  0  0
  -22.0599   -2.7589   23.2862 H   0  0  0  0  0  0
  -22.4102  -11.9916   22.4779 H   0  0  0  0  0  0
  -21.1115  -13.1305   22.2617 H   0  0  0  0  0  0
  -24.6701  -15.8442   20.5203 H   0  0  0  0  0  0
  -26.2929  -15.6171   20.0978 H   0  0  0  0  0  0
  -26.7153  -32.5529   23.1188 H   0  0  0  0  0  0
  -25.0197  -33.9788   25.0580 H   0  0  0  0  0  0
  -22.6879  -31.3085   21.4096 H   0  0  0  0  0  0
  -23.3760  -35.9629   23.3311 H   0  0  0  0  0  0
  -24.3590  -36.8889   22.2036 H   0  0  0  0  0  0
  -23.7239  -37.6524   23.6618 H   0  0  0  0  0  0
  -26.0345  -31.5987   20.5891 H   0  0  0  0  0  0
  -26.8175  -30.8971   21.9762 H   0  0  0  0  0  0
  -28.0992  -29.1251   21.1566 H   0  0  0  0  0  0
  -26.0917  -25.9982   18.9719 H   0  0  0  0  0  0
  -23.9846  -27.2957   19.0248 H   0  0  0  0  0  0
  -23.7272  -30.5996   19.4065 H   0  0  0  0  0  0
  -22.7343  -29.2509   19.8659 H   0  0  0  0  0  0
  -25.1286  -36.1986   25.0827 H   0  0  0  0  0  0
  -20.9941  -28.3213   24.1412 H   0  0  0  0  0  0
  -20.5717  -26.2286   23.3578 H   0  0  0  0  0  0
  -21.6591  -26.7453   22.1104 H   0  0  0  0  0  0
  -19.6833  -25.6246   21.1279 H   0  0  0  0  0  0
  -19.6602  -27.3139   20.6730 H   0  0  0  0  0  0
  -17.4113  -26.6645   21.4104 H   0  0  0  0  0  0
  -18.0305  -26.0074   22.9073 H   0  0  0  0  0  0
  -19.7952  -30.7293   24.2178 H   0  0  0  0  0  0
  -17.5043  -31.6290   24.5135 H   0  0  0  0  0  0
  -15.5366  -30.2997   23.7732 H   0  0  0  0  0  0
  -15.8640  -28.0840   22.7137 H   0  0  0  0  0  0
  -24.5858  -30.7117   25.7777 H   0  0  0  0  0  0
  -24.8995  -32.2851   26.4999 H   0  0  0  0  0  0
  -25.8073  -30.8732   27.0183 H   0  0  0  0  0  0
  -26.2748  -29.6729   24.1256 H   0  0  0  0  0  0
  -27.4174  -29.7240   25.4513 H   0  0  0  0  0  0
  -27.8552  -30.4288   23.9120 H   0  0  0  0  0  0
  -27.2787  -33.3563   26.2056 H   0  0  0  0  0  0
  -28.3977  -32.6678   25.0372 H   0  0  0  0  0  0
  -28.0671  -31.8332   26.5445 H   0  0  0  0  0  0
  -28.2615  -38.0095   24.7506 H   0  0  0  0  0  0
  -28.1055  -36.2630   24.6295 H   0  0  0  0  0  0
  -27.2295  -37.1464   25.8867 H   0  0  0  0  0  0
  -20.9269  -29.8778   21.6936 H   0  0  0  0  0  0
  -26.0192  -38.2886   24.1397 H   0  0  0  0  0  0
  -26.8849  -19.2680   19.4362 H   0  0  0  0  0  0
  -28.9340  -22.4541   23.8234 H   0  0  0  0  0  0
  -27.7776  -21.4746   24.7392 H   0  0  0  0  0  0
  -27.2443  -24.1487   23.9828 H   0  0  0  0  0  0
  -26.0383  -22.9417   24.3386 H   0  0  0  0  0  0
  -27.8728  -17.0086   19.5335 H   0  0  0  0  0  0
  -28.9252  -18.3224   19.0386 H   0  0  0  0  0  0
  -28.7223  -17.6207   23.1845 H   0  0  0  0  0  0
  -27.7244  -16.5945   22.1855 H   0  0  0  0  0  0
  -30.9277  -17.1370   19.7990 H   0  0  0  0  0  0
  -30.0127  -16.1198   18.7102 H   0  0  0  0  0  0
  -29.7324  -15.3376   22.8458 H   0  0  0  0  0  0
  -30.7866  -16.6251   22.3201 H   0  0  0  0  0  0
  -25.2353  -23.1015   22.2350 H   0  0  0  0  0  0
  -25.1891  -20.8428   18.8247 H   0  0  0  0  0  0
  -25.9487  -22.4284   18.9240 H   0  0  0  0  0  0
  -24.6118  -22.0050   20.0084 H   0  0  0  0  0  0
  -27.6287  -26.7361   22.8016 H   0  0  0  0  0  0
  -29.2215  -27.4455   22.5493 H   0  0  0  0  0  0
  -29.0775  -25.8601   23.2813 H   0  0  0  0  0  0
  -28.7716  -23.8032   21.7125 H   0  0  0  0  0  0
  -28.3111  -24.0149   20.0498 H   0  0  0  0  0  0
  -29.8286  -25.7240   20.9669 H   0  0  0  0  0  0
  -26.4844  -25.1439   21.9657 H   0  0  0  0  0  0
  -26.1880  -24.3618   20.5883 H   0  0  0  0  0  0
  1 25  1  0  0  0
  1 30  2  0  0  0
  1 89  1  0  0  0
  2  3  1  0  0  0
  2 25  1  0  0  0
  2 91  1  0  0  0
  2 92  1  0  0  0
  3  4  1  0  0  0
  3 93  1  0  0  0
  3 94  1  0  0  0
  4  5  1  0  0  0
  4 95  1  0  0  0
  4 96  1  0  0  0
  5  6  1  0  0  0
  5 26  1  0  0  0
  5 97  1  0  0  0
  6 25  1  0  0  0
  6 98  1  0  0  0
  6 99  1  0  0  0
  7  8  2  0  0  0
  7 26  1  0  0  0
  7 29  1  0  0  0
  8  9  1  0  0  0
  8 22  1  0  0  0
  9 10  1  0  0  0
  9 27  2  0  0  0
 10 11  2  0  0  0
 10 15  1  0  0  0
 11 12  1  0  0  0
 11100  1  0  0  0
 12 13  2  0  0  0
 12101  1  0  0  0
 13 14  1  0  0  0
 13 31  1  0  0  0
 14 15  2  0  0  0
 14102  1  0  0  0
 15103  1  0  0  0
 16 17  2  0  0  0
 16 21  1  0  0  0
 16 31  1  0  0  0
 17 18  1  0  0  0
 17104  1  0  0  0
 18 19  2  0  0  0
 18105  1  0  0  0
 19 20  1  0  0  0
 19 24  1  0  0  0
 20 21  2  0  0  0
 20106  1  0  0  0
 21 23  1  0  0  0
 22 28  1  0  0  0
 22 32  2  0  0  0
 26 27  1  0  0  0
 28107  1  0  0  0
 28108  1  0  0  0
 29109  1  0  0  0
 29110  1  0  0  0
 33 34  1  0  0  0
 33 66  1  0  0  0
 33 70  2  0  0  0
 34 36  1  0  0  0
 34 59  1  0  0  0
 34111  1  0  0  0
 35 44  2  0  0  0
 35 45  1  0  0  0
 35 68  1  0  0  0
 36 56  1  0  0  0
 36112  1  0  0  0
 37 39  1  0  0  0
 37 47  1  0  0  0
 37 66  1  0  0  0
 37113  1  0  0  0
 38 43  2  0  0  0
 38 46  1  0  0  0
 38 47  1  0  0  0
 39 64  1  0  0  0
 39 67  2  0  0  0
 40 52  1  0  0  0
 40 53  2  0  0  0
 40 58  1  0  0  0
 41114  1  0  0  0
 41115  1  0  0  0
 41116  1  0  0  0
 41 48  1  0  0  0
 42 43  1  0  0  0
 42 66  1  0  0  0
 42117  1  0  0  0
 42118  1  0  0  0
 43 44  1  0  0  0
 44119  1  0  0  0
 45 46  2  0  0  0
 45120  1  0  0  0
 46121  1  0  0  0
 47122  1  0  0  0
 47123  1  0  0  0
 48 56  1  0  0  0
 48 65  1  0  0  0
 48124  1  0  0  0
 49 50  1  0  0  0
 49 53  1  0  0  0
 49 64  1  0  0  0
 49125  1  0  0  0
 50 51  1  0  0  0
 50126  1  0  0  0
 50127  1  0  0  0
 51 52  1  0  0  0
 51128  1  0  0  0
 51129  1  0  0  0
 52130  1  0  0  0
 52131  1  0  0  0
 53 54  1  0  0  0
 54 55  2  0  0  0
 54132  1  0  0  0
 55 57  1  0  0  0
 55133  1  0  0  0
 56 69  2  0  0  0
 57 58  2  0  0  0
 57134  1  0  0  0
 58135  1  0  0  0
 59 60  1  0  0  0
 59 61  1  0  0  0
 59 62  1  0  0  0
 60136  1  0  0  0
 60137  1  0  0  0
 60138  1  0  0  0
 61139  1  0  0  0
 61140  1  0  0  0
 61141  1  0  0  0
 62142  1  0  0  0
 62143  1  0  0  0
 62144  1  0  0  0
 63 65  1  0  0  0
 63145  1  0  0  0
 63146  1  0  0  0
 63147  1  0  0  0
 64148  1  0  0  0
 65149  1  0  0  0
 68 86  1  0  0  0
 71 73  2  0  0  0
 71 75  1  0  0  0
 71150  1  0  0  0
 72 73  1  0  0  0
 72 74  2  0  0  0
 72 82  1  0  0  0
 73 83  1  0  0  0
 74 76  1  0  0  0
 74 87  1  0  0  0
 75 87  2  0  0  0
 75 88  1  0  0  0
 76 77  1  0  0  0
 76151  1  0  0  0
 76152  1  0  0  0
 77 82  1  0  0  0
 77153  1  0  0  0
 77154  1  0  0  0
 78 80  1  0  0  0
 78 88  1  0  0  0
 78155  1  0  0  0
 78156  1  0  0  0
 79 81  1  0  0  0
 79 88  1  0  0  0
 79157  1  0  0  0
 79158  1  0  0  0
 80 89  1  0  0  0
 80159  1  0  0  0
 80160  1  0  0  0
 81 89  1  0  0  0
 81161  1  0  0  0
 81162  1  0  0  0
 82 90  1  0  0  0
 82163  1  0  0  0
 83164  1  0  0  0
 83165  1  0  0  0
 83166  1  0  0  0
 84167  1  0  0  0
 84168  1  0  0  0
 84169  1  0  0  0
 84 86  1  0  0  0
 85 86  1  0  0  0
 85 90  1  0  0  0
 85170  1  0  0  0
 85171  1  0  0  0
 86172  1  0  0  0
 90173  1  0  0  0
 90174  1  0  0  0
M  CHG  1  90   1
M  ISO  4   1 100  68 101  86 101  89 100
M  END
> <chiral flag>
0

> <version>
0

> <s_m_source_file>
/data/baiqing/PycharmProjects/Reinvent-master-3.2/result/LINK_invent/BTK/process_docking_weight1_custom_sum_contain_oxygen_bond_distance_aromatic_linkinvent_7_9_3/rearranged_h_0168.sdf

> <i_m_source_file_index>
88

> <r_mmod_Potential_Energy-OPLS-2005>
-134.863784790039

> <r_mmod_Stretch_Energy-OPLS-2005>
38.7551193237305

> <r_mmod_Bend_Energy-OPLS-2005>
161.843612670898

> <r_mmod_Torsional_Energy-OPLS-2005>
396.736663818359

> <r_mmod_Improper_Torsional_Energy-OPLS-2005>
17.2386302947998

> <r_mmod_Van_der_Waal_Energy-OPLS-2005>
145.484786987305

> <r_mmod_Electrostatic_Energy-OPLS-2005>
-468.1083984375

> <r_mmod_Solvation_Energy-OPLS-2005>
-439.297393798828

> <b_mmod_Minimization_Converged-OPLS-2005>
0

> <r_mmod_RMS_Derivative-OPLS-2005>
2.5149872303009

$$$$
89
                    3D
 Structure written by MMmdl.
160169  0  0  1  0            999 V2000
  -30.4652  -15.1664   20.3804 C   0  0  0  0  0  0
  -30.4381  -12.7292   19.5521 C   0  0  0  0  0  0
  -29.5375  -12.5715   18.3026 C   0  0  0  0  0  0
  -28.0822  -12.3063   18.7227 C   0  0  0  0  0  0
  -27.6217  -13.2726   19.8424 C   0  0  2  0  0  0
  -28.6468  -13.4116   20.9882 C   0  0  0  0  0  0
  -25.2398  -13.8274   20.5775 C   0  0  0  0  0  0
  -24.1725  -13.0466   20.9248 C   0  0  0  0  0  0
  -24.6385  -11.6964   20.8758 C   0  0  0  0  0  0
  -23.9117  -10.4313   21.0442 C   0  0  0  0  0  0
  -24.3641   -9.4205   21.9207 C   0  0  0  0  0  0
  -23.6296   -8.2253   22.0752 C   0  0  0  0  0  0
  -22.4280   -8.0302   21.3554 C   0  0  0  0  0  0
  -21.9949   -9.0280   20.4656 C   0  0  0  0  0  0
  -22.7299  -10.2152   20.3085 C   0  0  0  0  0  0
  -21.6870   -6.0744   22.5274 C   0  0  0  0  0  0
  -21.4013   -6.5636   23.8198 C   0  0  0  0  0  0
  -21.3649   -5.6792   24.9160 C   0  0  0  0  0  0
  -21.6047   -4.3054   24.7227 C   0  0  0  0  0  0
  -21.8810   -3.8148   23.4348 C   0  0  0  0  0  0
  -21.9159   -4.6964   22.3388 C   0  0  0  0  0  0
  -22.7741  -13.5194   21.1869 C   0  0  0  0  0  0
  -22.1638   -4.2149   21.0977 F   0  0  0  0  0  0
  -21.5624   -3.4530   25.7738 F   0  0  0  0  0  0
  -29.9089  -13.8670   20.3870 N   0  0  0  0  0  0
  -26.2849  -12.9539   20.3298 N   0  0  0  0  0  0
  -25.9337  -11.6647   20.5794 N   0  0  0  0  0  0
  -22.0431  -12.8190   22.0475 N   0  0  0  0  0  0
  -25.4035  -15.2016   20.4175 N   0  0  0  0  0  0
  -31.6531  -15.1929   20.0279 O   0  0  0  0  0  0
  -21.6622   -6.8910   21.4258 O   0  0  0  0  0  0
  -22.3409  -14.5491   20.6714 O   0  0  0  0  0  0
  -24.6646  -31.8241   23.1738 C   0  0  0  0  0  0
  -25.9335  -32.4563   23.8188 C   0  0  1  0  0  0
  -27.1845  -26.9242   20.1730 C   0  0  0  0  0  0
  -25.6027  -33.8369   24.2062 N   0  0  0  0  0  0
  -23.4770  -30.4430   21.5209 C   0  0  2  0  0  0
  -24.9224  -28.8386   20.1073 C   0  0  0  0  0  0
  -22.7703  -29.4436   22.4750 C   0  0  0  0  0  0
  -18.0342  -28.1392   22.8415 C   0  0  0  0  0  0
  -24.1502  -36.7211   23.2656 C   0  0  0  0  0  0
  -26.0475  -30.6311   21.4018 C   0  0  0  0  0  0
  -26.1094  -29.2222   20.7430 C   0  0  0  0  0  0
  -27.2388  -28.2818   20.7546 C   0  0  0  0  0  0
  -25.9666  -26.6943   19.4929 C   0  0  0  0  0  0
  -24.8737  -27.5927   19.4715 C   0  0  0  0  0  0
  -23.7186  -29.7770   20.1373 C   0  0  0  0  0  0
  -25.4103  -36.2927   24.0321 C   0  0  1  0  0  0
  -20.5971  -28.3717   23.1157 C   0  0  2  0  0  0
  -20.6803  -26.9399   22.5377 C   0  0  0  0  0  0
  -19.5773  -26.6359   21.5194 C   0  0  0  0  0  0
  -18.1950  -26.7909   22.1603 C   0  0  0  0  0  0
  -19.1630  -28.8875   23.2741 C   0  0  0  0  0  0
  -18.9549  -30.1452   23.8776 C   0  0  0  0  0  0
  -17.6555  -30.6555   24.0546 C   0  0  0  0  0  0
  -25.9082  -34.9331   23.5005 C   0  0  0  0  0  0
  -16.5425  -29.9064   23.6342 C   0  0  0  0  0  0
  -16.7329  -28.6520   23.0279 C   0  0  0  0  0  0
  -26.4574  -31.6509   25.0718 C   0  0  0  0  0  0
  -25.3714  -31.3786   26.1383 C   0  0  0  0  0  0
  -27.0476  -30.2893   24.6428 C   0  0  0  0  0  0
  -27.6050  -32.4341   25.7491 C   0  0  0  0  0  0
  -27.5522  -37.1717   24.8459 C   0  0  0  0  0  0
  -21.4377  -29.3042   22.3536 N   0  0  0  0  0  0
  -26.4221  -37.3662   23.9449 N   0  0  0  0  0  0
  -24.7519  -30.9900   22.0892 N   0  0  0  0  0  0
  -23.4245  -28.7980   23.2966 O   0  0  0  0  0  0
  -28.1625  -25.7964   20.2248 O   0  0  0  0  0  0
  -26.5677  -34.8867   22.4587 O   0  0  0  0  0  0
  -23.5733  -32.1295   23.6830 O   0  0  0  0  0  0
  -30.1160  -20.6581   20.7963 C   0  0  0  0  0  0
  -29.6768  -22.0873   20.7806 C   0  0  0  0  0  0
  -27.7183  -21.4465   19.7071 C   0  0  0  0  0  0
  -29.3573  -19.5152   20.2983 C   0  0  0  0  0  0
  -28.1588  -20.0314   19.7477 C   0  0  0  0  0  0
  -28.4394  -22.6243   20.2145 C   0  0  0  0  0  0
  -27.4762  -18.8252   19.1285 C   0  0  0  0  0  0
  -29.7146  -17.8949   19.8547 C   0  0  2  0  0  0
  -28.6133  -17.7992   18.7118 C   0  0  2  0  0  0
  -30.1895  -17.1118   16.9074 C   0  0  0  0  0  0
  -28.1672  -18.3063   16.2909 C   0  0  0  0  0  0
  -27.7142  -24.2177   20.2054 C   0  0  0  0  0  0
  -29.7043  -16.4109   20.5610 N   0  0  0  0  0  0
  -29.1878  -18.1150   17.3584 N   0  3  0  0  0  0
  -31.4701  -12.8984   19.2353 H   0  0  0  0  0  0
  -30.4519  -11.8074   20.1360 H   0  0  0  0  0  0
  -29.9071  -11.7675   17.6634 H   0  0  0  0  0  0
  -29.5813  -13.4859   17.7084 H   0  0  0  0  0  0
  -28.0292  -11.2812   19.0891 H   0  0  0  0  0  0
  -27.4128  -12.3525   17.8621 H   0  0  0  0  0  0
  -27.5591  -14.2488   19.3637 H   0  0  0  0  0  0
  -28.7717  -12.4797   21.5367 H   0  0  0  0  0  0
  -28.2939  -14.1492   21.7113 H   0  0  0  0  0  0
  -25.2784   -9.5627   22.4783 H   0  0  0  0  0  0
  -23.9949   -7.4645   22.7490 H   0  0  0  0  0  0
  -21.0849   -8.8844   19.8994 H   0  0  0  0  0  0
  -22.3762  -10.9696   19.6179 H   0  0  0  0  0  0
  -21.2031   -7.6144   23.9722 H   0  0  0  0  0  0
  -21.1490   -6.0514   25.9071 H   0  0  0  0  0  0
  -22.0597   -2.7616   23.2845 H   0  0  0  0  0  0
  -22.3958  -11.9781   22.4797 H   0  0  0  0  0  0
  -21.1105  -13.1270   22.2790 H   0  0  0  0  0  0
  -24.6303  -15.8519   20.5202 H   0  0  0  0  0  0
  -26.2605  -15.6553   20.1358 H   0  0  0  0  0  0
  -26.7389  -32.5049   23.0893 H   0  0  0  0  0  0
  -25.0134  -33.9417   25.0190 H   0  0  0  0  0  0
  -22.7914  -31.2779   21.3555 H   0  0  0  0  0  0
  -23.3736  -35.9559   23.3305 H   0  0  0  0  0  0
  -24.3653  -36.8904   22.2079 H   0  0  0  0  0  0
  -23.7302  -37.6420   23.6743 H   0  0  0  0  0  0
  -26.2086  -31.3787   20.6241 H   0  0  0  0  0  0
  -26.9156  -30.6898   22.0477 H   0  0  0  0  0  0
  -28.1407  -28.5570   21.2788 H   0  0  0  0  0  0
  -25.7997  -25.7536   18.9928 H   0  0  0  0  0  0
  -23.9686  -27.2915   18.9628 H   0  0  0  0  0  0
  -23.8945  -30.5608   19.3982 H   0  0  0  0  0  0
  -22.8263  -29.2568   19.7871 H   0  0  0  0  0  0
  -25.1284  -36.1714   25.0804 H   0  0  0  0  0  0
  -20.9976  -28.3304   24.1319 H   0  0  0  0  0  0
  -20.5694  -26.2335   23.3609 H   0  0  0  0  0  0
  -21.6644  -26.7366   22.1189 H   0  0  0  0  0  0
  -19.6942  -25.6268   21.1249 H   0  0  0  0  0  0
  -19.6731  -27.3116   20.6681 H   0  0  0  0  0  0
  -17.4208  -26.6644   21.4004 H   0  0  0  0  0  0
  -18.0333  -26.0070   22.9035 H   0  0  0  0  0  0
  -19.8049  -30.7268   24.2090 H   0  0  0  0  0  0
  -17.5133  -31.6240   24.5162 H   0  0  0  0  0  0
  -15.5397  -30.2925   23.7752 H   0  0  0  0  0  0
  -15.8736  -28.0842   22.6948 H   0  0  0  0  0  0
  -24.5884  -30.7141   25.7720 H   0  0  0  0  0  0
  -24.8913  -32.3004   26.4657 H   0  0  0  0  0  0
  -25.7948  -30.9072   27.0255 H   0  0  0  0  0  0
  -26.3135  -29.6568   24.1417 H   0  0  0  0  0  0
  -27.4040  -29.7247   25.5052 H   0  0  0  0  0  0
  -27.9082  -30.4143   23.9847 H   0  0  0  0  0  0
  -27.2603  -33.3722   26.1837 H   0  0  0  0  0  0
  -28.3917  -32.6766   25.0337 H   0  0  0  0  0  0
  -28.0632  -31.8642   26.5581 H   0  0  0  0  0  0
  -28.2418  -38.0086   24.7456 H   0  0  0  0  0  0
  -28.1129  -36.2616   24.6310 H   0  0  0  0  0  0
  -27.2298  -37.1355   25.8868 H   0  0  0  0  0  0
  -20.9617  -29.8932   21.6849 H   0  0  0  0  0  0
  -26.0101  -38.2717   24.1517 H   0  0  0  0  0  0
  -31.1116  -20.4559   21.1738 H   0  0  0  0  0  0
  -30.3541  -22.8103   21.2204 H   0  0  0  0  0  0
  -26.7603  -21.6335   19.2437 H   0  0  0  0  0  0
  -26.7420  -19.0706   18.3633 H   0  0  0  0  0  0
  -26.8968  -18.3579   19.9287 H   0  0  0  0  0  0
  -30.7255  -17.9614   19.4573 H   0  0  0  0  0  0
  -28.1692  -16.8022   18.6432 H   0  0  0  0  0  0
  -31.1147  -17.1508   17.4789 H   0  0  0  0  0  0
  -30.4723  -17.2625   15.8636 H   0  0  0  0  0  0
  -29.7945  -16.0990   16.9873 H   0  0  0  0  0  0
  -27.5784  -19.2108   16.4283 H   0  0  0  0  0  0
  -27.4894  -17.4536   16.2403 H   0  0  0  0  0  0
  -28.6249  -18.4084   15.3057 H   0  0  0  0  0  0
  -27.0190  -24.1564   21.0419 H   0  0  0  0  0  0
  -27.0752  -24.1270   19.3303 H   0  0  0  0  0  0
  -28.8277  -16.2418   21.0354 H   0  0  0  0  0  0
  -29.6774  -18.9930   17.4423 H   0  0  0  0  0  0
  1 25  1  0  0  0
  1 30  2  0  0  0
  1 83  1  0  0  0
  2  3  1  0  0  0
  2 25  1  0  0  0
  2 85  1  0  0  0
  2 86  1  0  0  0
  3  4  1  0  0  0
  3 87  1  0  0  0
  3 88  1  0  0  0
  4  5  1  0  0  0
  4 89  1  0  0  0
  4 90  1  0  0  0
  5  6  1  0  0  0
  5 26  1  0  0  0
  5 91  1  0  0  0
  6 25  1  0  0  0
  6 92  1  0  0  0
  6 93  1  0  0  0
  7  8  2  0  0  0
  7 26  1  0  0  0
  7 29  1  0  0  0
  8  9  1  0  0  0
  8 22  1  0  0  0
  9 10  1  0  0  0
  9 27  2  0  0  0
 10 11  2  0  0  0
 10 15  1  0  0  0
 11 12  1  0  0  0
 11 94  1  0  0  0
 12 13  2  0  0  0
 12 95  1  0  0  0
 13 14  1  0  0  0
 13 31  1  0  0  0
 14 15  2  0  0  0
 14 96  1  0  0  0
 15 97  1  0  0  0
 16 17  2  0  0  0
 16 21  1  0  0  0
 16 31  1  0  0  0
 17 18  1  0  0  0
 17 98  1  0  0  0
 18 19  2  0  0  0
 18 99  1  0  0  0
 19 20  1  0  0  0
 19 24  1  0  0  0
 20 21  2  0  0  0
 20100  1  0  0  0
 21 23  1  0  0  0
 22 28  1  0  0  0
 22 32  2  0  0  0
 26 27  1  0  0  0
 28101  1  0  0  0
 28102  1  0  0  0
 29103  1  0  0  0
 29104  1  0  0  0
 33 34  1  0  0  0
 33 66  1  0  0  0
 33 70  2  0  0  0
 34 36  1  0  0  0
 34 59  1  0  0  0
 34105  1  0  0  0
 35 44  2  0  0  0
 35 45  1  0  0  0
 35 68  1  0  0  0
 36 56  1  0  0  0
 36106  1  0  0  0
 37 39  1  0  0  0
 37 47  1  0  0  0
 37 66  1  0  0  0
 37107  1  0  0  0
 38 43  2  0  0  0
 38 46  1  0  0  0
 38 47  1  0  0  0
 39 64  1  0  0  0
 39 67  2  0  0  0
 40 52  1  0  0  0
 40 53  2  0  0  0
 40 58  1  0  0  0
 41108  1  0  0  0
 41109  1  0  0  0
 41110  1  0  0  0
 41 48  1  0  0  0
 42 43  1  0  0  0
 42 66  1  0  0  0
 42111  1  0  0  0
 42112  1  0  0  0
 43 44  1  0  0  0
 44113  1  0  0  0
 45 46  2  0  0  0
 45114  1  0  0  0
 46115  1  0  0  0
 47116  1  0  0  0
 47117  1  0  0  0
 48 56  1  0  0  0
 48 65  1  0  0  0
 48118  1  0  0  0
 49 50  1  0  0  0
 49 53  1  0  0  0
 49 64  1  0  0  0
 49119  1  0  0  0
 50 51  1  0  0  0
 50120  1  0  0  0
 50121  1  0  0  0
 51 52  1  0  0  0
 51122  1  0  0  0
 51123  1  0  0  0
 52124  1  0  0  0
 52125  1  0  0  0
 53 54  1  0  0  0
 54 55  2  0  0  0
 54126  1  0  0  0
 55 57  1  0  0  0
 55127  1  0  0  0
 56 69  2  0  0  0
 57 58  2  0  0  0
 57128  1  0  0  0
 58129  1  0  0  0
 59 60  1  0  0  0
 59 61  1  0  0  0
 59 62  1  0  0  0
 60130  1  0  0  0
 60131  1  0  0  0
 60132  1  0  0  0
 61133  1  0  0  0
 61134  1  0  0  0
 61135  1  0  0  0
 62136  1  0  0  0
 62137  1  0  0  0
 62138  1  0  0  0
 63 65  1  0  0  0
 63139  1  0  0  0
 63140  1  0  0  0
 63141  1  0  0  0
 64142  1  0  0  0
 65143  1  0  0  0
 68 82  1  0  0  0
 71 72  2  0  0  0
 71 74  1  0  0  0
 71144  1  0  0  0
 72 76  1  0  0  0
 72145  1  0  0  0
 73 75  1  0  0  0
 73 76  2  0  0  0
 73146  1  0  0  0
 74 75  2  0  0  0
 74 78  1  0  0  0
 75 77  1  0  0  0
 76 82  1  0  0  0
 77147  1  0  0  0
 77148  1  0  0  0
 77 79  1  0  0  0
 78 79  1  0  0  0
 78 83  1  0  0  0
 78149  1  0  0  0
 79 84  1  0  0  0
 79150  1  0  0  0
 80151  1  0  0  0
 80152  1  0  0  0
 80153  1  0  0  0
 80 84  1  0  0  0
 81 84  1  0  0  0
 81154  1  0  0  0
 81155  1  0  0  0
 81156  1  0  0  0
 82157  1  0  0  0
 82158  1  0  0  0
 83159  1  0  0  0
 84160  1  0  0  0
M  CHG  1  84   1
M  ISO  4   1 100  68 101  82 101  83 100
M  END
> <chiral flag>
0

> <version>
0

> <s_m_source_file>
/data/baiqing/PycharmProjects/Reinvent-master-3.2/result/LINK_invent/BTK/process_docking_weight1_custom_sum_contain_oxygen_bond_distance_aromatic_linkinvent_7_9_3/rearranged_h_0168.sdf

> <i_m_source_file_index>
89

> <r_mmod_Potential_Energy-OPLS-2005>
1043.38525390625

> <r_mmod_Stretch_Energy-OPLS-2005>
469.011932373047

> <r_mmod_Bend_Energy-OPLS-2005>
498.012420654297

> <r_mmod_Torsional_Energy-OPLS-2005>
300.956573486328

> <r_mmod_Improper_Torsional_Energy-OPLS-2005>
10.2942819595337

> <r_mmod_Van_der_Waal_Energy-OPLS-2005>
129.045227050781

> <r_mmod_Electrostatic_Energy-OPLS-2005>
-306.956024169922

> <r_mmod_Solvation_Energy-OPLS-2005>
-467.070648193359

> <b_mmod_Minimization_Converged-OPLS-2005>
0

> <r_mmod_RMS_Derivative-OPLS-2005>
6.704833984375

$$$$
90
                    3D
 Structure written by MMmdl.
164174  0  0  1  0            999 V2000
  -30.6660  -14.6935   20.4230 C   0  0  0  0  0  0
  -30.4285  -12.4215   19.4483 C   0  0  0  0  0  0
  -29.5018  -12.4802   18.2179 C   0  0  0  0  0  0
  -28.0310  -12.3191   18.6474 C   0  0  0  0  0  0
  -27.6443  -13.2251   19.8487 C   0  0  2  0  0  0
  -28.6995  -13.1771   20.9727 C   0  0  0  0  0  0
  -25.2562  -13.8183   20.5721 C   0  0  0  0  0  0
  -24.1832  -13.0447   20.9184 C   0  0  0  0  0  0
  -24.6412  -11.6913   20.8744 C   0  0  0  0  0  0
  -23.9087  -10.4312   21.0438 C   0  0  0  0  0  0
  -24.3635   -9.4232   21.9223 C   0  0  0  0  0  0
  -23.6322   -8.2270   22.0782 C   0  0  0  0  0  0
  -22.4296   -8.0311   21.3584 C   0  0  0  0  0  0
  -21.9940   -9.0260   20.4669 C   0  0  0  0  0  0
  -22.7264  -10.2142   20.3083 C   0  0  0  0  0  0
  -21.6836   -6.0746   22.5287 C   0  0  0  0  0  0
  -21.3997   -6.5651   23.8217 C   0  0  0  0  0  0
  -21.3665   -5.6816   24.9187 C   0  0  0  0  0  0
  -21.6058   -4.3072   24.7242 C   0  0  0  0  0  0
  -21.8831   -3.8146   23.4362 C   0  0  0  0  0  0
  -21.9197   -4.6973   22.3413 C   0  0  0  0  0  0
  -22.7879  -13.5262   21.1834 C   0  0  0  0  0  0
  -22.1663   -4.2165   21.0993 F   0  0  0  0  0  0
  -21.5650   -3.4548   25.7747 F   0  0  0  0  0  0
  -29.9960  -13.4979   20.3658 N   0  0  0  0  0  0
  -26.2972  -12.9384   20.3336 N   0  0  0  0  0  0
  -25.9351  -11.6527   20.5787 N   0  0  0  0  0  0
  -22.0495  -12.8235   22.0356 N   0  0  0  0  0  0
  -25.4335  -15.1899   20.4160 N   0  0  0  0  0  0
  -31.8782  -14.7250   20.1802 O   0  0  0  0  0  0
  -21.6666   -6.8892   21.4250 O   0  0  0  0  0  0
  -22.3602  -14.5571   20.6681 O   0  0  0  0  0  0
  -24.6402  -31.8577   23.2018 C   0  0  0  0  0  0
  -25.9243  -32.4777   23.8374 C   0  0  1  0  0  0
  -27.1669  -27.2369   20.0871 C   0  0  0  0  0  0
  -25.6094  -33.8585   24.2351 N   0  0  0  0  0  0
  -23.4332  -30.4969   21.5478 C   0  0  2  0  0  0
  -24.8600  -28.9562   20.1072 C   0  0  0  0  0  0
  -22.7547  -29.4675   22.4878 C   0  0  0  0  0  0
  -18.0305  -28.1397   22.8495 C   0  0  0  0  0  0
  -24.1463  -36.7264   23.2622 C   0  0  0  0  0  0
  -25.9891  -30.7604   21.3824 C   0  0  0  0  0  0
  -26.0455  -29.3866   20.7153 C   0  0  0  0  0  0
  -27.2059  -28.5370   20.7000 C   0  0  0  0  0  0
  -25.9451  -26.9106   19.4370 C   0  0  0  0  0  0
  -24.8149  -27.7253   19.4582 C   0  0  0  0  0  0
  -23.6455  -29.8538   20.1578 C   0  0  0  0  0  0
  -25.4091  -36.3068   24.0326 C   0  0  1  0  0  0
  -20.5920  -28.3747   23.1208 C   0  0  2  0  0  0
  -20.6783  -26.9446   22.5371 C   0  0  0  0  0  0
  -19.5762  -26.6397   21.5174 C   0  0  0  0  0  0
  -18.1958  -26.7970   22.1595 C   0  0  0  0  0  0
  -19.1562  -28.8870   23.2862 C   0  0  0  0  0  0
  -18.9490  -30.1472   23.8870 C   0  0  0  0  0  0
  -17.6488  -30.6586   24.0553 C   0  0  0  0  0  0
  -25.9087  -34.9457   23.5133 C   0  0  0  0  0  0
  -16.5370  -29.9109   23.6300 C   0  0  0  0  0  0
  -16.7300  -28.6512   23.0346 C   0  0  0  0  0  0
  -26.4570  -31.6565   25.0784 C   0  0  0  0  0  0
  -25.3765  -31.3731   26.1456 C   0  0  0  0  0  0
  -27.0380  -30.2971   24.6300 C   0  0  0  0  0  0
  -27.6167  -32.4253   25.7560 C   0  0  0  0  0  0
  -27.5559  -37.1788   24.8461 C   0  0  0  0  0  0
  -21.4230  -29.3134   22.3600 N   0  0  0  0  0  0
  -26.4240  -37.3826   23.9466 N   0  0  0  0  0  0
  -24.7085  -31.0573   22.1001 N   0  0  0  0  0  0
  -23.4253  -28.8146   23.2918 O   0  0  0  0  0  0
  -28.1996  -26.2550   20.1324 O   0  0  0  0  0  0
  -26.5554  -34.8931   22.4627 O   0  0  0  0  0  0
  -23.5548  -32.1367   23.7342 O   0  0  0  0  0  0
  -28.7723  -21.2774   21.1662 C   0  0  0  0  0  0
  -28.4210  -22.6735   21.1363 C   0  0  0  0  0  0
  -29.2074  -20.5544   20.0120 C   0  0  0  0  0  0
  -29.2555  -21.3552   18.8316 C   0  0  0  0  0  0
  -28.8990  -22.7287   18.7979 C   0  0  0  0  0  0
  -28.4807  -23.4675   19.9488 C   0  0  0  0  0  0
  -29.6261  -20.8743   17.4402 C   0  0  0  0  0  0
  -28.9146  -23.2379   17.3704 C   0  0  0  0  0  0
  -29.6432  -22.1440   16.5665 C   0  0  0  0  0  0
  -29.7919  -18.3514   21.4406 C   0  0  0  0  0  0
  -28.9164  -17.9674   19.2139 C   0  0  0  0  0  0
  -30.5109  -16.9498   21.4040 C   0  0  0  0  0  0
  -29.5732  -16.5290   19.1967 C   0  0  0  0  0  0
  -29.6855  -19.0322   20.0530 C   0  0  0  0  0  0
  -27.7237  -24.8572   19.8175 C   0  0  0  0  0  0
  -29.9624  -15.8934   20.4966 N   0  0  0  0  0  0
  -31.4686  -12.5319   19.1284 H   0  0  0  0  0  0
  -30.3673  -11.4496   19.9410 H   0  0  0  0  0  0
  -29.7681  -11.6970   17.5056 H   0  0  0  0  0  0
  -29.6347  -13.4275   17.6929 H   0  0  0  0  0  0
  -27.8875  -11.2699   18.9115 H   0  0  0  0  0  0
  -27.3700  -12.5135   17.8043 H   0  0  0  0  0  0
  -27.6266  -14.2455   19.4690 H   0  0  0  0  0  0
  -28.7379  -12.1927   21.4430 H   0  0  0  0  0  0
  -28.4534  -13.8937   21.7583 H   0  0  0  0  0  0
  -25.2786   -9.5718   22.4801 H   0  0  0  0  0  0
  -24.0035   -7.4689   22.7513 H   0  0  0  0  0  0
  -21.0884   -8.8804   19.8978 H   0  0  0  0  0  0
  -22.3751  -10.9702   19.6202 H   0  0  0  0  0  0
  -21.1950   -7.6153   23.9710 H   0  0  0  0  0  0
  -21.1478   -6.0543   25.9096 H   0  0  0  0  0  0
  -22.0586   -2.7610   23.2848 H   0  0  0  0  0  0
  -22.4052  -11.9838   22.4695 H   0  0  0  0  0  0
  -21.1134  -13.1337   22.2587 H   0  0  0  0  0  0
  -24.6761  -15.8527   20.5408 H   0  0  0  0  0  0
  -26.3065  -15.6279   20.1455 H   0  0  0  0  0  0
  -26.7323  -32.5387   23.1133 H   0  0  0  0  0  0
  -25.0406  -33.9760   25.0615 H   0  0  0  0  0  0
  -22.7353  -31.3243   21.4110 H   0  0  0  0  0  0
  -23.3756  -35.9570   23.3236 H   0  0  0  0  0  0
  -24.3539  -36.8892   22.2039 H   0  0  0  0  0  0
  -23.7140  -37.6458   23.6607 H   0  0  0  0  0  0
  -26.1300  -31.5214   20.6136 H   0  0  0  0  0  0
  -26.8704  -30.8099   22.0100 H   0  0  0  0  0  0
  -28.1089  -28.8573   21.2043 H   0  0  0  0  0  0
  -25.7738  -25.9936   18.9000 H   0  0  0  0  0  0
  -23.9042  -27.4028   18.9694 H   0  0  0  0  0  0
  -23.7926  -30.6408   19.4181 H   0  0  0  0  0  0
  -22.7588  -29.3089   19.8277 H   0  0  0  0  0  0
  -25.1253  -36.1920   25.0809 H   0  0  0  0  0  0
  -21.0032  -28.3277   24.1305 H   0  0  0  0  0  0
  -20.5671  -26.2353   23.3596 H   0  0  0  0  0  0
  -21.6658  -26.7420   22.1157 H   0  0  0  0  0  0
  -19.6921  -25.6317   21.1203 H   0  0  0  0  0  0
  -19.6675  -27.3186   20.6691 H   0  0  0  0  0  0
  -17.4228  -26.6718   21.4001 H   0  0  0  0  0  0
  -18.0320  -26.0111   22.8965 H   0  0  0  0  0  0
  -19.7968  -30.7311   24.2206 H   0  0  0  0  0  0
  -17.5048  -31.6250   24.5223 H   0  0  0  0  0  0
  -15.5397  -30.3020   23.7639 H   0  0  0  0  0  0
  -15.8685  -28.0834   22.7058 H   0  0  0  0  0  0
  -24.6169  -30.6809   25.7831 H   0  0  0  0  0  0
  -24.8710  -32.2863   26.4604 H   0  0  0  0  0  0
  -25.8106  -30.9212   27.0391 H   0  0  0  0  0  0
  -26.2980  -29.6831   24.1178 H   0  0  0  0  0  0
  -27.3854  -29.7178   25.4877 H   0  0  0  0  0  0
  -27.8969  -30.4255   23.9717 H   0  0  0  0  0  0
  -27.2877  -33.3686   26.1950 H   0  0  0  0  0  0
  -28.4076  -32.6521   25.0404 H   0  0  0  0  0  0
  -28.0684  -31.8427   26.5615 H   0  0  0  0  0  0
  -28.2536  -38.0135   24.7584 H   0  0  0  0  0  0
  -28.1076  -36.2672   24.6127 H   0  0  0  0  0  0
  -27.2312  -37.1246   25.8874 H   0  0  0  0  0  0
  -20.9373  -29.8935   21.6888 H   0  0  0  0  0  0
  -26.0088  -38.2892   24.1533 H   0  0  0  0  0  0
  -28.6691  -20.7553   22.1101 H   0  0  0  0  0  0
  -28.0225  -23.1113   22.0413 H   0  0  0  0  0  0
  -28.8493  -20.1989   17.0802 H   0  0  0  0  0  0
  -30.5804  -20.3426   17.4181 H   0  0  0  0  0  0
  -29.3926  -24.2102   17.2619 H   0  0  0  0  0  0
  -27.8922  -23.3329   17.0059 H   0  0  0  0  0  0
  -29.2133  -21.9949   15.5725 H   0  0  0  0  0  0
  -30.6804  -22.4508   16.4208 H   0  0  0  0  0  0
  -30.3482  -19.0044   22.1129 H   0  0  0  0  0  0
  -28.7978  -18.2560   21.8810 H   0  0  0  0  0  0
  -27.8890  -17.8908   19.5680 H   0  0  0  0  0  0
  -28.8392  -18.2910   18.1764 H   0  0  0  0  0  0
  -30.5283  -16.5507   22.4197 H   0  0  0  0  0  0
  -31.5560  -17.1251   21.1330 H   0  0  0  0  0  0
  -30.4672  -16.5810   18.5709 H   0  0  0  0  0  0
  -28.8969  -15.8607   18.6685 H   0  0  0  0  0  0
  -30.6987  -19.0651   19.6521 H   0  0  0  0  0  0
  -26.8170  -24.6883   20.4045 H   0  0  0  0  0  0
  -27.4319  -24.8615   18.7697 H   0  0  0  0  0  0
  1 25  1  0  0  0
  1 30  2  0  0  0
  1 86  1  0  0  0
  2  3  1  0  0  0
  2 25  1  0  0  0
  2 87  1  0  0  0
  2 88  1  0  0  0
  3  4  1  0  0  0
  3 89  1  0  0  0
  3 90  1  0  0  0
  4  5  1  0  0  0
  4 91  1  0  0  0
  4 92  1  0  0  0
  5  6  1  0  0  0
  5 26  1  0  0  0
  5 93  1  0  0  0
  6 25  1  0  0  0
  6 94  1  0  0  0
  6 95  1  0  0  0
  7  8  2  0  0  0
  7 26  1  0  0  0
  7 29  1  0  0  0
  8  9  1  0  0  0
  8 22  1  0  0  0
  9 10  1  0  0  0
  9 27  2  0  0  0
 10 11  2  0  0  0
 10 15  1  0  0  0
 11 12  1  0  0  0
 11 96  1  0  0  0
 12 13  2  0  0  0
 12 97  1  0  0  0
 13 14  1  0  0  0
 13 31  1  0  0  0
 14 15  2  0  0  0
 14 98  1  0  0  0
 15 99  1  0  0  0
 16 17  2  0  0  0
 16 21  1  0  0  0
 16 31  1  0  0  0
 17 18  1  0  0  0
 17100  1  0  0  0
 18 19  2  0  0  0
 18101  1  0  0  0
 19 20  1  0  0  0
 19 24  1  0  0  0
 20 21  2  0  0  0
 20102  1  0  0  0
 21 23  1  0  0  0
 22 28  1  0  0  0
 22 32  2  0  0  0
 26 27  1  0  0  0
 28103  1  0  0  0
 28104  1  0  0  0
 29105  1  0  0  0
 29106  1  0  0  0
 33 34  1  0  0  0
 33 66  1  0  0  0
 33 70  2  0  0  0
 34 36  1  0  0  0
 34 59  1  0  0  0
 34107  1  0  0  0
 35 44  2  0  0  0
 35 45  1  0  0  0
 35 68  1  0  0  0
 36 56  1  0  0  0
 36108  1  0  0  0
 37 39  1  0  0  0
 37 47  1  0  0  0
 37 66  1  0  0  0
 37109  1  0  0  0
 38 43  2  0  0  0
 38 46  1  0  0  0
 38 47  1  0  0  0
 39 64  1  0  0  0
 39 67  2  0  0  0
 40 52  1  0  0  0
 40 53  2  0  0  0
 40 58  1  0  0  0
 41110  1  0  0  0
 41111  1  0  0  0
 41112  1  0  0  0
 41 48  1  0  0  0
 42 43  1  0  0  0
 42 66  1  0  0  0
 42113  1  0  0  0
 42114  1  0  0  0
 43 44  1  0  0  0
 44115  1  0  0  0
 45 46  2  0  0  0
 45116  1  0  0  0
 46117  1  0  0  0
 47118  1  0  0  0
 47119  1  0  0  0
 48 56  1  0  0  0
 48 65  1  0  0  0
 48120  1  0  0  0
 49 50  1  0  0  0
 49 53  1  0  0  0
 49 64  1  0  0  0
 49121  1  0  0  0
 50 51  1  0  0  0
 50122  1  0  0  0
 50123  1  0  0  0
 51 52  1  0  0  0
 51124  1  0  0  0
 51125  1  0  0  0
 52126  1  0  0  0
 52127  1  0  0  0
 53 54  1  0  0  0
 54 55  2  0  0  0
 54128  1  0  0  0
 55 57  1  0  0  0
 55129  1  0  0  0
 56 69  2  0  0  0
 57 58  2  0  0  0
 57130  1  0  0  0
 58131  1  0  0  0
 59 60  1  0  0  0
 59 61  1  0  0  0
 59 62  1  0  0  0
 60132  1  0  0  0
 60133  1  0  0  0
 60134  1  0  0  0
 61135  1  0  0  0
 61136  1  0  0  0
 61137  1  0  0  0
 62138  1  0  0  0
 62139  1  0  0  0
 62140  1  0  0  0
 63 65  1  0  0  0
 63141  1  0  0  0
 63142  1  0  0  0
 63143  1  0  0  0
 64144  1  0  0  0
 65145  1  0  0  0
 68 85  1  0  0  0
 71 72  2  0  0  0
 71 73  1  0  0  0
 71146  1  0  0  0
 72 76  1  0  0  0
 72147  1  0  0  0
 73 74  2  0  0  0
 73 84  1  0  0  0
 74 75  1  0  0  0
 74 77  1  0  0  0
 75 76  2  0  0  0
 75 78  1  0  0  0
 76 85  1  0  0  0
 77 79  1  0  0  0
 77148  1  0  0  0
 77149  1  0  0  0
 78 79  1  0  0  0
 78150  1  0  0  0
 78151  1  0  0  0
 79152  1  0  0  0
 79153  1  0  0  0
 80 82  1  0  0  0
 80 84  1  0  0  0
 80154  1  0  0  0
 80155  1  0  0  0
 81 83  1  0  0  0
 81 84  1  0  0  0
 81156  1  0  0  0
 81157  1  0  0  0
 82 86  1  0  0  0
 82158  1  0  0  0
 82159  1  0  0  0
 83 86  1  0  0  0
 83160  1  0  0  0
 83161  1  0  0  0
 84162  1  0  0  0
 85163  1  0  0  0
 85164  1  0  0  0
M  ISO  4   1 100  68 101  85 101  86 100
M  END
> <chiral flag>
0

> <version>
0

> <s_m_source_file>
/data/baiqing/PycharmProjects/Reinvent-master-3.2/result/LINK_invent/BTK/process_docking_weight1_custom_sum_contain_oxygen_bond_distance_aromatic_linkinvent_7_9_3/rearranged_h_0168.sdf

> <i_m_source_file_index>
90

> <r_mmod_Potential_Energy-OPLS-2005>
493.606262207031

> <r_mmod_Stretch_Energy-OPLS-2005>
109.370460510254

> <r_mmod_Bend_Energy-OPLS-2005>
235.693252563477

> <r_mmod_Torsional_Energy-OPLS-2005>
356.664031982422

> <r_mmod_Improper_Torsional_Energy-OPLS-2005>
14.710033416748

> <r_mmod_Van_der_Waal_Energy-OPLS-2005>
156.431701660156

> <r_mmod_Electrostatic_Energy-OPLS-2005>
-281.435394287109

> <r_mmod_Solvation_Energy-OPLS-2005>
-195.272857666016

> <b_mmod_Minimization_Converged-OPLS-2005>
0

> <r_mmod_RMS_Derivative-OPLS-2005>
6.14495706558228

$$$$
91
                    3D
 Structure written by MMmdl.
158168  0  0  1  0            999 V2000
  -30.5918  -14.7923   20.4687 C   0  0  0  0  0  0
  -30.4227  -12.4866   19.4873 C   0  0  0  0  0  0
  -29.5130  -12.5095   18.2390 C   0  0  0  0  0  0
  -28.0365  -12.3369   18.6451 C   0  0  0  0  0  0
  -27.6340  -13.2350   19.8462 C   0  0  2  0  0  0
  -28.6722  -13.1982   20.9840 C   0  0  0  0  0  0
  -25.2509  -13.8180   20.5697 C   0  0  0  0  0  0
  -24.1779  -13.0439   20.9194 C   0  0  0  0  0  0
  -24.6375  -11.6924   20.8737 C   0  0  0  0  0  0
  -23.9047  -10.4306   21.0402 C   0  0  0  0  0  0
  -24.3623   -9.4226   21.9179 C   0  0  0  0  0  0
  -23.6317   -8.2254   22.0751 C   0  0  0  0  0  0
  -22.4289   -8.0283   21.3545 C   0  0  0  0  0  0
  -21.9900   -9.0248   20.4658 C   0  0  0  0  0  0
  -22.7215  -10.2144   20.3067 C   0  0  0  0  0  0
  -21.6861   -6.0735   22.5275 C   0  0  0  0  0  0
  -21.4013   -6.5633   23.8208 C   0  0  0  0  0  0
  -21.3662   -5.6787   24.9170 C   0  0  0  0  0  0
  -21.6053   -4.3050   24.7219 C   0  0  0  0  0  0
  -21.8813   -3.8150   23.4334 C   0  0  0  0  0  0
  -21.9205   -4.6969   22.3395 C   0  0  0  0  0  0
  -22.7820  -13.5271   21.1831 C   0  0  0  0  0  0
  -22.1669   -4.2145   21.0970 F   0  0  0  0  0  0
  -21.5627   -3.4543   25.7734 F   0  0  0  0  0  0
  -29.9619  -13.5658   20.3954 N   0  0  0  0  0  0
  -26.2896  -12.9385   20.3240 N   0  0  0  0  0  0
  -25.9288  -11.6518   20.5694 N   0  0  0  0  0  0
  -22.0465  -12.8280   22.0406 N   0  0  0  0  0  0
  -25.4190  -15.1911   20.4164 N   0  0  0  0  0  0
  -31.7898  -14.8577   20.1703 O   0  0  0  0  0  0
  -21.6671   -6.8870   21.4230 O   0  0  0  0  0  0
  -22.3515  -14.5553   20.6651 O   0  0  0  0  0  0
  -24.6356  -31.8500   23.2007 C   0  0  0  0  0  0
  -25.9189  -32.4724   23.8340 C   0  0  1  0  0  0
  -27.1968  -27.2146   20.1281 C   0  0  0  0  0  0
  -25.6007  -33.8547   24.2205 N   0  0  0  0  0  0
  -23.4330  -30.4760   21.5438 C   0  0  2  0  0  0
  -24.8731  -28.9198   20.1029 C   0  0  0  0  0  0
  -22.7538  -29.4548   22.4874 C   0  0  0  0  0  0
  -18.0329  -28.1378   22.8468 C   0  0  0  0  0  0
  -24.1491  -36.7257   23.2602 C   0  0  0  0  0  0
  -25.9831  -30.7400   21.4002 C   0  0  0  0  0  0
  -26.0455  -29.3692   20.7190 C   0  0  0  0  0  0
  -27.2115  -28.5308   20.7121 C   0  0  0  0  0  0
  -26.0031  -26.8422   19.4742 C   0  0  0  0  0  0
  -24.8589  -27.6646   19.4701 C   0  0  0  0  0  0
  -23.6532  -29.8215   20.1541 C   0  0  0  0  0  0
  -25.4128  -36.3043   24.0275 C   0  0  1  0  0  0
  -20.5908  -28.3763   23.1314 C   0  0  2  0  0  0
  -20.6802  -26.9362   22.5749 C   0  0  0  0  0  0
  -19.5857  -26.6070   21.5524 C   0  0  0  0  0  0
  -18.1971  -26.7842   22.1766 C   0  0  0  0  0  0
  -19.1561  -28.8917   23.2799 C   0  0  0  0  0  0
  -18.9469  -30.1541   23.8754 C   0  0  0  0  0  0
  -17.6462  -30.6612   24.0485 C   0  0  0  0  0  0
  -25.9090  -34.9425   23.5028 C   0  0  0  0  0  0
  -16.5373  -29.9069   23.6295 C   0  0  0  0  0  0
  -16.7313  -28.6476   23.0337 C   0  0  0  0  0  0
  -26.4508  -31.6687   25.0844 C   0  0  0  0  0  0
  -25.3655  -31.4090   26.1568 C   0  0  0  0  0  0
  -27.0357  -30.3007   24.6613 C   0  0  0  0  0  0
  -27.6009  -32.4539   25.7617 C   0  0  0  0  0  0
  -27.5580  -37.1766   24.8430 C   0  0  0  0  0  0
  -21.4245  -29.3010   22.3608 N   0  0  0  0  0  0
  -26.4269  -37.3764   23.9406 N   0  0  0  0  0  0
  -24.7009  -31.0405   22.1027 N   0  0  0  0  0  0
  -23.4211  -28.8094   23.2997 O   0  0  0  0  0  0
  -28.2731  -26.2899   20.2537 O   0  0  0  0  0  0
  -26.5635  -34.8923   22.4580 O   0  0  0  0  0  0
  -23.5498  -32.1418   23.7252 O   0  0  0  0  0  0
  -27.9856  -19.2598   22.1918 C   0  0  0  0  0  0
  -27.1482  -20.2657   22.6870 C   0  0  0  0  0  0
  -28.6577  -20.7850   20.4113 C   0  0  0  0  0  0
  -28.7284  -19.4390   21.0140 C   0  0  0  0  0  0
  -27.8286  -21.8899   20.9241 C   0  0  0  0  0  0
  -27.0139  -21.5137   22.0464 C   0  0  0  0  0  0
  -27.4761  -24.5056   21.1771 C   0  0  0  0  0  0
  -30.4302  -17.2282   21.4117 C   0  0  0  0  0  0
  -28.8144  -16.7415   20.1736 C   0  0  0  0  0  0
  -29.5015  -18.1147   20.5131 C   0  0  0  0  0  0
  -27.5117  -23.3522   20.2845 C   0  0  1  0  0  0
  -28.2504  -24.7965   19.8974 C   0  0  2  0  0  0
  -25.8616  -22.3768   22.5557 C   0  0  0  0  0  0
  -29.8925  -15.9491   20.8478 N   0  0  0  0  0  0
  -31.4657  -12.6095   19.1908 H   0  0  0  0  0  0
  -30.3627  -11.5187   19.9887 H   0  0  0  0  0  0
  -29.7988  -11.7148   17.5481 H   0  0  0  0  0  0
  -29.6488  -13.4485   17.7013 H   0  0  0  0  0  0
  -27.8934  -11.2867   18.9093 H   0  0  0  0  0  0
  -27.3848  -12.5315   17.7919 H   0  0  0  0  0  0
  -27.6156  -14.2530   19.4557 H   0  0  0  0  0  0
  -28.7182  -12.2132   21.4496 H   0  0  0  0  0  0
  -28.3980  -13.8987   21.7721 H   0  0  0  0  0  0
  -25.2763   -9.5747   22.4751 H   0  0  0  0  0  0
  -24.0039   -7.4659   22.7472 H   0  0  0  0  0  0
  -21.0818   -8.8760   19.8997 H   0  0  0  0  0  0
  -22.3626  -10.9683   19.6210 H   0  0  0  0  0  0
  -21.1974   -7.6133   23.9697 H   0  0  0  0  0  0
  -21.1503   -6.0515   25.9070 H   0  0  0  0  0  0
  -22.0592   -2.7610   23.2821 H   0  0  0  0  0  0
  -22.4100  -12.0010   22.4895 H   0  0  0  0  0  0
  -21.1093  -13.1345   22.2592 H   0  0  0  0  0  0
  -24.6515  -15.8405   20.5386 H   0  0  0  0  0  0
  -26.2679  -15.6363   20.0975 H   0  0  0  0  0  0
  -26.7254  -32.5286   23.1081 H   0  0  0  0  0  0
  -25.0266  -33.9730   25.0422 H   0  0  0  0  0  0
  -22.7269  -31.2956   21.4019 H   0  0  0  0  0  0
  -23.3774  -35.9560   23.3230 H   0  0  0  0  0  0
  -24.3564  -36.8923   22.2012 H   0  0  0  0  0  0
  -23.7246  -37.6445   23.6666 H   0  0  0  0  0  0
  -26.1629  -31.5154   20.6564 H   0  0  0  0  0  0
  -26.8382  -30.7465   22.0650 H   0  0  0  0  0  0
  -28.1090  -28.8721   21.2077 H   0  0  0  0  0  0
  -25.9208  -25.8781   18.9969 H   0  0  0  0  0  0
  -23.9597  -27.3120   18.9853 H   0  0  0  0  0  0
  -23.8048  -30.6099   19.4156 H   0  0  0  0  0  0
  -22.7661  -29.2766   19.8281 H   0  0  0  0  0  0
  -25.1315  -36.1833   25.0759 H   0  0  0  0  0  0
  -20.9943  -28.3553   24.1466 H   0  0  0  0  0  0
  -20.5540  -26.2507   23.4144 H   0  0  0  0  0  0
  -21.6720  -26.7209   22.1789 H   0  0  0  0  0  0
  -19.7016  -25.5819   21.1993 H   0  0  0  0  0  0
  -19.6961  -27.2523   20.6812 H   0  0  0  0  0  0
  -17.4307  -26.6478   21.4109 H   0  0  0  0  0  0
  -18.0233  -26.0121   22.9277 H   0  0  0  0  0  0
  -19.7945  -30.7411   24.1995 H   0  0  0  0  0  0
  -17.5038  -31.6307   24.5050 H   0  0  0  0  0  0
  -15.5363  -30.2945   23.7628 H   0  0  0  0  0  0
  -15.8724  -28.0748   22.7108 H   0  0  0  0  0  0
  -24.5648  -30.7650   25.7954 H   0  0  0  0  0  0
  -24.9102  -32.3399   26.4954 H   0  0  0  0  0  0
  -25.7849  -30.9258   27.0390 H   0  0  0  0  0  0
  -26.3037  -29.6757   24.1496 H   0  0  0  0  0  0
  -27.3654  -29.7382   25.5364 H   0  0  0  0  0  0
  -27.9087  -30.4134   24.0185 H   0  0  0  0  0  0
  -27.2475  -33.3723   26.2338 H   0  0  0  0  0  0
  -28.3725  -32.7356   25.0444 H   0  0  0  0  0  0
  -28.0812  -31.8667   26.5458 H   0  0  0  0  0  0
  -28.2610  -38.0060   24.7505 H   0  0  0  0  0  0
  -28.1064  -36.2602   24.6195 H   0  0  0  0  0  0
  -27.2302  -37.1356   25.8834 H   0  0  0  0  0  0
  -20.9440  -29.8801   21.6865 H   0  0  0  0  0  0
  -26.0122  -38.2789   24.1543 H   0  0  0  0  0  0
  -28.0087  -18.3115   22.7108 H   0  0  0  0  0  0
  -26.5403  -20.0288   23.5528 H   0  0  0  0  0  0
  -29.2171  -20.9631   19.5014 H   0  0  0  0  0  0
  -28.0922  -24.4574   22.0723 H   0  0  0  0  0  0
  -26.5013  -24.9528   21.3405 H   0  0  0  0  0  0
  -30.2084  -17.3372   22.4741 H   0  0  0  0  0  0
  -31.4949  -17.4013   21.2319 H   0  0  0  0  0  0
  -28.7121  -16.5760   19.1017 H   0  0  0  0  0  0
  -27.8490  -16.6315   20.6656 H   0  0  0  0  0  0
  -30.0894  -18.4260   19.6514 H   0  0  0  0  0  0
  -26.6083  -23.1920   19.6955 H   0  0  0  0  0  0
  -27.9062  -24.8957   18.8682 H   0  0  0  0  0  0
  -25.2500  -21.8382   23.2814 H   0  0  0  0  0  0
  -25.1920  -22.6399   21.7340 H   0  0  0  0  0  0
  -26.2052  -23.2800   23.0554 H   0  0  0  0  0  0
  1 25  1  0  0  0
  1 30  2  0  0  0
  1 84  1  0  0  0
  2  3  1  0  0  0
  2 25  1  0  0  0
  2 85  1  0  0  0
  2 86  1  0  0  0
  3  4  1  0  0  0
  3 87  1  0  0  0
  3 88  1  0  0  0
  4  5  1  0  0  0
  4 89  1  0  0  0
  4 90  1  0  0  0
  5  6  1  0  0  0
  5 26  1  0  0  0
  5 91  1  0  0  0
  6 25  1  0  0  0
  6 92  1  0  0  0
  6 93  1  0  0  0
  7  8  2  0  0  0
  7 26  1  0  0  0
  7 29  1  0  0  0
  8  9  1  0  0  0
  8 22  1  0  0  0
  9 10  1  0  0  0
  9 27  2  0  0  0
 10 11  2  0  0  0
 10 15  1  0  0  0
 11 12  1  0  0  0
 11 94  1  0  0  0
 12 13  2  0  0  0
 12 95  1  0  0  0
 13 14  1  0  0  0
 13 31  1  0  0  0
 14 15  2  0  0  0
 14 96  1  0  0  0
 15 97  1  0  0  0
 16 17  2  0  0  0
 16 21  1  0  0  0
 16 31  1  0  0  0
 17 18  1  0  0  0
 17 98  1  0  0  0
 18 19  2  0  0  0
 18 99  1  0  0  0
 19 20  1  0  0  0
 19 24  1  0  0  0
 20 21  2  0  0  0
 20100  1  0  0  0
 21 23  1  0  0  0
 22 28  1  0  0  0
 22 32  2  0  0  0
 26 27  1  0  0  0
 28101  1  0  0  0
 28102  1  0  0  0
 29103  1  0  0  0
 29104  1  0  0  0
 33 34  1  0  0  0
 33 66  1  0  0  0
 33 70  2  0  0  0
 34 36  1  0  0  0
 34 59  1  0  0  0
 34105  1  0  0  0
 35 44  2  0  0  0
 35 45  1  0  0  0
 35 68  1  0  0  0
 36 56  1  0  0  0
 36106  1  0  0  0
 37 39  1  0  0  0
 37 47  1  0  0  0
 37 66  1  0  0  0
 37107  1  0  0  0
 38 43  2  0  0  0
 38 46  1  0  0  0
 38 47  1  0  0  0
 39 64  1  0  0  0
 39 67  2  0  0  0
 40 52  1  0  0  0
 40 53  2  0  0  0
 40 58  1  0  0  0
 41108  1  0  0  0
 41109  1  0  0  0
 41110  1  0  0  0
 41 48  1  0  0  0
 42 43  1  0  0  0
 42 66  1  0  0  0
 42111  1  0  0  0
 42112  1  0  0  0
 43 44  1  0  0  0
 44113  1  0  0  0
 45 46  2  0  0  0
 45114  1  0  0  0
 46115  1  0  0  0
 47116  1  0  0  0
 47117  1  0  0  0
 48 56  1  0  0  0
 48 65  1  0  0  0
 48118  1  0  0  0
 49 50  1  0  0  0
 49 53  1  0  0  0
 49 64  1  0  0  0
 49119  1  0  0  0
 50 51  1  0  0  0
 50120  1  0  0  0
 50121  1  0  0  0
 51 52  1  0  0  0
 51122  1  0  0  0
 51123  1  0  0  0
 52124  1  0  0  0
 52125  1  0  0  0
 53 54  1  0  0  0
 54 55  2  0  0  0
 54126  1  0  0  0
 55 57  1  0  0  0
 55127  1  0  0  0
 56 69  2  0  0  0
 57 58  2  0  0  0
 57128  1  0  0  0
 58129  1  0  0  0
 59 60  1  0  0  0
 59 61  1  0  0  0
 59 62  1  0  0  0
 60130  1  0  0  0
 60131  1  0  0  0
 60132  1  0  0  0
 61133  1  0  0  0
 61134  1  0  0  0
 61135  1  0  0  0
 62136  1  0  0  0
 62137  1  0  0  0
 62138  1  0  0  0
 63 65  1  0  0  0
 63139  1  0  0  0
 63140  1  0  0  0
 63141  1  0  0  0
 64142  1  0  0  0
 65143  1  0  0  0
 68 82  1  0  0  0
 71 72  2  0  0  0
 71 74  1  0  0  0
 71144  1  0  0  0
 72 76  1  0  0  0
 72145  1  0  0  0
 73 74  2  0  0  0
 73 75  1  0  0  0
 73146  1  0  0  0
 74 80  1  0  0  0
 75 76  2  0  0  0
 75 81  1  0  0  0
 76 83  1  0  0  0
 77 81  1  0  0  0
 77 82  1  0  0  0
 77147  1  0  0  0
 77148  1  0  0  0
 78 80  1  0  0  0
 78 84  1  0  0  0
 78149  1  0  0  0
 78150  1  0  0  0
 79 80  1  0  0  0
 79 84  1  0  0  0
 79151  1  0  0  0
 79152  1  0  0  0
 80153  1  0  0  0
 81 82  1  0  0  0
 81154  1  0  0  0
 82155  1  0  0  0
 83156  1  0  0  0
 83157  1  0  0  0
 83158  1  0  0  0
M  ISO  4   1 100  68 101  82 101  84 100
M  END
> <chiral flag>
0

> <version>
0

> <s_m_source_file>
/data/baiqing/PycharmProjects/Reinvent-master-3.2/result/LINK_invent/BTK/process_docking_weight1_custom_sum_contain_oxygen_bond_distance_aromatic_linkinvent_7_9_3/rearranged_h_0168.sdf

> <i_m_source_file_index>
91

> <r_mmod_Potential_Energy-OPLS-2005>
545.699645996094

> <r_mmod_Stretch_Energy-OPLS-2005>
179.677322387695

> <r_mmod_Bend_Energy-OPLS-2005>
354.025848388672

> <r_mmod_Torsional_Energy-OPLS-2005>
288.41650390625

> <r_mmod_Improper_Torsional_Energy-OPLS-2005>
7.84632349014282

> <r_mmod_Van_der_Waal_Energy-OPLS-2005>
139.104064941406

> <r_mmod_Electrostatic_Energy-OPLS-2005>
-336.612457275391

> <r_mmod_Solvation_Energy-OPLS-2005>
-204.027145385742

> <b_mmod_Minimization_Converged-OPLS-2005>
0

> <r_mmod_RMS_Derivative-OPLS-2005>
5.29917430877686

$$$$
92
                    3D
 Structure written by MMmdl.
178187  0  0  1  0            999 V2000
  -30.7398  -14.5802   20.4931 C   0  0  0  0  0  0
  -30.4217  -12.3657   19.4334 C   0  0  0  0  0  0
  -29.5236  -12.5438   18.1977 C   0  0  0  0  0  0
  -28.0484  -12.3547   18.6004 C   0  0  0  0  0  0
  -27.6645  -13.2215   19.8345 C   0  0  2  0  0  0
  -28.7078  -13.1055   20.9643 C   0  0  0  0  0  0
  -25.2678  -13.8124   20.5647 C   0  0  0  0  0  0
  -24.1951  -13.0407   20.9163 C   0  0  0  0  0  0
  -24.6488  -11.6878   20.8666 C   0  0  0  0  0  0
  -23.9118  -10.4274   21.0299 C   0  0  0  0  0  0
  -24.3611   -9.4206   21.9125 C   0  0  0  0  0  0
  -23.6316   -8.2222   22.0728 C   0  0  0  0  0  0
  -22.4277   -8.0215   21.3532 C   0  0  0  0  0  0
  -21.9898   -9.0191   20.4636 C   0  0  0  0  0  0
  -22.7222  -10.2098   20.3036 C   0  0  0  0  0  0
  -21.6848   -6.0681   22.5281 C   0  0  0  0  0  0
  -21.3982   -6.5591   23.8209 C   0  0  0  0  0  0
  -21.3696   -5.6758   24.9176 C   0  0  0  0  0  0
  -21.6082   -4.3020   24.7238 C   0  0  0  0  0  0
  -21.8822   -3.8108   23.4363 C   0  0  0  0  0  0
  -21.9210   -4.6917   22.3415 C   0  0  0  0  0  0
  -22.7975  -13.5232   21.1823 C   0  0  0  0  0  0
  -22.1646   -4.2112   21.0994 F   0  0  0  0  0  0
  -21.5713   -3.4511   25.7760 F   0  0  0  0  0  0
  -30.0367  -13.4070   20.4121 N   0  0  0  0  0  0
  -26.3111  -12.9343   20.3153 N   0  0  0  0  0  0
  -25.9446  -11.6489   20.5635 N   0  0  0  0  0  0
  -22.0494  -12.8350   22.0326 N   0  0  0  0  0  0
  -25.4337  -15.1830   20.4069 N   0  0  0  0  0  0
  -31.8972  -14.6368   20.0672 O   0  0  0  0  0  0
  -21.6647   -6.8802   21.4224 O   0  0  0  0  0  0
  -22.3721  -14.5536   20.6584 O   0  0  0  0  0  0
  -24.6221  -31.8695   23.2102 C   0  0  0  0  0  0
  -25.9115  -32.4808   23.8385 C   0  0  1  0  0  0
  -27.2442  -27.4375   20.0547 C   0  0  0  0  0  0
  -25.5986  -33.8621   24.2328 N   0  0  0  0  0  0
  -23.4068  -30.4987   21.5538 C   0  0  2  0  0  0
  -24.8467  -28.9581   20.1200 C   0  0  0  0  0  0
  -22.7419  -29.4711   22.4975 C   0  0  0  0  0  0
  -18.0296  -28.1420   22.8459 C   0  0  0  0  0  0
  -24.1512  -36.7345   23.2620 C   0  0  0  0  0  0
  -25.9385  -30.8276   21.3657 C   0  0  0  0  0  0
  -26.0102  -29.4619   20.7129 C   0  0  0  0  0  0
  -27.2071  -28.7060   20.6838 C   0  0  0  0  0  0
  -26.0423  -26.9357   19.4927 C   0  0  0  0  0  0
  -24.8542  -27.6866   19.5239 C   0  0  0  0  0  0
  -23.6160  -29.8362   20.1665 C   0  0  0  0  0  0
  -25.4123  -36.3123   24.0319 C   0  0  1  0  0  0
  -20.5880  -28.3737   23.1289 C   0  0  2  0  0  0
  -20.6810  -26.9479   22.5398 C   0  0  0  0  0  0
  -19.5794  -26.6411   21.5206 C   0  0  0  0  0  0
  -18.1952  -26.7976   22.1575 C   0  0  0  0  0  0
  -19.1537  -28.8895   23.2877 C   0  0  0  0  0  0
  -18.9457  -30.1479   23.8910 C   0  0  0  0  0  0
  -17.6453  -30.6609   24.0581 C   0  0  0  0  0  0
  -25.9043  -34.9484   23.5108 C   0  0  0  0  0  0
  -16.5353  -29.9111   23.6321 C   0  0  0  0  0  0
  -16.7271  -28.6540   23.0325 C   0  0  0  0  0  0
  -26.4525  -31.6605   25.0738 C   0  0  0  0  0  0
  -25.3787  -31.3723   26.1488 C   0  0  0  0  0  0
  -27.0359  -30.3038   24.6142 C   0  0  0  0  0  0
  -27.6096  -32.4323   25.7532 C   0  0  0  0  0  0
  -27.5596  -37.1836   24.8442 C   0  0  0  0  0  0
  -21.4150  -29.3100   22.3692 N   0  0  0  0  0  0
  -26.4307  -37.3797   23.9392 N   0  0  0  0  0  0
  -24.6753  -31.0781   22.1017 N   0  0  0  0  0  0
  -23.4179  -28.8241   23.3020 O   0  0  0  0  0  0
  -28.4419  -26.7368   20.0149 O   0  0  0  0  0  0
  -26.5562  -34.8933   22.4640 O   0  0  0  0  0  0
  -23.5424  -32.1479   23.7491 O   0  0  0  0  0  0
  -30.1554  -15.9214   20.9860 C   0  0  0  0  0  0
  -29.8470  -16.1248   22.3613 C   0  0  0  0  0  0
  -30.0633  -17.0684   20.1044 C   0  0  0  0  0  0
  -29.5059  -17.4209   22.8207 C   0  0  0  0  0  0
  -29.6059  -18.5523   21.9761 C   0  0  0  0  0  0
  -29.7416  -18.4071   20.5604 C   0  0  0  0  0  0
  -28.1978  -20.9153   18.9097 C   0  0  0  0  0  0
  -28.1954  -19.3874   18.9653 C   0  0  0  0  0  0
  -29.4754  -20.9265   19.7655 C   0  0  2  0  0  0
  -29.9334  -15.0052   23.3999 C   0  0  0  0  0  0
  -30.3179  -16.8676   18.5980 C   0  0  0  0  0  0
  -29.0117  -17.6148   24.2589 C   0  0  0  0  0  0
  -29.5716  -19.9247   22.6585 C   0  0  0  0  0  0
  -30.8315  -21.7799   17.7316 C   0  0  0  0  0  0
  -29.9653  -25.0171   19.0307 C   0  0  0  0  0  0
  -31.1217  -22.9626   20.0301 C   0  0  0  0  0  0
  -28.5786  -25.7078   19.0161 C   0  0  0  0  0  0
  -30.7636  -21.6425   19.2693 C   0  0  1  0  0  0
  -29.5244  -19.4550   19.5675 N   0  0  0  0  0  0
  -30.0513  -24.0003   20.1112 N   0  3  0  0  0  0
  -31.4721  -12.4253   19.1444 H   0  0  0  0  0  0
  -30.2849  -11.3654   19.8495 H   0  0  0  0  0  0
  -29.8136  -11.8323   17.4238 H   0  0  0  0  0  0
  -29.6775  -13.5344   17.7636 H   0  0  0  0  0  0
  -27.9005  -11.2991   18.8367 H   0  0  0  0  0  0
  -27.4097  -12.5841   17.7447 H   0  0  0  0  0  0
  -27.6793  -14.2571   19.4924 H   0  0  0  0  0  0
  -28.7168  -12.1085   21.4097 H   0  0  0  0  0  0
  -28.4330  -13.7922   21.7516 H   0  0  0  0  0  0
  -25.2695   -9.5794   22.4753 H   0  0  0  0  0  0
  -24.0023   -7.4684   22.7517 H   0  0  0  0  0  0
  -21.0805   -8.8703   19.8987 H   0  0  0  0  0  0
  -22.3572  -10.9631   19.6198 H   0  0  0  0  0  0
  -21.1830   -7.6071   23.9722 H   0  0  0  0  0  0
  -21.1571   -6.0451   25.9111 H   0  0  0  0  0  0
  -22.0571   -2.7570   23.2889 H   0  0  0  0  0  0
  -22.3918  -12.0062   22.4966 H   0  0  0  0  0  0
  -21.1060  -13.1491   22.2233 H   0  0  0  0  0  0
  -24.6616  -15.8240   20.5511 H   0  0  0  0  0  0
  -26.2912  -15.6477   20.1412 H   0  0  0  0  0  0
  -26.7192  -32.5476   23.1146 H   0  0  0  0  0  0
  -25.0307  -33.9803   25.0594 H   0  0  0  0  0  0
  -22.6983  -31.3199   21.4153 H   0  0  0  0  0  0
  -23.3764  -35.9679   23.3259 H   0  0  0  0  0  0
  -24.3623  -36.8994   22.2036 H   0  0  0  0  0  0
  -23.7271  -37.6547   23.6654 H   0  0  0  0  0  0
  -26.0550  -31.5889   20.5942 H   0  0  0  0  0  0
  -26.8261  -30.8755   21.9854 H   0  0  0  0  0  0
  -28.1121  -29.1054   21.1243 H   0  0  0  0  0  0
  -25.9841  -25.9667   19.0228 H   0  0  0  0  0  0
  -23.9544  -27.2772   19.0889 H   0  0  0  0  0  0
  -23.7507  -30.6191   19.4185 H   0  0  0  0  0  0
  -22.7300  -29.2822   19.8484 H   0  0  0  0  0  0
  -25.1310  -36.1981   25.0806 H   0  0  0  0  0  0
  -20.9967  -28.3329   24.1414 H   0  0  0  0  0  0
  -20.5781  -26.2359   23.3599 H   0  0  0  0  0  0
  -21.6684  -26.7581   22.1156 H   0  0  0  0  0  0
  -19.6970  -25.6309   21.1281 H   0  0  0  0  0  0
  -19.6750  -27.3188   20.6717 H   0  0  0  0  0  0
  -17.4259  -26.6776   21.3930 H   0  0  0  0  0  0
  -18.0295  -26.0095   22.8938 H   0  0  0  0  0  0
  -19.7938  -30.7302   24.2272 H   0  0  0  0  0  0
  -17.5020  -31.6291   24.5191 H   0  0  0  0  0  0
  -15.5364  -30.3029   23.7644 H   0  0  0  0  0  0
  -15.8673  -28.0874   22.7020 H   0  0  0  0  0  0
  -24.5954  -30.7070   25.7833 H   0  0  0  0  0  0
  -24.8997  -32.2889   26.4947 H   0  0  0  0  0  0
  -25.8143  -30.8889   27.0246 H   0  0  0  0  0  0
  -26.2908  -29.6775   24.1216 H   0  0  0  0  0  0
  -27.4144  -29.7293   25.4612 H   0  0  0  0  0  0
  -27.8744  -30.4339   23.9293 H   0  0  0  0  0  0
  -27.2702  -33.3601   26.2157 H   0  0  0  0  0  0
  -28.3916  -32.6917   25.0380 H   0  0  0  0  0  0
  -28.0768  -31.8423   26.5436 H   0  0  0  0  0  0
  -28.2587  -38.0163   24.7524 H   0  0  0  0  0  0
  -28.1144  -36.2706   24.6234 H   0  0  0  0  0  0
  -27.2332  -37.1422   25.8847 H   0  0  0  0  0  0
  -20.9330  -29.8857   21.6931 H   0  0  0  0  0  0
  -26.0210  -38.2881   24.1375 H   0  0  0  0  0  0
  -27.3457  -21.3694   19.4158 H   0  0  0  0  0  0
  -28.2966  -21.3325   17.9075 H   0  0  0  0  0  0
  -28.1932  -18.8962   17.9911 H   0  0  0  0  0  0
  -27.4316  -18.9769   19.6303 H   0  0  0  0  0  0
  -29.1574  -21.2637   20.7406 H   0  0  0  0  0  0
  -30.5229  -14.1415   23.0928 H   0  0  0  0  0  0
  -28.9328  -14.6560   23.6565 H   0  0  0  0  0  0
  -30.3879  -15.3791   24.3194 H   0  0  0  0  0  0
  -31.1722  -16.2290   18.3675 H   0  0  0  0  0  0
  -30.5416  -17.7944   18.0713 H   0  0  0  0  0  0
  -29.4404  -16.4395   18.1125 H   0  0  0  0  0  0
  -28.4888  -16.7444   24.6503 H   0  0  0  0  0  0
  -28.2654  -18.4106   24.3068 H   0  0  0  0  0  0
  -29.8377  -17.8747   24.9232 H   0  0  0  0  0  0
  -29.8677  -19.8872   23.7044 H   0  0  0  0  0  0
  -28.5769  -20.3729   22.6261 H   0  0  0  0  0  0
  -30.3251  -20.5904   22.2403 H   0  0  0  0  0  0
  -30.6348  -20.8170   17.2556 H   0  0  0  0  0  0
  -31.8150  -22.1029   17.3939 H   0  0  0  0  0  0
  -30.0975  -22.4798   17.3362 H   0  0  0  0  0  0
  -30.7660  -25.7512   19.1251 H   0  0  0  0  0  0
  -30.1136  -24.5333   18.0669 H   0  0  0  0  0  0
  -32.0657  -23.3899   19.6792 H   0  0  0  0  0  0
  -31.3206  -22.6724   21.0621 H   0  0  0  0  0  0
  -27.8192  -24.9366   19.1404 H   0  0  0  0  0  0
  -28.4149  -26.1605   18.0375 H   0  0  0  0  0  0
  -31.5938  -20.9820   19.5134 H   0  0  0  0  0  0
  -29.1574  -23.5492   20.2227 H   0  0  0  0  0  0
  -30.2184  -24.5268   20.9574 H   0  0  0  0  0  0
  1 25  1  0  0  0
  1 30  2  0  0  0
  1 71  1  0  0  0
  2  3  1  0  0  0
  2 25  1  0  0  0
  2 91  1  0  0  0
  2 92  1  0  0  0
  3  4  1  0  0  0
  3 93  1  0  0  0
  3 94  1  0  0  0
  4  5  1  0  0  0
  4 95  1  0  0  0
  4 96  1  0  0  0
  5  6  1  0  0  0
  5 26  1  0  0  0
  5 97  1  0  0  0
  6 25  1  0  0  0
  6 98  1  0  0  0
  6 99  1  0  0  0
  7  8  2  0  0  0
  7 26  1  0  0  0
  7 29  1  0  0  0
  8  9  1  0  0  0
  8 22  1  0  0  0
  9 10  1  0  0  0
  9 27  2  0  0  0
 10 11  2  0  0  0
 10 15  1  0  0  0
 11 12  1  0  0  0
 11100  1  0  0  0
 12 13  2  0  0  0
 12101  1  0  0  0
 13 14  1  0  0  0
 13 31  1  0  0  0
 14 15  2  0  0  0
 14102  1  0  0  0
 15103  1  0  0  0
 16 17  2  0  0  0
 16 21  1  0  0  0
 16 31  1  0  0  0
 17 18  1  0  0  0
 17104  1  0  0  0
 18 19  2  0  0  0
 18105  1  0  0  0
 19 20  1  0  0  0
 19 24  1  0  0  0
 20 21  2  0  0  0
 20106  1  0  0  0
 21 23  1  0  0  0
 22 28  1  0  0  0
 22 32  2  0  0  0
 26 27  1  0  0  0
 28107  1  0  0  0
 28108  1  0  0  0
 29109  1  0  0  0
 29110  1  0  0  0
 33 34  1  0  0  0
 33 66  1  0  0  0
 33 70  2  0  0  0
 34 36  1  0  0  0
 34 59  1  0  0  0
 34111  1  0  0  0
 35 44  2  0  0  0
 35 45  1  0  0  0
 35 68  1  0  0  0
 36 56  1  0  0  0
 36112  1  0  0  0
 37 39  1  0  0  0
 37 47  1  0  0  0
 37 66  1  0  0  0
 37113  1  0  0  0
 38 43  2  0  0  0
 38 46  1  0  0  0
 38 47  1  0  0  0
 39 64  1  0  0  0
 39 67  2  0  0  0
 40 52  1  0  0  0
 40 53  2  0  0  0
 40 58  1  0  0  0
 41114  1  0  0  0
 41115  1  0  0  0
 41116  1  0  0  0
 41 48  1  0  0  0
 42 43  1  0  0  0
 42 66  1  0  0  0
 42117  1  0  0  0
 42118  1  0  0  0
 43 44  1  0  0  0
 44119  1  0  0  0
 45 46  2  0  0  0
 45120  1  0  0  0
 46121  1  0  0  0
 47122  1  0  0  0
 47123  1  0  0  0
 48 56  1  0  0  0
 48 65  1  0  0  0
 48124  1  0  0  0
 49 50  1  0  0  0
 49 53  1  0  0  0
 49 64  1  0  0  0
 49125  1  0  0  0
 50 51  1  0  0  0
 50126  1  0  0  0
 50127  1  0  0  0
 51 52  1  0  0  0
 51128  1  0  0  0
 51129  1  0  0  0
 52130  1  0  0  0
 52131  1  0  0  0
 53 54  1  0  0  0
 54 55  2  0  0  0
 54132  1  0  0  0
 55 57  1  0  0  0
 55133  1  0  0  0
 56 69  2  0  0  0
 57 58  2  0  0  0
 57134  1  0  0  0
 58135  1  0  0  0
 59 60  1  0  0  0
 59 61  1  0  0  0
 59 62  1  0  0  0
 60136  1  0  0  0
 60137  1  0  0  0
 60138  1  0  0  0
 61139  1  0  0  0
 61140  1  0  0  0
 61141  1  0  0  0
 62142  1  0  0  0
 62143  1  0  0  0
 62144  1  0  0  0
 63 65  1  0  0  0
 63145  1  0  0  0
 63146  1  0  0  0
 63147  1  0  0  0
 64148  1  0  0  0
 65149  1  0  0  0
 68 87  1  0  0  0
 71 72  2  0  0  0
 71 73  1  0  0  0
 72 74  1  0  0  0
 72 80  1  0  0  0
 73 76  2  0  0  0
 73 81  1  0  0  0
 74 75  2  0  0  0
 74 82  1  0  0  0
 75 76  1  0  0  0
 75 83  1  0  0  0
 76 89  1  0  0  0
 77 78  1  0  0  0
 77150  1  0  0  0
 77151  1  0  0  0
 77 79  1  0  0  0
 78 89  1  0  0  0
 78152  1  0  0  0
 78153  1  0  0  0
 79 88  1  0  0  0
 79 89  1  0  0  0
 79154  1  0  0  0
 80155  1  0  0  0
 80156  1  0  0  0
 80157  1  0  0  0
 81158  1  0  0  0
 81159  1  0  0  0
 81160  1  0  0  0
 82161  1  0  0  0
 82162  1  0  0  0
 82163  1  0  0  0
 83164  1  0  0  0
 83165  1  0  0  0
 83166  1  0  0  0
 84167  1  0  0  0
 84168  1  0  0  0
 84169  1  0  0  0
 84 88  1  0  0  0
 85 87  1  0  0  0
 85 90  1  0  0  0
 85170  1  0  0  0
 85171  1  0  0  0
 86 88  1  0  0  0
 86 90  1  0  0  0
 86172  1  0  0  0
 86173  1  0  0  0
 87174  1  0  0  0
 87175  1  0  0  0
 88176  1  0  0  0
 90177  1  0  0  0
 90178  1  0  0  0
M  CHG  1  90   1
M  ISO  4   1 100  68 101  71 100  87 101
M  END
> <chiral flag>
0

> <version>
0

> <s_m_source_file>
/data/baiqing/PycharmProjects/Reinvent-master-3.2/result/LINK_invent/BTK/process_docking_weight1_custom_sum_contain_oxygen_bond_distance_aromatic_linkinvent_7_9_3/rearranged_h_0168.sdf

> <i_m_source_file_index>
92

> <r_mmod_Potential_Energy-OPLS-2005>
88.781867980957

> <r_mmod_Stretch_Energy-OPLS-2005>
68.000617980957

> <r_mmod_Bend_Energy-OPLS-2005>
183.699569702148

> <r_mmod_Torsional_Energy-OPLS-2005>
313.121307373047

> <r_mmod_Improper_Torsional_Energy-OPLS-2005>
10.0059032440186

> <r_mmod_Van_der_Waal_Energy-OPLS-2005>
182.568252563477

> <r_mmod_Electrostatic_Energy-OPLS-2005>
-270.646545410156

> <r_mmod_Solvation_Energy-OPLS-2005>
-425.267181396484

> <b_mmod_Minimization_Converged-OPLS-2005>
0

> <r_mmod_RMS_Derivative-OPLS-2005>
7.37425088882446

$$$$
93
                    3D
 Structure written by MMmdl.
171180  0  0  1  0            999 V2000
  -30.7488  -14.4647   20.5835 C   0  0  0  0  0  0
  -30.4039  -12.3112   19.4279 C   0  0  0  0  0  0
  -29.4849  -12.5013   18.2067 C   0  0  0  0  0  0
  -28.0093  -12.3625   18.6225 C   0  0  0  0  0  0
  -27.6553  -13.2165   19.8698 C   0  0  2  0  0  0
  -28.6978  -13.0353   20.9960 C   0  0  0  0  0  0
  -25.2558  -13.8188   20.5691 C   0  0  0  0  0  0
  -24.1820  -13.0446   20.9177 C   0  0  0  0  0  0
  -24.6390  -11.6919   20.8735 C   0  0  0  0  0  0
  -23.9061  -10.4297   21.0400 C   0  0  0  0  0  0
  -24.3613   -9.4214   21.9178 C   0  0  0  0  0  0
  -23.6290   -8.2249   22.0753 C   0  0  0  0  0  0
  -22.4274   -8.0282   21.3542 C   0  0  0  0  0  0
  -21.9907   -9.0255   20.4644 C   0  0  0  0  0  0
  -22.7233  -10.2135   20.3050 C   0  0  0  0  0  0
  -21.6854   -6.0733   22.5276 C   0  0  0  0  0  0
  -21.4017   -6.5639   23.8211 C   0  0  0  0  0  0
  -21.3660   -5.6791   24.9172 C   0  0  0  0  0  0
  -21.6046   -4.3053   24.7223 C   0  0  0  0  0  0
  -21.8820   -3.8146   23.4344 C   0  0  0  0  0  0
  -21.9194   -4.6961   22.3399 C   0  0  0  0  0  0
  -22.7843  -13.5237   21.1840 C   0  0  0  0  0  0
  -22.1662   -4.2147   21.0976 F   0  0  0  0  0  0
  -21.5629   -3.4537   25.7737 F   0  0  0  0  0  0
  -30.0254  -13.3207   20.4331 N   0  0  0  0  0  0
  -26.2996  -12.9374   20.3365 N   0  0  0  0  0  0
  -25.9319  -11.6523   20.5776 N   0  0  0  0  0  0
  -22.0491  -12.8222   22.0397 N   0  0  0  0  0  0
  -25.4289  -15.1906   20.4119 N   0  0  0  0  0  0
  -31.8602  -14.6000   20.0665 O   0  0  0  0  0  0
  -21.6640   -6.8876   21.4238 O   0  0  0  0  0  0
  -22.3526  -14.5543   20.6692 O   0  0  0  0  0  0
  -24.6160  -31.8668   23.2095 C   0  0  0  0  0  0
  -25.9048  -32.4821   23.8385 C   0  0  1  0  0  0
  -27.2221  -27.4059   20.0912 C   0  0  0  0  0  0
  -25.5888  -33.8617   24.2308 N   0  0  0  0  0  0
  -23.4032  -30.4915   21.5515 C   0  0  2  0  0  0
  -24.8462  -28.9579   20.1094 C   0  0  0  0  0  0
  -22.7417  -29.4647   22.4990 C   0  0  0  0  0  0
  -18.0270  -28.1372   22.8489 C   0  0  0  0  0  0
  -24.1482  -36.7320   23.2640 C   0  0  0  0  0  0
  -25.9355  -30.8210   21.3687 C   0  0  0  0  0  0
  -26.0078  -29.4553   20.7114 C   0  0  0  0  0  0
  -27.1957  -28.6859   20.7003 C   0  0  0  0  0  0
  -26.0430  -26.9420   19.4625 C   0  0  0  0  0  0
  -24.8603  -27.7018   19.4826 C   0  0  0  0  0  0
  -23.6099  -29.8266   20.1651 C   0  0  0  0  0  0
  -25.4104  -36.3110   24.0332 C   0  0  1  0  0  0
  -20.5860  -28.3658   23.1315 C   0  0  2  0  0  0
  -20.6760  -26.9394   22.5415 C   0  0  0  0  0  0
  -19.5739  -26.6378   21.5210 C   0  0  0  0  0  0
  -18.1917  -26.7916   22.1623 C   0  0  0  0  0  0
  -19.1520  -28.8830   23.2896 C   0  0  0  0  0  0
  -18.9455  -30.1438   23.8902 C   0  0  0  0  0  0
  -17.6461  -30.6583   24.0563 C   0  0  0  0  0  0
  -25.9030  -34.9476   23.5121 C   0  0  0  0  0  0
  -16.5348  -29.9084   23.6333 C   0  0  0  0  0  0
  -16.7259  -28.6502   23.0350 C   0  0  0  0  0  0
  -26.4456  -31.6616   25.0734 C   0  0  0  0  0  0
  -25.3722  -31.3744   26.1494 C   0  0  0  0  0  0
  -27.0296  -30.3052   24.6141 C   0  0  0  0  0  0
  -27.6017  -32.4349   25.7505 C   0  0  0  0  0  0
  -27.5577  -37.1814   24.8461 C   0  0  0  0  0  0
  -21.4143  -29.3027   22.3731 N   0  0  0  0  0  0
  -26.4292  -37.3794   23.9401 N   0  0  0  0  0  0
  -24.6699  -31.0747   22.1010 N   0  0  0  0  0  0
  -23.4192  -28.8185   23.3026 O   0  0  0  0  0  0
  -28.3927  -26.6660   20.1356 O   0  0  0  0  0  0
  -26.5615  -34.8931   22.4699 O   0  0  0  0  0  0
  -23.5351  -32.1434   23.7477 O   0  0  0  0  0  0
  -30.4007  -20.4097   22.3278 C   0  0  0  0  0  0
  -29.1152  -20.5624   21.7434 C   0  0  0  0  0  0
  -31.0370  -19.1428   22.2716 C   0  0  0  0  0  0
  -28.5309  -19.4043   21.1557 C   0  0  0  0  0  0
  -30.3513  -18.0439   21.6971 C   0  0  0  0  0  0
  -31.0728  -21.5546   23.0965 C   0  0  0  0  0  0
  -30.1988  -22.7854   23.3877 C   0  0  0  0  0  0
  -28.6992  -22.4845   23.2951 C   0  0  0  0  0  0
  -28.3467  -21.9003   21.9106 C   0  0  1  0  0  0
  -32.4298  -18.9616   22.8812 C   0  0  0  0  0  0
  -27.1437  -19.4243   20.5391 C   0  0  0  0  0  0
  -26.4795  -24.2676   21.2259 C   0  0  0  0  0  0
  -30.9873  -16.6452   21.7156 C   0  0  0  0  0  0
  -28.4106  -25.2534   19.8072 C   0  0  0  0  0  0
  -28.0064  -24.2873   20.9745 C   0  0  2  0  0  0
  -29.1295  -18.1852   21.1401 N   0  0  0  0  0  0
  -30.1993  -15.4767   21.2804 N   0  0  0  0  0  0
  -28.5595  -22.8912   20.7971 N   0  3  0  0  0  0
  -31.4508  -12.3796   19.1271 H   0  0  0  0  0  0
  -30.2848  -11.3092   19.8435 H   0  0  0  0  0  0
  -29.7250  -11.7687   17.4349 H   0  0  0  0  0  0
  -29.6545  -13.4831   17.7621 H   0  0  0  0  0  0
  -27.8243  -11.3084   18.8313 H   0  0  0  0  0  0
  -27.3563  -12.6245   17.7896 H   0  0  0  0  0  0
  -27.6901  -14.2594   19.5544 H   0  0  0  0  0  0
  -28.6747  -12.0135   21.3772 H   0  0  0  0  0  0
  -28.4605  -13.6736   21.8478 H   0  0  0  0  0  0
  -25.2757   -9.5695   22.4752 H   0  0  0  0  0  0
  -24.0000   -7.4644   22.7475 H   0  0  0  0  0  0
  -21.0838   -8.8768   19.8949 H   0  0  0  0  0  0
  -22.3686  -10.9670   19.6158 H   0  0  0  0  0  0
  -21.2011   -7.6149   23.9712 H   0  0  0  0  0  0
  -21.1481   -6.0522   25.9074 H   0  0  0  0  0  0
  -22.0600   -2.7608   23.2843 H   0  0  0  0  0  0
  -22.4109  -11.9879   22.4774 H   0  0  0  0  0  0
  -21.1110  -13.1242   22.2606 H   0  0  0  0  0  0
  -24.6685  -15.8507   20.5308 H   0  0  0  0  0  0
  -26.2934  -15.6286   20.1184 H   0  0  0  0  0  0
  -26.7121  -32.5513   23.1144 H   0  0  0  0  0  0
  -24.9999  -33.9771   25.0428 H   0  0  0  0  0  0
  -22.6923  -31.3092   21.4148 H   0  0  0  0  0  0
  -23.3741  -35.9658   23.3311 H   0  0  0  0  0  0
  -24.3566  -36.8932   22.2051 H   0  0  0  0  0  0
  -23.7244  -37.6528   23.6660 H   0  0  0  0  0  0
  -26.0565  -31.5881   20.6022 H   0  0  0  0  0  0
  -26.8202  -30.8685   21.9920 H   0  0  0  0  0  0
  -28.0901  -29.0624   21.1767 H   0  0  0  0  0  0
  -25.9973  -25.9888   18.9606 H   0  0  0  0  0  0
  -23.9687  -27.3153   19.0074 H   0  0  0  0  0  0
  -23.7158  -30.6025   19.4056 H   0  0  0  0  0  0
  -22.7329  -29.2466   19.8718 H   0  0  0  0  0  0
  -25.1283  -36.1975   25.0825 H   0  0  0  0  0  0
  -20.9941  -28.3225   24.1441 H   0  0  0  0  0  0
  -20.5660  -26.2265   23.3601 H   0  0  0  0  0  0
  -21.6631  -26.7438   22.1211 H   0  0  0  0  0  0
  -19.6904  -25.6295   21.1228 H   0  0  0  0  0  0
  -19.6679  -27.3201   20.6752 H   0  0  0  0  0  0
  -17.4184  -26.6660   21.4028 H   0  0  0  0  0  0
  -18.0319  -26.0055   22.9017 H   0  0  0  0  0  0
  -19.7939  -30.7241   24.2274 H   0  0  0  0  0  0
  -17.5028  -31.6266   24.5164 H   0  0  0  0  0  0
  -15.5352  -30.2993   23.7659 H   0  0  0  0  0  0
  -15.8655  -28.0831   22.7060 H   0  0  0  0  0  0
  -24.5869  -30.7113   25.7846 H   0  0  0  0  0  0
  -24.8947  -32.2913   26.4959 H   0  0  0  0  0  0
  -25.8070  -30.8904   27.0249 H   0  0  0  0  0  0
  -26.2861  -29.6822   24.1158 H   0  0  0  0  0  0
  -27.4011  -29.7281   25.4618 H   0  0  0  0  0  0
  -27.8715  -30.4356   23.9339 H   0  0  0  0  0  0
  -27.2612  -33.3635   26.2102 H   0  0  0  0  0  0
  -28.3820  -32.6941   25.0336 H   0  0  0  0  0  0
  -28.0698  -31.8474   26.5415 H   0  0  0  0  0  0
  -28.2602  -38.0106   24.7506 H   0  0  0  0  0  0
  -28.1064  -36.2638   24.6288 H   0  0  0  0  0  0
  -27.2291  -37.1458   25.8864 H   0  0  0  0  0  0
  -20.9305  -29.8775   21.6975 H   0  0  0  0  0  0
  -26.0184  -38.2875   24.1404 H   0  0  0  0  0  0
  -31.9754  -21.8682   22.5699 H   0  0  0  0  0  0
  -31.4006  -21.1562   24.0575 H   0  0  0  0  0  0
  -30.4530  -23.5705   22.6758 H   0  0  0  0  0  0
  -30.4496  -23.1960   24.3662 H   0  0  0  0  0  0
  -28.1114  -23.3694   23.5348 H   0  0  0  0  0  0
  -28.4327  -21.7595   24.0659 H   0  0  0  0  0  0
  -27.2837  -21.6636   21.9363 H   0  0  0  0  0  0
  -33.0489  -19.8485   22.7504 H   0  0  0  0  0  0
  -32.9962  -18.1511   22.4265 H   0  0  0  0  0  0
  -32.3507  -18.7582   23.9497 H   0  0  0  0  0  0
  -26.3838  -19.5260   21.3137 H   0  0  0  0  0  0
  -26.9367  -18.5019   19.9945 H   0  0  0  0  0  0
  -27.0384  -20.2490   19.8354 H   0  0  0  0  0  0
  -26.1099  -25.2564   21.4921 H   0  0  0  0  0  0
  -26.1976  -23.6267   22.0592 H   0  0  0  0  0  0
  -25.9288  -23.9266   20.3483 H   0  0  0  0  0  0
  -31.3059  -16.4358   22.7372 H   0  0  0  0  0  0
  -31.9004  -16.7357   21.1265 H   0  0  0  0  0  0
  -27.8767  -25.0270   18.8849 H   0  0  0  0  0  0
  -29.4538  -25.0543   19.5606 H   0  0  0  0  0  0
  -28.4832  -24.7162   21.8547 H   0  0  0  0  0  0
  -29.2549  -15.3980   21.6231 H   0  0  0  0  0  0
  -28.1828  -22.4942   19.9497 H   0  0  0  0  0  0
  -29.5547  -22.9664   20.6498 H   0  0  0  0  0  0
  1 25  1  0  0  0
  1 30  2  0  0  0
  1 87  1  0  0  0
  2  3  1  0  0  0
  2 25  1  0  0  0
  2 89  1  0  0  0
  2 90  1  0  0  0
  3  4  1  0  0  0
  3 91  1  0  0  0
  3 92  1  0  0  0
  4  5  1  0  0  0
  4 93  1  0  0  0
  4 94  1  0  0  0
  5  6  1  0  0  0
  5 26  1  0  0  0
  5 95  1  0  0  0
  6 25  1  0  0  0
  6 96  1  0  0  0
  6 97  1  0  0  0
  7  8  2  0  0  0
  7 26  1  0  0  0
  7 29  1  0  0  0
  8  9  1  0  0  0
  8 22  1  0  0  0
  9 10  1  0  0  0
  9 27  2  0  0  0
 10 11  2  0  0  0
 10 15  1  0  0  0
 11 12  1  0  0  0
 11 98  1  0  0  0
 12 13  2  0  0  0
 12 99  1  0  0  0
 13 14  1  0  0  0
 13 31  1  0  0  0
 14 15  2  0  0  0
 14100  1  0  0  0
 15101  1  0  0  0
 16 17  2  0  0  0
 16 21  1  0  0  0
 16 31  1  0  0  0
 17 18  1  0  0  0
 17102  1  0  0  0
 18 19  2  0  0  0
 18103  1  0  0  0
 19 20  1  0  0  0
 19 24  1  0  0  0
 20 21  2  0  0  0
 20104  1  0  0  0
 21 23  1  0  0  0
 22 28  1  0  0  0
 22 32  2  0  0  0
 26 27  1  0  0  0
 28105  1  0  0  0
 28106  1  0  0  0
 29107  1  0  0  0
 29108  1  0  0  0
 33 34  1  0  0  0
 33 66  1  0  0  0
 33 70  2  0  0  0
 34 36  1  0  0  0
 34 59  1  0  0  0
 34109  1  0  0  0
 35 44  2  0  0  0
 35 45  1  0  0  0
 35 68  1  0  0  0
 36 56  1  0  0  0
 36110  1  0  0  0
 37 39  1  0  0  0
 37 47  1  0  0  0
 37 66  1  0  0  0
 37111  1  0  0  0
 38 43  2  0  0  0
 38 46  1  0  0  0
 38 47  1  0  0  0
 39 64  1  0  0  0
 39 67  2  0  0  0
 40 52  1  0  0  0
 40 53  2  0  0  0
 40 58  1  0  0  0
 41112  1  0  0  0
 41113  1  0  0  0
 41114  1  0  0  0
 41 48  1  0  0  0
 42 43  1  0  0  0
 42 66  1  0  0  0
 42115  1  0  0  0
 42116  1  0  0  0
 43 44  1  0  0  0
 44117  1  0  0  0
 45 46  2  0  0  0
 45118  1  0  0  0
 46119  1  0  0  0
 47120  1  0  0  0
 47121  1  0  0  0
 48 56  1  0  0  0
 48 65  1  0  0  0
 48122  1  0  0  0
 49 50  1  0  0  0
 49 53  1  0  0  0
 49 64  1  0  0  0
 49123  1  0  0  0
 50 51  1  0  0  0
 50124  1  0  0  0
 50125  1  0  0  0
 51 52  1  0  0  0
 51126  1  0  0  0
 51127  1  0  0  0
 52128  1  0  0  0
 52129  1  0  0  0
 53 54  1  0  0  0
 54 55  2  0  0  0
 54130  1  0  0  0
 55 57  1  0  0  0
 55131  1  0  0  0
 56 69  2  0  0  0
 57 58  2  0  0  0
 57132  1  0  0  0
 58133  1  0  0  0
 59 60  1  0  0  0
 59 61  1  0  0  0
 59 62  1  0  0  0
 60134  1  0  0  0
 60135  1  0  0  0
 60136  1  0  0  0
 61137  1  0  0  0
 61138  1  0  0  0
 61139  1  0  0  0
 62140  1  0  0  0
 62141  1  0  0  0
 62142  1  0  0  0
 63 65  1  0  0  0
 63143  1  0  0  0
 63144  1  0  0  0
 63145  1  0  0  0
 64146  1  0  0  0
 65147  1  0  0  0
 68 84  1  0  0  0
 71 72  1  0  0  0
 71 73  2  0  0  0
 71 76  1  0  0  0
 72 74  2  0  0  0
 72 79  1  0  0  0
 73 75  1  0  0  0
 73 80  1  0  0  0
 74 81  1  0  0  0
 74 86  1  0  0  0
 75 83  1  0  0  0
 75 86  2  0  0  0
 76 77  1  0  0  0
 76148  1  0  0  0
 76149  1  0  0  0
 77 78  1  0  0  0
 77150  1  0  0  0
 77151  1  0  0  0
 78 79  1  0  0  0
 78152  1  0  0  0
 78153  1  0  0  0
 79 88  1  0  0  0
 79154  1  0  0  0
 80155  1  0  0  0
 80156  1  0  0  0
 80157  1  0  0  0
 81158  1  0  0  0
 81159  1  0  0  0
 81160  1  0  0  0
 82161  1  0  0  0
 82162  1  0  0  0
 82163  1  0  0  0
 82 85  1  0  0  0
 83 87  1  0  0  0
 83164  1  0  0  0
 83165  1  0  0  0
 84 85  1  0  0  0
 84166  1  0  0  0
 84167  1  0  0  0
 85 88  1  0  0  0
 85168  1  0  0  0
 87169  1  0  0  0
 88170  1  0  0  0
 88171  1  0  0  0
M  CHG  1  88   1
M  ISO  4   1 100  68 101  84 101  87 100
M  END
> <chiral flag>
0

> <version>
0

> <s_m_source_file>
/data/baiqing/PycharmProjects/Reinvent-master-3.2/result/LINK_invent/BTK/process_docking_weight1_custom_sum_contain_oxygen_bond_distance_aromatic_linkinvent_7_9_3/rearranged_h_0168.sdf

> <i_m_source_file_index>
93

> <r_mmod_Potential_Energy-OPLS-2005>
-368.485321044922

> <r_mmod_Stretch_Energy-OPLS-2005>
49.641731262207

> <r_mmod_Bend_Energy-OPLS-2005>
126.431488037109

> <r_mmod_Torsional_Energy-OPLS-2005>
207.414245605469

> <r_mmod_Improper_Torsional_Energy-OPLS-2005>
2.68116426467896

> <r_mmod_Van_der_Waal_Energy-OPLS-2005>
175.401138305664

> <r_mmod_Electrostatic_Energy-OPLS-2005>
-504.461364746094

> <r_mmod_Solvation_Energy-OPLS-2005>
-442.252349853516

> <b_mmod_Minimization_Converged-OPLS-2005>
0

> <r_mmod_RMS_Derivative-OPLS-2005>
0.83877432346344

$$$$
94
                    3D
 Structure written by MMmdl.
170180  0  0  1  0            999 V2000
  -30.7142  -14.4577   20.3871 C   0  0  0  0  0  0
  -30.4348  -12.2383   19.4332 C   0  0  0  0  0  0
  -29.4877  -12.3699   18.2174 C   0  0  0  0  0  0
  -28.0051  -12.3134   18.6357 C   0  0  0  0  0  0
  -27.6619  -13.1992   19.8636 C   0  0  2  0  0  0
  -28.7217  -13.0393   20.9803 C   0  0  0  0  0  0
  -25.2647  -13.8145   20.5745 C   0  0  0  0  0  0
  -24.1887  -13.0440   20.9241 C   0  0  0  0  0  0
  -24.6438  -11.6908   20.8822 C   0  0  0  0  0  0
  -23.9077  -10.4308   21.0456 C   0  0  0  0  0  0
  -24.3610   -9.4207   21.9225 C   0  0  0  0  0  0
  -23.6281   -8.2240   22.0767 C   0  0  0  0  0  0
  -22.4275   -8.0285   21.3538 C   0  0  0  0  0  0
  -21.9911   -9.0268   20.4644 C   0  0  0  0  0  0
  -22.7245  -10.2162   20.3082 C   0  0  0  0  0  0
  -21.6854   -6.0757   22.5289 C   0  0  0  0  0  0
  -21.4009   -6.5661   23.8224 C   0  0  0  0  0  0
  -21.3657   -5.6803   24.9183 C   0  0  0  0  0  0
  -21.6043   -4.3064   24.7220 C   0  0  0  0  0  0
  -21.8824   -3.8169   23.4340 C   0  0  0  0  0  0
  -21.9197   -4.6989   22.3404 C   0  0  0  0  0  0
  -22.7900  -13.5274   21.1841 C   0  0  0  0  0  0
  -22.1677   -4.2197   21.0968 F   0  0  0  0  0  0
  -21.5608   -3.4531   25.7715 F   0  0  0  0  0  0
  -30.0529  -13.2725   20.3998 N   0  0  0  0  0  0
  -26.3075  -12.9298   20.3432 N   0  0  0  0  0  0
  -25.9385  -11.6491   20.5918 N   0  0  0  0  0  0
  -22.0497  -12.8287   22.0349 N   0  0  0  0  0  0
  -25.4358  -15.1846   20.4111 N   0  0  0  0  0  0
  -31.9390  -14.5553   20.3534 O   0  0  0  0  0  0
  -21.6633   -6.8890   21.4243 O   0  0  0  0  0  0
  -22.3624  -14.5596   20.6673 O   0  0  0  0  0  0
  -24.6108  -31.8712   23.2114 C   0  0  0  0  0  0
  -25.9008  -32.4842   23.8423 C   0  0  1  0  0  0
  -27.2426  -27.4645   20.1090 C   0  0  0  0  0  0
  -25.5874  -33.8636   24.2345 N   0  0  0  0  0  0
  -23.3992  -30.4918   21.5489 C   0  0  2  0  0  0
  -24.8520  -28.9541   20.1193 C   0  0  0  0  0  0
  -22.7395  -29.4671   22.4995 C   0  0  0  0  0  0
  -18.0255  -28.1372   22.8479 C   0  0  0  0  0  0
  -24.1482  -36.7333   23.2639 C   0  0  0  0  0  0
  -25.9248  -30.8470   21.3617 C   0  0  0  0  0  0
  -26.0075  -29.4778   20.7188 C   0  0  0  0  0  0
  -27.2070  -28.7364   20.7176 C   0  0  0  0  0  0
  -26.0837  -26.9498   19.4980 C   0  0  0  0  0  0
  -24.8818  -27.6866   19.5107 C   0  0  0  0  0  0
  -23.6089  -29.8135   20.1671 C   0  0  0  0  0  0
  -25.4104  -36.3130   24.0338 C   0  0  1  0  0  0
  -20.5846  -28.3664   23.1313 C   0  0  2  0  0  0
  -20.6745  -26.9407   22.5412 C   0  0  0  0  0  0
  -19.5726  -26.6365   21.5210 C   0  0  0  0  0  0
  -18.1888  -26.7906   22.1611 C   0  0  0  0  0  0
  -19.1501  -28.8831   23.2888 C   0  0  0  0  0  0
  -18.9454  -30.1429   23.8913 C   0  0  0  0  0  0
  -17.6458  -30.6588   24.0555 C   0  0  0  0  0  0
  -25.9038  -34.9503   23.5126 C   0  0  0  0  0  0
  -16.5351  -29.9075   23.6336 C   0  0  0  0  0  0
  -16.7240  -28.6495   23.0353 C   0  0  0  0  0  0
  -26.4453  -31.6648   25.0760 C   0  0  0  0  0  0
  -25.3721  -31.3732   26.1531 C   0  0  0  0  0  0
  -27.0308  -30.3103   24.6137 C   0  0  0  0  0  0
  -27.6023  -32.4387   25.7497 C   0  0  0  0  0  0
  -27.5575  -37.1816   24.8455 C   0  0  0  0  0  0
  -21.4126  -29.3044   22.3742 N   0  0  0  0  0  0
  -26.4285  -37.3816   23.9411 N   0  0  0  0  0  0
  -24.6625  -31.0842   22.1008 N   0  0  0  0  0  0
  -23.4182  -28.8194   23.3025 O   0  0  0  0  0  0
  -28.3853  -26.7108   20.0936 O   0  0  0  0  0  0
  -26.5604  -34.8929   22.4689 O   0  0  0  0  0  0
  -23.5303  -32.1435   23.7532 O   0  0  0  0  0  0
  -31.2277  -23.1723   21.1422 C   0  0  0  0  0  0
  -28.5815  -23.7241   20.4160 C   0  0  0  0  0  0
  -30.4879  -22.2074   20.4233 C   0  0  0  0  0  0
  -29.1446  -22.4765   20.0767 C   0  0  0  0  0  0
  -30.6638  -24.4221   21.4876 C   0  0  0  0  0  0
  -29.3326  -24.7114   21.0899 C   0  0  0  0  0  0
  -28.2841  -21.4640   19.3362 C   0  0  0  0  0  0
  -31.1811  -20.9358   19.9542 C   0  0  0  0  0  0
  -29.0721  -20.3262   18.6711 C   0  0  0  0  0  0
  -29.3480  -16.7354   18.3508 C   0  0  0  0  0  0
  -30.5914  -15.8745   18.3628 C   0  0  0  0  0  0
  -30.2384  -19.7923   19.5263 C   0  0  2  0  0  0
  -29.4016  -16.6325   19.8817 C   0  0  2  0  0  0
  -31.5153  -25.4348   22.2408 C   0  0  0  0  0  0
  -28.6646  -26.0589   21.3332 C   0  0  0  0  0  0
  -30.2586  -17.5964   20.7411 C   0  0  0  0  0  0
  -30.0445  -15.3295   19.6132 N   0  0  0  0  0  0
  -29.7605  -18.9954   20.6884 N   0  3  0  0  0  0
  -31.4733  -12.3321   19.1091 H   0  0  0  0  0  0
  -30.3561  -11.2491   19.8885 H   0  0  0  0  0  0
  -29.6917  -11.5676   17.5093 H   0  0  0  0  0  0
  -29.6721  -13.2930   17.6756 H   0  0  0  0  0  0
  -27.7857  -11.2702   18.8662 H   0  0  0  0  0  0
  -27.3696  -12.5830   17.7901 H   0  0  0  0  0  0
  -27.6813  -14.2318   19.5225 H   0  0  0  0  0  0
  -28.6823  -12.0341   21.4016 H   0  0  0  0  0  0
  -28.5284  -13.7313   21.8025 H   0  0  0  0  0  0
  -25.2742   -9.5670   22.4830 H   0  0  0  0  0  0
  -23.9993   -7.4631   22.7493 H   0  0  0  0  0  0
  -21.0833   -8.8786   19.8931 H   0  0  0  0  0  0
  -22.3702  -10.9716   19.6197 H   0  0  0  0  0  0
  -21.2006   -7.6162   23.9737 H   0  0  0  0  0  0
  -21.1460   -6.0521   25.9078 H   0  0  0  0  0  0
  -22.0599   -2.7633   23.2818 H   0  0  0  0  0  0
  -22.4067  -11.9957   22.4779 H   0  0  0  0  0  0
  -21.1115  -13.1354   22.2487 H   0  0  0  0  0  0
  -24.6642  -15.8332   20.5158 H   0  0  0  0  0  0
  -26.2863  -15.6200   20.0798 H   0  0  0  0  0  0
  -26.7092  -32.5585   23.1221 H   0  0  0  0  0  0
  -25.0092  -33.9852   25.0518 H   0  0  0  0  0  0
  -22.6829  -31.3026   21.3981 H   0  0  0  0  0  0
  -23.3747  -35.9659   23.3299 H   0  0  0  0  0  0
  -24.3577  -36.8967   22.2062 H   0  0  0  0  0  0
  -23.7255  -37.6524   23.6676 H   0  0  0  0  0  0
  -26.0343  -31.6047   20.5819 H   0  0  0  0  0  0
  -26.8146  -30.9041   21.9805 H   0  0  0  0  0  0
  -28.1004  -29.1338   21.1799 H   0  0  0  0  0  0
  -26.1107  -25.9765   19.0300 H   0  0  0  0  0  0
  -23.9925  -27.2726   19.0586 H   0  0  0  0  0  0
  -23.7087  -30.5805   19.3967 H   0  0  0  0  0  0
  -22.7351  -29.2222   19.8841 H   0  0  0  0  0  0
  -25.1287  -36.1986   25.0830 H   0  0  0  0  0  0
  -20.9949  -28.3234   24.1426 H   0  0  0  0  0  0
  -20.5648  -26.2297   23.3613 H   0  0  0  0  0  0
  -21.6609  -26.7429   22.1201 H   0  0  0  0  0  0
  -19.6911  -25.6265   21.1247 H   0  0  0  0  0  0
  -19.6670  -27.3170   20.6735 H   0  0  0  0  0  0
  -17.4177  -26.6679   21.3990 H   0  0  0  0  0  0
  -18.0279  -26.0018   22.8983 H   0  0  0  0  0  0
  -19.7949  -30.7216   24.2305 H   0  0  0  0  0  0
  -17.5036  -31.6286   24.5133 H   0  0  0  0  0  0
  -15.5362  -30.3008   23.7655 H   0  0  0  0  0  0
  -15.8634  -28.0835   22.7089 H   0  0  0  0  0  0
  -24.5849  -30.7115   25.7874 H   0  0  0  0  0  0
  -24.8951  -32.2889   26.5072 H   0  0  0  0  0  0
  -25.8105  -30.8842   27.0251 H   0  0  0  0  0  0
  -26.2871  -29.6831   24.1225 H   0  0  0  0  0  0
  -27.4122  -29.7394   25.4611 H   0  0  0  0  0  0
  -27.8650  -30.4435   23.9250 H   0  0  0  0  0  0
  -27.2642  -33.3683   26.2090 H   0  0  0  0  0  0
  -28.3811  -32.6995   25.0313 H   0  0  0  0  0  0
  -28.0706  -31.8518   26.5413 H   0  0  0  0  0  0
  -28.2590  -38.0112   24.7533 H   0  0  0  0  0  0
  -28.1087  -36.2672   24.6249 H   0  0  0  0  0  0
  -27.2298  -37.1400   25.8849 H   0  0  0  0  0  0
  -20.9300  -29.8836   21.7013 H   0  0  0  0  0  0
  -26.0185  -38.2883   24.1404 H   0  0  0  0  0  0
  -32.2582  -22.9675   21.4039 H   0  0  0  0  0  0
  -27.5610  -23.9387   20.1284 H   0  0  0  0  0  0
  -27.6920  -21.9771   18.5780 H   0  0  0  0  0  0
  -27.5638  -21.0502   20.0433 H   0  0  0  0  0  0
  -31.9016  -20.5912   20.6952 H   0  0  0  0  0  0
  -31.7766  -21.2224   19.0860 H   0  0  0  0  0  0
  -29.4916  -20.7009   17.7367 H   0  0  0  0  0  0
  -28.3804  -19.5384   18.3747 H   0  0  0  0  0  0
  -28.4949  -16.2148   17.9102 H   0  0  0  0  0  0
  -29.4890  -17.7095   17.8905 H   0  0  0  0  0  0
  -31.5251  -16.4310   18.4743 H   0  0  0  0  0  0
  -30.6645  -15.1782   17.5295 H   0  0  0  0  0  0
  -30.8388  -19.1353   18.8981 H   0  0  0  0  0  0
  -28.3947  -16.5184   20.2858 H   0  0  0  0  0  0
  -32.4765  -25.0132   22.5381 H   0  0  0  0  0  0
  -31.0172  -25.7630   23.1534 H   0  0  0  0  0  0
  -31.7162  -26.3126   21.6258 H   0  0  0  0  0  0
  -29.2733  -26.7192   21.9458 H   0  0  0  0  0  0
  -27.7526  -25.8718   21.9069 H   0  0  0  0  0  0
  -31.3180  -17.5695   20.4825 H   0  0  0  0  0  0
  -30.2124  -17.2826   21.7850 H   0  0  0  0  0  0
  -28.7547  -18.9814   20.7206 H   0  0  0  0  0  0
  -30.0762  -19.4721   21.5189 H   0  0  0  0  0  0
  1 25  1  0  0  0
  1 30  2  0  0  0
  1 87  1  0  0  0
  2  3  1  0  0  0
  2 25  1  0  0  0
  2 89  1  0  0  0
  2 90  1  0  0  0
  3  4  1  0  0  0
  3 91  1  0  0  0
  3 92  1  0  0  0
  4  5  1  0  0  0
  4 93  1  0  0  0
  4 94  1  0  0  0
  5  6  1  0  0  0
  5 26  1  0  0  0
  5 95  1  0  0  0
  6 25  1  0  0  0
  6 96  1  0  0  0
  6 97  1  0  0  0
  7  8  2  0  0  0
  7 26  1  0  0  0
  7 29  1  0  0  0
  8  9  1  0  0  0
  8 22  1  0  0  0
  9 10  1  0  0  0
  9 27  2  0  0  0
 10 11  2  0  0  0
 10 15  1  0  0  0
 11 12  1  0  0  0
 11 98  1  0  0  0
 12 13  2  0  0  0
 12 99  1  0  0  0
 13 14  1  0  0  0
 13 31  1  0  0  0
 14 15  2  0  0  0
 14100  1  0  0  0
 15101  1  0  0  0
 16 17  2  0  0  0
 16 21  1  0  0  0
 16 31  1  0  0  0
 17 18  1  0  0  0
 17102  1  0  0  0
 18 19  2  0  0  0
 18103  1  0  0  0
 19 20  1  0  0  0
 19 24  1  0  0  0
 20 21  2  0  0  0
 20104  1  0  0  0
 21 23  1  0  0  0
 22 28  1  0  0  0
 22 32  2  0  0  0
 26 27  1  0  0  0
 28105  1  0  0  0
 28106  1  0  0  0
 29107  1  0  0  0
 29108  1  0  0  0
 33 34  1  0  0  0
 33 66  1  0  0  0
 33 70  2  0  0  0
 34 36  1  0  0  0
 34 59  1  0  0  0
 34109  1  0  0  0
 35 44  2  0  0  0
 35 45  1  0  0  0
 35 68  1  0  0  0
 36 56  1  0  0  0
 36110  1  0  0  0
 37 39  1  0  0  0
 37 47  1  0  0  0
 37 66  1  0  0  0
 37111  1  0  0  0
 38 43  2  0  0  0
 38 46  1  0  0  0
 38 47  1  0  0  0
 39 64  1  0  0  0
 39 67  2  0  0  0
 40 52  1  0  0  0
 40 53  2  0  0  0
 40 58  1  0  0  0
 41112  1  0  0  0
 41113  1  0  0  0
 41114  1  0  0  0
 41 48  1  0  0  0
 42 43  1  0  0  0
 42 66  1  0  0  0
 42115  1  0  0  0
 42116  1  0  0  0
 43 44  1  0  0  0
 44117  1  0  0  0
 45 46  2  0  0  0
 45118  1  0  0  0
 46119  1  0  0  0
 47120  1  0  0  0
 47121  1  0  0  0
 48 56  1  0  0  0
 48 65  1  0  0  0
 48122  1  0  0  0
 49 50  1  0  0  0
 49 53  1  0  0  0
 49 64  1  0  0  0
 49123  1  0  0  0
 50 51  1  0  0  0
 50124  1  0  0  0
 50125  1  0  0  0
 51 52  1  0  0  0
 51126  1  0  0  0
 51127  1  0  0  0
 52128  1  0  0  0
 52129  1  0  0  0
 53 54  1  0  0  0
 54 55  2  0  0  0
 54130  1  0  0  0
 55 57  1  0  0  0
 55131  1  0  0  0
 56 69  2  0  0  0
 57 58  2  0  0  0
 57132  1  0  0  0
 58133  1  0  0  0
 59 60  1  0  0  0
 59 61  1  0  0  0
 59 62  1  0  0  0
 60134  1  0  0  0
 60135  1  0  0  0
 60136  1  0  0  0
 61137  1  0  0  0
 61138  1  0  0  0
 61139  1  0  0  0
 62140  1  0  0  0
 62141  1  0  0  0
 62142  1  0  0  0
 63 65  1  0  0  0
 63143  1  0  0  0
 63144  1  0  0  0
 63145  1  0  0  0
 64146  1  0  0  0
 65147  1  0  0  0
 68 85  1  0  0  0
 71 73  2  0  0  0
 71 75  1  0  0  0
 71148  1  0  0  0
 72 74  2  0  0  0
 72 76  1  0  0  0
 72149  1  0  0  0
 73 74  1  0  0  0
 73 78  1  0  0  0
 74 77  1  0  0  0
 75 76  2  0  0  0
 75 84  1  0  0  0
 76 85  1  0  0  0
 77 79  1  0  0  0
 77150  1  0  0  0
 77151  1  0  0  0
 78 82  1  0  0  0
 78152  1  0  0  0
 78153  1  0  0  0
 79 82  1  0  0  0
 79154  1  0  0  0
 79155  1  0  0  0
 80 81  1  0  0  0
 80 83  1  0  0  0
 80156  1  0  0  0
 80157  1  0  0  0
 81 87  1  0  0  0
 81158  1  0  0  0
 81159  1  0  0  0
 82 88  1  0  0  0
 82160  1  0  0  0
 83 86  1  0  0  0
 83 87  1  0  0  0
 83161  1  0  0  0
 84162  1  0  0  0
 84163  1  0  0  0
 84164  1  0  0  0
 85165  1  0  0  0
 85166  1  0  0  0
 86 88  1  0  0  0
 86167  1  0  0  0
 86168  1  0  0  0
 88169  1  0  0  0
 88170  1  0  0  0
M  CHG  1  88   1
M  ISO  4   1 100  68 101  85 101  87 100
M  END
> <chiral flag>
0

> <version>
0

> <s_m_source_file>
/data/baiqing/PycharmProjects/Reinvent-master-3.2/result/LINK_invent/BTK/process_docking_weight1_custom_sum_contain_oxygen_bond_distance_aromatic_linkinvent_7_9_3/rearranged_h_0168.sdf

> <i_m_source_file_index>
94

> <r_mmod_Potential_Energy-OPLS-2005>
33.3656044006348

> <r_mmod_Stretch_Energy-OPLS-2005>
36.5993576049805

> <r_mmod_Bend_Energy-OPLS-2005>
118.44091796875

> <r_mmod_Torsional_Energy-OPLS-2005>
385.377197265625

> <r_mmod_Improper_Torsional_Energy-OPLS-2005>
37.2781944274902

> <r_mmod_Van_der_Waal_Energy-OPLS-2005>
148.248321533203

> <r_mmod_Electrostatic_Energy-OPLS-2005>
-268.751342773438

> <r_mmod_Solvation_Energy-OPLS-2005>
-457.156433105469

> <b_mmod_Minimization_Converged-OPLS-2005>
0

> <r_mmod_RMS_Derivative-OPLS-2005>
4.8701639175415

$$$$
95
                    3D
 Structure written by MMmdl.
178187  0  0  1  0            999 V2000
  -30.7189  -14.5513   20.5763 C   0  0  0  0  0  0
  -30.4208  -12.3638   19.4464 C   0  0  0  0  0  0
  -29.4995  -12.5035   18.2174 C   0  0  0  0  0  0
  -28.0185  -12.3628   18.6232 C   0  0  0  0  0  0
  -27.6499  -13.2188   19.8651 C   0  0  2  0  0  0
  -28.6935  -13.0431   20.9887 C   0  0  0  0  0  0
  -25.2432  -13.8091   20.5652 C   0  0  0  0  0  0
  -24.1770  -13.0345   20.9196 C   0  0  0  0  0  0
  -24.6372  -11.6845   20.8752 C   0  0  0  0  0  0
  -23.9059  -10.4236   21.0392 C   0  0  0  0  0  0
  -24.3600   -9.4168   21.9175 C   0  0  0  0  0  0
  -23.6280   -8.2200   22.0754 C   0  0  0  0  0  0
  -22.4262   -8.0241   21.3542 C   0  0  0  0  0  0
  -21.9895   -9.0210   20.4646 C   0  0  0  0  0  0
  -22.7218  -10.2084   20.3047 C   0  0  0  0  0  0
  -21.6829   -6.0715   22.5280 C   0  0  0  0  0  0
  -21.4000   -6.5620   23.8216 C   0  0  0  0  0  0
  -21.3667   -5.6773   24.9183 C   0  0  0  0  0  0
  -21.6049   -4.3037   24.7221 C   0  0  0  0  0  0
  -21.8814   -3.8130   23.4337 C   0  0  0  0  0  0
  -21.9181   -4.6948   22.3399 C   0  0  0  0  0  0
  -22.7781  -13.5148   21.1831 C   0  0  0  0  0  0
  -22.1622   -4.2141   21.0970 F   0  0  0  0  0  0
  -21.5651   -3.4510   25.7728 F   0  0  0  0  0  0
  -30.0133  -13.3834   20.4363 N   0  0  0  0  0  0
  -26.2948  -12.9346   20.3312 N   0  0  0  0  0  0
  -25.9319  -11.6478   20.5752 N   0  0  0  0  0  0
  -22.0438  -12.8190   22.0421 N   0  0  0  0  0  0
  -25.3863  -15.1812   20.3994 N   0  0  0  0  0  0
  -31.8578  -14.6527   20.1101 O   0  0  0  0  0  0
  -21.6617   -6.8856   21.4239 O   0  0  0  0  0  0
  -22.3485  -14.5438   20.6643 O   0  0  0  0  0  0
  -24.6204  -31.8723   23.2118 C   0  0  0  0  0  0
  -25.9083  -32.4853   23.8445 C   0  0  1  0  0  0
  -27.2103  -27.3902   20.1105 C   0  0  0  0  0  0
  -25.5949  -33.8654   24.2359 N   0  0  0  0  0  0
  -23.4071  -30.4987   21.5601 C   0  0  2  0  0  0
  -24.8465  -28.9690   20.1172 C   0  0  0  0  0  0
  -22.7469  -29.4667   22.5029 C   0  0  0  0  0  0
  -18.0313  -28.1339   22.8488 C   0  0  0  0  0  0
  -24.1489  -36.7316   23.2640 C   0  0  0  0  0  0
  -25.9441  -30.8245   21.3767 C   0  0  0  0  0  0
  -26.0116  -29.4562   20.7230 C   0  0  0  0  0  0
  -27.1959  -28.6756   20.7135 C   0  0  0  0  0  0
  -26.0351  -26.9637   19.4531 C   0  0  0  0  0  0
  -24.8583  -27.7260   19.4714 C   0  0  0  0  0  0
  -23.6149  -29.8447   20.1699 C   0  0  0  0  0  0
  -25.4123  -36.3133   24.0334 C   0  0  1  0  0  0
  -20.5911  -28.3627   23.1310 C   0  0  2  0  0  0
  -20.6849  -26.9386   22.5358 C   0  0  0  0  0  0
  -19.5785  -26.6324   21.5223 C   0  0  0  0  0  0
  -18.1950  -26.7910   22.1569 C   0  0  0  0  0  0
  -19.1566  -28.8786   23.2923 C   0  0  0  0  0  0
  -18.9469  -30.1381   23.8943 C   0  0  0  0  0  0
  -17.6466  -30.6525   24.0591 C   0  0  0  0  0  0
  -25.9054  -34.9489   23.5137 C   0  0  0  0  0  0
  -16.5353  -29.9035   23.6338 C   0  0  0  0  0  0
  -16.7300  -28.6461   23.0353 C   0  0  0  0  0  0
  -26.4499  -31.6608   25.0752 C   0  0  0  0  0  0
  -25.3730  -31.3699   26.1456 C   0  0  0  0  0  0
  -27.0322  -30.3055   24.6118 C   0  0  0  0  0  0
  -27.6104  -32.4302   25.7474 C   0  0  0  0  0  0
  -27.5593  -37.1829   24.8468 C   0  0  0  0  0  0
  -21.4175  -29.3047   22.3773 N   0  0  0  0  0  0
  -26.4305  -37.3826   23.9415 N   0  0  0  0  0  0
  -24.6765  -31.0780   22.1071 N   0  0  0  0  0  0
  -23.4245  -28.8178   23.3038 O   0  0  0  0  0  0
  -28.3619  -26.6139   20.1279 O   0  0  0  0  0  0
  -26.5615  -34.8901   22.4695 O   0  0  0  0  0  0
  -23.5386  -32.1464   23.7508 O   0  0  0  0  0  0
  -29.8409  -17.3894   22.9131 C   0  0  0  0  0  0
  -29.6932  -21.0365   19.8900 C   0  0  0  0  0  0
  -29.9089  -15.9139   22.4335 C   0  0  0  0  0  0
  -30.3559  -16.9509   20.2133 C   0  0  0  0  0  0
  -28.6146  -18.1676   22.3951 C   0  0  0  0  0  0
  -30.4404  -22.3942   19.9883 C   0  0  0  0  0  0
  -29.5743  -22.6285   22.3694 C   0  0  0  0  0  0
  -28.8414  -21.2569   22.2116 C   0  0  2  0  0  0
  -29.5441  -20.2558   21.2249 C   0  0  1  0  0  0
  -29.1852  -17.9676   19.9769 C   0  0  1  0  0  0
  -27.3257  -21.4514   21.9700 C   0  0  0  0  0  0
  -27.9255  -17.2625   19.4574 C   0  0  0  0  0  0
  -27.6338  -24.3207   19.4416 C   0  0  0  0  0  0
  -29.7391  -24.7416   20.8349 C   0  0  0  0  0  0
  -28.2843  -25.2036   20.5193 C   0  0  1  0  0  0
  -30.0596  -15.6930   20.9749 N   0  0  0  0  0  0
  -30.0446  -23.2851   21.1154 N   0  3  2  0  0  0
  -28.8389  -18.9021   21.1129 N   0  3  1  0  0  0
  -31.4628  -12.4589   19.1379 H   0  0  0  0  0  0
  -30.3397  -11.3664   19.8778 H   0  0  0  0  0  0
  -29.7537  -11.7566   17.4641 H   0  0  0  0  0  0
  -29.6624  -13.4762   17.7508 H   0  0  0  0  0  0
  -27.8313  -11.3072   18.8262 H   0  0  0  0  0  0
  -27.3741  -12.6291   17.7841 H   0  0  0  0  0  0
  -27.6781  -14.2613   19.5499 H   0  0  0  0  0  0
  -28.6990  -12.0092   21.3375 H   0  0  0  0  0  0
  -28.4268  -13.6360   21.8573 H   0  0  0  0  0  0
  -25.2734   -9.5637   22.4754 H   0  0  0  0  0  0
  -23.9970   -7.4584   22.7472 H   0  0  0  0  0  0
  -21.0820   -8.8726   19.8953 H   0  0  0  0  0  0
  -22.3672  -10.9620   19.6160 H   0  0  0  0  0  0
  -21.1958   -7.6115   23.9721 H   0  0  0  0  0  0
  -21.1522   -6.0495   25.9102 H   0  0  0  0  0  0
  -22.0605   -2.7594   23.2831 H   0  0  0  0  0  0
  -22.4059  -11.9884   22.4852 H   0  0  0  0  0  0
  -21.1047  -13.1227   22.2592 H   0  0  0  0  0  0
  -24.5703  -15.7808   20.4530 H   0  0  0  0  0  0
  -26.1727  -15.6149   19.9371 H   0  0  0  0  0  0
  -26.7145  -32.5551   23.1222 H   0  0  0  0  0  0
  -25.0114  -33.9827   25.0509 H   0  0  0  0  0  0
  -22.6961  -31.3176   21.4318 H   0  0  0  0  0  0
  -23.3761  -35.9646   23.3294 H   0  0  0  0  0  0
  -24.3572  -36.8933   22.2054 H   0  0  0  0  0  0
  -23.7176  -37.6503   23.6630 H   0  0  0  0  0  0
  -26.0654  -31.5897   20.6077 H   0  0  0  0  0  0
  -26.8281  -30.8756   21.9993 H   0  0  0  0  0  0
  -28.0941  -29.0489   21.1888 H   0  0  0  0  0  0
  -25.9927  -26.0689   18.8635 H   0  0  0  0  0  0
  -23.9756  -27.3686   18.9578 H   0  0  0  0  0  0
  -23.7327  -30.6283   19.4219 H   0  0  0  0  0  0
  -22.7342  -29.2795   19.8598 H   0  0  0  0  0  0
  -25.1291  -36.2049   25.0831 H   0  0  0  0  0  0
  -21.0000  -28.3166   24.1420 H   0  0  0  0  0  0
  -20.5906  -26.2220   23.3524 H   0  0  0  0  0  0
  -21.6700  -26.7527   22.1057 H   0  0  0  0  0  0
  -19.6923  -25.6222   21.1299 H   0  0  0  0  0  0
  -19.6744  -27.3067   20.6689 H   0  0  0  0  0  0
  -17.4282  -26.6772   21.3887 H   0  0  0  0  0  0
  -18.0226  -26.0009   22.8884 H   0  0  0  0  0  0
  -19.7934  -30.7205   24.2347 H   0  0  0  0  0  0
  -17.5007  -31.6174   24.5243 H   0  0  0  0  0  0
  -15.5348  -30.2931   23.7637 H   0  0  0  0  0  0
  -15.8719  -28.0776   22.7034 H   0  0  0  0  0  0
  -24.5913  -30.7073   25.7717 H   0  0  0  0  0  0
  -24.8900  -32.2849   26.4898 H   0  0  0  0  0  0
  -25.8021  -30.8814   27.0213 H   0  0  0  0  0  0
  -26.2858  -29.6831   24.1164 H   0  0  0  0  0  0
  -27.4105  -29.7280   25.4569 H   0  0  0  0  0  0
  -27.8695  -30.4385   23.9254 H   0  0  0  0  0  0
  -27.2784  -33.3617   26.2070 H   0  0  0  0  0  0
  -28.3870  -32.6845   25.0241 H   0  0  0  0  0  0
  -28.0833  -31.8405   26.5344 H   0  0  0  0  0  0
  -28.2639  -38.0110   24.7564 H   0  0  0  0  0  0
  -28.1058  -36.2654   24.6249 H   0  0  0  0  0  0
  -27.2303  -37.1426   25.8866 H   0  0  0  0  0  0
  -20.9303  -29.8886   21.7119 H   0  0  0  0  0  0
  -26.0205  -38.2914   24.1417 H   0  0  0  0  0  0
  -30.7700  -17.9270   22.7200 H   0  0  0  0  0  0
  -29.7682  -17.3657   23.9991 H   0  0  0  0  0  0
  -30.2737  -20.4668   19.1711 H   0  0  0  0  0  0
  -28.7156  -21.1782   19.4327 H   0  0  0  0  0  0
  -29.0042  -15.4211   22.7846 H   0  0  0  0  0  0
  -30.7321  -15.4282   22.9626 H   0  0  0  0  0  0
  -31.2447  -17.4526   20.6005 H   0  0  0  0  0  0
  -30.6547  -16.6557   19.2050 H   0  0  0  0  0  0
  -28.2517  -18.8359   23.1698 H   0  0  0  0  0  0
  -27.7857  -17.4687   22.2696 H   0  0  0  0  0  0
  -30.3499  -22.9270   19.0414 H   0  0  0  0  0  0
  -31.5087  -22.2015   20.1080 H   0  0  0  0  0  0
  -30.4793  -22.4500   22.9521 H   0  0  0  0  0  0
  -28.9914  -23.3206   22.9791 H   0  0  0  0  0  0
  -28.9192  -20.8293   23.2106 H   0  0  0  0  0  0
  -30.5493  -20.0573   21.5981 H   0  0  0  0  0  0
  -29.4940  -18.5649   19.1274 H   0  0  0  0  0  0
  -27.0928  -21.8797   20.9981 H   0  0  0  0  0  0
  -26.8931  -22.1163   22.7211 H   0  0  0  0  0  0
  -26.7796  -20.5104   22.0465 H   0  0  0  0  0  0
  -27.1298  -17.9694   19.2183 H   0  0  0  0  0  0
  -27.5487  -16.5556   20.1880 H   0  0  0  0  0  0
  -28.1422  -16.7079   18.5444 H   0  0  0  0  0  0
  -27.9812  -23.2988   19.4777 H   0  0  0  0  0  0
  -27.8342  -24.6932   18.4383 H   0  0  0  0  0  0
  -26.5587  -24.2416   19.5984 H   0  0  0  0  0  0
  -30.0701  -25.3100   21.7054 H   0  0  0  0  0  0
  -30.3832  -25.0640   20.0133 H   0  0  0  0  0  0
  -27.6975  -25.1293   21.4361 H   0  0  0  0  0  0
  -30.9865  -23.4719   21.4333 H   0  0  0  0  0  0
  -27.9038  -19.1928   20.8631 H   0  0  0  0  0  0
  1 25  1  0  0  0
  1 30  2  0  0  0
  1 86  1  0  0  0
  2  3  1  0  0  0
  2 25  1  0  0  0
  2 89  1  0  0  0
  2 90  1  0  0  0
  3  4  1  0  0  0
  3 91  1  0  0  0
  3 92  1  0  0  0
  4  5  1  0  0  0
  4 93  1  0  0  0
  4 94  1  0  0  0
  5  6  1  0  0  0
  5 26  1  0  0  0
  5 95  1  0  0  0
  6 25  1  0  0  0
  6 96  1  0  0  0
  6 97  1  0  0  0
  7  8  2  0  0  0
  7 26  1  0  0  0
  7 29  1  0  0  0
  8  9  1  0  0  0
  8 22  1  0  0  0
  9 10  1  0  0  0
  9 27  2  0  0  0
 10 11  2  0  0  0
 10 15  1  0  0  0
 11 12  1  0  0  0
 11 98  1  0  0  0
 12 13  2  0  0  0
 12 99  1  0  0  0
 13 14  1  0  0  0
 13 31  1  0  0  0
 14 15  2  0  0  0
 14100  1  0  0  0
 15101  1  0  0  0
 16 17  2  0  0  0
 16 21  1  0  0  0
 16 31  1  0  0  0
 17 18  1  0  0  0
 17102  1  0  0  0
 18 19  2  0  0  0
 18103  1  0  0  0
 19 20  1  0  0  0
 19 24  1  0  0  0
 20 21  2  0  0  0
 20104  1  0  0  0
 21 23  1  0  0  0
 22 28  1  0  0  0
 22 32  2  0  0  0
 26 27  1  0  0  0
 28105  1  0  0  0
 28106  1  0  0  0
 29107  1  0  0  0
 29108  1  0  0  0
 33 34  1  0  0  0
 33 66  1  0  0  0
 33 70  2  0  0  0
 34 36  1  0  0  0
 34 59  1  0  0  0
 34109  1  0  0  0
 35 44  2  0  0  0
 35 45  1  0  0  0
 35 68  1  0  0  0
 36 56  1  0  0  0
 36110  1  0  0  0
 37 39  1  0  0  0
 37 47  1  0  0  0
 37 66  1  0  0  0
 37111  1  0  0  0
 38 43  2  0  0  0
 38 46  1  0  0  0
 38 47  1  0  0  0
 39 64  1  0  0  0
 39 67  2  0  0  0
 40 52  1  0  0  0
 40 53  2  0  0  0
 40 58  1  0  0  0
 41112  1  0  0  0
 41113  1  0  0  0
 41114  1  0  0  0
 41 48  1  0  0  0
 42 43  1  0  0  0
 42 66  1  0  0  0
 42115  1  0  0  0
 42116  1  0  0  0
 43 44  1  0  0  0
 44117  1  0  0  0
 45 46  2  0  0  0
 45118  1  0  0  0
 46119  1  0  0  0
 47120  1  0  0  0
 47121  1  0  0  0
 48 56  1  0  0  0
 48 65  1  0  0  0
 48122  1  0  0  0
 49 50  1  0  0  0
 49 53  1  0  0  0
 49 64  1  0  0  0
 49123  1  0  0  0
 50 51  1  0  0  0
 50124  1  0  0  0
 50125  1  0  0  0
 51 52  1  0  0  0
 51126  1  0  0  0
 51127  1  0  0  0
 52128  1  0  0  0
 52129  1  0  0  0
 53 54  1  0  0  0
 54 55  2  0  0  0
 54130  1  0  0  0
 55 57  1  0  0  0
 55131  1  0  0  0
 56 69  2  0  0  0
 57 58  2  0  0  0
 57132  1  0  0  0
 58133  1  0  0  0
 59 60  1  0  0  0
 59 61  1  0  0  0
 59 62  1  0  0  0
 60134  1  0  0  0
 60135  1  0  0  0
 60136  1  0  0  0
 61137  1  0  0  0
 61138  1  0  0  0
 61139  1  0  0  0
 62140  1  0  0  0
 62141  1  0  0  0
 62142  1  0  0  0
 63 65  1  0  0  0
 63143  1  0  0  0
 63144  1  0  0  0
 63145  1  0  0  0
 64146  1  0  0  0
 65147  1  0  0  0
 68 85  1  0  0  0
 71 73  1  0  0  0
 71 75  1  0  0  0
 71148  1  0  0  0
 71149  1  0  0  0
 72 76  1  0  0  0
 72150  1  0  0  0
 72151  1  0  0  0
 72 79  1  0  0  0
 73 86  1  0  0  0
 73152  1  0  0  0
 73153  1  0  0  0
 74 80  1  0  0  0
 74 86  1  0  0  0
 74154  1  0  0  0
 74155  1  0  0  0
 75156  1  0  0  0
 75157  1  0  0  0
 75 88  1  0  0  0
 76 87  1  0  0  0
 76158  1  0  0  0
 76159  1  0  0  0
 77 78  1  0  0  0
 77 87  1  0  0  0
 77160  1  0  0  0
 77161  1  0  0  0
 78 79  1  0  0  0
 78 81  1  0  0  0
 78162  1  0  0  0
 79 88  1  0  0  0
 79163  1  0  0  0
 80 82  1  0  0  0
 80 88  1  0  0  0
 80164  1  0  0  0
 81165  1  0  0  0
 81166  1  0  0  0
 81167  1  0  0  0
 82168  1  0  0  0
 82169  1  0  0  0
 82170  1  0  0  0
 83171  1  0  0  0
 83172  1  0  0  0
 83173  1  0  0  0
 83 85  1  0  0  0
 84 85  1  0  0  0
 84174  1  0  0  0
 84175  1  0  0  0
 84 87  1  0  0  0
 85176  1  0  0  0
 87177  1  0  0  0
 88178  1  0  0  0
M  CHG  2  87   1  88   1
M  ISO  4   1 100  68 101  85 101  86 100
M  END
> <chiral flag>
0

> <version>
0

> <s_m_source_file>
/data/baiqing/PycharmProjects/Reinvent-master-3.2/result/LINK_invent/BTK/process_docking_weight1_custom_sum_contain_oxygen_bond_distance_aromatic_linkinvent_7_9_3/rearranged_h_0168.sdf

> <i_m_source_file_index>
95

> <r_mmod_Potential_Energy-OPLS-2005>
213.647232055664

> <r_mmod_Stretch_Energy-OPLS-2005>
67.6448287963867

> <r_mmod_Bend_Energy-OPLS-2005>
216.290908813477

> <r_mmod_Torsional_Energy-OPLS-2005>
466.136322021484

> <r_mmod_Improper_Torsional_Energy-OPLS-2005>
11.2416706085205

> <r_mmod_Van_der_Waal_Energy-OPLS-2005>
149.910400390625

> <r_mmod_Electrostatic_Energy-OPLS-2005>
177.779159545898

> <r_mmod_Solvation_Energy-OPLS-2005>
-900.184692382812

> <b_mmod_Minimization_Converged-OPLS-2005>
0

> <r_mmod_RMS_Derivative-OPLS-2005>
4.25053262710571

$$$$
96
                    3D
 Structure written by MMmdl.
173182  0  0  1  0            999 V2000
  -30.7795  -14.3677   20.6696 C   0  0  0  0  0  0
  -30.4088  -12.2927   19.3907 C   0  0  0  0  0  0
  -29.4785  -12.5289   18.1874 C   0  0  0  0  0  0
  -28.0049  -12.3785   18.6059 C   0  0  0  0  0  0
  -27.6622  -13.2057   19.8733 C   0  0  2  0  0  0
  -28.7018  -12.9635   20.9893 C   0  0  0  0  0  0
  -25.2603  -13.8162   20.5671 C   0  0  0  0  0  0
  -24.1848  -13.0453   20.9157 C   0  0  0  0  0  0
  -24.6393  -11.6911   20.8722 C   0  0  0  0  0  0
  -23.9066  -10.4297   21.0399 C   0  0  0  0  0  0
  -24.3622   -9.4211   21.9175 C   0  0  0  0  0  0
  -23.6296   -8.2249   22.0746 C   0  0  0  0  0  0
  -22.4274   -8.0286   21.3542 C   0  0  0  0  0  0
  -21.9918   -9.0257   20.4640 C   0  0  0  0  0  0
  -22.7246  -10.2134   20.3046 C   0  0  0  0  0  0
  -21.6859   -6.0740   22.5276 C   0  0  0  0  0  0
  -21.4013   -6.5643   23.8208 C   0  0  0  0  0  0
  -21.3657   -5.6796   24.9171 C   0  0  0  0  0  0
  -21.6043   -4.3058   24.7218 C   0  0  0  0  0  0
  -21.8824   -3.8151   23.4341 C   0  0  0  0  0  0
  -21.9196   -4.6968   22.3397 C   0  0  0  0  0  0
  -22.7871  -13.5262   21.1828 C   0  0  0  0  0  0
  -22.1667   -4.2156   21.0974 F   0  0  0  0  0  0
  -21.5628   -3.4541   25.7729 F   0  0  0  0  0  0
  -30.0423  -13.2498   20.4449 N   0  0  0  0  0  0
  -26.3030  -12.9328   20.3359 N   0  0  0  0  0  0
  -25.9318  -11.6489   20.5754 N   0  0  0  0  0  0
  -22.0522  -12.8233   22.0372 N   0  0  0  0  0  0
  -25.4381  -15.1874   20.4082 N   0  0  0  0  0  0
  -31.8266  -14.6093   20.0646 O   0  0  0  0  0  0
  -21.6642   -6.8882   21.4237 O   0  0  0  0  0  0
  -22.3546  -14.5576   20.6693 O   0  0  0  0  0  0
  -24.6101  -31.8689   23.2144 C   0  0  0  0  0  0
  -25.9005  -32.4825   23.8423 C   0  0  1  0  0  0
  -27.2398  -27.4780   20.0750 C   0  0  0  0  0  0
  -25.5863  -33.8625   24.2334 N   0  0  0  0  0  0
  -23.3971  -30.4946   21.5518 C   0  0  2  0  0  0
  -24.8440  -28.9559   20.1232 C   0  0  0  0  0  0
  -22.7371  -29.4693   22.5010 C   0  0  0  0  0  0
  -18.0262  -28.1404   22.8502 C   0  0  0  0  0  0
  -24.1483  -36.7330   23.2647 C   0  0  0  0  0  0
  -25.9229  -30.8411   21.3657 C   0  0  0  0  0  0
  -26.0002  -29.4762   20.7191 C   0  0  0  0  0  0
  -27.2016  -28.7387   20.7026 C   0  0  0  0  0  0
  -26.0645  -26.9464   19.5060 C   0  0  0  0  0  0
  -24.8663  -27.6847   19.5224 C   0  0  0  0  0  0
  -23.6051  -29.8203   20.1691 C   0  0  0  0  0  0
  -25.4096  -36.3116   24.0345 C   0  0  1  0  0  0
  -20.5848  -28.3686   23.1337 C   0  0  2  0  0  0
  -20.6751  -26.9426   22.5437 C   0  0  0  0  0  0
  -19.5726  -26.6409   21.5233 C   0  0  0  0  0  0
  -18.1900  -26.7954   22.1634 C   0  0  0  0  0  0
  -19.1508  -28.8864   23.2917 C   0  0  0  0  0  0
  -18.9436  -30.1473   23.8926 C   0  0  0  0  0  0
  -17.6439  -30.6608   24.0594 C   0  0  0  0  0  0
  -25.9020  -34.9479   23.5136 C   0  0  0  0  0  0
  -16.5335  -29.9114   23.6346 C   0  0  0  0  0  0
  -16.7253  -28.6543   23.0344 C   0  0  0  0  0  0
  -26.4446  -31.6616   25.0755 C   0  0  0  0  0  0
  -25.3718  -31.3709   26.1508 C   0  0  0  0  0  0
  -27.0300  -30.3063   24.6159 C   0  0  0  0  0  0
  -27.6030  -32.4350   25.7488 C   0  0  0  0  0  0
  -27.5574  -37.1804   24.8453 C   0  0  0  0  0  0
  -21.4109  -29.3054   22.3735 N   0  0  0  0  0  0
  -26.4278  -37.3795   23.9414 N   0  0  0  0  0  0
  -24.6613  -31.0820   22.1030 N   0  0  0  0  0  0
  -23.4159  -28.8229   23.3032 O   0  0  0  0  0  0
  -28.4198  -26.7864   19.9864 O   0  0  0  0  0  0
  -26.5587  -34.8934   22.4703 O   0  0  0  0  0  0
  -23.5306  -32.1427   23.7568 O   0  0  0  0  0  0
  -30.8641  -17.6830   20.1501 C   0  0  0  0  0  0
  -31.0812  -18.8589   19.4073 C   0  0  0  0  0  0
  -31.8586  -19.9688   21.4177 C   0  0  0  0  0  0
  -31.1585  -17.6145   21.5359 C   0  0  0  0  0  0
  -31.6202  -18.8033   22.1767 C   0  0  0  0  0  0
  -31.5995  -20.0038   20.0380 C   0  0  0  0  0  0
  -31.3514  -22.7450   17.6606 C   0  0  0  0  0  0
  -30.1766  -22.7241   19.8961 C   0  0  0  0  0  0
  -30.2998  -23.7506   17.1601 C   0  0  0  0  0  0
  -29.1547  -23.7206   19.3227 C   0  0  0  0  0  0
  -30.8051  -21.8554   18.7895 C   0  0  2  0  0  0
  -31.8869  -18.8992   23.6717 C   0  0  0  0  0  0
  -32.3394  -15.7796   22.9018 C   0  0  0  0  0  0
  -28.9154  -25.7002   17.8368 C   0  0  0  0  0  0
  -29.0782  -26.9485   18.7273 C   0  0  0  0  0  0
  -31.0024  -16.2866   22.3129 C   0  0  2  0  0  0
  -30.3075  -15.1871   21.6236 N   0  0  0  0  0  0
  -29.7823  -24.5778   18.2825 N   0  3  2  0  0  0
  -31.9081  -21.1362   19.3299 O   0  0  0  0  0  0
  -31.4529  -12.3797   19.0845 H   0  0  0  0  0  0
  -30.2966  -11.2745   19.7660 H   0  0  0  0  0  0
  -29.7144  -11.8314   17.3829 H   0  0  0  0  0  0
  -29.6416  -13.5289   17.7823 H   0  0  0  0  0  0
  -27.8147  -11.3201   18.7886 H   0  0  0  0  0  0
  -27.3526  -12.6652   17.7804 H   0  0  0  0  0  0
  -27.7159  -14.2588   19.5939 H   0  0  0  0  0  0
  -28.6644  -11.9246   21.3197 H   0  0  0  0  0  0
  -28.4500  -13.5522   21.8711 H   0  0  0  0  0  0
  -25.2775   -9.5685   22.4743 H   0  0  0  0  0  0
  -24.0010   -7.4643   22.7465 H   0  0  0  0  0  0
  -21.0857   -8.8782   19.8936 H   0  0  0  0  0  0
  -22.3724  -10.9672   19.6145 H   0  0  0  0  0  0
  -21.2001   -7.6151   23.9713 H   0  0  0  0  0  0
  -21.1475   -6.0523   25.9076 H   0  0  0  0  0  0
  -22.0604   -2.7612   23.2839 H   0  0  0  0  0  0
  -22.4159  -11.9897   22.4749 H   0  0  0  0  0  0
  -21.1130  -13.1219   22.2585 H   0  0  0  0  0  0
  -24.6838  -15.8566   20.5199 H   0  0  0  0  0  0
  -26.3068  -15.6158   20.1135 H   0  0  0  0  0  0
  -26.7086  -32.5535   23.1197 H   0  0  0  0  0  0
  -24.9971  -33.9787   25.0455 H   0  0  0  0  0  0
  -22.6868  -31.3121   21.4099 H   0  0  0  0  0  0
  -23.3742  -35.9661   23.3302 H   0  0  0  0  0  0
  -24.3588  -36.8955   22.2064 H   0  0  0  0  0  0
  -23.7232  -37.6534   23.6666 H   0  0  0  0  0  0
  -26.0361  -31.6078   20.5976 H   0  0  0  0  0  0
  -26.8096  -30.8931   21.9848 H   0  0  0  0  0  0
  -28.1012  -29.1430   21.1445 H   0  0  0  0  0  0
  -26.0734  -25.9705   19.0442 H   0  0  0  0  0  0
  -23.9747  -27.2717   19.0697 H   0  0  0  0  0  0
  -23.7097  -30.5903   19.4043 H   0  0  0  0  0  0
  -22.7304  -29.2361   19.8788 H   0  0  0  0  0  0
  -25.1278  -36.1967   25.0834 H   0  0  0  0  0  0
  -20.9937  -28.3252   24.1457 H   0  0  0  0  0  0
  -20.5664  -26.2295   23.3623 H   0  0  0  0  0  0
  -21.6618  -26.7480   22.1215 H   0  0  0  0  0  0
  -19.6886  -25.6319   21.1256 H   0  0  0  0  0  0
  -19.6664  -27.3230   20.6769 H   0  0  0  0  0  0
  -17.4169  -26.6724   21.4036 H   0  0  0  0  0  0
  -18.0293  -26.0094   22.9029 H   0  0  0  0  0  0
  -19.7906  -30.7296   24.2290 H   0  0  0  0  0  0
  -17.4993  -31.6280   24.5207 H   0  0  0  0  0  0
  -15.5335  -30.3021   23.7681 H   0  0  0  0  0  0
  -15.8651  -28.0895   22.7019 H   0  0  0  0  0  0
  -24.5878  -30.7080   25.7835 H   0  0  0  0  0  0
  -24.8940  -32.2873   26.4994 H   0  0  0  0  0  0
  -25.8077  -30.8839   27.0241 H   0  0  0  0  0  0
  -26.2874  -29.6786   24.1226 H   0  0  0  0  0  0
  -27.4082  -29.7331   25.4636 H   0  0  0  0  0  0
  -27.8698  -30.4409   23.9335 H   0  0  0  0  0  0
  -27.2654  -33.3635   26.2105 H   0  0  0  0  0  0
  -28.3787  -32.6928   25.0267 H   0  0  0  0  0  0
  -28.0752  -31.8451   26.5353 H   0  0  0  0  0  0
  -28.2576  -38.0118   24.7523 H   0  0  0  0  0  0
  -28.1088  -36.2653   24.6240 H   0  0  0  0  0  0
  -27.2312  -37.1407   25.8861 H   0  0  0  0  0  0
  -20.9255  -29.8767   21.6961 H   0  0  0  0  0  0
  -26.0172  -38.2870   24.1425 H   0  0  0  0  0  0
  -30.4840  -16.8277   19.6142 H   0  0  0  0  0  0
  -30.8778  -18.8658   18.3457 H   0  0  0  0  0  0
  -32.2450  -20.8552   21.9012 H   0  0  0  0  0  0
  -32.2287  -23.2900   18.0123 H   0  0  0  0  0  0
  -31.6907  -22.1235   16.8310 H   0  0  0  0  0  0
  -29.6933  -22.0891   20.6391 H   0  0  0  0  0  0
  -30.9568  -23.2725   20.4263 H   0  0  0  0  0  0
  -29.4735  -23.2283   16.6745 H   0  0  0  0  0  0
  -30.7568  -24.3862   16.4011 H   0  0  0  0  0  0
  -28.7512  -24.3252   20.1334 H   0  0  0  0  0  0
  -28.3081  -23.1825   18.8933 H   0  0  0  0  0  0
  -30.0516  -21.1813   18.3778 H   0  0  0  0  0  0
  -31.6611  -19.9020   24.0365 H   0  0  0  0  0  0
  -32.9393  -18.7095   23.8833 H   0  0  0  0  0  0
  -31.2789  -18.2122   24.2566 H   0  0  0  0  0  0
  -32.7476  -16.4438   23.6593 H   0  0  0  0  0  0
  -33.1006  -15.6708   22.1283 H   0  0  0  0  0  0
  -32.2132  -14.8094   23.3829 H   0  0  0  0  0  0
  -29.2070  -25.9968   16.8281 H   0  0  0  0  0  0
  -27.8749  -25.3864   17.7590 H   0  0  0  0  0  0
  -28.6931  -27.8217   18.1955 H   0  0  0  0  0  0
  -30.1341  -27.1607   18.9022 H   0  0  0  0  0  0
  -30.3420  -16.5058   23.1519 H   0  0  0  0  0  0
  -29.4149  -14.9222   22.0117 H   0  0  0  0  0  0
  -30.5899  -25.0134   18.7051 H   0  0  0  0  0  0
  1 25  1  0  0  0
  1 30  2  0  0  0
  1 87  1  0  0  0
  2  3  1  0  0  0
  2 25  1  0  0  0
  2 90  1  0  0  0
  2 91  1  0  0  0
  3  4  1  0  0  0
  3 92  1  0  0  0
  3 93  1  0  0  0
  4  5  1  0  0  0
  4 94  1  0  0  0
  4 95  1  0  0  0
  5  6  1  0  0  0
  5 26  1  0  0  0
  5 96  1  0  0  0
  6 25  1  0  0  0
  6 97  1  0  0  0
  6 98  1  0  0  0
  7  8  2  0  0  0
  7 26  1  0  0  0
  7 29  1  0  0  0
  8  9  1  0  0  0
  8 22  1  0  0  0
  9 10  1  0  0  0
  9 27  2  0  0  0
 10 11  2  0  0  0
 10 15  1  0  0  0
 11 12  1  0  0  0
 11 99  1  0  0  0
 12 13  2  0  0  0
 12100  1  0  0  0
 13 14  1  0  0  0
 13 31  1  0  0  0
 14 15  2  0  0  0
 14101  1  0  0  0
 15102  1  0  0  0
 16 17  2  0  0  0
 16 21  1  0  0  0
 16 31  1  0  0  0
 17 18  1  0  0  0
 17103  1  0  0  0
 18 19  2  0  0  0
 18104  1  0  0  0
 19 20  1  0  0  0
 19 24  1  0  0  0
 20 21  2  0  0  0
 20105  1  0  0  0
 21 23  1  0  0  0
 22 28  1  0  0  0
 22 32  2  0  0  0
 26 27  1  0  0  0
 28106  1  0  0  0
 28107  1  0  0  0
 29108  1  0  0  0
 29109  1  0  0  0
 33 34  1  0  0  0
 33 66  1  0  0  0
 33 70  2  0  0  0
 34 36  1  0  0  0
 34 59  1  0  0  0
 34110  1  0  0  0
 35 44  2  0  0  0
 35 45  1  0  0  0
 35 68  1  0  0  0
 36 56  1  0  0  0
 36111  1  0  0  0
 37 39  1  0  0  0
 37 47  1  0  0  0
 37 66  1  0  0  0
 37112  1  0  0  0
 38 43  2  0  0  0
 38 46  1  0  0  0
 38 47  1  0  0  0
 39 64  1  0  0  0
 39 67  2  0  0  0
 40 52  1  0  0  0
 40 53  2  0  0  0
 40 58  1  0  0  0
 41113  1  0  0  0
 41114  1  0  0  0
 41115  1  0  0  0
 41 48  1  0  0  0
 42 43  1  0  0  0
 42 66  1  0  0  0
 42116  1  0  0  0
 42117  1  0  0  0
 43 44  1  0  0  0
 44118  1  0  0  0
 45 46  2  0  0  0
 45119  1  0  0  0
 46120  1  0  0  0
 47121  1  0  0  0
 47122  1  0  0  0
 48 56  1  0  0  0
 48 65  1  0  0  0
 48123  1  0  0  0
 49 50  1  0  0  0
 49 53  1  0  0  0
 49 64  1  0  0  0
 49124  1  0  0  0
 50 51  1  0  0  0
 50125  1  0  0  0
 50126  1  0  0  0
 51 52  1  0  0  0
 51127  1  0  0  0
 51128  1  0  0  0
 52129  1  0  0  0
 52130  1  0  0  0
 53 54  1  0  0  0
 54 55  2  0  0  0
 54131  1  0  0  0
 55 57  1  0  0  0
 55132  1  0  0  0
 56 69  2  0  0  0
 57 58  2  0  0  0
 57133  1  0  0  0
 58134  1  0  0  0
 59 60  1  0  0  0
 59 61  1  0  0  0
 59 62  1  0  0  0
 60135  1  0  0  0
 60136  1  0  0  0
 60137  1  0  0  0
 61138  1  0  0  0
 61139  1  0  0  0
 61140  1  0  0  0
 62141  1  0  0  0
 62142  1  0  0  0
 62143  1  0  0  0
 63 65  1  0  0  0
 63144  1  0  0  0
 63145  1  0  0  0
 63146  1  0  0  0
 64147  1  0  0  0
 65148  1  0  0  0
 68 85  1  0  0  0
 71 72  2  0  0  0
 71 74  1  0  0  0
 71149  1  0  0  0
 72 76  1  0  0  0
 72150  1  0  0  0
 73 75  1  0  0  0
 73 76  2  0  0  0
 73151  1  0  0  0
 74 75  2  0  0  0
 74 86  1  0  0  0
 75 82  1  0  0  0
 76 89  1  0  0  0
 77 79  1  0  0  0
 77 81  1  0  0  0
 77152  1  0  0  0
 77153  1  0  0  0
 78 80  1  0  0  0
 78 81  1  0  0  0
 78154  1  0  0  0
 78155  1  0  0  0
 79 88  1  0  0  0
 79156  1  0  0  0
 79157  1  0  0  0
 80 88  1  0  0  0
 80158  1  0  0  0
 80159  1  0  0  0
 81 89  1  0  0  0
 81160  1  0  0  0
 82161  1  0  0  0
 82162  1  0  0  0
 82163  1  0  0  0
 83164  1  0  0  0
 83165  1  0  0  0
 83166  1  0  0  0
 83 86  1  0  0  0
 84 85  1  0  0  0
 84167  1  0  0  0
 84168  1  0  0  0
 84 88  1  0  0  0
 85169  1  0  0  0
 85170  1  0  0  0
 86 87  1  0  0  0
 86171  1  0  0  0
 87172  1  0  0  0
 88173  1  0  0  0
M  CHG  1  88   1
M  ISO  4   1 100  68 101  85 101  87 100
M  END
> <chiral flag>
0

> <version>
0

> <s_m_source_file>
/data/baiqing/PycharmProjects/Reinvent-master-3.2/result/LINK_invent/BTK/process_docking_weight1_custom_sum_contain_oxygen_bond_distance_aromatic_linkinvent_7_9_3/rearranged_h_0168.sdf

> <i_m_source_file_index>
96

> <r_mmod_Potential_Energy-OPLS-2005>
-145.772720336914

> <r_mmod_Stretch_Energy-OPLS-2005>
36.2827758789062

> <r_mmod_Bend_Energy-OPLS-2005>
99.8913650512695

> <r_mmod_Torsional_Energy-OPLS-2005>
278.133972167969

> <r_mmod_Improper_Torsional_Energy-OPLS-2005>
1.9765077829361

> <r_mmod_Van_der_Waal_Energy-OPLS-2005>
166.607788085938

> <r_mmod_Electrostatic_Energy-OPLS-2005>
-313.262481689453

> <r_mmod_Solvation_Energy-OPLS-2005>
-422.809265136719

> <b_mmod_Minimization_Converged-OPLS-2005>
0

> <r_mmod_RMS_Derivative-OPLS-2005>
1.75334298610687

$$$$
