0
                    3D
 Structure written by MMmdl.
172181  0  0  1  0            999 V2000
  -30.5139  -15.0152   20.4060 C   0  0  0  0  0  0
  -30.4452  -12.6363   19.4939 C   0  0  0  0  0  0
  -29.5255  -12.5373   18.2551 C   0  0  0  0  0  0
  -28.0610  -12.3091   18.6775 C   0  0  0  0  0  0
  -27.6246  -13.2523   19.8292 C   0  0  2  0  0  0
  -28.6691  -13.3112   20.9624 C   0  0  0  0  0  0
  -25.2446  -13.8217   20.5717 C   0  0  0  0  0  0
  -24.1775  -13.0432   20.9249 C   0  0  0  0  0  0
  -24.6397  -11.6917   20.8760 C   0  0  0  0  0  0
  -23.9081  -10.4288   21.0401 C   0  0  0  0  0  0
  -24.3625   -9.4203   21.9180 C   0  0  0  0  0  0
  -23.6302   -8.2240   22.0752 C   0  0  0  0  0  0
  -22.4284   -8.0283   21.3544 C   0  0  0  0  0  0
  -21.9919   -9.0256   20.4648 C   0  0  0  0  0  0
  -22.7248  -10.2131   20.3052 C   0  0  0  0  0  0
  -21.6851   -6.0738   22.5279 C   0  0  0  0  0  0
  -21.4014   -6.5640   23.8214 C   0  0  0  0  0  0
  -21.3666   -5.6792   24.9178 C   0  0  0  0  0  0
  -21.6046   -4.3055   24.7226 C   0  0  0  0  0  0
  -21.8820   -3.8148   23.4349 C   0  0  0  0  0  0
  -21.9188   -4.6965   22.3403 C   0  0  0  0  0  0
  -22.7792  -13.5201   21.1889 C   0  0  0  0  0  0
  -22.1655   -4.2150   21.0981 F   0  0  0  0  0  0
  -21.5626   -3.4539   25.7740 F   0  0  0  0  0  0
  -29.9316  -13.7450   20.3497 N   0  0  0  0  0  0
  -26.2868  -12.9454   20.3210 N   0  0  0  0  0  0
  -25.9328  -11.6582   20.5724 N   0  0  0  0  0  0
  -22.0434  -12.8200   22.0447 N   0  0  0  0  0  0
  -25.4076  -15.1953   20.4139 N   0  0  0  0  0  0
  -31.7349  -15.0660   20.2220 O   0  0  0  0  0  0
  -21.6644   -6.8880   21.4242 O   0  0  0  0  0  0
  -22.3472  -14.5495   20.6717 O   0  0  0  0  0  0
  -24.6484  -31.8399   23.1844 C   0  0  0  0  0  0
  -25.9233  -32.4673   23.8250 C   0  0  1  0  0  0
  -27.2151  -27.0885   20.1649 C   0  0  0  0  0  0
  -25.5962  -33.8480   24.2170 N   0  0  0  0  0  0
  -23.4538  -30.4581   21.5306 C   0  0  2  0  0  0
  -24.9028  -28.8727   20.1141 C   0  0  0  0  0  0
  -22.7590  -29.4534   22.4842 C   0  0  0  0  0  0
  -18.0311  -28.1393   22.8482 C   0  0  0  0  0  0
  -24.1490  -36.7244   23.2645 C   0  0  0  0  0  0
  -26.0131  -30.6988   21.3897 C   0  0  0  0  0  0
  -26.0829  -29.3040   20.7345 C   0  0  0  0  0  0
  -27.2403  -28.4306   20.7370 C   0  0  0  0  0  0
  -26.0107  -26.7709   19.5005 C   0  0  0  0  0  0
  -24.8827  -27.6212   19.4799 C   0  0  0  0  0  0
  -23.6831  -29.7826   20.1524 C   0  0  0  0  0  0
  -25.4124  -36.3019   24.0316 C   0  0  1  0  0  0
  -20.5928  -28.3728   23.1223 C   0  0  2  0  0  0
  -20.6790  -26.9423   22.5402 C   0  0  0  0  0  0
  -19.5759  -26.6377   21.5214 C   0  0  0  0  0  0
  -18.1946  -26.7932   22.1628 C   0  0  0  0  0  0
  -19.1571  -28.8878   23.2845 C   0  0  0  0  0  0
  -18.9482  -30.1475   23.8869 C   0  0  0  0  0  0
  -17.6478  -30.6586   24.0559 C   0  0  0  0  0  0
  -25.9081  -34.9397   23.5055 C   0  0  0  0  0  0
  -16.5370  -29.9079   23.6334 C   0  0  0  0  0  0
  -16.7297  -28.6498   23.0358 C   0  0  0  0  0  0
  -26.4535  -31.6558   25.0712 C   0  0  0  0  0  0
  -25.3705  -31.3759   26.1396 C   0  0  0  0  0  0
  -27.0412  -30.2948   24.6329 C   0  0  0  0  0  0
  -27.6053  -32.4339   25.7502 C   0  0  0  0  0  0
  -27.5573  -37.1780   24.8467 C   0  0  0  0  0  0
  -21.4275  -29.3054   22.3588 N   0  0  0  0  0  0
  -26.4285  -37.3737   23.9411 N   0  0  0  0  0  0
  -24.7253  -31.0219   22.0892 N   0  0  0  0  0  0
  -23.4217  -28.8092   23.3014 O   0  0  0  0  0  0
  -28.2661  -26.0870   20.1940 O   0  0  0  0  0  0
  -26.5670  -34.8902   22.4636 O   0  0  0  0  0  0
  -23.5594  -32.1291   23.7040 O   0  0  0  0  0  0
  -29.1449  -21.2853   18.4044 C   0  0  0  0  0  0
  -29.2600  -20.4945   19.5763 C   0  0  0  0  0  0
  -29.2325  -20.7311   17.1156 C   0  0  0  0  0  0
  -29.6217  -19.0042   19.4724 C   0  0  0  0  0  0
  -29.5552  -19.3673   16.9785 C   0  0  0  0  0  0
  -29.8541  -18.5701   18.1186 C   0  0  0  0  0  0
  -28.8929  -22.7975   18.6026 C   0  0  0  0  0  0
  -28.9103  -21.6050   20.7040 C   0  0  0  0  0  0
  -29.0110  -23.1944   20.0898 C   0  0  1  0  0  0
  -29.0028  -21.5906   15.8711 C   0  0  0  0  0  0
  -29.6149  -18.7627   15.5709 C   0  0  0  0  0  0
  -30.5328  -17.2304   17.8336 C   0  0  0  0  0  0
  -29.7934  -21.3775   21.9474 C   0  0  0  0  0  0
  -27.4478  -21.3700   21.1236 C   0  0  0  0  0  0
  -30.4362  -23.7349   20.3379 C   0  0  0  0  0  0
  -29.9021  -17.7994   20.5981 C   0  0  0  0  0  0
  -28.0105  -24.5455   20.4447 C   0  0  0  0  0  0
  -29.7069  -16.2027   20.4536 N   0  0  0  0  0  0
  -31.4746  -12.8133   19.1788 H   0  0  0  0  0  0
  -30.4601  -11.6965   20.0475 H   0  0  0  0  0  0
  -29.8590  -11.7321   17.5992 H   0  0  0  0  0  0
  -29.5993  -13.4576   17.6736 H   0  0  0  0  0  0
  -27.9734  -11.2721   19.0028 H   0  0  0  0  0  0
  -27.3954  -12.4171   17.8201 H   0  0  0  0  0  0
  -27.5764  -14.2463   19.3844 H   0  0  0  0  0  0
  -28.7758  -12.3438   21.4559 H   0  0  0  0  0  0
  -28.3587  -14.0190   21.7322 H   0  0  0  0  0  0
  -25.2761   -9.5684   22.4765 H   0  0  0  0  0  0
  -24.0010   -7.4631   22.7471 H   0  0  0  0  0  0
  -21.0850   -8.8778   19.8957 H   0  0  0  0  0  0
  -22.3701  -10.9677   19.6171 H   0  0  0  0  0  0
  -21.2008   -7.6148   23.9724 H   0  0  0  0  0  0
  -21.1486   -6.0518   25.9081 H   0  0  0  0  0  0
  -22.0590   -2.7610   23.2845 H   0  0  0  0  0  0
  -22.4048  -11.9887   22.4878 H   0  0  0  0  0  0
  -21.1042  -13.1218   22.2614 H   0  0  0  0  0  0
  -24.6315  -15.8387   20.5262 H   0  0  0  0  0  0
  -26.2355  -15.6417   20.0421 H   0  0  0  0  0  0
  -26.7303  -32.5263   23.0980 H   0  0  0  0  0  0
  -25.0082  -33.9587   25.0300 H   0  0  0  0  0  0
  -22.7590  -31.2857   21.3722 H   0  0  0  0  0  0
  -23.3761  -35.9565   23.3289 H   0  0  0  0  0  0
  -24.3576  -36.8893   22.2062 H   0  0  0  0  0  0
  -23.7232  -37.6429   23.6694 H   0  0  0  0  0  0
  -26.1755  -31.4488   20.6145 H   0  0  0  0  0  0
  -26.8813  -30.7509   22.0351 H   0  0  0  0  0  0
  -28.1423  -28.7585   21.2345 H   0  0  0  0  0  0
  -25.9181  -25.8227   18.9926 H   0  0  0  0  0  0
  -23.9855  -27.2885   18.9758 H   0  0  0  0  0  0
  -23.8259  -30.5545   19.3950 H   0  0  0  0  0  0
  -22.7952  -29.2293   19.8412 H   0  0  0  0  0  0
  -25.1314  -36.1840   25.0807 H   0  0  0  0  0  0
  -21.0034  -28.3322   24.1340 H   0  0  0  0  0  0
  -20.5676  -26.2346   23.3631 H   0  0  0  0  0  0
  -21.6654  -26.7415   22.1203 H   0  0  0  0  0  0
  -19.6917  -25.6283   21.1257 H   0  0  0  0  0  0
  -19.6688  -27.3174   20.6734 H   0  0  0  0  0  0
  -17.4213  -26.6688   21.4030 H   0  0  0  0  0  0
  -18.0337  -26.0075   22.9024 H   0  0  0  0  0  0
  -19.7957  -30.7300   24.2226 H   0  0  0  0  0  0
  -17.5027  -31.6263   24.5166 H   0  0  0  0  0  0
  -15.5367  -30.2969   23.7666 H   0  0  0  0  0  0
  -15.8702  -28.0802   22.7089 H   0  0  0  0  0  0
  -24.5896  -30.7098   25.7711 H   0  0  0  0  0  0
  -24.8882  -32.2945   26.4749 H   0  0  0  0  0  0
  -25.7975  -30.8976   27.0220 H   0  0  0  0  0  0
  -26.3043  -29.6655   24.1327 H   0  0  0  0  0  0
  -27.3998  -29.7268   25.4923 H   0  0  0  0  0  0
  -27.8960  -30.4172   23.9675 H   0  0  0  0  0  0
  -27.2639  -33.3669   26.2002 H   0  0  0  0  0  0
  -28.3904  -32.6857   25.0359 H   0  0  0  0  0  0
  -28.0679  -31.8517   26.5482 H   0  0  0  0  0  0
  -28.2584  -38.0083   24.7517 H   0  0  0  0  0  0
  -28.1078  -36.2614   24.6292 H   0  0  0  0  0  0
  -27.2296  -37.1422   25.8871 H   0  0  0  0  0  0
  -20.9494  -29.8764   21.6756 H   0  0  0  0  0  0
  -26.0148  -38.2805   24.1407 H   0  0  0  0  0  0
  -27.8837  -23.0071   18.2460 H   0  0  0  0  0  0
  -29.5759  -23.3945   17.9977 H   0  0  0  0  0  0
  -28.9458  -22.6600   16.0561 H   0  0  0  0  0  0
  -28.0666  -21.3075   15.3893 H   0  0  0  0  0  0
  -29.8128  -21.4483   15.1554 H   0  0  0  0  0  0
  -28.9257  -19.2382   14.8754 H   0  0  0  0  0  0
  -29.3284  -17.7112   15.5669 H   0  0  0  0  0  0
  -30.6205  -18.8517   15.1591 H   0  0  0  0  0  0
  -31.3219  -17.0393   18.5569 H   0  0  0  0  0  0
  -31.0680  -17.2094   16.8861 H   0  0  0  0  0  0
  -29.8124  -16.4128   17.8266 H   0  0  0  0  0  0
  -30.8552  -21.4252   21.7077 H   0  0  0  0  0  0
  -29.6148  -20.3959   22.3866 H   0  0  0  0  0  0
  -29.5896  -22.1191   22.7204 H   0  0  0  0  0  0
  -26.7669  -21.5135   20.2839 H   0  0  0  0  0  0
  -27.1400  -22.0552   21.9139 H   0  0  0  0  0  0
  -27.2993  -20.3546   21.4924 H   0  0  0  0  0  0
  -31.2004  -23.0235   20.0238 H   0  0  0  0  0  0
  -30.5967  -23.9612   21.3924 H   0  0  0  0  0  0
  -30.6114  -24.6591   19.7858 H   0  0  0  0  0  0
  -29.2997  -18.0781   21.4627 H   0  0  0  0  0  0
  -30.9311  -17.9416   20.9317 H   0  0  0  0  0  0
  -27.8611  -24.5017   21.5235 H   0  0  0  0  0  0
  -27.0274  -24.3013   20.0488 H   0  0  0  0  0  0
  -28.7298  -15.9573   20.4898 H   0  0  0  0  0  0
  1 25  1  0  0  0
  1 30  2  0  0  0
  1 88  1  0  0  0
  2  3  1  0  0  0
  2 25  1  0  0  0
  2 89  1  0  0  0
  2 90  1  0  0  0
  3  4  1  0  0  0
  3 91  1  0  0  0
  3 92  1  0  0  0
  4  5  1  0  0  0
  4 93  1  0  0  0
  4 94  1  0  0  0
  5  6  1  0  0  0
  5 26  1  0  0  0
  5 95  1  0  0  0
  6 25  1  0  0  0
  6 96  1  0  0  0
  6 97  1  0  0  0
  7  8  2  0  0  0
  7 26  1  0  0  0
  7 29  1  0  0  0
  8  9  1  0  0  0
  8 22  1  0  0  0
  9 10  1  0  0  0
  9 27  2  0  0  0
 10 11  2  0  0  0
 10 15  1  0  0  0
 11 12  1  0  0  0
 11 98  1  0  0  0
 12 13  2  0  0  0
 12 99  1  0  0  0
 13 14  1  0  0  0
 13 31  1  0  0  0
 14 15  2  0  0  0
 14100  1  0  0  0
 15101  1  0  0  0
 16 17  2  0  0  0
 16 21  1  0  0  0
 16 31  1  0  0  0
 17 18  1  0  0  0
 17102  1  0  0  0
 18 19  2  0  0  0
 18103  1  0  0  0
 19 20  1  0  0  0
 19 24  1  0  0  0
 20 21  2  0  0  0
 20104  1  0  0  0
 21 23  1  0  0  0
 22 28  1  0  0  0
 22 32  2  0  0  0
 26 27  1  0  0  0
 28105  1  0  0  0
 28106  1  0  0  0
 29107  1  0  0  0
 29108  1  0  0  0
 33 34  1  0  0  0
 33 66  1  0  0  0
 33 70  2  0  0  0
 34 36  1  0  0  0
 34 59  1  0  0  0
 34109  1  0  0  0
 35 44  2  0  0  0
 35 45  1  0  0  0
 35 68  1  0  0  0
 36 56  1  0  0  0
 36110  1  0  0  0
 37 39  1  0  0  0
 37 47  1  0  0  0
 37 66  1  0  0  0
 37111  1  0  0  0
 38 43  2  0  0  0
 38 46  1  0  0  0
 38 47  1  0  0  0
 39 64  1  0  0  0
 39 67  2  0  0  0
 40 52  1  0  0  0
 40 53  2  0  0  0
 40 58  1  0  0  0
 41112  1  0  0  0
 41113  1  0  0  0
 41114  1  0  0  0
 41 48  1  0  0  0
 42 43  1  0  0  0
 42 66  1  0  0  0
 42115  1  0  0  0
 42116  1  0  0  0
 43 44  1  0  0  0
 44117  1  0  0  0
 45 46  2  0  0  0
 45118  1  0  0  0
 46119  1  0  0  0
 47120  1  0  0  0
 47121  1  0  0  0
 48 56  1  0  0  0
 48 65  1  0  0  0
 48122  1  0  0  0
 49 50  1  0  0  0
 49 53  1  0  0  0
 49 64  1  0  0  0
 49123  1  0  0  0
 50 51  1  0  0  0
 50124  1  0  0  0
 50125  1  0  0  0
 51 52  1  0  0  0
 51126  1  0  0  0
 51127  1  0  0  0
 52128  1  0  0  0
 52129  1  0  0  0
 53 54  1  0  0  0
 54 55  2  0  0  0
 54130  1  0  0  0
 55 57  1  0  0  0
 55131  1  0  0  0
 56 69  2  0  0  0
 57 58  2  0  0  0
 57132  1  0  0  0
 58133  1  0  0  0
 59 60  1  0  0  0
 59 61  1  0  0  0
 59 62  1  0  0  0
 60134  1  0  0  0
 60135  1  0  0  0
 60136  1  0  0  0
 61137  1  0  0  0
 61138  1  0  0  0
 61139  1  0  0  0
 62140  1  0  0  0
 62141  1  0  0  0
 62142  1  0  0  0
 63 65  1  0  0  0
 63143  1  0  0  0
 63144  1  0  0  0
 63145  1  0  0  0
 64146  1  0  0  0
 65147  1  0  0  0
 68 87  1  0  0  0
 71 72  1  0  0  0
 71 73  2  0  0  0
 71 77  1  0  0  0
 72 74  2  0  0  0
 72 78  1  0  0  0
 73 75  1  0  0  0
 73 80  1  0  0  0
 74 76  1  0  0  0
 74 86  1  0  0  0
 75 76  2  0  0  0
 75 81  1  0  0  0
 76 82  1  0  0  0
 77 79  1  0  0  0
 77148  1  0  0  0
 77149  1  0  0  0
 78 79  1  0  0  0
 78 83  1  0  0  0
 78 84  1  0  0  0
 79 85  1  0  0  0
 79 87  1  0  0  0
 80150  1  0  0  0
 80151  1  0  0  0
 80152  1  0  0  0
 81153  1  0  0  0
 81154  1  0  0  0
 81155  1  0  0  0
 82156  1  0  0  0
 82157  1  0  0  0
 82158  1  0  0  0
 83159  1  0  0  0
 83160  1  0  0  0
 83161  1  0  0  0
 84162  1  0  0  0
 84163  1  0  0  0
 84164  1  0  0  0
 85165  1  0  0  0
 85166  1  0  0  0
 85167  1  0  0  0
 86 88  1  0  0  0
 86168  1  0  0  0
 86169  1  0  0  0
 87170  1  0  0  0
 87171  1  0  0  0
 88172  1  0  0  0
M  ISO  4   1 100  68 101  87 101  88 100
M  END
> <chiral flag>
0

> <version>
0

> <s_m_source_file>
/data/baiqing/PycharmProjects/Reinvent-master-3.2/result/LINK_invent/BTK/process_docking_weight1_custom_sum_contain_oxygen_bond_distance_aromatic_linkinvent_7_9_3/rearranged_h_0167.sdf

> <i_m_source_file_index>
1

> <r_mmod_Potential_Energy-OPLS-2005>
687.525756835938

> <r_mmod_Stretch_Energy-OPLS-2005>
341.717987060547

> <r_mmod_Bend_Energy-OPLS-2005>
375.141021728516

> <r_mmod_Torsional_Energy-OPLS-2005>
246.099731445312

> <r_mmod_Improper_Torsional_Energy-OPLS-2005>
5.01701021194458

> <r_mmod_Van_der_Waal_Energy-OPLS-2005>
150.908401489258

> <r_mmod_Electrostatic_Energy-OPLS-2005>
-467.137054443359

> <r_mmod_Solvation_Energy-OPLS-2005>
-203.882217407227

> <b_mmod_Minimization_Converged-OPLS-2005>
0

> <r_mmod_RMS_Derivative-OPLS-2005>
1.04519855976105

$$$$
1
                    3D
 Structure written by MMmdl.
179189  0  0  1  0            999 V2000
  -30.7259  -14.5038   20.6238 C   0  0  0  0  0  0
  -30.4194  -12.3413   19.4372 C   0  0  0  0  0  0
  -29.4949  -12.5062   18.2110 C   0  0  0  0  0  0
  -28.0135  -12.3633   18.6103 C   0  0  0  0  0  0
  -27.6543  -13.2066   19.8601 C   0  0  2  0  0  0
  -28.6861  -12.9883   20.9803 C   0  0  0  0  0  0
  -25.2557  -13.8163   20.5636 C   0  0  0  0  0  0
  -24.1807  -13.0433   20.9154 C   0  0  0  0  0  0
  -24.6362  -11.6911   20.8697 C   0  0  0  0  0  0
  -23.9039  -10.4289   21.0379 C   0  0  0  0  0  0
  -24.3598   -9.4214   21.9160 C   0  0  0  0  0  0
  -23.6277   -8.2252   22.0760 C   0  0  0  0  0  0
  -22.4259   -8.0272   21.3557 C   0  0  0  0  0  0
  -21.9887   -9.0244   20.4661 C   0  0  0  0  0  0
  -22.7209  -10.2124   20.3046 C   0  0  0  0  0  0
  -21.6852   -6.0713   22.5277 C   0  0  0  0  0  0
  -21.4009   -6.5625   23.8207 C   0  0  0  0  0  0
  -21.3661   -5.6787   24.9176 C   0  0  0  0  0  0
  -21.6050   -4.3052   24.7233 C   0  0  0  0  0  0
  -21.8819   -3.8132   23.4357 C   0  0  0  0  0  0
  -21.9195   -4.6941   22.3406 C   0  0  0  0  0  0
  -22.7841  -13.5251   21.1829 C   0  0  0  0  0  0
  -22.1662   -4.2123   21.0985 F   0  0  0  0  0  0
  -21.5638   -3.4547   25.7753 F   0  0  0  0  0  0
  -30.0213  -13.3367   20.4574 N   0  0  0  0  0  0
  -26.2962  -12.9321   20.3255 N   0  0  0  0  0  0
  -25.9277  -11.6485   20.5693 N   0  0  0  0  0  0
  -22.0487  -12.8246   22.0396 N   0  0  0  0  0  0
  -25.4289  -15.1877   20.4072 N   0  0  0  0  0  0
  -31.8061  -14.6730   20.0475 O   0  0  0  0  0  0
  -21.6651   -6.8851   21.4231 O   0  0  0  0  0  0
  -22.3530  -14.5546   20.6674 O   0  0  0  0  0  0
  -24.6195  -31.8637   23.2078 C   0  0  0  0  0  0
  -25.9073  -32.4803   23.8378 C   0  0  1  0  0  0
  -27.2250  -27.3913   20.1106 C   0  0  0  0  0  0
  -25.5922  -33.8604   24.2311 N   0  0  0  0  0  0
  -23.4095  -30.4871   21.5495 C   0  0  2  0  0  0
  -24.8549  -28.9476   20.1129 C   0  0  0  0  0  0
  -22.7445  -29.4628   22.4978 C   0  0  0  0  0  0
  -18.0279  -28.1373   22.8513 C   0  0  0  0  0  0
  -24.1484  -36.7290   23.2648 C   0  0  0  0  0  0
  -25.9414  -30.8193   21.3624 C   0  0  0  0  0  0
  -26.0179  -29.4507   20.7092 C   0  0  0  0  0  0
  -27.2110  -28.6838   20.6951 C   0  0  0  0  0  0
  -26.0453  -26.9103   19.5042 C   0  0  0  0  0  0
  -24.8663  -27.6813   19.5019 C   0  0  0  0  0  0
  -23.6188  -29.8204   20.1638 C   0  0  0  0  0  0
  -25.4110  -36.3091   24.0338 C   0  0  1  0  0  0
  -20.5881  -28.3652   23.1327 C   0  0  2  0  0  0
  -20.6783  -26.9387   22.5421 C   0  0  0  0  0  0
  -19.5755  -26.6377   21.5230 C   0  0  0  0  0  0
  -18.1926  -26.7929   22.1633 C   0  0  0  0  0  0
  -19.1534  -28.8831   23.2920 C   0  0  0  0  0  0
  -18.9459  -30.1439   23.8925 C   0  0  0  0  0  0
  -17.6462  -30.6589   24.0564 C   0  0  0  0  0  0
  -25.9040  -34.9466   23.5119 C   0  0  0  0  0  0
  -16.5349  -29.9088   23.6341 C   0  0  0  0  0  0
  -16.7267  -28.6503   23.0369 C   0  0  0  0  0  0
  -26.4488  -31.6597   25.0723 C   0  0  0  0  0  0
  -25.3758  -31.3708   26.1476 C   0  0  0  0  0  0
  -27.0323  -30.3053   24.6093 C   0  0  0  0  0  0
  -27.6075  -32.4310   25.7475 C   0  0  0  0  0  0
  -27.5570  -37.1798   24.8474 C   0  0  0  0  0  0
  -21.4166  -29.3015   22.3730 N   0  0  0  0  0  0
  -26.4287  -37.3781   23.9417 N   0  0  0  0  0  0
  -24.6756  -31.0714   22.0985 N   0  0  0  0  0  0
  -23.4211  -28.8174   23.3023 O   0  0  0  0  0  0
  -28.3686  -26.6119   20.0987 O   0  0  0  0  0  0
  -26.5594  -34.8929   22.4674 O   0  0  0  0  0  0
  -23.5373  -32.1395   23.7459 O   0  0  0  0  0  0
  -30.7339  -18.1524   25.1210 C   0  0  0  0  0  0
  -30.5117  -17.7318   23.8024 C   0  0  0  0  0  0
  -30.1571  -18.6804   22.7951 C   0  0  0  0  0  0
  -30.2035  -20.0964   23.1149 C   0  0  0  0  0  0
  -30.6263  -19.4953   25.4829 C   0  0  0  0  0  0
  -30.3756  -20.4743   24.4951 C   0  0  0  0  0  0
  -30.7627  -16.2419   23.5611 C   0  0  0  0  0  0
  -29.6361  -18.1343   21.4500 C   0  0  0  0  0  0
  -31.1462  -21.2044   20.8342 C   0  0  0  0  0  0
  -29.7721  -15.4863   22.6735 C   0  0  0  0  0  0
  -30.4225  -16.9544   20.7828 C   0  0  0  0  0  0
  -30.7443  -22.4795   20.0421 C   0  0  0  0  0  0
  -30.2323  -21.2653   22.0670 C   0  0  1  0  0  0
  -28.9667  -21.9832   21.5176 C   0  0  1  0  0  0
  -30.8480  -19.8585   26.9450 C   0  0  0  0  0  0
  -30.3599  -21.9299   24.9869 C   0  0  0  0  0  0
  -27.9043  -22.4341   22.5333 C   0  0  0  0  0  0
  -28.7751  -24.0879   19.9732 C   0  0  0  0  0  0
  -28.2904  -25.3350   20.7908 C   0  0  0  0  0  0
  -30.1263  -15.5665   21.2517 N   0  0  0  0  0  0
  -29.6016  -23.1076   20.7639 N   0  3  2  0  0  0
  -31.4629  -12.4366   19.1333 H   0  0  0  0  0  0
  -30.3312  -11.3326   19.8449 H   0  0  0  0  0  0
  -29.7428  -11.7649   17.4500 H   0  0  0  0  0  0
  -29.6602  -13.4800   17.7480 H   0  0  0  0  0  0
  -27.8184  -11.3065   18.8035 H   0  0  0  0  0  0
  -27.3693  -12.6406   17.7757 H   0  0  0  0  0  0
  -27.7008  -14.2562   19.5684 H   0  0  0  0  0  0
  -28.6836  -11.9431   21.2929 H   0  0  0  0  0  0
  -28.3691  -13.5450   21.8543 H   0  0  0  0  0  0
  -25.2741   -9.5711   22.4728 H   0  0  0  0  0  0
  -23.9999   -7.4658   22.7479 H   0  0  0  0  0  0
  -21.0827   -8.8749   19.8971 H   0  0  0  0  0  0
  -22.3646  -10.9656   19.6163 H   0  0  0  0  0  0
  -21.1990   -7.6136   23.9692 H   0  0  0  0  0  0
  -21.1486   -6.0530   25.9075 H   0  0  0  0  0  0
  -22.0592   -2.7590   23.2875 H   0  0  0  0  0  0
  -22.4133  -11.9934   22.4798 H   0  0  0  0  0  0
  -21.1103  -13.1269   22.2599 H   0  0  0  0  0  0
  -24.6643  -15.8441   20.5200 H   0  0  0  0  0  0
  -26.2923  -15.6304   20.1176 H   0  0  0  0  0  0
  -26.7139  -32.5501   23.1130 H   0  0  0  0  0  0
  -25.0099  -33.9750   25.0474 H   0  0  0  0  0  0
  -22.7004  -31.3057   21.4112 H   0  0  0  0  0  0
  -23.3736  -35.9629   23.3319 H   0  0  0  0  0  0
  -24.3585  -36.8898   22.2061 H   0  0  0  0  0  0
  -23.7230  -37.6499   23.6650 H   0  0  0  0  0  0
  -26.0571  -31.5835   20.5924 H   0  0  0  0  0  0
  -26.8276  -30.8718   21.9826 H   0  0  0  0  0  0
  -28.1129  -29.0717   21.1479 H   0  0  0  0  0  0
  -26.0366  -25.9380   19.0302 H   0  0  0  0  0  0
  -23.9720  -27.2950   19.0314 H   0  0  0  0  0  0
  -23.7272  -30.5978   19.4061 H   0  0  0  0  0  0
  -22.7413  -29.2436   19.8661 H   0  0  0  0  0  0
  -25.1278  -36.1959   25.0826 H   0  0  0  0  0  0
  -20.9962  -28.3204   24.1451 H   0  0  0  0  0  0
  -20.5708  -26.2241   23.3594 H   0  0  0  0  0  0
  -21.6650  -26.7438   22.1194 H   0  0  0  0  0  0
  -19.6916  -25.6294   21.1244 H   0  0  0  0  0  0
  -19.6718  -27.3213   20.6788 H   0  0  0  0  0  0
  -17.4206  -26.6693   21.4020 H   0  0  0  0  0  0
  -18.0307  -26.0055   22.9010 H   0  0  0  0  0  0
  -19.7927  -30.7247   24.2307 H   0  0  0  0  0  0
  -17.5018  -31.6288   24.5128 H   0  0  0  0  0  0
  -15.5352  -30.2995   23.7663 H   0  0  0  0  0  0
  -15.8664  -28.0827   22.7079 H   0  0  0  0  0  0
  -24.5919  -30.7071   25.7811 H   0  0  0  0  0  0
  -24.8959  -32.2866   26.4948 H   0  0  0  0  0  0
  -25.8111  -30.8857   27.0225 H   0  0  0  0  0  0
  -26.2854  -29.6803   24.1180 H   0  0  0  0  0  0
  -27.4150  -29.7312   25.4541 H   0  0  0  0  0  0
  -27.8674  -30.4390   23.9209 H   0  0  0  0  0  0
  -27.2715  -33.3614   26.2065 H   0  0  0  0  0  0
  -28.3874  -32.6856   25.0286 H   0  0  0  0  0  0
  -28.0751  -31.8418   26.5371 H   0  0  0  0  0  0
  -28.2594  -38.0089   24.7502 H   0  0  0  0  0  0
  -28.1040  -36.2611   24.6298 H   0  0  0  0  0  0
  -27.2286  -37.1461   25.8880 H   0  0  0  0  0  0
  -20.9320  -29.8712   21.6939 H   0  0  0  0  0  0
  -26.0165  -38.2852   24.1438 H   0  0  0  0  0  0
  -30.9909  -17.4273   25.8819 H   0  0  0  0  0  0
  -30.7710  -15.7293   24.5248 H   0  0  0  0  0  0
  -31.7761  -16.1206   23.1762 H   0  0  0  0  0  0
  -29.5437  -18.9466   20.7377 H   0  0  0  0  0  0
  -28.5986  -17.8348   21.6087 H   0  0  0  0  0  0
  -32.2014  -21.2138   21.1106 H   0  0  0  0  0  0
  -30.9975  -20.3260   20.2127 H   0  0  0  0  0  0
  -28.7388  -15.7822   22.8585 H   0  0  0  0  0  0
  -29.8558  -14.4493   23.0035 H   0  0  0  0  0  0
  -31.4933  -17.1614   20.8376 H   0  0  0  0  0  0
  -30.1832  -16.9723   19.7179 H   0  0  0  0  0  0
  -30.4550  -22.2082   19.0256 H   0  0  0  0  0  0
  -31.5748  -23.1832   19.9715 H   0  0  0  0  0  0
  -30.7803  -22.0387   22.5989 H   0  0  0  0  0  0
  -28.4749  -21.3080   20.8147 H   0  0  0  0  0  0
  -31.1622  -18.9936   27.5308 H   0  0  0  0  0  0
  -29.9280  -20.2359   27.3915 H   0  0  0  0  0  0
  -31.6190  -20.6237   27.0430 H   0  0  0  0  0  0
  -29.8379  -22.6325   24.3511 H   0  0  0  0  0  0
  -31.3825  -22.2891   25.1030 H   0  0  0  0  0  0
  -29.8607  -22.0289   25.9497 H   0  0  0  0  0  0
  -28.2201  -23.2960   23.1192 H   0  0  0  0  0  0
  -27.6460  -21.6234   23.2167 H   0  0  0  0  0  0
  -26.9873  -22.7216   22.0191 H   0  0  0  0  0  0
  -29.4126  -24.4679   19.1740 H   0  0  0  0  0  0
  -27.9424  -23.5869   19.4791 H   0  0  0  0  0  0
  -28.9270  -25.4506   21.6685 H   0  0  0  0  0  0
  -27.2928  -25.1438   21.1910 H   0  0  0  0  0  0
  -30.0549  -23.6698   21.4695 H   0  0  0  0  0  0
  1 25  1  0  0  0
  1 30  2  0  0  0
  1 90  1  0  0  0
  2  3  1  0  0  0
  2 25  1  0  0  0
  2 92  1  0  0  0
  2 93  1  0  0  0
  3  4  1  0  0  0
  3 94  1  0  0  0
  3 95  1  0  0  0
  4  5  1  0  0  0
  4 96  1  0  0  0
  4 97  1  0  0  0
  5  6  1  0  0  0
  5 26  1  0  0  0
  5 98  1  0  0  0
  6 25  1  0  0  0
  6 99  1  0  0  0
  6100  1  0  0  0
  7  8  2  0  0  0
  7 26  1  0  0  0
  7 29  1  0  0  0
  8  9  1  0  0  0
  8 22  1  0  0  0
  9 10  1  0  0  0
  9 27  2  0  0  0
 10 11  2  0  0  0
 10 15  1  0  0  0
 11 12  1  0  0  0
 11101  1  0  0  0
 12 13  2  0  0  0
 12102  1  0  0  0
 13 14  1  0  0  0
 13 31  1  0  0  0
 14 15  2  0  0  0
 14103  1  0  0  0
 15104  1  0  0  0
 16 17  2  0  0  0
 16 21  1  0  0  0
 16 31  1  0  0  0
 17 18  1  0  0  0
 17105  1  0  0  0
 18 19  2  0  0  0
 18106  1  0  0  0
 19 20  1  0  0  0
 19 24  1  0  0  0
 20 21  2  0  0  0
 20107  1  0  0  0
 21 23  1  0  0  0
 22 28  1  0  0  0
 22 32  2  0  0  0
 26 27  1  0  0  0
 28108  1  0  0  0
 28109  1  0  0  0
 29110  1  0  0  0
 29111  1  0  0  0
 33 34  1  0  0  0
 33 66  1  0  0  0
 33 70  2  0  0  0
 34 36  1  0  0  0
 34 59  1  0  0  0
 34112  1  0  0  0
 35 44  2  0  0  0
 35 45  1  0  0  0
 35 68  1  0  0  0
 36 56  1  0  0  0
 36113  1  0  0  0
 37 39  1  0  0  0
 37 47  1  0  0  0
 37 66  1  0  0  0
 37114  1  0  0  0
 38 43  2  0  0  0
 38 46  1  0  0  0
 38 47  1  0  0  0
 39 64  1  0  0  0
 39 67  2  0  0  0
 40 52  1  0  0  0
 40 53  2  0  0  0
 40 58  1  0  0  0
 41115  1  0  0  0
 41116  1  0  0  0
 41117  1  0  0  0
 41 48  1  0  0  0
 42 43  1  0  0  0
 42 66  1  0  0  0
 42118  1  0  0  0
 42119  1  0  0  0
 43 44  1  0  0  0
 44120  1  0  0  0
 45 46  2  0  0  0
 45121  1  0  0  0
 46122  1  0  0  0
 47123  1  0  0  0
 47124  1  0  0  0
 48 56  1  0  0  0
 48 65  1  0  0  0
 48125  1  0  0  0
 49 50  1  0  0  0
 49 53  1  0  0  0
 49 64  1  0  0  0
 49126  1  0  0  0
 50 51  1  0  0  0
 50127  1  0  0  0
 50128  1  0  0  0
 51 52  1  0  0  0
 51129  1  0  0  0
 51130  1  0  0  0
 52131  1  0  0  0
 52132  1  0  0  0
 53 54  1  0  0  0
 54 55  2  0  0  0
 54133  1  0  0  0
 55 57  1  0  0  0
 55134  1  0  0  0
 56 69  2  0  0  0
 57 58  2  0  0  0
 57135  1  0  0  0
 58136  1  0  0  0
 59 60  1  0  0  0
 59 61  1  0  0  0
 59 62  1  0  0  0
 60137  1  0  0  0
 60138  1  0  0  0
 60139  1  0  0  0
 61140  1  0  0  0
 61141  1  0  0  0
 61142  1  0  0  0
 62143  1  0  0  0
 62144  1  0  0  0
 62145  1  0  0  0
 63 65  1  0  0  0
 63146  1  0  0  0
 63147  1  0  0  0
 63148  1  0  0  0
 64149  1  0  0  0
 65150  1  0  0  0
 68 89  1  0  0  0
 71 72  2  0  0  0
 71 75  1  0  0  0
 71151  1  0  0  0
 72 73  1  0  0  0
 72 77  1  0  0  0
 73 74  2  0  0  0
 73 78  1  0  0  0
 74 76  1  0  0  0
 74 83  1  0  0  0
 75 76  2  0  0  0
 75 85  1  0  0  0
 76 86  1  0  0  0
 77 80  1  0  0  0
 77152  1  0  0  0
 77153  1  0  0  0
 78 81  1  0  0  0
 78154  1  0  0  0
 78155  1  0  0  0
 79 82  1  0  0  0
 79 83  1  0  0  0
 79156  1  0  0  0
 79157  1  0  0  0
 80 90  1  0  0  0
 80158  1  0  0  0
 80159  1  0  0  0
 81 90  1  0  0  0
 81160  1  0  0  0
 81161  1  0  0  0
 82 91  1  0  0  0
 82162  1  0  0  0
 82163  1  0  0  0
 83 84  1  0  0  0
 83164  1  0  0  0
 84 87  1  0  0  0
 84 91  1  0  0  0
 84165  1  0  0  0
 85166  1  0  0  0
 85167  1  0  0  0
 85168  1  0  0  0
 86169  1  0  0  0
 86170  1  0  0  0
 86171  1  0  0  0
 87172  1  0  0  0
 87173  1  0  0  0
 87174  1  0  0  0
 88 89  1  0  0  0
 88175  1  0  0  0
 88176  1  0  0  0
 88 91  1  0  0  0
 89177  1  0  0  0
 89178  1  0  0  0
 91179  1  0  0  0
M  CHG  1  91   1
M  ISO  4   1 100  68 101  89 101  90 100
M  END
> <chiral flag>
0

> <version>
0

> <s_m_source_file>
/data/baiqing/PycharmProjects/Reinvent-master-3.2/result/LINK_invent/BTK/process_docking_weight1_custom_sum_contain_oxygen_bond_distance_aromatic_linkinvent_7_9_3/rearranged_h_0167.sdf

> <i_m_source_file_index>
2

> <r_mmod_Potential_Energy-OPLS-2005>
266.563323974609

> <r_mmod_Stretch_Energy-OPLS-2005>
69.2827835083008

> <r_mmod_Bend_Energy-OPLS-2005>
218.606964111328

> <r_mmod_Torsional_Energy-OPLS-2005>
418.843963623047

> <r_mmod_Improper_Torsional_Energy-OPLS-2005>
7.66243505477905

> <r_mmod_Van_der_Waal_Energy-OPLS-2005>
173.109634399414

> <r_mmod_Electrostatic_Energy-OPLS-2005>
-229.44270324707

> <r_mmod_Solvation_Energy-OPLS-2005>
-409.034759521484

> <b_mmod_Minimization_Converged-OPLS-2005>
0

> <r_mmod_RMS_Derivative-OPLS-2005>
2.41837358474731

$$$$
2
                    3D
 Structure written by MMmdl.
174183  0  0  1  0            999 V2000
  -30.7239  -14.5740   20.5647 C   0  0  0  0  0  0
  -30.4137  -12.3784   19.4493 C   0  0  0  0  0  0
  -29.4905  -12.5025   18.2206 C   0  0  0  0  0  0
  -28.0211  -12.3206   18.6389 C   0  0  0  0  0  0
  -27.6480  -13.2010   19.8574 C   0  0  2  0  0  0
  -28.6944  -13.0670   20.9943 C   0  0  0  0  0  0
  -25.2541  -13.8147   20.5652 C   0  0  0  0  0  0
  -24.1812  -13.0429   20.9195 C   0  0  0  0  0  0
  -24.6367  -11.6898   20.8757 C   0  0  0  0  0  0
  -23.9042  -10.4290   21.0416 C   0  0  0  0  0  0
  -24.3602   -9.4208   21.9192 C   0  0  0  0  0  0
  -23.6280   -8.2243   22.0760 C   0  0  0  0  0  0
  -22.4267   -8.0279   21.3544 C   0  0  0  0  0  0
  -21.9899   -9.0253   20.4645 C   0  0  0  0  0  0
  -22.7223  -10.2133   20.3055 C   0  0  0  0  0  0
  -21.6846   -6.0736   22.5283 C   0  0  0  0  0  0
  -21.4006   -6.5638   23.8218 C   0  0  0  0  0  0
  -21.3651   -5.6791   24.9179 C   0  0  0  0  0  0
  -21.6044   -4.3056   24.7230 C   0  0  0  0  0  0
  -21.8823   -3.8149   23.4352 C   0  0  0  0  0  0
  -21.9193   -4.6966   22.3406 C   0  0  0  0  0  0
  -22.7838  -13.5230   21.1852 C   0  0  0  0  0  0
  -22.1659   -4.2152   21.0984 F   0  0  0  0  0  0
  -21.5629   -3.4539   25.7743 F   0  0  0  0  0  0
  -30.0086  -13.4082   20.4344 N   0  0  0  0  0  0
  -26.2953  -12.9296   20.3300 N   0  0  0  0  0  0
  -25.9286  -11.6475   20.5776 N   0  0  0  0  0  0
  -22.0467  -12.8228   22.0394 N   0  0  0  0  0  0
  -25.4234  -15.1862   20.4014 N   0  0  0  0  0  0
  -31.8564  -14.6462   20.0763 O   0  0  0  0  0  0
  -21.6628   -6.8879   21.4247 O   0  0  0  0  0  0
  -22.3537  -14.5544   20.6701 O   0  0  0  0  0  0
  -24.6194  -31.8647   23.2061 C   0  0  0  0  0  0
  -25.9072  -32.4803   23.8371 C   0  0  1  0  0  0
  -27.2241  -27.3869   20.1118 C   0  0  0  0  0  0
  -25.5914  -33.8598   24.2302 N   0  0  0  0  0  0
  -23.4094  -30.4877   21.5482 C   0  0  2  0  0  0
  -24.8576  -28.9511   20.1096 C   0  0  0  0  0  0
  -22.7443  -29.4639   22.4967 C   0  0  0  0  0  0
  -18.0278  -28.1366   22.8484 C   0  0  0  0  0  0
  -24.1486  -36.7306   23.2641 C   0  0  0  0  0  0
  -25.9424  -30.8179   21.3648 C   0  0  0  0  0  0
  -26.0212  -29.4495   20.7105 C   0  0  0  0  0  0
  -27.2118  -28.6773   20.7043 C   0  0  0  0  0  0
  -26.0479  -26.9192   19.4898 C   0  0  0  0  0  0
  -24.8691  -27.6892   19.4906 C   0  0  0  0  0  0
  -23.6203  -29.8228   20.1625 C   0  0  0  0  0  0
  -25.4107  -36.3098   24.0338 C   0  0  1  0  0  0
  -20.5876  -28.3669   23.1301 C   0  0  2  0  0  0
  -20.6773  -26.9405   22.5403 C   0  0  0  0  0  0
  -19.5753  -26.6391   21.5195 C   0  0  0  0  0  0
  -18.1929  -26.7917   22.1607 C   0  0  0  0  0  0
  -19.1525  -28.8832   23.2891 C   0  0  0  0  0  0
  -18.9454  -30.1435   23.8915 C   0  0  0  0  0  0
  -17.6460  -30.6579   24.0557 C   0  0  0  0  0  0
  -25.9043  -34.9466   23.5121 C   0  0  0  0  0  0
  -16.5350  -29.9080   23.6322 C   0  0  0  0  0  0
  -16.7265  -28.6490   23.0355 C   0  0  0  0  0  0
  -26.4495  -31.6583   25.0697 C   0  0  0  0  0  0
  -25.3753  -31.3646   26.1430 C   0  0  0  0  0  0
  -27.0354  -30.3037   24.6073 C   0  0  0  0  0  0
  -27.6069  -32.4303   25.7468 C   0  0  0  0  0  0
  -27.5579  -37.1808   24.8469 C   0  0  0  0  0  0
  -21.4163  -29.3038   22.3708 N   0  0  0  0  0  0
  -26.4293  -37.3783   23.9407 N   0  0  0  0  0  0
  -24.6756  -31.0717   22.0975 N   0  0  0  0  0  0
  -23.4200  -28.8183   23.3023 O   0  0  0  0  0  0
  -28.3337  -26.5578   20.1483 O   0  0  0  0  0  0
  -26.5621  -34.8933   22.4693 O   0  0  0  0  0  0
  -23.5376  -32.1418   23.7429 O   0  0  0  0  0  0
  -30.2826  -19.1969   18.1678 C   0  0  0  0  0  0
  -30.1132  -19.7078   19.4712 C   0  0  0  0  0  0
  -30.2439  -21.1407   19.6474 C   0  0  0  0  0  0
  -30.7353  -21.8772   18.5160 C   0  0  0  0  0  0
  -30.7917  -21.2398   17.2548 C   0  0  0  0  0  0
  -28.8603  -17.5379   20.2839 C   0  0  0  0  0  0
  -31.2881  -17.9065   20.8564 C   0  0  0  0  0  0
  -28.9076  -16.2993   21.2305 C   0  0  0  0  0  0
  -31.1761  -16.6779   21.8011 C   0  0  0  0  0  0
  -29.9374  -18.6313   20.5886 C   0  0  0  0  0  0
  -31.2930  -23.3019   18.5963 C   0  0  0  0  0  0
  -31.1538  -21.9771   15.9767 C   0  0  0  0  0  0
  -31.0460  -21.5734   22.0205 C   0  0  0  0  0  0
  -28.4383  -23.9598   20.4697 C   0  0  0  0  0  0
  -28.1929  -25.4104   21.0379 C   0  0  0  0  0  0
  -29.9261  -21.8498   21.0011 C   0  0  1  0  0  0
  -30.5511  -19.9354   17.0845 N   0  0  0  0  0  0
  -30.2428  -15.6597   21.2692 N   0  0  0  0  0  0
  -29.7094  -23.3407   20.9696 N   0  3  0  0  0  0
  -31.4560  -12.4672   19.1384 H   0  0  0  0  0  0
  -30.3296  -11.3849   19.8913 H   0  0  0  0  0  0
  -29.7595  -11.7587   17.4690 H   0  0  0  0  0  0
  -29.6241  -13.4781   17.7509 H   0  0  0  0  0  0
  -27.8742  -11.2681   18.8849 H   0  0  0  0  0  0
  -27.3579  -12.5320   17.7997 H   0  0  0  0  0  0
  -27.6581  -14.2178   19.4710 H   0  0  0  0  0  0
  -28.7088  -12.0427   21.3696 H   0  0  0  0  0  0
  -28.4448  -13.6788   21.8603 H   0  0  0  0  0  0
  -25.2749   -9.5686   22.4764 H   0  0  0  0  0  0
  -23.9991   -7.4634   22.7476 H   0  0  0  0  0  0
  -21.0836   -8.8775   19.8938 H   0  0  0  0  0  0
  -22.3695  -10.9674   19.6160 H   0  0  0  0  0  0
  -21.1991   -7.6145   23.9722 H   0  0  0  0  0  0
  -21.1463   -6.0517   25.9080 H   0  0  0  0  0  0
  -22.0607   -2.7609   23.2855 H   0  0  0  0  0  0
  -22.4072  -11.9885   22.4786 H   0  0  0  0  0  0
  -21.1075  -13.1255   22.2573 H   0  0  0  0  0  0
  -24.6561  -15.8408   20.5121 H   0  0  0  0  0  0
  -26.2691  -15.6227   20.0595 H   0  0  0  0  0  0
  -26.7130  -32.5508   23.1128 H   0  0  0  0  0  0
  -25.0040  -33.9750   25.0431 H   0  0  0  0  0  0
  -22.6984  -31.3049   21.4096 H   0  0  0  0  0  0
  -23.3754  -35.9635   23.3297 H   0  0  0  0  0  0
  -24.3560  -36.8939   22.2055 H   0  0  0  0  0  0
  -23.7241  -37.6504   23.6669 H   0  0  0  0  0  0
  -26.0576  -31.5821   20.5956 H   0  0  0  0  0  0
  -26.8284  -30.8733   21.9845 H   0  0  0  0  0  0
  -28.1079  -29.0522   21.1805 H   0  0  0  0  0  0
  -26.0378  -25.9480   19.0157 H   0  0  0  0  0  0
  -23.9760  -27.3032   19.0181 H   0  0  0  0  0  0
  -23.7288  -30.6001   19.4051 H   0  0  0  0  0  0
  -22.7419  -29.2462   19.8661 H   0  0  0  0  0  0
  -25.1283  -36.1965   25.0833 H   0  0  0  0  0  0
  -20.9953  -28.3245   24.1428 H   0  0  0  0  0  0
  -20.5681  -26.2278   23.3590 H   0  0  0  0  0  0
  -21.6644  -26.7459   22.1194 H   0  0  0  0  0  0
  -19.6929  -25.6312   21.1210 H   0  0  0  0  0  0
  -19.6692  -27.3212   20.6736 H   0  0  0  0  0  0
  -17.4204  -26.6665   21.4006 H   0  0  0  0  0  0
  -18.0333  -26.0041   22.8985 H   0  0  0  0  0  0
  -19.7929  -30.7224   24.2316 H   0  0  0  0  0  0
  -17.5021  -31.6263   24.5150 H   0  0  0  0  0  0
  -15.5350  -30.2995   23.7638 H   0  0  0  0  0  0
  -15.8658  -28.0809   22.7089 H   0  0  0  0  0  0
  -24.5963  -30.6971   25.7733 H   0  0  0  0  0  0
  -24.8902  -32.2769   26.4903 H   0  0  0  0  0  0
  -25.8112  -30.8787   27.0171 H   0  0  0  0  0  0
  -26.2897  -29.6742   24.1203 H   0  0  0  0  0  0
  -27.4231  -29.7325   25.4520 H   0  0  0  0  0  0
  -27.8682  -30.4368   23.9163 H   0  0  0  0  0  0
  -27.2714  -33.3627   26.2024 H   0  0  0  0  0  0
  -28.3898  -32.6819   25.0297 H   0  0  0  0  0  0
  -28.0716  -31.8427   26.5395 H   0  0  0  0  0  0
  -28.2595  -38.0109   24.7533 H   0  0  0  0  0  0
  -28.1089  -36.2645   24.6293 H   0  0  0  0  0  0
  -27.2294  -37.1462   25.8872 H   0  0  0  0  0  0
  -20.9342  -29.8752   21.6911 H   0  0  0  0  0  0
  -26.0188  -38.2869   24.1390 H   0  0  0  0  0  0
  -30.2437  -18.1385   17.9649 H   0  0  0  0  0  0
  -27.8686  -17.9908   20.3231 H   0  0  0  0  0  0
  -28.9582  -17.1452   19.2747 H   0  0  0  0  0  0
  -31.7135  -17.5627   19.9126 H   0  0  0  0  0  0
  -32.0160  -18.6102   21.2597 H   0  0  0  0  0  0
  -28.1190  -15.6198   20.9492 H   0  0  0  0  0  0
  -28.6431  -16.6114   22.2419 H   0  0  0  0  0  0
  -30.8445  -17.0024   22.7884 H   0  0  0  0  0  0
  -32.1682  -16.2544   21.9682 H   0  0  0  0  0  0
  -29.6222  -19.1132   21.5125 H   0  0  0  0  0  0
  -31.7828  -23.4984   19.5490 H   0  0  0  0  0  0
  -30.5240  -24.0498   18.4026 H   0  0  0  0  0  0
  -32.0853  -23.4618   17.8650 H   0  0  0  0  0  0
  -30.6521  -22.9440   15.9271 H   0  0  0  0  0  0
  -30.8525  -21.4135   15.0931 H   0  0  0  0  0  0
  -32.2304  -22.1364   15.9179 H   0  0  0  0  0  0
  -31.1893  -20.5134   22.2059 H   0  0  0  0  0  0
  -30.8245  -22.0243   22.9881 H   0  0  0  0  0  0
  -32.0019  -21.9701   21.6765 H   0  0  0  0  0  0
  -28.3934  -23.9497   19.3811 H   0  0  0  0  0  0
  -27.6152  -23.3275   20.8069 H   0  0  0  0  0  0
  -28.8556  -25.5861   21.8857 H   0  0  0  0  0  0
  -27.1984  -25.4107   21.4897 H   0  0  0  0  0  0
  -29.0078  -21.4072   21.3894 H   0  0  0  0  0  0
  -29.8169  -23.6373   21.9259 H   0  0  0  0  0  0
  -30.4774  -23.7324   20.4484 H   0  0  0  0  0  0
  1 25  1  0  0  0
  1 30  2  0  0  0
  1 88  1  0  0  0
  2  3  1  0  0  0
  2 25  1  0  0  0
  2 90  1  0  0  0
  2 91  1  0  0  0
  3  4  1  0  0  0
  3 92  1  0  0  0
  3 93  1  0  0  0
  4  5  1  0  0  0
  4 94  1  0  0  0
  4 95  1  0  0  0
  5  6  1  0  0  0
  5 26  1  0  0  0
  5 96  1  0  0  0
  6 25  1  0  0  0
  6 97  1  0  0  0
  6 98  1  0  0  0
  7  8  2  0  0  0
  7 26  1  0  0  0
  7 29  1  0  0  0
  8  9  1  0  0  0
  8 22  1  0  0  0
  9 10  1  0  0  0
  9 27  2  0  0  0
 10 11  2  0  0  0
 10 15  1  0  0  0
 11 12  1  0  0  0
 11 99  1  0  0  0
 12 13  2  0  0  0
 12100  1  0  0  0
 13 14  1  0  0  0
 13 31  1  0  0  0
 14 15  2  0  0  0
 14101  1  0  0  0
 15102  1  0  0  0
 16 17  2  0  0  0
 16 21  1  0  0  0
 16 31  1  0  0  0
 17 18  1  0  0  0
 17103  1  0  0  0
 18 19  2  0  0  0
 18104  1  0  0  0
 19 20  1  0  0  0
 19 24  1  0  0  0
 20 21  2  0  0  0
 20105  1  0  0  0
 21 23  1  0  0  0
 22 28  1  0  0  0
 22 32  2  0  0  0
 26 27  1  0  0  0
 28106  1  0  0  0
 28107  1  0  0  0
 29108  1  0  0  0
 29109  1  0  0  0
 33 34  1  0  0  0
 33 66  1  0  0  0
 33 70  2  0  0  0
 34 36  1  0  0  0
 34 59  1  0  0  0
 34110  1  0  0  0
 35 44  2  0  0  0
 35 45  1  0  0  0
 35 68  1  0  0  0
 36 56  1  0  0  0
 36111  1  0  0  0
 37 39  1  0  0  0
 37 47  1  0  0  0
 37 66  1  0  0  0
 37112  1  0  0  0
 38 43  2  0  0  0
 38 46  1  0  0  0
 38 47  1  0  0  0
 39 64  1  0  0  0
 39 67  2  0  0  0
 40 52  1  0  0  0
 40 53  2  0  0  0
 40 58  1  0  0  0
 41113  1  0  0  0
 41114  1  0  0  0
 41115  1  0  0  0
 41 48  1  0  0  0
 42 43  1  0  0  0
 42 66  1  0  0  0
 42116  1  0  0  0
 42117  1  0  0  0
 43 44  1  0  0  0
 44118  1  0  0  0
 45 46  2  0  0  0
 45119  1  0  0  0
 46120  1  0  0  0
 47121  1  0  0  0
 47122  1  0  0  0
 48 56  1  0  0  0
 48 65  1  0  0  0
 48123  1  0  0  0
 49 50  1  0  0  0
 49 53  1  0  0  0
 49 64  1  0  0  0
 49124  1  0  0  0
 50 51  1  0  0  0
 50125  1  0  0  0
 50126  1  0  0  0
 51 52  1  0  0  0
 51127  1  0  0  0
 51128  1  0  0  0
 52129  1  0  0  0
 52130  1  0  0  0
 53 54  1  0  0  0
 54 55  2  0  0  0
 54131  1  0  0  0
 55 57  1  0  0  0
 55132  1  0  0  0
 56 69  2  0  0  0
 57 58  2  0  0  0
 57133  1  0  0  0
 58134  1  0  0  0
 59 60  1  0  0  0
 59 61  1  0  0  0
 59 62  1  0  0  0
 60135  1  0  0  0
 60136  1  0  0  0
 60137  1  0  0  0
 61138  1  0  0  0
 61139  1  0  0  0
 61140  1  0  0  0
 62141  1  0  0  0
 62142  1  0  0  0
 62143  1  0  0  0
 63 65  1  0  0  0
 63144  1  0  0  0
 63145  1  0  0  0
 63146  1  0  0  0
 64147  1  0  0  0
 65148  1  0  0  0
 68 85  1  0  0  0
 71 72  2  0  0  0
 71 87  1  0  0  0
 71149  1  0  0  0
 72 73  1  0  0  0
 72 80  1  0  0  0
 73 74  2  0  0  0
 73 86  1  0  0  0
 74 75  1  0  0  0
 74 81  1  0  0  0
 75 82  1  0  0  0
 75 87  2  0  0  0
 76 78  1  0  0  0
 76 80  1  0  0  0
 76150  1  0  0  0
 76151  1  0  0  0
 77 79  1  0  0  0
 77 80  1  0  0  0
 77152  1  0  0  0
 77153  1  0  0  0
 78 88  1  0  0  0
 78154  1  0  0  0
 78155  1  0  0  0
 79 88  1  0  0  0
 79156  1  0  0  0
 79157  1  0  0  0
 80158  1  0  0  0
 81159  1  0  0  0
 81160  1  0  0  0
 81161  1  0  0  0
 82162  1  0  0  0
 82163  1  0  0  0
 82164  1  0  0  0
 83165  1  0  0  0
 83166  1  0  0  0
 83167  1  0  0  0
 83 86  1  0  0  0
 84 85  1  0  0  0
 84 89  1  0  0  0
 84168  1  0  0  0
 84169  1  0  0  0
 85170  1  0  0  0
 85171  1  0  0  0
 86 89  1  0  0  0
 86172  1  0  0  0
 89173  1  0  0  0
 89174  1  0  0  0
M  CHG  1  89   1
M  ISO  4   1 100  68 101  85 101  88 100
M  END
> <chiral flag>
0

> <version>
0

> <s_m_source_file>
/data/baiqing/PycharmProjects/Reinvent-master-3.2/result/LINK_invent/BTK/process_docking_weight1_custom_sum_contain_oxygen_bond_distance_aromatic_linkinvent_7_9_3/rearranged_h_0167.sdf

> <i_m_source_file_index>
3

> <r_mmod_Potential_Energy-OPLS-2005>
-64.8945236206055

> <r_mmod_Stretch_Energy-OPLS-2005>
69.4773254394531

> <r_mmod_Bend_Energy-OPLS-2005>
161.845840454102

> <r_mmod_Torsional_Energy-OPLS-2005>
345.897399902344

> <r_mmod_Improper_Torsional_Energy-OPLS-2005>
3.84621739387512

> <r_mmod_Van_der_Waal_Energy-OPLS-2005>
174.141799926758

> <r_mmod_Electrostatic_Energy-OPLS-2005>
-389.9375

> <r_mmod_Solvation_Energy-OPLS-2005>
-459.946166992188

> <b_mmod_Minimization_Converged-OPLS-2005>
0

> <r_mmod_RMS_Derivative-OPLS-2005>
1.36960554122925

$$$$
3
                    3D
 Structure written by MMmdl.
186197  0  0  1  0            999 V2000
  -27.7811  -17.3296   20.6000 C   0  0  0  0  0  0
  -29.4955  -14.7154   19.6379 C   0  0  0  0  0  0
  -29.3356  -13.4079   18.6449 C   0  0  0  0  0  0
  -28.1982  -12.4903   19.0515 C   0  0  0  0  0  0
  -27.3285  -13.3999   19.8864 C   0  0  2  0  0  0
  -27.9473  -14.2817   21.0044 C   0  0  0  0  0  0
  -25.0671  -13.8147   20.5667 C   0  0  0  0  0  0
  -24.0596  -13.0100   20.9443 C   0  0  0  0  0  0
  -24.5697  -11.6743   20.8931 C   0  0  0  0  0  0
  -23.8734  -10.4089   21.0527 C   0  0  0  0  0  0
  -24.3461   -9.4052   21.9227 C   0  0  0  0  0  0
  -23.6209   -8.2068   22.0750 C   0  0  0  0  0  0
  -22.4198   -8.0109   21.3525 C   0  0  0  0  0  0
  -21.9765   -9.0033   20.4628 C   0  0  0  0  0  0
  -22.7009  -10.1929   20.3072 C   0  0  0  0  0  0
  -21.6820   -6.0668   22.5270 C   0  0  0  0  0  0
  -21.4006   -6.5616   23.8195 C   0  0  0  0  0  0
  -21.3628   -5.6782   24.9178 C   0  0  0  0  0  0
  -21.6035   -4.3037   24.7235 C   0  0  0  0  0  0
  -21.8842   -3.8107   23.4366 C   0  0  0  0  0  0
  -21.9210   -4.6915   22.3418 C   0  0  0  0  0  0
  -22.6781  -13.4820   21.2166 C   0  0  0  0  0  0
  -22.1668   -4.2116   21.0984 F   0  0  0  0  0  0
  -21.5615   -3.4515   25.7744 F   0  0  0  0  0  0
  -28.2183  -15.6410   20.3511 N   0  0  0  0  0  0
  -26.1004  -12.9469   20.3309 N   0  0  0  0  0  0
  -25.8523  -11.6526   20.5706 N   0  0  0  0  0  0
  -21.9651  -12.7827   22.0822 N   0  0  0  0  0  0
  -25.1815  -15.1975   20.3743 N   0  0  0  0  0  0
  -29.1259  -17.3287   20.5074 O   0  0  0  0  0  0
  -21.6593   -6.8731   21.4203 O   0  0  0  0  0  0
  -22.2552  -14.5168   20.7043 O   0  0  0  0  0  0
  -24.6404  -31.8702   23.1951 C   0  0  0  0  0  0
  -25.9254  -32.4765   23.8287 C   0  0  1  0  0  0
  -27.2026  -27.3188   19.9013 C   0  0  0  0  0  0
  -25.6063  -33.8567   24.2236 N   0  0  0  0  0  0
  -23.4493  -30.4540   21.5737 C   0  0  2  0  0  0
  -24.8790  -28.9713   20.0639 C   0  0  0  0  0  0
  -22.9896  -29.3088   22.4954 C   0  0  0  0  0  0
  -18.7338  -26.7923   22.8870 C   0  0  0  0  0  0
  -24.1476  -36.7187   23.2629 C   0  0  0  0  0  0
  -25.9991  -30.7440   21.4044 C   0  0  0  0  0  0
  -26.0537  -29.3894   20.6960 C   0  0  0  0  0  0
  -27.2173  -28.5595   20.6318 C   0  0  0  0  0  0
  -26.0171  -26.9824   19.2626 C   0  0  0  0  0  0
  -24.8620  -27.7675   19.3534 C   0  0  0  0  0  0
  -23.6614  -29.8686   20.1472 C   0  0  0  0  0  0
  -25.4145  -36.3043   24.0286 C   0  0  1  0  0  0
  -21.6496  -27.2460   22.6975 C   0  0  2  0  0  0
  -22.3915  -25.7302   21.1591 C   0  0  0  0  0  0
  -20.6728  -24.2950   20.7486 C   0  0  0  0  0  0
  -18.9738  -25.0641   22.0921 C   0  0  0  0  0  0
  -19.9359  -27.6856   23.2193 C   0  0  0  0  0  0
  -19.5784  -29.0926   23.6933 C   0  0  0  0  0  0
  -18.2839  -29.7248   23.8079 C   0  0  0  0  0  0
  -25.9165  -34.9427   23.5061 C   0  0  0  0  0  0
  -17.1705  -28.9473   23.4442 C   0  0  0  0  0  0
  -17.4192  -27.5776   23.0061 C   0  0  0  0  0  0
  -26.4586  -31.6601   25.0735 C   0  0  0  0  0  0
  -25.3736  -31.3846   26.1410 C   0  0  0  0  0  0
  -27.0465  -30.2915   24.6515 C   0  0  0  0  0  0
  -27.6156  -32.4371   25.7506 C   0  0  0  0  0  0
  -27.5599  -37.1729   24.8433 C   0  0  0  0  0  0
  -21.9137  -28.6237   22.1771 N   0  0  0  0  0  0
  -26.4270  -37.3800   23.9453 N   0  0  0  0  0  0
  -24.7102  -31.0699   22.0901 N   0  0  0  0  0  0
  -23.6660  -28.9515   23.4594 O   0  0  0  0  0  0
  -28.2461  -26.3812   19.8554 O   0  0  0  0  0  0
  -26.5731  -34.8938   22.4637 O   0  0  0  0  0  0
  -23.5525  -32.1573   23.7232 O   0  0  0  0  0  0
  -22.0860  -24.7126   18.8620 C   0  0  0  0  0  0
  -22.8226  -23.4224   19.7968 C   0  0  0  0  0  0
  -22.9010  -22.9757   21.4664 C   0  0  0  0  0  0
  -21.0249  -26.0833   19.2224 C   0  0  0  0  0  0
  -21.5192  -24.4737   22.6628 C   0  0  0  0  0  0
  -20.3926  -26.4321   20.9150 C   0  0  0  0  0  0
  -27.0846  -20.5542   22.7675 C   0  0  0  0  0  0
  -27.6884  -19.2146   22.9025 C   0  0  0  0  0  0
  -26.8157  -23.7380   16.8563 C   0  0  0  0  0  0
  -28.1594  -22.5970   17.9763 C   0  0  0  0  0  0
  -23.9835  -22.8266   18.9951 C   0  0  2  0  0  0
  -24.7481  -21.0325   20.9388 C   0  0  1  0  0  0
  -28.0229  -24.1387   17.7949 C   0  0  2  0  0  0
  -25.0554  -21.7735   19.5046 C   0  0  1  0  0  0
  -27.2738  -19.7117   21.5209 C   0  0  0  0  0  0
  -26.8422  -22.1790   17.2510 C   0  0  1  0  0  0
  -20.7764  -26.9872   18.0290 C   0  0  0  0  0  0
  -21.2818  -24.3469   24.1567 C   0  0  0  0  0  0
  -19.5200  -27.7089   20.5470 C   0  0  0  0  0  0
  -24.7359  -24.1263   18.8843 C   0  0  0  0  0  0
  -27.0412  -21.3101   15.9529 C   0  0  0  0  0  0
  -25.7996  -21.2649   18.1456 C   0  0  0  0  0  0
  -28.5917  -25.3008   18.8326 C   0  0  0  0  0  0
  -26.3028  -18.8849   20.8598 N   0  0  0  0  0  0
  -30.0261  -15.4118   19.0108 H   0  0  0  0  0  0
  -30.2765  -14.5042   20.3602 H   0  0  0  0  0  0
  -30.2741  -12.8596   18.5803 H   0  0  0  0  0  0
  -29.1458  -13.7554   17.6311 H   0  0  0  0  0  0
  -28.5714  -11.6721   19.6550 H   0  0  0  0  0  0
  -27.6623  -12.0797   18.1956 H   0  0  0  0  0  0
  -27.0154  -14.0824   19.0913 H   0  0  0  0  0  0
  -28.7350  -13.7925   21.5828 H   0  0  0  0  0  0
  -27.2423  -14.5045   21.7998 H   0  0  0  0  0  0
  -25.2587   -9.5685   22.4796 H   0  0  0  0  0  0
  -23.9982   -7.4536   22.7495 H   0  0  0  0  0  0
  -21.0689   -8.8532   19.8950 H   0  0  0  0  0  0
  -22.3423  -10.9513   19.6235 H   0  0  0  0  0  0
  -21.1977   -7.6119   23.9705 H   0  0  0  0  0  0
  -21.1418   -6.0492   25.9091 H   0  0  0  0  0  0
  -22.0657   -2.7561   23.2861 H   0  0  0  0  0  0
  -22.3447  -11.9499   22.5047 H   0  0  0  0  0  0
  -21.0327  -13.0820   22.3312 H   0  0  0  0  0  0
  -24.3364  -15.7587   20.3623 H   0  0  0  0  0  0
  -25.8816  -15.5198   19.7233 H   0  0  0  0  0  0
  -26.7346  -32.5376   23.1023 H   0  0  0  0  0  0
  -25.0055  -33.9682   25.0272 H   0  0  0  0  0  0
  -22.6548  -31.2042   21.5296 H   0  0  0  0  0  0
  -23.3868  -35.9383   23.3130 H   0  0  0  0  0  0
  -24.3555  -36.9018   22.2084 H   0  0  0  0  0  0
  -23.7069  -37.6236   23.6808 H   0  0  0  0  0  0
  -26.2344  -31.5471   20.7046 H   0  0  0  0  0  0
  -26.8268  -30.7220   22.0949 H   0  0  0  0  0  0
  -28.1188  -28.8746   21.1337 H   0  0  0  0  0  0
  -26.0332  -26.1102   18.6437 H   0  0  0  0  0  0
  -23.9844  -27.4535   18.8138 H   0  0  0  0  0  0
  -23.8073  -30.6952   19.4484 H   0  0  0  0  0  0
  -22.7720  -29.3453   19.7845 H   0  0  0  0  0  0
  -25.1321  -36.1796   25.0766 H   0  0  0  0  0  0
  -22.1823  -27.0437   23.6243 H   0  0  0  0  0  0
  -21.0136  -24.6463   20.6547 H   0  0  0  0  0  0
  -22.9458  -26.4172   20.4182 H   0  0  0  0  0  0
  -20.5934  -23.0893   20.8188 H   0  0  0  0  0  0
  -22.3509  -24.9523   20.9711 H   0  0  0  0  0  0
  -18.0656  -24.9318   21.5062 H   0  0  0  0  0  0
  -18.8252  -24.3429   22.9011 H   0  0  0  0  0  0
  -20.4242  -29.7370   23.9239 H   0  0  0  0  0  0
  -18.1936  -30.7451   24.1472 H   0  0  0  0  0  0
  -16.1785  -29.3632   23.4876 H   0  0  0  0  0  0
  -16.5308  -27.0395   22.7151 H   0  0  0  0  0  0
  -24.5932  -30.7204   25.7682 H   0  0  0  0  0  0
  -24.8947  -32.3065   26.4718 H   0  0  0  0  0  0
  -25.7957  -30.9056   27.0252 H   0  0  0  0  0  0
  -26.3099  -29.6542   24.1620 H   0  0  0  0  0  0
  -27.4036  -29.7366   25.5214 H   0  0  0  0  0  0
  -27.9057  -30.4040   23.9900 H   0  0  0  0  0  0
  -27.2856  -33.3875   26.1746 H   0  0  0  0  0  0
  -28.4120  -32.6580   25.0369 H   0  0  0  0  0  0
  -28.0619  -31.8650   26.5671 H   0  0  0  0  0  0
  -28.2461  -38.0171   24.7751 H   0  0  0  0  0  0
  -28.1240  -36.2730   24.5935 H   0  0  0  0  0  0
  -27.2325  -37.0960   25.8812 H   0  0  0  0  0  0
  -21.3543  -28.9384   21.3982 H   0  0  0  0  0  0
  -26.0081  -38.2791   24.1685 H   0  0  0  0  0  0
  -22.3684  -24.6412   17.8120 H   0  0  0  0  0  0
  -27.7345  -21.4316   22.8206 H   0  0  0  0  0  0
  -26.0990  -20.6437   23.2202 H   0  0  0  0  0  0
  -27.0452  -18.5219   23.4337 H   0  0  0  0  0  0
  -28.7432  -19.1387   23.1501 H   0  0  0  0  0  0
  -27.1111  -23.7765   15.8049 H   0  0  0  0  0  0
  -25.9060  -24.3237   16.7436 H   0  0  0  0  0  0
  -28.2337  -22.2112   18.9953 H   0  0  0  0  0  0
  -29.0249  -22.2935   17.3867 H   0  0  0  0  0  0
  -23.6117  -22.5101   18.0190 H   0  0  0  0  0  0
  -25.3888  -21.6044   21.5833 H   0  0  0  0  0  0
  -28.7198  -24.3102   16.9629 H   0  0  0  0  0  0
  -25.8257  -22.4132   19.8806 H   0  0  0  0  0  0
  -28.0630  -20.0703   20.8596 H   0  0  0  0  0  0
  -21.0021  -26.4580   17.1004 H   0  0  0  0  0  0
  -21.4589  -27.8498   18.0958 H   0  0  0  0  0  0
  -19.7572  -27.3686   17.9434 H   0  0  0  0  0  0
  -22.0698  -24.8178   24.7291 H   0  0  0  0  0  0
  -21.3076  -23.2995   24.4417 H   0  0  0  0  0  0
  -20.3071  -24.7256   24.4779 H   0  0  0  0  0  0
  -18.6687  -27.3927   19.9416 H   0  0  0  0  0  0
  -20.1274  -28.3818   19.9412 H   0  0  0  0  0  0
  -19.1020  -28.4549   21.2078 H   0  0  0  0  0  0
  -24.6281  -24.7312   19.7831 H   0  0  0  0  0  0
  -24.3472  -24.6978   18.0205 H   0  0  0  0  0  0
  -25.8014  -24.0296   18.9108 H   0  0  0  0  0  0
  -26.6964  -20.2795   15.9943 H   0  0  0  0  0  0
  -26.4914  -21.7244   15.0936 H   0  0  0  0  0  0
  -28.0940  -21.2094   15.6499 H   0  0  0  0  0  0
  -25.0258  -20.9065   17.4357 H   0  0  0  0  0  0
  -26.3255  -20.3347   18.3769 H   0  0  0  0  0  0
  -29.4042  -25.7578   18.2759 H   0  0  0  0  0  0
  -29.1347  -24.6590   19.5405 H   0  0  0  0  0  0
  1 25  1  0  0  0
  1 30  2  0  0  0
  1 94  1  0  0  0
  2  3  1  0  0  0
  2 25  1  0  0  0
  2 95  1  0  0  0
  2 96  1  0  0  0
  3  4  1  0  0  0
  3 97  1  0  0  0
  3 98  1  0  0  0
  4  5  1  0  0  0
  4 99  1  0  0  0
  4100  1  0  0  0
  5  6  1  0  0  0
  5 26  1  0  0  0
  5101  1  0  0  0
  6 25  1  0  0  0
  6102  1  0  0  0
  6103  1  0  0  0
  7  8  2  0  0  0
  7 26  1  0  0  0
  7 29  1  0  0  0
  8  9  1  0  0  0
  8 22  1  0  0  0
  9 10  1  0  0  0
  9 27  2  0  0  0
 10 11  2  0  0  0
 10 15  1  0  0  0
 11 12  1  0  0  0
 11104  1  0  0  0
 12 13  2  0  0  0
 12105  1  0  0  0
 13 14  1  0  0  0
 13 31  1  0  0  0
 14 15  2  0  0  0
 14106  1  0  0  0
 15107  1  0  0  0
 16 17  2  0  0  0
 16 21  1  0  0  0
 16 31  1  0  0  0
 17 18  1  0  0  0
 17108  1  0  0  0
 18 19  2  0  0  0
 18109  1  0  0  0
 19 20  1  0  0  0
 19 24  1  0  0  0
 20 21  2  0  0  0
 20110  1  0  0  0
 21 23  1  0  0  0
 22 28  1  0  0  0
 22 32  2  0  0  0
 26 27  1  0  0  0
 28111  1  0  0  0
 28112  1  0  0  0
 29113  1  0  0  0
 29114  1  0  0  0
 33 34  1  0  0  0
 33 66  1  0  0  0
 33 70  2  0  0  0
 34 36  1  0  0  0
 34 59  1  0  0  0
 34115  1  0  0  0
 35 44  2  0  0  0
 35 45  1  0  0  0
 35 68  1  0  0  0
 36 56  1  0  0  0
 36116  1  0  0  0
 37 39  1  0  0  0
 37 47  1  0  0  0
 37 66  1  0  0  0
 37117  1  0  0  0
 38 43  2  0  0  0
 38 46  1  0  0  0
 38 47  1  0  0  0
 39 64  1  0  0  0
 39 67  2  0  0  0
 40 52  1  0  0  0
 40 53  2  0  0  0
 40 58  1  0  0  0
 41118  1  0  0  0
 41119  1  0  0  0
 41120  1  0  0  0
 41 48  1  0  0  0
 42 43  1  0  0  0
 42 66  1  0  0  0
 42121  1  0  0  0
 42122  1  0  0  0
 43 44  1  0  0  0
 44123  1  0  0  0
 45 46  2  0  0  0
 45124  1  0  0  0
 46125  1  0  0  0
 47126  1  0  0  0
 47127  1  0  0  0
 48 56  1  0  0  0
 48 65  1  0  0  0
 48128  1  0  0  0
 49 50  1  0  0  0
 49 53  1  0  0  0
 49 64  1  0  0  0
 49129  1  0  0  0
 50 51  1  0  0  0
 50130  1  0  0  0
 50131  1  0  0  0
 51 52  1  0  0  0
 51132  1  0  0  0
 51133  1  0  0  0
 52134  1  0  0  0
 52135  1  0  0  0
 53 54  1  0  0  0
 54 55  2  0  0  0
 54136  1  0  0  0
 55 57  1  0  0  0
 55137  1  0  0  0
 56 69  2  0  0  0
 57 58  2  0  0  0
 57138  1  0  0  0
 58139  1  0  0  0
 59 60  1  0  0  0
 59 61  1  0  0  0
 59 62  1  0  0  0
 60140  1  0  0  0
 60141  1  0  0  0
 60142  1  0  0  0
 61143  1  0  0  0
 61144  1  0  0  0
 61145  1  0  0  0
 62146  1  0  0  0
 62147  1  0  0  0
 62148  1  0  0  0
 63 65  1  0  0  0
 63149  1  0  0  0
 63150  1  0  0  0
 63151  1  0  0  0
 64152  1  0  0  0
 65153  1  0  0  0
 68 93  1  0  0  0
 71 72  2  0  0  0
 71 74  1  0  0  0
 71154  1  0  0  0
 72 73  1  0  0  0
 72 81  1  0  0  0
 73 75  2  0  0  0
 73 82  1  0  0  0
 74 76  2  0  0  0
 74 87  1  0  0  0
 75 76  1  0  0  0
 75 88  1  0  0  0
 76 89  1  0  0  0
 77 78  1  0  0  0
 77 85  1  0  0  0
 77155  1  0  0  0
 77156  1  0  0  0
 78 85  1  0  0  0
 78157  1  0  0  0
 78158  1  0  0  0
 79 83  1  0  0  0
 79 86  1  0  0  0
 79159  1  0  0  0
 79160  1  0  0  0
 80 83  1  0  0  0
 80 86  1  0  0  0
 80161  1  0  0  0
 80162  1  0  0  0
 81 84  1  0  0  0
 81 90  1  0  0  0
 81163  1  0  0  0
 82 84  1  0  0  0
 82 94  1  0  0  0
 82164  1  0  0  0
 83 93  1  0  0  0
 83165  1  0  0  0
 84 92  1  0  0  0
 84166  1  0  0  0
 85 94  1  0  0  0
 85167  1  0  0  0
 86 91  1  0  0  0
 86 92  1  0  0  0
 87168  1  0  0  0
 87169  1  0  0  0
 87170  1  0  0  0
 88171  1  0  0  0
 88172  1  0  0  0
 88173  1  0  0  0
 89174  1  0  0  0
 89175  1  0  0  0
 89176  1  0  0  0
 90177  1  0  0  0
 90178  1  0  0  0
 90179  1  0  0  0
 91180  1  0  0  0
 91181  1  0  0  0
 91182  1  0  0  0
 92183  1  0  0  0
 92184  1  0  0  0
 93185  1  0  0  0
 93186  1  0  0  0
M  ISO  4   1 100  68 101  93 101  94 100
M  END
> <chiral flag>
0

> <version>
0

> <s_m_source_file>
/data/baiqing/PycharmProjects/Reinvent-master-3.2/result/LINK_invent/BTK/process_docking_weight1_custom_sum_contain_oxygen_bond_distance_aromatic_linkinvent_7_9_3/rearranged_h_0167.sdf

> <i_m_source_file_index>
4

> <r_mmod_Potential_Energy-OPLS-2005>
33124.37109375

> <r_mmod_Stretch_Energy-OPLS-2005>
17180.80859375

> <r_mmod_Bend_Energy-OPLS-2005>
3513.08666992188

> <r_mmod_Torsional_Energy-OPLS-2005>
482.220153808594

> <r_mmod_Improper_Torsional_Energy-OPLS-2005>
21.6681079864502

> <r_mmod_Van_der_Waal_Energy-OPLS-2005>
4060.27197265625

> <r_mmod_Electrostatic_Energy-OPLS-2005>
-337.368469238281

> <r_mmod_Solvation_Energy-OPLS-2005>
-186.389053344727

> <b_mmod_Minimization_Converged-OPLS-2005>
0

> <r_mmod_RMS_Derivative-OPLS-2005>
60.6615791320801

$$$$
4
                    3D
 Structure written by MMmdl.
157166  0  0  1  0            999 V2000
  -30.4366  -15.1685   20.3874 C   0  0  0  0  0  0
  -30.4495  -12.7357   19.5225 C   0  0  0  0  0  0
  -29.5366  -12.5679   18.2812 C   0  0  0  0  0  0
  -28.0782  -12.3090   18.7021 C   0  0  0  0  0  0
  -27.6222  -13.2635   19.8339 C   0  0  2  0  0  0
  -28.6584  -13.3694   20.9733 C   0  0  0  0  0  0
  -25.2417  -13.8218   20.5701 C   0  0  0  0  0  0
  -24.1764  -13.0428   20.9249 C   0  0  0  0  0  0
  -24.6406  -11.6923   20.8765 C   0  0  0  0  0  0
  -23.9091  -10.4288   21.0408 C   0  0  0  0  0  0
  -24.3635   -9.4200   21.9186 C   0  0  0  0  0  0
  -23.6301   -8.2241   22.0757 C   0  0  0  0  0  0
  -22.4282   -8.0285   21.3546 C   0  0  0  0  0  0
  -21.9925   -9.0260   20.4647 C   0  0  0  0  0  0
  -22.7264  -10.2133   20.3056 C   0  0  0  0  0  0
  -21.6854   -6.0737   22.5279 C   0  0  0  0  0  0
  -21.4014   -6.5640   23.8212 C   0  0  0  0  0  0
  -21.3657   -5.6791   24.9173 C   0  0  0  0  0  0
  -21.6045   -4.3055   24.7222 C   0  0  0  0  0  0
  -21.8818   -3.8147   23.4344 C   0  0  0  0  0  0
  -21.9193   -4.6964   22.3401 C   0  0  0  0  0  0
  -22.7781  -13.5190   21.1895 C   0  0  0  0  0  0
  -22.1661   -4.2150   21.0978 F   0  0  0  0  0  0
  -21.5629   -3.4539   25.7735 F   0  0  0  0  0  0
  -29.9094  -13.8546   20.3693 N   0  0  0  0  0  0
  -26.2854  -12.9481   20.3224 N   0  0  0  0  0  0
  -25.9342  -11.6596   20.5732 N   0  0  0  0  0  0
  -22.0433  -12.8178   22.0449 N   0  0  0  0  0  0
  -25.4025  -15.1939   20.4053 N   0  0  0  0  0  0
  -31.6399  -15.2400   20.1004 O   0  0  0  0  0  0
  -21.6644   -6.8885   21.4242 O   0  0  0  0  0  0
  -22.3462  -14.5491   20.6734 O   0  0  0  0  0  0
  -24.6568  -31.8295   23.1738 C   0  0  0  0  0  0
  -25.9274  -32.4617   23.8187 C   0  0  1  0  0  0
  -27.2200  -26.9879   20.1811 C   0  0  0  0  0  0
  -25.5971  -33.8429   24.2100 N   0  0  0  0  0  0
  -23.4683  -30.4418   21.5220 C   0  0  2  0  0  0
  -24.9206  -28.8366   20.1124 C   0  0  0  0  0  0
  -22.7634  -29.4472   22.4802 C   0  0  0  0  0  0
  -18.0319  -28.1405   22.8478 C   0  0  0  0  0  0
  -24.1484  -36.7212   23.2641 C   0  0  0  0  0  0
  -26.0327  -30.6560   21.3930 C   0  0  0  0  0  0
  -26.1023  -29.2511   20.7391 C   0  0  0  0  0  0
  -27.2492  -28.3472   20.7479 C   0  0  0  0  0  0
  -26.0100  -26.7069   19.5099 C   0  0  0  0  0  0
  -24.8956  -27.5830   19.4791 C   0  0  0  0  0  0
  -23.7040  -29.7575   20.1473 C   0  0  0  0  0  0
  -25.4121  -36.2983   24.0308 C   0  0  1  0  0  0
  -20.5940  -28.3743   23.1203 C   0  0  2  0  0  0
  -20.6794  -26.9430   22.5405 C   0  0  0  0  0  0
  -19.5769  -26.6381   21.5214 C   0  0  0  0  0  0
  -18.1950  -26.7943   22.1621 C   0  0  0  0  0  0
  -19.1581  -28.8894   23.2831 C   0  0  0  0  0  0
  -18.9491  -30.1484   23.8864 C   0  0  0  0  0  0
  -17.6488  -30.6601   24.0558 C   0  0  0  0  0  0
  -25.9096  -34.9371   23.5025 C   0  0  0  0  0  0
  -16.5376  -29.9091   23.6344 C   0  0  0  0  0  0
  -16.7301  -28.6506   23.0369 C   0  0  0  0  0  0
  -26.4544  -31.6544   25.0691 C   0  0  0  0  0  0
  -25.3689  -31.3786   26.1362 C   0  0  0  0  0  0
  -27.0430  -30.2922   24.6377 C   0  0  0  0  0  0
  -27.6049  -32.4336   25.7490 C   0  0  0  0  0  0
  -27.5577  -37.1743   24.8452 C   0  0  0  0  0  0
  -21.4311  -29.3044   22.3551 N   0  0  0  0  0  0
  -26.4260  -37.3729   23.9440 N   0  0  0  0  0  0
  -24.7405  -31.0014   22.0840 N   0  0  0  0  0  0
  -23.4211  -28.8044   23.3026 O   0  0  0  0  0  0
  -28.2458  -25.9274   20.2499 O   0  0  0  0  0  0
  -26.5697  -34.8900   22.4614 O   0  0  0  0  0  0
  -23.5655  -32.1232   23.6876 O   0  0  0  0  0  0
  -30.2945  -18.8868   19.7200 C   0  0  0  0  0  0
  -29.0879  -21.1692   20.3243 C   0  0  0  0  0  0
  -30.0971  -20.3568   19.6407 C   0  0  0  0  0  0
  -28.3023  -20.2225   21.1059 C   0  0  0  0  0  0
  -28.4991  -18.7397   21.1788 C   0  0  0  0  0  0
  -29.5190  -17.9430   20.4957 C   0  0  0  0  0  0
  -28.6169  -23.6467   19.0355 C   0  0  0  0  0  0
  -29.0456  -22.9179   20.3002 C   0  0  1  0  0  0
  -27.9969  -24.3182   20.2395 C   0  0  1  0  0  0
  -31.0719  -21.1134   18.7557 C   0  0  0  0  0  0
  -27.1907  -20.8497   21.9377 C   0  0  0  0  0  0
  -27.5798  -17.9117   22.0739 C   0  0  0  0  0  0
  -29.5871  -16.3427   20.5902 N   0  0  0  0  0  0
  -31.4714  -12.9378   19.1995 H   0  0  0  0  0  0
  -30.5010  -11.8081   20.0948 H   0  0  0  0  0  0
  -29.8968  -11.7540   17.6507 H   0  0  0  0  0  0
  -29.5841  -13.4713   17.6710 H   0  0  0  0  0  0
  -28.0132  -11.2765   19.0473 H   0  0  0  0  0  0
  -27.4120  -12.3852   17.8419 H   0  0  0  0  0  0
  -27.5593  -14.2478   19.3683 H   0  0  0  0  0  0
  -28.7978  -12.4092   21.4727 H   0  0  0  0  0  0
  -28.3147  -14.0679   21.7379 H   0  0  0  0  0  0
  -25.2776   -9.5672   22.4766 H   0  0  0  0  0  0
  -24.0003   -7.4628   22.7478 H   0  0  0  0  0  0
  -21.0856   -8.8784   19.8950 H   0  0  0  0  0  0
  -22.3726  -10.9674   19.6166 H   0  0  0  0  0  0
  -21.2008   -7.6148   23.9715 H   0  0  0  0  0  0
  -21.1479   -6.0522   25.9076 H   0  0  0  0  0  0
  -22.0599   -2.7609   23.2843 H   0  0  0  0  0  0
  -22.4055  -11.9846   22.4840 H   0  0  0  0  0  0
  -21.1045  -13.1192   22.2646 H   0  0  0  0  0  0
  -24.6185  -15.8314   20.4907 H   0  0  0  0  0  0
  -26.2167  -15.6238   19.9870 H   0  0  0  0  0  0
  -26.7339  -32.5170   23.0903 H   0  0  0  0  0  0
  -25.0084  -33.9520   25.0226 H   0  0  0  0  0  0
  -22.7794  -31.2723   21.3543 H   0  0  0  0  0  0
  -23.3777  -35.9507   23.3245 H   0  0  0  0  0  0
  -24.3583  -36.8912   22.2070 H   0  0  0  0  0  0
  -23.7195  -37.6367   23.6724 H   0  0  0  0  0  0
  -26.2035  -31.3998   20.6137 H   0  0  0  0  0  0
  -26.8966  -30.7130   22.0434 H   0  0  0  0  0  0
  -28.1463  -28.6639   21.2609 H   0  0  0  0  0  0
  -25.9000  -25.7472   19.0253 H   0  0  0  0  0  0
  -23.9953  -27.2598   18.9746 H   0  0  0  0  0  0
  -23.8544  -30.5256   19.3881 H   0  0  0  0  0  0
  -22.8149  -29.2080   19.8325 H   0  0  0  0  0  0
  -25.1308  -36.1776   25.0796 H   0  0  0  0  0  0
  -21.0030  -28.3340   24.1325 H   0  0  0  0  0  0
  -20.5664  -26.2362   23.3642 H   0  0  0  0  0  0
  -21.6660  -26.7410   22.1213 H   0  0  0  0  0  0
  -19.6928  -25.6281   21.1266 H   0  0  0  0  0  0
  -19.6706  -27.3172   20.6729 H   0  0  0  0  0  0
  -17.4219  -26.6693   21.4023 H   0  0  0  0  0  0
  -18.0345  -26.0093   22.9024 H   0  0  0  0  0  0
  -19.7970  -30.7309   24.2215 H   0  0  0  0  0  0
  -17.5045  -31.6277   24.5164 H   0  0  0  0  0  0
  -15.5375  -30.2984   23.7693 H   0  0  0  0  0  0
  -15.8701  -28.0812   22.7110 H   0  0  0  0  0  0
  -24.5895  -30.7101   25.7689 H   0  0  0  0  0  0
  -24.8845  -32.2983   26.4651 H   0  0  0  0  0  0
  -25.7943  -30.9059   27.0224 H   0  0  0  0  0  0
  -26.3083  -29.6616   24.1357 H   0  0  0  0  0  0
  -27.3966  -29.7261   25.5004 H   0  0  0  0  0  0
  -27.9023  -30.4129   23.9778 H   0  0  0  0  0  0
  -27.2629  -33.3681   26.1950 H   0  0  0  0  0  0
  -28.3922  -32.6823   25.0361 H   0  0  0  0  0  0
  -28.0644  -31.8534   26.5500 H   0  0  0  0  0  0
  -28.2516  -38.0116   24.7603 H   0  0  0  0  0  0
  -28.1150  -36.2654   24.6136 H   0  0  0  0  0  0
  -27.2325  -37.1211   25.8857 H   0  0  0  0  0  0
  -20.9544  -29.8742   21.6697 H   0  0  0  0  0  0
  -26.0106  -38.2770   24.1518 H   0  0  0  0  0  0
  -31.0957  -18.4616   19.1319 H   0  0  0  0  0  0
  -27.9156  -23.1342   18.3804 H   0  0  0  0  0  0
  -29.4048  -24.1766   18.5047 H   0  0  0  0  0  0
  -30.0159  -23.1909   20.7094 H   0  0  0  0  0  0
  -26.9524  -24.1128   20.4671 H   0  0  0  0  0  0
  -31.7499  -20.4431   18.2265 H   0  0  0  0  0  0
  -31.6772  -21.7973   19.3508 H   0  0  0  0  0  0
  -30.5335  -21.6956   18.0074 H   0  0  0  0  0  0
  -27.1413  -21.9313   21.8244 H   0  0  0  0  0  0
  -27.3415  -20.6472   22.9985 H   0  0  0  0  0  0
  -26.2182  -20.4569   21.6389 H   0  0  0  0  0  0
  -26.7701  -18.4587   22.5490 H   0  0  0  0  0  0
  -28.1639  -17.4500   22.8707 H   0  0  0  0  0  0
  -27.1135  -17.1142   21.4981 H   0  0  0  0  0  0
  -28.6971  -15.9875   20.9033 H   0  0  0  0  0  0
  1 25  1  0  0  0
  1 30  2  0  0  0
  1 83  1  0  0  0
  2  3  1  0  0  0
  2 25  1  0  0  0
  2 84  1  0  0  0
  2 85  1  0  0  0
  3  4  1  0  0  0
  3 86  1  0  0  0
  3 87  1  0  0  0
  4  5  1  0  0  0
  4 88  1  0  0  0
  4 89  1  0  0  0
  5  6  1  0  0  0
  5 26  1  0  0  0
  5 90  1  0  0  0
  6 25  1  0  0  0
  6 91  1  0  0  0
  6 92  1  0  0  0
  7  8  2  0  0  0
  7 26  1  0  0  0
  7 29  1  0  0  0
  8  9  1  0  0  0
  8 22  1  0  0  0
  9 10  1  0  0  0
  9 27  2  0  0  0
 10 11  2  0  0  0
 10 15  1  0  0  0
 11 12  1  0  0  0
 11 93  1  0  0  0
 12 13  2  0  0  0
 12 94  1  0  0  0
 13 14  1  0  0  0
 13 31  1  0  0  0
 14 15  2  0  0  0
 14 95  1  0  0  0
 15 96  1  0  0  0
 16 17  2  0  0  0
 16 21  1  0  0  0
 16 31  1  0  0  0
 17 18  1  0  0  0
 17 97  1  0  0  0
 18 19  2  0  0  0
 18 98  1  0  0  0
 19 20  1  0  0  0
 19 24  1  0  0  0
 20 21  2  0  0  0
 20 99  1  0  0  0
 21 23  1  0  0  0
 22 28  1  0  0  0
 22 32  2  0  0  0
 26 27  1  0  0  0
 28100  1  0  0  0
 28101  1  0  0  0
 29102  1  0  0  0
 29103  1  0  0  0
 33 34  1  0  0  0
 33 66  1  0  0  0
 33 70  2  0  0  0
 34 36  1  0  0  0
 34 59  1  0  0  0
 34104  1  0  0  0
 35 44  2  0  0  0
 35 45  1  0  0  0
 35 68  1  0  0  0
 36 56  1  0  0  0
 36105  1  0  0  0
 37 39  1  0  0  0
 37 47  1  0  0  0
 37 66  1  0  0  0
 37106  1  0  0  0
 38 43  2  0  0  0
 38 46  1  0  0  0
 38 47  1  0  0  0
 39 64  1  0  0  0
 39 67  2  0  0  0
 40 52  1  0  0  0
 40 53  2  0  0  0
 40 58  1  0  0  0
 41107  1  0  0  0
 41108  1  0  0  0
 41109  1  0  0  0
 41 48  1  0  0  0
 42 43  1  0  0  0
 42 66  1  0  0  0
 42110  1  0  0  0
 42111  1  0  0  0
 43 44  1  0  0  0
 44112  1  0  0  0
 45 46  2  0  0  0
 45113  1  0  0  0
 46114  1  0  0  0
 47115  1  0  0  0
 47116  1  0  0  0
 48 56  1  0  0  0
 48 65  1  0  0  0
 48117  1  0  0  0
 49 50  1  0  0  0
 49 53  1  0  0  0
 49 64  1  0  0  0
 49118  1  0  0  0
 50 51  1  0  0  0
 50119  1  0  0  0
 50120  1  0  0  0
 51 52  1  0  0  0
 51121  1  0  0  0
 51122  1  0  0  0
 52123  1  0  0  0
 52124  1  0  0  0
 53 54  1  0  0  0
 54 55  2  0  0  0
 54125  1  0  0  0
 55 57  1  0  0  0
 55126  1  0  0  0
 56 69  2  0  0  0
 57 58  2  0  0  0
 57127  1  0  0  0
 58128  1  0  0  0
 59 60  1  0  0  0
 59 61  1  0  0  0
 59 62  1  0  0  0
 60129  1  0  0  0
 60130  1  0  0  0
 60131  1  0  0  0
 61132  1  0  0  0
 61133  1  0  0  0
 61134  1  0  0  0
 62135  1  0  0  0
 62136  1  0  0  0
 62137  1  0  0  0
 63 65  1  0  0  0
 63138  1  0  0  0
 63139  1  0  0  0
 63140  1  0  0  0
 64141  1  0  0  0
 65142  1  0  0  0
 68 79  1  0  0  0
 71 73  2  0  0  0
 71 76  1  0  0  0
 71143  1  0  0  0
 72 73  1  0  0  0
 72 74  2  0  0  0
 72 78  1  0  0  0
 73 80  1  0  0  0
 74 75  1  0  0  0
 74 81  1  0  0  0
 75 76  2  0  0  0
 75 82  1  0  0  0
 76 83  1  0  0  0
 77 78  1  0  0  0
 77 79  1  0  0  0
 77144  1  0  0  0
 77145  1  0  0  0
 78 79  1  0  0  0
 78146  1  0  0  0
 79147  1  0  0  0
 80148  1  0  0  0
 80149  1  0  0  0
 80150  1  0  0  0
 81151  1  0  0  0
 81152  1  0  0  0
 81153  1  0  0  0
 82154  1  0  0  0
 82155  1  0  0  0
 82156  1  0  0  0
 83157  1  0  0  0
M  ISO  4   1 100  68 101  79 101  83 100
M  END
> <chiral flag>
0

> <version>
0

> <s_m_source_file>
/data/baiqing/PycharmProjects/Reinvent-master-3.2/result/LINK_invent/BTK/process_docking_weight1_custom_sum_contain_oxygen_bond_distance_aromatic_linkinvent_7_9_3/rearranged_h_0167.sdf

> <i_m_source_file_index>
5

> <r_mmod_Potential_Energy-OPLS-2005>
979.904968261719

> <r_mmod_Stretch_Energy-OPLS-2005>
455.946563720703

> <r_mmod_Bend_Energy-OPLS-2005>
384.823944091797

> <r_mmod_Torsional_Energy-OPLS-2005>
243.810180664062

> <r_mmod_Improper_Torsional_Energy-OPLS-2005>
4.25011730194092

> <r_mmod_Van_der_Waal_Energy-OPLS-2005>
130.036361694336

> <r_mmod_Electrostatic_Energy-OPLS-2005>
-396.3154296875

> <r_mmod_Solvation_Energy-OPLS-2005>
-209.052459716797

> <b_mmod_Minimization_Converged-OPLS-2005>
0

> <r_mmod_RMS_Derivative-OPLS-2005>
0.762901186943054

$$$$
5
                    3D
 Structure written by MMmdl.
177187  0  0  1  0            999 V2000
  -30.4235  -15.2414   20.3359 C   0  0  0  0  0  0
  -30.4300  -12.7822   19.4901 C   0  0  0  0  0  0
  -29.4958  -12.5805   18.2690 C   0  0  0  0  0  0
  -28.0576  -12.2973   18.7354 C   0  0  0  0  0  0
  -27.6164  -13.2699   19.8574 C   0  0  2  0  0  0
  -28.6761  -13.3961   20.9838 C   0  0  0  0  0  0
  -25.2371  -13.8220   20.5799 C   0  0  0  0  0  0
  -24.1659  -13.0360   20.9222 C   0  0  0  0  0  0
  -24.6348  -11.6896   20.8772 C   0  0  0  0  0  0
  -23.9030  -10.4240   21.0385 C   0  0  0  0  0  0
  -24.3602   -9.4162   21.9141 C   0  0  0  0  0  0
  -23.6292   -8.2180   22.0702 C   0  0  0  0  0  0
  -22.4270   -8.0211   21.3528 C   0  0  0  0  0  0
  -21.9910   -9.0145   20.4612 C   0  0  0  0  0  0
  -22.7205  -10.2042   20.3046 C   0  0  0  0  0  0
  -21.6850   -6.0666   22.5249 C   0  0  0  0  0  0
  -21.4003   -6.5560   23.8180 C   0  0  0  0  0  0
  -21.3699   -5.6725   24.9146 C   0  0  0  0  0  0
  -21.6092   -4.2985   24.7227 C   0  0  0  0  0  0
  -21.8826   -3.8077   23.4338 C   0  0  0  0  0  0
  -21.9184   -4.6892   22.3397 C   0  0  0  0  0  0
  -22.7736  -13.5144   21.1876 C   0  0  0  0  0  0
  -22.1666   -4.2071   21.0984 F   0  0  0  0  0  0
  -21.5680   -3.4487   25.7749 F   0  0  0  0  0  0
  -29.9024  -13.9066   20.3559 N   0  0  0  0  0  0
  -26.2828  -12.9477   20.3498 N   0  0  0  0  0  0
  -25.9317  -11.6591   20.5922 N   0  0  0  0  0  0
  -22.0440  -12.7954   22.0360 N   0  0  0  0  0  0
  -25.4042  -15.1867   20.4169 N   0  0  0  0  0  0
  -31.5342  -15.2840   19.7896 O   0  0  0  0  0  0
  -21.6659   -6.8779   21.4212 O   0  0  0  0  0  0
  -22.3409  -14.5472   20.6842 O   0  0  0  0  0  0
  -24.6606  -31.8208   23.1777 C   0  0  0  0  0  0
  -25.9277  -32.4560   23.8207 C   0  0  1  0  0  0
  -27.1915  -26.8849   20.1699 C   0  0  0  0  0  0
  -25.5931  -33.8380   24.2042 N   0  0  0  0  0  0
  -23.4712  -30.4393   21.5323 C   0  0  2  0  0  0
  -24.9090  -28.8206   20.1011 C   0  0  0  0  0  0
  -22.7647  -29.4363   22.4783 C   0  0  0  0  0  0
  -18.0355  -28.1356   22.8674 C   0  0  0  0  0  0
  -24.1476  -36.7176   23.2665 C   0  0  0  0  0  0
  -26.0427  -30.6141   21.4104 C   0  0  0  0  0  0
  -26.0993  -29.2045   20.7355 C   0  0  0  0  0  0
  -27.2217  -28.2557   20.7492 C   0  0  0  0  0  0
  -25.9782  -26.6580   19.4810 C   0  0  0  0  0  0
  -24.8731  -27.5655   19.4624 C   0  0  0  0  0  0
  -23.7044  -29.7686   20.1517 C   0  0  0  0  0  0
  -25.4135  -36.2942   24.0295 C   0  0  1  0  0  0
  -20.5961  -28.3634   23.1247 C   0  0  2  0  0  0
  -20.6815  -26.9359   22.5372 C   0  0  0  0  0  0
  -19.5676  -26.6426   21.5195 C   0  0  0  0  0  0
  -18.1947  -26.7920   22.1801 C   0  0  0  0  0  0
  -19.1655  -28.8833   23.2951 C   0  0  0  0  0  0
  -18.9574  -30.1455   23.8976 C   0  0  0  0  0  0
  -17.6583  -30.6615   24.0547 C   0  0  0  0  0  0
  -25.9114  -34.9324   23.4996 C   0  0  0  0  0  0
  -16.5461  -29.9079   23.6464 C   0  0  0  0  0  0
  -16.7332  -28.6460   23.0544 C   0  0  0  0  0  0
  -26.4489  -31.6557   25.0760 C   0  0  0  0  0  0
  -25.3616  -31.3807   26.1417 C   0  0  0  0  0  0
  -27.0402  -30.2907   24.6564 C   0  0  0  0  0  0
  -27.5902  -32.4444   25.7550 C   0  0  0  0  0  0
  -27.5548  -37.1754   24.8471 C   0  0  0  0  0  0
  -21.4332  -29.2927   22.3567 N   0  0  0  0  0  0
  -26.4263  -37.3690   23.9421 N   0  0  0  0  0  0
  -24.7496  -30.9780   22.0962 N   0  0  0  0  0  0
  -23.4221  -28.7887   23.2992 O   0  0  0  0  0  0
  -28.2014  -25.7852   20.3647 O   0  0  0  0  0  0
  -26.5749  -34.8886   22.4607 O   0  0  0  0  0  0
  -23.5685  -32.1200   23.6852 O   0  0  0  0  0  0
  -29.9369  -16.6236   21.1383 C   0  0  0  0  0  0
  -29.0740  -17.9348   20.8954 C   0  0  0  0  0  0
  -28.0211  -18.0754   21.8567 C   0  0  0  0  0  0
  -30.3015  -16.4766   22.5104 C   0  0  0  0  0  0
  -28.2130  -17.5657   23.1697 C   0  0  0  0  0  0
  -29.4298  -16.9203   23.5256 C   0  0  0  0  0  0
  -25.3729  -18.6483   21.9326 C   0  0  0  0  0  0
  -25.7940  -18.8727   20.4989 C   0  0  0  0  0  0
  -29.0675  -21.1256   20.8889 C   0  0  0  0  0  0
  -28.6289  -19.9060   18.8861 C   0  0  0  0  0  0
  -29.3303  -19.5297   20.2254 C   0  0  2  0  0  0
  -26.8116  -19.0004   21.6184 C   0  0  0  0  0  0
  -28.3078  -22.3944   19.9802 C   0  0  2  0  0  0
  -28.4876  -21.5037   18.6352 C   0  0  0  0  0  0
  -31.6216  -15.7792   22.9317 C   0  0  0  0  0  0
  -27.1341  -17.7971   24.2328 C   0  0  0  0  0  0
  -29.7463  -16.6089   24.9904 C   0  0  0  0  0  0
  -29.8071  -21.8674   17.9418 C   0  0  0  0  0  0
  -27.3331  -21.7332   17.6183 C   0  0  0  0  0  0
  -28.5507  -24.2302   19.8391 C   0  0  0  0  0  0
  -31.4358  -12.9790   19.1129 H   0  0  0  0  0  0
  -30.5159  -11.8572   20.0574 H   0  0  0  0  0  0
  -29.8507  -11.7443   17.6622 H   0  0  0  0  0  0
  -29.5108  -13.4601   17.6221 H   0  0  0  0  0  0
  -28.0328  -11.2784   19.1249 H   0  0  0  0  0  0
  -27.3627  -12.3194   17.8985 H   0  0  0  0  0  0
  -27.5429  -14.2457   19.3811 H   0  0  0  0  0  0
  -28.8574  -12.4349   21.4713 H   0  0  0  0  0  0
  -28.3475  -14.0870   21.7611 H   0  0  0  0  0  0
  -25.2754   -9.5588   22.4675 H   0  0  0  0  0  0
  -24.0057   -7.4506   22.7329 H   0  0  0  0  0  0
  -21.0894   -8.8541   19.8863 H   0  0  0  0  0  0
  -22.3606  -10.9552   19.6136 H   0  0  0  0  0  0
  -21.1981   -7.6062   23.9629 H   0  0  0  0  0  0
  -21.1580   -6.0486   25.9047 H   0  0  0  0  0  0
  -22.0608   -2.7538   23.2840 H   0  0  0  0  0  0
  -22.4228  -11.9647   22.4659 H   0  0  0  0  0  0
  -21.1025  -13.0759   22.2592 H   0  0  0  0  0  0
  -24.6458  -15.8438   20.5691 H   0  0  0  0  0  0
  -26.2505  -15.6163   20.0582 H   0  0  0  0  0  0
  -26.7280  -32.5032   23.0869 H   0  0  0  0  0  0
  -24.9966  -33.9503   25.0110 H   0  0  0  0  0  0
  -22.7870  -31.2826   21.3888 H   0  0  0  0  0  0
  -23.3750  -35.9497   23.3330 H   0  0  0  0  0  0
  -24.3533  -36.8821   22.2074 H   0  0  0  0  0  0
  -23.7234  -37.6347   23.6757 H   0  0  0  0  0  0
  -26.2397  -31.3637   20.6431 H   0  0  0  0  0  0
  -26.8992  -30.6515   22.0758 H   0  0  0  0  0  0
  -28.1119  -28.5421   21.2906 H   0  0  0  0  0  0
  -25.8256  -25.6954   19.0157 H   0  0  0  0  0  0
  -23.9510  -27.2625   18.9847 H   0  0  0  0  0  0
  -23.8668  -30.5602   19.4219 H   0  0  0  0  0  0
  -22.7972  -29.2620   19.8221 H   0  0  0  0  0  0
  -25.1349  -36.1714   25.0784 H   0  0  0  0  0  0
  -21.0034  -28.3265   24.1340 H   0  0  0  0  0  0
  -20.5774  -26.2243   23.3590 H   0  0  0  0  0  0
  -21.6632  -26.7262   22.1123 H   0  0  0  0  0  0
  -19.6561  -27.3310   20.6813 H   0  0  0  0  0  0
  -19.6742  -25.6325   21.1220 H   0  0  0  0  0  0
  -18.0383  -26.0051   22.9170 H   0  0  0  0  0  0
  -17.4090  -26.6625   21.4356 H   0  0  0  0  0  0
  -19.8028  -30.7291   24.2296 H   0  0  0  0  0  0
  -17.5204  -31.6388   24.4986 H   0  0  0  0  0  0
  -15.5466  -30.3001   23.7778 H   0  0  0  0  0  0
  -15.8725  -28.0723   22.7380 H   0  0  0  0  0  0
  -24.5779  -30.7159   25.7750 H   0  0  0  0  0  0
  -24.8827  -32.3002   26.4786 H   0  0  0  0  0  0
  -25.7846  -30.8997   27.0250 H   0  0  0  0  0  0
  -26.3102  -29.6549   24.1514 H   0  0  0  0  0  0
  -27.3801  -29.7282   25.5278 H   0  0  0  0  0  0
  -27.9096  -30.4020   24.0072 H   0  0  0  0  0  0
  -27.2347  -33.3775   26.1955 H   0  0  0  0  0  0
  -28.3763  -32.6996   25.0427 H   0  0  0  0  0  0
  -28.0540  -31.8744   26.5617 H   0  0  0  0  0  0
  -28.2558  -38.0050   24.7488 H   0  0  0  0  0  0
  -28.1039  -36.2565   24.6331 H   0  0  0  0  0  0
  -27.2275  -37.1442   25.8877 H   0  0  0  0  0  0
  -20.9549  -29.8585   21.6681 H   0  0  0  0  0  0
  -26.0076  -38.2727   24.1443 H   0  0  0  0  0  0
  -25.1326  -17.6305   22.2241 H   0  0  0  0  0  0
  -24.7824  -19.4217   22.4257 H   0  0  0  0  0  0
  -25.5303  -19.7999   19.9861 H   0  0  0  0  0  0
  -25.7357  -17.9746   19.8915 H   0  0  0  0  0  0
  -30.0430  -21.4551   21.2267 H   0  0  0  0  0  0
  -28.5825  -21.1097   21.8578 H   0  0  0  0  0  0
  -27.6502  -19.4445   18.8410 H   0  0  0  0  0  0
  -29.1828  -19.4187   18.0782 H   0  0  0  0  0  0
  -30.3954  -19.4948   20.0115 H   0  0  0  0  0  0
  -26.9868  -19.9671   22.0606 H   0  0  0  0  0  0
  -27.2525  -22.3092   20.2448 H   0  0  0  0  0  0
  -32.3238  -16.5151   23.3333 H   0  0  0  0  0  0
  -32.1672  -15.2556   22.1550 H   0  0  0  0  0  0
  -31.4554  -15.0164   23.6955 H   0  0  0  0  0  0
  -26.3413  -17.0594   24.1083 H   0  0  0  0  0  0
  -26.6859  -18.7930   24.1703 H   0  0  0  0  0  0
  -27.4637  -17.7141   25.2591 H   0  0  0  0  0  0
  -30.7942  -16.3944   25.1999 H   0  0  0  0  0  0
  -29.1632  -15.7525   25.3268 H   0  0  0  0  0  0
  -29.5102  -17.4539   25.6339 H   0  0  0  0  0  0
  -29.9475  -21.2894   17.0215 H   0  0  0  0  0  0
  -30.6533  -21.6297   18.5833 H   0  0  0  0  0  0
  -29.8565  -22.9165   17.6686 H   0  0  0  0  0  0
  -26.3624  -21.3817   17.9781 H   0  0  0  0  0  0
  -27.5113  -21.2136   16.6696 H   0  0  0  0  0  0
  -27.2268  -22.7951   17.3779 H   0  0  0  0  0  0
  -28.6628  -24.4133   18.7712 H   0  0  0  0  0  0
  -29.5757  -24.2452   20.2295 H   0  0  0  0  0  0
  1 25  1  0  0  0
  1 30  2  0  0  0
  1 71  1  0  0  0
  2  3  1  0  0  0
  2 25  1  0  0  0
  2 91  1  0  0  0
  2 92  1  0  0  0
  3  4  1  0  0  0
  3 93  1  0  0  0
  3 94  1  0  0  0
  4  5  1  0  0  0
  4 95  1  0  0  0
  4 96  1  0  0  0
  5  6  1  0  0  0
  5 26  1  0  0  0
  5 97  1  0  0  0
  6 25  1  0  0  0
  6 98  1  0  0  0
  6 99  1  0  0  0
  7  8  2  0  0  0
  7 26  1  0  0  0
  7 29  1  0  0  0
  8  9  1  0  0  0
  8 22  1  0  0  0
  9 10  1  0  0  0
  9 27  2  0  0  0
 10 11  2  0  0  0
 10 15  1  0  0  0
 11 12  1  0  0  0
 11100  1  0  0  0
 12 13  2  0  0  0
 12101  1  0  0  0
 13 14  1  0  0  0
 13 31  1  0  0  0
 14 15  2  0  0  0
 14102  1  0  0  0
 15103  1  0  0  0
 16 17  2  0  0  0
 16 21  1  0  0  0
 16 31  1  0  0  0
 17 18  1  0  0  0
 17104  1  0  0  0
 18 19  2  0  0  0
 18105  1  0  0  0
 19 20  1  0  0  0
 19 24  1  0  0  0
 20 21  2  0  0  0
 20106  1  0  0  0
 21 23  1  0  0  0
 22 28  1  0  0  0
 22 32  2  0  0  0
 26 27  1  0  0  0
 28107  1  0  0  0
 28108  1  0  0  0
 29109  1  0  0  0
 29110  1  0  0  0
 33 34  1  0  0  0
 33 66  1  0  0  0
 33 70  2  0  0  0
 34 36  1  0  0  0
 34 59  1  0  0  0
 34111  1  0  0  0
 35 44  2  0  0  0
 35 45  1  0  0  0
 35 68  1  0  0  0
 36 56  1  0  0  0
 36112  1  0  0  0
 37 39  1  0  0  0
 37 47  1  0  0  0
 37 66  1  0  0  0
 37113  1  0  0  0
 38 43  2  0  0  0
 38 46  1  0  0  0
 38 47  1  0  0  0
 39 64  1  0  0  0
 39 67  2  0  0  0
 40 52  1  0  0  0
 40 53  2  0  0  0
 40 58  1  0  0  0
 41114  1  0  0  0
 41115  1  0  0  0
 41116  1  0  0  0
 41 48  1  0  0  0
 42 43  1  0  0  0
 42 66  1  0  0  0
 42117  1  0  0  0
 42118  1  0  0  0
 43 44  1  0  0  0
 44119  1  0  0  0
 45 46  2  0  0  0
 45120  1  0  0  0
 46121  1  0  0  0
 47122  1  0  0  0
 47123  1  0  0  0
 48 56  1  0  0  0
 48 65  1  0  0  0
 48124  1  0  0  0
 49 50  1  0  0  0
 49 53  1  0  0  0
 49 64  1  0  0  0
 49125  1  0  0  0
 50 51  1  0  0  0
 50126  1  0  0  0
 50127  1  0  0  0
 51 52  1  0  0  0
 51128  1  0  0  0
 51129  1  0  0  0
 52130  1  0  0  0
 52131  1  0  0  0
 53 54  1  0  0  0
 54 55  2  0  0  0
 54132  1  0  0  0
 55 57  1  0  0  0
 55133  1  0  0  0
 56 69  2  0  0  0
 57 58  2  0  0  0
 57134  1  0  0  0
 58135  1  0  0  0
 59 60  1  0  0  0
 59 61  1  0  0  0
 59 62  1  0  0  0
 60136  1  0  0  0
 60137  1  0  0  0
 60138  1  0  0  0
 61139  1  0  0  0
 61140  1  0  0  0
 61141  1  0  0  0
 62142  1  0  0  0
 62143  1  0  0  0
 62144  1  0  0  0
 63 65  1  0  0  0
 63145  1  0  0  0
 63146  1  0  0  0
 63147  1  0  0  0
 64148  1  0  0  0
 65149  1  0  0  0
 68 90  1  0  0  0
 71 72  1  0  0  0
 71 74  2  0  0  0
 72 73  2  0  0  0
 72 81  1  0  0  0
 73 75  1  0  0  0
 73 82  1  0  0  0
 74 76  1  0  0  0
 74 85  1  0  0  0
 75 76  2  0  0  0
 75 86  1  0  0  0
 76 87  1  0  0  0
 77 78  1  0  0  0
 77 82  1  0  0  0
 77150  1  0  0  0
 77151  1  0  0  0
 78 82  1  0  0  0
 78152  1  0  0  0
 78153  1  0  0  0
 79 81  1  0  0  0
 79 83  1  0  0  0
 79154  1  0  0  0
 79155  1  0  0  0
 80 81  1  0  0  0
 80 84  1  0  0  0
 80156  1  0  0  0
 80157  1  0  0  0
 81158  1  0  0  0
 82159  1  0  0  0
 83 84  1  0  0  0
 83 90  1  0  0  0
 83160  1  0  0  0
 84 88  1  0  0  0
 84 89  1  0  0  0
 85161  1  0  0  0
 85162  1  0  0  0
 85163  1  0  0  0
 86164  1  0  0  0
 86165  1  0  0  0
 86166  1  0  0  0
 87167  1  0  0  0
 87168  1  0  0  0
 87169  1  0  0  0
 88170  1  0  0  0
 88171  1  0  0  0
 88172  1  0  0  0
 89173  1  0  0  0
 89174  1  0  0  0
 89175  1  0  0  0
 90176  1  0  0  0
 90177  1  0  0  0
M  ISO  4   1 100  68 101  71 100  90 101
M  END
> <chiral flag>
0

> <version>
0

> <s_m_source_file>
/data/baiqing/PycharmProjects/Reinvent-master-3.2/result/LINK_invent/BTK/process_docking_weight1_custom_sum_contain_oxygen_bond_distance_aromatic_linkinvent_7_9_3/rearranged_h_0167.sdf

> <i_m_source_file_index>
6

> <r_mmod_Potential_Energy-OPLS-2005>
2027.138671875

> <r_mmod_Stretch_Energy-OPLS-2005>
679.605102539062

> <r_mmod_Bend_Energy-OPLS-2005>
698.16943359375

> <r_mmod_Torsional_Energy-OPLS-2005>
483.381011962891

> <r_mmod_Improper_Torsional_Energy-OPLS-2005>
16.4530448913574

> <r_mmod_Van_der_Waal_Energy-OPLS-2005>
158.857055664062

> <r_mmod_Electrostatic_Energy-OPLS-2005>
-318.102294921875

> <r_mmod_Solvation_Energy-OPLS-2005>
-168.522872924805

> <b_mmod_Minimization_Converged-OPLS-2005>
0

> <r_mmod_RMS_Derivative-OPLS-2005>
13.3433322906494

$$$$
6
                    3D
 Structure written by MMmdl.
160169  0  0  1  0            999 V2000
  -30.6106  -14.6492   20.5075 C   0  0  0  0  0  0
  -30.4419  -12.4007   19.4534 C   0  0  0  0  0  0
  -29.5103  -12.5097   18.2251 C   0  0  0  0  0  0
  -28.0325  -12.3459   18.6359 C   0  0  0  0  0  0
  -27.6533  -13.2166   19.8636 C   0  0  2  0  0  0
  -28.6969  -13.0686   20.9934 C   0  0  0  0  0  0
  -25.2567  -13.8183   20.5686 C   0  0  0  0  0  0
  -24.1829  -13.0445   20.9181 C   0  0  0  0  0  0
  -24.6395  -11.6914   20.8731 C   0  0  0  0  0  0
  -23.9064  -10.4296   21.0400 C   0  0  0  0  0  0
  -24.3613   -9.4212   21.9179 C   0  0  0  0  0  0
  -23.6289   -8.2248   22.0752 C   0  0  0  0  0  0
  -22.4272   -8.0285   21.3544 C   0  0  0  0  0  0
  -21.9905   -9.0258   20.4647 C   0  0  0  0  0  0
  -22.7235  -10.2137   20.3053 C   0  0  0  0  0  0
  -21.6855   -6.0736   22.5279 C   0  0  0  0  0  0
  -21.4018   -6.5638   23.8212 C   0  0  0  0  0  0
  -21.3659   -5.6790   24.9173 C   0  0  0  0  0  0
  -21.6042   -4.3053   24.7224 C   0  0  0  0  0  0
  -21.8820   -3.8147   23.4345 C   0  0  0  0  0  0
  -21.9193   -4.6964   22.3402 C   0  0  0  0  0  0
  -22.7853  -13.5239   21.1851 C   0  0  0  0  0  0
  -22.1661   -4.2151   21.0979 F   0  0  0  0  0  0
  -21.5626   -3.4536   25.7736 F   0  0  0  0  0  0
  -30.0109  -13.4190   20.4314 N   0  0  0  0  0  0
  -26.2988  -12.9357   20.3313 N   0  0  0  0  0  0
  -25.9323  -11.6512   20.5744 N   0  0  0  0  0  0
  -22.0494  -12.8233   22.0409 N   0  0  0  0  0  0
  -25.4278  -15.1914   20.4135 N   0  0  0  0  0  0
  -31.7704  -14.8326   20.1256 O   0  0  0  0  0  0
  -21.6640   -6.8879   21.4241 O   0  0  0  0  0  0
  -22.3538  -14.5550   20.6707 O   0  0  0  0  0  0
  -24.6270  -31.8590   23.2022 C   0  0  0  0  0  0
  -25.9114  -32.4774   23.8352 C   0  0  1  0  0  0
  -27.2244  -27.3118   20.1159 C   0  0  0  0  0  0
  -25.5925  -33.8575   24.2277 N   0  0  0  0  0  0
  -23.4210  -30.4831   21.5452 C   0  0  2  0  0  0
  -24.8669  -28.9375   20.1120 C   0  0  0  0  0  0
  -22.7480  -29.4621   22.4934 C   0  0  0  0  0  0
  -18.0288  -28.1383   22.8486 C   0  0  0  0  0  0
  -24.1489  -36.7292   23.2639 C   0  0  0  0  0  0
  -25.9633  -30.7879   21.3745 C   0  0  0  0  0  0
  -26.0372  -29.4155   20.7147 C   0  0  0  0  0  0
  -27.2192  -28.6156   20.7043 C   0  0  0  0  0  0
  -26.0271  -26.8870   19.4940 C   0  0  0  0  0  0
  -24.8644  -27.6791   19.4930 C   0  0  0  0  0  0
  -23.6359  -29.8188   20.1605 C   0  0  0  0  0  0
  -25.4114  -36.3080   24.0328 C   0  0  1  0  0  0
  -20.5888  -28.3689   23.1279 C   0  0  2  0  0  0
  -20.6776  -26.9411   22.5409 C   0  0  0  0  0  0
  -19.5750  -26.6383   21.5212 C   0  0  0  0  0  0
  -18.1931  -26.7926   22.1624 C   0  0  0  0  0  0
  -19.1540  -28.8853   23.2878 C   0  0  0  0  0  0
  -18.9463  -30.1453   23.8897 C   0  0  0  0  0  0
  -17.6462  -30.6585   24.0564 C   0  0  0  0  0  0
  -25.9051  -34.9449   23.5104 C   0  0  0  0  0  0
  -16.5354  -29.9084   23.6329 C   0  0  0  0  0  0
  -16.7274  -28.6501   23.0352 C   0  0  0  0  0  0
  -26.4495  -31.6589   25.0726 C   0  0  0  0  0  0
  -25.3728  -31.3732   26.1455 C   0  0  0  0  0  0
  -27.0339  -30.3011   24.6189 C   0  0  0  0  0  0
  -27.6055  -32.4326   25.7495 C   0  0  0  0  0  0
  -27.5579  -37.1800   24.8462 C   0  0  0  0  0  0
  -21.4193  -29.3041   22.3675 N   0  0  0  0  0  0
  -26.4291  -37.3775   23.9406 N   0  0  0  0  0  0
  -24.6893  -31.0600   22.0974 N   0  0  0  0  0  0
  -23.4200  -28.8158   23.3016 O   0  0  0  0  0  0
  -28.3450  -26.4636   20.1613 O   0  0  0  0  0  0
  -26.5622  -34.8917   22.4672 O   0  0  0  0  0  0
  -23.5432  -32.1389   23.7349 O   0  0  0  0  0  0
  -28.8091  -20.2952   19.1867 C   0  0  0  0  0  0
  -28.8045  -21.7188   19.1617 C   0  0  0  0  0  0
  -29.2508  -22.4456   20.3028 C   0  0  0  0  0  0
  -29.2901  -19.5539   20.2943 C   0  0  0  0  0  0
  -29.7075  -21.6236   21.3829 C   0  0  0  0  0  0
  -29.0874  -18.0133   20.3453 C   0  0  0  0  0  0
  -28.7499  -21.9230   16.5447 C   0  0  0  0  0  0
  -29.2569  -23.2435   17.0691 C   0  0  0  0  0  0
  -28.3256  -22.4046   17.9153 C   0  0  0  0  0  0
  -30.2379  -22.2347   22.6671 C   0  0  0  0  0  0
  -29.3718  -24.0356   20.3324 C   0  0  0  0  0  0
  -28.1344  -24.9968   20.0458 C   0  0  0  0  0  0
  -29.7273  -20.2533   21.3761 N   0  0  0  0  0  0
  -30.0819  -17.1368   20.6834 N   0  0  0  0  0  0
  -29.7951  -15.6926   20.8503 N   0  0  0  0  0  0
  -27.9793  -17.5598   20.0332 O   0  0  0  0  0  0
  -31.4827  -12.5345   19.1530 H   0  0  0  0  0  0
  -30.3831  -11.4046   19.8949 H   0  0  0  0  0  0
  -29.7763  -11.7567   17.4819 H   0  0  0  0  0  0
  -29.6509  -13.4781   17.7422 H   0  0  0  0  0  0
  -27.8704  -11.2925   18.8674 H   0  0  0  0  0  0
  -27.3790  -12.5757   17.7935 H   0  0  0  0  0  0
  -27.6710  -14.2521   19.5232 H   0  0  0  0  0  0
  -28.7106  -12.0455   21.3719 H   0  0  0  0  0  0
  -28.4401  -13.6972   21.8477 H   0  0  0  0  0  0
  -25.2757   -9.5689   22.4754 H   0  0  0  0  0  0
  -24.0000   -7.4639   22.7469 H   0  0  0  0  0  0
  -21.0836   -8.8779   19.8953 H   0  0  0  0  0  0
  -22.3695  -10.9674   19.6163 H   0  0  0  0  0  0
  -21.2014   -7.6147   23.9717 H   0  0  0  0  0  0
  -21.1479   -6.0519   25.9076 H   0  0  0  0  0  0
  -22.0598   -2.7609   23.2845 H   0  0  0  0  0  0
  -22.4100  -11.9890   22.4797 H   0  0  0  0  0  0
  -21.1115  -13.1267   22.2616 H   0  0  0  0  0  0
  -24.6601  -15.8426   20.5354 H   0  0  0  0  0  0
  -26.2790  -15.6484   20.1055 H   0  0  0  0  0  0
  -26.7181  -32.5440   23.1099 H   0  0  0  0  0  0
  -25.0069  -33.9718   25.0418 H   0  0  0  0  0  0
  -22.7150  -31.3038   21.4025 H   0  0  0  0  0  0
  -23.3750  -35.9627   23.3304 H   0  0  0  0  0  0
  -24.3583  -36.8912   22.2054 H   0  0  0  0  0  0
  -23.7245  -37.6495   23.6662 H   0  0  0  0  0  0
  -26.0977  -31.5525   20.6080 H   0  0  0  0  0  0
  -26.8425  -30.8343   22.0055 H   0  0  0  0  0  0
  -28.1176  -28.9793   21.1832 H   0  0  0  0  0  0
  -25.9564  -25.9261   19.0082 H   0  0  0  0  0  0
  -23.9671  -27.3067   19.0181 H   0  0  0  0  0  0
  -23.7568  -30.5957   19.4045 H   0  0  0  0  0  0
  -22.7553  -29.2494   19.8572 H   0  0  0  0  0  0
  -25.1295  -36.1933   25.0821 H   0  0  0  0  0  0
  -20.9980  -28.3264   24.1399 H   0  0  0  0  0  0
  -20.5676  -26.2299   23.3610 H   0  0  0  0  0  0
  -21.6645  -26.7438   22.1203 H   0  0  0  0  0  0
  -19.6913  -25.6295   21.1239 H   0  0  0  0  0  0
  -19.6686  -27.3194   20.6742 H   0  0  0  0  0  0
  -17.4199  -26.6670   21.4028 H   0  0  0  0  0  0
  -18.0333  -26.0067   22.9021 H   0  0  0  0  0  0
  -19.7940  -30.7268   24.2267 H   0  0  0  0  0  0
  -17.5018  -31.6265   24.5167 H   0  0  0  0  0  0
  -15.5355  -30.2987   23.7651 H   0  0  0  0  0  0
  -15.8674  -28.0820   22.7067 H   0  0  0  0  0  0
  -24.5896  -30.7089   25.7785 H   0  0  0  0  0  0
  -24.8929  -32.2902   26.4886 H   0  0  0  0  0  0
  -25.8051  -30.8904   27.0227 H   0  0  0  0  0  0
  -26.2915  -29.6760   24.1213 H   0  0  0  0  0  0
  -27.4033  -29.7272   25.4698 H   0  0  0  0  0  0
  -27.8788  -30.4295   23.9418 H   0  0  0  0  0  0
  -27.2664  -33.3625   26.2074 H   0  0  0  0  0  0
  -28.3862  -32.6888   25.0320 H   0  0  0  0  0  0
  -28.0727  -31.8452   26.5409 H   0  0  0  0  0  0
  -28.2596  -38.0097   24.7511 H   0  0  0  0  0  0
  -28.1075  -36.2630   24.6285 H   0  0  0  0  0  0
  -27.2299  -37.1447   25.8865 H   0  0  0  0  0  0
  -20.9372  -29.8769   21.6889 H   0  0  0  0  0  0
  -26.0172  -38.2849   24.1409 H   0  0  0  0  0  0
  -28.4192  -19.7482   18.3381 H   0  0  0  0  0  0
  -29.4680  -21.1078   16.4829 H   0  0  0  0  0  0
  -28.0150  -21.9612   15.7431 H   0  0  0  0  0  0
  -28.8531  -24.1451   16.6131 H   0  0  0  0  0  0
  -30.3044  -23.2935   17.3593 H   0  0  0  0  0  0
  -27.2912  -22.7262   18.0218 H   0  0  0  0  0  0
  -31.1324  -22.8256   22.4698 H   0  0  0  0  0  0
  -30.5020  -21.4709   23.3996 H   0  0  0  0  0  0
  -29.4863  -22.8795   23.1228 H   0  0  0  0  0  0
  -30.1585  -24.2956   19.6244 H   0  0  0  0  0  0
  -29.7724  -24.3469   21.2944 H   0  0  0  0  0  0
  -27.3268  -24.7141   20.7226 H   0  0  0  0  0  0
  -27.7848  -24.7943   19.0361 H   0  0  0  0  0  0
  -31.0247  -17.3992   20.9384 H   0  0  0  0  0  0
  -28.8214  -15.5548   21.0804 H   0  0  0  0  0  0
  1 25  1  0  0  0
  1 30  2  0  0  0
  1 85  1  0  0  0
  2  3  1  0  0  0
  2 25  1  0  0  0
  2 87  1  0  0  0
  2 88  1  0  0  0
  3  4  1  0  0  0
  3 89  1  0  0  0
  3 90  1  0  0  0
  4  5  1  0  0  0
  4 91  1  0  0  0
  4 92  1  0  0  0
  5  6  1  0  0  0
  5 26  1  0  0  0
  5 93  1  0  0  0
  6 25  1  0  0  0
  6 94  1  0  0  0
  6 95  1  0  0  0
  7  8  2  0  0  0
  7 26  1  0  0  0
  7 29  1  0  0  0
  8  9  1  0  0  0
  8 22  1  0  0  0
  9 10  1  0  0  0
  9 27  2  0  0  0
 10 11  2  0  0  0
 10 15  1  0  0  0
 11 12  1  0  0  0
 11 96  1  0  0  0
 12 13  2  0  0  0
 12 97  1  0  0  0
 13 14  1  0  0  0
 13 31  1  0  0  0
 14 15  2  0  0  0
 14 98  1  0  0  0
 15 99  1  0  0  0
 16 17  2  0  0  0
 16 21  1  0  0  0
 16 31  1  0  0  0
 17 18  1  0  0  0
 17100  1  0  0  0
 18 19  2  0  0  0
 18101  1  0  0  0
 19 20  1  0  0  0
 19 24  1  0  0  0
 20 21  2  0  0  0
 20102  1  0  0  0
 21 23  1  0  0  0
 22 28  1  0  0  0
 22 32  2  0  0  0
 26 27  1  0  0  0
 28103  1  0  0  0
 28104  1  0  0  0
 29105  1  0  0  0
 29106  1  0  0  0
 33 34  1  0  0  0
 33 66  1  0  0  0
 33 70  2  0  0  0
 34 36  1  0  0  0
 34 59  1  0  0  0
 34107  1  0  0  0
 35 44  2  0  0  0
 35 45  1  0  0  0
 35 68  1  0  0  0
 36 56  1  0  0  0
 36108  1  0  0  0
 37 39  1  0  0  0
 37 47  1  0  0  0
 37 66  1  0  0  0
 37109  1  0  0  0
 38 43  2  0  0  0
 38 46  1  0  0  0
 38 47  1  0  0  0
 39 64  1  0  0  0
 39 67  2  0  0  0
 40 52  1  0  0  0
 40 53  2  0  0  0
 40 58  1  0  0  0
 41110  1  0  0  0
 41111  1  0  0  0
 41112  1  0  0  0
 41 48  1  0  0  0
 42 43  1  0  0  0
 42 66  1  0  0  0
 42113  1  0  0  0
 42114  1  0  0  0
 43 44  1  0  0  0
 44115  1  0  0  0
 45 46  2  0  0  0
 45116  1  0  0  0
 46117  1  0  0  0
 47118  1  0  0  0
 47119  1  0  0  0
 48 56  1  0  0  0
 48 65  1  0  0  0
 48120  1  0  0  0
 49 50  1  0  0  0
 49 53  1  0  0  0
 49 64  1  0  0  0
 49121  1  0  0  0
 50 51  1  0  0  0
 50122  1  0  0  0
 50123  1  0  0  0
 51 52  1  0  0  0
 51124  1  0  0  0
 51125  1  0  0  0
 52126  1  0  0  0
 52127  1  0  0  0
 53 54  1  0  0  0
 54 55  2  0  0  0
 54128  1  0  0  0
 55 57  1  0  0  0
 55129  1  0  0  0
 56 69  2  0  0  0
 57 58  2  0  0  0
 57130  1  0  0  0
 58131  1  0  0  0
 59 60  1  0  0  0
 59 61  1  0  0  0
 59 62  1  0  0  0
 60132  1  0  0  0
 60133  1  0  0  0
 60134  1  0  0  0
 61135  1  0  0  0
 61136  1  0  0  0
 61137  1  0  0  0
 62138  1  0  0  0
 62139  1  0  0  0
 62140  1  0  0  0
 63 65  1  0  0  0
 63141  1  0  0  0
 63142  1  0  0  0
 63143  1  0  0  0
 64144  1  0  0  0
 65145  1  0  0  0
 68 82  1  0  0  0
 71 72  2  0  0  0
 71 74  1  0  0  0
 71146  1  0  0  0
 72 73  1  0  0  0
 72 79  1  0  0  0
 73 75  2  0  0  0
 73 81  1  0  0  0
 74 76  1  0  0  0
 74 83  2  0  0  0
 75 80  1  0  0  0
 75 83  1  0  0  0
 76 84  1  0  0  0
 76 86  2  0  0  0
 77 78  1  0  0  0
 77 79  1  0  0  0
 77147  1  0  0  0
 77148  1  0  0  0
 78 79  1  0  0  0
 78149  1  0  0  0
 78150  1  0  0  0
 79151  1  0  0  0
 80152  1  0  0  0
 80153  1  0  0  0
 80154  1  0  0  0
 81 82  1  0  0  0
 81155  1  0  0  0
 81156  1  0  0  0
 82157  1  0  0  0
 82158  1  0  0  0
 84 85  1  0  0  0
 84159  1  0  0  0
 85160  1  0  0  0
M  ISO  4   1 100  68 101  82 101  85 100
M  END
> <chiral flag>
0

> <version>
0

> <s_m_source_file>
/data/baiqing/PycharmProjects/Reinvent-master-3.2/result/LINK_invent/BTK/process_docking_weight1_custom_sum_contain_oxygen_bond_distance_aromatic_linkinvent_7_9_3/rearranged_h_0167.sdf

> <i_m_source_file_index>
7

> <r_mmod_Potential_Energy-OPLS-2005>
-95.5650024414062

> <r_mmod_Stretch_Energy-OPLS-2005>
88.5445251464844

> <r_mmod_Bend_Energy-OPLS-2005>
145.743576049805

> <r_mmod_Torsional_Energy-OPLS-2005>
253.926895141602

> <r_mmod_Improper_Torsional_Energy-OPLS-2005>
6.15508222579956

> <r_mmod_Van_der_Waal_Energy-OPLS-2005>
144.523284912109

> <r_mmod_Electrostatic_Energy-OPLS-2005>
-564.822265625

> <r_mmod_Solvation_Energy-OPLS-2005>
-221.338638305664

> <b_mmod_Minimization_Converged-OPLS-2005>
0

> <r_mmod_RMS_Derivative-OPLS-2005>
0.45978832244873

$$$$
7
                    3D
 Structure written by MMmdl.
172181  0  0  1  0            999 V2000
  -30.6934  -14.4909   20.5832 C   0  0  0  0  0  0
  -30.4390  -12.3234   19.4138 C   0  0  0  0  0  0
  -29.5021  -12.5042   18.2031 C   0  0  0  0  0  0
  -28.0222  -12.3665   18.6154 C   0  0  0  0  0  0
  -27.6669  -13.2019   19.8748 C   0  0  2  0  0  0
  -28.7117  -12.9770   20.9895 C   0  0  0  0  0  0
  -25.2625  -13.8158   20.5659 C   0  0  0  0  0  0
  -24.1854  -13.0441   20.9169 C   0  0  0  0  0  0
  -24.6396  -11.6913   20.8723 C   0  0  0  0  0  0
  -23.9048  -10.4302   21.0375 C   0  0  0  0  0  0
  -24.3606   -9.4223   21.9154 C   0  0  0  0  0  0
  -23.6293   -8.2251   22.0734 C   0  0  0  0  0  0
  -22.4272   -8.0277   21.3534 C   0  0  0  0  0  0
  -21.9897   -9.0247   20.4641 C   0  0  0  0  0  0
  -22.7215  -10.2136   20.3038 C   0  0  0  0  0  0
  -21.6859   -6.0720   22.5269 C   0  0  0  0  0  0
  -21.4019   -6.5625   23.8205 C   0  0  0  0  0  0
  -21.3665   -5.6780   24.9165 C   0  0  0  0  0  0
  -21.6044   -4.3040   24.7212 C   0  0  0  0  0  0
  -21.8829   -3.8135   23.4339 C   0  0  0  0  0  0
  -21.9196   -4.6951   22.3389 C   0  0  0  0  0  0
  -22.7875  -13.5241   21.1836 C   0  0  0  0  0  0
  -22.1666   -4.2128   21.0968 F   0  0  0  0  0  0
  -21.5636   -3.4528   25.7728 F   0  0  0  0  0  0
  -30.0372  -13.3057   20.4334 N   0  0  0  0  0  0
  -26.3065  -12.9317   20.3360 N   0  0  0  0  0  0
  -25.9333  -11.6481   20.5771 N   0  0  0  0  0  0
  -22.0516  -12.8238   22.0410 N   0  0  0  0  0  0
  -25.4358  -15.1875   20.4047 N   0  0  0  0  0  0
  -31.8115  -14.6859   20.1071 O   0  0  0  0  0  0
  -21.6651   -6.8868   21.4231 O   0  0  0  0  0  0
  -22.3553  -14.5534   20.6676 O   0  0  0  0  0  0
  -24.6154  -31.8683   23.2093 C   0  0  0  0  0  0
  -25.9033  -32.4830   23.8404 C   0  0  1  0  0  0
  -27.2320  -27.4163   20.0951 C   0  0  0  0  0  0
  -25.5889  -33.8628   24.2340 N   0  0  0  0  0  0
  -23.4045  -30.4893   21.5516 C   0  0  2  0  0  0
  -24.8512  -28.9453   20.1268 C   0  0  0  0  0  0
  -22.7406  -29.4658   22.5002 C   0  0  0  0  0  0
  -18.0277  -28.1373   22.8501 C   0  0  0  0  0  0
  -24.1485  -36.7319   23.2639 C   0  0  0  0  0  0
  -25.9346  -30.8243   21.3665 C   0  0  0  0  0  0
  -26.0126  -29.4514   20.7257 C   0  0  0  0  0  0
  -27.2081  -28.6927   20.7107 C   0  0  0  0  0  0
  -26.0573  -26.9309   19.4877 C   0  0  0  0  0  0
  -24.8670  -27.6819   19.5106 C   0  0  0  0  0  0
  -23.6156  -29.8164   20.1691 C   0  0  0  0  0  0
  -25.4104  -36.3123   24.0346 C   0  0  1  0  0  0
  -20.5864  -28.3656   23.1326 C   0  0  2  0  0  0
  -20.6767  -26.9392   22.5419 C   0  0  0  0  0  0
  -19.5742  -26.6384   21.5219 C   0  0  0  0  0  0
  -18.1920  -26.7925   22.1627 C   0  0  0  0  0  0
  -19.1524  -28.8833   23.2913 C   0  0  0  0  0  0
  -18.9448  -30.1444   23.8912 C   0  0  0  0  0  0
  -17.6448  -30.6581   24.0568 C   0  0  0  0  0  0
  -25.9029  -34.9483   23.5144 C   0  0  0  0  0  0
  -16.5342  -29.9080   23.6327 C   0  0  0  0  0  0
  -16.7265  -28.6495   23.0348 C   0  0  0  0  0  0
  -26.4461  -31.6604   25.0729 C   0  0  0  0  0  0
  -25.3727  -31.3715   26.1479 C   0  0  0  0  0  0
  -27.0284  -30.3047   24.6092 C   0  0  0  0  0  0
  -27.6046  -32.4317   25.7485 C   0  0  0  0  0  0
  -27.5580  -37.1813   24.8465 C   0  0  0  0  0  0
  -21.4136  -29.3032   22.3732 N   0  0  0  0  0  0
  -26.4291  -37.3801   23.9411 N   0  0  0  0  0  0
  -24.6700  -31.0758   22.1014 N   0  0  0  0  0  0
  -23.4169  -28.8206   23.3055 O   0  0  0  0  0  0
  -28.3955  -26.6889   19.9592 O   0  0  0  0  0  0
  -26.5580  -34.8927   22.4702 O   0  0  0  0  0  0
  -23.5338  -32.1438   23.7464 O   0  0  0  0  0  0
  -29.8720  -18.9878   20.4663 C   0  0  0  0  0  0
  -32.5521  -19.2856   19.8405 C   0  0  0  0  0  0
  -30.2710  -20.1767   19.7822 C   0  0  0  0  0  0
  -30.7773  -17.9585   20.8723 C   0  0  0  0  0  0
  -31.6537  -20.2999   19.4603 C   0  0  0  0  0  0
  -32.1499  -18.1390   20.5462 C   0  0  0  0  0  0
  -28.7675  -21.1948   17.9058 C   0  0  0  0  0  0
  -29.3513  -22.5998   17.7366 C   0  0  0  0  0  0
  -29.1654  -21.2117   19.3926 C   0  0  2  0  0  0
  -29.2822  -22.7843   19.2643 C   0  0  2  0  0  0
  -32.2697  -21.4549   18.6900 C   0  0  0  0  0  0
  -33.2808  -17.2030   20.9399 C   0  0  0  0  0  0
  -30.8031  -16.7361   23.1869 C   0  0  0  0  0  0
  -27.9184  -24.3266   20.8227 C   0  0  0  0  0  0
  -28.6928  -25.6731   20.9325 C   0  0  0  0  0  0
  -30.2332  -16.7942   21.7540 C   0  0  2  0  0  0
  -29.9699  -15.4448   21.2026 N   0  0  0  0  0  0
  -28.0568  -23.6001   19.5300 N   0  3  0  0  0  0
  -31.4802  -12.4445   19.1064 H   0  0  0  0  0  0
  -30.3651  -11.3120   19.8156 H   0  0  0  0  0  0
  -29.7453  -11.7721   17.4316 H   0  0  0  0  0  0
  -29.6736  -13.4864   17.7584 H   0  0  0  0  0  0
  -27.8294  -11.3101   18.8087 H   0  0  0  0  0  0
  -27.3748  -12.6480   17.7839 H   0  0  0  0  0  0
  -27.7166  -14.2516   19.5836 H   0  0  0  0  0  0
  -28.7019  -11.9367   21.3129 H   0  0  0  0  0  0
  -28.4674  -13.5561   21.8801 H   0  0  0  0  0  0
  -25.2754   -9.5701   22.4721 H   0  0  0  0  0  0
  -24.0013   -7.4636   22.7451 H   0  0  0  0  0  0
  -21.0823   -8.8750   19.8948 H   0  0  0  0  0  0
  -22.3651  -10.9664   19.6146 H   0  0  0  0  0  0
  -21.2006   -7.6132   23.9694 H   0  0  0  0  0  0
  -21.1487   -6.0509   25.9068 H   0  0  0  0  0  0
  -22.0604   -2.7587   23.2841 H   0  0  0  0  0  0
  -22.4137  -11.9923   22.4833 H   0  0  0  0  0  0
  -21.1114  -13.1239   22.2585 H   0  0  0  0  0  0
  -24.6666  -15.8419   20.5007 H   0  0  0  0  0  0
  -26.2844  -15.6249   20.0668 H   0  0  0  0  0  0
  -26.7101  -32.5542   23.1165 H   0  0  0  0  0  0
  -25.0069  -33.9808   25.0504 H   0  0  0  0  0  0
  -22.6941  -31.3064   21.4079 H   0  0  0  0  0  0
  -23.3747  -35.9651   23.3313 H   0  0  0  0  0  0
  -24.3581  -36.8914   22.2051 H   0  0  0  0  0  0
  -23.7235  -37.6531   23.6637 H   0  0  0  0  0  0
  -26.0424  -31.5831   20.5901 H   0  0  0  0  0  0
  -26.8252  -30.8876   21.9796 H   0  0  0  0  0  0
  -28.1120  -29.0897   21.1500 H   0  0  0  0  0  0
  -26.0635  -25.9837   18.9683 H   0  0  0  0  0  0
  -23.9762  -27.2903   19.0393 H   0  0  0  0  0  0
  -23.7246  -30.5878   19.4062 H   0  0  0  0  0  0
  -22.7397  -29.2357   19.8753 H   0  0  0  0  0  0
  -25.1280  -36.2002   25.0840 H   0  0  0  0  0  0
  -20.9962  -28.3218   24.1446 H   0  0  0  0  0  0
  -20.5681  -26.2260   23.3607 H   0  0  0  0  0  0
  -21.6636  -26.7446   22.1203 H   0  0  0  0  0  0
  -19.6902  -25.6303   21.1235 H   0  0  0  0  0  0
  -19.6683  -27.3208   20.6767 H   0  0  0  0  0  0
  -17.4198  -26.6682   21.4025 H   0  0  0  0  0  0
  -18.0305  -26.0068   22.9021 H   0  0  0  0  0  0
  -19.7923  -30.7264   24.2275 H   0  0  0  0  0  0
  -17.5003  -31.6267   24.5162 H   0  0  0  0  0  0
  -15.5337  -30.2983   23.7655 H   0  0  0  0  0  0
  -15.8663  -28.0826   22.7045 H   0  0  0  0  0  0
  -24.5898  -30.7061   25.7822 H   0  0  0  0  0  0
  -24.8915  -32.2874   26.4926 H   0  0  0  0  0  0
  -25.8079  -30.8890   27.0239 H   0  0  0  0  0  0
  -26.2826  -29.6826   24.1129 H   0  0  0  0  0  0
  -27.4044  -29.7267   25.4545 H   0  0  0  0  0  0
  -27.8670  -30.4378   23.9251 H   0  0  0  0  0  0
  -27.2674  -33.3608   26.2092 H   0  0  0  0  0  0
  -28.3835  -32.6887   25.0295 H   0  0  0  0  0  0
  -28.0732  -31.8420   26.5372 H   0  0  0  0  0  0
  -28.2609  -38.0100   24.7509 H   0  0  0  0  0  0
  -28.1064  -36.2635   24.6294 H   0  0  0  0  0  0
  -27.2298  -37.1470   25.8866 H   0  0  0  0  0  0
  -20.9279  -29.8755   21.6961 H   0  0  0  0  0  0
  -26.0191  -38.2886   24.1400 H   0  0  0  0  0  0
  -28.8252  -18.8716   20.7112 H   0  0  0  0  0  0
  -33.6010  -19.3966   19.5977 H   0  0  0  0  0  0
  -29.2593  -20.4327   17.2989 H   0  0  0  0  0  0
  -27.6864  -21.1778   17.7590 H   0  0  0  0  0  0
  -28.7165  -23.2606   17.1438 H   0  0  0  0  0  0
  -30.3557  -22.6112   17.3257 H   0  0  0  0  0  0
  -28.2905  -20.9781   20.0003 H   0  0  0  0  0  0
  -30.1634  -23.2310   19.7178 H   0  0  0  0  0  0
  -33.3570  -21.4470   18.7748 H   0  0  0  0  0  0
  -31.9672  -22.4266   19.0619 H   0  0  0  0  0  0
  -32.0452  -21.3678   17.6277 H   0  0  0  0  0  0
  -33.9987  -17.7350   21.5657 H   0  0  0  0  0  0
  -33.8049  -16.8680   20.0442 H   0  0  0  0  0  0
  -32.9724  -16.3175   21.4792 H   0  0  0  0  0  0
  -31.8573  -16.4798   23.2424 H   0  0  0  0  0  0
  -30.2722  -15.9937   23.7850 H   0  0  0  0  0  0
  -30.6745  -17.6961   23.6888 H   0  0  0  0  0  0
  -28.2063  -23.6595   21.6353 H   0  0  0  0  0  0
  -26.8580  -24.5295   20.9692 H   0  0  0  0  0  0
  -28.5356  -26.0944   21.9266 H   0  0  0  0  0  0
  -29.7630  -25.4754   20.8671 H   0  0  0  0  0  0
  -29.2029  -17.0970   21.9380 H   0  0  0  0  0  0
  -29.0477  -15.1089   21.4327 H   0  0  0  0  0  0
  -27.2483  -23.0107   19.4090 H   0  0  0  0  0  0
  -28.0126  -24.3003   18.8054 H   0  0  0  0  0  0
  1 25  1  0  0  0
  1 30  2  0  0  0
  1 87  1  0  0  0
  2  3  1  0  0  0
  2 25  1  0  0  0
  2 89  1  0  0  0
  2 90  1  0  0  0
  3  4  1  0  0  0
  3 91  1  0  0  0
  3 92  1  0  0  0
  4  5  1  0  0  0
  4 93  1  0  0  0
  4 94  1  0  0  0
  5  6  1  0  0  0
  5 26  1  0  0  0
  5 95  1  0  0  0
  6 25  1  0  0  0
  6 96  1  0  0  0
  6 97  1  0  0  0
  7  8  2  0  0  0
  7 26  1  0  0  0
  7 29  1  0  0  0
  8  9  1  0  0  0
  8 22  1  0  0  0
  9 10  1  0  0  0
  9 27  2  0  0  0
 10 11  2  0  0  0
 10 15  1  0  0  0
 11 12  1  0  0  0
 11 98  1  0  0  0
 12 13  2  0  0  0
 12 99  1  0  0  0
 13 14  1  0  0  0
 13 31  1  0  0  0
 14 15  2  0  0  0
 14100  1  0  0  0
 15101  1  0  0  0
 16 17  2  0  0  0
 16 21  1  0  0  0
 16 31  1  0  0  0
 17 18  1  0  0  0
 17102  1  0  0  0
 18 19  2  0  0  0
 18103  1  0  0  0
 19 20  1  0  0  0
 19 24  1  0  0  0
 20 21  2  0  0  0
 20104  1  0  0  0
 21 23  1  0  0  0
 22 28  1  0  0  0
 22 32  2  0  0  0
 26 27  1  0  0  0
 28105  1  0  0  0
 28106  1  0  0  0
 29107  1  0  0  0
 29108  1  0  0  0
 33 34  1  0  0  0
 33 66  1  0  0  0
 33 70  2  0  0  0
 34 36  1  0  0  0
 34 59  1  0  0  0
 34109  1  0  0  0
 35 44  2  0  0  0
 35 45  1  0  0  0
 35 68  1  0  0  0
 36 56  1  0  0  0
 36110  1  0  0  0
 37 39  1  0  0  0
 37 47  1  0  0  0
 37 66  1  0  0  0
 37111  1  0  0  0
 38 43  2  0  0  0
 38 46  1  0  0  0
 38 47  1  0  0  0
 39 64  1  0  0  0
 39 67  2  0  0  0
 40 52  1  0  0  0
 40 53  2  0  0  0
 40 58  1  0  0  0
 41112  1  0  0  0
 41113  1  0  0  0
 41114  1  0  0  0
 41 48  1  0  0  0
 42 43  1  0  0  0
 42 66  1  0  0  0
 42115  1  0  0  0
 42116  1  0  0  0
 43 44  1  0  0  0
 44117  1  0  0  0
 45 46  2  0  0  0
 45118  1  0  0  0
 46119  1  0  0  0
 47120  1  0  0  0
 47121  1  0  0  0
 48 56  1  0  0  0
 48 65  1  0  0  0
 48122  1  0  0  0
 49 50  1  0  0  0
 49 53  1  0  0  0
 49 64  1  0  0  0
 49123  1  0  0  0
 50 51  1  0  0  0
 50124  1  0  0  0
 50125  1  0  0  0
 51 52  1  0  0  0
 51126  1  0  0  0
 51127  1  0  0  0
 52128  1  0  0  0
 52129  1  0  0  0
 53 54  1  0  0  0
 54 55  2  0  0  0
 54130  1  0  0  0
 55 57  1  0  0  0
 55131  1  0  0  0
 56 69  2  0  0  0
 57 58  2  0  0  0
 57132  1  0  0  0
 58133  1  0  0  0
 59 60  1  0  0  0
 59 61  1  0  0  0
 59 62  1  0  0  0
 60134  1  0  0  0
 60135  1  0  0  0
 60136  1  0  0  0
 61137  1  0  0  0
 61138  1  0  0  0
 61139  1  0  0  0
 62140  1  0  0  0
 62141  1  0  0  0
 62142  1  0  0  0
 63 65  1  0  0  0
 63143  1  0  0  0
 63144  1  0  0  0
 63145  1  0  0  0
 64146  1  0  0  0
 65147  1  0  0  0
 68 85  1  0  0  0
 71 73  2  0  0  0
 71 74  1  0  0  0
 71148  1  0  0  0
 72 75  2  0  0  0
 72 76  1  0  0  0
 72149  1  0  0  0
 73 75  1  0  0  0
 73 79  1  0  0  0
 74 76  2  0  0  0
 74 86  1  0  0  0
 75 81  1  0  0  0
 76 82  1  0  0  0
 77 78  1  0  0  0
 77 79  1  0  0  0
 77150  1  0  0  0
 77151  1  0  0  0
 78 80  1  0  0  0
 78152  1  0  0  0
 78153  1  0  0  0
 79 80  1  0  0  0
 79154  1  0  0  0
 80 88  1  0  0  0
 80155  1  0  0  0
 81156  1  0  0  0
 81157  1  0  0  0
 81158  1  0  0  0
 82159  1  0  0  0
 82160  1  0  0  0
 82161  1  0  0  0
 83162  1  0  0  0
 83163  1  0  0  0
 83164  1  0  0  0
 83 86  1  0  0  0
 84 85  1  0  0  0
 84 88  1  0  0  0
 84165  1  0  0  0
 84166  1  0  0  0
 85167  1  0  0  0
 85168  1  0  0  0
 86 87  1  0  0  0
 86169  1  0  0  0
 87170  1  0  0  0
 88171  1  0  0  0
 88172  1  0  0  0
M  CHG  1  88   1
M  ISO  4   1 100  68 101  85 101  87 100
M  END
> <chiral flag>
0

> <version>
0

> <s_m_source_file>
/data/baiqing/PycharmProjects/Reinvent-master-3.2/result/LINK_invent/BTK/process_docking_weight1_custom_sum_contain_oxygen_bond_distance_aromatic_linkinvent_7_9_3/rearranged_h_0167.sdf

> <i_m_source_file_index>
8

> <r_mmod_Potential_Energy-OPLS-2005>
-93.7056579589844

> <r_mmod_Stretch_Energy-OPLS-2005>
52.2093276977539

> <r_mmod_Bend_Energy-OPLS-2005>
183.513366699219

> <r_mmod_Torsional_Energy-OPLS-2005>
286.570526123047

> <r_mmod_Improper_Torsional_Energy-OPLS-2005>
3.60256719589233

> <r_mmod_Van_der_Waal_Energy-OPLS-2005>
149.477828979492

> <r_mmod_Electrostatic_Energy-OPLS-2005>
-335.4560546875

> <r_mmod_Solvation_Energy-OPLS-2005>
-447.373168945312

> <b_mmod_Minimization_Converged-OPLS-2005>
0

> <r_mmod_RMS_Derivative-OPLS-2005>
2.49527716636658

$$$$
8
                    3D
 Structure written by MMmdl.
156165  0  0  1  0            999 V2000
  -30.4673  -15.1706   20.4116 C   0  0  0  0  0  0
  -30.4383  -12.7397   19.5500 C   0  0  0  0  0  0
  -29.5436  -12.5481   18.3016 C   0  0  0  0  0  0
  -28.0877  -12.2829   18.7211 C   0  0  0  0  0  0
  -27.6161  -13.2618   19.8264 C   0  0  2  0  0  0
  -28.6376  -13.4055   20.9726 C   0  0  0  0  0  0
  -25.2425  -13.8225   20.5713 C   0  0  0  0  0  0
  -24.1757  -13.0437   20.9199 C   0  0  0  0  0  0
  -24.6388  -11.6914   20.8724 C   0  0  0  0  0  0
  -23.9091  -10.4281   21.0393 C   0  0  0  0  0  0
  -24.3630   -9.4186   21.9179 C   0  0  0  0  0  0
  -23.6290   -8.2235   22.0760 C   0  0  0  0  0  0
  -22.4275   -8.0271   21.3541 C   0  0  0  0  0  0
  -21.9923   -9.0251   20.4634 C   0  0  0  0  0  0
  -22.7270  -10.2116   20.3034 C   0  0  0  0  0  0
  -21.6858   -6.0713   22.5267 C   0  0  0  0  0  0
  -21.4024   -6.5626   23.8196 C   0  0  0  0  0  0
  -21.3662   -5.6784   24.9163 C   0  0  0  0  0  0
  -21.6044   -4.3045   24.7223 C   0  0  0  0  0  0
  -21.8823   -3.8126   23.4345 C   0  0  0  0  0  0
  -21.9197   -4.6942   22.3396 C   0  0  0  0  0  0
  -22.7784  -13.5191   21.1845 C   0  0  0  0  0  0
  -22.1662   -4.2121   21.0973 F   0  0  0  0  0  0
  -21.5631   -3.4536   25.7739 F   0  0  0  0  0  0
  -29.8918  -13.8785   20.3671 N   0  0  0  0  0  0
  -26.2823  -12.9469   20.3186 N   0  0  0  0  0  0
  -25.9322  -11.6579   20.5703 N   0  0  0  0  0  0
  -22.0446  -12.8174   22.0392 N   0  0  0  0  0  0
  -25.4133  -15.1960   20.4190 N   0  0  0  0  0  0
  -31.6639  -15.1900   20.0870 O   0  0  0  0  0  0
  -21.6640   -6.8860   21.4228 O   0  0  0  0  0  0
  -22.3462  -14.5487   20.6675 O   0  0  0  0  0  0
  -24.6570  -31.8291   23.1728 C   0  0  0  0  0  0
  -25.9295  -32.4595   23.8142 C   0  0  1  0  0  0
  -27.2126  -26.9858   20.1739 C   0  0  0  0  0  0
  -25.6001  -33.8398   24.2086 N   0  0  0  0  0  0
  -23.4670  -30.4459   21.5193 C   0  0  2  0  0  0
  -24.9210  -28.8499   20.1019 C   0  0  0  0  0  0
  -22.7623  -29.4487   22.4738 C   0  0  0  0  0  0
  -18.0330  -28.1416   22.8438 C   0  0  0  0  0  0
  -24.1509  -36.7225   23.2648 C   0  0  0  0  0  0
  -26.0322  -30.6554   21.3938 C   0  0  0  0  0  0
  -26.1020  -29.2520   20.7398 C   0  0  0  0  0  0
  -27.2432  -28.3381   20.7607 C   0  0  0  0  0  0
  -26.0105  -26.7348   19.4723 C   0  0  0  0  0  0
  -24.8983  -27.6098   19.4491 C   0  0  0  0  0  0
  -23.7032  -29.7696   20.1410 C   0  0  0  0  0  0
  -25.4144  -36.2958   24.0293 C   0  0  1  0  0  0
  -20.5955  -28.3770   23.1161 C   0  0  2  0  0  0
  -20.6827  -26.9448   22.5376 C   0  0  0  0  0  0
  -19.5804  -26.6403   21.5185 C   0  0  0  0  0  0
  -18.1978  -26.7962   22.1580 C   0  0  0  0  0  0
  -19.1594  -28.8901   23.2797 C   0  0  0  0  0  0
  -18.9508  -30.1495   23.8833 C   0  0  0  0  0  0
  -17.6508  -30.6596   24.0575 C   0  0  0  0  0  0
  -25.9106  -34.9342   23.5004 C   0  0  0  0  0  0
  -16.5393  -29.9101   23.6349 C   0  0  0  0  0  0
  -16.7319  -28.6533   23.0327 C   0  0  0  0  0  0
  -26.4585  -31.6485   25.0616 C   0  0  0  0  0  0
  -25.3733  -31.3654   26.1276 C   0  0  0  0  0  0
  -27.0490  -30.2864   24.6281 C   0  0  0  0  0  0
  -27.6092  -32.4295   25.7394 C   0  0  0  0  0  0
  -27.5571  -37.1752   24.8474 C   0  0  0  0  0  0
  -21.4301  -29.3072   22.3494 N   0  0  0  0  0  0
  -26.4294  -37.3685   23.9401 N   0  0  0  0  0  0
  -24.7390  -31.0033   22.0825 N   0  0  0  0  0  0
  -23.4206  -28.8049   23.2941 O   0  0  0  0  0  0
  -28.1950  -25.8813   20.2806 O   0  0  0  0  0  0
  -26.5693  -34.8865   22.4584 O   0  0  0  0  0  0
  -23.5659  -32.1248   23.6870 O   0  0  0  0  0  0
  -27.8051  -21.7199   20.9811 C   0  0  0  0  0  0
  -28.1373  -20.2771   21.0184 C   0  0  0  0  0  0
  -28.5050  -22.7743   20.2686 C   0  0  0  0  0  0
  -29.2878  -19.6819   20.3555 C   0  0  0  0  0  0
  -29.6107  -22.0903   19.6201 C   0  0  0  0  0  0
  -30.4261  -17.9464   21.8168 C   0  0  0  0  0  0
  -29.5119  -16.7468   22.0447 C   0  0  0  0  0  0
  -29.9352  -18.0536   20.3635 C   0  0  2  0  0  0
  -27.1731  -19.3800   21.7778 C   0  0  0  0  0  0
  -30.4781  -22.9085   18.6857 C   0  0  0  0  0  0
  -27.8290  -24.3390   19.9589 C   0  0  0  0  0  0
  -29.9701  -20.7109   19.6961 N   0  0  0  0  0  0
  -29.7221  -16.4213   20.6366 N   0  0  0  0  0  0
  -31.4670  -12.9228   19.2364 H   0  0  0  0  0  0
  -30.4759  -11.8266   20.1474 H   0  0  0  0  0  0
  -29.9184  -11.7221   17.6952 H   0  0  0  0  0  0
  -29.5925  -13.4411   17.6764 H   0  0  0  0  0  0
  -28.0406  -11.2612   19.1004 H   0  0  0  0  0  0
  -27.4223  -12.3165   17.8586 H   0  0  0  0  0  0
  -27.5460  -14.2333   19.3370 H   0  0  0  0  0  0
  -28.7719  -12.4651   21.5095 H   0  0  0  0  0  0
  -28.2744  -14.1309   21.7040 H   0  0  0  0  0  0
  -25.2779   -9.5664   22.4752 H   0  0  0  0  0  0
  -23.9977   -7.4645   22.7502 H   0  0  0  0  0  0
  -21.0844   -8.8777   19.8944 H   0  0  0  0  0  0
  -22.3740  -10.9648   19.6123 H   0  0  0  0  0  0
  -21.2020   -7.6134   23.9687 H   0  0  0  0  0  0
  -21.1483   -6.0518   25.9063 H   0  0  0  0  0  0
  -22.0598   -2.7588   23.2858 H   0  0  0  0  0  0
  -22.4099  -11.9858   22.4797 H   0  0  0  0  0  0
  -21.1038  -13.1155   22.2551 H   0  0  0  0  0  0
  -24.6511  -15.8533   20.5420 H   0  0  0  0  0  0
  -26.2718  -15.6344   20.1136 H   0  0  0  0  0  0
  -26.7336  -32.5164   23.0826 H   0  0  0  0  0  0
  -25.0130  -33.9459   25.0227 H   0  0  0  0  0  0
  -22.7762  -31.2770   21.3533 H   0  0  0  0  0  0
  -23.3753  -35.9567   23.3275 H   0  0  0  0  0  0
  -24.3608  -36.8918   22.2072 H   0  0  0  0  0  0
  -23.7287  -37.6410   23.6740 H   0  0  0  0  0  0
  -26.2033  -31.3984   20.6134 H   0  0  0  0  0  0
  -26.8957  -30.7118   22.0433 H   0  0  0  0  0  0
  -28.1295  -28.6374   21.3022 H   0  0  0  0  0  0
  -25.8819  -25.7945   18.9591 H   0  0  0  0  0  0
  -24.0036  -27.2966   18.9289 H   0  0  0  0  0  0
  -23.8484  -30.5443   19.3863 H   0  0  0  0  0  0
  -22.8136  -29.2219   19.8267 H   0  0  0  0  0  0
  -25.1332  -36.1735   25.0779 H   0  0  0  0  0  0
  -21.0059  -28.3409   24.1289 H   0  0  0  0  0  0
  -20.5751  -26.2366   23.3613 H   0  0  0  0  0  0
  -21.6682  -26.7470   22.1150 H   0  0  0  0  0  0
  -19.6983  -25.6317   21.1219 H   0  0  0  0  0  0
  -19.6773  -27.3197   20.6708 H   0  0  0  0  0  0
  -17.4260  -26.6703   21.3973 H   0  0  0  0  0  0
  -18.0378  -26.0108   22.8978 H   0  0  0  0  0  0
  -19.7991  -30.7320   24.2165 H   0  0  0  0  0  0
  -17.5072  -31.6258   24.5204 H   0  0  0  0  0  0
  -15.5397  -30.2979   23.7731 H   0  0  0  0  0  0
  -15.8715  -28.0868   22.7029 H   0  0  0  0  0  0
  -24.6021  -30.6892   25.7568 H   0  0  0  0  0  0
  -24.8789  -32.2798   26.4552 H   0  0  0  0  0  0
  -25.8002  -30.8945   27.0141 H   0  0  0  0  0  0
  -26.3138  -29.6504   24.1338 H   0  0  0  0  0  0
  -27.4130  -29.7232   25.4886 H   0  0  0  0  0  0
  -27.9024  -30.4055   23.9599 H   0  0  0  0  0  0
  -27.2718  -33.3706   26.1733 H   0  0  0  0  0  0
  -28.3991  -32.6664   25.0258 H   0  0  0  0  0  0
  -28.0642  -31.8564   26.5483 H   0  0  0  0  0  0
  -28.2546  -38.0083   24.7517 H   0  0  0  0  0  0
  -28.1106  -36.2597   24.6313 H   0  0  0  0  0  0
  -27.2278  -37.1403   25.8876 H   0  0  0  0  0  0
  -20.9529  -29.8785   21.6660 H   0  0  0  0  0  0
  -26.0135  -38.2729   24.1440 H   0  0  0  0  0  0
  -26.9108  -22.0284   21.5032 H   0  0  0  0  0  0
  -31.4894  -17.7025   21.8714 H   0  0  0  0  0  0
  -30.2005  -18.7855   22.4743 H   0  0  0  0  0  0
  -28.4806  -16.9967   22.2901 H   0  0  0  0  0  0
  -29.9122  -16.0374   22.7732 H   0  0  0  0  0  0
  -28.8977  -18.0142   20.0284 H   0  0  0  0  0  0
  -26.2055  -19.8650   21.9179 H   0  0  0  0  0  0
  -27.5704  -19.1333   22.7627 H   0  0  0  0  0  0
  -26.9788  -18.4553   21.2351 H   0  0  0  0  0  0
  -30.7814  -23.8395   19.1668 H   0  0  0  0  0  0
  -29.9238  -23.1614   17.7804 H   0  0  0  0  0  0
  -31.3839  -22.3779   18.3923 H   0  0  0  0  0  0
  -26.8104  -24.2261   20.3302 H   0  0  0  0  0  0
  -27.7219  -24.3393   18.8747 H   0  0  0  0  0  0
  1 25  1  0  0  0
  1 30  2  0  0  0
  1 83  1  0  0  0
  2  3  1  0  0  0
  2 25  1  0  0  0
  2 84  1  0  0  0
  2 85  1  0  0  0
  3  4  1  0  0  0
  3 86  1  0  0  0
  3 87  1  0  0  0
  4  5  1  0  0  0
  4 88  1  0  0  0
  4 89  1  0  0  0
  5  6  1  0  0  0
  5 26  1  0  0  0
  5 90  1  0  0  0
  6 25  1  0  0  0
  6 91  1  0  0  0
  6 92  1  0  0  0
  7  8  2  0  0  0
  7 26  1  0  0  0
  7 29  1  0  0  0
  8  9  1  0  0  0
  8 22  1  0  0  0
  9 10  1  0  0  0
  9 27  2  0  0  0
 10 11  2  0  0  0
 10 15  1  0  0  0
 11 12  1  0  0  0
 11 93  1  0  0  0
 12 13  2  0  0  0
 12 94  1  0  0  0
 13 14  1  0  0  0
 13 31  1  0  0  0
 14 15  2  0  0  0
 14 95  1  0  0  0
 15 96  1  0  0  0
 16 17  2  0  0  0
 16 21  1  0  0  0
 16 31  1  0  0  0
 17 18  1  0  0  0
 17 97  1  0  0  0
 18 19  2  0  0  0
 18 98  1  0  0  0
 19 20  1  0  0  0
 19 24  1  0  0  0
 20 21  2  0  0  0
 20 99  1  0  0  0
 21 23  1  0  0  0
 22 28  1  0  0  0
 22 32  2  0  0  0
 26 27  1  0  0  0
 28100  1  0  0  0
 28101  1  0  0  0
 29102  1  0  0  0
 29103  1  0  0  0
 33 34  1  0  0  0
 33 66  1  0  0  0
 33 70  2  0  0  0
 34 36  1  0  0  0
 34 59  1  0  0  0
 34104  1  0  0  0
 35 44  2  0  0  0
 35 45  1  0  0  0
 35 68  1  0  0  0
 36 56  1  0  0  0
 36105  1  0  0  0
 37 39  1  0  0  0
 37 47  1  0  0  0
 37 66  1  0  0  0
 37106  1  0  0  0
 38 43  2  0  0  0
 38 46  1  0  0  0
 38 47  1  0  0  0
 39 64  1  0  0  0
 39 67  2  0  0  0
 40 52  1  0  0  0
 40 53  2  0  0  0
 40 58  1  0  0  0
 41107  1  0  0  0
 41108  1  0  0  0
 41109  1  0  0  0
 41 48  1  0  0  0
 42 43  1  0  0  0
 42 66  1  0  0  0
 42110  1  0  0  0
 42111  1  0  0  0
 43 44  1  0  0  0
 44112  1  0  0  0
 45 46  2  0  0  0
 45113  1  0  0  0
 46114  1  0  0  0
 47115  1  0  0  0
 47116  1  0  0  0
 48 56  1  0  0  0
 48 65  1  0  0  0
 48117  1  0  0  0
 49 50  1  0  0  0
 49 53  1  0  0  0
 49 64  1  0  0  0
 49118  1  0  0  0
 50 51  1  0  0  0
 50119  1  0  0  0
 50120  1  0  0  0
 51 52  1  0  0  0
 51121  1  0  0  0
 51122  1  0  0  0
 52123  1  0  0  0
 52124  1  0  0  0
 53 54  1  0  0  0
 54 55  2  0  0  0
 54125  1  0  0  0
 55 57  1  0  0  0
 55126  1  0  0  0
 56 69  2  0  0  0
 57 58  2  0  0  0
 57127  1  0  0  0
 58128  1  0  0  0
 59 60  1  0  0  0
 59 61  1  0  0  0
 59 62  1  0  0  0
 60129  1  0  0  0
 60130  1  0  0  0
 60131  1  0  0  0
 61132  1  0  0  0
 61133  1  0  0  0
 61134  1  0  0  0
 62135  1  0  0  0
 62136  1  0  0  0
 62137  1  0  0  0
 63 65  1  0  0  0
 63138  1  0  0  0
 63139  1  0  0  0
 63140  1  0  0  0
 64141  1  0  0  0
 65142  1  0  0  0
 68 81  1  0  0  0
 71 72  2  0  0  0
 71 73  1  0  0  0
 71143  1  0  0  0
 72 74  1  0  0  0
 72 79  1  0  0  0
 73 75  2  0  0  0
 73 81  1  0  0  0
 74 82  2  0  0  0
 74 78  1  0  0  0
 75 80  1  0  0  0
 75 82  1  0  0  0
 76 77  1  0  0  0
 76 78  1  0  0  0
 76144  1  0  0  0
 76145  1  0  0  0
 77 83  1  0  0  0
 77146  1  0  0  0
 77147  1  0  0  0
 78 83  1  0  0  0
 78148  1  0  0  0
 79149  1  0  0  0
 79150  1  0  0  0
 79151  1  0  0  0
 80152  1  0  0  0
 80153  1  0  0  0
 80154  1  0  0  0
 81155  1  0  0  0
 81156  1  0  0  0
M  ISO  4   1 100  68 101  81 101  83 100
M  END
> <chiral flag>
0

> <version>
0

> <s_m_source_file>
/data/baiqing/PycharmProjects/Reinvent-master-3.2/result/LINK_invent/BTK/process_docking_weight1_custom_sum_contain_oxygen_bond_distance_aromatic_linkinvent_7_9_3/rearranged_h_0167.sdf

> <i_m_source_file_index>
9

> <r_mmod_Potential_Energy-OPLS-2005>
1168.59460449219

> <r_mmod_Stretch_Energy-OPLS-2005>
457.938201904297

> <r_mmod_Bend_Energy-OPLS-2005>
639.158264160156

> <r_mmod_Torsional_Energy-OPLS-2005>
267.551177978516

> <r_mmod_Improper_Torsional_Energy-OPLS-2005>
14.3690977096558

> <r_mmod_Van_der_Waal_Energy-OPLS-2005>
138.440460205078

> <r_mmod_Electrostatic_Energy-OPLS-2005>
-504.984375

> <r_mmod_Solvation_Energy-OPLS-2005>
-221.05192565918

> <b_mmod_Minimization_Converged-OPLS-2005>
0

> <r_mmod_RMS_Derivative-OPLS-2005>
2.79894614219666

$$$$
9
                    3D
 Structure written by MMmdl.
171181  0  0  1  0            999 V2000
  -30.7025  -14.4929   20.5056 C   0  0  0  0  0  0
  -30.4098  -12.2979   19.4356 C   0  0  0  0  0  0
  -29.4918  -12.4813   18.2098 C   0  0  0  0  0  0
  -28.0115  -12.3600   18.6218 C   0  0  0  0  0  0
  -27.6536  -13.2171   19.8659 C   0  0  2  0  0  0
  -28.6966  -13.0484   20.9930 C   0  0  0  0  0  0
  -25.2552  -13.8191   20.5703 C   0  0  0  0  0  0
  -24.1811  -13.0440   20.9179 C   0  0  0  0  0  0
  -24.6398  -11.6922   20.8745 C   0  0  0  0  0  0
  -23.9078  -10.4298   21.0425 C   0  0  0  0  0  0
  -24.3630   -9.4213   21.9197 C   0  0  0  0  0  0
  -23.6300   -8.2250   22.0761 C   0  0  0  0  0  0
  -22.4280   -8.0291   21.3550 C   0  0  0  0  0  0
  -21.9928   -9.0267   20.4647 C   0  0  0  0  0  0
  -22.7258  -10.2142   20.3067 C   0  0  0  0  0  0
  -21.6858   -6.0741   22.5281 C   0  0  0  0  0  0
  -21.4021   -6.5655   23.8215 C   0  0  0  0  0  0
  -21.3649   -5.6809   24.9178 C   0  0  0  0  0  0
  -21.6038   -4.3069   24.7230 C   0  0  0  0  0  0
  -21.8820   -3.8152   23.4353 C   0  0  0  0  0  0
  -21.9197   -4.6967   22.3405 C   0  0  0  0  0  0
  -22.7833  -13.5219   21.1858 C   0  0  0  0  0  0
  -22.1665   -4.2145   21.0983 F   0  0  0  0  0  0
  -21.5625   -3.4565   25.7750 F   0  0  0  0  0  0
  -30.0215  -13.3192   20.4195 N   0  0  0  0  0  0
  -26.2988  -12.9378   20.3359 N   0  0  0  0  0  0
  -25.9322  -11.6525   20.5772 N   0  0  0  0  0  0
  -22.0511  -12.8169   22.0408 N   0  0  0  0  0  0
  -25.4285  -15.1907   20.4159 N   0  0  0  0  0  0
  -31.8849  -14.6005   20.1655 O   0  0  0  0  0  0
  -21.6635   -6.8890   21.4244 O   0  0  0  0  0  0
  -22.3494  -14.5530   20.6736 O   0  0  0  0  0  0
  -24.6160  -31.8667   23.2099 C   0  0  0  0  0  0
  -25.9051  -32.4814   23.8386 C   0  0  1  0  0  0
  -27.2284  -27.4256   20.0743 C   0  0  0  0  0  0
  -25.5906  -33.8611   24.2320 N   0  0  0  0  0  0
  -23.4036  -30.4927   21.5508 C   0  0  2  0  0  0
  -24.8460  -28.9580   20.1131 C   0  0  0  0  0  0
  -22.7408  -29.4668   22.4983 C   0  0  0  0  0  0
  -18.0272  -28.1374   22.8496 C   0  0  0  0  0  0
  -24.1485  -36.7313   23.2640 C   0  0  0  0  0  0
  -25.9353  -30.8253   21.3667 C   0  0  0  0  0  0
  -26.0089  -29.4595   20.7121 C   0  0  0  0  0  0
  -27.2005  -28.6954   20.7003 C   0  0  0  0  0  0
  -26.0370  -26.9299   19.4976 C   0  0  0  0  0  0
  -24.8536  -27.6900   19.5094 C   0  0  0  0  0  0
  -23.6107  -29.8280   20.1642 C   0  0  0  0  0  0
  -25.4109  -36.3105   24.0336 C   0  0  1  0  0  0
  -20.5864  -28.3658   23.1317 C   0  0  2  0  0  0
  -20.6758  -26.9394   22.5410 C   0  0  0  0  0  0
  -19.5742  -26.6380   21.5203 C   0  0  0  0  0  0
  -18.1923  -26.7923   22.1621 C   0  0  0  0  0  0
  -19.1522  -28.8833   23.2904 C   0  0  0  0  0  0
  -18.9453  -30.1442   23.8906 C   0  0  0  0  0  0
  -17.6454  -30.6581   24.0566 C   0  0  0  0  0  0
  -25.9039  -34.9472   23.5127 C   0  0  0  0  0  0
  -16.5346  -29.9081   23.6327 C   0  0  0  0  0  0
  -16.7262  -28.6499   23.0348 C   0  0  0  0  0  0
  -26.4471  -31.6595   25.0722 C   0  0  0  0  0  0
  -25.3741  -31.3689   26.1470 C   0  0  0  0  0  0
  -27.0306  -30.3037   24.6111 C   0  0  0  0  0  0
  -27.6036  -32.4311   25.7502 C   0  0  0  0  0  0
  -27.5581  -37.1816   24.8465 C   0  0  0  0  0  0
  -21.4131  -29.3034   22.3723 N   0  0  0  0  0  0
  -26.4294  -37.3793   23.9408 N   0  0  0  0  0  0
  -24.6703  -31.0755   22.1010 N   0  0  0  0  0  0
  -23.4175  -28.8210   23.3027 O   0  0  0  0  0  0
  -28.3860  -26.6714   20.0821 O   0  0  0  0  0  0
  -26.5597  -34.8932   22.4686 O   0  0  0  0  0  0
  -23.5348  -32.1427   23.7481 O   0  0  0  0  0  0
  -29.3570  -21.5547   20.9675 C   0  0  0  0  0  0
  -29.6686  -22.8449   20.4987 C   0  0  0  0  0  0
  -29.0204  -23.4201   19.4075 C   0  0  0  0  0  0
  -28.0233  -22.6860   18.7176 C   0  0  0  0  0  0
  -27.6566  -21.3938   19.2073 C   0  0  0  0  0  0
  -28.3450  -20.8141   20.3161 C   0  0  0  0  0  0
  -30.7193  -23.7375   20.9871 C   0  0  0  0  0  0
  -30.7833  -24.9640   20.0791 C   0  0  0  0  0  0
  -28.8369  -17.5800   19.4723 C   0  0  0  0  0  0
  -29.0746  -17.5808   21.9424 C   0  0  0  0  0  0
  -29.8911  -16.4552   19.4046 C   0  0  0  0  0  0
  -30.1273  -16.4485   21.8228 C   0  0  0  0  0  0
  -29.6643  -24.7596   19.0267 C   0  0  2  0  0  0
  -29.0575  -18.4853   20.6937 C   0  0  0  0  0  0
  -27.3989  -23.2444   17.4441 C   0  0  0  0  0  0
  -26.5448  -20.6101   18.5126 C   0  0  0  0  0  0
  -28.7586  -26.0147   18.8598 C   0  0  0  0  0  0
  -29.9403  -15.6143   20.6211 N   0  0  0  0  0  0
  -28.0221  -19.5211   20.7735 N   0  0  0  0  0  0
  -31.4642  -23.5592   21.9543 O   0  0  0  0  0  0
  -31.4579  -12.3709   19.1399 H   0  0  0  0  0  0
  -30.2859  -11.3011   19.8615 H   0  0  0  0  0  0
  -29.7257  -11.7375   17.4467 H   0  0  0  0  0  0
  -29.6689  -13.4548   17.7510 H   0  0  0  0  0  0
  -27.8144  -11.3083   18.8309 H   0  0  0  0  0  0
  -27.3642  -12.6265   17.7844 H   0  0  0  0  0  0
  -27.6801  -14.2570   19.5419 H   0  0  0  0  0  0
  -28.6644  -12.0386   21.4036 H   0  0  0  0  0  0
  -28.4764  -13.7228   21.8230 H   0  0  0  0  0  0
  -25.2791   -9.5679   22.4749 H   0  0  0  0  0  0
  -24.0009   -7.4646   22.7482 H   0  0  0  0  0  0
  -21.0870   -8.8803   19.8944 H   0  0  0  0  0  0
  -22.3749  -10.9684   19.6170 H   0  0  0  0  0  0
  -21.2023   -7.6170   23.9714 H   0  0  0  0  0  0
  -21.1463   -6.0549   25.9081 H   0  0  0  0  0  0
  -22.0602   -2.7613   23.2864 H   0  0  0  0  0  0
  -22.4179  -11.9819   22.4731 H   0  0  0  0  0  0
  -21.1148  -13.1165   22.2695 H   0  0  0  0  0  0
  -24.6693  -15.8519   20.5396 H   0  0  0  0  0  0
  -26.2993  -15.6284   20.1443 H   0  0  0  0  0  0
  -26.7126  -32.5517   23.1146 H   0  0  0  0  0  0
  -25.0054  -33.9763   25.0466 H   0  0  0  0  0  0
  -22.6935  -31.3110   21.4134 H   0  0  0  0  0  0
  -23.3741  -35.9648   23.3297 H   0  0  0  0  0  0
  -24.3579  -36.8935   22.2055 H   0  0  0  0  0  0
  -23.7246  -37.6523   23.6657 H   0  0  0  0  0  0
  -26.0528  -31.5924   20.5996 H   0  0  0  0  0  0
  -26.8223  -30.8732   21.9873 H   0  0  0  0  0  0
  -28.1000  -29.0791   21.1621 H   0  0  0  0  0  0
  -25.9975  -25.9430   19.0595 H   0  0  0  0  0  0
  -23.9533  -27.2879   19.0645 H   0  0  0  0  0  0
  -23.7242  -30.6051   19.4070 H   0  0  0  0  0  0
  -22.7322  -29.2519   19.8670 H   0  0  0  0  0  0
  -25.1282  -36.1968   25.0828 H   0  0  0  0  0  0
  -20.9964  -28.3218   24.1436 H   0  0  0  0  0  0
  -20.5655  -26.2263   23.3591 H   0  0  0  0  0  0
  -21.6633  -26.7426   22.1222 H   0  0  0  0  0  0
  -19.6900  -25.6293   21.1231 H   0  0  0  0  0  0
  -19.6686  -27.3191   20.6736 H   0  0  0  0  0  0
  -17.4189  -26.6669   21.4023 H   0  0  0  0  0  0
  -18.0331  -26.0054   22.9011 H   0  0  0  0  0  0
  -19.7927  -30.7256   24.2283 H   0  0  0  0  0  0
  -17.5011  -31.6266   24.5161 H   0  0  0  0  0  0
  -15.5351  -30.2992   23.7635 H   0  0  0  0  0  0
  -15.8666  -28.0826   22.7049 H   0  0  0  0  0  0
  -24.5910  -30.7042   25.7808 H   0  0  0  0  0  0
  -24.8938  -32.2837   26.4946 H   0  0  0  0  0  0
  -25.8109  -30.8840   27.0208 H   0  0  0  0  0  0
  -26.2860  -29.6806   24.1150 H   0  0  0  0  0  0
  -27.4050  -29.7268   25.4575 H   0  0  0  0  0  0
  -27.8701  -30.4342   23.9281 H   0  0  0  0  0  0
  -27.2641  -33.3583   26.2125 H   0  0  0  0  0  0
  -28.3839  -32.6914   25.0342 H   0  0  0  0  0  0
  -28.0712  -31.8408   26.5391 H   0  0  0  0  0  0
  -28.2598  -38.0114   24.7512 H   0  0  0  0  0  0
  -28.1076  -36.2645   24.6286 H   0  0  0  0  0  0
  -27.2293  -37.1469   25.8867 H   0  0  0  0  0  0
  -20.9279  -29.8772   21.6967 H   0  0  0  0  0  0
  -26.0173  -38.2869   24.1407 H   0  0  0  0  0  0
  -29.8940  -21.1420   21.8102 H   0  0  0  0  0  0
  -31.7638  -25.0326   19.6094 H   0  0  0  0  0  0
  -30.6294  -25.8615   20.6768 H   0  0  0  0  0  0
  -27.8398  -17.1383   19.5031 H   0  0  0  0  0  0
  -28.8856  -18.1721   18.5565 H   0  0  0  0  0  0
  -29.2895  -18.1786   22.8295 H   0  0  0  0  0  0
  -28.0890  -17.1407   22.1016 H   0  0  0  0  0  0
  -30.8745  -16.8962   19.2255 H   0  0  0  0  0  0
  -29.6767  -15.8328   18.5329 H   0  0  0  0  0  0
  -30.0882  -15.8231   22.7167 H   0  0  0  0  0  0
  -31.1268  -16.8870   21.7990 H   0  0  0  0  0  0
  -30.1447  -24.5825   18.0631 H   0  0  0  0  0  0
  -30.0379  -18.9571   20.5988 H   0  0  0  0  0  0
  -28.0702  -23.9338   16.9334 H   0  0  0  0  0  0
  -26.4676  -23.7661   17.6655 H   0  0  0  0  0  0
  -27.1846  -22.4569   16.7224 H   0  0  0  0  0  0
  -25.7750  -21.2685   18.1120 H   0  0  0  0  0  0
  -26.0266  -19.9324   19.1895 H   0  0  0  0  0  0
  -26.9548  -20.0233   17.6907 H   0  0  0  0  0  0
  -27.9227  -25.7837   18.2064 H   0  0  0  0  0  0
  -29.3333  -26.7587   18.3083 H   0  0  0  0  0  0
  -27.1316  -19.1922   20.4169 H   0  0  0  0  0  0
  1 25  1  0  0  0
  1 30  2  0  0  0
  1 88  1  0  0  0
  2  3  1  0  0  0
  2 25  1  0  0  0
  2 91  1  0  0  0
  2 92  1  0  0  0
  3  4  1  0  0  0
  3 93  1  0  0  0
  3 94  1  0  0  0
  4  5  1  0  0  0
  4 95  1  0  0  0
  4 96  1  0  0  0
  5  6  1  0  0  0
  5 26  1  0  0  0
  5 97  1  0  0  0
  6 25  1  0  0  0
  6 98  1  0  0  0
  6 99  1  0  0  0
  7  8  2  0  0  0
  7 26  1  0  0  0
  7 29  1  0  0  0
  8  9  1  0  0  0
  8 22  1  0  0  0
  9 10  1  0  0  0
  9 27  2  0  0  0
 10 11  2  0  0  0
 10 15  1  0  0  0
 11 12  1  0  0  0
 11100  1  0  0  0
 12 13  2  0  0  0
 12101  1  0  0  0
 13 14  1  0  0  0
 13 31  1  0  0  0
 14 15  2  0  0  0
 14102  1  0  0  0
 15103  1  0  0  0
 16 17  2  0  0  0
 16 21  1  0  0  0
 16 31  1  0  0  0
 17 18  1  0  0  0
 17104  1  0  0  0
 18 19  2  0  0  0
 18105  1  0  0  0
 19 20  1  0  0  0
 19 24  1  0  0  0
 20 21  2  0  0  0
 20106  1  0  0  0
 21 23  1  0  0  0
 22 28  1  0  0  0
 22 32  2  0  0  0
 26 27  1  0  0  0
 28107  1  0  0  0
 28108  1  0  0  0
 29109  1  0  0  0
 29110  1  0  0  0
 33 34  1  0  0  0
 33 66  1  0  0  0
 33 70  2  0  0  0
 34 36  1  0  0  0
 34 59  1  0  0  0
 34111  1  0  0  0
 35 44  2  0  0  0
 35 45  1  0  0  0
 35 68  1  0  0  0
 36 56  1  0  0  0
 36112  1  0  0  0
 37 39  1  0  0  0
 37 47  1  0  0  0
 37 66  1  0  0  0
 37113  1  0  0  0
 38 43  2  0  0  0
 38 46  1  0  0  0
 38 47  1  0  0  0
 39 64  1  0  0  0
 39 67  2  0  0  0
 40 52  1  0  0  0
 40 53  2  0  0  0
 40 58  1  0  0  0
 41114  1  0  0  0
 41115  1  0  0  0
 41116  1  0  0  0
 41 48  1  0  0  0
 42 43  1  0  0  0
 42 66  1  0  0  0
 42117  1  0  0  0
 42118  1  0  0  0
 43 44  1  0  0  0
 44119  1  0  0  0
 45 46  2  0  0  0
 45120  1  0  0  0
 46121  1  0  0  0
 47122  1  0  0  0
 47123  1  0  0  0
 48 56  1  0  0  0
 48 65  1  0  0  0
 48124  1  0  0  0
 49 50  1  0  0  0
 49 53  1  0  0  0
 49 64  1  0  0  0
 49125  1  0  0  0
 50 51  1  0  0  0
 50126  1  0  0  0
 50127  1  0  0  0
 51 52  1  0  0  0
 51128  1  0  0  0
 51129  1  0  0  0
 52130  1  0  0  0
 52131  1  0  0  0
 53 54  1  0  0  0
 54 55  2  0  0  0
 54132  1  0  0  0
 55 57  1  0  0  0
 55133  1  0  0  0
 56 69  2  0  0  0
 57 58  2  0  0  0
 57134  1  0  0  0
 58135  1  0  0  0
 59 60  1  0  0  0
 59 61  1  0  0  0
 59 62  1  0  0  0
 60136  1  0  0  0
 60137  1  0  0  0
 60138  1  0  0  0
 61139  1  0  0  0
 61140  1  0  0  0
 61141  1  0  0  0
 62142  1  0  0  0
 62143  1  0  0  0
 62144  1  0  0  0
 63 65  1  0  0  0
 63145  1  0  0  0
 63146  1  0  0  0
 63147  1  0  0  0
 64148  1  0  0  0
 65149  1  0  0  0
 68 87  1  0  0  0
 71 72  2  0  0  0
 71 76  1  0  0  0
 71150  1  0  0  0
 72 73  1  0  0  0
 72 77  1  0  0  0
 73 74  2  0  0  0
 73 83  1  0  0  0
 74 75  1  0  0  0
 74 85  1  0  0  0
 75 76  2  0  0  0
 75 86  1  0  0  0
 76 89  1  0  0  0
 77 78  1  0  0  0
 77 90  2  0  0  0
 78 83  1  0  0  0
 78151  1  0  0  0
 78152  1  0  0  0
 79 81  1  0  0  0
 79 84  1  0  0  0
 79153  1  0  0  0
 79154  1  0  0  0
 80 82  1  0  0  0
 80 84  1  0  0  0
 80155  1  0  0  0
 80156  1  0  0  0
 81 88  1  0  0  0
 81157  1  0  0  0
 81158  1  0  0  0
 82 88  1  0  0  0
 82159  1  0  0  0
 82160  1  0  0  0
 83 87  1  0  0  0
 83161  1  0  0  0
 84 89  1  0  0  0
 84162  1  0  0  0
 85163  1  0  0  0
 85164  1  0  0  0
 85165  1  0  0  0
 86166  1  0  0  0
 86167  1  0  0  0
 86168  1  0  0  0
 87169  1  0  0  0
 87170  1  0  0  0
 89171  1  0  0  0
M  ISO  4   1 100  68 101  87 101  88 100
M  END
> <chiral flag>
0

> <version>
0

> <s_m_source_file>
/data/baiqing/PycharmProjects/Reinvent-master-3.2/result/LINK_invent/BTK/process_docking_weight1_custom_sum_contain_oxygen_bond_distance_aromatic_linkinvent_7_9_3/rearranged_h_0167.sdf

> <i_m_source_file_index>
10

> <r_mmod_Potential_Energy-OPLS-2005>
168.191467285156

> <r_mmod_Stretch_Energy-OPLS-2005>
43.7303123474121

> <r_mmod_Bend_Energy-OPLS-2005>
152.787551879883

> <r_mmod_Torsional_Energy-OPLS-2005>
384.788696289062

> <r_mmod_Improper_Torsional_Energy-OPLS-2005>
19.5012798309326

> <r_mmod_Van_der_Waal_Energy-OPLS-2005>
147.982971191406

> <r_mmod_Electrostatic_Energy-OPLS-2005>
-386.887817382812

> <r_mmod_Solvation_Energy-OPLS-2005>
-213.389556884766

> <b_mmod_Minimization_Converged-OPLS-2005>
0

> <r_mmod_RMS_Derivative-OPLS-2005>
1.80243623256683

$$$$
10
                    3D
 Structure written by MMmdl.
167177  0  0  1  0            999 V2000
  -30.7728  -14.6569   20.4533 C   0  0  0  0  0  0
  -30.4233  -12.4308   19.4331 C   0  0  0  0  0  0
  -29.4854  -12.4785   18.2144 C   0  0  0  0  0  0
  -28.0251  -12.2928   18.6584 C   0  0  0  0  0  0
  -27.6369  -13.2114   19.8430 C   0  0  2  0  0  0
  -28.7057  -13.2004   20.9632 C   0  0  0  0  0  0
  -25.2516  -13.8156   20.5751 C   0  0  0  0  0  0
  -24.1806  -13.0425   20.9265 C   0  0  0  0  0  0
  -24.6381  -11.6907   20.8810 C   0  0  0  0  0  0
  -23.9056  -10.4289   21.0407 C   0  0  0  0  0  0
  -24.3611   -9.4197   21.9167 C   0  0  0  0  0  0
  -23.6300   -8.2221   22.0721 C   0  0  0  0  0  0
  -22.4283   -8.0264   21.3524 C   0  0  0  0  0  0
  -21.9922   -9.0249   20.4649 C   0  0  0  0  0  0
  -22.7226  -10.2139   20.3053 C   0  0  0  0  0  0
  -21.6865   -6.0699   22.5278 C   0  0  0  0  0  0
  -21.4012   -6.5600   23.8206 C   0  0  0  0  0  0
  -21.3681   -5.6756   24.9180 C   0  0  0  0  0  0
  -21.6054   -4.3018   24.7230 C   0  0  0  0  0  0
  -21.8818   -3.8107   23.4351 C   0  0  0  0  0  0
  -21.9205   -4.6927   22.3405 C   0  0  0  0  0  0
  -22.7818  -13.5236   21.1917 C   0  0  0  0  0  0
  -22.1656   -4.2104   21.0987 F   0  0  0  0  0  0
  -21.5655   -3.4512   25.7750 F   0  0  0  0  0  0
  -30.0058  -13.5201   20.3484 N   0  0  0  0  0  0
  -26.2942  -12.9317   20.3372 N   0  0  0  0  0  0
  -25.9316  -11.6485   20.5832 N   0  0  0  0  0  0
  -22.0424  -12.8282   22.0494 N   0  0  0  0  0  0
  -25.4156  -15.1893   20.4133 N   0  0  0  0  0  0
  -31.9827  -14.5603   20.2196 O   0  0  0  0  0  0
  -21.6637   -6.8870   21.4254 O   0  0  0  0  0  0
  -22.3525  -14.5523   20.6711 O   0  0  0  0  0  0
  -24.6066  -31.8675   23.2091 C   0  0  0  0  0  0
  -25.8928  -32.4871   23.8408 C   0  0  1  0  0  0
  -27.2145  -27.3639   20.1073 C   0  0  0  0  0  0
  -25.5737  -33.8679   24.2273 N   0  0  0  0  0  0
  -23.4011  -30.4799   21.5577 C   0  0  2  0  0  0
  -24.8476  -28.9439   20.1173 C   0  0  0  0  0  0
  -22.7404  -29.4541   22.5076 C   0  0  0  0  0  0
  -18.0242  -28.1337   22.8511 C   0  0  0  0  0  0
  -24.1469  -36.7299   23.2661 C   0  0  0  0  0  0
  -25.9381  -30.7997   21.3841 C   0  0  0  0  0  0
  -26.0119  -29.4332   20.7243 C   0  0  0  0  0  0
  -27.1943  -28.6462   20.7216 C   0  0  0  0  0  0
  -26.0279  -26.9047   19.4926 C   0  0  0  0  0  0
  -24.8526  -27.6812   19.5031 C   0  0  0  0  0  0
  -23.6121  -29.8170   20.1717 C   0  0  0  0  0  0
  -25.4115  -36.3147   24.0332 C   0  0  1  0  0  0
  -20.5827  -28.3554   23.1345 C   0  0  2  0  0  0
  -20.6679  -26.9293   22.5425 C   0  0  0  0  0  0
  -19.5685  -26.6330   21.5187 C   0  0  0  0  0  0
  -18.1877  -26.7889   22.1632 C   0  0  0  0  0  0
  -19.1501  -28.8776   23.2925 C   0  0  0  0  0  0
  -18.9445  -30.1372   23.8951 C   0  0  0  0  0  0
  -17.6461  -30.6579   24.0520 C   0  0  0  0  0  0
  -25.9016  -34.9513   23.5128 C   0  0  0  0  0  0
  -16.5340  -29.9078   23.6322 C   0  0  0  0  0  0
  -16.7232  -28.6458   23.0419 C   0  0  0  0  0  0
  -26.4340  -31.6756   25.0808 C   0  0  0  0  0  0
  -25.3519  -31.3962   26.1511 C   0  0  0  0  0  0
  -27.0105  -30.3169   24.6247 C   0  0  0  0  0  0
  -27.5953  -32.4517   25.7505 C   0  0  0  0  0  0
  -27.5598  -37.1783   24.8448 C   0  0  0  0  0  0
  -21.4124  -29.2928   22.3801 N   0  0  0  0  0  0
  -26.4303  -37.3825   23.9416 N   0  0  0  0  0  0
  -24.6664  -31.0665   22.1068 N   0  0  0  0  0  0
  -23.4176  -28.8092   23.3127 O   0  0  0  0  0  0
  -28.3632  -26.5782   20.1665 O   0  0  0  0  0  0
  -26.5654  -34.8946   22.4746 O   0  0  0  0  0  0
  -23.5229  -32.1483   23.7412 O   0  0  0  0  0  0
  -29.6954  -20.3401   17.7533 C   0  0  0  0  0  0
  -29.0163  -21.4125   19.8337 C   0  0  0  0  0  0
  -29.4782  -20.2256   19.1449 C   0  0  0  0  0  0
  -29.4228  -21.5353   17.0816 C   0  0  0  0  0  0
  -28.9511  -22.6635   17.7399 C   0  0  0  0  0  0
  -28.7452  -22.6674   19.1488 C   0  0  0  0  0  0
  -29.5691  -21.7272   15.5981 C   0  0  0  0  0  0
  -28.6929  -23.7604   16.7217 C   0  0  0  0  0  0
  -29.1931  -23.2004   15.3715 C   0  0  0  0  0  0
  -30.8641  -18.5546   20.7592 C   0  0  0  0  0  0
  -28.5528  -17.9119   20.1653 C   0  0  0  0  0  0
  -31.2850  -17.0426   20.8138 C   0  0  0  0  0  0
  -28.9059  -16.3787   20.1599 C   0  0  0  0  0  0
  -29.7479  -18.7830   19.7283 C   0  0  0  0  0  0
  -28.1819  -23.9322   19.9027 C   0  0  0  0  0  0
  -28.5282  -25.3794   19.3471 C   0  0  0  0  0  0
  -30.2586  -15.9452   20.6293 N   0  0  0  0  0  0
  -31.4492  -12.5314   19.0765 H   0  0  0  0  0  0
  -30.3813  -11.4605   19.9310 H   0  0  0  0  0  0
  -29.7605  -11.6923   17.5081 H   0  0  0  0  0  0
  -29.6004  -13.4286   17.6890 H   0  0  0  0  0  0
  -27.9120  -11.2475   18.9485 H   0  0  0  0  0  0
  -27.3507  -12.4547   17.8174 H   0  0  0  0  0  0
  -27.5968  -14.2035   19.4101 H   0  0  0  0  0  0
  -28.7498  -12.2242   21.4489 H   0  0  0  0  0  0
  -28.4667  -13.9182   21.7493 H   0  0  0  0  0  0
  -25.2738   -9.5659   22.4767 H   0  0  0  0  0  0
  -24.0006   -7.4596   22.7407 H   0  0  0  0  0  0
  -21.0817   -8.8761   19.8988 H   0  0  0  0  0  0
  -22.3641  -10.9671   19.6175 H   0  0  0  0  0  0
  -21.1967   -7.6092   23.9709 H   0  0  0  0  0  0
  -21.1534   -6.0467   25.9087 H   0  0  0  0  0  0
  -22.0594   -2.7564   23.2846 H   0  0  0  0  0  0
  -22.3996  -11.9958   22.4962 H   0  0  0  0  0  0
  -21.1024  -13.1319   22.2606 H   0  0  0  0  0  0
  -24.6454  -15.8351   20.5434 H   0  0  0  0  0  0
  -26.2652  -15.6458   20.1112 H   0  0  0  0  0  0
  -26.6996  -32.5507   23.1159 H   0  0  0  0  0  0
  -24.9680  -33.9928   25.0259 H   0  0  0  0  0  0
  -22.6800  -31.2867   21.4178 H   0  0  0  0  0  0
  -23.3782  -35.9576   23.3354 H   0  0  0  0  0  0
  -24.3534  -36.8904   22.2065 H   0  0  0  0  0  0
  -23.7152  -37.6471   23.6682 H   0  0  0  0  0  0
  -26.0729  -31.5670   20.6217 H   0  0  0  0  0  0
  -26.8164  -30.8408   22.0169 H   0  0  0  0  0  0
  -28.0890  -29.0104   21.2104 H   0  0  0  0  0  0
  -25.9844  -25.9295   19.0311 H   0  0  0  0  0  0
  -23.9524  -27.2917   19.0452 H   0  0  0  0  0  0
  -23.7162  -30.5905   19.4091 H   0  0  0  0  0  0
  -22.7334  -29.2354   19.8856 H   0  0  0  0  0  0
  -25.1322  -36.2029   25.0822 H   0  0  0  0  0  0
  -20.9930  -28.3064   24.1454 H   0  0  0  0  0  0
  -20.5452  -26.2174   23.3603 H   0  0  0  0  0  0
  -21.6557  -26.7246   22.1284 H   0  0  0  0  0  0
  -19.6816  -25.6240   21.1214 H   0  0  0  0  0  0
  -19.6663  -27.3127   20.6707 H   0  0  0  0  0  0
  -17.4124  -26.6621   21.4059 H   0  0  0  0  0  0
  -18.0295  -26.0043   22.9042 H   0  0  0  0  0  0
  -19.7920  -30.7109   24.2443 H   0  0  0  0  0  0
  -17.5037  -31.6298   24.5035 H   0  0  0  0  0  0
  -15.5349  -30.3014   23.7610 H   0  0  0  0  0  0
  -15.8612  -28.0730   22.7255 H   0  0  0  0  0  0
  -24.5653  -30.7373   25.7826 H   0  0  0  0  0  0
  -24.8693  -32.3140   26.4891 H   0  0  0  0  0  0
  -25.7711  -30.9146   27.0345 H   0  0  0  0  0  0
  -26.2651  -29.7103   24.1078 H   0  0  0  0  0  0
  -27.3553  -29.7305   25.4775 H   0  0  0  0  0  0
  -27.8666  -30.4507   23.9629 H   0  0  0  0  0  0
  -27.2594  -33.3780   26.2213 H   0  0  0  0  0  0
  -28.3622  -32.7203   25.0222 H   0  0  0  0  0  0
  -28.0803  -31.8596   26.5283 H   0  0  0  0  0  0
  -28.2629  -38.0073   24.7518 H   0  0  0  0  0  0
  -28.1077  -36.2596   24.6261 H   0  0  0  0  0  0
  -27.2307  -37.1433   25.8849 H   0  0  0  0  0  0
  -20.9270  -29.8730   21.7106 H   0  0  0  0  0  0
  -26.0206  -38.2890   24.1501 H   0  0  0  0  0  0
  -30.0476  -19.5043   17.1673 H   0  0  0  0  0  0
  -28.8460  -21.3563   20.9004 H   0  0  0  0  0  0
  -28.9097  -21.0439   15.0603 H   0  0  0  0  0  0
  -30.5984  -21.5276   15.2967 H   0  0  0  0  0  0
  -29.2613  -24.6615   16.9333 H   0  0  0  0  0  0
  -27.6275  -24.0025   16.6948 H   0  0  0  0  0  0
  -28.4644  -23.3265   14.5707 H   0  0  0  0  0  0
  -30.0922  -23.7438   15.0696 H   0  0  0  0  0  0
  -31.7535  -19.1274   20.4795 H   0  0  0  0  0  0
  -30.5795  -18.9251   21.7443 H   0  0  0  0  0  0
  -28.1837  -18.2233   21.1462 H   0  0  0  0  0  0
  -27.7113  -18.0664   19.4840 H   0  0  0  0  0  0
  -31.8556  -16.8585   21.7289 H   0  0  0  0  0  0
  -32.0216  -16.9507   20.0093 H   0  0  0  0  0  0
  -28.8122  -16.0313   19.1266 H   0  0  0  0  0  0
  -28.1330  -15.8711   20.7340 H   0  0  0  0  0  0
  -30.1424  -18.2502   18.8629 H   0  0  0  0  0  0
  -28.4877  -23.8765   20.9463 H   0  0  0  0  0  0
  -27.0977  -23.8240   19.9204 H   0  0  0  0  0  0
  -28.0153  -25.5587   18.4068 H   0  0  0  0  0  0
  -29.5928  -25.3728   19.1118 H   0  0  0  0  0  0
  1 25  1  0  0  0
  1 30  2  0  0  0
  1 87  1  0  0  0
  2  3  1  0  0  0
  2 25  1  0  0  0
  2 88  1  0  0  0
  2 89  1  0  0  0
  3  4  1  0  0  0
  3 90  1  0  0  0
  3 91  1  0  0  0
  4  5  1  0  0  0
  4 92  1  0  0  0
  4 93  1  0  0  0
  5  6  1  0  0  0
  5 26  1  0  0  0
  5 94  1  0  0  0
  6 25  1  0  0  0
  6 95  1  0  0  0
  6 96  1  0  0  0
  7  8  2  0  0  0
  7 26  1  0  0  0
  7 29  1  0  0  0
  8  9  1  0  0  0
  8 22  1  0  0  0
  9 10  1  0  0  0
  9 27  2  0  0  0
 10 11  2  0  0  0
 10 15  1  0  0  0
 11 12  1  0  0  0
 11 97  1  0  0  0
 12 13  2  0  0  0
 12 98  1  0  0  0
 13 14  1  0  0  0
 13 31  1  0  0  0
 14 15  2  0  0  0
 14 99  1  0  0  0
 15100  1  0  0  0
 16 17  2  0  0  0
 16 21  1  0  0  0
 16 31  1  0  0  0
 17 18  1  0  0  0
 17101  1  0  0  0
 18 19  2  0  0  0
 18102  1  0  0  0
 19 20  1  0  0  0
 19 24  1  0  0  0
 20 21  2  0  0  0
 20103  1  0  0  0
 21 23  1  0  0  0
 22 28  1  0  0  0
 22 32  2  0  0  0
 26 27  1  0  0  0
 28104  1  0  0  0
 28105  1  0  0  0
 29106  1  0  0  0
 29107  1  0  0  0
 33 34  1  0  0  0
 33 66  1  0  0  0
 33 70  2  0  0  0
 34 36  1  0  0  0
 34 59  1  0  0  0
 34108  1  0  0  0
 35 44  2  0  0  0
 35 45  1  0  0  0
 35 68  1  0  0  0
 36 56  1  0  0  0
 36109  1  0  0  0
 37 39  1  0  0  0
 37 47  1  0  0  0
 37 66  1  0  0  0
 37110  1  0  0  0
 38 43  2  0  0  0
 38 46  1  0  0  0
 38 47  1  0  0  0
 39 64  1  0  0  0
 39 67  2  0  0  0
 40 52  1  0  0  0
 40 53  2  0  0  0
 40 58  1  0  0  0
 41111  1  0  0  0
 41112  1  0  0  0
 41113  1  0  0  0
 41 48  1  0  0  0
 42 43  1  0  0  0
 42 66  1  0  0  0
 42114  1  0  0  0
 42115  1  0  0  0
 43 44  1  0  0  0
 44116  1  0  0  0
 45 46  2  0  0  0
 45117  1  0  0  0
 46118  1  0  0  0
 47119  1  0  0  0
 47120  1  0  0  0
 48 56  1  0  0  0
 48 65  1  0  0  0
 48121  1  0  0  0
 49 50  1  0  0  0
 49 53  1  0  0  0
 49 64  1  0  0  0
 49122  1  0  0  0
 50 51  1  0  0  0
 50123  1  0  0  0
 50124  1  0  0  0
 51 52  1  0  0  0
 51125  1  0  0  0
 51126  1  0  0  0
 52127  1  0  0  0
 52128  1  0  0  0
 53 54  1  0  0  0
 54 55  2  0  0  0
 54129  1  0  0  0
 55 57  1  0  0  0
 55130  1  0  0  0
 56 69  2  0  0  0
 57 58  2  0  0  0
 57131  1  0  0  0
 58132  1  0  0  0
 59 60  1  0  0  0
 59 61  1  0  0  0
 59 62  1  0  0  0
 60133  1  0  0  0
 60134  1  0  0  0
 60135  1  0  0  0
 61136  1  0  0  0
 61137  1  0  0  0
 61138  1  0  0  0
 62139  1  0  0  0
 62140  1  0  0  0
 62141  1  0  0  0
 63 65  1  0  0  0
 63142  1  0  0  0
 63143  1  0  0  0
 63144  1  0  0  0
 64145  1  0  0  0
 65146  1  0  0  0
 68 86  1  0  0  0
 71 73  2  0  0  0
 71 74  1  0  0  0
 71147  1  0  0  0
 72 73  1  0  0  0
 72 76  2  0  0  0
 72148  1  0  0  0
 73 84  1  0  0  0
 74 75  2  0  0  0
 74 77  1  0  0  0
 75 76  1  0  0  0
 75 78  1  0  0  0
 76 85  1  0  0  0
 77 79  1  0  0  0
 77149  1  0  0  0
 77150  1  0  0  0
 78 79  1  0  0  0
 78151  1  0  0  0
 78152  1  0  0  0
 79153  1  0  0  0
 79154  1  0  0  0
 80 82  1  0  0  0
 80 84  1  0  0  0
 80155  1  0  0  0
 80156  1  0  0  0
 81 83  1  0  0  0
 81 84  1  0  0  0
 81157  1  0  0  0
 81158  1  0  0  0
 82 87  1  0  0  0
 82159  1  0  0  0
 82160  1  0  0  0
 83 87  1  0  0  0
 83161  1  0  0  0
 83162  1  0  0  0
 84163  1  0  0  0
 85 86  1  0  0  0
 85164  1  0  0  0
 85165  1  0  0  0
 86166  1  0  0  0
 86167  1  0  0  0
M  ISO  4   1 100  68 101  86 101  87 100
M  END
> <chiral flag>
0

> <version>
0

> <s_m_source_file>
/data/baiqing/PycharmProjects/Reinvent-master-3.2/result/LINK_invent/BTK/process_docking_weight1_custom_sum_contain_oxygen_bond_distance_aromatic_linkinvent_7_9_3/rearranged_h_0167.sdf

> <i_m_source_file_index>
11

> <r_mmod_Potential_Energy-OPLS-2005>
381.755645751953

> <r_mmod_Stretch_Energy-OPLS-2005>
89.0892639160156

> <r_mmod_Bend_Energy-OPLS-2005>
235.106369018555

> <r_mmod_Torsional_Energy-OPLS-2005>
324.255523681641

> <r_mmod_Improper_Torsional_Energy-OPLS-2005>
5.00022983551025

> <r_mmod_Van_der_Waal_Energy-OPLS-2005>
163.426208496094

> <r_mmod_Electrostatic_Energy-OPLS-2005>
-294.919708251953

> <r_mmod_Solvation_Energy-OPLS-2005>
-202.031280517578

> <b_mmod_Minimization_Converged-OPLS-2005>
0

> <r_mmod_RMS_Derivative-OPLS-2005>
6.12524700164795

$$$$
11
                    3D
 Structure written by MMmdl.
169178  0  0  1  0            999 V2000
  -30.6517  -14.6561   20.5198 C   0  0  0  0  0  0
  -30.4347  -12.4162   19.4500 C   0  0  0  0  0  0
  -29.5033  -12.5125   18.2228 C   0  0  0  0  0  0
  -28.0286  -12.3455   18.6388 C   0  0  0  0  0  0
  -27.6465  -13.2259   19.8587 C   0  0  2  0  0  0
  -28.6954  -13.1099   20.9870 C   0  0  0  0  0  0
  -25.2485  -13.8136   20.5708 C   0  0  0  0  0  0
  -24.1790  -13.0394   20.9221 C   0  0  0  0  0  0
  -24.6394  -11.6883   20.8757 C   0  0  0  0  0  0
  -23.9076  -10.4272   21.0412 C   0  0  0  0  0  0
  -24.3626   -9.4189   21.9188 C   0  0  0  0  0  0
  -23.6297   -8.2229   22.0752 C   0  0  0  0  0  0
  -22.4277   -8.0277   21.3543 C   0  0  0  0  0  0
  -21.9920   -9.0250   20.4641 C   0  0  0  0  0  0
  -22.7253  -10.2124   20.3053 C   0  0  0  0  0  0
  -21.6855   -6.0738   22.5284 C   0  0  0  0  0  0
  -21.4011   -6.5638   23.8218 C   0  0  0  0  0  0
  -21.3660   -5.6794   24.9178 C   0  0  0  0  0  0
  -21.6043   -4.3054   24.7231 C   0  0  0  0  0  0
  -21.8819   -3.8146   23.4352 C   0  0  0  0  0  0
  -21.9189   -4.6967   22.3405 C   0  0  0  0  0  0
  -22.7813  -13.5185   21.1887 C   0  0  0  0  0  0
  -22.1660   -4.2153   21.0984 F   0  0  0  0  0  0
  -21.5630   -3.4536   25.7740 F   0  0  0  0  0  0
  -30.0056  -13.4510   20.4115 N   0  0  0  0  0  0
  -26.2951  -12.9372   20.3326 N   0  0  0  0  0  0
  -25.9328  -11.6514   20.5767 N   0  0  0  0  0  0
  -22.0468  -12.8171   22.0442 N   0  0  0  0  0  0
  -25.4054  -15.1850   20.4133 N   0  0  0  0  0  0
  -31.8285  -14.7860   20.1760 O   0  0  0  0  0  0
  -21.6634   -6.8882   21.4246 O   0  0  0  0  0  0
  -22.3502  -14.5509   20.6755 O   0  0  0  0  0  0
  -24.6222  -31.8612   23.2034 C   0  0  0  0  0  0
  -25.9072  -32.4790   23.8354 C   0  0  1  0  0  0
  -27.2245  -27.3224   20.1358 C   0  0  0  0  0  0
  -25.5905  -33.8593   24.2276 N   0  0  0  0  0  0
  -23.4183  -30.4815   21.5459 C   0  0  2  0  0  0
  -24.8692  -28.9318   20.1198 C   0  0  0  0  0  0
  -22.7470  -29.4617   22.4953 C   0  0  0  0  0  0
  -18.0293  -28.1351   22.8488 C   0  0  0  0  0  0
  -24.1497  -36.7319   23.2641 C   0  0  0  0  0  0
  -25.9593  -30.7832   21.3870 C   0  0  0  0  0  0
  -26.0327  -29.4060   20.7433 C   0  0  0  0  0  0
  -27.2141  -28.6070   20.7554 C   0  0  0  0  0  0
  -26.0603  -26.9175   19.4543 C   0  0  0  0  0  0
  -24.8820  -27.6871   19.4703 C   0  0  0  0  0  0
  -23.6364  -29.8127   20.1639 C   0  0  0  0  0  0
  -25.4119  -36.3099   24.0327 C   0  0  1  0  0  0
  -20.5890  -28.3668   23.1289 C   0  0  2  0  0  0
  -20.6781  -26.9397   22.5403 C   0  0  0  0  0  0
  -19.5754  -26.6364   21.5210 C   0  0  0  0  0  0
  -18.1931  -26.7903   22.1619 C   0  0  0  0  0  0
  -19.1543  -28.8829   23.2884 C   0  0  0  0  0  0
  -18.9457  -30.1430   23.8903 C   0  0  0  0  0  0
  -17.6456  -30.6565   24.0552 C   0  0  0  0  0  0
  -25.9044  -34.9468   23.5103 C   0  0  0  0  0  0
  -16.5353  -29.9060   23.6324 C   0  0  0  0  0  0
  -16.7277  -28.6473   23.0351 C   0  0  0  0  0  0
  -26.4459  -31.6590   25.0717 C   0  0  0  0  0  0
  -25.3688  -31.3691   26.1437 C   0  0  0  0  0  0
  -27.0315  -30.3020   24.6168 C   0  0  0  0  0  0
  -27.6036  -32.4335   25.7453 C   0  0  0  0  0  0
  -27.5590  -37.1801   24.8463 C   0  0  0  0  0  0
  -21.4183  -29.3032   22.3694 N   0  0  0  0  0  0
  -26.4309  -37.3783   23.9395 N   0  0  0  0  0  0
  -24.6839  -31.0604   22.1007 N   0  0  0  0  0  0
  -23.4196  -28.8167   23.3030 O   0  0  0  0  0  0
  -28.3436  -26.4977   20.0222 O   0  0  0  0  0  0
  -26.5633  -34.8932   22.4683 O   0  0  0  0  0  0
  -23.5382  -32.1437   23.7343 O   0  0  0  0  0  0
  -29.2135  -20.8445   20.3803 C   0  0  0  0  0  0
  -26.7542  -19.8049   19.5819 C   0  0  0  0  0  0
  -28.1276  -21.7743   20.1476 C   0  0  0  0  0  0
  -29.0851  -19.4079   20.1942 C   0  0  0  0  0  0
  -26.8861  -21.1951   19.7492 C   0  0  0  0  0  0
  -27.8304  -18.9239   19.7626 C   0  0  0  0  0  0
  -29.4683  -24.2600   20.2822 C   0  0  0  0  0  0
  -28.2080  -23.3608   20.2210 C   0  0  2  0  0  0
  -28.6432  -25.4004   20.9620 C   0  0  2  0  0  0
  -27.6821  -24.2344   21.4153 C   0  0  0  0  0  0
  -25.6351  -22.0129   19.4546 C   0  0  0  0  0  0
  -27.6084  -17.4629   19.4251 C   0  0  0  0  0  0
  -26.1822  -24.5336   21.5021 C   0  0  0  0  0  0
  -28.0292  -23.6707   22.8041 C   0  0  0  0  0  0
  -30.2869  -18.3940   20.2833 C   0  0  0  0  0  0
  -30.2907  -17.1414   21.2858 C   0  0  0  0  0  0
  -29.8917  -15.7423   20.8688 N   0  0  0  0  0  0
  -31.4745  -12.5439   19.1445 H   0  0  0  0  0  0
  -30.3743  -11.4272   19.9075 H   0  0  0  0  0  0
  -29.7721  -11.7553   17.4849 H   0  0  0  0  0  0
  -29.6371  -13.4782   17.7325 H   0  0  0  0  0  0
  -27.8732  -11.2933   18.8810 H   0  0  0  0  0  0
  -27.3707  -12.5620   17.7966 H   0  0  0  0  0  0
  -27.6540  -14.2568   19.5046 H   0  0  0  0  0  0
  -28.7138  -12.0978   21.3933 H   0  0  0  0  0  0
  -28.4398  -13.7638   21.8226 H   0  0  0  0  0  0
  -25.2774   -9.5664   22.4764 H   0  0  0  0  0  0
  -24.0007   -7.4616   22.7466 H   0  0  0  0  0  0
  -21.0857   -8.8777   19.8943 H   0  0  0  0  0  0
  -22.3725  -10.9669   19.6165 H   0  0  0  0  0  0
  -21.2003   -7.6145   23.9727 H   0  0  0  0  0  0
  -21.1482   -6.0517   25.9085 H   0  0  0  0  0  0
  -22.0595   -2.7608   23.2849 H   0  0  0  0  0  0
  -22.4094  -11.9819   22.4801 H   0  0  0  0  0  0
  -21.1089  -13.1187   22.2680 H   0  0  0  0  0  0
  -24.6252  -15.8237   20.5175 H   0  0  0  0  0  0
  -26.2398  -15.6303   20.0608 H   0  0  0  0  0  0
  -26.7136  -32.5474   23.1096 H   0  0  0  0  0  0
  -25.0049  -33.9744   25.0411 H   0  0  0  0  0  0
  -22.7118  -31.3015   21.3993 H   0  0  0  0  0  0
  -23.3752  -35.9662   23.3316 H   0  0  0  0  0  0
  -24.3588  -36.8933   22.2056 H   0  0  0  0  0  0
  -23.7263  -37.6525   23.6665 H   0  0  0  0  0  0
  -26.1002  -31.5391   20.6131 H   0  0  0  0  0  0
  -26.8362  -30.8322   22.0201 H   0  0  0  0  0  0
  -28.1125  -28.9680   21.2382 H   0  0  0  0  0  0
  -26.0680  -25.9870   18.9046 H   0  0  0  0  0  0
  -24.0006  -27.3263   18.9576 H   0  0  0  0  0  0
  -23.7559  -30.5874   19.4066 H   0  0  0  0  0  0
  -22.7557  -29.2418   19.8627 H   0  0  0  0  0  0
  -25.1289  -36.1970   25.0820 H   0  0  0  0  0  0
  -20.9969  -28.3246   24.1409 H   0  0  0  0  0  0
  -20.5691  -26.2279   23.3602 H   0  0  0  0  0  0
  -21.6651  -26.7435   22.1186 H   0  0  0  0  0  0
  -19.6933  -25.6275   21.1240 H   0  0  0  0  0  0
  -19.6689  -27.3172   20.6744 H   0  0  0  0  0  0
  -17.4204  -26.6662   21.4014 H   0  0  0  0  0  0
  -18.0321  -26.0027   22.8997 H   0  0  0  0  0  0
  -19.7933  -30.7229   24.2285 H   0  0  0  0  0  0
  -17.5013  -31.6252   24.5139 H   0  0  0  0  0  0
  -15.5343  -30.2950   23.7640 H   0  0  0  0  0  0
  -15.8682  -28.0780   22.7059 H   0  0  0  0  0  0
  -24.5900  -30.7004   25.7743 H   0  0  0  0  0  0
  -24.8810  -32.2825   26.4856 H   0  0  0  0  0  0
  -25.8001  -30.8876   27.0223 H   0  0  0  0  0  0
  -26.2878  -29.6738   24.1251 H   0  0  0  0  0  0
  -27.4087  -29.7303   25.4655 H   0  0  0  0  0  0
  -27.8721  -30.4303   23.9345 H   0  0  0  0  0  0
  -27.2677  -33.3668   26.1981 H   0  0  0  0  0  0
  -28.3827  -32.6841   25.0241 H   0  0  0  0  0  0
  -28.0724  -31.8496   26.5378 H   0  0  0  0  0  0
  -28.2594  -38.0107   24.7520 H   0  0  0  0  0  0
  -28.1090  -36.2638   24.6275 H   0  0  0  0  0  0
  -27.2311  -37.1441   25.8865 H   0  0  0  0  0  0
  -20.9368  -29.8790   21.6929 H   0  0  0  0  0  0
  -26.0205  -38.2874   24.1358 H   0  0  0  0  0  0
  -30.1758  -21.2484   20.6622 H   0  0  0  0  0  0
  -25.8029  -19.4013   19.2630 H   0  0  0  0  0  0
  -29.8886  -24.5119   19.3087 H   0  0  0  0  0  0
  -30.2430  -23.8620   20.9386 H   0  0  0  0  0  0
  -27.7241  -23.7036   19.3074 H   0  0  0  0  0  0
  -29.1772  -25.8251   21.8133 H   0  0  0  0  0  0
  -24.9138  -21.4308   18.8807 H   0  0  0  0  0  0
  -25.8283  -22.9056   18.8628 H   0  0  0  0  0  0
  -25.1382  -22.2894   20.3817 H   0  0  0  0  0  0
  -26.6712  -17.3162   18.8873 H   0  0  0  0  0  0
  -27.5656  -16.8781   20.3408 H   0  0  0  0  0  0
  -28.4041  -17.0790   18.7865 H   0  0  0  0  0  0
  -25.7134  -24.5675   20.5247 H   0  0  0  0  0  0
  -25.9892  -25.4868   21.9948 H   0  0  0  0  0  0
  -25.6432  -23.7722   22.0680 H   0  0  0  0  0  0
  -29.0955  -23.4728   22.9145 H   0  0  0  0  0  0
  -27.5148  -22.7292   22.9975 H   0  0  0  0  0  0
  -27.7588  -24.3657   23.6005 H   0  0  0  0  0  0
  -31.1452  -19.0076   20.5602 H   0  0  0  0  0  0
  -30.5232  -18.0507   19.2767 H   0  0  0  0  0  0
  -29.7245  -17.4067   22.1785 H   0  0  0  0  0  0
  -31.3182  -17.0422   21.6407 H   0  0  0  0  0  0
  -28.9265  -15.5117   21.0491 H   0  0  0  0  0  0
  1 25  1  0  0  0
  1 30  2  0  0  0
  1 87  1  0  0  0
  2  3  1  0  0  0
  2 25  1  0  0  0
  2 88  1  0  0  0
  2 89  1  0  0  0
  3  4  1  0  0  0
  3 90  1  0  0  0
  3 91  1  0  0  0
  4  5  1  0  0  0
  4 92  1  0  0  0
  4 93  1  0  0  0
  5  6  1  0  0  0
  5 26  1  0  0  0
  5 94  1  0  0  0
  6 25  1  0  0  0
  6 95  1  0  0  0
  6 96  1  0  0  0
  7  8  2  0  0  0
  7 26  1  0  0  0
  7 29  1  0  0  0
  8  9  1  0  0  0
  8 22  1  0  0  0
  9 10  1  0  0  0
  9 27  2  0  0  0
 10 11  2  0  0  0
 10 15  1  0  0  0
 11 12  1  0  0  0
 11 97  1  0  0  0
 12 13  2  0  0  0
 12 98  1  0  0  0
 13 14  1  0  0  0
 13 31  1  0  0  0
 14 15  2  0  0  0
 14 99  1  0  0  0
 15100  1  0  0  0
 16 17  2  0  0  0
 16 21  1  0  0  0
 16 31  1  0  0  0
 17 18  1  0  0  0
 17101  1  0  0  0
 18 19  2  0  0  0
 18102  1  0  0  0
 19 20  1  0  0  0
 19 24  1  0  0  0
 20 21  2  0  0  0
 20103  1  0  0  0
 21 23  1  0  0  0
 22 28  1  0  0  0
 22 32  2  0  0  0
 26 27  1  0  0  0
 28104  1  0  0  0
 28105  1  0  0  0
 29106  1  0  0  0
 29107  1  0  0  0
 33 34  1  0  0  0
 33 66  1  0  0  0
 33 70  2  0  0  0
 34 36  1  0  0  0
 34 59  1  0  0  0
 34108  1  0  0  0
 35 44  2  0  0  0
 35 45  1  0  0  0
 35 68  1  0  0  0
 36 56  1  0  0  0
 36109  1  0  0  0
 37 39  1  0  0  0
 37 47  1  0  0  0
 37 66  1  0  0  0
 37110  1  0  0  0
 38 43  2  0  0  0
 38 46  1  0  0  0
 38 47  1  0  0  0
 39 64  1  0  0  0
 39 67  2  0  0  0
 40 52  1  0  0  0
 40 53  2  0  0  0
 40 58  1  0  0  0
 41111  1  0  0  0
 41112  1  0  0  0
 41113  1  0  0  0
 41 48  1  0  0  0
 42 43  1  0  0  0
 42 66  1  0  0  0
 42114  1  0  0  0
 42115  1  0  0  0
 43 44  1  0  0  0
 44116  1  0  0  0
 45 46  2  0  0  0
 45117  1  0  0  0
 46118  1  0  0  0
 47119  1  0  0  0
 47120  1  0  0  0
 48 56  1  0  0  0
 48 65  1  0  0  0
 48121  1  0  0  0
 49 50  1  0  0  0
 49 53  1  0  0  0
 49 64  1  0  0  0
 49122  1  0  0  0
 50 51  1  0  0  0
 50123  1  0  0  0
 50124  1  0  0  0
 51 52  1  0  0  0
 51125  1  0  0  0
 51126  1  0  0  0
 52127  1  0  0  0
 52128  1  0  0  0
 53 54  1  0  0  0
 54 55  2  0  0  0
 54129  1  0  0  0
 55 57  1  0  0  0
 55130  1  0  0  0
 56 69  2  0  0  0
 57 58  2  0  0  0
 57131  1  0  0  0
 58132  1  0  0  0
 59 60  1  0  0  0
 59 61  1  0  0  0
 59 62  1  0  0  0
 60133  1  0  0  0
 60134  1  0  0  0
 60135  1  0  0  0
 61136  1  0  0  0
 61137  1  0  0  0
 61138  1  0  0  0
 62139  1  0  0  0
 62140  1  0  0  0
 62141  1  0  0  0
 63 65  1  0  0  0
 63142  1  0  0  0
 63143  1  0  0  0
 63144  1  0  0  0
 64145  1  0  0  0
 65146  1  0  0  0
 68 79  1  0  0  0
 71 73  2  0  0  0
 71 74  1  0  0  0
 71147  1  0  0  0
 72 75  2  0  0  0
 72 76  1  0  0  0
 72148  1  0  0  0
 73 75  1  0  0  0
 73 78  1  0  0  0
 74 76  2  0  0  0
 74 85  1  0  0  0
 75 81  1  0  0  0
 76 82  1  0  0  0
 77 78  1  0  0  0
 77 79  1  0  0  0
 77149  1  0  0  0
 77150  1  0  0  0
 78 80  1  0  0  0
 78151  1  0  0  0
 79 80  1  0  0  0
 79152  1  0  0  0
 80 83  1  0  0  0
 80 84  1  0  0  0
 81153  1  0  0  0
 81154  1  0  0  0
 81155  1  0  0  0
 82156  1  0  0  0
 82157  1  0  0  0
 82158  1  0  0  0
 83159  1  0  0  0
 83160  1  0  0  0
 83161  1  0  0  0
 84162  1  0  0  0
 84163  1  0  0  0
 84164  1  0  0  0
 85 86  1  0  0  0
 85165  1  0  0  0
 85166  1  0  0  0
 86 87  1  0  0  0
 86167  1  0  0  0
 86168  1  0  0  0
 87169  1  0  0  0
M  ISO  4   1 100  68 101  79 101  87 100
M  END
> <chiral flag>
0

> <version>
0

> <s_m_source_file>
/data/baiqing/PycharmProjects/Reinvent-master-3.2/result/LINK_invent/BTK/process_docking_weight1_custom_sum_contain_oxygen_bond_distance_aromatic_linkinvent_7_9_3/rearranged_h_0167.sdf

> <i_m_source_file_index>
12

> <r_mmod_Potential_Energy-OPLS-2005>
141.51887512207

> <r_mmod_Stretch_Energy-OPLS-2005>
89.1497344970703

> <r_mmod_Bend_Energy-OPLS-2005>
207.041564941406

> <r_mmod_Torsional_Energy-OPLS-2005>
267.540466308594

> <r_mmod_Improper_Torsional_Energy-OPLS-2005>
5.19947004318237

> <r_mmod_Van_der_Waal_Energy-OPLS-2005>
139.459075927734

> <r_mmod_Electrostatic_Energy-OPLS-2005>
-416.725555419922

> <r_mmod_Solvation_Energy-OPLS-2005>
-199.421234130859

> <b_mmod_Minimization_Converged-OPLS-2005>
0

> <r_mmod_RMS_Derivative-OPLS-2005>
1.815260887146

$$$$
12
                    3D
 Structure written by MMmdl.
173183  0  0  1  0            999 V2000
  -30.6355  -14.7019   20.4018 C   0  0  0  0  0  0
  -30.4193  -12.4172   19.4556 C   0  0  0  0  0  0
  -29.5007  -12.4726   18.2181 C   0  0  0  0  0  0
  -28.0227  -12.3228   18.6324 C   0  0  0  0  0  0
  -27.6302  -13.2364   19.8265 C   0  0  2  0  0  0
  -28.6765  -13.1930   20.9591 C   0  0  0  0  0  0
  -25.2497  -13.8221   20.5676 C   0  0  0  0  0  0
  -24.1784  -13.0466   20.9224 C   0  0  0  0  0  0
  -24.6368  -11.6939   20.8754 C   0  0  0  0  0  0
  -23.9052  -10.4307   21.0414 C   0  0  0  0  0  0
  -24.3607   -9.4208   21.9181 C   0  0  0  0  0  0
  -23.6286   -8.2237   22.0736 C   0  0  0  0  0  0
  -22.4268   -8.0271   21.3540 C   0  0  0  0  0  0
  -21.9908   -9.0246   20.4643 C   0  0  0  0  0  0
  -22.7237  -10.2121   20.3055 C   0  0  0  0  0  0
  -21.6835   -6.0751   22.5297 C   0  0  0  0  0  0
  -21.4008   -6.5651   23.8246 C   0  0  0  0  0  0
  -21.3652   -5.6798   24.9197 C   0  0  0  0  0  0
  -21.6043   -4.3063   24.7228 C   0  0  0  0  0  0
  -21.8800   -3.8157   23.4346 C   0  0  0  0  0  0
  -21.9189   -4.6985   22.3413 C   0  0  0  0  0  0
  -22.7807  -13.5254   21.1947 C   0  0  0  0  0  0
  -22.1680   -4.2196   21.0991 F   0  0  0  0  0  0
  -21.5602   -3.4535   25.7724 F   0  0  0  0  0  0
  -29.9783  -13.4991   20.3576 N   0  0  0  0  0  0
  -26.2879  -12.9413   20.3178 N   0  0  0  0  0  0
  -25.9294  -11.6552   20.5697 N   0  0  0  0  0  0
  -22.0441  -12.8228   22.0485 N   0  0  0  0  0  0
  -25.4175  -15.1920   20.4071 N   0  0  0  0  0  0
  -31.8592  -14.7317   20.2510 O   0  0  0  0  0  0
  -21.6624   -6.8872   21.4242 O   0  0  0  0  0  0
  -22.3475  -14.5573   20.6784 O   0  0  0  0  0  0
  -24.6327  -31.8598   23.1976 C   0  0  0  0  0  0
  -25.9191  -32.4760   23.8289 C   0  0  1  0  0  0
  -27.2083  -27.2805   20.1080 C   0  0  0  0  0  0
  -25.5980  -33.8545   24.2217 N   0  0  0  0  0  0
  -23.4240  -30.4890   21.5398 C   0  0  2  0  0  0
  -24.8682  -28.9485   20.0966 C   0  0  0  0  0  0
  -22.7490  -29.4666   22.4862 C   0  0  0  0  0  0
  -18.0316  -28.1405   22.8529 C   0  0  0  0  0  0
  -24.1489  -36.7313   23.2633 C   0  0  0  0  0  0
  -25.9709  -30.7784   21.3768 C   0  0  0  0  0  0
  -26.0400  -29.4040   20.7126 C   0  0  0  0  0  0
  -27.2104  -28.5811   20.7177 C   0  0  0  0  0  0
  -26.0229  -26.9124   19.4295 C   0  0  0  0  0  0
  -24.8636  -27.7056   19.4492 C   0  0  0  0  0  0
  -23.6371  -29.8320   20.1535 C   0  0  0  0  0  0
  -25.4115  -36.3049   24.0297 C   0  0  1  0  0  0
  -20.5929  -28.3712   23.1292 C   0  0  2  0  0  0
  -20.6820  -26.9410   22.5446 C   0  0  0  0  0  0
  -19.5765  -26.6383   21.5276 C   0  0  0  0  0  0
  -18.1936  -26.7955   22.1664 C   0  0  0  0  0  0
  -19.1571  -28.8868   23.2918 C   0  0  0  0  0  0
  -18.9487  -30.1486   23.8906 C   0  0  0  0  0  0
  -17.6474  -30.6608   24.0584 C   0  0  0  0  0  0
  -25.9059  -34.9429   23.5048 C   0  0  0  0  0  0
  -16.5368  -29.9098   23.6361 C   0  0  0  0  0  0
  -16.7300  -28.6531   23.0362 C   0  0  0  0  0  0
  -26.4501  -31.6591   25.0693 C   0  0  0  0  0  0
  -25.3694  -31.3838   26.1395 C   0  0  0  0  0  0
  -27.0356  -30.2981   24.6262 C   0  0  0  0  0  0
  -27.6000  -32.4360   25.7508 C   0  0  0  0  0  0
  -27.5561  -37.1804   24.8440 C   0  0  0  0  0  0
  -21.4190  -29.3050   22.3613 N   0  0  0  0  0  0
  -26.4280  -37.3753   23.9378 N   0  0  0  0  0  0
  -24.6939  -31.0630   22.0916 N   0  0  0  0  0  0
  -23.4221  -28.8223   23.2940 O   0  0  0  0  0  0
  -28.2857  -26.3682   20.1910 O   0  0  0  0  0  0
  -26.5616  -34.8916   22.4604 O   0  0  0  0  0  0
  -23.5504  -32.1383   23.7332 O   0  0  0  0  0  0
  -27.5044  -19.4827   20.8172 C   0  0  0  0  0  0
  -28.8569  -19.6793   20.5101 C   0  0  0  0  0  0
  -27.0846  -21.8890   21.2122 C   0  0  0  0  0  0
  -26.6336  -20.5311   21.1666 C   0  0  0  0  0  0
  -29.2932  -21.0689   20.4506 C   0  0  0  0  0  0
  -28.4058  -22.2017   20.7301 C   0  0  0  0  0  0
  -24.9424  -22.9815   22.5876 C   0  0  0  0  0  0
  -24.9526  -23.4801   21.1637 C   0  0  0  0  0  0
  -29.4502  -16.9722   20.9108 C   0  0  0  0  0  0
  -30.1678  -16.4380   18.7213 C   0  0  0  0  0  0
  -29.7205  -18.3685   20.1857 C   0  0  2  0  0  0
  -26.2448  -23.0230   21.8089 C   0  0  0  0  0  0
  -29.7335  -17.9291   18.7127 C   0  0  2  0  0  0
  -25.2135  -20.0890   21.4962 C   0  0  0  0  0  0
  -30.7487  -21.3545   20.1030 C   0  0  0  0  0  0
  -28.3983  -18.1361   17.9696 C   0  0  0  0  0  0
  -28.8881  -23.7447   20.6529 C   0  0  0  0  0  0
  -28.0266  -24.9094   19.9370 C   0  0  0  0  0  0
  -29.9012  -15.8282   20.0427 N   0  0  0  0  0  0
  -31.4629  -12.5239   19.1503 H   0  0  0  0  0  0
  -30.3495  -11.4511   19.9570 H   0  0  0  0  0  0
  -29.7727  -11.6826   17.5165 H   0  0  0  0  0  0
  -29.6489  -13.4118   17.6851 H   0  0  0  0  0  0
  -27.8640  -11.2763   18.9030 H   0  0  0  0  0  0
  -27.3720  -12.5106   17.7771 H   0  0  0  0  0  0
  -27.6125  -14.2532   19.4291 H   0  0  0  0  0  0
  -28.6926  -12.2157   21.4438 H   0  0  0  0  0  0
  -28.4261  -13.9259   21.7282 H   0  0  0  0  0  0
  -25.2736   -9.5697   22.4771 H   0  0  0  0  0  0
  -24.0009   -7.4605   22.7411 H   0  0  0  0  0  0
  -21.0850   -8.8743   19.8946 H   0  0  0  0  0  0
  -22.3680  -10.9635   19.6159 H   0  0  0  0  0  0
  -21.2006   -7.6173   23.9783 H   0  0  0  0  0  0
  -21.1485   -6.0521   25.9119 H   0  0  0  0  0  0
  -22.0575   -2.7619   23.2841 H   0  0  0  0  0  0
  -22.4030  -11.9890   22.4907 H   0  0  0  0  0  0
  -21.1021  -13.1179   22.2614 H   0  0  0  0  0  0
  -24.6515  -15.8445   20.5255 H   0  0  0  0  0  0
  -26.2714  -15.6305   20.0857 H   0  0  0  0  0  0
  -26.7262  -32.5436   23.1025 H   0  0  0  0  0  0
  -25.0081  -33.9650   25.0331 H   0  0  0  0  0  0
  -22.7164  -31.3080   21.4018 H   0  0  0  0  0  0
  -23.3716  -35.9682   23.3297 H   0  0  0  0  0  0
  -24.3570  -36.8946   22.2043 H   0  0  0  0  0  0
  -23.7286  -37.6531   23.6677 H   0  0  0  0  0  0
  -26.1213  -31.5475   20.6177 H   0  0  0  0  0  0
  -26.8445  -30.8176   22.0146 H   0  0  0  0  0  0
  -28.0975  -28.9244   21.2306 H   0  0  0  0  0  0
  -25.9527  -25.9825   18.8846 H   0  0  0  0  0  0
  -23.9661  -27.3526   18.9582 H   0  0  0  0  0  0
  -23.7424  -30.6086   19.3934 H   0  0  0  0  0  0
  -22.7558  -29.2564   19.8692 H   0  0  0  0  0  0
  -25.1304  -36.1849   25.0788 H   0  0  0  0  0  0
  -21.0072  -28.3332   24.1397 H   0  0  0  0  0  0
  -20.5831  -26.2277   23.3648 H   0  0  0  0  0  0
  -21.6665  -26.7471   22.1151 H   0  0  0  0  0  0
  -19.6911  -25.6302   21.1278 H   0  0  0  0  0  0
  -19.6716  -27.3223   20.6834 H   0  0  0  0  0  0
  -17.4210  -26.6752   21.4053 H   0  0  0  0  0  0
  -18.0270  -26.0105   22.9052 H   0  0  0  0  0  0
  -19.7945  -30.7342   24.2244 H   0  0  0  0  0  0
  -17.5008  -31.6295   24.5165 H   0  0  0  0  0  0
  -15.5360  -30.2975   23.7700 H   0  0  0  0  0  0
  -15.8711  -28.0861   22.7033 H   0  0  0  0  0  0
  -24.5817  -30.7236   25.7733 H   0  0  0  0  0  0
  -24.8975  -32.3092   26.4735 H   0  0  0  0  0  0
  -25.7988  -30.9046   27.0202 H   0  0  0  0  0  0
  -26.2992  -29.6694   24.1246 H   0  0  0  0  0  0
  -27.3923  -29.7282   25.4847 H   0  0  0  0  0  0
  -27.8899  -30.4175   23.9595 H   0  0  0  0  0  0
  -27.2520  -33.3628   26.2080 H   0  0  0  0  0  0
  -28.3848  -32.6987   25.0403 H   0  0  0  0  0  0
  -28.0619  -31.8499   26.5455 H   0  0  0  0  0  0
  -28.2564  -38.0107   24.7457 H   0  0  0  0  0  0
  -28.1076  -36.2638   24.6304 H   0  0  0  0  0  0
  -27.2288  -37.1478   25.8845 H   0  0  0  0  0  0
  -20.9331  -29.8711   21.6787 H   0  0  0  0  0  0
  -26.0150  -38.2824   24.1377 H   0  0  0  0  0  0
  -27.1101  -18.4789   20.7940 H   0  0  0  0  0  0
  -24.3821  -22.0796   22.7902 H   0  0  0  0  0  0
  -24.8263  -23.7458   23.3531 H   0  0  0  0  0  0
  -24.7959  -24.5474   21.0156 H   0  0  0  0  0  0
  -24.5167  -22.8410   20.4003 H   0  0  0  0  0  0
  -29.9238  -16.9461   21.8940 H   0  0  0  0  0  0
  -28.3886  -16.8096   21.0835 H   0  0  0  0  0  0
  -29.6662  -15.8701   17.9330 H   0  0  0  0  0  0
  -31.2336  -16.3914   18.4864 H   0  0  0  0  0  0
  -30.7505  -18.5811   20.4532 H   0  0  0  0  0  0
  -26.9066  -23.7598   22.2544 H   0  0  0  0  0  0
  -30.4796  -18.5224   18.1792 H   0  0  0  0  0  0
  -24.9985  -19.0925   21.1076 H   0  0  0  0  0  0
  -24.4680  -20.7381   21.0441 H   0  0  0  0  0  0
  -25.0640  -20.0461   22.5746 H   0  0  0  0  0  0
  -31.1286  -22.1848   20.6973 H   0  0  0  0  0  0
  -31.4285  -20.5319   20.3180 H   0  0  0  0  0  0
  -30.8472  -21.5902   19.0434 H   0  0  0  0  0  0
  -28.4773  -17.8223   16.9287 H   0  0  0  0  0  0
  -28.1120  -19.1879   17.9605 H   0  0  0  0  0  0
  -27.5862  -17.5698   18.4254 H   0  0  0  0  0  0
  -29.8619  -23.8058   20.1733 H   0  0  0  0  0  0
  -29.0730  -24.0614   21.6803 H   0  0  0  0  0  0
  -26.9967  -24.7226   20.1898 H   0  0  0  0  0  0
  -28.0730  -24.7523   18.8578 H   0  0  0  0  0  0
  1 25  1  0  0  0
  1 30  2  0  0  0
  1 89  1  0  0  0
  2  3  1  0  0  0
  2 25  1  0  0  0
  2 90  1  0  0  0
  2 91  1  0  0  0
  3  4  1  0  0  0
  3 92  1  0  0  0
  3 93  1  0  0  0
  4  5  1  0  0  0
  4 94  1  0  0  0
  4 95  1  0  0  0
  5  6  1  0  0  0
  5 26  1  0  0  0
  5 96  1  0  0  0
  6 25  1  0  0  0
  6 97  1  0  0  0
  6 98  1  0  0  0
  7  8  2  0  0  0
  7 26  1  0  0  0
  7 29  1  0  0  0
  8  9  1  0  0  0
  8 22  1  0  0  0
  9 10  1  0  0  0
  9 27  2  0  0  0
 10 11  2  0  0  0
 10 15  1  0  0  0
 11 12  1  0  0  0
 11 99  1  0  0  0
 12 13  2  0  0  0
 12100  1  0  0  0
 13 14  1  0  0  0
 13 31  1  0  0  0
 14 15  2  0  0  0
 14101  1  0  0  0
 15102  1  0  0  0
 16 17  2  0  0  0
 16 21  1  0  0  0
 16 31  1  0  0  0
 17 18  1  0  0  0
 17103  1  0  0  0
 18 19  2  0  0  0
 18104  1  0  0  0
 19 20  1  0  0  0
 19 24  1  0  0  0
 20 21  2  0  0  0
 20105  1  0  0  0
 21 23  1  0  0  0
 22 28  1  0  0  0
 22 32  2  0  0  0
 26 27  1  0  0  0
 28106  1  0  0  0
 28107  1  0  0  0
 29108  1  0  0  0
 29109  1  0  0  0
 33 34  1  0  0  0
 33 66  1  0  0  0
 33 70  2  0  0  0
 34 36  1  0  0  0
 34 59  1  0  0  0
 34110  1  0  0  0
 35 44  2  0  0  0
 35 45  1  0  0  0
 35 68  1  0  0  0
 36 56  1  0  0  0
 36111  1  0  0  0
 37 39  1  0  0  0
 37 47  1  0  0  0
 37 66  1  0  0  0
 37112  1  0  0  0
 38 43  2  0  0  0
 38 46  1  0  0  0
 38 47  1  0  0  0
 39 64  1  0  0  0
 39 67  2  0  0  0
 40 52  1  0  0  0
 40 53  2  0  0  0
 40 58  1  0  0  0
 41113  1  0  0  0
 41114  1  0  0  0
 41115  1  0  0  0
 41 48  1  0  0  0
 42 43  1  0  0  0
 42 66  1  0  0  0
 42116  1  0  0  0
 42117  1  0  0  0
 43 44  1  0  0  0
 44118  1  0  0  0
 45 46  2  0  0  0
 45119  1  0  0  0
 46120  1  0  0  0
 47121  1  0  0  0
 47122  1  0  0  0
 48 56  1  0  0  0
 48 65  1  0  0  0
 48123  1  0  0  0
 49 50  1  0  0  0
 49 53  1  0  0  0
 49 64  1  0  0  0
 49124  1  0  0  0
 50 51  1  0  0  0
 50125  1  0  0  0
 50126  1  0  0  0
 51 52  1  0  0  0
 51127  1  0  0  0
 51128  1  0  0  0
 52129  1  0  0  0
 52130  1  0  0  0
 53 54  1  0  0  0
 54 55  2  0  0  0
 54131  1  0  0  0
 55 57  1  0  0  0
 55132  1  0  0  0
 56 69  2  0  0  0
 57 58  2  0  0  0
 57133  1  0  0  0
 58134  1  0  0  0
 59 60  1  0  0  0
 59 61  1  0  0  0
 59 62  1  0  0  0
 60135  1  0  0  0
 60136  1  0  0  0
 60137  1  0  0  0
 61138  1  0  0  0
 61139  1  0  0  0
 61140  1  0  0  0
 62141  1  0  0  0
 62142  1  0  0  0
 62143  1  0  0  0
 63 65  1  0  0  0
 63144  1  0  0  0
 63145  1  0  0  0
 63146  1  0  0  0
 64147  1  0  0  0
 65148  1  0  0  0
 68 88  1  0  0  0
 71 72  2  0  0  0
 71 74  1  0  0  0
 71149  1  0  0  0
 72 75  1  0  0  0
 72 81  1  0  0  0
 73 74  2  0  0  0
 73 76  1  0  0  0
 73 82  1  0  0  0
 74 84  1  0  0  0
 75 76  2  0  0  0
 75 85  1  0  0  0
 76 87  1  0  0  0
 77 78  1  0  0  0
 77 82  1  0  0  0
 77150  1  0  0  0
 77151  1  0  0  0
 78 82  1  0  0  0
 78152  1  0  0  0
 78153  1  0  0  0
 79 81  1  0  0  0
 79 89  1  0  0  0
 79154  1  0  0  0
 79155  1  0  0  0
 80 83  1  0  0  0
 80 89  1  0  0  0
 80156  1  0  0  0
 80157  1  0  0  0
 81 83  1  0  0  0
 81158  1  0  0  0
 82159  1  0  0  0
 83 86  1  0  0  0
 83160  1  0  0  0
 84161  1  0  0  0
 84162  1  0  0  0
 84163  1  0  0  0
 85164  1  0  0  0
 85165  1  0  0  0
 85166  1  0  0  0
 86167  1  0  0  0
 86168  1  0  0  0
 86169  1  0  0  0
 87 88  1  0  0  0
 87170  1  0  0  0
 87171  1  0  0  0
 88172  1  0  0  0
 88173  1  0  0  0
M  ISO  4   1 100  68 101  88 101  89 100
M  END
> <chiral flag>
0

> <version>
0

> <s_m_source_file>
/data/baiqing/PycharmProjects/Reinvent-master-3.2/result/LINK_invent/BTK/process_docking_weight1_custom_sum_contain_oxygen_bond_distance_aromatic_linkinvent_7_9_3/rearranged_h_0167.sdf

> <i_m_source_file_index>
13

> <r_mmod_Potential_Energy-OPLS-2005>
464.032196044922

> <r_mmod_Stretch_Energy-OPLS-2005>
129.319030761719

> <r_mmod_Bend_Energy-OPLS-2005>
200.948913574219

> <r_mmod_Torsional_Energy-OPLS-2005>
393.178741455078

> <r_mmod_Improper_Torsional_Energy-OPLS-2005>
22.7676792144775

> <r_mmod_Van_der_Waal_Energy-OPLS-2005>
158.520065307617

> <r_mmod_Electrostatic_Energy-OPLS-2005>
-338.222290039062

> <r_mmod_Solvation_Energy-OPLS-2005>
-187.147018432617

> <b_mmod_Minimization_Converged-OPLS-2005>
0

> <r_mmod_RMS_Derivative-OPLS-2005>
4.68147611618042

$$$$
13
                    3D
 Structure written by MMmdl.
191202  0  0  1  0            999 V2000
  -30.7995  -14.5435   20.3261 C   0  0  0  0  0  0
  -30.4188  -12.3036   19.4299 C   0  0  0  0  0  0
  -29.4884  -12.3351   18.2034 C   0  0  0  0  0  0
  -28.0009  -12.3077   18.6311 C   0  0  0  0  0  0
  -27.6425  -13.2028   19.8583 C   0  0  2  0  0  0
  -28.7364  -13.1572   20.9512 C   0  0  0  0  0  0
  -25.2580  -13.8116   20.5861 C   0  0  0  0  0  0
  -24.1817  -13.0403   20.9231 C   0  0  0  0  0  0
  -24.6366  -11.6876   20.8846 C   0  0  0  0  0  0
  -23.9034  -10.4285   21.0472 C   0  0  0  0  0  0
  -24.3562   -9.4207   21.9257 C   0  0  0  0  0  0
  -23.6228   -8.2247   22.0811 C   0  0  0  0  0  0
  -22.4236   -8.0285   21.3575 C   0  0  0  0  0  0
  -21.9905   -9.0282   20.4691 C   0  0  0  0  0  0
  -22.7234  -10.2145   20.3129 C   0  0  0  0  0  0
  -21.6820   -6.0746   22.5270 C   0  0  0  0  0  0
  -21.4018   -6.5629   23.8220 C   0  0  0  0  0  0
  -21.3641   -5.6775   24.9177 C   0  0  0  0  0  0
  -21.6019   -4.3042   24.7225 C   0  0  0  0  0  0
  -21.8828   -3.8140   23.4351 C   0  0  0  0  0  0
  -21.9172   -4.6971   22.3400 C   0  0  0  0  0  0
  -22.7859  -13.5228   21.1809 C   0  0  0  0  0  0
  -22.1684   -4.2149   21.0972 F   0  0  0  0  0  0
  -21.5614   -3.4558   25.7755 F   0  0  0  0  0  0
  -30.0287  -13.4191   20.2980 N   0  0  0  0  0  0
  -26.3017  -12.9250   20.3617 N   0  0  0  0  0  0
  -25.9320  -11.6421   20.6005 N   0  0  0  0  0  0
  -22.0494  -12.8264   22.0348 N   0  0  0  0  0  0
  -25.4235  -15.1871   20.4274 N   0  0  0  0  0  0
  -32.0235  -14.4551   20.3519 O   0  0  0  0  0  0
  -21.6595   -6.8898   21.4245 O   0  0  0  0  0  0
  -22.3632  -14.5583   20.6678 O   0  0  0  0  0  0
  -24.6105  -31.8680   23.2125 C   0  0  0  0  0  0
  -25.8997  -32.4826   23.8430 C   0  0  1  0  0  0
  -27.2395  -27.4884   20.0816 C   0  0  0  0  0  0
  -25.5849  -33.8643   24.2313 N   0  0  0  0  0  0
  -23.3942  -30.4938   21.5498 C   0  0  2  0  0  0
  -24.8420  -28.9573   20.1205 C   0  0  0  0  0  0
  -22.7364  -29.4672   22.4985 C   0  0  0  0  0  0
  -18.0256  -28.1373   22.8516 C   0  0  0  0  0  0
  -24.1496  -36.7373   23.2643 C   0  0  0  0  0  0
  -25.9190  -30.8487   21.3552 C   0  0  0  0  0  0
  -25.9959  -29.4867   20.7070 C   0  0  0  0  0  0
  -27.2024  -28.7601   20.6851 C   0  0  0  0  0  0
  -26.0704  -26.9539   19.4983 C   0  0  0  0  0  0
  -24.8686  -27.6877   19.5160 C   0  0  0  0  0  0
  -23.6015  -29.8192   20.1682 C   0  0  0  0  0  0
  -25.4114  -36.3132   24.0336 C   0  0  1  0  0  0
  -20.5846  -28.3655   23.1324 C   0  0  2  0  0  0
  -20.6757  -26.9410   22.5406 C   0  0  0  0  0  0
  -19.5737  -26.6388   21.5220 C   0  0  0  0  0  0
  -18.1904  -26.7940   22.1617 C   0  0  0  0  0  0
  -19.1510  -28.8839   23.2911 C   0  0  0  0  0  0
  -18.9437  -30.1460   23.8920 C   0  0  0  0  0  0
  -17.6437  -30.6600   24.0567 C   0  0  0  0  0  0
  -25.9048  -34.9480   23.5137 C   0  0  0  0  0  0
  -16.5337  -29.9096   23.6338 C   0  0  0  0  0  0
  -16.7260  -28.6498   23.0388 C   0  0  0  0  0  0
  -26.4443  -31.6609   25.0751 C   0  0  0  0  0  0
  -25.3736  -31.3637   26.1500 C   0  0  0  0  0  0
  -27.0304  -30.3077   24.6121 C   0  0  0  0  0  0
  -27.6020  -32.4328   25.7529 C   0  0  0  0  0  0
  -27.5609  -37.1806   24.8450 C   0  0  0  0  0  0
  -21.4097  -29.3043   22.3746 N   0  0  0  0  0  0
  -26.4294  -37.3818   23.9442 N   0  0  0  0  0  0
  -24.6593  -31.0833   22.0993 N   0  0  0  0  0  0
  -23.4173  -28.8229   23.3007 O   0  0  0  0  0  0
  -28.4200  -26.7989   20.0605 O   0  0  0  0  0  0
  -26.5606  -34.8939   22.4703 O   0  0  0  0  0  0
  -23.5287  -32.1378   23.7546 O   0  0  0  0  0  0
  -28.6359  -23.1304   20.8559 C   0  0  0  0  0  0
  -29.8612  -24.4671   22.6338 C   0  0  0  0  0  0
  -28.4488  -24.4095   20.0316 C   0  0  0  0  0  0
  -29.7268  -25.7286   21.7654 C   0  0  0  0  0  0
  -29.9392  -17.1202   15.1585 C   0  0  0  0  0  0
  -30.8614  -17.6590   18.5146 C   0  0  0  0  0  0
  -29.3689  -15.8801   18.8072 C   0  0  0  0  0  0
  -31.6292  -20.2194   22.0565 C   0  0  0  0  0  0
  -29.3470  -17.0346   16.5448 C   0  0  2  0  0  0
  -30.1759  -16.5710   17.7252 C   0  0  1  0  0  0
  -29.8706  -23.1732   21.7871 C   0  0  1  0  0  0
  -28.9156  -16.0475   15.4828 C   0  0  1  0  0  0
  -31.9783  -19.1739   20.9930 C   0  0  2  0  0  0
  -31.1171  -16.9903   19.8869 C   0  0  1  0  0  0
  -30.9812  -17.9789   21.0770 C   0  0  2  0  0  0
  -28.4516  -25.6621   20.9087 C   0  0  1  0  0  0
  -29.2840  -19.5451   22.0185 C   0  0  1  0  0  0
  -27.5125  -16.0952   14.9068 C   0  0  0  0  0  0
  -33.4439  -18.7340   21.1468 C   0  0  0  0  0  0
  -27.8264  -19.9120   21.6804 C   0  0  0  0  0  0
  -29.9423  -21.9029   22.6750 C   0  0  0  0  0  0
  -29.6113  -18.4861   21.0633 N   0  0  0  0  0  0
  -30.2576  -15.7586   19.9729 N   0  0  0  0  0  0
  -30.2390  -20.6833   21.8708 N   0  3  1  0  0  0
  -31.4608  -12.3604   19.1124 H   0  0  0  0  0  0
  -30.3235  -11.3615   19.9700 H   0  0  0  0  0  0
  -29.6999  -11.4661   17.5764 H   0  0  0  0  0  0
  -29.7146  -13.1870   17.5647 H   0  0  0  0  0  0
  -27.7688  -11.2695   18.8688 H   0  0  0  0  0  0
  -27.3579  -12.5565   17.7870 H   0  0  0  0  0  0
  -27.5716  -14.2210   19.5075 H   0  0  0  0  0  0
  -28.7579  -12.1799   21.4414 H   0  0  0  0  0  0
  -28.5474  -13.8934   21.7321 H   0  0  0  0  0  0
  -25.2755   -9.5661   22.4804 H   0  0  0  0  0  0
  -23.9906   -7.4669   22.7539 H   0  0  0  0  0  0
  -21.0867   -8.8851   19.8961 H   0  0  0  0  0  0
  -22.3782  -10.9707   19.6228 H   0  0  0  0  0  0
  -21.2052   -7.6159   23.9765 H   0  0  0  0  0  0
  -21.1441   -6.0504   25.9063 H   0  0  0  0  0  0
  -22.0602   -2.7605   23.2869 H   0  0  0  0  0  0
  -22.4072  -11.9862   22.4650 H   0  0  0  0  0  0
  -21.1175  -13.1446   22.2602 H   0  0  0  0  0  0
  -24.6565  -15.8428   20.5384 H   0  0  0  0  0  0
  -26.2839  -15.6326   20.1376 H   0  0  0  0  0  0
  -26.7074  -32.5592   23.1216 H   0  0  0  0  0  0
  -25.0025  -33.9834   25.0471 H   0  0  0  0  0  0
  -22.6811  -31.3083   21.4048 H   0  0  0  0  0  0
  -23.3770  -35.9690   23.3238 H   0  0  0  0  0  0
  -24.3593  -36.9080   22.2073 H   0  0  0  0  0  0
  -23.7223  -37.6555   23.6717 H   0  0  0  0  0  0
  -26.0195  -31.6092   20.5798 H   0  0  0  0  0  0
  -26.8093  -30.9076   21.9685 H   0  0  0  0  0  0
  -28.1008  -29.1667   21.1285 H   0  0  0  0  0  0
  -26.0865  -25.9878   19.0163 H   0  0  0  0  0  0
  -23.9761  -27.2702   19.0671 H   0  0  0  0  0  0
  -23.7036  -30.5853   19.3990 H   0  0  0  0  0  0
  -22.7286  -29.2308   19.8820 H   0  0  0  0  0  0
  -25.1257  -36.2015   25.0823 H   0  0  0  0  0  0
  -20.9942  -28.3240   24.1437 H   0  0  0  0  0  0
  -20.5668  -26.2294   23.3578 H   0  0  0  0  0  0
  -21.6623  -26.7448   22.1212 H   0  0  0  0  0  0
  -19.6901  -25.6301   21.1259 H   0  0  0  0  0  0
  -19.6679  -27.3211   20.6770 H   0  0  0  0  0  0
  -17.4170  -26.6731   21.4009 H   0  0  0  0  0  0
  -18.0264  -26.0054   22.8973 H   0  0  0  0  0  0
  -19.7916  -30.7279   24.2310 H   0  0  0  0  0  0
  -17.4994  -31.6294   24.5161 H   0  0  0  0  0  0
  -15.5355  -30.3011   23.7646 H   0  0  0  0  0  0
  -15.8651  -28.0848   22.7091 H   0  0  0  0  0  0
  -24.5981  -30.6899   25.7849 H   0  0  0  0  0  0
  -24.8849  -32.2735   26.4986 H   0  0  0  0  0  0
  -25.8128  -30.8827   27.0248 H   0  0  0  0  0  0
  -26.2851  -29.6807   24.1212 H   0  0  0  0  0  0
  -27.4130  -29.7340   25.4581 H   0  0  0  0  0  0
  -27.8652  -30.4448   23.9241 H   0  0  0  0  0  0
  -27.2671  -33.3625   26.2158 H   0  0  0  0  0  0
  -28.3832  -32.6881   25.0357 H   0  0  0  0  0  0
  -28.0697  -31.8411   26.5410 H   0  0  0  0  0  0
  -28.2522  -38.0196   24.7607 H   0  0  0  0  0  0
  -28.1184  -36.2715   24.6123 H   0  0  0  0  0  0
  -27.2326  -37.1318   25.8843 H   0  0  0  0  0  0
  -20.9240  -29.8786   21.6986 H   0  0  0  0  0  0
  -26.0184  -38.2904   24.1464 H   0  0  0  0  0  0
  -28.7183  -22.2955   20.1597 H   0  0  0  0  0  0
  -27.7355  -22.9593   21.4468 H   0  0  0  0  0  0
  -29.0383  -24.4341   23.3497 H   0  0  0  0  0  0
  -30.7700  -24.5365   23.2271 H   0  0  0  0  0  0
  -27.5147  -24.3337   19.4817 H   0  0  0  0  0  0
  -29.2393  -24.4924   19.2856 H   0  0  0  0  0  0
  -30.6016  -25.8310   21.1194 H   0  0  0  0  0  0
  -29.7021  -26.6162   22.4007 H   0  0  0  0  0  0
  -30.9658  -16.7887   15.0146 H   0  0  0  0  0  0
  -29.6330  -17.9660   14.5459 H   0  0  0  0  0  0
  -30.2066  -18.5267   18.5937 H   0  0  0  0  0  0
  -31.7794  -17.9946   18.0329 H   0  0  0  0  0  0
  -29.0374  -14.9553   18.3722 H   0  0  0  0  0  0
  -28.4844  -16.4641   19.0736 H   0  0  0  0  0  0
  -32.3126  -21.0673   21.9928 H   0  0  0  0  0  0
  -31.7412  -19.7825   23.0503 H   0  0  0  0  0  0
  -28.6230  -17.8084   16.8041 H   0  0  0  0  0  0
  -30.9328  -15.8716   17.3644 H   0  0  0  0  0  0
  -30.7633  -23.2116   21.1596 H   0  0  0  0  0  0
  -29.2994  -15.0348   15.5810 H   0  0  0  0  0  0
  -31.8930  -19.6744   20.0268 H   0  0  0  0  0  0
  -32.1660  -16.7023   19.8447 H   0  0  0  0  0  0
  -31.1542  -17.4357   22.0069 H   0  0  0  0  0  0
  -27.5867  -25.6360   21.5755 H   0  0  0  0  0  0
  -29.3359  -19.1556   23.0362 H   0  0  0  0  0  0
  -27.1630  -17.1227   14.7895 H   0  0  0  0  0  0
  -26.8186  -15.5632   15.5627 H   0  0  0  0  0  0
  -27.4934  -15.6072   13.9319 H   0  0  0  0  0  0
  -33.5788  -18.1307   22.0432 H   0  0  0  0  0  0
  -34.1132  -19.5933   21.2273 H   0  0  0  0  0  0
  -33.7970  -18.1483   20.2981 H   0  0  0  0  0  0
  -27.7339  -20.2837   20.6583 H   0  0  0  0  0  0
  -27.4129  -20.6624   22.3524 H   0  0  0  0  0  0
  -27.1669  -19.0473   21.7601 H   0  0  0  0  0  0
  -29.0193  -21.7894   23.2453 H   0  0  0  0  0  0
  -30.7098  -22.0378   23.4378 H   0  0  0  0  0  0
  -28.9807  -17.7051   21.2042 H   0  0  0  0  0  0
  -30.1679  -20.9801   20.9096 H   0  0  0  0  0  0
  1 25  1  0  0  0
  1 30  2  0  0  0
  1 93  1  0  0  0
  2  3  1  0  0  0
  2 25  1  0  0  0
  2 95  1  0  0  0
  2 96  1  0  0  0
  3  4  1  0  0  0
  3 97  1  0  0  0
  3 98  1  0  0  0
  4  5  1  0  0  0
  4 99  1  0  0  0
  4100  1  0  0  0
  5  6  1  0  0  0
  5 26  1  0  0  0
  5101  1  0  0  0
  6 25  1  0  0  0
  6102  1  0  0  0
  6103  1  0  0  0
  7  8  2  0  0  0
  7 26  1  0  0  0
  7 29  1  0  0  0
  8  9  1  0  0  0
  8 22  1  0  0  0
  9 10  1  0  0  0
  9 27  2  0  0  0
 10 11  2  0  0  0
 10 15  1  0  0  0
 11 12  1  0  0  0
 11104  1  0  0  0
 12 13  2  0  0  0
 12105  1  0  0  0
 13 14  1  0  0  0
 13 31  1  0  0  0
 14 15  2  0  0  0
 14106  1  0  0  0
 15107  1  0  0  0
 16 17  2  0  0  0
 16 21  1  0  0  0
 16 31  1  0  0  0
 17 18  1  0  0  0
 17108  1  0  0  0
 18 19  2  0  0  0
 18109  1  0  0  0
 19 20  1  0  0  0
 19 24  1  0  0  0
 20 21  2  0  0  0
 20110  1  0  0  0
 21 23  1  0  0  0
 22 28  1  0  0  0
 22 32  2  0  0  0
 26 27  1  0  0  0
 28111  1  0  0  0
 28112  1  0  0  0
 29113  1  0  0  0
 29114  1  0  0  0
 33 34  1  0  0  0
 33 66  1  0  0  0
 33 70  2  0  0  0
 34 36  1  0  0  0
 34 59  1  0  0  0
 34115  1  0  0  0
 35 44  2  0  0  0
 35 45  1  0  0  0
 35 68  1  0  0  0
 36 56  1  0  0  0
 36116  1  0  0  0
 37 39  1  0  0  0
 37 47  1  0  0  0
 37 66  1  0  0  0
 37117  1  0  0  0
 38 43  2  0  0  0
 38 46  1  0  0  0
 38 47  1  0  0  0
 39 64  1  0  0  0
 39 67  2  0  0  0
 40 52  1  0  0  0
 40 53  2  0  0  0
 40 58  1  0  0  0
 41118  1  0  0  0
 41119  1  0  0  0
 41120  1  0  0  0
 41 48  1  0  0  0
 42 43  1  0  0  0
 42 66  1  0  0  0
 42121  1  0  0  0
 42122  1  0  0  0
 43 44  1  0  0  0
 44123  1  0  0  0
 45 46  2  0  0  0
 45124  1  0  0  0
 46125  1  0  0  0
 47126  1  0  0  0
 47127  1  0  0  0
 48 56  1  0  0  0
 48 65  1  0  0  0
 48128  1  0  0  0
 49 50  1  0  0  0
 49 53  1  0  0  0
 49 64  1  0  0  0
 49129  1  0  0  0
 50 51  1  0  0  0
 50130  1  0  0  0
 50131  1  0  0  0
 51 52  1  0  0  0
 51132  1  0  0  0
 51133  1  0  0  0
 52134  1  0  0  0
 52135  1  0  0  0
 53 54  1  0  0  0
 54 55  2  0  0  0
 54136  1  0  0  0
 55 57  1  0  0  0
 55137  1  0  0  0
 56 69  2  0  0  0
 57 58  2  0  0  0
 57138  1  0  0  0
 58139  1  0  0  0
 59 60  1  0  0  0
 59 61  1  0  0  0
 59 62  1  0  0  0
 60140  1  0  0  0
 60141  1  0  0  0
 60142  1  0  0  0
 61143  1  0  0  0
 61144  1  0  0  0
 61145  1  0  0  0
 62146  1  0  0  0
 62147  1  0  0  0
 62148  1  0  0  0
 63 65  1  0  0  0
 63149  1  0  0  0
 63150  1  0  0  0
 63151  1  0  0  0
 64152  1  0  0  0
 65153  1  0  0  0
 68 86  1  0  0  0
 71 73  1  0  0  0
 71 81  1  0  0  0
 71154  1  0  0  0
 71155  1  0  0  0
 72 74  1  0  0  0
 72 81  1  0  0  0
 72156  1  0  0  0
 72157  1  0  0  0
 73 86  1  0  0  0
 73158  1  0  0  0
 73159  1  0  0  0
 74 86  1  0  0  0
 74160  1  0  0  0
 74161  1  0  0  0
 75 82  1  0  0  0
 75162  1  0  0  0
 75163  1  0  0  0
 75 79  1  0  0  0
 76164  1  0  0  0
 76165  1  0  0  0
 76 80  1  0  0  0
 76 84  1  0  0  0
 77 80  1  0  0  0
 77 93  1  0  0  0
 77166  1  0  0  0
 77167  1  0  0  0
 78 83  1  0  0  0
 78 94  1  0  0  0
 78168  1  0  0  0
 78169  1  0  0  0
 79 80  1  0  0  0
 79 82  1  0  0  0
 79170  1  0  0  0
 80171  1  0  0  0
 81 91  1  0  0  0
 81172  1  0  0  0
 82 88  1  0  0  0
 82173  1  0  0  0
 83 85  1  0  0  0
 83 89  1  0  0  0
 83174  1  0  0  0
 84 85  1  0  0  0
 84 93  1  0  0  0
 84175  1  0  0  0
 85 92  1  0  0  0
 85176  1  0  0  0
 86177  1  0  0  0
 87 90  1  0  0  0
 87 92  1  0  0  0
 87 94  1  0  0  0
 87178  1  0  0  0
 88179  1  0  0  0
 88180  1  0  0  0
 88181  1  0  0  0
 89182  1  0  0  0
 89183  1  0  0  0
 89184  1  0  0  0
 90185  1  0  0  0
 90186  1  0  0  0
 90187  1  0  0  0
 91188  1  0  0  0
 91189  1  0  0  0
 91 94  1  0  0  0
 92190  1  0  0  0
 94191  1  0  0  0
M  CHG  1  94   1
M  ISO  4   1 100  68 101  86 101  93 100
M  END
> <chiral flag>
0

> <version>
0

> <s_m_source_file>
/data/baiqing/PycharmProjects/Reinvent-master-3.2/result/LINK_invent/BTK/process_docking_weight1_custom_sum_contain_oxygen_bond_distance_aromatic_linkinvent_7_9_3/rearranged_h_0167.sdf

> <i_m_source_file_index>
14

> <r_mmod_Potential_Energy-OPLS-2005>
330.142944335938

> <r_mmod_Stretch_Energy-OPLS-2005>
44.7475128173828

> <r_mmod_Bend_Energy-OPLS-2005>
160.889785766602

> <r_mmod_Torsional_Energy-OPLS-2005>
524.331176757812

> <r_mmod_Improper_Torsional_Energy-OPLS-2005>
13.2010869979858

> <r_mmod_Van_der_Waal_Energy-OPLS-2005>
149.307266235352

> <r_mmod_Electrostatic_Energy-OPLS-2005>
-227.111770629883

> <r_mmod_Solvation_Energy-OPLS-2005>
-393.104400634766

> <b_mmod_Minimization_Converged-OPLS-2005>
0

> <r_mmod_RMS_Derivative-OPLS-2005>
6.54947757720947

$$$$
14
                    3D
 Structure written by MMmdl.
177188  0  0  1  0            999 V2000
  -30.7127  -14.6157   20.5418 C   0  0  0  0  0  0
  -30.4055  -12.3972   19.4564 C   0  0  0  0  0  0
  -29.4924  -12.5235   18.2191 C   0  0  0  0  0  0
  -28.0219  -12.3332   18.6338 C   0  0  0  0  0  0
  -27.6443  -13.2088   19.8561 C   0  0  2  0  0  0
  -28.6906  -13.0870   20.9951 C   0  0  0  0  0  0
  -25.2487  -13.8144   20.5634 C   0  0  0  0  0  0
  -24.1769  -13.0423   20.9192 C   0  0  0  0  0  0
  -24.6346  -11.6892   20.8730 C   0  0  0  0  0  0
  -23.9025  -10.4281   21.0411 C   0  0  0  0  0  0
  -24.3591   -9.4210   21.9194 C   0  0  0  0  0  0
  -23.6282   -8.2244   22.0770 C   0  0  0  0  0  0
  -22.4258   -8.0280   21.3569 C   0  0  0  0  0  0
  -21.9884   -9.0239   20.4666 C   0  0  0  0  0  0
  -22.7195  -10.2123   20.3064 C   0  0  0  0  0  0
  -21.6852   -6.0721   22.5277 C   0  0  0  0  0  0
  -21.4013   -6.5621   23.8205 C   0  0  0  0  0  0
  -21.3658   -5.6785   24.9166 C   0  0  0  0  0  0
  -21.6047   -4.3048   24.7230 C   0  0  0  0  0  0
  -21.8814   -3.8133   23.4351 C   0  0  0  0  0  0
  -21.9187   -4.6948   22.3404 C   0  0  0  0  0  0
  -22.7786  -13.5227   21.1859 C   0  0  0  0  0  0
  -22.1657   -4.2127   21.0980 F   0  0  0  0  0  0
  -21.5650   -3.4540   25.7755 F   0  0  0  0  0  0
  -29.9968  -13.4437   20.4273 N   0  0  0  0  0  0
  -26.2922  -12.9318   20.3298 N   0  0  0  0  0  0
  -25.9272  -11.6485   20.5744 N   0  0  0  0  0  0
  -22.0418  -12.8244   22.0432 N   0  0  0  0  0  0
  -25.4130  -15.1859   20.3951 N   0  0  0  0  0  0
  -31.8622  -14.6440   20.0878 O   0  0  0  0  0  0
  -21.6640   -6.8864   21.4237 O   0  0  0  0  0  0
  -22.3461  -14.5525   20.6694 O   0  0  0  0  0  0
  -24.6249  -31.8610   23.2085 C   0  0  0  0  0  0
  -25.9098  -32.4791   23.8403 C   0  0  1  0  0  0
  -27.2133  -27.3424   20.0937 C   0  0  0  0  0  0
  -25.5921  -33.8600   24.2312 N   0  0  0  0  0  0
  -23.4191  -30.4913   21.5490 C   0  0  2  0  0  0
  -24.8612  -28.9547   20.1123 C   0  0  0  0  0  0
  -22.7478  -29.4627   22.4913 C   0  0  0  0  0  0
  -18.0282  -28.1391   22.8477 C   0  0  0  0  0  0
  -24.1493  -36.7303   23.2636 C   0  0  0  0  0  0
  -25.9621  -30.7959   21.3833 C   0  0  0  0  0  0
  -26.0323  -29.4289   20.7180 C   0  0  0  0  0  0
  -27.2120  -28.6313   20.7043 C   0  0  0  0  0  0
  -26.0202  -26.9260   19.4545 C   0  0  0  0  0  0
  -24.8551  -27.7065   19.4780 C   0  0  0  0  0  0
  -23.6382  -29.8417   20.1597 C   0  0  0  0  0  0
  -25.4110  -36.3097   24.0336 C   0  0  1  0  0  0
  -20.5883  -28.3690   23.1275 C   0  0  2  0  0  0
  -20.6766  -26.9411   22.5404 C   0  0  0  0  0  0
  -19.5746  -26.6392   21.5193 C   0  0  0  0  0  0
  -18.1923  -26.7935   22.1606 C   0  0  0  0  0  0
  -19.1536  -28.8850   23.2882 C   0  0  0  0  0  0
  -18.9456  -30.1445   23.8914 C   0  0  0  0  0  0
  -17.6456  -30.6587   24.0562 C   0  0  0  0  0  0
  -25.9045  -34.9460   23.5123 C   0  0  0  0  0  0
  -16.5348  -29.9097   23.6314 C   0  0  0  0  0  0
  -16.7268  -28.6518   23.0330 C   0  0  0  0  0  0
  -26.4483  -31.6602   25.0767 C   0  0  0  0  0  0
  -25.3730  -31.3764   26.1515 C   0  0  0  0  0  0
  -27.0285  -30.3010   24.6227 C   0  0  0  0  0  0
  -27.6066  -32.4331   25.7508 C   0  0  0  0  0  0
  -27.5588  -37.1802   24.8455 C   0  0  0  0  0  0
  -21.4183  -29.3058   22.3672 N   0  0  0  0  0  0
  -26.4290  -37.3788   23.9415 N   0  0  0  0  0  0
  -24.6869  -31.0657   22.1035 N   0  0  0  0  0  0
  -23.4202  -28.8122   23.2953 O   0  0  0  0  0  0
  -28.3247  -26.4936   20.1424 O   0  0  0  0  0  0
  -26.5600  -34.8914   22.4680 O   0  0  0  0  0  0
  -23.5409  -32.1396   23.7414 O   0  0  0  0  0  0
  -29.4377  -21.0899   17.7042 C   0  0  0  0  0  0
  -29.5058  -19.9266   18.4978 C   0  0  0  0  0  0
  -29.3505  -22.3876   18.2335 C   0  0  0  0  0  0
  -29.3803  -20.0543   19.9164 C   0  0  0  0  0  0
  -29.1886  -22.5730   19.6309 C   0  0  0  0  0  0
  -29.1268  -21.3825   20.4500 C   0  0  0  0  0  0
  -30.6178  -18.5384   16.5331 C   0  0  0  0  0  0
  -29.1261  -18.3150   16.4067 C   0  0  0  0  0  0
  -30.5014  -23.4919   16.1427 C   0  0  0  0  0  0
  -30.5903  -24.5035   17.2566 C   0  0  0  0  0  0
  -28.4911  -17.6678   20.7102 C   0  0  0  0  0  0
  -31.0021  -18.1781   20.7867 C   0  0  0  0  0  0
  -28.8343  -16.2732   21.3476 C   0  0  0  0  0  0
  -31.1353  -16.8493   21.5834 C   0  0  0  0  0  0
  -29.7360  -18.6118   17.7596 C   0  0  0  0  0  0
  -29.4491  -23.5112   17.2357 C   0  0  0  0  0  0
  -29.5737  -18.7859   20.8389 C   0  0  0  0  0  0
  -28.7605  -21.5480   21.9193 C   0  0  0  0  0  0
  -29.2211  -24.0386   20.2252 C   0  0  0  0  0  0
  -28.1148  -25.0760   19.7990 C   0  0  0  0  0  0
  -30.2155  -15.7805   21.1139 N   0  0  0  0  0  0
  -31.4525  -12.4684   19.1591 H   0  0  0  0  0  0
  -30.3051  -11.4056   19.9022 H   0  0  0  0  0  0
  -29.7712  -11.7930   17.4590 H   0  0  0  0  0  0
  -29.6230  -13.5046   17.7581 H   0  0  0  0  0  0
  -27.8752  -11.2798   18.8739 H   0  0  0  0  0  0
  -27.3597  -12.5493   17.7932 H   0  0  0  0  0  0
  -27.6501  -14.2249   19.4669 H   0  0  0  0  0  0
  -28.7121  -12.0656   21.3814 H   0  0  0  0  0  0
  -28.4367  -13.6982   21.8584 H   0  0  0  0  0  0
  -25.2746   -9.5704   22.4751 H   0  0  0  0  0  0
  -24.0007   -7.4623   22.7481 H   0  0  0  0  0  0
  -21.0826   -8.8744   19.8960 H   0  0  0  0  0  0
  -22.3661  -10.9656   19.6169 H   0  0  0  0  0  0
  -21.2004   -7.6129   23.9703 H   0  0  0  0  0  0
  -21.1493   -6.0518   25.9073 H   0  0  0  0  0  0
  -22.0597   -2.7598   23.2853 H   0  0  0  0  0  0
  -22.4001  -11.9925   22.4865 H   0  0  0  0  0  0
  -21.1031  -13.1286   22.2607 H   0  0  0  0  0  0
  -24.6389  -15.8332   20.4955 H   0  0  0  0  0  0
  -26.2593  -15.6299   20.0632 H   0  0  0  0  0  0
  -26.7159  -32.5451   23.1146 H   0  0  0  0  0  0
  -25.0074  -33.9760   25.0459 H   0  0  0  0  0  0
  -22.7131  -31.3114   21.4101 H   0  0  0  0  0  0
  -23.3764  -35.9630   23.3286 H   0  0  0  0  0  0
  -24.3590  -36.8933   22.2056 H   0  0  0  0  0  0
  -23.7238  -37.6503   23.6652 H   0  0  0  0  0  0
  -26.1036  -31.5675   20.6247 H   0  0  0  0  0  0
  -26.8395  -30.8316   22.0180 H   0  0  0  0  0  0
  -28.1121  -28.9886   21.1864 H   0  0  0  0  0  0
  -25.9511  -25.9860   18.9284 H   0  0  0  0  0  0
  -23.9597  -27.3391   18.9956 H   0  0  0  0  0  0
  -23.7859  -30.6279   19.4188 H   0  0  0  0  0  0
  -22.7555  -29.2909   19.8315 H   0  0  0  0  0  0
  -25.1289  -36.1959   25.0830 H   0  0  0  0  0  0
  -20.9978  -28.3259   24.1392 H   0  0  0  0  0  0
  -20.5637  -26.2294   23.3601 H   0  0  0  0  0  0
  -21.6643  -26.7424   22.1213 H   0  0  0  0  0  0
  -19.6907  -25.6301   21.1224 H   0  0  0  0  0  0
  -19.6694  -27.3199   20.6719 H   0  0  0  0  0  0
  -17.4189  -26.6670   21.4012 H   0  0  0  0  0  0
  -18.0335  -26.0084   22.9014 H   0  0  0  0  0  0
  -19.7933  -30.7246   24.2318 H   0  0  0  0  0  0
  -17.5014  -31.6263   24.5175 H   0  0  0  0  0  0
  -15.5352  -30.3003   23.7634 H   0  0  0  0  0  0
  -15.8665  -28.0848   22.7025 H   0  0  0  0  0  0
  -24.5893  -30.7104   25.7880 H   0  0  0  0  0  0
  -24.8922  -32.2935   26.4943 H   0  0  0  0  0  0
  -25.8077  -30.8961   27.0292 H   0  0  0  0  0  0
  -26.2835  -29.6806   24.1229 H   0  0  0  0  0  0
  -27.3921  -29.7246   25.4744 H   0  0  0  0  0  0
  -27.8754  -30.4276   23.9480 H   0  0  0  0  0  0
  -27.2692  -33.3628   26.2114 H   0  0  0  0  0  0
  -28.3846  -32.6905   25.0306 H   0  0  0  0  0  0
  -28.0762  -31.8436   26.5396 H   0  0  0  0  0  0
  -28.2605  -38.0103   24.7508 H   0  0  0  0  0  0
  -28.1083  -36.2632   24.6259 H   0  0  0  0  0  0
  -27.2308  -37.1446   25.8859 H   0  0  0  0  0  0
  -20.9330  -29.8862   21.6972 H   0  0  0  0  0  0
  -26.0177  -38.2866   24.1428 H   0  0  0  0  0  0
  -29.5198  -21.0022   16.6298 H   0  0  0  0  0  0
  -31.0293  -19.4558   16.1181 H   0  0  0  0  0  0
  -31.2530  -17.6612   16.4326 H   0  0  0  0  0  0
  -28.8149  -17.2939   16.1980 H   0  0  0  0  0  0
  -28.5267  -19.0846   15.9251 H   0  0  0  0  0  0
  -31.2379  -22.6898   16.1455 H   0  0  0  0  0  0
  -30.2302  -23.8726   15.1597 H   0  0  0  0  0  0
  -30.3679  -25.5392   17.0077 H   0  0  0  0  0  0
  -31.3773  -24.3570   17.9931 H   0  0  0  0  0  0
  -27.5715  -18.0328   21.1718 H   0  0  0  0  0  0
  -28.2061  -17.5055   19.6756 H   0  0  0  0  0  0
  -31.3587  -18.0087   19.7739 H   0  0  0  0  0  0
  -31.6938  -18.9174   21.1951 H   0  0  0  0  0  0
  -28.0833  -15.5909   20.9895 H   0  0  0  0  0  0
  -28.6866  -16.3262   22.4276 H   0  0  0  0  0  0
  -30.9332  -17.0430   22.6386 H   0  0  0  0  0  0
  -32.1792  -16.5334   21.5676 H   0  0  0  0  0  0
  -29.8131  -17.7504   18.4065 H   0  0  0  0  0  0
  -28.4589  -23.8274   16.9115 H   0  0  0  0  0  0
  -29.5061  -19.1023   21.8759 H   0  0  0  0  0  0
  -29.6477  -21.7293   22.5276 H   0  0  0  0  0  0
  -28.2175  -20.6878   22.3105 H   0  0  0  0  0  0
  -28.0634  -22.3757   22.0521 H   0  0  0  0  0  0
  -30.1918  -24.4573   19.9682 H   0  0  0  0  0  0
  -29.2476  -24.0198   21.3114 H   0  0  0  0  0  0
  -27.1828  -24.7149   20.2384 H   0  0  0  0  0  0
  -27.9818  -25.0473   18.7215 H   0  0  0  0  0  0
  1 25  1  0  0  0
  1 30  2  0  0  0
  1 91  1  0  0  0
  2  3  1  0  0  0
  2 25  1  0  0  0
  2 92  1  0  0  0
  2 93  1  0  0  0
  3  4  1  0  0  0
  3 94  1  0  0  0
  3 95  1  0  0  0
  4  5  1  0  0  0
  4 96  1  0  0  0
  4 97  1  0  0  0
  5  6  1  0  0  0
  5 26  1  0  0  0
  5 98  1  0  0  0
  6 25  1  0  0  0
  6 99  1  0  0  0
  6100  1  0  0  0
  7  8  2  0  0  0
  7 26  1  0  0  0
  7 29  1  0  0  0
  8  9  1  0  0  0
  8 22  1  0  0  0
  9 10  1  0  0  0
  9 27  2  0  0  0
 10 11  2  0  0  0
 10 15  1  0  0  0
 11 12  1  0  0  0
 11101  1  0  0  0
 12 13  2  0  0  0
 12102  1  0  0  0
 13 14  1  0  0  0
 13 31  1  0  0  0
 14 15  2  0  0  0
 14103  1  0  0  0
 15104  1  0  0  0
 16 17  2  0  0  0
 16 21  1  0  0  0
 16 31  1  0  0  0
 17 18  1  0  0  0
 17105  1  0  0  0
 18 19  2  0  0  0
 18106  1  0  0  0
 19 20  1  0  0  0
 19 24  1  0  0  0
 20 21  2  0  0  0
 20107  1  0  0  0
 21 23  1  0  0  0
 22 28  1  0  0  0
 22 32  2  0  0  0
 26 27  1  0  0  0
 28108  1  0  0  0
 28109  1  0  0  0
 29110  1  0  0  0
 29111  1  0  0  0
 33 34  1  0  0  0
 33 66  1  0  0  0
 33 70  2  0  0  0
 34 36  1  0  0  0
 34 59  1  0  0  0
 34112  1  0  0  0
 35 44  2  0  0  0
 35 45  1  0  0  0
 35 68  1  0  0  0
 36 56  1  0  0  0
 36113  1  0  0  0
 37 39  1  0  0  0
 37 47  1  0  0  0
 37 66  1  0  0  0
 37114  1  0  0  0
 38 43  2  0  0  0
 38 46  1  0  0  0
 38 47  1  0  0  0
 39 64  1  0  0  0
 39 67  2  0  0  0
 40 52  1  0  0  0
 40 53  2  0  0  0
 40 58  1  0  0  0
 41115  1  0  0  0
 41116  1  0  0  0
 41117  1  0  0  0
 41 48  1  0  0  0
 42 43  1  0  0  0
 42 66  1  0  0  0
 42118  1  0  0  0
 42119  1  0  0  0
 43 44  1  0  0  0
 44120  1  0  0  0
 45 46  2  0  0  0
 45121  1  0  0  0
 46122  1  0  0  0
 47123  1  0  0  0
 47124  1  0  0  0
 48 56  1  0  0  0
 48 65  1  0  0  0
 48125  1  0  0  0
 49 50  1  0  0  0
 49 53  1  0  0  0
 49 64  1  0  0  0
 49126  1  0  0  0
 50 51  1  0  0  0
 50127  1  0  0  0
 50128  1  0  0  0
 51 52  1  0  0  0
 51129  1  0  0  0
 51130  1  0  0  0
 52131  1  0  0  0
 52132  1  0  0  0
 53 54  1  0  0  0
 54 55  2  0  0  0
 54133  1  0  0  0
 55 57  1  0  0  0
 55134  1  0  0  0
 56 69  2  0  0  0
 57 58  2  0  0  0
 57135  1  0  0  0
 58136  1  0  0  0
 59 60  1  0  0  0
 59 61  1  0  0  0
 59 62  1  0  0  0
 60137  1  0  0  0
 60138  1  0  0  0
 60139  1  0  0  0
 61140  1  0  0  0
 61141  1  0  0  0
 61142  1  0  0  0
 62143  1  0  0  0
 62144  1  0  0  0
 62145  1  0  0  0
 63 65  1  0  0  0
 63146  1  0  0  0
 63147  1  0  0  0
 63148  1  0  0  0
 64149  1  0  0  0
 65150  1  0  0  0
 68 90  1  0  0  0
 71 72  2  0  0  0
 71 73  1  0  0  0
 71151  1  0  0  0
 72 74  1  0  0  0
 72 85  1  0  0  0
 73 75  2  0  0  0
 73 86  1  0  0  0
 74 76  2  0  0  0
 74 87  1  0  0  0
 75 76  1  0  0  0
 75 89  1  0  0  0
 76 88  1  0  0  0
 77 78  1  0  0  0
 77 85  1  0  0  0
 77152  1  0  0  0
 77153  1  0  0  0
 78 85  1  0  0  0
 78154  1  0  0  0
 78155  1  0  0  0
 79 80  1  0  0  0
 79 86  1  0  0  0
 79156  1  0  0  0
 79157  1  0  0  0
 80 86  1  0  0  0
 80158  1  0  0  0
 80159  1  0  0  0
 81 83  1  0  0  0
 81 87  1  0  0  0
 81160  1  0  0  0
 81161  1  0  0  0
 82 84  1  0  0  0
 82 87  1  0  0  0
 82162  1  0  0  0
 82163  1  0  0  0
 83 91  1  0  0  0
 83164  1  0  0  0
 83165  1  0  0  0
 84 91  1  0  0  0
 84166  1  0  0  0
 84167  1  0  0  0
 85168  1  0  0  0
 86169  1  0  0  0
 87170  1  0  0  0
 88171  1  0  0  0
 88172  1  0  0  0
 88173  1  0  0  0
 89 90  1  0  0  0
 89174  1  0  0  0
 89175  1  0  0  0
 90176  1  0  0  0
 90177  1  0  0  0
M  ISO  4   1 100  68 101  90 101  91 100
M  END
> <chiral flag>
0

> <version>
0

> <s_m_source_file>
/data/baiqing/PycharmProjects/Reinvent-master-3.2/result/LINK_invent/BTK/process_docking_weight1_custom_sum_contain_oxygen_bond_distance_aromatic_linkinvent_7_9_3/rearranged_h_0167.sdf

> <i_m_source_file_index>
15

> <r_mmod_Potential_Energy-OPLS-2005>
348.069793701172

> <r_mmod_Stretch_Energy-OPLS-2005>
88.1458435058594

> <r_mmod_Bend_Energy-OPLS-2005>
175.80940246582

> <r_mmod_Torsional_Energy-OPLS-2005>
361.245330810547

> <r_mmod_Improper_Torsional_Energy-OPLS-2005>
2.13754630088806

> <r_mmod_Van_der_Waal_Energy-OPLS-2005>
182.901718139648

> <r_mmod_Electrostatic_Energy-OPLS-2005>
-312.461456298828

> <r_mmod_Solvation_Energy-OPLS-2005>
-192.629837036133

> <b_mmod_Minimization_Converged-OPLS-2005>
0

> <r_mmod_RMS_Derivative-OPLS-2005>
3.44612789154053

$$$$
15
                    3D
 Structure written by MMmdl.
166175  0  0  1  0            999 V2000
  -30.6510  -14.7220   20.4858 C   0  0  0  0  0  0
  -30.4165  -12.4566   19.4703 C   0  0  0  0  0  0
  -29.5010  -12.5183   18.2308 C   0  0  0  0  0  0
  -28.0262  -12.3479   18.6394 C   0  0  0  0  0  0
  -27.6359  -13.2407   19.8479 C   0  0  2  0  0  0
  -28.6779  -13.1801   20.9821 C   0  0  0  0  0  0
  -25.2486  -13.8226   20.5688 C   0  0  0  0  0  0
  -24.1799  -13.0455   20.9221 C   0  0  0  0  0  0
  -24.6401  -11.6934   20.8747 C   0  0  0  0  0  0
  -23.9085  -10.4302   21.0395 C   0  0  0  0  0  0
  -24.3641   -9.4208   21.9177 C   0  0  0  0  0  0
  -23.6325   -8.2230   22.0743 C   0  0  0  0  0  0
  -22.4295   -8.0276   21.3526 C   0  0  0  0  0  0
  -21.9932   -9.0250   20.4623 C   0  0  0  0  0  0
  -22.7253  -10.2133   20.3034 C   0  0  0  0  0  0
  -21.6852   -6.0739   22.5279 C   0  0  0  0  0  0
  -21.4013   -6.5641   23.8214 C   0  0  0  0  0  0
  -21.3670   -5.6792   24.9176 C   0  0  0  0  0  0
  -21.6052   -4.3058   24.7221 C   0  0  0  0  0  0
  -21.8818   -3.8149   23.4344 C   0  0  0  0  0  0
  -21.9202   -4.6967   22.3403 C   0  0  0  0  0  0
  -22.7817  -13.5223   21.1887 C   0  0  0  0  0  0
  -22.1653   -4.2154   21.0979 F   0  0  0  0  0  0
  -21.5647   -3.4540   25.7740 F   0  0  0  0  0  0
  -29.9725  -13.5274   20.3916 N   0  0  0  0  0  0
  -26.2911  -12.9442   20.3275 N   0  0  0  0  0  0
  -25.9339  -11.6580   20.5766 N   0  0  0  0  0  0
  -22.0468  -12.8192   22.0443 N   0  0  0  0  0  0
  -25.4194  -15.1949   20.4077 N   0  0  0  0  0  0
  -31.8538  -14.7336   20.1992 O   0  0  0  0  0  0
  -21.6656   -6.8871   21.4233 O   0  0  0  0  0  0
  -22.3488  -14.5529   20.6741 O   0  0  0  0  0  0
  -24.6289  -31.8576   23.2026 C   0  0  0  0  0  0
  -25.9127  -32.4763   23.8359 C   0  0  1  0  0  0
  -27.2041  -27.2798   20.1297 C   0  0  0  0  0  0
  -25.5937  -33.8569   24.2280 N   0  0  0  0  0  0
  -23.4241  -30.4841   21.5443 C   0  0  2  0  0  0
  -24.8676  -28.9379   20.1092 C   0  0  0  0  0  0
  -22.7497  -29.4631   22.4924 C   0  0  0  0  0  0
  -18.0299  -28.1386   22.8493 C   0  0  0  0  0  0
  -24.1494  -36.7296   23.2635 C   0  0  0  0  0  0
  -25.9686  -30.7766   21.3801 C   0  0  0  0  0  0
  -26.0382  -29.4007   20.7239 C   0  0  0  0  0  0
  -27.2137  -28.5841   20.7233 C   0  0  0  0  0  0
  -26.0194  -26.8959   19.4616 C   0  0  0  0  0  0
  -24.8632  -27.6936   19.4648 C   0  0  0  0  0  0
  -23.6384  -29.8219   20.1595 C   0  0  0  0  0  0
  -25.4120  -36.3076   24.0328 C   0  0  1  0  0  0
  -20.5904  -28.3703   23.1269 C   0  0  2  0  0  0
  -20.6793  -26.9421   22.5408 C   0  0  0  0  0  0
  -19.5764  -26.6387   21.5221 C   0  0  0  0  0  0
  -18.1946  -26.7927   22.1628 C   0  0  0  0  0  0
  -19.1548  -28.8862   23.2878 C   0  0  0  0  0  0
  -18.9466  -30.1467   23.8899 C   0  0  0  0  0  0
  -17.6458  -30.6588   24.0568 C   0  0  0  0  0  0
  -25.9066  -34.9439   23.5112 C   0  0  0  0  0  0
  -16.5356  -29.9085   23.6322 C   0  0  0  0  0  0
  -16.7280  -28.6498   23.0351 C   0  0  0  0  0  0
  -26.4498  -31.6576   25.0735 C   0  0  0  0  0  0
  -25.3727  -31.3705   26.1458 C   0  0  0  0  0  0
  -27.0332  -30.2987   24.6201 C   0  0  0  0  0  0
  -27.6062  -32.4300   25.7506 C   0  0  0  0  0  0
  -27.5590  -37.1802   24.8454 C   0  0  0  0  0  0
  -21.4204  -29.3053   22.3667 N   0  0  0  0  0  0
  -26.4289  -37.3779   23.9411 N   0  0  0  0  0  0
  -24.6928  -31.0575   22.0986 N   0  0  0  0  0  0
  -23.4209  -28.8170   23.3010 O   0  0  0  0  0  0
  -28.2865  -26.3807   20.1724 O   0  0  0  0  0  0
  -26.5636  -34.8911   22.4677 O   0  0  0  0  0  0
  -23.5436  -32.1389   23.7339 O   0  0  0  0  0  0
  -31.0434  -22.8688   19.0990 C   0  0  0  0  0  0
  -30.1305  -23.9421   19.2883 C   0  0  0  0  0  0
  -30.7844  -21.6174   19.7103 C   0  0  0  0  0  0
  -28.9987  -23.7525   20.1257 C   0  0  0  0  0  0
  -29.5688  -21.4117   20.3912 C   0  0  0  0  0  0
  -29.5423  -18.2168   19.2330 C   0  0  0  0  0  0
  -28.4030  -17.8169   21.3853 C   0  0  0  0  0  0
  -30.5082  -17.0298   19.5967 C   0  0  0  0  0  0
  -29.4144  -16.6260   21.6529 C   0  0  0  0  0  0
  -28.8078  -18.9615   20.3904 C   0  0  0  0  0  0
  -32.3168  -23.0725   18.2775 C   0  0  0  0  0  0
  -30.3696  -25.2933   18.6131 C   0  0  0  0  0  0
  -31.8509  -20.5264   19.7131 C   0  0  0  0  0  0
  -27.9873  -24.9355   20.4690 C   0  0  0  0  0  0
  -28.7287  -22.4835   20.6288 N   0  0  0  0  0  0
  -29.9481  -15.9337   20.4461 N   0  0  0  0  0  0
  -29.3445  -20.1783   21.0520 O   0  0  0  0  0  0
  -31.4578  -12.5629   19.1659 H   0  0  0  0  0  0
  -30.3502  -11.4835   19.9597 H   0  0  0  0  0  0
  -29.7816  -11.7467   17.5136 H   0  0  0  0  0  0
  -29.6321  -13.4754   17.7218 H   0  0  0  0  0  0
  -27.8726  -11.2982   18.8900 H   0  0  0  0  0  0
  -27.3706  -12.5552   17.7925 H   0  0  0  0  0  0
  -27.6267  -14.2648   19.4751 H   0  0  0  0  0  0
  -28.7161  -12.1874   21.4326 H   0  0  0  0  0  0
  -28.4082  -13.8671   21.7823 H   0  0  0  0  0  0
  -25.2768   -9.5711   22.4773 H   0  0  0  0  0  0
  -24.0039   -7.4629   22.7464 H   0  0  0  0  0  0
  -21.0855   -8.8755   19.8935 H   0  0  0  0  0  0
  -22.3686  -10.9681   19.6158 H   0  0  0  0  0  0
  -21.1972   -7.6144   23.9724 H   0  0  0  0  0  0
  -21.1503   -6.0514   25.9083 H   0  0  0  0  0  0
  -22.0593   -2.7615   23.2842 H   0  0  0  0  0  0
  -22.4067  -11.9834   22.4806 H   0  0  0  0  0  0
  -21.1076  -13.1183   22.2635 H   0  0  0  0  0  0
  -24.6608  -15.8579   20.5207 H   0  0  0  0  0  0
  -26.2836  -15.6236   20.1015 H   0  0  0  0  0  0
  -26.7191  -32.5417   23.1098 H   0  0  0  0  0  0
  -25.0080  -33.9724   25.0421 H   0  0  0  0  0  0
  -22.7188  -31.3061   21.4020 H   0  0  0  0  0  0
  -23.3759  -35.9621   23.3260 H   0  0  0  0  0  0
  -24.3597  -36.8957   22.2058 H   0  0  0  0  0  0
  -23.7243  -37.6486   23.6680 H   0  0  0  0  0  0
  -26.1062  -31.5368   20.6102 H   0  0  0  0  0  0
  -26.8477  -30.8254   22.0109 H   0  0  0  0  0  0
  -28.1101  -28.9309   21.2182 H   0  0  0  0  0  0
  -25.9603  -25.9651   18.9188 H   0  0  0  0  0  0
  -23.9741  -27.3456   18.9561 H   0  0  0  0  0  0
  -23.7571  -30.5974   19.4022 H   0  0  0  0  0  0
  -22.7574  -29.2518   19.8585 H   0  0  0  0  0  0
  -25.1292  -36.1926   25.0819 H   0  0  0  0  0  0
  -21.0003  -28.3276   24.1387 H   0  0  0  0  0  0
  -20.5706  -26.2314   23.3619 H   0  0  0  0  0  0
  -21.6657  -26.7465   22.1184 H   0  0  0  0  0  0
  -19.6931  -25.6301   21.1252 H   0  0  0  0  0  0
  -19.6697  -27.3195   20.6752 H   0  0  0  0  0  0
  -17.4222  -26.6692   21.4022 H   0  0  0  0  0  0
  -18.0330  -26.0061   22.9008 H   0  0  0  0  0  0
  -19.7940  -30.7293   24.2258 H   0  0  0  0  0  0
  -17.5009  -31.6268   24.5173 H   0  0  0  0  0  0
  -15.5351  -30.2990   23.7656 H   0  0  0  0  0  0
  -15.8674  -28.0824   22.7061 H   0  0  0  0  0  0
  -24.5920  -30.7037   25.7780 H   0  0  0  0  0  0
  -24.8908  -32.2860   26.4880 H   0  0  0  0  0  0
  -25.8057  -30.8884   27.0231 H   0  0  0  0  0  0
  -26.2900  -29.6743   24.1222 H   0  0  0  0  0  0
  -27.4005  -29.7237   25.4716 H   0  0  0  0  0  0
  -27.8786  -30.4252   23.9435 H   0  0  0  0  0  0
  -27.2680  -33.3604   26.2071 H   0  0  0  0  0  0
  -28.3883  -32.6848   25.0343 H   0  0  0  0  0  0
  -28.0704  -31.8422   26.5433 H   0  0  0  0  0  0
  -28.2566  -38.0141   24.7548 H   0  0  0  0  0  0
  -28.1134  -36.2678   24.6207 H   0  0  0  0  0  0
  -27.2318  -37.1348   25.8858 H   0  0  0  0  0  0
  -20.9395  -29.8771   21.6870 H   0  0  0  0  0  0
  -26.0163  -38.2847   24.1429 H   0  0  0  0  0  0
  -28.7604  -17.7675   18.6190 H   0  0  0  0  0  0
  -30.0251  -18.9249   18.5624 H   0  0  0  0  0  0
  -28.0970  -18.2621   22.3330 H   0  0  0  0  0  0
  -27.4964  -17.3612   20.9857 H   0  0  0  0  0  0
  -31.4106  -17.4215   20.0670 H   0  0  0  0  0  0
  -30.8425  -16.5949   18.6529 H   0  0  0  0  0  0
  -28.9243  -15.9061   22.3040 H   0  0  0  0  0  0
  -30.2560  -17.0035   22.2354 H   0  0  0  0  0  0
  -27.8805  -19.3382   19.9565 H   0  0  0  0  0  0
  -32.9629  -23.8064   18.7609 H   0  0  0  0  0  0
  -32.0748  -23.4235   17.2747 H   0  0  0  0  0  0
  -32.9072  -22.1704   18.1318 H   0  0  0  0  0  0
  -31.1854  -25.3038   17.8937 H   0  0  0  0  0  0
  -30.6063  -26.0596   19.3512 H   0  0  0  0  0  0
  -29.4830  -25.6035   18.0575 H   0  0  0  0  0  0
  -31.9958  -20.1203   18.7130 H   0  0  0  0  0  0
  -31.6174  -19.7038   20.3876 H   0  0  0  0  0  0
  -32.8004  -20.9322   20.0610 H   0  0  0  0  0  0
  -27.8199  -24.8945   21.5458 H   0  0  0  0  0  0
  -27.0426  -24.6175   20.0393 H   0  0  0  0  0  0
  1 25  1  0  0  0
  1 30  2  0  0  0
  1 86  1  0  0  0
  2  3  1  0  0  0
  2 25  1  0  0  0
  2 88  1  0  0  0
  2 89  1  0  0  0
  3  4  1  0  0  0
  3 90  1  0  0  0
  3 91  1  0  0  0
  4  5  1  0  0  0
  4 92  1  0  0  0
  4 93  1  0  0  0
  5  6  1  0  0  0
  5 26  1  0  0  0
  5 94  1  0  0  0
  6 25  1  0  0  0
  6 95  1  0  0  0
  6 96  1  0  0  0
  7  8  2  0  0  0
  7 26  1  0  0  0
  7 29  1  0  0  0
  8  9  1  0  0  0
  8 22  1  0  0  0
  9 10  1  0  0  0
  9 27  2  0  0  0
 10 11  2  0  0  0
 10 15  1  0  0  0
 11 12  1  0  0  0
 11 97  1  0  0  0
 12 13  2  0  0  0
 12 98  1  0  0  0
 13 14  1  0  0  0
 13 31  1  0  0  0
 14 15  2  0  0  0
 14 99  1  0  0  0
 15100  1  0  0  0
 16 17  2  0  0  0
 16 21  1  0  0  0
 16 31  1  0  0  0
 17 18  1  0  0  0
 17101  1  0  0  0
 18 19  2  0  0  0
 18102  1  0  0  0
 19 20  1  0  0  0
 19 24  1  0  0  0
 20 21  2  0  0  0
 20103  1  0  0  0
 21 23  1  0  0  0
 22 28  1  0  0  0
 22 32  2  0  0  0
 26 27  1  0  0  0
 28104  1  0  0  0
 28105  1  0  0  0
 29106  1  0  0  0
 29107  1  0  0  0
 33 34  1  0  0  0
 33 66  1  0  0  0
 33 70  2  0  0  0
 34 36  1  0  0  0
 34 59  1  0  0  0
 34108  1  0  0  0
 35 44  2  0  0  0
 35 45  1  0  0  0
 35 68  1  0  0  0
 36 56  1  0  0  0
 36109  1  0  0  0
 37 39  1  0  0  0
 37 47  1  0  0  0
 37 66  1  0  0  0
 37110  1  0  0  0
 38 43  2  0  0  0
 38 46  1  0  0  0
 38 47  1  0  0  0
 39 64  1  0  0  0
 39 67  2  0  0  0
 40 52  1  0  0  0
 40 53  2  0  0  0
 40 58  1  0  0  0
 41111  1  0  0  0
 41112  1  0  0  0
 41113  1  0  0  0
 41 48  1  0  0  0
 42 43  1  0  0  0
 42 66  1  0  0  0
 42114  1  0  0  0
 42115  1  0  0  0
 43 44  1  0  0  0
 44116  1  0  0  0
 45 46  2  0  0  0
 45117  1  0  0  0
 46118  1  0  0  0
 47119  1  0  0  0
 47120  1  0  0  0
 48 56  1  0  0  0
 48 65  1  0  0  0
 48121  1  0  0  0
 49 50  1  0  0  0
 49 53  1  0  0  0
 49 64  1  0  0  0
 49122  1  0  0  0
 50 51  1  0  0  0
 50123  1  0  0  0
 50124  1  0  0  0
 51 52  1  0  0  0
 51125  1  0  0  0
 51126  1  0  0  0
 52127  1  0  0  0
 52128  1  0  0  0
 53 54  1  0  0  0
 54 55  2  0  0  0
 54129  1  0  0  0
 55 57  1  0  0  0
 55130  1  0  0  0
 56 69  2  0  0  0
 57 58  2  0  0  0
 57131  1  0  0  0
 58132  1  0  0  0
 59 60  1  0  0  0
 59 61  1  0  0  0
 59 62  1  0  0  0
 60133  1  0  0  0
 60134  1  0  0  0
 60135  1  0  0  0
 61136  1  0  0  0
 61137  1  0  0  0
 61138  1  0  0  0
 62139  1  0  0  0
 62140  1  0  0  0
 62141  1  0  0  0
 63 65  1  0  0  0
 63142  1  0  0  0
 63143  1  0  0  0
 63144  1  0  0  0
 64145  1  0  0  0
 65146  1  0  0  0
 68 84  1  0  0  0
 71 72  2  0  0  0
 71 73  1  0  0  0
 71 81  1  0  0  0
 72 74  1  0  0  0
 72 82  1  0  0  0
 73 75  2  0  0  0
 73 83  1  0  0  0
 74 84  1  0  0  0
 74 85  2  0  0  0
 75 85  1  0  0  0
 75 87  1  0  0  0
 76 78  1  0  0  0
 76 80  1  0  0  0
 76147  1  0  0  0
 76148  1  0  0  0
 77 79  1  0  0  0
 77 80  1  0  0  0
 77149  1  0  0  0
 77150  1  0  0  0
 78 86  1  0  0  0
 78151  1  0  0  0
 78152  1  0  0  0
 79 86  1  0  0  0
 79153  1  0  0  0
 79154  1  0  0  0
 80 87  1  0  0  0
 80155  1  0  0  0
 81156  1  0  0  0
 81157  1  0  0  0
 81158  1  0  0  0
 82159  1  0  0  0
 82160  1  0  0  0
 82161  1  0  0  0
 83162  1  0  0  0
 83163  1  0  0  0
 83164  1  0  0  0
 84165  1  0  0  0
 84166  1  0  0  0
M  ISO  4   1 100  68 101  84 101  86 100
M  END
> <chiral flag>
0

> <version>
0

> <s_m_source_file>
/data/baiqing/PycharmProjects/Reinvent-master-3.2/result/LINK_invent/BTK/process_docking_weight1_custom_sum_contain_oxygen_bond_distance_aromatic_linkinvent_7_9_3/rearranged_h_0167.sdf

> <i_m_source_file_index>
16

> <r_mmod_Potential_Energy-OPLS-2005>
295.195159912109

> <r_mmod_Stretch_Energy-OPLS-2005>
110.852424621582

> <r_mmod_Bend_Energy-OPLS-2005>
201.433944702148

> <r_mmod_Torsional_Energy-OPLS-2005>
367.002349853516

> <r_mmod_Improper_Torsional_Energy-OPLS-2005>
19.4798583984375

> <r_mmod_Van_der_Waal_Energy-OPLS-2005>
163.639373779297

> <r_mmod_Electrostatic_Energy-OPLS-2005>
-435.910400390625

> <r_mmod_Solvation_Energy-OPLS-2005>
-210.299285888672

> <b_mmod_Minimization_Converged-OPLS-2005>
0

> <r_mmod_RMS_Derivative-OPLS-2005>
2.82288932800293

$$$$
16
                    3D
 Structure written by MMmdl.
174183  0  0  1  0            999 V2000
  -30.6217  -14.7160   20.4824 C   0  0  0  0  0  0
  -30.4495  -12.4234   19.5006 C   0  0  0  0  0  0
  -29.5501  -12.5174   18.2487 C   0  0  0  0  0  0
  -28.0594  -12.3942   18.6230 C   0  0  0  0  0  0
  -27.6618  -13.2391   19.8648 C   0  0  2  0  0  0
  -28.7039  -13.1270   21.0043 C   0  0  0  0  0  0
  -25.2588  -13.8228   20.5676 C   0  0  0  0  0  0
  -24.1882  -13.0456   20.9164 C   0  0  0  0  0  0
  -24.6496  -11.6941   20.8723 C   0  0  0  0  0  0
  -23.9155  -10.4303   21.0334 C   0  0  0  0  0  0
  -24.3695   -9.4236   21.9131 C   0  0  0  0  0  0
  -23.6371   -8.2268   22.0693 C   0  0  0  0  0  0
  -22.4346   -8.0271   21.3478 C   0  0  0  0  0  0
  -21.9994   -9.0268   20.4587 C   0  0  0  0  0  0
  -22.7320  -10.2146   20.3013 C   0  0  0  0  0  0
  -21.6859   -6.0750   22.5255 C   0  0  0  0  0  0
  -21.4015   -6.5663   23.8193 C   0  0  0  0  0  0
  -21.3670   -5.6802   24.9164 C   0  0  0  0  0  0
  -21.6073   -4.3085   24.7176 C   0  0  0  0  0  0
  -21.8849   -3.8156   23.4311 C   0  0  0  0  0  0
  -21.9200   -4.6973   22.3366 C   0  0  0  0  0  0
  -22.7887  -13.5211   21.1767 C   0  0  0  0  0  0
  -22.1677   -4.2183   21.0934 F   0  0  0  0  0  0
  -21.5623   -3.4528   25.7667 F   0  0  0  0  0  0
  -30.0139  -13.4764   20.4471 N   0  0  0  0  0  0
  -26.3043  -12.9465   20.3257 N   0  0  0  0  0  0
  -25.9438  -11.6593   20.5724 N   0  0  0  0  0  0
  -22.0503  -12.8243   22.0306 N   0  0  0  0  0  0
  -25.4314  -15.1976   20.4185 N   0  0  0  0  0  0
  -31.7698  -14.8505   20.0617 O   0  0  0  0  0  0
  -21.6684   -6.8879   21.4201 O   0  0  0  0  0  0
  -22.3596  -14.5493   20.6529 O   0  0  0  0  0  0
  -24.6311  -31.8578   23.2018 C   0  0  0  0  0  0
  -25.9132  -32.4789   23.8403 C   0  0  1  0  0  0
  -27.2517  -27.2873   20.1312 C   0  0  0  0  0  0
  -25.5931  -33.8587   24.2308 N   0  0  0  0  0  0
  -23.4311  -30.4758   21.5413 C   0  0  2  0  0  0
  -24.8925  -28.9301   20.1164 C   0  0  0  0  0  0
  -22.7506  -29.4585   22.4902 C   0  0  0  0  0  0
  -18.0273  -28.1439   22.8446 C   0  0  0  0  0  0
  -24.1475  -36.7300   23.2648 C   0  0  0  0  0  0
  -25.9735  -30.7777   21.3804 C   0  0  0  0  0  0
  -26.0562  -29.3969   20.7359 C   0  0  0  0  0  0
  -27.2330  -28.5830   20.7476 C   0  0  0  0  0  0
  -26.0790  -26.9160   19.4354 C   0  0  0  0  0  0
  -24.9058  -27.6962   19.4529 C   0  0  0  0  0  0
  -23.6599  -29.8080   20.1595 C   0  0  0  0  0  0
  -25.4091  -36.3088   24.0341 C   0  0  1  0  0  0
  -20.5892  -28.3728   23.1268 C   0  0  2  0  0  0
  -20.6786  -26.9449   22.5400 C   0  0  0  0  0  0
  -19.5781  -26.6392   21.5203 C   0  0  0  0  0  0
  -18.1952  -26.7966   22.1599 C   0  0  0  0  0  0
  -19.1544  -28.8892   23.2855 C   0  0  0  0  0  0
  -18.9464  -30.1478   23.8897 C   0  0  0  0  0  0
  -17.6477  -30.6620   24.0572 C   0  0  0  0  0  0
  -25.9024  -34.9448   23.5113 C   0  0  0  0  0  0
  -16.5352  -29.9130   23.6354 C   0  0  0  0  0  0
  -16.7259  -28.6564   23.0329 C   0  0  0  0  0  0
  -26.4477  -31.6607   25.0783 C   0  0  0  0  0  0
  -25.3682  -31.3796   26.1499 C   0  0  0  0  0  0
  -27.0308  -30.3043   24.6206 C   0  0  0  0  0  0
  -27.6042  -32.4303   25.7594 C   0  0  0  0  0  0
  -27.5553  -37.1840   24.8443 C   0  0  0  0  0  0
  -21.4216  -29.3085   22.3673 N   0  0  0  0  0  0
  -26.4259  -37.3790   23.9409 N   0  0  0  0  0  0
  -24.6966  -31.0548   22.0993 N   0  0  0  0  0  0
  -23.4182  -28.8124   23.2996 O   0  0  0  0  0  0
  -28.3653  -26.4075   20.1833 O   0  0  0  0  0  0
  -26.5556  -34.8932   22.4653 O   0  0  0  0  0  0
  -23.5458  -32.1381   23.7310 O   0  0  0  0  0  0
  -29.5009  -19.8543   20.3327 C   0  0  0  0  0  0
  -30.7388  -21.2033   21.8881 C   0  0  0  0  0  0
  -29.8261  -21.1818   20.8181 C   0  0  0  0  0  0
  -30.0025  -18.5947   20.8859 C   0  0  0  0  0  0
  -30.8607  -18.7163   22.0232 C   0  0  0  0  0  0
  -31.2529  -20.0165   22.4782 C   0  0  0  0  0  0
  -27.8541  -22.5835   19.7430 C   0  0  0  0  0  0
  -27.4543  -24.0663   19.5435 C   0  0  0  0  0  0
  -29.3364  -22.5488   20.1278 C   0  0  1  0  0  0
  -29.5343  -24.0338   20.7554 C   0  0  2  0  0  0
  -28.2146  -24.9480   20.5684 C   0  0  1  0  0  0
  -31.4126  -17.4724   22.7377 C   0  0  0  0  0  0
  -30.7858  -24.7356   20.1865 C   0  0  0  0  0  0
  -27.4906  -24.9876   21.9387 C   0  0  0  0  0  0
  -28.3372  -17.1946   19.4549 C   0  0  0  0  0  0
  -33.4324  -20.8396   23.0286 C   0  0  0  0  0  0
  -29.7258  -17.1895   20.1443 C   0  0  2  0  0  0
  -32.2250  -20.1553   23.4831 N   0  0  0  0  0  0
  -29.8329  -15.8082   20.8027 N   0  0  0  0  0  0
  -31.5033  -12.5265   19.2357 H   0  0  0  0  0  0
  -30.3459  -11.4311   19.9445 H   0  0  0  0  0  0
  -29.8243  -11.7362   17.5371 H   0  0  0  0  0  0
  -29.7396  -13.4735   17.7581 H   0  0  0  0  0  0
  -27.8490  -11.3415   18.8085 H   0  0  0  0  0  0
  -27.4535  -12.6858   17.7628 H   0  0  0  0  0  0
  -27.6575  -14.2746   19.5318 H   0  0  0  0  0  0
  -28.7196  -12.1139   21.4167 H   0  0  0  0  0  0
  -28.4585  -13.7853   21.8355 H   0  0  0  0  0  0
  -25.2815   -9.5763   22.4748 H   0  0  0  0  0  0
  -24.0032   -7.4728   22.7523 H   0  0  0  0  0  0
  -21.0852   -8.8844   19.8997 H   0  0  0  0  0  0
  -22.3722  -10.9699   19.6184 H   0  0  0  0  0  0
  -21.1989   -7.6178   23.9693 H   0  0  0  0  0  0
  -21.1472   -6.0526   25.9071 H   0  0  0  0  0  0
  -22.0599   -2.7611   23.2785 H   0  0  0  0  0  0
  -22.4067  -11.9980   22.4898 H   0  0  0  0  0  0
  -21.1092  -13.1275   22.2292 H   0  0  0  0  0  0
  -24.6808  -15.8642   20.5452 H   0  0  0  0  0  0
  -26.2874  -15.6302   20.0965 H   0  0  0  0  0  0
  -26.7212  -32.5504   23.1184 H   0  0  0  0  0  0
  -25.0189  -33.9745   25.0534 H   0  0  0  0  0  0
  -22.7317  -31.2983   21.3840 H   0  0  0  0  0  0
  -23.3737  -35.9635   23.3265 H   0  0  0  0  0  0
  -24.3588  -36.8946   22.2070 H   0  0  0  0  0  0
  -23.7202  -37.6493   23.6664 H   0  0  0  0  0  0
  -26.0766  -31.5257   20.5949 H   0  0  0  0  0  0
  -26.8677  -30.8642   21.9860 H   0  0  0  0  0  0
  -28.1131  -28.9253   21.2720 H   0  0  0  0  0  0
  -26.0504  -26.0249   18.8329 H   0  0  0  0  0  0
  -24.0285  -27.3508   18.9239 H   0  0  0  0  0  0
  -23.7972  -30.5795   19.4013 H   0  0  0  0  0  0
  -22.7900  -29.2318   19.8416 H   0  0  0  0  0  0
  -25.1268  -36.1954   25.0838 H   0  0  0  0  0  0
  -20.9970  -28.3311   24.1401 H   0  0  0  0  0  0
  -20.5688  -26.2354   23.3612 H   0  0  0  0  0  0
  -21.6659  -26.7492   22.1218 H   0  0  0  0  0  0
  -19.6961  -25.6280   21.1304 H   0  0  0  0  0  0
  -19.6774  -27.3153   20.6704 H   0  0  0  0  0  0
  -17.4230  -26.6667   21.3995 H   0  0  0  0  0  0
  -18.0361  -26.0130   22.9022 H   0  0  0  0  0  0
  -19.7940  -30.7273   24.2310 H   0  0  0  0  0  0
  -17.5033  -31.6306   24.5167 H   0  0  0  0  0  0
  -15.5364  -30.3043   23.7698 H   0  0  0  0  0  0
  -15.8638  -28.0899   22.7050 H   0  0  0  0  0  0
  -24.5883  -30.7093   25.7846 H   0  0  0  0  0  0
  -24.8857  -32.3003   26.4823 H   0  0  0  0  0  0
  -25.8028  -30.9074   27.0327 H   0  0  0  0  0  0
  -26.2907  -29.6843   24.1148 H   0  0  0  0  0  0
  -27.3918  -29.7251   25.4707 H   0  0  0  0  0  0
  -27.8791  -30.4325   23.9482 H   0  0  0  0  0  0
  -27.2669  -33.3623   26.2141 H   0  0  0  0  0  0
  -28.3950  -32.6805   25.0503 H   0  0  0  0  0  0
  -28.0578  -31.8406   26.5573 H   0  0  0  0  0  0
  -28.2542  -38.0159   24.7483 H   0  0  0  0  0  0
  -28.1070  -36.2691   24.6250 H   0  0  0  0  0  0
  -27.2286  -37.1453   25.8849 H   0  0  0  0  0  0
  -20.9426  -29.8882   21.6942 H   0  0  0  0  0  0
  -26.0124  -38.2860   24.1443 H   0  0  0  0  0  0
  -28.8695  -19.8329   19.4604 H   0  0  0  0  0  0
  -31.0852  -22.1631   22.2439 H   0  0  0  0  0  0
  -27.6602  -21.9990   18.8453 H   0  0  0  0  0  0
  -27.2438  -22.1459   20.5330 H   0  0  0  0  0  0
  -26.3717  -24.1491   19.6297 H   0  0  0  0  0  0
  -27.7333  -24.3737   18.5332 H   0  0  0  0  0  0
  -29.8837  -22.5417   19.1835 H   0  0  0  0  0  0
  -29.7022  -23.9381   21.8278 H   0  0  0  0  0  0
  -31.8649  -17.6886   23.7051 H   0  0  0  0  0  0
  -32.1614  -16.9430   22.1402 H   0  0  0  0  0  0
  -30.6111  -16.7752   22.9739 H   0  0  0  0  0  0
  -30.7105  -24.8922   19.1096 H   0  0  0  0  0  0
  -31.6950  -24.1621   20.3784 H   0  0  0  0  0  0
  -30.9193  -25.7200   20.6390 H   0  0  0  0  0  0
  -27.3333  -23.9865   22.3370 H   0  0  0  0  0  0
  -26.5087  -25.4583   21.8977 H   0  0  0  0  0  0
  -28.0819  -25.5415   22.6708 H   0  0  0  0  0  0
  -28.1776  -18.0125   18.7495 H   0  0  0  0  0  0
  -27.5255  -17.2109   20.1878 H   0  0  0  0  0  0
  -28.2210  -16.3019   18.8421 H   0  0  0  0  0  0
  -34.2976  -20.5237   23.6137 H   0  0  0  0  0  0
  -33.3540  -21.9252   23.1082 H   0  0  0  0  0  0
  -33.6349  -20.5785   21.9886 H   0  0  0  0  0  0
  -30.4498  -17.1803   19.3278 H   0  0  0  0  0  0
  -32.4508  -19.2915   23.9718 H   0  0  0  0  0  0
  -28.9982  -15.5330   21.2938 H   0  0  0  0  0  0
  1 25  1  0  0  0
  1 30  2  0  0  0
  1 89  1  0  0  0
  2  3  1  0  0  0
  2 25  1  0  0  0
  2 90  1  0  0  0
  2 91  1  0  0  0
  3  4  1  0  0  0
  3 92  1  0  0  0
  3 93  1  0  0  0
  4  5  1  0  0  0
  4 94  1  0  0  0
  4 95  1  0  0  0
  5  6  1  0  0  0
  5 26  1  0  0  0
  5 96  1  0  0  0
  6 25  1  0  0  0
  6 97  1  0  0  0
  6 98  1  0  0  0
  7  8  2  0  0  0
  7 26  1  0  0  0
  7 29  1  0  0  0
  8  9  1  0  0  0
  8 22  1  0  0  0
  9 10  1  0  0  0
  9 27  2  0  0  0
 10 11  2  0  0  0
 10 15  1  0  0  0
 11 12  1  0  0  0
 11 99  1  0  0  0
 12 13  2  0  0  0
 12100  1  0  0  0
 13 14  1  0  0  0
 13 31  1  0  0  0
 14 15  2  0  0  0
 14101  1  0  0  0
 15102  1  0  0  0
 16 17  2  0  0  0
 16 21  1  0  0  0
 16 31  1  0  0  0
 17 18  1  0  0  0
 17103  1  0  0  0
 18 19  2  0  0  0
 18104  1  0  0  0
 19 20  1  0  0  0
 19 24  1  0  0  0
 20 21  2  0  0  0
 20105  1  0  0  0
 21 23  1  0  0  0
 22 28  1  0  0  0
 22 32  2  0  0  0
 26 27  1  0  0  0
 28106  1  0  0  0
 28107  1  0  0  0
 29108  1  0  0  0
 29109  1  0  0  0
 33 34  1  0  0  0
 33 66  1  0  0  0
 33 70  2  0  0  0
 34 36  1  0  0  0
 34 59  1  0  0  0
 34110  1  0  0  0
 35 44  2  0  0  0
 35 45  1  0  0  0
 35 68  1  0  0  0
 36 56  1  0  0  0
 36111  1  0  0  0
 37 39  1  0  0  0
 37 47  1  0  0  0
 37 66  1  0  0  0
 37112  1  0  0  0
 38 43  2  0  0  0
 38 46  1  0  0  0
 38 47  1  0  0  0
 39 64  1  0  0  0
 39 67  2  0  0  0
 40 52  1  0  0  0
 40 53  2  0  0  0
 40 58  1  0  0  0
 41113  1  0  0  0
 41114  1  0  0  0
 41115  1  0  0  0
 41 48  1  0  0  0
 42 43  1  0  0  0
 42 66  1  0  0  0
 42116  1  0  0  0
 42117  1  0  0  0
 43 44  1  0  0  0
 44118  1  0  0  0
 45 46  2  0  0  0
 45119  1  0  0  0
 46120  1  0  0  0
 47121  1  0  0  0
 47122  1  0  0  0
 48 56  1  0  0  0
 48 65  1  0  0  0
 48123  1  0  0  0
 49 50  1  0  0  0
 49 53  1  0  0  0
 49 64  1  0  0  0
 49124  1  0  0  0
 50 51  1  0  0  0
 50125  1  0  0  0
 50126  1  0  0  0
 51 52  1  0  0  0
 51127  1  0  0  0
 51128  1  0  0  0
 52129  1  0  0  0
 52130  1  0  0  0
 53 54  1  0  0  0
 54 55  2  0  0  0
 54131  1  0  0  0
 55 57  1  0  0  0
 55132  1  0  0  0
 56 69  2  0  0  0
 57 58  2  0  0  0
 57133  1  0  0  0
 58134  1  0  0  0
 59 60  1  0  0  0
 59 61  1  0  0  0
 59 62  1  0  0  0
 60135  1  0  0  0
 60136  1  0  0  0
 60137  1  0  0  0
 61138  1  0  0  0
 61139  1  0  0  0
 61140  1  0  0  0
 62141  1  0  0  0
 62142  1  0  0  0
 62143  1  0  0  0
 63 65  1  0  0  0
 63144  1  0  0  0
 63145  1  0  0  0
 63146  1  0  0  0
 64147  1  0  0  0
 65148  1  0  0  0
 68 81  1  0  0  0
 71 73  2  0  0  0
 71 74  1  0  0  0
 71149  1  0  0  0
 72 73  1  0  0  0
 72 76  2  0  0  0
 72150  1  0  0  0
 73 79  1  0  0  0
 74 75  2  0  0  0
 74 87  1  0  0  0
 75 76  1  0  0  0
 75 82  1  0  0  0
 76 88  1  0  0  0
 77 78  1  0  0  0
 77 79  1  0  0  0
 77151  1  0  0  0
 77152  1  0  0  0
 78 81  1  0  0  0
 78153  1  0  0  0
 78154  1  0  0  0
 79 80  1  0  0  0
 79155  1  0  0  0
 80 81  1  0  0  0
 80 83  1  0  0  0
 80156  1  0  0  0
 81 84  1  0  0  0
 82157  1  0  0  0
 82158  1  0  0  0
 82159  1  0  0  0
 83160  1  0  0  0
 83161  1  0  0  0
 83162  1  0  0  0
 84163  1  0  0  0
 84164  1  0  0  0
 84165  1  0  0  0
 85166  1  0  0  0
 85167  1  0  0  0
 85168  1  0  0  0
 85 87  1  0  0  0
 86 88  1  0  0  0
 86169  1  0  0  0
 86170  1  0  0  0
 86171  1  0  0  0
 87 89  1  0  0  0
 87172  1  0  0  0
 88173  1  0  0  0
 89174  1  0  0  0
M  ISO  4   1 100  68 101  81 101  89 100
M  END
> <chiral flag>
0

> <version>
0

> <s_m_source_file>
/data/baiqing/PycharmProjects/Reinvent-master-3.2/result/LINK_invent/BTK/process_docking_weight1_custom_sum_contain_oxygen_bond_distance_aromatic_linkinvent_7_9_3/rearranged_h_0167.sdf

> <i_m_source_file_index>
17

> <r_mmod_Potential_Energy-OPLS-2005>
203.611892700195

> <r_mmod_Stretch_Energy-OPLS-2005>
142.58625793457

> <r_mmod_Bend_Energy-OPLS-2005>
210.573150634766

> <r_mmod_Torsional_Energy-OPLS-2005>
299.202606201172

> <r_mmod_Improper_Torsional_Energy-OPLS-2005>
12.3321857452393

> <r_mmod_Van_der_Waal_Energy-OPLS-2005>
145.88346862793

> <r_mmod_Electrostatic_Energy-OPLS-2005>
-464.051544189453

> <r_mmod_Solvation_Energy-OPLS-2005>
-214.081649780273

> <b_mmod_Minimization_Converged-OPLS-2005>
0

> <r_mmod_RMS_Derivative-OPLS-2005>
8.36197853088379

$$$$
17
                    3D
 Structure written by MMmdl.
161171  0  0  1  0            999 V2000
  -30.5103  -15.0842   20.4613 C   0  0  0  0  0  0
  -30.4414  -12.6757   19.5729 C   0  0  0  0  0  0
  -29.5651  -12.5466   18.3026 C   0  0  0  0  0  0
  -28.0817  -12.3489   18.6742 C   0  0  0  0  0  0
  -27.6237  -13.2792   19.8300 C   0  0  2  0  0  0
  -28.6413  -13.3567   20.9876 C   0  0  0  0  0  0
  -25.2366  -13.8257   20.5673 C   0  0  0  0  0  0
  -24.1738  -13.0432   20.9176 C   0  0  0  0  0  0
  -24.6409  -11.6941   20.8655 C   0  0  0  0  0  0
  -23.9094  -10.4304   21.0334 C   0  0  0  0  0  0
  -24.3656   -9.4229   21.9124 C   0  0  0  0  0  0
  -23.6326   -8.2273   22.0725 C   0  0  0  0  0  0
  -22.4288   -8.0294   21.3533 C   0  0  0  0  0  0
  -21.9940   -9.0245   20.4600 C   0  0  0  0  0  0
  -22.7276  -10.2121   20.2977 C   0  0  0  0  0  0
  -21.6866   -6.0735   22.5289 C   0  0  0  0  0  0
  -21.4039   -6.5634   23.8227 C   0  0  0  0  0  0
  -21.3675   -5.6782   24.9186 C   0  0  0  0  0  0
  -21.6051   -4.3040   24.7234 C   0  0  0  0  0  0
  -21.8823   -3.8138   23.4354 C   0  0  0  0  0  0
  -21.9217   -4.6965   22.3413 C   0  0  0  0  0  0
  -22.7754  -13.5145   21.1906 C   0  0  0  0  0  0
  -22.1680   -4.2156   21.0991 F   0  0  0  0  0  0
  -21.5627   -3.4514   25.7742 F   0  0  0  0  0  0
  -29.9195  -13.8051   20.4173 N   0  0  0  0  0  0
  -26.2829  -12.9582   20.3105 N   0  0  0  0  0  0
  -25.9331  -11.6671   20.5587 N   0  0  0  0  0  0
  -22.0455  -12.8066   22.0432 N   0  0  0  0  0  0
  -25.3910  -15.2027   20.4219 N   0  0  0  0  0  0
  -31.7100  -15.1003   20.1605 O   0  0  0  0  0  0
  -21.6645   -6.8889   21.4260 O   0  0  0  0  0  0
  -22.3398  -14.5470   20.6796 O   0  0  0  0  0  0
  -24.6496  -31.8328   23.1773 C   0  0  0  0  0  0
  -25.9234  -32.4635   23.8212 C   0  0  1  0  0  0
  -27.2155  -27.0278   20.1791 C   0  0  0  0  0  0
  -25.5939  -33.8444   24.2114 N   0  0  0  0  0  0
  -23.4580  -30.4442   21.5229 C   0  0  2  0  0  0
  -24.9135  -28.8510   20.1017 C   0  0  0  0  0  0
  -22.7595  -29.4469   22.4797 C   0  0  0  0  0  0
  -18.0291  -28.1400   22.8477 C   0  0  0  0  0  0
  -24.1492  -36.7224   23.2651 C   0  0  0  0  0  0
  -26.0178  -30.6721   21.3925 C   0  0  0  0  0  0
  -26.0880  -29.2712   20.7381 C   0  0  0  0  0  0
  -27.2329  -28.3743   20.7589 C   0  0  0  0  0  0
  -26.0248  -26.7344   19.4814 C   0  0  0  0  0  0
  -24.9033  -27.6019   19.4524 C   0  0  0  0  0  0
  -23.6911  -29.7649   20.1442 C   0  0  0  0  0  0
  -25.4132  -36.2997   24.0306 C   0  0  1  0  0  0
  -20.5913  -28.3742   23.1216 C   0  0  2  0  0  0
  -20.6765  -26.9424   22.5429 C   0  0  0  0  0  0
  -19.5752  -26.6376   21.5220 C   0  0  0  0  0  0
  -18.1926  -26.7940   22.1619 C   0  0  0  0  0  0
  -19.1554  -28.8889   23.2839 C   0  0  0  0  0  0
  -18.9474  -30.1474   23.8881 C   0  0  0  0  0  0
  -17.6471  -30.6599   24.0560 C   0  0  0  0  0  0
  -25.9091  -34.9374   23.5041 C   0  0  0  0  0  0
  -16.5358  -29.9094   23.6327 C   0  0  0  0  0  0
  -16.7277  -28.6503   23.0369 C   0  0  0  0  0  0
  -26.4529  -31.6543   25.0692 C   0  0  0  0  0  0
  -25.3676  -31.3752   26.1352 C   0  0  0  0  0  0
  -27.0426  -30.2928   24.6354 C   0  0  0  0  0  0
  -27.6038  -32.4317   25.7494 C   0  0  0  0  0  0
  -27.5576  -37.1775   24.8458 C   0  0  0  0  0  0
  -21.4274  -29.3037   22.3570 N   0  0  0  0  0  0
  -26.4278  -37.3729   23.9406 N   0  0  0  0  0  0
  -24.7283  -31.0082   22.0859 N   0  0  0  0  0  0
  -23.4182  -28.8034   23.3005 O   0  0  0  0  0  0
  -28.2471  -25.9984   20.3271 O   0  0  0  0  0  0
  -26.5710  -34.8892   22.4632 O   0  0  0  0  0  0
  -23.5595  -32.1252   23.6928 O   0  0  0  0  0  0
  -28.5683  -18.6225   17.9822 C   0  0  0  0  0  0
  -29.3244  -19.1422   20.5470 C   0  0  0  0  0  0
  -29.3056  -17.6196   18.6379 C   0  0  0  0  0  0
  -28.7600  -20.3387   19.7812 C   0  0  0  0  0  0
  -28.2213  -19.8716   18.5415 C   0  0  0  0  0  0
  -29.5411  -17.7127   20.0304 C   0  0  0  0  0  0
  -31.2429  -16.3612   17.4648 C   0  0  0  0  0  0
  -30.2345  -16.5803   16.3724 C   0  0  0  0  0  0
  -27.4423  -23.1373   20.3490 C   0  0  0  0  0  0
  -29.4605  -23.3992   20.2813 C   0  0  0  0  0  0
  -29.7673  -16.4524   17.8088 C   0  0  0  0  0  0
  -28.6080  -22.0578   19.9805 C   0  0  1  0  0  0
  -28.2727  -24.4542   19.8828 C   0  0  2  0  0  0
  -27.2177  -20.6843   17.7305 C   0  0  0  0  0  0
  -29.7946  -16.3232   20.7443 N   0  0  0  0  0  0
  -31.4841  -12.8263   19.2939 H   0  0  0  0  0  0
  -30.4251  -11.7456   20.1430 H   0  0  0  0  0  0
  -29.9086  -11.7144   17.6872 H   0  0  0  0  0  0
  -29.6898  -13.4336   17.6812 H   0  0  0  0  0  0
  -27.9510  -11.3080   18.9671 H   0  0  0  0  0  0
  -27.4587  -12.4954   17.7899 H   0  0  0  0  0  0
  -27.5698  -14.2753   19.3909 H   0  0  0  0  0  0
  -28.7369  -12.3898   21.4850 H   0  0  0  0  0  0
  -28.2950  -14.0624   21.7433 H   0  0  0  0  0  0
  -25.2837   -9.5719   22.4645 H   0  0  0  0  0  0
  -24.0059   -7.4662   22.7442 H   0  0  0  0  0  0
  -21.0895   -8.8736   19.8880 H   0  0  0  0  0  0
  -22.3752  -10.9617   19.6034 H   0  0  0  0  0  0
  -21.2019   -7.6129   23.9754 H   0  0  0  0  0  0
  -21.1502   -6.0486   25.9100 H   0  0  0  0  0  0
  -22.0583   -2.7591   23.2852 H   0  0  0  0  0  0
  -22.4139  -11.9761   22.4814 H   0  0  0  0  0  0
  -21.1030  -13.0957   22.2609 H   0  0  0  0  0  0
  -24.6054  -15.8342   20.5368 H   0  0  0  0  0  0
  -26.2379  -15.6744   20.1281 H   0  0  0  0  0  0
  -26.7285  -32.5205   23.0922 H   0  0  0  0  0  0
  -25.0022  -33.9556   25.0220 H   0  0  0  0  0  0
  -22.7664  -31.2726   21.3618 H   0  0  0  0  0  0
  -23.3777  -35.9531   23.3269 H   0  0  0  0  0  0
  -24.3573  -36.8906   22.2074 H   0  0  0  0  0  0
  -23.7230  -37.6386   23.6733 H   0  0  0  0  0  0
  -26.1836  -31.4214   20.6162 H   0  0  0  0  0  0
  -26.8832  -30.7281   22.0408 H   0  0  0  0  0  0
  -28.1180  -28.6878   21.2956 H   0  0  0  0  0  0
  -25.9348  -25.7766   18.9910 H   0  0  0  0  0  0
  -24.0141  -27.2800   18.9293 H   0  0  0  0  0  0
  -23.8265  -30.5366   19.3862 H   0  0  0  0  0  0
  -22.8052  -29.2072   19.8350 H   0  0  0  0  0  0
  -25.1335  -36.1810   25.0804 H   0  0  0  0  0  0
  -21.0001  -28.3357   24.1338 H   0  0  0  0  0  0
  -20.5608  -26.2373   23.3674 H   0  0  0  0  0  0
  -21.6641  -26.7387   22.1272 H   0  0  0  0  0  0
  -19.6920  -25.6279   21.1272 H   0  0  0  0  0  0
  -19.6696  -27.3171   20.6735 H   0  0  0  0  0  0
  -17.4205  -26.6689   21.4009 H   0  0  0  0  0  0
  -18.0309  -26.0079   22.9011 H   0  0  0  0  0  0
  -19.7948  -30.7283   24.2253 H   0  0  0  0  0  0
  -17.5027  -31.6278   24.5180 H   0  0  0  0  0  0
  -15.5360  -30.3010   23.7652 H   0  0  0  0  0  0
  -15.8675  -28.0814   22.7125 H   0  0  0  0  0  0
  -24.5918  -30.7029   25.7659 H   0  0  0  0  0  0
  -24.8796  -32.2939   26.4618 H   0  0  0  0  0  0
  -25.7936  -30.9044   27.0225 H   0  0  0  0  0  0
  -26.3094  -29.6610   24.1325 H   0  0  0  0  0  0
  -27.3962  -29.7257   25.4977 H   0  0  0  0  0  0
  -27.9020  -30.4123   23.9752 H   0  0  0  0  0  0
  -27.2639  -33.3665   26.1955 H   0  0  0  0  0  0
  -28.3932  -32.6778   25.0385 H   0  0  0  0  0  0
  -28.0611  -31.8506   26.5513 H   0  0  0  0  0  0
  -28.2559  -38.0102   24.7534 H   0  0  0  0  0  0
  -28.1109  -36.2633   24.6259 H   0  0  0  0  0  0
  -27.2294  -37.1381   25.8858 H   0  0  0  0  0  0
  -20.9495  -29.8765   21.6753 H   0  0  0  0  0  0
  -26.0132  -38.2780   24.1433 H   0  0  0  0  0  0
  -28.2329  -18.4012   16.9778 H   0  0  0  0  0  0
  -29.5977  -19.3225   21.5763 H   0  0  0  0  0  0
  -31.8708  -17.2059   17.7427 H   0  0  0  0  0  0
  -31.7283  -15.3887   17.5148 H   0  0  0  0  0  0
  -30.0787  -15.7357   15.7035 H   0  0  0  0  0  0
  -30.2224  -17.5578   15.8994 H   0  0  0  0  0  0
  -27.1975  -23.1351   21.4127 H   0  0  0  0  0  0
  -26.5295  -23.0034   19.7698 H   0  0  0  0  0  0
  -30.3417  -23.5048   19.6488 H   0  0  0  0  0  0
  -29.7590  -23.4763   21.3273 H   0  0  0  0  0  0
  -29.2152  -15.5520   18.0579 H   0  0  0  0  0  0
  -28.7193  -22.2030   18.9098 H   0  0  0  0  0  0
  -28.2092  -24.4922   18.7931 H   0  0  0  0  0  0
  -26.6370  -20.0384   17.0691 H   0  0  0  0  0  0
  -27.6972  -21.4389   17.1095 H   0  0  0  0  0  0
  -26.4950  -21.1657   18.3864 H   0  0  0  0  0  0
  -29.0555  -16.1301   21.4053 H   0  0  0  0  0  0
  1 25  1  0  0  0
  1 30  2  0  0  0
  1 85  1  0  0  0
  2  3  1  0  0  0
  2 25  1  0  0  0
  2 86  1  0  0  0
  2 87  1  0  0  0
  3  4  1  0  0  0
  3 88  1  0  0  0
  3 89  1  0  0  0
  4  5  1  0  0  0
  4 90  1  0  0  0
  4 91  1  0  0  0
  5  6  1  0  0  0
  5 26  1  0  0  0
  5 92  1  0  0  0
  6 25  1  0  0  0
  6 93  1  0  0  0
  6 94  1  0  0  0
  7  8  2  0  0  0
  7 26  1  0  0  0
  7 29  1  0  0  0
  8  9  1  0  0  0
  8 22  1  0  0  0
  9 10  1  0  0  0
  9 27  2  0  0  0
 10 11  2  0  0  0
 10 15  1  0  0  0
 11 12  1  0  0  0
 11 95  1  0  0  0
 12 13  2  0  0  0
 12 96  1  0  0  0
 13 14  1  0  0  0
 13 31  1  0  0  0
 14 15  2  0  0  0
 14 97  1  0  0  0
 15 98  1  0  0  0
 16 17  2  0  0  0
 16 21  1  0  0  0
 16 31  1  0  0  0
 17 18  1  0  0  0
 17 99  1  0  0  0
 18 19  2  0  0  0
 18100  1  0  0  0
 19 20  1  0  0  0
 19 24  1  0  0  0
 20 21  2  0  0  0
 20101  1  0  0  0
 21 23  1  0  0  0
 22 28  1  0  0  0
 22 32  2  0  0  0
 26 27  1  0  0  0
 28102  1  0  0  0
 28103  1  0  0  0
 29104  1  0  0  0
 29105  1  0  0  0
 33 34  1  0  0  0
 33 66  1  0  0  0
 33 70  2  0  0  0
 34 36  1  0  0  0
 34 59  1  0  0  0
 34106  1  0  0  0
 35 44  2  0  0  0
 35 45  1  0  0  0
 35 68  1  0  0  0
 36 56  1  0  0  0
 36107  1  0  0  0
 37 39  1  0  0  0
 37 47  1  0  0  0
 37 66  1  0  0  0
 37108  1  0  0  0
 38 43  2  0  0  0
 38 46  1  0  0  0
 38 47  1  0  0  0
 39 64  1  0  0  0
 39 67  2  0  0  0
 40 52  1  0  0  0
 40 53  2  0  0  0
 40 58  1  0  0  0
 41109  1  0  0  0
 41110  1  0  0  0
 41111  1  0  0  0
 41 48  1  0  0  0
 42 43  1  0  0  0
 42 66  1  0  0  0
 42112  1  0  0  0
 42113  1  0  0  0
 43 44  1  0  0  0
 44114  1  0  0  0
 45 46  2  0  0  0
 45115  1  0  0  0
 46116  1  0  0  0
 47117  1  0  0  0
 47118  1  0  0  0
 48 56  1  0  0  0
 48 65  1  0  0  0
 48119  1  0  0  0
 49 50  1  0  0  0
 49 53  1  0  0  0
 49 64  1  0  0  0
 49120  1  0  0  0
 50 51  1  0  0  0
 50121  1  0  0  0
 50122  1  0  0  0
 51 52  1  0  0  0
 51123  1  0  0  0
 51124  1  0  0  0
 52125  1  0  0  0
 52126  1  0  0  0
 53 54  1  0  0  0
 54 55  2  0  0  0
 54127  1  0  0  0
 55 57  1  0  0  0
 55128  1  0  0  0
 56 69  2  0  0  0
 57 58  2  0  0  0
 57129  1  0  0  0
 58130  1  0  0  0
 59 60  1  0  0  0
 59 61  1  0  0  0
 59 62  1  0  0  0
 60131  1  0  0  0
 60132  1  0  0  0
 60133  1  0  0  0
 61134  1  0  0  0
 61135  1  0  0  0
 61136  1  0  0  0
 62137  1  0  0  0
 62138  1  0  0  0
 62139  1  0  0  0
 63 65  1  0  0  0
 63140  1  0  0  0
 63141  1  0  0  0
 63142  1  0  0  0
 64143  1  0  0  0
 65144  1  0  0  0
 68 83  1  0  0  0
 71 73  2  0  0  0
 71 75  1  0  0  0
 71145  1  0  0  0
 72 74  1  0  0  0
 72 76  2  0  0  0
 72146  1  0  0  0
 73 76  1  0  0  0
 73 81  1  0  0  0
 74 75  2  0  0  0
 74 82  1  0  0  0
 75 84  1  0  0  0
 76 85  1  0  0  0
 77 78  1  0  0  0
 77 81  1  0  0  0
 77147  1  0  0  0
 77148  1  0  0  0
 78 81  1  0  0  0
 78149  1  0  0  0
 78150  1  0  0  0
 79 82  1  0  0  0
 79 83  1  0  0  0
 79151  1  0  0  0
 79152  1  0  0  0
 80 82  1  0  0  0
 80 83  1  0  0  0
 80153  1  0  0  0
 80154  1  0  0  0
 81155  1  0  0  0
 82156  1  0  0  0
 83157  1  0  0  0
 84158  1  0  0  0
 84159  1  0  0  0
 84160  1  0  0  0
 85161  1  0  0  0
M  ISO  4   1 100  68 101  83 101  85 100
M  END
> <chiral flag>
0

> <version>
0

> <s_m_source_file>
/data/baiqing/PycharmProjects/Reinvent-master-3.2/result/LINK_invent/BTK/process_docking_weight1_custom_sum_contain_oxygen_bond_distance_aromatic_linkinvent_7_9_3/rearranged_h_0167.sdf

> <i_m_source_file_index>
18

> <r_mmod_Potential_Energy-OPLS-2005>
1045.17626953125

> <r_mmod_Stretch_Energy-OPLS-2005>
398.818664550781

> <r_mmod_Bend_Energy-OPLS-2005>
471.441986083984

> <r_mmod_Torsional_Energy-OPLS-2005>
328.340728759766

> <r_mmod_Improper_Torsional_Energy-OPLS-2005>
4.26646757125854

> <r_mmod_Van_der_Waal_Energy-OPLS-2005>
139.589538574219

> <r_mmod_Electrostatic_Energy-OPLS-2005>
-392.666809082031

> <r_mmod_Solvation_Energy-OPLS-2005>
-205.422988891602

> <b_mmod_Minimization_Converged-OPLS-2005>
0

> <r_mmod_RMS_Derivative-OPLS-2005>
4.39473962783813

$$$$
18
                    3D
 Structure written by MMmdl.
174184  0  0  1  0            999 V2000
  -30.6744  -14.5905   20.4810 C   0  0  0  0  0  0
  -30.4143  -12.3640   19.4370 C   0  0  0  0  0  0
  -29.4923  -12.4949   18.2095 C   0  0  0  0  0  0
  -28.0239  -12.3358   18.6368 C   0  0  0  0  0  0
  -27.6482  -13.2232   19.8557 C   0  0  2  0  0  0
  -28.6927  -13.0914   20.9823 C   0  0  0  0  0  0
  -25.2555  -13.8206   20.5708 C   0  0  0  0  0  0
  -24.1844  -13.0481   20.9188 C   0  0  0  0  0  0
  -24.6396  -11.6924   20.8733 C   0  0  0  0  0  0
  -23.9067  -10.4322   21.0394 C   0  0  0  0  0  0
  -24.3608   -9.4233   21.9170 C   0  0  0  0  0  0
  -23.6298   -8.2255   22.0737 C   0  0  0  0  0  0
  -22.4294   -8.0271   21.3513 C   0  0  0  0  0  0
  -21.9908   -9.0274   20.4640 C   0  0  0  0  0  0
  -22.7231  -10.2156   20.3052 C   0  0  0  0  0  0
  -21.6864   -6.0721   22.5272 C   0  0  0  0  0  0
  -21.4023   -6.5634   23.8207 C   0  0  0  0  0  0
  -21.3659   -5.6796   24.9166 C   0  0  0  0  0  0
  -21.6064   -4.3056   24.7230 C   0  0  0  0  0  0
  -21.8827   -3.8135   23.4360 C   0  0  0  0  0  0
  -21.9209   -4.6950   22.3404 C   0  0  0  0  0  0
  -22.7854  -13.5234   21.1876 C   0  0  0  0  0  0
  -22.1683   -4.2113   21.0989 F   0  0  0  0  0  0
  -21.5618   -3.4542   25.7755 F   0  0  0  0  0  0
  -30.0012  -13.4044   20.3995 N   0  0  0  0  0  0
  -26.2983  -12.9408   20.3333 N   0  0  0  0  0  0
  -25.9320  -11.6562   20.5767 N   0  0  0  0  0  0
  -22.0499  -12.8211   22.0422 N   0  0  0  0  0  0
  -25.4336  -15.1932   20.4097 N   0  0  0  0  0  0
  -31.8746  -14.6460   20.1838 O   0  0  0  0  0  0
  -21.6658   -6.8855   21.4227 O   0  0  0  0  0  0
  -22.3533  -14.5551   20.6724 O   0  0  0  0  0  0
  -24.6196  -31.8661   23.2098 C   0  0  0  0  0  0
  -25.9045  -32.4829   23.8398 C   0  0  1  0  0  0
  -27.2183  -27.3798   20.1377 C   0  0  0  0  0  0
  -25.5859  -33.8632   24.2335 N   0  0  0  0  0  0
  -23.4101  -30.4876   21.5546 C   0  0  2  0  0  0
  -24.8510  -28.9453   20.1205 C   0  0  0  0  0  0
  -22.7420  -29.4656   22.5028 C   0  0  0  0  0  0
  -18.0245  -28.1358   22.8499 C   0  0  0  0  0  0
  -24.1478  -36.7322   23.2654 C   0  0  0  0  0  0
  -25.9410  -30.8178   21.3660 C   0  0  0  0  0  0
  -26.0150  -29.4491   20.7150 C   0  0  0  0  0  0
  -27.2085  -28.6808   20.7077 C   0  0  0  0  0  0
  -26.0435  -26.9079   19.5231 C   0  0  0  0  0  0
  -24.8643  -27.6789   19.5130 C   0  0  0  0  0  0
  -23.6161  -29.8226   20.1692 C   0  0  0  0  0  0
  -25.4097  -36.3143   24.0370 C   0  0  1  0  0  0
  -20.5843  -28.3654   23.1311 C   0  0  2  0  0  0
  -20.6740  -26.9376   22.5419 C   0  0  0  0  0  0
  -19.5720  -26.6368   21.5214 C   0  0  0  0  0  0
  -18.1903  -26.7900   22.1628 C   0  0  0  0  0  0
  -19.1505  -28.8814   23.2905 C   0  0  0  0  0  0
  -18.9429  -30.1419   23.8905 C   0  0  0  0  0  0
  -17.6440  -30.6570   24.0555 C   0  0  0  0  0  0
  -25.9022  -34.9493   23.5178 C   0  0  0  0  0  0
  -16.5323  -29.9071   23.6325 C   0  0  0  0  0  0
  -16.7239  -28.6476   23.0352 C   0  0  0  0  0  0
  -26.4446  -31.6595   25.0721 C   0  0  0  0  0  0
  -25.3693  -31.3692   26.1458 C   0  0  0  0  0  0
  -27.0285  -30.3036   24.6119 C   0  0  0  0  0  0
  -27.6053  -32.4304   25.7458 C   0  0  0  0  0  0
  -27.5596  -37.1828   24.8472 C   0  0  0  0  0  0
  -21.4129  -29.3023   22.3718 N   0  0  0  0  0  0
  -26.4304  -37.3808   23.9422 N   0  0  0  0  0  0
  -24.6766  -31.0728   22.1016 N   0  0  0  0  0  0
  -23.4141  -28.8189   23.3101 O   0  0  0  0  0  0
  -28.3566  -26.5949   20.0533 O   0  0  0  0  0  0
  -26.5595  -34.8965   22.4746 O   0  0  0  0  0  0
  -23.5377  -32.1406   23.7469 O   0  0  0  0  0  0
  -28.5917  -20.1109   20.5448 C   0  0  0  0  0  0
  -29.7154  -20.9730   20.3136 C   0  0  0  0  0  0
  -29.5859  -22.4031   20.4713 C   0  0  0  0  0  0
  -28.3429  -22.9478   20.9192 C   0  0  0  0  0  0
  -27.4079  -20.7846   20.9491 C   0  0  0  0  0  0
  -29.1323  -25.4755   23.5141 C   0  0  0  0  0  0
  -28.3156  -24.2629   23.0649 C   0  0  0  0  0  0
  -28.8263  -26.5445   22.4861 C   0  0  0  0  0  0
  -29.2717  -17.8684   19.1284 C   0  0  0  0  0  0
  -28.6226  -17.6293   21.6241 C   0  0  0  0  0  0
  -30.3195  -16.7530   19.4277 C   0  0  0  0  0  0
  -29.7202  -16.5152   21.7061 C   0  0  0  0  0  0
  -28.5788  -18.5330   20.3518 C   0  0  0  0  0  0
  -28.0718  -24.3769   21.5369 C   0  0  1  0  0  0
  -28.7789  -25.7560   21.1644 C   0  0  2  0  0  0
  -31.0689  -20.3688   19.9414 C   0  0  0  0  0  0
  -30.7666  -23.3339   20.1903 C   0  0  0  0  0  0
  -27.2935  -22.1135   21.1172 N   0  0  0  0  0  0
  -29.9308  -15.7528   20.4563 N   0  0  0  0  0  0
  -26.2299  -20.1108   21.2377 N   0  0  0  0  0  0
  -31.4569  -12.4648   19.1258 H   0  0  0  0  0  0
  -30.3212  -11.3719   19.8845 H   0  0  0  0  0  0
  -29.7457  -11.7456   17.4570 H   0  0  0  0  0  0
  -29.6381  -13.4674   17.7341 H   0  0  0  0  0  0
  -27.8794  -11.2842   18.8975 H   0  0  0  0  0  0
  -27.3570  -12.5305   17.7977 H   0  0  0  0  0  0
  -27.6643  -14.2568   19.5063 H   0  0  0  0  0  0
  -28.6926  -12.0769   21.3851 H   0  0  0  0  0  0
  -28.4603  -13.7528   21.8148 H   0  0  0  0  0  0
  -25.2738   -9.5715   22.4748 H   0  0  0  0  0  0
  -24.0005   -7.4655   22.7464 H   0  0  0  0  0  0
  -21.0825   -8.8851   19.8940 H   0  0  0  0  0  0
  -22.3716  -10.9721   19.6172 H   0  0  0  0  0  0
  -21.2016   -7.6139   23.9691 H   0  0  0  0  0  0
  -21.1461   -6.0517   25.9064 H   0  0  0  0  0  0
  -22.0593   -2.7581   23.2896 H   0  0  0  0  0  0
  -22.4138  -11.9848   22.4783 H   0  0  0  0  0  0
  -21.1111  -13.1209   22.2642 H   0  0  0  0  0  0
  -24.6733  -15.8556   20.5134 H   0  0  0  0  0  0
  -26.2978  -15.6167   20.0971 H   0  0  0  0  0  0
  -26.7119  -32.5533   23.1169 H   0  0  0  0  0  0
  -25.0009  -33.9774   25.0483 H   0  0  0  0  0  0
  -22.7039  -31.3090   21.4202 H   0  0  0  0  0  0
  -23.3769  -35.9631   23.3322 H   0  0  0  0  0  0
  -24.3571  -36.8904   22.2066 H   0  0  0  0  0  0
  -23.7183  -37.6527   23.6625 H   0  0  0  0  0  0
  -26.0594  -31.5805   20.5961 H   0  0  0  0  0  0
  -26.8277  -30.8664   21.9850 H   0  0  0  0  0  0
  -28.1164  -29.0797   21.1377 H   0  0  0  0  0  0
  -26.0449  -25.9398   19.0395 H   0  0  0  0  0  0
  -23.9728  -27.2907   19.0427 H   0  0  0  0  0  0
  -23.7160  -30.5977   19.4079 H   0  0  0  0  0  0
  -22.7333  -29.2481   19.8838 H   0  0  0  0  0  0
  -25.1275  -36.2066   25.0866 H   0  0  0  0  0  0
  -20.9949  -28.3229   24.1433 H   0  0  0  0  0  0
  -20.5618  -26.2265   23.3621 H   0  0  0  0  0  0
  -21.6623  -26.7399   22.1237 H   0  0  0  0  0  0
  -19.6890  -25.6286   21.1233 H   0  0  0  0  0  0
  -19.6669  -27.3191   20.6765 H   0  0  0  0  0  0
  -17.4170  -26.6625   21.4037 H   0  0  0  0  0  0
  -18.0299  -26.0026   22.9008 H   0  0  0  0  0  0
  -19.7896  -30.7218   24.2303 H   0  0  0  0  0  0
  -17.4983  -31.6271   24.5126 H   0  0  0  0  0  0
  -15.5321  -30.2984   23.7643 H   0  0  0  0  0  0
  -15.8622  -28.0815   22.7080 H   0  0  0  0  0  0
  -24.5872  -30.7036   25.7775 H   0  0  0  0  0  0
  -24.8857  -32.2819   26.4958 H   0  0  0  0  0  0
  -25.8016  -30.8819   27.0200 H   0  0  0  0  0  0
  -26.2834  -29.6823   24.1125 H   0  0  0  0  0  0
  -27.3976  -29.7272   25.4622 H   0  0  0  0  0  0
  -27.8711  -30.4387   23.9331 H   0  0  0  0  0  0
  -27.2707  -33.3608   26.2082 H   0  0  0  0  0  0
  -28.3801  -32.6857   25.0203 H   0  0  0  0  0  0
  -28.0764  -31.8366   26.5312 H   0  0  0  0  0  0
  -28.2653  -38.0096   24.7519 H   0  0  0  0  0  0
  -28.1056  -36.2637   24.6303 H   0  0  0  0  0  0
  -27.2306  -37.1483   25.8871 H   0  0  0  0  0  0
  -20.9265  -29.8743   21.6944 H   0  0  0  0  0  0
  -26.0242  -38.2926   24.1351 H   0  0  0  0  0  0
  -30.1935  -25.2228   23.4749 H   0  0  0  0  0  0
  -28.8862  -25.7956   24.5261 H   0  0  0  0  0  0
  -27.3693  -24.2148   23.6024 H   0  0  0  0  0  0
  -28.8651  -23.3552   23.3324 H   0  0  0  0  0  0
  -29.5609  -27.3510   22.4999 H   0  0  0  0  0  0
  -27.8646  -26.9871   22.7362 H   0  0  0  0  0  0
  -28.4959  -17.4104   18.5135 H   0  0  0  0  0  0
  -29.6971  -18.6169   18.4627 H   0  0  0  0  0  0
  -27.6620  -17.1156   21.6762 H   0  0  0  0  0  0
  -28.6599  -18.2530   22.5215 H   0  0  0  0  0  0
  -31.2726  -17.1880   19.7275 H   0  0  0  0  0  0
  -30.5197  -16.2464   18.4800 H   0  0  0  0  0  0
  -29.4563  -15.8288   22.5106 H   0  0  0  0  0  0
  -30.6669  -16.9614   22.0114 H   0  0  0  0  0  0
  -27.5453  -18.4030   20.0223 H   0  0  0  0  0  0
  -27.0027  -24.5596   21.3894 H   0  0  0  0  0  0
  -29.8242  -25.5572   20.9623 H   0  0  0  0  0  0
  -31.1639  -19.3560   20.3156 H   0  0  0  0  0  0
  -31.9066  -20.8941   20.3973 H   0  0  0  0  0  0
  -31.2063  -20.3566   18.8573 H   0  0  0  0  0  0
  -30.4520  -24.0961   19.4812 H   0  0  0  0  0  0
  -31.6334  -22.8765   19.7204 H   0  0  0  0  0  0
  -31.1192  -23.8121   21.1053 H   0  0  0  0  0  0
  -25.3890  -20.6021   21.5160 H   0  0  0  0  0  0
  -26.1540  -19.1031   21.1908 H   0  0  0  0  0  0
  1 25  1  0  0  0
  1 30  2  0  0  0
  1 89  1  0  0  0
  2  3  1  0  0  0
  2 25  1  0  0  0
  2 91  1  0  0  0
  2 92  1  0  0  0
  3  4  1  0  0  0
  3 93  1  0  0  0
  3 94  1  0  0  0
  4  5  1  0  0  0
  4 95  1  0  0  0
  4 96  1  0  0  0
  5  6  1  0  0  0
  5 26  1  0  0  0
  5 97  1  0  0  0
  6 25  1  0  0  0
  6 98  1  0  0  0
  6 99  1  0  0  0
  7  8  2  0  0  0
  7 26  1  0  0  0
  7 29  1  0  0  0
  8  9  1  0  0  0
  8 22  1  0  0  0
  9 10  1  0  0  0
  9 27  2  0  0  0
 10 11  2  0  0  0
 10 15  1  0  0  0
 11 12  1  0  0  0
 11100  1  0  0  0
 12 13  2  0  0  0
 12101  1  0  0  0
 13 14  1  0  0  0
 13 31  1  0  0  0
 14 15  2  0  0  0
 14102  1  0  0  0
 15103  1  0  0  0
 16 17  2  0  0  0
 16 21  1  0  0  0
 16 31  1  0  0  0
 17 18  1  0  0  0
 17104  1  0  0  0
 18 19  2  0  0  0
 18105  1  0  0  0
 19 20  1  0  0  0
 19 24  1  0  0  0
 20 21  2  0  0  0
 20106  1  0  0  0
 21 23  1  0  0  0
 22 28  1  0  0  0
 22 32  2  0  0  0
 26 27  1  0  0  0
 28107  1  0  0  0
 28108  1  0  0  0
 29109  1  0  0  0
 29110  1  0  0  0
 33 34  1  0  0  0
 33 66  1  0  0  0
 33 70  2  0  0  0
 34 36  1  0  0  0
 34 59  1  0  0  0
 34111  1  0  0  0
 35 44  2  0  0  0
 35 45  1  0  0  0
 35 68  1  0  0  0
 36 56  1  0  0  0
 36112  1  0  0  0
 37 39  1  0  0  0
 37 47  1  0  0  0
 37 66  1  0  0  0
 37113  1  0  0  0
 38 43  2  0  0  0
 38 46  1  0  0  0
 38 47  1  0  0  0
 39 64  1  0  0  0
 39 67  2  0  0  0
 40 52  1  0  0  0
 40 53  2  0  0  0
 40 58  1  0  0  0
 41114  1  0  0  0
 41115  1  0  0  0
 41116  1  0  0  0
 41 48  1  0  0  0
 42 43  1  0  0  0
 42 66  1  0  0  0
 42117  1  0  0  0
 42118  1  0  0  0
 43 44  1  0  0  0
 44119  1  0  0  0
 45 46  2  0  0  0
 45120  1  0  0  0
 46121  1  0  0  0
 47122  1  0  0  0
 47123  1  0  0  0
 48 56  1  0  0  0
 48 65  1  0  0  0
 48124  1  0  0  0
 49 50  1  0  0  0
 49 53  1  0  0  0
 49 64  1  0  0  0
 49125  1  0  0  0
 50 51  1  0  0  0
 50126  1  0  0  0
 50127  1  0  0  0
 51 52  1  0  0  0
 51128  1  0  0  0
 51129  1  0  0  0
 52130  1  0  0  0
 52131  1  0  0  0
 53 54  1  0  0  0
 54 55  2  0  0  0
 54132  1  0  0  0
 55 57  1  0  0  0
 55133  1  0  0  0
 56 69  2  0  0  0
 57 58  2  0  0  0
 57134  1  0  0  0
 58135  1  0  0  0
 59 60  1  0  0  0
 59 61  1  0  0  0
 59 62  1  0  0  0
 60136  1  0  0  0
 60137  1  0  0  0
 60138  1  0  0  0
 61139  1  0  0  0
 61140  1  0  0  0
 61141  1  0  0  0
 62142  1  0  0  0
 62143  1  0  0  0
 62144  1  0  0  0
 63 65  1  0  0  0
 63145  1  0  0  0
 63146  1  0  0  0
 63147  1  0  0  0
 64148  1  0  0  0
 65149  1  0  0  0
 68 85  1  0  0  0
 71 72  2  0  0  0
 71 75  1  0  0  0
 71 83  1  0  0  0
 72 73  1  0  0  0
 72 86  1  0  0  0
 73 74  2  0  0  0
 73 87  1  0  0  0
 74 88  1  0  0  0
 74 84  1  0  0  0
 75 88  2  0  0  0
 75 90  1  0  0  0
 76 77  1  0  0  0
 76 78  1  0  0  0
 76150  1  0  0  0
 76151  1  0  0  0
 77 84  1  0  0  0
 77152  1  0  0  0
 77153  1  0  0  0
 78 85  1  0  0  0
 78154  1  0  0  0
 78155  1  0  0  0
 79 81  1  0  0  0
 79 83  1  0  0  0
 79156  1  0  0  0
 79157  1  0  0  0
 80 82  1  0  0  0
 80 83  1  0  0  0
 80158  1  0  0  0
 80159  1  0  0  0
 81 89  1  0  0  0
 81160  1  0  0  0
 81161  1  0  0  0
 82 89  1  0  0  0
 82162  1  0  0  0
 82163  1  0  0  0
 83164  1  0  0  0
 84 85  1  0  0  0
 84165  1  0  0  0
 85166  1  0  0  0
 86167  1  0  0  0
 86168  1  0  0  0
 86169  1  0  0  0
 87170  1  0  0  0
 87171  1  0  0  0
 87172  1  0  0  0
 90173  1  0  0  0
 90174  1  0  0  0
M  ISO  4   1 100  68 101  85 101  89 100
M  END
> <chiral flag>
0

> <version>
0

> <s_m_source_file>
/data/baiqing/PycharmProjects/Reinvent-master-3.2/result/LINK_invent/BTK/process_docking_weight1_custom_sum_contain_oxygen_bond_distance_aromatic_linkinvent_7_9_3/rearranged_h_0167.sdf

> <i_m_source_file_index>
19

> <r_mmod_Potential_Energy-OPLS-2005>
214.202789306641

> <r_mmod_Stretch_Energy-OPLS-2005>
77.4207229614258

> <r_mmod_Bend_Energy-OPLS-2005>
251.23291015625

> <r_mmod_Torsional_Energy-OPLS-2005>
400.665710449219

> <r_mmod_Improper_Torsional_Energy-OPLS-2005>
20.1848945617676

> <r_mmod_Van_der_Waal_Energy-OPLS-2005>
155.73664855957

> <r_mmod_Electrostatic_Energy-OPLS-2005>
-513.681030273438

> <r_mmod_Solvation_Energy-OPLS-2005>
-210.023361206055

> <b_mmod_Minimization_Converged-OPLS-2005>
0

> <r_mmod_RMS_Derivative-OPLS-2005>
6.32871198654175

$$$$
19
                    3D
 Structure written by MMmdl.
164174  0  0  1  0            999 V2000
  -30.6325  -14.8168   20.4667 C   0  0  0  0  0  0
  -30.4299  -12.5331   19.4599 C   0  0  0  0  0  0
  -29.5080  -12.5091   18.2253 C   0  0  0  0  0  0
  -28.0410  -12.3248   18.6516 C   0  0  0  0  0  0
  -27.6313  -13.2374   19.8376 C   0  0  2  0  0  0
  -28.6813  -13.2421   20.9702 C   0  0  0  0  0  0
  -25.2428  -13.8075   20.5656 C   0  0  0  0  0  0
  -24.1766  -13.0402   20.9230 C   0  0  0  0  0  0
  -24.6375  -11.6879   20.8759 C   0  0  0  0  0  0
  -23.9051  -10.4303   21.0404 C   0  0  0  0  0  0
  -24.3585   -9.4213   21.9179 C   0  0  0  0  0  0
  -23.6262   -8.2261   22.0766 C   0  0  0  0  0  0
  -22.4274   -8.0280   21.3543 C   0  0  0  0  0  0
  -21.9895   -9.0263   20.4668 C   0  0  0  0  0  0
  -22.7209  -10.2135   20.3073 C   0  0  0  0  0  0
  -21.6896   -6.0721   22.5232 C   0  0  0  0  0  0
  -21.4052   -6.5624   23.8154 C   0  0  0  0  0  0
  -21.3640   -5.6757   24.9096 C   0  0  0  0  0  0
  -21.6018   -4.3023   24.7172 C   0  0  0  0  0  0
  -21.8827   -3.8135   23.4302 C   0  0  0  0  0  0
  -21.9220   -4.6953   22.3356 C   0  0  0  0  0  0
  -22.7780  -13.5221   21.1786 C   0  0  0  0  0  0
  -22.1683   -4.2148   21.0939 F   0  0  0  0  0  0
  -21.5600   -3.4497   25.7678 F   0  0  0  0  0  0
  -29.9585  -13.6170   20.3604 N   0  0  0  0  0  0
  -26.2898  -12.9349   20.3249 N   0  0  0  0  0  0
  -25.9307  -11.6506   20.5740 N   0  0  0  0  0  0
  -22.0343  -12.8384   22.0359 N   0  0  0  0  0  0
  -25.3939  -15.1722   20.3811 N   0  0  0  0  0  0
  -31.8398  -14.8312   20.1995 O   0  0  0  0  0  0
  -21.6675   -6.8859   21.4202 O   0  0  0  0  0  0
  -22.3536  -14.5515   20.6478 O   0  0  0  0  0  0
  -24.6302  -31.8626   23.1945 C   0  0  0  0  0  0
  -25.9015  -32.5016   23.8397 C   0  0  1  0  0  0
  -27.2298  -27.2131   20.1936 C   0  0  0  0  0  0
  -25.5961  -33.9193   24.1730 N   0  0  0  0  0  0
  -23.4371  -30.4734   21.5367 C   0  0  2  0  0  0
  -24.8876  -28.8903   20.1289 C   0  0  0  0  0  0
  -22.7515  -29.4600   22.4851 C   0  0  0  0  0  0
  -18.0297  -28.1395   22.8490 C   0  0  0  0  0  0
  -24.0027  -36.6316   23.5020 C   0  0  0  0  0  0
  -25.9882  -30.7412   21.3874 C   0  0  0  0  0  0
  -26.0540  -29.3523   20.7554 C   0  0  0  0  0  0
  -27.2279  -28.5282   20.7750 C   0  0  0  0  0  0
  -26.0338  -26.8032   19.5713 C   0  0  0  0  0  0
  -24.8828  -27.6160   19.5307 C   0  0  0  0  0  0
  -23.6622  -29.7921   20.1585 C   0  0  0  0  0  0
  -25.5083  -36.4005   23.5528 C   0  0  1  0  0  0
  -20.5918  -28.3702   23.1221 C   0  0  2  0  0  0
  -20.6783  -26.9419   22.5354 C   0  0  0  0  0  0
  -19.5731  -26.6350   21.5217 C   0  0  0  0  0  0
  -18.1928  -26.7930   22.1642 C   0  0  0  0  0  0
  -19.1567  -28.8871   23.2843 C   0  0  0  0  0  0
  -18.9506  -30.1484   23.8845 C   0  0  0  0  0  0
  -17.6491  -30.6588   24.0615 C   0  0  0  0  0  0
  -25.9839  -34.9408   23.3797 C   0  0  0  0  0  0
  -16.5373  -29.9082   23.6399 C   0  0  0  0  0  0
  -16.7288  -28.6527   23.0357 C   0  0  0  0  0  0
  -26.4358  -31.6923   25.0873 C   0  0  0  0  0  0
  -25.3587  -31.4104   26.1581 C   0  0  0  0  0  0
  -27.0291  -30.3324   24.6461 C   0  0  0  0  0  0
  -27.5878  -32.4688   25.7612 C   0  0  0  0  0  0
  -27.6207  -37.0667   24.7528 C   0  0  0  0  0  0
  -21.4211  -29.3063   22.3595 N   0  0  0  0  0  0
  -26.2441  -37.3641   24.3877 N   0  0  0  0  0  0
  -24.7064  -31.0484   22.0961 N   0  0  0  0  0  0
  -23.4208  -28.8111   23.2939 O   0  0  0  0  0  0
  -28.3327  -26.3259   20.1961 O   0  0  0  0  0  0
  -26.7164  -34.7469   22.4122 O   0  0  0  0  0  0
  -23.5433  -32.1398   23.7180 O   0  0  0  0  0  0
  -26.2263  -20.6130   21.2415 C   0  0  0  0  0  0
  -28.8310  -20.8265   20.3777 C   0  0  0  0  0  0
  -26.6554  -21.8844   20.8393 C   0  0  0  0  0  0
  -28.3422  -19.4660   20.6707 C   0  0  0  0  0  0
  -26.9814  -19.4440   21.1087 C   0  0  0  0  0  0
  -28.0142  -22.0614   20.4485 C   0  0  0  0  0  0
  -24.6232  -23.1864   21.9181 C   0  0  0  0  0  0
  -24.0967  -22.6224   20.6140 C   0  0  0  0  0  0
  -30.5293  -17.4594   20.6647 C   0  0  0  0  0  0
  -28.6580  -16.6139   20.8990 C   0  0  0  0  0  0
  -25.5752  -22.9561   20.7689 C   0  0  0  0  0  0
  -29.0970  -18.0422   20.3772 C   0  0  0  0  0  0
  -26.1510  -18.1886   21.3166 C   0  0  0  0  0  0
  -28.4789  -23.5286   19.9510 C   0  0  0  0  0  0
  -28.1936  -24.9311   20.7694 C   0  0  0  0  0  0
  -29.9918  -16.0584   20.5951 N   0  0  0  0  0  0
  -31.4599  -12.6841   19.1321 H   0  0  0  0  0  0
  -30.4164  -11.5709   19.9688 H   0  0  0  0  0  0
  -29.8080  -11.6923   17.5651 H   0  0  0  0  0  0
  -29.6213  -13.4313   17.6510 H   0  0  0  0  0  0
  -27.9185  -11.2795   18.9322 H   0  0  0  0  0  0
  -27.3819  -12.4947   17.8023 H   0  0  0  0  0  0
  -27.5984  -14.2399   19.4152 H   0  0  0  0  0  0
  -28.7635  -12.2681   21.4541 H   0  0  0  0  0  0
  -28.4110  -13.9566   21.7453 H   0  0  0  0  0  0
  -25.2692   -9.5762   22.4782 H   0  0  0  0  0  0
  -23.9957   -7.4716   22.7540 H   0  0  0  0  0  0
  -21.0804   -8.8783   19.9038 H   0  0  0  0  0  0
  -22.3608  -10.9690   19.6239 H   0  0  0  0  0  0
  -21.2104   -7.6145   23.9666 H   0  0  0  0  0  0
  -21.1423   -6.0472   25.8986 H   0  0  0  0  0  0
  -22.0661   -2.7627   23.2769 H   0  0  0  0  0  0
  -22.3878  -12.0122   22.4954 H   0  0  0  0  0  0
  -21.0941  -13.1473   22.2404 H   0  0  0  0  0  0
  -24.5728  -15.7669   20.3782 H   0  0  0  0  0  0
  -26.1660  -15.5588   19.8581 H   0  0  0  0  0  0
  -26.7163  -32.5129   23.1233 H   0  0  0  0  0  0
  -24.9588  -34.1018   24.9332 H   0  0  0  0  0  0
  -22.7347  -31.2971   21.3861 H   0  0  0  0  0  0
  -23.5340  -36.3731   24.4520 H   0  0  0  0  0  0
  -23.5373  -36.0216   22.7257 H   0  0  0  0  0  0
  -23.7609  -37.6722   23.2808 H   0  0  0  0  0  0
  -26.1258  -31.4521   20.5742 H   0  0  0  0  0  0
  -26.8782  -30.8170   22.0045 H   0  0  0  0  0  0
  -28.1153  -28.8712   21.2896 H   0  0  0  0  0  0
  -25.9806  -25.8149   19.1359 H   0  0  0  0  0  0
  -23.9944  -27.2204   19.0554 H   0  0  0  0  0  0
  -23.8001  -30.5655   19.4033 H   0  0  0  0  0  0
  -22.7779  -29.2281   19.8486 H   0  0  0  0  0  0
  -25.7594  -36.7720   22.5550 H   0  0  0  0  0  0
  -20.9985  -28.3303   24.1358 H   0  0  0  0  0  0
  -20.5755  -26.2315   23.3566 H   0  0  0  0  0  0
  -21.6637  -26.7401   22.1132 H   0  0  0  0  0  0
  -19.6857  -25.6262   21.1265 H   0  0  0  0  0  0
  -19.6639  -27.3168   20.6761 H   0  0  0  0  0  0
  -17.4243  -26.6757   21.3989 H   0  0  0  0  0  0
  -18.0225  -26.0064   22.9042 H   0  0  0  0  0  0
  -19.8010  -30.7327   24.2099 H   0  0  0  0  0  0
  -17.5056  -31.6297   24.5185 H   0  0  0  0  0  0
  -15.5374  -30.3001   23.7713 H   0  0  0  0  0  0
  -15.8688  -28.0887   22.7004 H   0  0  0  0  0  0
  -24.5732  -30.7462   25.7994 H   0  0  0  0  0  0
  -24.8819  -32.3297   26.4963 H   0  0  0  0  0  0
  -25.7919  -30.9368   27.0377 H   0  0  0  0  0  0
  -26.2925  -29.7062   24.1407 H   0  0  0  0  0  0
  -27.3872  -29.7622   25.5055 H   0  0  0  0  0  0
  -27.8858  -30.4673   23.9840 H   0  0  0  0  0  0
  -27.2426  -33.4038   26.2030 H   0  0  0  0  0  0
  -28.3756  -32.7144   25.0484 H   0  0  0  0  0  0
  -28.0443  -31.8907   26.5652 H   0  0  0  0  0  0
  -28.0532  -37.9085   25.2944 H   0  0  0  0  0  0
  -28.2336  -36.8824   23.8691 H   0  0  0  0  0  0
  -27.6804  -36.1948   25.4079 H   0  0  0  0  0  0
  -20.9354  -29.8847   21.6864 H   0  0  0  0  0  0
  -25.7477  -37.5156   25.2618 H   0  0  0  0  0  0
  -25.2089  -20.4954   21.5824 H   0  0  0  0  0  0
  -29.8423  -20.9239   20.0100 H   0  0  0  0  0  0
  -24.7513  -22.5117   22.7616 H   0  0  0  0  0  0
  -24.3628  -24.2132   22.1645 H   0  0  0  0  0  0
  -23.5188  -23.2783   19.9604 H   0  0  0  0  0  0
  -23.7683  -21.5858   20.6033 H   0  0  0  0  0  0
  -30.9069  -17.7099   21.6572 H   0  0  0  0  0  0
  -31.2741  -17.6828   19.8969 H   0  0  0  0  0  0
  -27.8443  -16.1881   20.3271 H   0  0  0  0  0  0
  -28.4448  -16.5889   21.9684 H   0  0  0  0  0  0
  -25.8507  -23.7869   20.1391 H   0  0  0  0  0  0
  -29.0424  -18.0178   19.2882 H   0  0  0  0  0  0
  -25.1043  -18.3814   21.5757 H   0  0  0  0  0  0
  -26.1099  -17.6606   20.3706 H   0  0  0  0  0  0
  -26.5275  -17.5437   22.1050 H   0  0  0  0  0  0
  -28.0425  -23.6476   18.9520 H   0  0  0  0  0  0
  -29.5532  -23.4496   19.8087 H   0  0  0  0  0  0
  -28.8810  -24.9337   21.6181 H   0  0  0  0  0  0
  -27.2295  -24.8962   21.2616 H   0  0  0  0  0  0
  1 25  1  0  0  0
  1 30  2  0  0  0
  1 86  1  0  0  0
  2  3  1  0  0  0
  2 25  1  0  0  0
  2 87  1  0  0  0
  2 88  1  0  0  0
  3  4  1  0  0  0
  3 89  1  0  0  0
  3 90  1  0  0  0
  4  5  1  0  0  0
  4 91  1  0  0  0
  4 92  1  0  0  0
  5  6  1  0  0  0
  5 26  1  0  0  0
  5 93  1  0  0  0
  6 25  1  0  0  0
  6 94  1  0  0  0
  6 95  1  0  0  0
  7  8  2  0  0  0
  7 26  1  0  0  0
  7 29  1  0  0  0
  8  9  1  0  0  0
  8 22  1  0  0  0
  9 10  1  0  0  0
  9 27  2  0  0  0
 10 11  2  0  0  0
 10 15  1  0  0  0
 11 12  1  0  0  0
 11 96  1  0  0  0
 12 13  2  0  0  0
 12 97  1  0  0  0
 13 14  1  0  0  0
 13 31  1  0  0  0
 14 15  2  0  0  0
 14 98  1  0  0  0
 15 99  1  0  0  0
 16 17  2  0  0  0
 16 21  1  0  0  0
 16 31  1  0  0  0
 17 18  1  0  0  0
 17100  1  0  0  0
 18 19  2  0  0  0
 18101  1  0  0  0
 19 20  1  0  0  0
 19 24  1  0  0  0
 20 21  2  0  0  0
 20102  1  0  0  0
 21 23  1  0  0  0
 22 28  1  0  0  0
 22 32  2  0  0  0
 26 27  1  0  0  0
 28103  1  0  0  0
 28104  1  0  0  0
 29105  1  0  0  0
 29106  1  0  0  0
 33 34  1  0  0  0
 33 66  1  0  0  0
 33 70  2  0  0  0
 34 36  1  0  0  0
 34 59  1  0  0  0
 34107  1  0  0  0
 35 44  2  0  0  0
 35 45  1  0  0  0
 35 68  1  0  0  0
 36 56  1  0  0  0
 36108  1  0  0  0
 37 39  1  0  0  0
 37 47  1  0  0  0
 37 66  1  0  0  0
 37109  1  0  0  0
 38 43  2  0  0  0
 38 46  1  0  0  0
 38 47  1  0  0  0
 39 64  1  0  0  0
 39 67  2  0  0  0
 40 52  1  0  0  0
 40 53  2  0  0  0
 40 58  1  0  0  0
 41110  1  0  0  0
 41111  1  0  0  0
 41112  1  0  0  0
 41 48  1  0  0  0
 42 43  1  0  0  0
 42 66  1  0  0  0
 42113  1  0  0  0
 42114  1  0  0  0
 43 44  1  0  0  0
 44115  1  0  0  0
 45 46  2  0  0  0
 45116  1  0  0  0
 46117  1  0  0  0
 47118  1  0  0  0
 47119  1  0  0  0
 48 56  1  0  0  0
 48 65  1  0  0  0
 48120  1  0  0  0
 49 50  1  0  0  0
 49 53  1  0  0  0
 49 64  1  0  0  0
 49121  1  0  0  0
 50 51  1  0  0  0
 50122  1  0  0  0
 50123  1  0  0  0
 51 52  1  0  0  0
 51124  1  0  0  0
 51125  1  0  0  0
 52126  1  0  0  0
 52127  1  0  0  0
 53 54  1  0  0  0
 54 55  2  0  0  0
 54128  1  0  0  0
 55 57  1  0  0  0
 55129  1  0  0  0
 56 69  2  0  0  0
 57 58  2  0  0  0
 57130  1  0  0  0
 58131  1  0  0  0
 59 60  1  0  0  0
 59 61  1  0  0  0
 59 62  1  0  0  0
 60132  1  0  0  0
 60133  1  0  0  0
 60134  1  0  0  0
 61135  1  0  0  0
 61136  1  0  0  0
 61137  1  0  0  0
 62138  1  0  0  0
 62139  1  0  0  0
 62140  1  0  0  0
 63 65  1  0  0  0
 63141  1  0  0  0
 63142  1  0  0  0
 63143  1  0  0  0
 64144  1  0  0  0
 65145  1  0  0  0
 68 85  1  0  0  0
 71 73  2  0  0  0
 71 75  1  0  0  0
 71146  1  0  0  0
 72 74  1  0  0  0
 72 76  2  0  0  0
 72147  1  0  0  0
 73 76  1  0  0  0
 73 81  1  0  0  0
 74 75  2  0  0  0
 74 82  1  0  0  0
 75 83  1  0  0  0
 76 84  1  0  0  0
 77 78  1  0  0  0
 77 81  1  0  0  0
 77148  1  0  0  0
 77149  1  0  0  0
 78 81  1  0  0  0
 78150  1  0  0  0
 78151  1  0  0  0
 79 82  1  0  0  0
 79 86  1  0  0  0
 79152  1  0  0  0
 79153  1  0  0  0
 80 82  1  0  0  0
 80 86  1  0  0  0
 80154  1  0  0  0
 80155  1  0  0  0
 81156  1  0  0  0
 82157  1  0  0  0
 83158  1  0  0  0
 83159  1  0  0  0
 83160  1  0  0  0
 84 85  1  0  0  0
 84161  1  0  0  0
 84162  1  0  0  0
 85163  1  0  0  0
 85164  1  0  0  0
M  ISO  4   1 100  68 101  85 101  86 100
M  END
> <chiral flag>
0

> <version>
0

> <s_m_source_file>
/data/baiqing/PycharmProjects/Reinvent-master-3.2/result/LINK_invent/BTK/process_docking_weight1_custom_sum_contain_oxygen_bond_distance_aromatic_linkinvent_7_9_3/rearranged_h_0167.sdf

> <i_m_source_file_index>
20

> <r_mmod_Potential_Energy-OPLS-2005>
581.117919921875

> <r_mmod_Stretch_Energy-OPLS-2005>
164.51838684082

> <r_mmod_Bend_Energy-OPLS-2005>
303.939361572266

> <r_mmod_Torsional_Energy-OPLS-2005>
309.646606445312

> <r_mmod_Improper_Torsional_Energy-OPLS-2005>
10.8376045227051

> <r_mmod_Van_der_Waal_Energy-OPLS-2005>
150.091217041016

> <r_mmod_Electrostatic_Energy-OPLS-2005>
-357.105499267578

> <r_mmod_Solvation_Energy-OPLS-2005>
-195.413955688477

> <b_mmod_Minimization_Converged-OPLS-2005>
0

> <r_mmod_RMS_Derivative-OPLS-2005>
9.63011169433594

$$$$
20
                    3D
 Structure written by MMmdl.
160169  0  0  1  0            999 V2000
  -30.5204  -15.1809   20.3853 C   0  0  0  0  0  0
  -30.4187  -12.7560   19.5128 C   0  0  0  0  0  0
  -29.5162  -12.5567   18.2741 C   0  0  0  0  0  0
  -28.0651  -12.2985   18.7100 C   0  0  0  0  0  0
  -27.6072  -13.2749   19.8233 C   0  0  2  0  0  0
  -28.6457  -13.4405   20.9526 C   0  0  0  0  0  0
  -25.2365  -13.8268   20.5760 C   0  0  0  0  0  0
  -24.1724  -13.0451   20.9275 C   0  0  0  0  0  0
  -24.6384  -11.6949   20.8792 C   0  0  0  0  0  0
  -23.9095  -10.4296   21.0427 C   0  0  0  0  0  0
  -24.3635   -9.4200   21.9200 C   0  0  0  0  0  0
  -23.6307   -8.2237   22.0757 C   0  0  0  0  0  0
  -22.4288   -8.0283   21.3546 C   0  0  0  0  0  0
  -21.9935   -9.0261   20.4647 C   0  0  0  0  0  0
  -22.7275  -10.2140   20.3066 C   0  0  0  0  0  0
  -21.6849   -6.0741   22.5281 C   0  0  0  0  0  0
  -21.4012   -6.5643   23.8216 C   0  0  0  0  0  0
  -21.3657   -5.6797   24.9177 C   0  0  0  0  0  0
  -21.6045   -4.3062   24.7228 C   0  0  0  0  0  0
  -21.8816   -3.8156   23.4353 C   0  0  0  0  0  0
  -21.9190   -4.6969   22.3405 C   0  0  0  0  0  0
  -22.7738  -13.5193   21.1917 C   0  0  0  0  0  0
  -22.1660   -4.2152   21.0986 F   0  0  0  0  0  0
  -21.5625   -3.4543   25.7741 F   0  0  0  0  0  0
  -29.8783  -13.9189   20.3085 N   0  0  0  0  0  0
  -26.2788  -12.9543   20.3257 N   0  0  0  0  0  0
  -25.9319  -11.6646   20.5773 N   0  0  0  0  0  0
  -22.0397  -12.8163   22.0464 N   0  0  0  0  0  0
  -25.4013  -15.1993   20.4168 N   0  0  0  0  0  0
  -31.7393  -15.0935   20.1761 O   0  0  0  0  0  0
  -21.6642   -6.8888   21.4250 O   0  0  0  0  0  0
  -22.3422  -14.5496   20.6760 O   0  0  0  0  0  0
  -24.6571  -31.8298   23.1741 C   0  0  0  0  0  0
  -25.9278  -32.4623   23.8187 C   0  0  1  0  0  0
  -27.2114  -26.9786   20.1746 C   0  0  0  0  0  0
  -25.5980  -33.8430   24.2113 N   0  0  0  0  0  0
  -23.4678  -30.4436   21.5213 C   0  0  2  0  0  0
  -24.9184  -28.8408   20.1078 C   0  0  0  0  0  0
  -22.7634  -29.4475   22.4782 C   0  0  0  0  0  0
  -18.0328  -28.1431   22.8484 C   0  0  0  0  0  0
  -24.1482  -36.7195   23.2646 C   0  0  0  0  0  0
  -26.0330  -30.6533   21.3935 C   0  0  0  0  0  0
  -26.1002  -29.2473   20.7398 C   0  0  0  0  0  0
  -27.2416  -28.3354   20.7515 C   0  0  0  0  0  0
  -26.0024  -26.7139   19.4933 C   0  0  0  0  0  0
  -24.8916  -27.5931   19.4651 C   0  0  0  0  0  0
  -23.7031  -29.7623   20.1446 C   0  0  0  0  0  0
  -25.4119  -36.2980   24.0308 C   0  0  1  0  0  0
  -20.5955  -28.3750   23.1207 C   0  0  2  0  0  0
  -20.6803  -26.9441   22.5409 C   0  0  0  0  0  0
  -19.5774  -26.6408   21.5220 C   0  0  0  0  0  0
  -18.1957  -26.7971   22.1632 C   0  0  0  0  0  0
  -19.1592  -28.8910   23.2842 C   0  0  0  0  0  0
  -18.9499  -30.1502   23.8868 C   0  0  0  0  0  0
  -17.6496  -30.6611   24.0573 C   0  0  0  0  0  0
  -25.9093  -34.9367   23.5024 C   0  0  0  0  0  0
  -16.5383  -29.9105   23.6366 C   0  0  0  0  0  0
  -16.7314  -28.6529   23.0376 C   0  0  0  0  0  0
  -26.4560  -31.6537   25.0674 C   0  0  0  0  0  0
  -25.3702  -31.3763   26.1338 C   0  0  0  0  0  0
  -27.0442  -30.2924   24.6331 C   0  0  0  0  0  0
  -27.6082  -32.4309   25.7458 C   0  0  0  0  0  0
  -27.5561  -37.1753   24.8470 C   0  0  0  0  0  0
  -21.4315  -29.3044   22.3540 N   0  0  0  0  0  0
  -26.4269  -37.3710   23.9423 N   0  0  0  0  0  0
  -24.7403  -31.0011   22.0838 N   0  0  0  0  0  0
  -23.4224  -28.8044   23.2995 O   0  0  0  0  0  0
  -28.2334  -25.9119   20.2478 O   0  0  0  0  0  0
  -26.5684  -34.8896   22.4612 O   0  0  0  0  0  0
  -23.5661  -32.1246   23.6877 O   0  0  0  0  0  0
  -30.0610  -19.2660   19.4926 C   0  0  0  0  0  0
  -28.2590  -18.7745   20.8584 C   0  0  0  0  0  0
  -27.2891  -23.5882   21.2683 C   0  0  0  0  0  0
  -30.6998  -17.7672   19.8279 C   0  0  0  0  0  0
  -28.8318  -17.2270   21.1520 C   0  0  0  0  0  0
  -27.4107  -21.9944   21.1748 C   0  0  0  0  0  0
  -29.1853  -20.0831   20.5603 C   0  0  0  0  0  0
  -28.0220  -24.2985   20.1038 C   0  0  2  0  0  0
  -29.1188  -22.9964   19.9642 C   0  0  2  0  0  0
  -29.8391  -23.0377   18.6078 C   0  0  0  0  0  0
  -29.9074  -16.5355   20.3115 N   0  0  0  0  0  0
  -28.4805  -21.5541   20.2232 N   0  3  2  0  0  0
  -31.4441  -12.9197   19.1791 H   0  0  0  0  0  0
  -30.4536  -11.8496   20.1188 H   0  0  0  0  0  0
  -29.8783  -11.7269   17.6664 H   0  0  0  0  0  0
  -29.5576  -13.4451   17.6423 H   0  0  0  0  0  0
  -28.0143  -11.2743   19.0814 H   0  0  0  0  0  0
  -27.3908  -12.3483   17.8540 H   0  0  0  0  0  0
  -27.5260  -14.2446   19.3306 H   0  0  0  0  0  0
  -28.8004  -12.5061   21.4934 H   0  0  0  0  0  0
  -28.3000  -14.1712   21.6854 H   0  0  0  0  0  0
  -25.2771   -9.5665   22.4785 H   0  0  0  0  0  0
  -24.0000   -7.4621   22.7475 H   0  0  0  0  0  0
  -21.0862   -8.8799   19.8949 H   0  0  0  0  0  0
  -22.3741  -10.9684   19.6177 H   0  0  0  0  0  0
  -21.2006   -7.6146   23.9720 H   0  0  0  0  0  0
  -21.1477   -6.0526   25.9078 H   0  0  0  0  0  0
  -22.0597   -2.7618   23.2851 H   0  0  0  0  0  0
  -22.4015  -11.9814   22.4828 H   0  0  0  0  0  0
  -21.1015  -13.1179   22.2691 H   0  0  0  0  0  0
  -24.6338  -15.8526   20.5274 H   0  0  0  0  0  0
  -26.2478  -15.6362   20.0772 H   0  0  0  0  0  0
  -26.7337  -32.5165   23.0895 H   0  0  0  0  0  0
  -25.0111  -33.9520   25.0252 H   0  0  0  0  0  0
  -22.7798  -31.2754   21.3559 H   0  0  0  0  0  0
  -23.3762  -35.9507   23.3296 H   0  0  0  0  0  0
  -24.3576  -36.8858   22.2070 H   0  0  0  0  0  0
  -23.7223  -37.6377   23.6696 H   0  0  0  0  0  0
  -26.2049  -31.3972   20.6136 H   0  0  0  0  0  0
  -26.8965  -30.7107   22.0445 H   0  0  0  0  0  0
  -28.1342  -28.6432   21.2769 H   0  0  0  0  0  0
  -25.8780  -25.7668   18.9917 H   0  0  0  0  0  0
  -23.9935  -27.2811   18.9487 H   0  0  0  0  0  0
  -23.8536  -30.5327   19.3871 H   0  0  0  0  0  0
  -22.8121  -29.2151   19.8300 H   0  0  0  0  0  0
  -25.1327  -36.1772   25.0800 H   0  0  0  0  0  0
  -21.0068  -28.3350   24.1321 H   0  0  0  0  0  0
  -20.5692  -26.2367   23.3642 H   0  0  0  0  0  0
  -21.6665  -26.7435   22.1196 H   0  0  0  0  0  0
  -19.6921  -25.6312   21.1265 H   0  0  0  0  0  0
  -19.6709  -27.3206   20.6741 H   0  0  0  0  0  0
  -17.4232  -26.6746   21.4034 H   0  0  0  0  0  0
  -18.0337  -26.0122   22.9039 H   0  0  0  0  0  0
  -19.7972  -30.7345   24.2214 H   0  0  0  0  0  0
  -17.5047  -31.6289   24.5190 H   0  0  0  0  0  0
  -15.5384  -30.3004   23.7692 H   0  0  0  0  0  0
  -15.8727  -28.0844   22.7098 H   0  0  0  0  0  0
  -24.5918  -30.7068   25.7655 H   0  0  0  0  0  0
  -24.8827  -32.2943   26.4621 H   0  0  0  0  0  0
  -25.7956  -30.9047   27.0202 H   0  0  0  0  0  0
  -26.3086  -29.6617   24.1317 H   0  0  0  0  0  0
  -27.4019  -29.7267   25.4941 H   0  0  0  0  0  0
  -27.9024  -30.4168   23.9718 H   0  0  0  0  0  0
  -27.2714  -33.3685   26.1887 H   0  0  0  0  0  0
  -28.3968  -32.6732   25.0319 H   0  0  0  0  0  0
  -28.0646  -31.8500   26.5485 H   0  0  0  0  0  0
  -28.2565  -38.0064   24.7537 H   0  0  0  0  0  0
  -28.1082  -36.2596   24.6280 H   0  0  0  0  0  0
  -27.2299  -37.1380   25.8881 H   0  0  0  0  0  0
  -20.9537  -29.8740   21.6699 H   0  0  0  0  0  0
  -26.0119  -38.2770   24.1448 H   0  0  0  0  0  0
  -29.4707  -19.1710   18.5806 H   0  0  0  0  0  0
  -30.8936  -19.9107   19.2083 H   0  0  0  0  0  0
  -27.6094  -19.0241   21.6976 H   0  0  0  0  0  0
  -27.5709  -18.6837   20.0173 H   0  0  0  0  0  0
  -27.7619  -23.9118   22.1956 H   0  0  0  0  0  0
  -26.2476  -23.9044   21.3313 H   0  0  0  0  0  0
  -31.4863  -17.9198   20.5683 H   0  0  0  0  0  0
  -31.2298  -17.4495   18.9288 H   0  0  0  0  0  0
  -27.9727  -16.5556   21.1658 H   0  0  0  0  0  0
  -29.2110  -17.2151   22.1753 H   0  0  0  0  0  0
  -26.4661  -21.5556   20.8527 H   0  0  0  0  0  0
  -27.6174  -21.5946   22.1682 H   0  0  0  0  0  0
  -29.8052  -20.2525   21.4411 H   0  0  0  0  0  0
  -27.3867  -24.1964   19.2252 H   0  0  0  0  0  0
  -29.8683  -23.1304   20.7456 H   0  0  0  0  0  0
  -29.1431  -22.8920   17.7817 H   0  0  0  0  0  0
  -30.6043  -22.2658   18.5357 H   0  0  0  0  0  0
  -30.3330  -23.9985   18.4570 H   0  0  0  0  0  0
  -27.9657  -21.3651   19.3751 H   0  0  0  0  0  0
  1 25  1  0  0  0
  1 30  2  0  0  0
  1 81  1  0  0  0
  2  3  1  0  0  0
  2 25  1  0  0  0
  2 83  1  0  0  0
  2 84  1  0  0  0
  3  4  1  0  0  0
  3 85  1  0  0  0
  3 86  1  0  0  0
  4  5  1  0  0  0
  4 87  1  0  0  0
  4 88  1  0  0  0
  5  6  1  0  0  0
  5 26  1  0  0  0
  5 89  1  0  0  0
  6 25  1  0  0  0
  6 90  1  0  0  0
  6 91  1  0  0  0
  7  8  2  0  0  0
  7 26  1  0  0  0
  7 29  1  0  0  0
  8  9  1  0  0  0
  8 22  1  0  0  0
  9 10  1  0  0  0
  9 27  2  0  0  0
 10 11  2  0  0  0
 10 15  1  0  0  0
 11 12  1  0  0  0
 11 92  1  0  0  0
 12 13  2  0  0  0
 12 93  1  0  0  0
 13 14  1  0  0  0
 13 31  1  0  0  0
 14 15  2  0  0  0
 14 94  1  0  0  0
 15 95  1  0  0  0
 16 17  2  0  0  0
 16 21  1  0  0  0
 16 31  1  0  0  0
 17 18  1  0  0  0
 17 96  1  0  0  0
 18 19  2  0  0  0
 18 97  1  0  0  0
 19 20  1  0  0  0
 19 24  1  0  0  0
 20 21  2  0  0  0
 20 98  1  0  0  0
 21 23  1  0  0  0
 22 28  1  0  0  0
 22 32  2  0  0  0
 26 27  1  0  0  0
 28 99  1  0  0  0
 28100  1  0  0  0
 29101  1  0  0  0
 29102  1  0  0  0
 33 34  1  0  0  0
 33 66  1  0  0  0
 33 70  2  0  0  0
 34 36  1  0  0  0
 34 59  1  0  0  0
 34103  1  0  0  0
 35 44  2  0  0  0
 35 45  1  0  0  0
 35 68  1  0  0  0
 36 56  1  0  0  0
 36104  1  0  0  0
 37 39  1  0  0  0
 37 47  1  0  0  0
 37 66  1  0  0  0
 37105  1  0  0  0
 38 43  2  0  0  0
 38 46  1  0  0  0
 38 47  1  0  0  0
 39 64  1  0  0  0
 39 67  2  0  0  0
 40 52  1  0  0  0
 40 53  2  0  0  0
 40 58  1  0  0  0
 41106  1  0  0  0
 41107  1  0  0  0
 41108  1  0  0  0
 41 48  1  0  0  0
 42 43  1  0  0  0
 42 66  1  0  0  0
 42109  1  0  0  0
 42110  1  0  0  0
 43 44  1  0  0  0
 44111  1  0  0  0
 45 46  2  0  0  0
 45112  1  0  0  0
 46113  1  0  0  0
 47114  1  0  0  0
 47115  1  0  0  0
 48 56  1  0  0  0
 48 65  1  0  0  0
 48116  1  0  0  0
 49 50  1  0  0  0
 49 53  1  0  0  0
 49 64  1  0  0  0
 49117  1  0  0  0
 50 51  1  0  0  0
 50118  1  0  0  0
 50119  1  0  0  0
 51 52  1  0  0  0
 51120  1  0  0  0
 51121  1  0  0  0
 52122  1  0  0  0
 52123  1  0  0  0
 53 54  1  0  0  0
 54 55  2  0  0  0
 54124  1  0  0  0
 55 57  1  0  0  0
 55125  1  0  0  0
 56 69  2  0  0  0
 57 58  2  0  0  0
 57126  1  0  0  0
 58127  1  0  0  0
 59 60  1  0  0  0
 59 61  1  0  0  0
 59 62  1  0  0  0
 60128  1  0  0  0
 60129  1  0  0  0
 60130  1  0  0  0
 61131  1  0  0  0
 61132  1  0  0  0
 61133  1  0  0  0
 62134  1  0  0  0
 62135  1  0  0  0
 62136  1  0  0  0
 63 65  1  0  0  0
 63137  1  0  0  0
 63138  1  0  0  0
 63139  1  0  0  0
 64140  1  0  0  0
 65141  1  0  0  0
 68 78  1  0  0  0
 71 74  1  0  0  0
 71142  1  0  0  0
 71143  1  0  0  0
 71 77  1  0  0  0
 72 75  1  0  0  0
 72 77  1  0  0  0
 72144  1  0  0  0
 72145  1  0  0  0
 73 76  1  0  0  0
 73 78  1  0  0  0
 73146  1  0  0  0
 73147  1  0  0  0
 74 81  1  0  0  0
 74148  1  0  0  0
 74149  1  0  0  0
 75 81  1  0  0  0
 75150  1  0  0  0
 75151  1  0  0  0
 76152  1  0  0  0
 76153  1  0  0  0
 76 82  1  0  0  0
 77 82  1  0  0  0
 77154  1  0  0  0
 78 79  1  0  0  0
 78155  1  0  0  0
 79 80  1  0  0  0
 79 82  1  0  0  0
 79156  1  0  0  0
 80157  1  0  0  0
 80158  1  0  0  0
 80159  1  0  0  0
 82160  1  0  0  0
M  CHG  1  82   1
M  ISO  4   1 100  68 101  78 101  81 100
M  END
> <chiral flag>
0

> <version>
0

> <s_m_source_file>
/data/baiqing/PycharmProjects/Reinvent-master-3.2/result/LINK_invent/BTK/process_docking_weight1_custom_sum_contain_oxygen_bond_distance_aromatic_linkinvent_7_9_3/rearranged_h_0167.sdf

> <i_m_source_file_index>
21

> <r_mmod_Potential_Energy-OPLS-2005>
1190.7646484375

> <r_mmod_Stretch_Energy-OPLS-2005>
422.615814208984

> <r_mmod_Bend_Energy-OPLS-2005>
481.0771484375

> <r_mmod_Torsional_Energy-OPLS-2005>
362.854858398438

> <r_mmod_Improper_Torsional_Energy-OPLS-2005>
12.7998037338257

> <r_mmod_Van_der_Waal_Energy-OPLS-2005>
107.471351623535

> <r_mmod_Electrostatic_Energy-OPLS-2005>
-142.230255126953

> <r_mmod_Solvation_Energy-OPLS-2005>
-426.804077148438

> <b_mmod_Minimization_Converged-OPLS-2005>
0

> <r_mmod_RMS_Derivative-OPLS-2005>
2.1910514831543

$$$$
21
                    3D
 Structure written by MMmdl.
164174  0  0  1  0            999 V2000
  -30.5328  -15.0118   20.3442 C   0  0  0  0  0  0
  -30.4471  -12.6179   19.4851 C   0  0  0  0  0  0
  -29.5239  -12.4665   18.2534 C   0  0  0  0  0  0
  -28.0516  -12.2873   18.6791 C   0  0  0  0  0  0
  -27.6189  -13.2409   19.8254 C   0  0  2  0  0  0
  -28.6746  -13.3316   20.9452 C   0  0  0  0  0  0
  -25.2445  -13.8151   20.5802 C   0  0  0  0  0  0
  -24.1747  -13.0387   20.9255 C   0  0  0  0  0  0
  -24.6368  -11.6880   20.8775 C   0  0  0  0  0  0
  -23.9058  -10.4262   21.0416 C   0  0  0  0  0  0
  -24.3612   -9.4181   21.9192 C   0  0  0  0  0  0
  -23.6286   -8.2220   22.0756 C   0  0  0  0  0  0
  -22.4269   -8.0264   21.3544 C   0  0  0  0  0  0
  -21.9905   -9.0238   20.4645 C   0  0  0  0  0  0
  -22.7235  -10.2114   20.3058 C   0  0  0  0  0  0
  -21.6846   -6.0728   22.5281 C   0  0  0  0  0  0
  -21.4009   -6.5636   23.8213 C   0  0  0  0  0  0
  -21.3658   -5.6790   24.9177 C   0  0  0  0  0  0
  -21.6045   -4.3054   24.7228 C   0  0  0  0  0  0
  -21.8819   -3.8143   23.4350 C   0  0  0  0  0  0
  -21.9191   -4.6957   22.3405 C   0  0  0  0  0  0
  -22.7773  -13.5178   21.1896 C   0  0  0  0  0  0
  -22.1661   -4.2144   21.0983 F   0  0  0  0  0  0
  -21.5630   -3.4539   25.7742 F   0  0  0  0  0  0
  -29.9315  -13.7480   20.3076 N   0  0  0  0  0  0
  -26.2858  -12.9376   20.3291 N   0  0  0  0  0  0
  -25.9301  -11.6516   20.5777 N   0  0  0  0  0  0
  -22.0417  -12.8173   22.0449 N   0  0  0  0  0  0
  -25.4105  -15.1875   20.4346 N   0  0  0  0  0  0
  -31.7680  -15.0322   20.2908 O   0  0  0  0  0  0
  -21.6630   -6.8866   21.4240 O   0  0  0  0  0  0
  -22.3469  -14.5488   20.6738 O   0  0  0  0  0  0
  -24.6461  -31.8422   23.1866 C   0  0  0  0  0  0
  -25.9223  -32.4684   23.8264 C   0  0  1  0  0  0
  -27.2204  -27.1134   20.1534 C   0  0  0  0  0  0
  -25.5961  -33.8491   24.2179 N   0  0  0  0  0  0
  -23.4508  -30.4612   21.5330 C   0  0  2  0  0  0
  -24.9010  -28.8842   20.1124 C   0  0  0  0  0  0
  -22.7582  -29.4539   22.4854 C   0  0  0  0  0  0
  -18.0307  -28.1398   22.8476 C   0  0  0  0  0  0
  -24.1491  -36.7248   23.2641 C   0  0  0  0  0  0
  -26.0092  -30.7087   21.3891 C   0  0  0  0  0  0
  -26.0805  -29.3178   20.7307 C   0  0  0  0  0  0
  -27.2406  -28.4506   20.7314 C   0  0  0  0  0  0
  -26.0112  -26.7888   19.4965 C   0  0  0  0  0  0
  -24.8809  -27.6338   19.4794 C   0  0  0  0  0  0
  -23.6789  -29.7894   20.1535 C   0  0  0  0  0  0
  -25.4123  -36.3024   24.0314 C   0  0  1  0  0  0
  -20.5922  -28.3727   23.1230 C   0  0  2  0  0  0
  -20.6791  -26.9428   22.5403 C   0  0  0  0  0  0
  -19.5764  -26.6382   21.5213 C   0  0  0  0  0  0
  -18.1945  -26.7936   22.1624 C   0  0  0  0  0  0
  -19.1565  -28.8881   23.2844 C   0  0  0  0  0  0
  -18.9480  -30.1476   23.8871 C   0  0  0  0  0  0
  -17.6475  -30.6593   24.0559 C   0  0  0  0  0  0
  -25.9078  -34.9401   23.5056 C   0  0  0  0  0  0
  -16.5367  -29.9084   23.6339 C   0  0  0  0  0  0
  -16.7292  -28.6504   23.0359 C   0  0  0  0  0  0
  -26.4534  -31.6562   25.0717 C   0  0  0  0  0  0
  -25.3709  -31.3758   26.1406 C   0  0  0  0  0  0
  -27.0406  -30.2954   24.6319 C   0  0  0  0  0  0
  -27.6058  -32.4334   25.7504 C   0  0  0  0  0  0
  -27.5579  -37.1775   24.8461 C   0  0  0  0  0  0
  -21.4271  -29.3050   22.3601 N   0  0  0  0  0  0
  -26.4281  -37.3744   23.9416 N   0  0  0  0  0  0
  -24.7220  -31.0255   22.0913 N   0  0  0  0  0  0
  -23.4214  -28.8086   23.3013 O   0  0  0  0  0  0
  -28.2721  -26.1163   20.2142 O   0  0  0  0  0  0
  -26.5665  -34.8903   22.4636 O   0  0  0  0  0  0
  -23.5574  -32.1309   23.7071 O   0  0  0  0  0  0
  -27.9784  -17.0934   18.5527 C   0  0  0  0  0  0
  -28.2662  -18.5844   18.7073 C   0  0  0  0  0  0
  -31.1038  -18.5749   20.5190 C   0  0  0  0  0  0
  -30.7219  -20.0679   20.8962 C   0  0  0  0  0  0
  -28.5218  -21.7265   20.8573 C   0  0  0  0  0  0
  -29.2699  -16.2744   18.7063 C   0  0  0  0  0  0
  -29.6411  -21.2770   18.8800 C   0  0  0  0  0  0
  -28.7947  -18.9212   20.1093 C   0  0  1  0  0  0
  -29.8178  -17.7277   20.6271 C   0  0  1  0  0  0
  -28.9872  -23.2126   20.3356 C   0  0  2  0  0  0
  -29.3784  -20.4807   20.2127 C   0  0  1  0  0  0
  -27.9704  -24.5742   20.1665 C   0  0  0  0  0  0
  -29.7722  -16.2159   20.0908 N   0  0  0  0  0  0
  -29.6865  -22.7758   19.0933 N   0  3  0  0  0  0
  -31.4731  -12.7939   19.1578 H   0  0  0  0  0  0
  -30.4709  -11.6965   20.0692 H   0  0  0  0  0  0
  -29.8391  -11.6076   17.6593 H   0  0  0  0  0  0
  -29.6277  -13.3254   17.5927 H   0  0  0  0  0  0
  -27.9417  -11.2541   19.0100 H   0  0  0  0  0  0
  -27.3901  -12.3996   17.8193 H   0  0  0  0  0  0
  -27.5410  -14.2247   19.3721 H   0  0  0  0  0  0
  -28.7863  -12.3795   21.4657 H   0  0  0  0  0  0
  -28.3731  -14.0673   21.6928 H   0  0  0  0  0  0
  -25.2754   -9.5660   22.4772 H   0  0  0  0  0  0
  -23.9993   -7.4609   22.7475 H   0  0  0  0  0  0
  -21.0836   -8.8756   19.8951 H   0  0  0  0  0  0
  -22.3695  -10.9657   19.6170 H   0  0  0  0  0  0
  -21.1999   -7.6143   23.9714 H   0  0  0  0  0  0
  -21.1482   -6.0522   25.9080 H   0  0  0  0  0  0
  -22.0600   -2.7605   23.2853 H   0  0  0  0  0  0
  -22.4033  -11.9836   22.4839 H   0  0  0  0  0  0
  -21.1032  -13.1194   22.2650 H   0  0  0  0  0  0
  -24.6492  -15.8438   20.5678 H   0  0  0  0  0  0
  -26.2796  -15.6322   20.1712 H   0  0  0  0  0  0
  -26.7289  -32.5284   23.0991 H   0  0  0  0  0  0
  -25.0087  -33.9603   25.0313 H   0  0  0  0  0  0
  -22.7547  -31.2879   21.3768 H   0  0  0  0  0  0
  -23.3765  -35.9567   23.3275 H   0  0  0  0  0  0
  -24.3581  -36.8911   22.2062 H   0  0  0  0  0  0
  -23.7231  -37.6429   23.6698 H   0  0  0  0  0  0
  -26.1683  -31.4621   20.6165 H   0  0  0  0  0  0
  -26.8782  -30.7591   22.0336 H   0  0  0  0  0  0
  -28.1384  -28.7803   21.2352 H   0  0  0  0  0  0
  -25.8967  -25.8396   18.9976 H   0  0  0  0  0  0
  -23.9815  -27.2971   18.9820 H   0  0  0  0  0  0
  -23.8181  -30.5635   19.3979 H   0  0  0  0  0  0
  -22.7931  -29.2334   19.8412 H   0  0  0  0  0  0
  -25.1308  -36.1845   25.0805 H   0  0  0  0  0  0
  -21.0012  -28.3318   24.1352 H   0  0  0  0  0  0
  -20.5686  -26.2341   23.3625 H   0  0  0  0  0  0
  -21.6656  -26.7432   22.1200 H   0  0  0  0  0  0
  -19.6926  -25.6286   21.1259 H   0  0  0  0  0  0
  -19.6700  -27.3179   20.6733 H   0  0  0  0  0  0
  -17.4214  -26.6682   21.4026 H   0  0  0  0  0  0
  -18.0343  -26.0084   22.9026 H   0  0  0  0  0  0
  -19.7955  -30.7301   24.2227 H   0  0  0  0  0  0
  -17.5027  -31.6271   24.5166 H   0  0  0  0  0  0
  -15.5366  -30.2976   23.7678 H   0  0  0  0  0  0
  -15.8693  -28.0812   22.7090 H   0  0  0  0  0  0
  -24.5900  -30.7092   25.7725 H   0  0  0  0  0  0
  -24.8884  -32.2941   26.4762 H   0  0  0  0  0  0
  -25.7985  -30.8979   27.0228 H   0  0  0  0  0  0
  -26.3034  -29.6668   24.1312 H   0  0  0  0  0  0
  -27.3994  -29.7265   25.4906 H   0  0  0  0  0  0
  -27.8950  -30.4184   23.9660 H   0  0  0  0  0  0
  -27.2649  -33.3659   26.2015 H   0  0  0  0  0  0
  -28.3903  -32.6857   25.0357 H   0  0  0  0  0  0
  -28.0688  -31.8505   26.5476 H   0  0  0  0  0  0
  -28.2564  -38.0103   24.7542 H   0  0  0  0  0  0
  -28.1107  -36.2634   24.6240 H   0  0  0  0  0  0
  -27.2303  -37.1361   25.8864 H   0  0  0  0  0  0
  -20.9488  -29.8760   21.6773 H   0  0  0  0  0  0
  -26.0143  -38.2805   24.1442 H   0  0  0  0  0  0
  -27.5534  -16.9148   17.5638 H   0  0  0  0  0  0
  -27.2274  -16.7769   19.2726 H   0  0  0  0  0  0
  -27.3663  -19.1641   18.4967 H   0  0  0  0  0  0
  -29.0005  -18.8550   17.9485 H   0  0  0  0  0  0
  -31.8947  -18.1880   21.1626 H   0  0  0  0  0  0
  -31.4790  -18.5406   19.4952 H   0  0  0  0  0  0
  -31.5327  -20.7571   20.6566 H   0  0  0  0  0  0
  -30.5905  -20.1229   21.9777 H   0  0  0  0  0  0
  -27.4794  -21.5911   20.5643 H   0  0  0  0  0  0
  -28.5230  -21.6802   21.9468 H   0  0  0  0  0  0
  -30.0549  -16.6930   18.0740 H   0  0  0  0  0  0
  -29.0854  -15.2884   18.2924 H   0  0  0  0  0  0
  -28.8066  -21.1233   18.1963 H   0  0  0  0  0  0
  -30.5318  -20.9285   18.3554 H   0  0  0  0  0  0
  -27.9315  -18.8701   20.7750 H   0  0  0  0  0  0
  -29.6290  -17.6178   21.6962 H   0  0  0  0  0  0
  -29.7749  -23.5230   21.0227 H   0  0  0  0  0  0
  -27.2185  -24.4478   20.9459 H   0  0  0  0  0  0
  -27.4303  -24.3945   19.2388 H   0  0  0  0  0  0
  -29.3033  -23.2347   18.2814 H   0  0  0  0  0  0
  -30.6508  -23.0627   19.1596 H   0  0  0  0  0  0
  1 25  1  0  0  0
  1 30  2  0  0  0
  1 83  1  0  0  0
  2  3  1  0  0  0
  2 25  1  0  0  0
  2 85  1  0  0  0
  2 86  1  0  0  0
  3  4  1  0  0  0
  3 87  1  0  0  0
  3 88  1  0  0  0
  4  5  1  0  0  0
  4 89  1  0  0  0
  4 90  1  0  0  0
  5  6  1  0  0  0
  5 26  1  0  0  0
  5 91  1  0  0  0
  6 25  1  0  0  0
  6 92  1  0  0  0
  6 93  1  0  0  0
  7  8  2  0  0  0
  7 26  1  0  0  0
  7 29  1  0  0  0
  8  9  1  0  0  0
  8 22  1  0  0  0
  9 10  1  0  0  0
  9 27  2  0  0  0
 10 11  2  0  0  0
 10 15  1  0  0  0
 11 12  1  0  0  0
 11 94  1  0  0  0
 12 13  2  0  0  0
 12 95  1  0  0  0
 13 14  1  0  0  0
 13 31  1  0  0  0
 14 15  2  0  0  0
 14 96  1  0  0  0
 15 97  1  0  0  0
 16 17  2  0  0  0
 16 21  1  0  0  0
 16 31  1  0  0  0
 17 18  1  0  0  0
 17 98  1  0  0  0
 18 19  2  0  0  0
 18 99  1  0  0  0
 19 20  1  0  0  0
 19 24  1  0  0  0
 20 21  2  0  0  0
 20100  1  0  0  0
 21 23  1  0  0  0
 22 28  1  0  0  0
 22 32  2  0  0  0
 26 27  1  0  0  0
 28101  1  0  0  0
 28102  1  0  0  0
 29103  1  0  0  0
 29104  1  0  0  0
 33 34  1  0  0  0
 33 66  1  0  0  0
 33 70  2  0  0  0
 34 36  1  0  0  0
 34 59  1  0  0  0
 34105  1  0  0  0
 35 44  2  0  0  0
 35 45  1  0  0  0
 35 68  1  0  0  0
 36 56  1  0  0  0
 36106  1  0  0  0
 37 39  1  0  0  0
 37 47  1  0  0  0
 37 66  1  0  0  0
 37107  1  0  0  0
 38 43  2  0  0  0
 38 46  1  0  0  0
 38 47  1  0  0  0
 39 64  1  0  0  0
 39 67  2  0  0  0
 40 52  1  0  0  0
 40 53  2  0  0  0
 40 58  1  0  0  0
 41108  1  0  0  0
 41109  1  0  0  0
 41110  1  0  0  0
 41 48  1  0  0  0
 42 43  1  0  0  0
 42 66  1  0  0  0
 42111  1  0  0  0
 42112  1  0  0  0
 43 44  1  0  0  0
 44113  1  0  0  0
 45 46  2  0  0  0
 45114  1  0  0  0
 46115  1  0  0  0
 47116  1  0  0  0
 47117  1  0  0  0
 48 56  1  0  0  0
 48 65  1  0  0  0
 48118  1  0  0  0
 49 50  1  0  0  0
 49 53  1  0  0  0
 49 64  1  0  0  0
 49119  1  0  0  0
 50 51  1  0  0  0
 50120  1  0  0  0
 50121  1  0  0  0
 51 52  1  0  0  0
 51122  1  0  0  0
 51123  1  0  0  0
 52124  1  0  0  0
 52125  1  0  0  0
 53 54  1  0  0  0
 54 55  2  0  0  0
 54126  1  0  0  0
 55 57  1  0  0  0
 55127  1  0  0  0
 56 69  2  0  0  0
 57 58  2  0  0  0
 57128  1  0  0  0
 58129  1  0  0  0
 59 60  1  0  0  0
 59 61  1  0  0  0
 59 62  1  0  0  0
 60130  1  0  0  0
 60131  1  0  0  0
 60132  1  0  0  0
 61133  1  0  0  0
 61134  1  0  0  0
 61135  1  0  0  0
 62136  1  0  0  0
 62137  1  0  0  0
 62138  1  0  0  0
 63 65  1  0  0  0
 63139  1  0  0  0
 63140  1  0  0  0
 63141  1  0  0  0
 64142  1  0  0  0
 65143  1  0  0  0
 68 82  1  0  0  0
 71 72  1  0  0  0
 71 76  1  0  0  0
 71144  1  0  0  0
 71145  1  0  0  0
 72146  1  0  0  0
 72147  1  0  0  0
 72 78  1  0  0  0
 73 74  1  0  0  0
 73148  1  0  0  0
 73149  1  0  0  0
 73 79  1  0  0  0
 74150  1  0  0  0
 74151  1  0  0  0
 74 81  1  0  0  0
 75 80  1  0  0  0
 75 81  1  0  0  0
 75152  1  0  0  0
 75153  1  0  0  0
 76 83  1  0  0  0
 76154  1  0  0  0
 76155  1  0  0  0
 77 81  1  0  0  0
 77 84  1  0  0  0
 77156  1  0  0  0
 77157  1  0  0  0
 78 79  1  0  0  0
 78 81  1  0  0  0
 78158  1  0  0  0
 79 83  1  0  0  0
 79159  1  0  0  0
 80 82  1  0  0  0
 80 84  1  0  0  0
 80160  1  0  0  0
 82161  1  0  0  0
 82162  1  0  0  0
 84163  1  0  0  0
 84164  1  0  0  0
M  CHG  1  84   1
M  ISO  4   1 100  68 101  82 101  83 100
M  END
> <chiral flag>
0

> <version>
0

> <s_m_source_file>
/data/baiqing/PycharmProjects/Reinvent-master-3.2/result/LINK_invent/BTK/process_docking_weight1_custom_sum_contain_oxygen_bond_distance_aromatic_linkinvent_7_9_3/rearranged_h_0167.sdf

> <i_m_source_file_index>
22

> <r_mmod_Potential_Energy-OPLS-2005>
884.605224609375

> <r_mmod_Stretch_Energy-OPLS-2005>
278.59130859375

> <r_mmod_Bend_Energy-OPLS-2005>
356.940002441406

> <r_mmod_Torsional_Energy-OPLS-2005>
489.374877929688

> <r_mmod_Improper_Torsional_Energy-OPLS-2005>
11.0021448135376

> <r_mmod_Van_der_Waal_Energy-OPLS-2005>
111.170768737793

> <r_mmod_Electrostatic_Energy-OPLS-2005>
-162.780776977539

> <r_mmod_Solvation_Energy-OPLS-2005>
-434.906860351562

> <b_mmod_Minimization_Converged-OPLS-2005>
0

> <r_mmod_RMS_Derivative-OPLS-2005>
0.203464195132256

$$$$
22
                    3D
 Structure written by MMmdl.
164173  0  0  1  0            999 V2000
  -30.5576  -14.9847   20.3843 C   0  0  0  0  0  0
  -30.4462  -12.6143   19.4941 C   0  0  0  0  0  0
  -29.5286  -12.5100   18.2540 C   0  0  0  0  0  0
  -28.0611  -12.3008   18.6765 C   0  0  0  0  0  0
  -27.6291  -13.2496   19.8259 C   0  0  2  0  0  0
  -28.6747  -13.3159   20.9568 C   0  0  0  0  0  0
  -25.2488  -13.8188   20.5690 C   0  0  0  0  0  0
  -24.1801  -13.0419   20.9189 C   0  0  0  0  0  0
  -24.6423  -11.6904   20.8734 C   0  0  0  0  0  0
  -23.9107  -10.4277   21.0396 C   0  0  0  0  0  0
  -24.3653   -9.4192   21.9177 C   0  0  0  0  0  0
  -23.6309   -8.2241   22.0758 C   0  0  0  0  0  0
  -22.4292   -8.0284   21.3550 C   0  0  0  0  0  0
  -21.9937   -9.0257   20.4648 C   0  0  0  0  0  0
  -22.7283  -10.2120   20.3039 C   0  0  0  0  0  0
  -21.6861   -6.0747   22.5277 C   0  0  0  0  0  0
  -21.4006   -6.5650   23.8206 C   0  0  0  0  0  0
  -21.3635   -5.6804   24.9168 C   0  0  0  0  0  0
  -21.6036   -4.3069   24.7230 C   0  0  0  0  0  0
  -21.8825   -3.8160   23.4355 C   0  0  0  0  0  0
  -21.9194   -4.6973   22.3408 C   0  0  0  0  0  0
  -22.7819  -13.5186   21.1847 C   0  0  0  0  0  0
  -22.1665   -4.2150   21.0990 F   0  0  0  0  0  0
  -21.5622   -3.4556   25.7748 F   0  0  0  0  0  0
  -29.9364  -13.7350   20.3347 N   0  0  0  0  0  0
  -26.2910  -12.9429   20.3209 N   0  0  0  0  0  0
  -25.9356  -11.6553   20.5715 N   0  0  0  0  0  0
  -22.0494  -12.8152   22.0411 N   0  0  0  0  0  0
  -25.4190  -15.1896   20.4120 N   0  0  0  0  0  0
  -31.7898  -14.9746   20.2845 O   0  0  0  0  0  0
  -21.6646   -6.8891   21.4243 O   0  0  0  0  0  0
  -22.3470  -14.5474   20.6683 O   0  0  0  0  0  0
  -24.6474  -31.8408   23.1863 C   0  0  0  0  0  0
  -25.9240  -32.4668   23.8255 C   0  0  1  0  0  0
  -27.2035  -27.1007   20.1590 C   0  0  0  0  0  0
  -25.5977  -33.8467   24.2191 N   0  0  0  0  0  0
  -23.4510  -30.4618   21.5313 C   0  0  2  0  0  0
  -24.8958  -28.8835   20.1102 C   0  0  0  0  0  0
  -22.7590  -29.4541   22.4840 C   0  0  0  0  0  0
  -18.0316  -28.1413   22.8506 C   0  0  0  0  0  0
  -24.1445  -36.7158   23.2661 C   0  0  0  0  0  0
  -26.0092  -30.7067   21.3864 C   0  0  0  0  0  0
  -26.0759  -29.3144   20.7289 C   0  0  0  0  0  0
  -27.2313  -28.4401   20.7332 C   0  0  0  0  0  0
  -25.9943  -26.7773   19.5051 C   0  0  0  0  0  0
  -24.8701  -27.6301   19.4819 C   0  0  0  0  0  0
  -23.6760  -29.7917   20.1507 C   0  0  0  0  0  0
  -25.4090  -36.2997   24.0339 C   0  0  1  0  0  0
  -20.5938  -28.3720   23.1239 C   0  0  2  0  0  0
  -20.6779  -26.9413   22.5424 C   0  0  0  0  0  0
  -19.5737  -26.6404   21.5236 C   0  0  0  0  0  0
  -18.1921  -26.7957   22.1653 C   0  0  0  0  0  0
  -19.1577  -28.8891   23.2859 C   0  0  0  0  0  0
  -18.9504  -30.1492   23.8860 C   0  0  0  0  0  0
  -17.6490  -30.6605   24.0581 C   0  0  0  0  0  0
  -25.9078  -34.9383   23.5077 C   0  0  0  0  0  0
  -16.5378  -29.9102   23.6363 C   0  0  0  0  0  0
  -16.7296  -28.6536   23.0377 C   0  0  0  0  0  0
  -26.4556  -31.6553   25.0701 C   0  0  0  0  0  0
  -25.3749  -31.3748   26.1401 C   0  0  0  0  0  0
  -27.0458  -30.2960   24.6301 C   0  0  0  0  0  0
  -27.6053  -32.4342   25.7499 C   0  0  0  0  0  0
  -27.5513  -37.1738   24.8488 C   0  0  0  0  0  0
  -21.4280  -29.3031   22.3597 N   0  0  0  0  0  0
  -26.4214  -37.3737   23.9452 N   0  0  0  0  0  0
  -24.7222  -31.0254   22.0894 N   0  0  0  0  0  0
  -23.4232  -28.8120   23.3031 O   0  0  0  0  0  0
  -28.2475  -26.0980   20.2218 O   0  0  0  0  0  0
  -26.5648  -34.8908   22.4650 O   0  0  0  0  0  0
  -23.5590  -32.1300   23.7095 O   0  0  0  0  0  0
  -27.9781  -19.4353   20.2160 C   0  0  0  0  0  0
  -27.7004  -20.8682   20.1473 C   0  0  0  0  0  0
  -29.3283  -19.1837   20.3343 C   0  0  0  0  0  0
  -28.8503  -21.6242   20.2517 C   0  0  0  0  0  0
  -30.8287  -17.6023   18.9596 C   0  0  0  0  0  0
  -29.7373  -16.5493   18.7443 C   0  0  0  0  0  0
  -30.2330  -17.7765   20.3428 C   0  0  2  0  0  0
  -26.9225  -18.3610   20.1462 C   0  0  0  0  0  0
  -26.3184  -21.4549   19.9830 C   0  0  0  0  0  0
  -30.0933  -23.6403   19.1126 C   0  0  0  0  0  0
  -31.2587  -20.8202   20.5720 C   0  0  0  0  0  0
  -27.9669  -24.5489   20.1477 C   0  0  0  0  0  0
  -29.1049  -23.2837   20.2339 C   0  0  1  0  0  0
  -29.8410  -20.5521   20.3911 N   0  0  0  0  0  0
  -29.8315  -16.2192   20.1808 N   0  0  0  0  0  0
  -31.4760  -12.7797   19.1739 H   0  0  0  0  0  0
  -30.4576  -11.6818   20.0595 H   0  0  0  0  0  0
  -29.8523  -11.6898   17.6106 H   0  0  0  0  0  0
  -29.6151  -13.4194   17.6575 H   0  0  0  0  0  0
  -27.9631  -11.2637   19.0004 H   0  0  0  0  0  0
  -27.3977  -12.4136   17.8187 H   0  0  0  0  0  0
  -27.5822  -14.2426   19.3763 H   0  0  0  0  0  0
  -28.7790  -12.3508   21.4545 H   0  0  0  0  0  0
  -28.3752  -14.0370   21.7192 H   0  0  0  0  0  0
  -25.2806   -9.5666   22.4738 H   0  0  0  0  0  0
  -24.0012   -7.4638   22.7488 H   0  0  0  0  0  0
  -21.0861   -8.8781   19.8965 H   0  0  0  0  0  0
  -22.3751  -10.9652   19.6131 H   0  0  0  0  0  0
  -21.1996   -7.6161   23.9701 H   0  0  0  0  0  0
  -21.1431   -6.0544   25.9062 H   0  0  0  0  0  0
  -22.0619   -2.7622   23.2863 H   0  0  0  0  0  0
  -22.4126  -11.9810   22.4784 H   0  0  0  0  0  0
  -21.1095  -13.1125   22.2611 H   0  0  0  0  0  0
  -24.6625  -15.8540   20.5294 H   0  0  0  0  0  0
  -26.2892  -15.6199   20.1293 H   0  0  0  0  0  0
  -26.7297  -32.5260   23.0972 H   0  0  0  0  0  0
  -25.0149  -33.9575   25.0360 H   0  0  0  0  0  0
  -22.7555  -31.2891   21.3791 H   0  0  0  0  0  0
  -23.3743  -35.9449   23.3337 H   0  0  0  0  0  0
  -24.3535  -36.8776   22.2073 H   0  0  0  0  0  0
  -23.7144  -37.6340   23.6674 H   0  0  0  0  0  0
  -26.1716  -31.4583   20.6125 H   0  0  0  0  0  0
  -26.8745  -30.7553   22.0338 H   0  0  0  0  0  0
  -28.1287  -28.7650   21.2393 H   0  0  0  0  0  0
  -25.8743  -25.8200   19.0211 H   0  0  0  0  0  0
  -23.9691  -27.2953   18.9862 H   0  0  0  0  0  0
  -23.8195  -30.5633   19.3935 H   0  0  0  0  0  0
  -22.7869  -29.2397   19.8410 H   0  0  0  0  0  0
  -25.1282  -36.1792   25.0822 H   0  0  0  0  0  0
  -21.0044  -28.3304   24.1356 H   0  0  0  0  0  0
  -20.5664  -26.2341   23.3665 H   0  0  0  0  0  0
  -21.6641  -26.7413   22.1211 H   0  0  0  0  0  0
  -19.6871  -25.6329   21.1242 H   0  0  0  0  0  0
  -19.6639  -27.3236   20.6785 H   0  0  0  0  0  0
  -17.4197  -26.6758   21.4029 H   0  0  0  0  0  0
  -18.0251  -26.0097   22.9041 H   0  0  0  0  0  0
  -19.7980  -30.7339   24.2170 H   0  0  0  0  0  0
  -17.5058  -31.6271   24.5217 H   0  0  0  0  0  0
  -15.5377  -30.3003   23.7710 H   0  0  0  0  0  0
  -15.8708  -28.0858   22.7080 H   0  0  0  0  0  0
  -24.5956  -30.7042   25.7763 H   0  0  0  0  0  0
  -24.8888  -32.2926   26.4705 H   0  0  0  0  0  0
  -25.8056  -30.9048   27.0250 H   0  0  0  0  0  0
  -26.3109  -29.6644   24.1292 H   0  0  0  0  0  0
  -27.4085  -29.7284   25.4880 H   0  0  0  0  0  0
  -27.9003  -30.4225   23.9651 H   0  0  0  0  0  0
  -27.2624  -33.3698   26.1927 H   0  0  0  0  0  0
  -28.3940  -32.6811   25.0379 H   0  0  0  0  0  0
  -28.0618  -31.8557   26.5547 H   0  0  0  0  0  0
  -28.2572  -37.9997   24.7543 H   0  0  0  0  0  0
  -28.0969  -36.2542   24.6307 H   0  0  0  0  0  0
  -27.2255  -37.1387   25.8902 H   0  0  0  0  0  0
  -20.9498  -29.8743   21.6760 H   0  0  0  0  0  0
  -26.0060  -38.2776   24.1542 H   0  0  0  0  0  0
  -30.7405  -18.4664   18.2991 H   0  0  0  0  0  0
  -31.8500  -17.2157   18.9635 H   0  0  0  0  0  0
  -30.0394  -15.7678   18.0446 H   0  0  0  0  0  0
  -28.7767  -16.9688   18.4436 H   0  0  0  0  0  0
  -31.0235  -17.8756   21.0875 H   0  0  0  0  0  0
  -26.1151  -18.5785   20.8469 H   0  0  0  0  0  0
  -27.3327  -17.3850   20.4067 H   0  0  0  0  0  0
  -26.5034  -18.3002   19.1407 H   0  0  0  0  0  0
  -25.5913  -20.6941   19.6982 H   0  0  0  0  0  0
  -26.3142  -22.2157   19.2024 H   0  0  0  0  0  0
  -25.9834  -21.9095   20.9151 H   0  0  0  0  0  0
  -31.0663  -23.1785   19.2453 H   0  0  0  0  0  0
  -30.2674  -24.7172   19.0717 H   0  0  0  0  0  0
  -29.6986  -23.3417   18.1411 H   0  0  0  0  0  0
  -31.7154  -21.0817   19.6187 H   0  0  0  0  0  0
  -31.7781  -19.9455   20.9577 H   0  0  0  0  0  0
  -31.4010  -21.6267   21.2907 H   0  0  0  0  0  0
  -27.2182  -24.3521   20.9155 H   0  0  0  0  0  0
  -27.4502  -24.3890   19.2026 H   0  0  0  0  0  0
  -29.6209  -23.4899   21.1714 H   0  0  0  0  0  0
  1 25  1  0  0  0
  1 30  2  0  0  0
  1 85  1  0  0  0
  2  3  1  0  0  0
  2 25  1  0  0  0
  2 86  1  0  0  0
  2 87  1  0  0  0
  3  4  1  0  0  0
  3 88  1  0  0  0
  3 89  1  0  0  0
  4  5  1  0  0  0
  4 90  1  0  0  0
  4 91  1  0  0  0
  5  6  1  0  0  0
  5 26  1  0  0  0
  5 92  1  0  0  0
  6 25  1  0  0  0
  6 93  1  0  0  0
  6 94  1  0  0  0
  7  8  2  0  0  0
  7 26  1  0  0  0
  7 29  1  0  0  0
  8  9  1  0  0  0
  8 22  1  0  0  0
  9 10  1  0  0  0
  9 27  2  0  0  0
 10 11  2  0  0  0
 10 15  1  0  0  0
 11 12  1  0  0  0
 11 95  1  0  0  0
 12 13  2  0  0  0
 12 96  1  0  0  0
 13 14  1  0  0  0
 13 31  1  0  0  0
 14 15  2  0  0  0
 14 97  1  0  0  0
 15 98  1  0  0  0
 16 17  2  0  0  0
 16 21  1  0  0  0
 16 31  1  0  0  0
 17 18  1  0  0  0
 17 99  1  0  0  0
 18 19  2  0  0  0
 18100  1  0  0  0
 19 20  1  0  0  0
 19 24  1  0  0  0
 20 21  2  0  0  0
 20101  1  0  0  0
 21 23  1  0  0  0
 22 28  1  0  0  0
 22 32  2  0  0  0
 26 27  1  0  0  0
 28102  1  0  0  0
 28103  1  0  0  0
 29104  1  0  0  0
 29105  1  0  0  0
 33 34  1  0  0  0
 33 66  1  0  0  0
 33 70  2  0  0  0
 34 36  1  0  0  0
 34 59  1  0  0  0
 34106  1  0  0  0
 35 44  2  0  0  0
 35 45  1  0  0  0
 35 68  1  0  0  0
 36 56  1  0  0  0
 36107  1  0  0  0
 37 39  1  0  0  0
 37 47  1  0  0  0
 37 66  1  0  0  0
 37108  1  0  0  0
 38 43  2  0  0  0
 38 46  1  0  0  0
 38 47  1  0  0  0
 39 64  1  0  0  0
 39 67  2  0  0  0
 40 52  1  0  0  0
 40 53  2  0  0  0
 40 58  1  0  0  0
 41109  1  0  0  0
 41110  1  0  0  0
 41111  1  0  0  0
 41 48  1  0  0  0
 42 43  1  0  0  0
 42 66  1  0  0  0
 42112  1  0  0  0
 42113  1  0  0  0
 43 44  1  0  0  0
 44114  1  0  0  0
 45 46  2  0  0  0
 45115  1  0  0  0
 46116  1  0  0  0
 47117  1  0  0  0
 47118  1  0  0  0
 48 56  1  0  0  0
 48 65  1  0  0  0
 48119  1  0  0  0
 49 50  1  0  0  0
 49 53  1  0  0  0
 49 64  1  0  0  0
 49120  1  0  0  0
 50 51  1  0  0  0
 50121  1  0  0  0
 50122  1  0  0  0
 51 52  1  0  0  0
 51123  1  0  0  0
 51124  1  0  0  0
 52125  1  0  0  0
 52126  1  0  0  0
 53 54  1  0  0  0
 54 55  2  0  0  0
 54127  1  0  0  0
 55 57  1  0  0  0
 55128  1  0  0  0
 56 69  2  0  0  0
 57 58  2  0  0  0
 57129  1  0  0  0
 58130  1  0  0  0
 59 60  1  0  0  0
 59 61  1  0  0  0
 59 62  1  0  0  0
 60131  1  0  0  0
 60132  1  0  0  0
 60133  1  0  0  0
 61134  1  0  0  0
 61135  1  0  0  0
 61136  1  0  0  0
 62137  1  0  0  0
 62138  1  0  0  0
 62139  1  0  0  0
 63 65  1  0  0  0
 63140  1  0  0  0
 63141  1  0  0  0
 63142  1  0  0  0
 64143  1  0  0  0
 65144  1  0  0  0
 68 82  1  0  0  0
 71 72  1  0  0  0
 71 73  2  0  0  0
 71 78  1  0  0  0
 72 74  2  0  0  0
 72 79  1  0  0  0
 73 84  1  0  0  0
 73 77  1  0  0  0
 74 83  1  0  0  0
 74 84  1  0  0  0
 75 76  1  0  0  0
 75 77  1  0  0  0
 75145  1  0  0  0
 75146  1  0  0  0
 76 85  1  0  0  0
 76147  1  0  0  0
 76148  1  0  0  0
 77 85  1  0  0  0
 77149  1  0  0  0
 78150  1  0  0  0
 78151  1  0  0  0
 78152  1  0  0  0
 79153  1  0  0  0
 79154  1  0  0  0
 79155  1  0  0  0
 80156  1  0  0  0
 80157  1  0  0  0
 80158  1  0  0  0
 80 83  1  0  0  0
 81 84  1  0  0  0
 81159  1  0  0  0
 81160  1  0  0  0
 81161  1  0  0  0
 82 83  1  0  0  0
 82162  1  0  0  0
 82163  1  0  0  0
 83164  1  0  0  0
M  ISO  4   1 100  68 101  82 101  85 100
M  END
> <chiral flag>
0

> <version>
0

> <s_m_source_file>
/data/baiqing/PycharmProjects/Reinvent-master-3.2/result/LINK_invent/BTK/process_docking_weight1_custom_sum_contain_oxygen_bond_distance_aromatic_linkinvent_7_9_3/rearranged_h_0167.sdf

> <i_m_source_file_index>
23

> <r_mmod_Potential_Energy-OPLS-2005>
679.801086425781

> <r_mmod_Stretch_Energy-OPLS-2005>
318.314849853516

> <r_mmod_Bend_Energy-OPLS-2005>
308.791839599609

> <r_mmod_Torsional_Energy-OPLS-2005>
275.767913818359

> <r_mmod_Improper_Torsional_Energy-OPLS-2005>
17.4973697662354

> <r_mmod_Van_der_Waal_Energy-OPLS-2005>
110.619567871094

> <r_mmod_Electrostatic_Energy-OPLS-2005>
-377.111663818359

> <r_mmod_Solvation_Energy-OPLS-2005>
-199.96272277832

> <b_mmod_Minimization_Converged-OPLS-2005>
0

> <r_mmod_RMS_Derivative-OPLS-2005>
3.18042945861816

$$$$
23
                    3D
 Structure written by MMmdl.
168177  0  0  1  0            999 V2000
  -30.6842  -14.7809   20.4473 C   0  0  0  0  0  0
  -30.4101  -12.4876   19.4793 C   0  0  0  0  0  0
  -29.4985  -12.5013   18.2368 C   0  0  0  0  0  0
  -28.0304  -12.3111   18.6566 C   0  0  0  0  0  0
  -27.6282  -13.2324   19.8377 C   0  0  2  0  0  0
  -28.6791  -13.2414   20.9731 C   0  0  0  0  0  0
  -25.2451  -13.8181   20.5693 C   0  0  0  0  0  0
  -24.1764  -13.0425   20.9236 C   0  0  0  0  0  0
  -24.6369  -11.6908   20.8776 C   0  0  0  0  0  0
  -23.9053  -10.4285   21.0421 C   0  0  0  0  0  0
  -24.3610   -9.4203   21.9197 C   0  0  0  0  0  0
  -23.6292   -8.2232   22.0753 C   0  0  0  0  0  0
  -22.4278   -8.0267   21.3536 C   0  0  0  0  0  0
  -21.9911   -9.0243   20.4641 C   0  0  0  0  0  0
  -22.7230  -10.2127   20.3063 C   0  0  0  0  0  0
  -21.6847   -6.0728   22.5281 C   0  0  0  0  0  0
  -21.4005   -6.5634   23.8215 C   0  0  0  0  0  0
  -21.3661   -5.6787   24.9178 C   0  0  0  0  0  0
  -21.6051   -4.3051   24.7223 C   0  0  0  0  0  0
  -21.8819   -3.8140   23.4343 C   0  0  0  0  0  0
  -21.9188   -4.6956   22.3403 C   0  0  0  0  0  0
  -22.7791  -13.5219   21.1877 C   0  0  0  0  0  0
  -22.1662   -4.2143   21.0979 F   0  0  0  0  0  0
  -21.5632   -3.4536   25.7734 F   0  0  0  0  0  0
  -29.9667  -13.5970   20.3667 N   0  0  0  0  0  0
  -26.2872  -12.9390   20.3268 N   0  0  0  0  0  0
  -25.9301  -11.6536   20.5789 N   0  0  0  0  0  0
  -22.0418  -12.8228   22.0427 N   0  0  0  0  0  0
  -25.4086  -15.1898   20.4046 N   0  0  0  0  0  0
  -31.8889  -14.7184   20.1822 O   0  0  0  0  0  0
  -21.6636   -6.8870   21.4241 O   0  0  0  0  0  0
  -22.3494  -14.5528   20.6711 O   0  0  0  0  0  0
  -24.6328  -31.8542   23.1994 C   0  0  0  0  0  0
  -25.9155  -32.4741   23.8336 C   0  0  1  0  0  0
  -27.2067  -27.2496   20.1394 C   0  0  0  0  0  0
  -25.5941  -33.8548   24.2248 N   0  0  0  0  0  0
  -23.4305  -30.4786   21.5423 C   0  0  2  0  0  0
  -24.8794  -28.9308   20.1048 C   0  0  0  0  0  0
  -22.7516  -29.4601   22.4903 C   0  0  0  0  0  0
  -18.0292  -28.1388   22.8480 C   0  0  0  0  0  0
  -24.1492  -36.7283   23.2638 C   0  0  0  0  0  0
  -25.9788  -30.7633   21.3846 C   0  0  0  0  0  0
  -26.0520  -29.3872   20.7230 C   0  0  0  0  0  0
  -27.2237  -28.5590   20.7312 C   0  0  0  0  0  0
  -26.0241  -26.8780   19.4663 C   0  0  0  0  0  0
  -24.8720  -27.6846   19.4620 C   0  0  0  0  0  0
  -23.6498  -29.8169   20.1568 C   0  0  0  0  0  0
  -25.4119  -36.3058   24.0322 C   0  0  1  0  0  0
  -20.5899  -28.3703   23.1260 C   0  0  2  0  0  0
  -20.6784  -26.9418   22.5407 C   0  0  0  0  0  0
  -19.5758  -26.6383   21.5211 C   0  0  0  0  0  0
  -18.1938  -26.7934   22.1619 C   0  0  0  0  0  0
  -19.1548  -28.8866   23.2863 C   0  0  0  0  0  0
  -18.9465  -30.1465   23.8877 C   0  0  0  0  0  0
  -17.6465  -30.6589   24.0558 C   0  0  0  0  0  0
  -25.9062  -34.9430   23.5084 C   0  0  0  0  0  0
  -16.5354  -29.9079   23.6337 C   0  0  0  0  0  0
  -16.7280  -28.6500   23.0356 C   0  0  0  0  0  0
  -26.4518  -31.6575   25.0738 C   0  0  0  0  0  0
  -25.3735  -31.3729   26.1453 C   0  0  0  0  0  0
  -27.0381  -30.2982   24.6265 C   0  0  0  0  0  0
  -27.6051  -32.4340   25.7518 C   0  0  0  0  0  0
  -27.5582  -37.1794   24.8460 C   0  0  0  0  0  0
  -21.4220  -29.3044   22.3646 N   0  0  0  0  0  0
  -26.4286  -37.3766   23.9409 N   0  0  0  0  0  0
  -24.6993  -31.0501   22.0977 N   0  0  0  0  0  0
  -23.4211  -28.8142   23.3006 O   0  0  0  0  0  0
  -28.2321  -26.2760   20.2143 O   0  0  0  0  0  0
  -26.5639  -34.8903   22.4654 O   0  0  0  0  0  0
  -23.5476  -32.1371   23.7284 O   0  0  0  0  0  0
  -29.1524  -22.9425   19.7393 C   0  0  0  0  0  0
  -27.9663  -22.5309   21.7906 C   0  0  0  0  0  0
  -28.3714  -23.4977   20.8020 C   0  0  0  0  0  0
  -29.4632  -21.5213   19.6577 C   0  0  0  0  0  0
  -28.3326  -21.1299   21.7456 C   0  0  0  0  0  0
  -29.0681  -20.5581   20.6549 C   0  0  0  0  0  0
  -30.5409  -18.6024   21.3093 C   0  0  0  0  0  0
  -28.3517  -18.0913   20.4606 C   0  0  0  0  0  0
  -31.0754  -17.2153   20.7960 C   0  0  0  0  0  0
  -28.7820  -16.5570   20.2573 C   0  0  0  0  0  0
  -29.6459  -23.8942   18.6549 C   0  0  0  0  0  0
  -27.0943  -23.0099   22.9618 C   0  0  0  0  0  0
  -30.2471  -21.0173   18.4465 C   0  0  0  0  0  0
  -27.9101  -20.2421   22.9185 C   0  0  0  0  0  0
  -27.8270  -25.0205   20.9456 C   0  0  0  0  0  0
  -29.4057  -19.1311   20.5435 N   0  0  0  0  0  0
  -30.1273  -16.0589   20.6790 N   0  0  0  0  0  0
  -31.4524  -12.5747   19.1683 H   0  0  0  0  0  0
  -30.3417  -11.5295   19.9977 H   0  0  0  0  0  0
  -29.7944  -11.7172   17.5384 H   0  0  0  0  0  0
  -29.6127  -13.4467   17.7049 H   0  0  0  0  0  0
  -27.9026  -11.2665   18.9423 H   0  0  0  0  0  0
  -27.3681  -12.4765   17.8056 H   0  0  0  0  0  0
  -27.5925  -14.2293   19.4054 H   0  0  0  0  0  0
  -28.7385  -12.2658   21.4585 H   0  0  0  0  0  0
  -28.4118  -13.9526   21.7547 H   0  0  0  0  0  0
  -25.2740   -9.5690   22.4793 H   0  0  0  0  0  0
  -23.9991   -7.4626   22.7483 H   0  0  0  0  0  0
  -21.0835   -8.8772   19.8957 H   0  0  0  0  0  0
  -22.3681  -10.9678   19.6188 H   0  0  0  0  0  0
  -21.2000   -7.6141   23.9718 H   0  0  0  0  0  0
  -21.1486   -6.0514   25.9084 H   0  0  0  0  0  0
  -22.0598   -2.7600   23.2839 H   0  0  0  0  0  0
  -22.3998  -11.9885   22.4832 H   0  0  0  0  0  0
  -21.1039  -13.1283   22.2613 H   0  0  0  0  0  0
  -24.6362  -15.8378   20.5138 H   0  0  0  0  0  0
  -26.2446  -15.6265   20.0419 H   0  0  0  0  0  0
  -26.7225  -32.5386   23.1076 H   0  0  0  0  0  0
  -25.0070  -33.9681   25.0383 H   0  0  0  0  0  0
  -22.7266  -31.3010   21.3978 H   0  0  0  0  0  0
  -23.3753  -35.9616   23.3283 H   0  0  0  0  0  0
  -24.3580  -36.8932   22.2056 H   0  0  0  0  0  0
  -23.7248  -37.6477   23.6682 H   0  0  0  0  0  0
  -26.1256  -31.5261   20.6187 H   0  0  0  0  0  0
  -26.8530  -30.8058   22.0228 H   0  0  0  0  0  0
  -28.1151  -28.8950   21.2426 H   0  0  0  0  0  0
  -25.9726  -25.9176   18.9718 H   0  0  0  0  0  0
  -23.9779  -27.3331   18.9649 H   0  0  0  0  0  0
  -23.7716  -30.5949   19.4025 H   0  0  0  0  0  0
  -22.7680  -29.2505   19.8517 H   0  0  0  0  0  0
  -25.1301  -36.1896   25.0816 H   0  0  0  0  0  0
  -20.9989  -28.3284   24.1382 H   0  0  0  0  0  0
  -20.5688  -26.2311   23.3615 H   0  0  0  0  0  0
  -21.6649  -26.7447   22.1192 H   0  0  0  0  0  0
  -19.6917  -25.6292   21.1249 H   0  0  0  0  0  0
  -19.6695  -27.3185   20.6734 H   0  0  0  0  0  0
  -17.4213  -26.6687   21.4016 H   0  0  0  0  0  0
  -18.0326  -26.0073   22.9008 H   0  0  0  0  0  0
  -19.7942  -30.7291   24.2232 H   0  0  0  0  0  0
  -17.5017  -31.6267   24.5158 H   0  0  0  0  0  0
  -15.5355  -30.2971   23.7676 H   0  0  0  0  0  0
  -15.8679  -28.0813   22.7079 H   0  0  0  0  0  0
  -24.5898  -30.7095   25.7777 H   0  0  0  0  0  0
  -24.8945  -32.2901   26.4890 H   0  0  0  0  0  0
  -25.8048  -30.8889   27.0227 H   0  0  0  0  0  0
  -26.2983  -29.6710   24.1273 H   0  0  0  0  0  0
  -27.4019  -29.7269   25.4819 H   0  0  0  0  0  0
  -27.8883  -30.4237   23.9552 H   0  0  0  0  0  0
  -27.2628  -33.3635   26.2083 H   0  0  0  0  0  0
  -28.3866  -32.6921   25.0357 H   0  0  0  0  0  0
  -28.0718  -31.8485   26.5450 H   0  0  0  0  0  0
  -28.2580  -38.0109   24.7519 H   0  0  0  0  0  0
  -28.1092  -36.2637   24.6261 H   0  0  0  0  0  0
  -27.2298  -37.1413   25.8861 H   0  0  0  0  0  0
  -20.9412  -29.8753   21.6834 H   0  0  0  0  0  0
  -26.0157  -38.2836   24.1415 H   0  0  0  0  0  0
  -31.3518  -19.3320   21.2764 H   0  0  0  0  0  0
  -30.2776  -18.5018   22.3610 H   0  0  0  0  0  0
  -27.7446  -18.1359   21.3623 H   0  0  0  0  0  0
  -27.6655  -18.3693   19.6589 H   0  0  0  0  0  0
  -31.8930  -16.9276   21.4600 H   0  0  0  0  0  0
  -31.5314  -17.3687   19.8161 H   0  0  0  0  0  0
  -28.6942  -16.3290   19.1935 H   0  0  0  0  0  0
  -28.0302  -15.9552   20.7605 H   0  0  0  0  0  0
  -29.8494  -24.8839   19.0573 H   0  0  0  0  0  0
  -28.8999  -23.9929   17.8665 H   0  0  0  0  0  0
  -30.5842  -23.5717   18.2064 H   0  0  0  0  0  0
  -26.4023  -23.8049   22.6940 H   0  0  0  0  0  0
  -27.7224  -23.3707   23.7768 H   0  0  0  0  0  0
  -26.4418  -22.2340   23.3568 H   0  0  0  0  0  0
  -29.8871  -21.4773   17.5265 H   0  0  0  0  0  0
  -30.1604  -19.9426   18.2945 H   0  0  0  0  0  0
  -31.3053  -21.2510   18.5615 H   0  0  0  0  0  0
  -28.0617  -20.7478   23.8718 H   0  0  0  0  0  0
  -28.4760  -19.3222   23.0051 H   0  0  0  0  0  0
  -26.8573  -19.9724   22.8275 H   0  0  0  0  0  0
  -27.9960  -25.2944   21.9877 H   0  0  0  0  0  0
  -26.7481  -24.9043   20.8562 H   0  0  0  0  0  0
  1 25  1  0  0  0
  1 30  2  0  0  0
  1 87  1  0  0  0
  2  3  1  0  0  0
  2 25  1  0  0  0
  2 88  1  0  0  0
  2 89  1  0  0  0
  3  4  1  0  0  0
  3 90  1  0  0  0
  3 91  1  0  0  0
  4  5  1  0  0  0
  4 92  1  0  0  0
  4 93  1  0  0  0
  5  6  1  0  0  0
  5 26  1  0  0  0
  5 94  1  0  0  0
  6 25  1  0  0  0
  6 95  1  0  0  0
  6 96  1  0  0  0
  7  8  2  0  0  0
  7 26  1  0  0  0
  7 29  1  0  0  0
  8  9  1  0  0  0
  8 22  1  0  0  0
  9 10  1  0  0  0
  9 27  2  0  0  0
 10 11  2  0  0  0
 10 15  1  0  0  0
 11 12  1  0  0  0
 11 97  1  0  0  0
 12 13  2  0  0  0
 12 98  1  0  0  0
 13 14  1  0  0  0
 13 31  1  0  0  0
 14 15  2  0  0  0
 14 99  1  0  0  0
 15100  1  0  0  0
 16 17  2  0  0  0
 16 21  1  0  0  0
 16 31  1  0  0  0
 17 18  1  0  0  0
 17101  1  0  0  0
 18 19  2  0  0  0
 18102  1  0  0  0
 19 20  1  0  0  0
 19 24  1  0  0  0
 20 21  2  0  0  0
 20103  1  0  0  0
 21 23  1  0  0  0
 22 28  1  0  0  0
 22 32  2  0  0  0
 26 27  1  0  0  0
 28104  1  0  0  0
 28105  1  0  0  0
 29106  1  0  0  0
 29107  1  0  0  0
 33 34  1  0  0  0
 33 66  1  0  0  0
 33 70  2  0  0  0
 34 36  1  0  0  0
 34 59  1  0  0  0
 34108  1  0  0  0
 35 44  2  0  0  0
 35 45  1  0  0  0
 35 68  1  0  0  0
 36 56  1  0  0  0
 36109  1  0  0  0
 37 39  1  0  0  0
 37 47  1  0  0  0
 37 66  1  0  0  0
 37110  1  0  0  0
 38 43  2  0  0  0
 38 46  1  0  0  0
 38 47  1  0  0  0
 39 64  1  0  0  0
 39 67  2  0  0  0
 40 52  1  0  0  0
 40 53  2  0  0  0
 40 58  1  0  0  0
 41111  1  0  0  0
 41112  1  0  0  0
 41113  1  0  0  0
 41 48  1  0  0  0
 42 43  1  0  0  0
 42 66  1  0  0  0
 42114  1  0  0  0
 42115  1  0  0  0
 43 44  1  0  0  0
 44116  1  0  0  0
 45 46  2  0  0  0
 45117  1  0  0  0
 46118  1  0  0  0
 47119  1  0  0  0
 47120  1  0  0  0
 48 56  1  0  0  0
 48 65  1  0  0  0
 48121  1  0  0  0
 49 50  1  0  0  0
 49 53  1  0  0  0
 49 64  1  0  0  0
 49122  1  0  0  0
 50 51  1  0  0  0
 50123  1  0  0  0
 50124  1  0  0  0
 51 52  1  0  0  0
 51125  1  0  0  0
 51126  1  0  0  0
 52127  1  0  0  0
 52128  1  0  0  0
 53 54  1  0  0  0
 54 55  2  0  0  0
 54129  1  0  0  0
 55 57  1  0  0  0
 55130  1  0  0  0
 56 69  2  0  0  0
 57 58  2  0  0  0
 57131  1  0  0  0
 58132  1  0  0  0
 59 60  1  0  0  0
 59 61  1  0  0  0
 59 62  1  0  0  0
 60133  1  0  0  0
 60134  1  0  0  0
 60135  1  0  0  0
 61136  1  0  0  0
 61137  1  0  0  0
 61138  1  0  0  0
 62139  1  0  0  0
 62140  1  0  0  0
 62141  1  0  0  0
 63 65  1  0  0  0
 63142  1  0  0  0
 63143  1  0  0  0
 63144  1  0  0  0
 64145  1  0  0  0
 65146  1  0  0  0
 68 85  1  0  0  0
 71 73  2  0  0  0
 71 74  1  0  0  0
 71 81  1  0  0  0
 72 73  1  0  0  0
 72 75  2  0  0  0
 72 82  1  0  0  0
 73 85  1  0  0  0
 74 76  2  0  0  0
 74 83  1  0  0  0
 75 76  1  0  0  0
 75 84  1  0  0  0
 76 86  1  0  0  0
 77 79  1  0  0  0
 77 86  1  0  0  0
 77147  1  0  0  0
 77148  1  0  0  0
 78 80  1  0  0  0
 78 86  1  0  0  0
 78149  1  0  0  0
 78150  1  0  0  0
 79 87  1  0  0  0
 79151  1  0  0  0
 79152  1  0  0  0
 80 87  1  0  0  0
 80153  1  0  0  0
 80154  1  0  0  0
 81155  1  0  0  0
 81156  1  0  0  0
 81157  1  0  0  0
 82158  1  0  0  0
 82159  1  0  0  0
 82160  1  0  0  0
 83161  1  0  0  0
 83162  1  0  0  0
 83163  1  0  0  0
 84164  1  0  0  0
 84165  1  0  0  0
 84166  1  0  0  0
 85167  1  0  0  0
 85168  1  0  0  0
M  ISO  4   1 100  68 101  85 101  87 100
M  END
> <chiral flag>
0

> <version>
0

> <s_m_source_file>
/data/baiqing/PycharmProjects/Reinvent-master-3.2/result/LINK_invent/BTK/process_docking_weight1_custom_sum_contain_oxygen_bond_distance_aromatic_linkinvent_7_9_3/rearranged_h_0167.sdf

> <i_m_source_file_index>
24

> <r_mmod_Potential_Energy-OPLS-2005>
484.810302734375

> <r_mmod_Stretch_Energy-OPLS-2005>
142.623458862305

> <r_mmod_Bend_Energy-OPLS-2005>
236.468170166016

> <r_mmod_Torsional_Energy-OPLS-2005>
382.280303955078

> <r_mmod_Improper_Torsional_Energy-OPLS-2005>
8.2242956161499

> <r_mmod_Van_der_Waal_Energy-OPLS-2005>
176.872909545898

> <r_mmod_Electrostatic_Energy-OPLS-2005>
-368.127777099609

> <r_mmod_Solvation_Energy-OPLS-2005>
-204.880096435547

> <b_mmod_Minimization_Converged-OPLS-2005>
0

> <r_mmod_RMS_Derivative-OPLS-2005>
1.11748886108398

$$$$
24
                    3D
 Structure written by MMmdl.
179189  0  0  1  0            999 V2000
  -30.6471  -14.6645   20.5619 C   0  0  0  0  0  0
  -30.4247  -12.4285   19.4544 C   0  0  0  0  0  0
  -29.4933  -12.5284   18.2243 C   0  0  0  0  0  0
  -28.0237  -12.3505   18.6447 C   0  0  0  0  0  0
  -27.6466  -13.2321   19.8613 C   0  0  2  0  0  0
  -28.6856  -13.0978   20.9913 C   0  0  0  0  0  0
  -25.2496  -13.8185   20.5688 C   0  0  0  0  0  0
  -24.1757  -13.0428   20.9179 C   0  0  0  0  0  0
  -24.6361  -11.6921   20.8761 C   0  0  0  0  0  0
  -23.9057  -10.4276   21.0425 C   0  0  0  0  0  0
  -24.3619   -9.4206   21.9204 C   0  0  0  0  0  0
  -23.6290   -8.2239   22.0785 C   0  0  0  0  0  0
  -22.4273   -8.0267   21.3541 C   0  0  0  0  0  0
  -21.9904   -9.0245   20.4646 C   0  0  0  0  0  0
  -22.7253  -10.2116   20.3044 C   0  0  0  0  0  0
  -21.6829   -6.0735   22.5274 C   0  0  0  0  0  0
  -21.4014   -6.5644   23.8210 C   0  0  0  0  0  0
  -21.3671   -5.6792   24.9170 C   0  0  0  0  0  0
  -21.6035   -4.3052   24.7218 C   0  0  0  0  0  0
  -21.8837   -3.8158   23.4340 C   0  0  0  0  0  0
  -21.9187   -4.6971   22.3395 C   0  0  0  0  0  0
  -22.7788  -13.5220   21.1822 C   0  0  0  0  0  0
  -22.1664   -4.2183   21.0977 F   0  0  0  0  0  0
  -21.5622   -3.4518   25.7731 F   0  0  0  0  0  0
  -30.0034  -13.4519   20.4404 N   0  0  0  0  0  0
  -26.2939  -12.9407   20.3327 N   0  0  0  0  0  0
  -25.9297  -11.6552   20.5747 N   0  0  0  0  0  0
  -22.0396  -12.8222   22.0395 N   0  0  0  0  0  0
  -25.4138  -15.1904   20.4131 N   0  0  0  0  0  0
  -31.7547  -14.8284   20.0364 O   0  0  0  0  0  0
  -21.6624   -6.8875   21.4243 O   0  0  0  0  0  0
  -22.3495  -14.5513   20.6655 O   0  0  0  0  0  0
  -24.6293  -31.8527   23.2008 C   0  0  0  0  0  0
  -25.9132  -32.4727   23.8322 C   0  0  1  0  0  0
  -27.2086  -27.2674   20.1783 C   0  0  0  0  0  0
  -25.5955  -33.8544   24.2216 N   0  0  0  0  0  0
  -23.4239  -30.4840   21.5362 C   0  0  2  0  0  0
  -24.8768  -28.9358   20.1062 C   0  0  0  0  0  0
  -22.7446  -29.4634   22.4830 C   0  0  0  0  0  0
  -18.0262  -28.1392   22.8335 C   0  0  0  0  0  0
  -24.1510  -36.7304   23.2640 C   0  0  0  0  0  0
  -25.9730  -30.7742   21.3819 C   0  0  0  0  0  0
  -26.0414  -29.3991   20.7282 C   0  0  0  0  0  0
  -27.2104  -28.5808   20.7482 C   0  0  0  0  0  0
  -26.0351  -26.8840   19.4886 C   0  0  0  0  0  0
  -24.8797  -27.6851   19.4711 C   0  0  0  0  0  0
  -23.6506  -29.8235   20.1499 C   0  0  0  0  0  0
  -25.4125  -36.3039   24.0309 C   0  0  1  0  0  0
  -20.5870  -28.3669   23.1165 C   0  0  2  0  0  0
  -20.6753  -26.9368   22.5343 C   0  0  0  0  0  0
  -19.5828  -26.6452   21.5063 C   0  0  0  0  0  0
  -18.1948  -26.7955   22.1435 C   0  0  0  0  0  0
  -19.1536  -28.8877   23.2770 C   0  0  0  0  0  0
  -18.9419  -30.1419   23.8862 C   0  0  0  0  0  0
  -17.6422  -30.6542   24.0552 C   0  0  0  0  0  0
  -25.9066  -34.9417   23.5047 C   0  0  0  0  0  0
  -16.5319  -29.9071   23.6261 C   0  0  0  0  0  0
  -16.7276  -28.6494   23.0220 C   0  0  0  0  0  0
  -26.4511  -31.6573   25.0721 C   0  0  0  0  0  0
  -25.3753  -31.3782   26.1446 C   0  0  0  0  0  0
  -27.0363  -30.2967   24.6252 C   0  0  0  0  0  0
  -27.6000  -32.4379   25.7533 C   0  0  0  0  0  0
  -27.5556  -37.1793   24.8444 C   0  0  0  0  0  0
  -21.4162  -29.2987   22.3505 N   0  0  0  0  0  0
  -26.4269  -37.3753   23.9402 N   0  0  0  0  0  0
  -24.6957  -31.0554   22.0943 N   0  0  0  0  0  0
  -23.4141  -28.8224   23.2974 O   0  0  0  0  0  0
  -28.2856  -26.3694   20.3444 O   0  0  0  0  0  0
  -26.5608  -34.8901   22.4603 O   0  0  0  0  0  0
  -23.5456  -32.1319   23.7294 O   0  0  0  0  0  0
  -28.7189  -22.2721   20.5657 C   0  0  0  0  0  0
  -28.5534  -22.0637   19.1667 C   0  0  0  0  0  0
  -28.9529  -21.0581   21.3460 C   0  0  0  0  0  0
  -29.1118  -19.7628   20.7047 C   0  0  0  0  0  0
  -28.6562  -20.7485   18.6393 C   0  0  0  0  0  0
  -28.2249  -23.2211   18.2215 C   0  0  0  0  0  0
  -28.5922  -24.6142   18.7211 C   0  0  0  0  0  0
  -30.8582  -17.0321   23.0637 C   0  0  0  0  0  0
  -30.3248  -18.4078   22.5997 C   0  0  0  0  0  0
  -29.9871  -15.8438   22.5977 C   0  0  0  0  0  0
  -29.8509  -17.1096   20.4728 C   0  0  0  0  0  0
  -29.3600  -18.3408   21.3917 C   0  0  1  0  0  0
  -28.1009  -24.8919   20.1337 C   0  0  1  0  0  0
  -28.6728  -23.7715   21.1483 C   0  0  0  0  0  0
  -27.7783  -23.8733   22.3977 C   0  0  0  0  0  0
  -30.1072  -24.1365   21.5837 C   0  0  0  0  0  0
  -26.9925  -19.8408   16.9776 C   0  0  0  0  0  0
  -27.7963  -20.7823   23.3704 C   0  0  0  0  0  0
  -28.4107  -20.3857   17.1835 C   0  0  0  0  0  0
  -28.9379  -19.6650   19.3789 N   0  0  0  0  0  0
  -29.9706  -15.7378   21.1282 N   0  0  0  0  0  0
  -29.0141  -21.1375   22.7151 O   0  0  0  0  0  0
  -31.4667  -12.5387   19.1454 H   0  0  0  0  0  0
  -30.3569  -11.4343   19.8947 H   0  0  0  0  0  0
  -29.7541  -11.7862   17.4686 H   0  0  0  0  0  0
  -29.6256  -13.5004   17.7438 H   0  0  0  0  0  0
  -27.8693  -11.2994   18.8927 H   0  0  0  0  0  0
  -27.3570  -12.5611   17.8075 H   0  0  0  0  0  0
  -27.6531  -14.2674   19.5189 H   0  0  0  0  0  0
  -28.4150  -13.7251   21.8389 H   0  0  0  0  0  0
  -28.7068  -12.0736   21.3650 H   0  0  0  0  0  0
  -25.2738   -9.5693   22.4799 H   0  0  0  0  0  0
  -23.9998   -7.4625   22.7485 H   0  0  0  0  0  0
  -21.0863   -8.8743   19.8931 H   0  0  0  0  0  0
  -22.3709  -10.9653   19.6155 H   0  0  0  0  0  0
  -21.2015   -7.6150   23.9720 H   0  0  0  0  0  0
  -21.1467   -6.0516   25.9075 H   0  0  0  0  0  0
  -22.0604   -2.7619   23.2809 H   0  0  0  0  0  0
  -22.4021  -11.9942   22.4850 H   0  0  0  0  0  0
  -21.0982  -13.1243   22.2480 H   0  0  0  0  0  0
  -24.6411  -15.8423   20.5130 H   0  0  0  0  0  0
  -26.2745  -15.6319   20.1194 H   0  0  0  0  0  0
  -26.7177  -32.5397   23.1052 H   0  0  0  0  0  0
  -25.0171  -33.9690   25.0384 H   0  0  0  0  0  0
  -22.7170  -31.3046   21.3860 H   0  0  0  0  0  0
  -23.3741  -35.9671   23.3299 H   0  0  0  0  0  0
  -24.3601  -36.8936   22.2054 H   0  0  0  0  0  0
  -23.7282  -37.6518   23.6682 H   0  0  0  0  0  0
  -26.1166  -31.5304   20.6097 H   0  0  0  0  0  0
  -26.8510  -30.8189   22.0156 H   0  0  0  0  0  0
  -28.0925  -28.9287   21.2667 H   0  0  0  0  0  0
  -25.9698  -25.9383   18.9748 H   0  0  0  0  0  0
  -23.9953  -27.3148   18.9716 H   0  0  0  0  0  0
  -23.7985  -30.6066   19.4047 H   0  0  0  0  0  0
  -22.7725  -29.2613   19.8266 H   0  0  0  0  0  0
  -25.1302  -36.1881   25.0801 H   0  0  0  0  0  0
  -20.9966  -28.3322   24.1264 H   0  0  0  0  0  0
  -20.5483  -26.2314   23.3547 H   0  0  0  0  0  0
  -21.6684  -26.7311   22.1253 H   0  0  0  0  0  0
  -19.7079  -25.6399   21.1054 H   0  0  0  0  0  0
  -19.6888  -27.3342   20.6696 H   0  0  0  0  0  0
  -17.4202  -26.6599   21.3892 H   0  0  0  0  0  0
  -18.0444  -26.0107   22.8804 H   0  0  0  0  0  0
  -19.7892  -30.7209   24.2275 H   0  0  0  0  0  0
  -17.4984  -31.6220   24.5185 H   0  0  0  0  0  0
  -15.5310  -30.2905   23.7632 H   0  0  0  0  0  0
  -15.8683  -28.0832   22.6864 H   0  0  0  0  0  0
  -24.5900  -30.7136   25.7823 H   0  0  0  0  0  0
  -24.9008  -32.3014   26.4810 H   0  0  0  0  0  0
  -25.8120  -30.9010   27.0220 H   0  0  0  0  0  0
  -26.2972  -29.6675   24.1290 H   0  0  0  0  0  0
  -27.4015  -29.7267   25.4794 H   0  0  0  0  0  0
  -27.8856  -30.4194   23.9529 H   0  0  0  0  0  0
  -27.2500  -33.3644   26.2103 H   0  0  0  0  0  0
  -28.3868  -32.7006   25.0452 H   0  0  0  0  0  0
  -28.0611  -31.8515   26.5478 H   0  0  0  0  0  0
  -28.2534  -38.0112   24.7450 H   0  0  0  0  0  0
  -28.1076  -36.2623   24.6320 H   0  0  0  0  0  0
  -27.2264  -37.1489   25.8840 H   0  0  0  0  0  0
  -20.9309  -29.8502   21.6601 H   0  0  0  0  0  0
  -26.0131  -38.2816   24.1431 H   0  0  0  0  0  0
  -27.1645  -23.1761   17.9776 H   0  0  0  0  0  0
  -28.7627  -23.1087   17.2853 H   0  0  0  0  0  0
  -28.1891  -25.3552   18.0288 H   0  0  0  0  0  0
  -29.6732  -24.7337   18.7048 H   0  0  0  0  0  0
  -31.8758  -16.8999   22.6816 H   0  0  0  0  0  0
  -30.9566  -17.0239   24.1497 H   0  0  0  0  0  0
  -29.8340  -18.8889   23.4449 H   0  0  0  0  0  0
  -31.1670  -19.0489   22.3438 H   0  0  0  0  0  0
  -28.9664  -15.9511   22.9684 H   0  0  0  0  0  0
  -30.3588  -14.9239   23.0501 H   0  0  0  0  0  0
  -29.1779  -16.9930   19.6204 H   0  0  0  0  0  0
  -30.8243  -17.3766   20.0582 H   0  0  0  0  0  0
  -28.3774  -18.0580   21.7732 H   0  0  0  0  0  0
  -27.0373  -24.6625   20.1407 H   0  0  0  0  0  0
  -28.2140  -23.3549   23.2484 H   0  0  0  0  0  0
  -26.7861  -23.4685   22.1970 H   0  0  0  0  0  0
  -27.6562  -24.9070   22.7191 H   0  0  0  0  0  0
  -30.7859  -24.2044   20.7367 H   0  0  0  0  0  0
  -30.5237  -23.3915   22.2652 H   0  0  0  0  0  0
  -30.1347  -25.0907   22.1093 H   0  0  0  0  0  0
  -26.8653  -19.4731   15.9589 H   0  0  0  0  0  0
  -26.2418  -20.6047   17.1772 H   0  0  0  0  0  0
  -26.7825  -19.0151   17.6570 H   0  0  0  0  0  0
  -26.9267  -21.2761   22.9324 H   0  0  0  0  0  0
  -27.8506  -21.0767   24.4177 H   0  0  0  0  0  0
  -27.6044  -19.7123   23.3391 H   0  0  0  0  0  0
  -29.1383  -19.6257   16.8926 H   0  0  0  0  0  0
  -28.5832  -21.2063   16.4906 H   0  0  0  0  0  0
  1 25  1  0  0  0
  1 30  2  0  0  0
  1 91  1  0  0  0
  2  3  1  0  0  0
  2 25  1  0  0  0
  2 93  1  0  0  0
  2 94  1  0  0  0
  3  4  1  0  0  0
  3 95  1  0  0  0
  3 96  1  0  0  0
  4  5  1  0  0  0
  4 97  1  0  0  0
  4 98  1  0  0  0
  5  6  1  0  0  0
  5 26  1  0  0  0
  5 99  1  0  0  0
  6 25  1  0  0  0
  6100  1  0  0  0
  6101  1  0  0  0
  7  8  2  0  0  0
  7 26  1  0  0  0
  7 29  1  0  0  0
  8  9  1  0  0  0
  8 22  1  0  0  0
  9 10  1  0  0  0
  9 27  2  0  0  0
 10 11  2  0  0  0
 10 15  1  0  0  0
 11 12  1  0  0  0
 11102  1  0  0  0
 12 13  2  0  0  0
 12103  1  0  0  0
 13 14  1  0  0  0
 13 31  1  0  0  0
 14 15  2  0  0  0
 14104  1  0  0  0
 15105  1  0  0  0
 16 17  2  0  0  0
 16 21  1  0  0  0
 16 31  1  0  0  0
 17 18  1  0  0  0
 17106  1  0  0  0
 18 19  2  0  0  0
 18107  1  0  0  0
 19 20  1  0  0  0
 19 24  1  0  0  0
 20 21  2  0  0  0
 20108  1  0  0  0
 21 23  1  0  0  0
 22 28  1  0  0  0
 22 32  2  0  0  0
 26 27  1  0  0  0
 28109  1  0  0  0
 28110  1  0  0  0
 29111  1  0  0  0
 29112  1  0  0  0
 33 34  1  0  0  0
 33 66  1  0  0  0
 33 70  2  0  0  0
 34 36  1  0  0  0
 34 59  1  0  0  0
 34113  1  0  0  0
 35 44  2  0  0  0
 35 45  1  0  0  0
 35 68  1  0  0  0
 36 56  1  0  0  0
 36114  1  0  0  0
 37 39  1  0  0  0
 37 47  1  0  0  0
 37 66  1  0  0  0
 37115  1  0  0  0
 38 43  2  0  0  0
 38 46  1  0  0  0
 38 47  1  0  0  0
 39 64  1  0  0  0
 39 67  2  0  0  0
 40 52  1  0  0  0
 40 53  2  0  0  0
 40 58  1  0  0  0
 41116  1  0  0  0
 41117  1  0  0  0
 41118  1  0  0  0
 41 48  1  0  0  0
 42 43  1  0  0  0
 42 66  1  0  0  0
 42119  1  0  0  0
 42120  1  0  0  0
 43 44  1  0  0  0
 44121  1  0  0  0
 45 46  2  0  0  0
 45122  1  0  0  0
 46123  1  0  0  0
 47124  1  0  0  0
 47125  1  0  0  0
 48 56  1  0  0  0
 48 65  1  0  0  0
 48126  1  0  0  0
 49 50  1  0  0  0
 49 53  1  0  0  0
 49 64  1  0  0  0
 49127  1  0  0  0
 50 51  1  0  0  0
 50128  1  0  0  0
 50129  1  0  0  0
 51 52  1  0  0  0
 51130  1  0  0  0
 51131  1  0  0  0
 52132  1  0  0  0
 52133  1  0  0  0
 53 54  1  0  0  0
 54 55  2  0  0  0
 54134  1  0  0  0
 55 57  1  0  0  0
 55135  1  0  0  0
 56 69  2  0  0  0
 57 58  2  0  0  0
 57136  1  0  0  0
 58137  1  0  0  0
 59 60  1  0  0  0
 59 61  1  0  0  0
 59 62  1  0  0  0
 60138  1  0  0  0
 60139  1  0  0  0
 60140  1  0  0  0
 61141  1  0  0  0
 61142  1  0  0  0
 61143  1  0  0  0
 62144  1  0  0  0
 62145  1  0  0  0
 62146  1  0  0  0
 63 65  1  0  0  0
 63147  1  0  0  0
 63148  1  0  0  0
 63149  1  0  0  0
 64150  1  0  0  0
 65151  1  0  0  0
 68 83  1  0  0  0
 71 72  1  0  0  0
 71 73  2  0  0  0
 71 84  1  0  0  0
 72 75  2  0  0  0
 72 76  1  0  0  0
 73 74  1  0  0  0
 73 92  1  0  0  0
 74 90  2  0  0  0
 74 82  1  0  0  0
 75 89  1  0  0  0
 75 90  1  0  0  0
 76 77  1  0  0  0
 76152  1  0  0  0
 76153  1  0  0  0
 77 83  1  0  0  0
 77154  1  0  0  0
 77155  1  0  0  0
 78 79  1  0  0  0
 78 80  1  0  0  0
 78156  1  0  0  0
 78157  1  0  0  0
 79 82  1  0  0  0
 79158  1  0  0  0
 79159  1  0  0  0
 80 91  1  0  0  0
 80160  1  0  0  0
 80161  1  0  0  0
 81 82  1  0  0  0
 81 91  1  0  0  0
 81162  1  0  0  0
 81163  1  0  0  0
 82164  1  0  0  0
 83 84  1  0  0  0
 83165  1  0  0  0
 84 85  1  0  0  0
 84 86  1  0  0  0
 85166  1  0  0  0
 85167  1  0  0  0
 85168  1  0  0  0
 86169  1  0  0  0
 86170  1  0  0  0
 86171  1  0  0  0
 87 89  1  0  0  0
 87172  1  0  0  0
 87173  1  0  0  0
 87174  1  0  0  0
 88 92  1  0  0  0
 88175  1  0  0  0
 88176  1  0  0  0
 88177  1  0  0  0
 89178  1  0  0  0
 89179  1  0  0  0
M  ISO  4   1 100  68 101  83 101  91 100
M  END
> <chiral flag>
0

> <version>
0

> <s_m_source_file>
/data/baiqing/PycharmProjects/Reinvent-master-3.2/result/LINK_invent/BTK/process_docking_weight1_custom_sum_contain_oxygen_bond_distance_aromatic_linkinvent_7_9_3/rearranged_h_0167.sdf

> <i_m_source_file_index>
25

> <r_mmod_Potential_Energy-OPLS-2005>
295.049499511719

> <r_mmod_Stretch_Energy-OPLS-2005>
126.246887207031

> <r_mmod_Bend_Energy-OPLS-2005>
173.93391418457

> <r_mmod_Torsional_Energy-OPLS-2005>
374.985748291016

> <r_mmod_Improper_Torsional_Energy-OPLS-2005>
6.46685314178467

> <r_mmod_Van_der_Waal_Energy-OPLS-2005>
161.461837768555

> <r_mmod_Electrostatic_Energy-OPLS-2005>
-427.833374023438

> <r_mmod_Solvation_Energy-OPLS-2005>
-194.193450927734

> <b_mmod_Minimization_Converged-OPLS-2005>
0

> <r_mmod_RMS_Derivative-OPLS-2005>
7.77087116241455

$$$$
25
                    3D
 Structure written by MMmdl.
173182  0  0  1  0            999 V2000
  -30.6893  -14.4776   20.5001 C   0  0  0  0  0  0
  -30.4180  -12.2901   19.4188 C   0  0  0  0  0  0
  -29.4887  -12.4839   18.2013 C   0  0  0  0  0  0
  -28.0072  -12.3597   18.6160 C   0  0  0  0  0  0
  -27.6580  -13.1986   19.8750 C   0  0  2  0  0  0
  -28.7079  -12.9873   20.9902 C   0  0  0  0  0  0
  -25.2585  -13.8136   20.5677 C   0  0  0  0  0  0
  -24.1826  -13.0423   20.9166 C   0  0  0  0  0  0
  -24.6374  -11.6882   20.8734 C   0  0  0  0  0  0
  -23.9044  -10.4269   21.0406 C   0  0  0  0  0  0
  -24.3601   -9.4198   21.9189 C   0  0  0  0  0  0
  -23.6290   -8.2224   22.0748 C   0  0  0  0  0  0
  -22.4273   -8.0257   21.3536 C   0  0  0  0  0  0
  -21.9904   -9.0224   20.4640 C   0  0  0  0  0  0
  -22.7219  -10.2110   20.3059 C   0  0  0  0  0  0
  -21.6846   -6.0724   22.5267 C   0  0  0  0  0  0
  -21.4005   -6.5638   23.8198 C   0  0  0  0  0  0
  -21.3654   -5.6794   24.9166 C   0  0  0  0  0  0
  -21.6047   -4.3057   24.7220 C   0  0  0  0  0  0
  -21.8822   -3.8146   23.4344 C   0  0  0  0  0  0
  -21.9192   -4.6953   22.3396 C   0  0  0  0  0  0
  -22.7861  -13.5234   21.1856 C   0  0  0  0  0  0
  -22.1669   -4.2141   21.0975 F   0  0  0  0  0  0
  -21.5638   -3.4546   25.7741 F   0  0  0  0  0  0
  -30.0263  -13.2928   20.4197 N   0  0  0  0  0  0
  -26.3004  -12.9286   20.3387 N   0  0  0  0  0  0
  -25.9302  -11.6454   20.5782 N   0  0  0  0  0  0
  -22.0516  -12.8202   22.0404 N   0  0  0  0  0  0
  -25.4358  -15.1844   20.4089 N   0  0  0  0  0  0
  -31.8770  -14.5850   20.1779 O   0  0  0  0  0  0
  -21.6638   -6.8856   21.4225 O   0  0  0  0  0  0
  -22.3554  -14.5550   20.6721 O   0  0  0  0  0  0
  -24.6134  -31.8702   23.2138 C   0  0  0  0  0  0
  -25.9044  -32.4831   23.8419 C   0  0  1  0  0  0
  -27.2284  -27.4459   20.0902 C   0  0  0  0  0  0
  -25.5928  -33.8628   24.2358 N   0  0  0  0  0  0
  -23.3982  -30.4956   21.5534 C   0  0  2  0  0  0
  -24.8415  -28.9659   20.1140 C   0  0  0  0  0  0
  -22.7396  -29.4685   22.5009 C   0  0  0  0  0  0
  -18.0259  -28.1367   22.8489 C   0  0  0  0  0  0
  -24.1492  -36.7292   23.2639 C   0  0  0  0  0  0
  -25.9272  -30.8391   21.3657 C   0  0  0  0  0  0
  -26.0008  -29.4761   20.7097 C   0  0  0  0  0  0
  -27.1943  -28.7218   20.6972 C   0  0  0  0  0  0
  -26.0454  -26.9467   19.4938 C   0  0  0  0  0  0
  -24.8589  -27.7009   19.5035 C   0  0  0  0  0  0
  -23.6029  -29.8292   20.1665 C   0  0  0  0  0  0
  -25.4108  -36.3105   24.0351 C   0  0  1  0  0  0
  -20.5849  -28.3660   23.1326 C   0  0  2  0  0  0
  -20.6764  -26.9408   22.5404 C   0  0  0  0  0  0
  -19.5752  -26.6390   21.5198 C   0  0  0  0  0  0
  -18.1922  -26.7923   22.1597 C   0  0  0  0  0  0
  -19.1504  -28.8826   23.2908 C   0  0  0  0  0  0
  -18.9430  -30.1429   23.8917 C   0  0  0  0  0  0
  -17.6433  -30.6586   24.0552 C   0  0  0  0  0  0
  -25.9040  -34.9480   23.5142 C   0  0  0  0  0  0
  -16.5324  -29.9076   23.6330 C   0  0  0  0  0  0
  -16.7251  -28.6490   23.0368 C   0  0  0  0  0  0
  -26.4481  -31.6601   25.0739 C   0  0  0  0  0  0
  -25.3769  -31.3681   26.1498 C   0  0  0  0  0  0
  -27.0302  -30.3050   24.6098 C   0  0  0  0  0  0
  -27.6073  -32.4304   25.7480 C   0  0  0  0  0  0
  -27.5583  -37.1790   24.8460 C   0  0  0  0  0  0
  -21.4126  -29.3042   22.3756 N   0  0  0  0  0  0
  -26.4285  -37.3797   23.9425 N   0  0  0  0  0  0
  -24.6639  -31.0835   22.1011 N   0  0  0  0  0  0
  -23.4187  -28.8234   23.3052 O   0  0  0  0  0  0
  -28.4154  -26.7431   20.1109 O   0  0  0  0  0  0
  -26.5573  -34.8919   22.4681 O   0  0  0  0  0  0
  -23.5338  -32.1434   23.7556 O   0  0  0  0  0  0
  -30.2660  -21.5446   20.1901 C   0  0  0  0  0  0
  -29.6012  -22.2802   19.1891 C   0  0  0  0  0  0
  -28.4757  -21.6714   18.5731 C   0  0  0  0  0  0
  -28.1154  -20.3496   18.9653 C   0  0  0  0  0  0
  -28.9240  -19.6642   19.9144 C   0  0  0  0  0  0
  -28.9603  -17.4313   19.0284 C   0  0  0  0  0  0
  -30.1406  -16.4764   19.2436 C   0  0  0  0  0  0
  -29.1688  -16.1768   21.5083 C   0  0  0  0  0  0
  -29.1936  -17.7345   21.4898 C   0  0  2  0  0  0
  -27.7055  -22.4135   17.4803 C   0  0  0  0  0  0
  -26.8769  -19.6792   18.3663 C   0  0  0  0  0  0
  -28.3751  -18.2991   22.6639 C   0  0  0  0  0  0
  -31.6807  -23.5748   18.4910 C   0  0  0  0  0  0
  -29.8461  -24.8270   19.7126 C   0  0  0  0  0  0
  -28.4407  -25.4308   19.5470 C   0  0  0  0  0  0
  -30.1639  -23.6516   18.7523 C   0  0  2  0  0  0
  -29.9549  -20.2782   20.5261 N   0  0  0  0  0  0
  -28.7392  -18.2864   20.1981 N   0  0  0  0  0  0
  -29.8905  -15.5673   20.3738 N   0  0  0  0  0  0
  -31.4639  -12.3778   19.1179 H   0  0  0  0  0  0
  -30.3131  -11.2850   19.8294 H   0  0  0  0  0  0
  -29.7212  -11.7515   17.4277 H   0  0  0  0  0  0
  -29.6629  -13.4637   17.7552 H   0  0  0  0  0  0
  -27.8048  -11.3048   18.8059 H   0  0  0  0  0  0
  -27.3585  -12.6451   17.7873 H   0  0  0  0  0  0
  -27.6943  -14.2429   19.5678 H   0  0  0  0  0  0
  -28.6887  -11.9531   21.3392 H   0  0  0  0  0  0
  -28.4930  -13.5924   21.8693 H   0  0  0  0  0  0
  -25.2735   -9.5692   22.4785 H   0  0  0  0  0  0
  -24.0002   -7.4623   22.7475 H   0  0  0  0  0  0
  -21.0834   -8.8737   19.8954 H   0  0  0  0  0  0
  -22.3663  -10.9653   19.6185 H   0  0  0  0  0  0
  -21.1994   -7.6149   23.9686 H   0  0  0  0  0  0
  -21.1484   -6.0538   25.9066 H   0  0  0  0  0  0
  -22.0610   -2.7610   23.2839 H   0  0  0  0  0  0
  -22.4141  -11.9819   22.4706 H   0  0  0  0  0  0
  -21.1152  -13.1224   22.2684 H   0  0  0  0  0  0
  -24.6762  -15.8455   20.5255 H   0  0  0  0  0  0
  -26.3034  -15.6213   20.1288 H   0  0  0  0  0  0
  -26.7116  -32.5543   23.1183 H   0  0  0  0  0  0
  -25.0206  -33.9809   25.0586 H   0  0  0  0  0  0
  -22.6863  -31.3122   21.4187 H   0  0  0  0  0  0
  -23.3777  -35.9599   23.3264 H   0  0  0  0  0  0
  -24.3613  -36.8927   22.2062 H   0  0  0  0  0  0
  -23.7193  -37.6471   23.6657 H   0  0  0  0  0  0
  -26.0459  -31.6103   20.6028 H   0  0  0  0  0  0
  -26.8126  -30.8841   21.9875 H   0  0  0  0  0  0
  -28.0903  -29.1142   21.1576 H   0  0  0  0  0  0
  -26.0106  -25.9777   19.0177 H   0  0  0  0  0  0
  -23.9657  -27.3053   19.0398 H   0  0  0  0  0  0
  -23.7035  -30.6027   19.4044 H   0  0  0  0  0  0
  -22.7279  -29.2436   19.8785 H   0  0  0  0  0  0
  -25.1275  -36.1967   25.0845 H   0  0  0  0  0  0
  -20.9929  -28.3194   24.1449 H   0  0  0  0  0  0
  -20.5679  -26.2263   23.3577 H   0  0  0  0  0  0
  -21.6639  -26.7482   22.1187 H   0  0  0  0  0  0
  -19.6934  -25.6302   21.1229 H   0  0  0  0  0  0
  -19.6705  -27.3189   20.6720 H   0  0  0  0  0  0
  -17.4211  -26.6672   21.3982 H   0  0  0  0  0  0
  -18.0319  -26.0042   22.8966 H   0  0  0  0  0  0
  -19.7905  -30.7228   24.2312 H   0  0  0  0  0  0
  -17.4994  -31.6272   24.5137 H   0  0  0  0  0  0
  -15.5323  -30.2982   23.7670 H   0  0  0  0  0  0
  -15.8641  -28.0808   22.7107 H   0  0  0  0  0  0
  -24.5944  -30.7031   25.7824 H   0  0  0  0  0  0
  -24.8971  -32.2832   26.4985 H   0  0  0  0  0  0
  -25.8150  -30.8817   27.0225 H   0  0  0  0  0  0
  -26.2821  -29.6805   24.1203 H   0  0  0  0  0  0
  -27.4131  -29.7297   25.4537 H   0  0  0  0  0  0
  -27.8644  -30.4373   23.9202 H   0  0  0  0  0  0
  -27.2724  -33.3614   26.2061 H   0  0  0  0  0  0
  -28.3871  -32.6831   25.0284 H   0  0  0  0  0  0
  -28.0753  -31.8423   26.5382 H   0  0  0  0  0  0
  -28.2573  -38.0116   24.7569 H   0  0  0  0  0  0
  -28.1103  -36.2656   24.6195 H   0  0  0  0  0  0
  -27.2330  -37.1326   25.8868 H   0  0  0  0  0  0
  -20.9286  -29.8754   21.6961 H   0  0  0  0  0  0
  -26.0174  -38.2876   24.1426 H   0  0  0  0  0  0
  -31.1157  -21.9596   20.7090 H   0  0  0  0  0  0
  -28.0521  -16.8600   18.8319 H   0  0  0  0  0  0
  -29.1487  -18.0259   18.1324 H   0  0  0  0  0  0
  -31.0601  -17.0407   19.4131 H   0  0  0  0  0  0
  -30.2939  -15.8983   18.3307 H   0  0  0  0  0  0
  -28.1332  -15.8355   21.4818 H   0  0  0  0  0  0
  -29.5865  -15.8190   22.4512 H   0  0  0  0  0  0
  -30.2337  -18.0340   21.6346 H   0  0  0  0  0  0
  -28.3448  -22.5705   16.6112 H   0  0  0  0  0  0
  -27.3728  -23.3852   17.8393 H   0  0  0  0  0  0
  -26.8186  -21.9007   17.1149 H   0  0  0  0  0  0
  -26.0156  -20.3466   18.3970 H   0  0  0  0  0  0
  -26.5699  -18.7881   18.9131 H   0  0  0  0  0  0
  -27.0609  -19.3939   17.3298 H   0  0  0  0  0  0
  -27.3222  -18.0292   22.5792 H   0  0  0  0  0  0
  -28.4369  -19.3861   22.7138 H   0  0  0  0  0  0
  -28.7413  -17.9128   23.6159 H   0  0  0  0  0  0
  -31.9182  -22.7852   17.7776 H   0  0  0  0  0  0
  -32.2517  -23.3900   19.4003 H   0  0  0  0  0  0
  -32.0541  -24.5095   18.0705 H   0  0  0  0  0  0
  -30.0390  -24.5583   20.7516 H   0  0  0  0  0  0
  -30.5433  -25.6366   19.4914 H   0  0  0  0  0  0
  -27.7048  -24.7815   20.0243 H   0  0  0  0  0  0
  -28.1955  -25.5061   18.4878 H   0  0  0  0  0  0
  -29.7471  -23.9147   17.7819 H   0  0  0  0  0  0
  1 25  1  0  0  0
  1 30  2  0  0  0
  1 89  1  0  0  0
  2  3  1  0  0  0
  2 25  1  0  0  0
  2 90  1  0  0  0
  2 91  1  0  0  0
  3  4  1  0  0  0
  3 92  1  0  0  0
  3 93  1  0  0  0
  4  5  1  0  0  0
  4 94  1  0  0  0
  4 95  1  0  0  0
  5  6  1  0  0  0
  5 26  1  0  0  0
  5 96  1  0  0  0
  6 25  1  0  0  0
  6 97  1  0  0  0
  6 98  1  0  0  0
  7  8  2  0  0  0
  7 26  1  0  0  0
  7 29  1  0  0  0
  8  9  1  0  0  0
  8 22  1  0  0  0
  9 10  1  0  0  0
  9 27  2  0  0  0
 10 11  2  0  0  0
 10 15  1  0  0  0
 11 12  1  0  0  0
 11 99  1  0  0  0
 12 13  2  0  0  0
 12100  1  0  0  0
 13 14  1  0  0  0
 13 31  1  0  0  0
 14 15  2  0  0  0
 14101  1  0  0  0
 15102  1  0  0  0
 16 17  2  0  0  0
 16 21  1  0  0  0
 16 31  1  0  0  0
 17 18  1  0  0  0
 17103  1  0  0  0
 18 19  2  0  0  0
 18104  1  0  0  0
 19 20  1  0  0  0
 19 24  1  0  0  0
 20 21  2  0  0  0
 20105  1  0  0  0
 21 23  1  0  0  0
 22 28  1  0  0  0
 22 32  2  0  0  0
 26 27  1  0  0  0
 28106  1  0  0  0
 28107  1  0  0  0
 29108  1  0  0  0
 29109  1  0  0  0
 33 34  1  0  0  0
 33 66  1  0  0  0
 33 70  2  0  0  0
 34 36  1  0  0  0
 34 59  1  0  0  0
 34110  1  0  0  0
 35 44  2  0  0  0
 35 45  1  0  0  0
 35 68  1  0  0  0
 36 56  1  0  0  0
 36111  1  0  0  0
 37 39  1  0  0  0
 37 47  1  0  0  0
 37 66  1  0  0  0
 37112  1  0  0  0
 38 43  2  0  0  0
 38 46  1  0  0  0
 38 47  1  0  0  0
 39 64  1  0  0  0
 39 67  2  0  0  0
 40 52  1  0  0  0
 40 53  2  0  0  0
 40 58  1  0  0  0
 41113  1  0  0  0
 41114  1  0  0  0
 41115  1  0  0  0
 41 48  1  0  0  0
 42 43  1  0  0  0
 42 66  1  0  0  0
 42116  1  0  0  0
 42117  1  0  0  0
 43 44  1  0  0  0
 44118  1  0  0  0
 45 46  2  0  0  0
 45119  1  0  0  0
 46120  1  0  0  0
 47121  1  0  0  0
 47122  1  0  0  0
 48 56  1  0  0  0
 48 65  1  0  0  0
 48123  1  0  0  0
 49 50  1  0  0  0
 49 53  1  0  0  0
 49 64  1  0  0  0
 49124  1  0  0  0
 50 51  1  0  0  0
 50125  1  0  0  0
 50126  1  0  0  0
 51 52  1  0  0  0
 51127  1  0  0  0
 51128  1  0  0  0
 52129  1  0  0  0
 52130  1  0  0  0
 53 54  1  0  0  0
 54 55  2  0  0  0
 54131  1  0  0  0
 55 57  1  0  0  0
 55132  1  0  0  0
 56 69  2  0  0  0
 57 58  2  0  0  0
 57133  1  0  0  0
 58134  1  0  0  0
 59 60  1  0  0  0
 59 61  1  0  0  0
 59 62  1  0  0  0
 60135  1  0  0  0
 60136  1  0  0  0
 60137  1  0  0  0
 61138  1  0  0  0
 61139  1  0  0  0
 61140  1  0  0  0
 62141  1  0  0  0
 62142  1  0  0  0
 62143  1  0  0  0
 63 65  1  0  0  0
 63144  1  0  0  0
 63145  1  0  0  0
 63146  1  0  0  0
 64147  1  0  0  0
 65148  1  0  0  0
 68 85  1  0  0  0
 71 72  2  0  0  0
 71 87  1  0  0  0
 71149  1  0  0  0
 72 73  1  0  0  0
 72 86  1  0  0  0
 73 74  2  0  0  0
 73 80  1  0  0  0
 74 75  1  0  0  0
 74 81  1  0  0  0
 75 87  2  0  0  0
 75 88  1  0  0  0
 76 77  1  0  0  0
 76 88  1  0  0  0
 76150  1  0  0  0
 76151  1  0  0  0
 77 89  1  0  0  0
 77152  1  0  0  0
 77153  1  0  0  0
 78 79  1  0  0  0
 78 89  1  0  0  0
 78154  1  0  0  0
 78155  1  0  0  0
 79 82  1  0  0  0
 79 88  1  0  0  0
 79156  1  0  0  0
 80157  1  0  0  0
 80158  1  0  0  0
 80159  1  0  0  0
 81160  1  0  0  0
 81161  1  0  0  0
 81162  1  0  0  0
 82163  1  0  0  0
 82164  1  0  0  0
 82165  1  0  0  0
 83166  1  0  0  0
 83167  1  0  0  0
 83168  1  0  0  0
 83 86  1  0  0  0
 84 85  1  0  0  0
 84 86  1  0  0  0
 84169  1  0  0  0
 84170  1  0  0  0
 85171  1  0  0  0
 85172  1  0  0  0
 86173  1  0  0  0
M  ISO  4   1 100  68 101  85 101  89 100
M  END
> <chiral flag>
0

> <version>
0

> <s_m_source_file>
/data/baiqing/PycharmProjects/Reinvent-master-3.2/result/LINK_invent/BTK/process_docking_weight1_custom_sum_contain_oxygen_bond_distance_aromatic_linkinvent_7_9_3/rearranged_h_0167.sdf

> <i_m_source_file_index>
26

> <r_mmod_Potential_Energy-OPLS-2005>
3.97422075271606

> <r_mmod_Stretch_Energy-OPLS-2005>
43.379940032959

> <r_mmod_Bend_Energy-OPLS-2005>
110.448173522949

> <r_mmod_Torsional_Energy-OPLS-2005>
363.378753662109

> <r_mmod_Improper_Torsional_Energy-OPLS-2005>
24.1757030487061

> <r_mmod_Van_der_Waal_Energy-OPLS-2005>
182.344787597656

> <r_mmod_Electrostatic_Energy-OPLS-2005>
-524.104064941406

> <r_mmod_Solvation_Energy-OPLS-2005>
-212.997848510742

> <b_mmod_Minimization_Converged-OPLS-2005>
0

> <r_mmod_RMS_Derivative-OPLS-2005>
2.2879376411438

$$$$
26
                    3D
 Structure written by MMmdl.
159168  0  0  1  0            999 V2000
  -30.6456  -14.8751   20.4297 C   0  0  0  0  0  0
  -30.4184  -12.5527   19.4813 C   0  0  0  0  0  0
  -29.5044  -12.5076   18.2413 C   0  0  0  0  0  0
  -28.0423  -12.2886   18.6674 C   0  0  0  0  0  0
  -27.6201  -13.2270   19.8276 C   0  0  2  0  0  0
  -28.6700  -13.3006   20.9588 C   0  0  0  0  0  0
  -25.2463  -13.8160   20.5733 C   0  0  0  0  0  0
  -24.1763  -13.0414   20.9244 C   0  0  0  0  0  0
  -24.6367  -11.6889   20.8786 C   0  0  0  0  0  0
  -23.9058  -10.4273   21.0425 C   0  0  0  0  0  0
  -24.3616   -9.4181   21.9194 C   0  0  0  0  0  0
  -23.6286   -8.2225   22.0757 C   0  0  0  0  0  0
  -22.4270   -8.0276   21.3546 C   0  0  0  0  0  0
  -21.9912   -9.0247   20.4647 C   0  0  0  0  0  0
  -22.7240  -10.2127   20.3059 C   0  0  0  0  0  0
  -21.6848   -6.0737   22.5286 C   0  0  0  0  0  0
  -21.4005   -6.5637   23.8219 C   0  0  0  0  0  0
  -21.3654   -5.6794   24.9184 C   0  0  0  0  0  0
  -21.6048   -4.3058   24.7237 C   0  0  0  0  0  0
  -21.8821   -3.8151   23.4361 C   0  0  0  0  0  0
  -21.9187   -4.6967   22.3413 C   0  0  0  0  0  0
  -22.7786  -13.5206   21.1876 C   0  0  0  0  0  0
  -22.1656   -4.2156   21.0989 F   0  0  0  0  0  0
  -21.5632   -3.4541   25.7745 F   0  0  0  0  0  0
  -29.9468  -13.6762   20.3402 N   0  0  0  0  0  0
  -26.2846  -12.9335   20.3248 N   0  0  0  0  0  0
  -25.9289  -11.6494   20.5785 N   0  0  0  0  0  0
  -22.0417  -12.8211   22.0425 N   0  0  0  0  0  0
  -25.4158  -15.1887   20.4172 N   0  0  0  0  0  0
  -31.8595  -14.8183   20.2119 O   0  0  0  0  0  0
  -21.6630   -6.8877   21.4246 O   0  0  0  0  0  0
  -22.3487  -14.5513   20.6709 O   0  0  0  0  0  0
  -24.6403  -31.8481   23.1929 C   0  0  0  0  0  0
  -25.9200  -32.4708   23.8304 C   0  0  1  0  0  0
  -27.2171  -27.1942   20.1481 C   0  0  0  0  0  0
  -25.5978  -33.8515   24.2228 N   0  0  0  0  0  0
  -23.4400  -30.4700   21.5362 C   0  0  2  0  0  0
  -24.8876  -28.9012   20.1124 C   0  0  0  0  0  0
  -22.7546  -29.4588   22.4882 C   0  0  0  0  0  0
  -18.0302  -28.1407   22.8491 C   0  0  0  0  0  0
  -24.1490  -36.7260   23.2642 C   0  0  0  0  0  0
  -25.9906  -30.7399   21.3814 C   0  0  0  0  0  0
  -26.0625  -29.3542   20.7283 C   0  0  0  0  0  0
  -27.2323  -28.5157   20.7310 C   0  0  0  0  0  0
  -26.0223  -26.8276   19.4943 C   0  0  0  0  0  0
  -24.8764  -27.6484   19.4812 C   0  0  0  0  0  0
  -23.6615  -29.7962   20.1552 C   0  0  0  0  0  0
  -25.4120  -36.3041   24.0320 C   0  0  1  0  0  0
  -20.5907  -28.3734   23.1242 C   0  0  2  0  0  0
  -20.6794  -26.9435   22.5413 C   0  0  0  0  0  0
  -19.5755  -26.6391   21.5230 C   0  0  0  0  0  0
  -18.1936  -26.7947   22.1635 C   0  0  0  0  0  0
  -19.1556  -28.8889   23.2860 C   0  0  0  0  0  0
  -18.9467  -30.1488   23.8880 C   0  0  0  0  0  0
  -17.6461  -30.6595   24.0572 C   0  0  0  0  0  0
  -25.9078  -34.9413   23.5076 C   0  0  0  0  0  0
  -16.5361  -29.9085   23.6343 C   0  0  0  0  0  0
  -16.7286  -28.6509   23.0363 C   0  0  0  0  0  0
  -26.4536  -31.6558   25.0727 C   0  0  0  0  0  0
  -25.3746  -31.3699   26.1434 C   0  0  0  0  0  0
  -27.0408  -30.2974   24.6272 C   0  0  0  0  0  0
  -27.6077  -32.4307   25.7503 C   0  0  0  0  0  0
  -27.5569  -37.1785   24.8460 C   0  0  0  0  0  0
  -21.4240  -29.3072   22.3629 N   0  0  0  0  0  0
  -26.4279  -37.3762   23.9411 N   0  0  0  0  0  0
  -24.7100  -31.0388   22.0929 N   0  0  0  0  0  0
  -23.4209  -28.8126   23.3013 O   0  0  0  0  0  0
  -28.2840  -26.2470   20.1615 O   0  0  0  0  0  0
  -26.5637  -34.8895   22.4636 O   0  0  0  0  0  0
  -23.5534  -32.1331   23.7187 O   0  0  0  0  0  0
  -28.6715  -22.1344   20.5980 C   0  0  0  0  0  0
  -29.8569  -21.1732   18.7529 C   0  0  0  0  0  0
  -29.2537  -20.9261   19.9992 C   0  0  0  0  0  0
  -28.7168  -23.4695   19.9792 C   0  0  0  0  0  0
  -29.3723  -23.4862   18.7278 C   0  0  0  0  0  0
  -28.6149  -18.2519   19.7609 C   0  0  0  0  0  0
  -30.7231  -18.7694   20.7619 C   0  0  0  0  0  0
  -28.7318  -16.7168   20.2498 C   0  0  0  0  0  0
  -30.8257  -17.2758   21.3228 C   0  0  0  0  0  0
  -29.2999  -19.4052   20.5930 C   0  0  0  0  0  0
  -29.5152  -24.7570   17.9103 C   0  0  0  0  0  0
  -28.0091  -24.8009   20.5916 C   0  0  0  0  0  0
  -29.9158  -22.3856   18.1514 N   0  0  0  0  0  0
  -30.0626  -16.1575   20.6615 N   0  0  0  0  0  0
  -31.4557  -12.6703   19.1641 H   0  0  0  0  0  0
  -30.3860  -11.6087   20.0263 H   0  0  0  0  0  0
  -29.8234  -11.7162   17.5625 H   0  0  0  0  0  0
  -29.5930  -13.4431   17.6868 H   0  0  0  0  0  0
  -27.9424  -11.2480   18.9778 H   0  0  0  0  0  0
  -27.3761  -12.4139   17.8129 H   0  0  0  0  0  0
  -27.5562  -14.2033   19.3639 H   0  0  0  0  0  0
  -28.7540  -12.3462   21.4812 H   0  0  0  0  0  0
  -28.3784  -14.0417   21.7040 H   0  0  0  0  0  0
  -25.2762   -9.5653   22.4778 H   0  0  0  0  0  0
  -23.9993   -7.4613   22.7478 H   0  0  0  0  0  0
  -21.0853   -8.8772   19.8954 H   0  0  0  0  0  0
  -22.3703  -10.9676   19.6177 H   0  0  0  0  0  0
  -21.1987   -7.6141   23.9727 H   0  0  0  0  0  0
  -21.1467   -6.0519   25.9086 H   0  0  0  0  0  0
  -22.0603   -2.7617   23.2862 H   0  0  0  0  0  0
  -22.4026  -11.9880   22.4839 H   0  0  0  0  0  0
  -21.1028  -13.1233   22.2602 H   0  0  0  0  0  0
  -24.6528  -15.8440   20.5484 H   0  0  0  0  0  0
  -26.2700  -15.6306   20.1070 H   0  0  0  0  0  0
  -26.7274  -32.5333   23.1044 H   0  0  0  0  0  0
  -25.0164  -33.9637   25.0399 H   0  0  0  0  0  0
  -22.7426  -31.2963   21.3830 H   0  0  0  0  0  0
  -23.3764  -35.9579   23.3285 H   0  0  0  0  0  0
  -24.3583  -36.8918   22.2062 H   0  0  0  0  0  0
  -23.7229  -37.6444   23.6693 H   0  0  0  0  0  0
  -26.1400  -31.4939   20.6068 H   0  0  0  0  0  0
  -26.8643  -30.7907   22.0201 H   0  0  0  0  0  0
  -28.1289  -28.8573   21.2279 H   0  0  0  0  0  0
  -25.9583  -25.8702   18.9962 H   0  0  0  0  0  0
  -23.9805  -27.2971   18.9882 H   0  0  0  0  0  0
  -23.7892  -30.5674   19.3945 H   0  0  0  0  0  0
  -22.7792  -29.2301   19.8522 H   0  0  0  0  0  0
  -25.1312  -36.1878   25.0817 H   0  0  0  0  0  0
  -21.0002  -28.3327   24.1361 H   0  0  0  0  0  0
  -20.5711  -26.2346   23.3637 H   0  0  0  0  0  0
  -21.6655  -26.7465   22.1187 H   0  0  0  0  0  0
  -19.6913  -25.6300   21.1259 H   0  0  0  0  0  0
  -19.6678  -27.3204   20.6755 H   0  0  0  0  0  0
  -17.4214  -26.6726   21.4028 H   0  0  0  0  0  0
  -18.0308  -26.0087   22.9018 H   0  0  0  0  0  0
  -19.7941  -30.7324   24.2226 H   0  0  0  0  0  0
  -17.5003  -31.6264   24.5192 H   0  0  0  0  0  0
  -15.5355  -30.2973   23.7669 H   0  0  0  0  0  0
  -15.8694  -28.0810   22.7083 H   0  0  0  0  0  0
  -24.5936  -30.7045   25.7741 H   0  0  0  0  0  0
  -24.8924  -32.2853   26.4870 H   0  0  0  0  0  0
  -25.8051  -30.8863   27.0209 H   0  0  0  0  0  0
  -26.3025  -29.6688   24.1287 H   0  0  0  0  0  0
  -27.4059  -29.7281   25.4830 H   0  0  0  0  0  0
  -27.8906  -30.4250   23.9566 H   0  0  0  0  0  0
  -27.2709  -33.3635   26.2035 H   0  0  0  0  0  0
  -28.3908  -32.6818   25.0338 H   0  0  0  0  0  0
  -28.0724  -31.8461   26.5455 H   0  0  0  0  0  0
  -28.2567  -38.0102   24.7541 H   0  0  0  0  0  0
  -28.1089  -36.2635   24.6257 H   0  0  0  0  0  0
  -27.2287  -37.1393   25.8861 H   0  0  0  0  0  0
  -20.9443  -29.8776   21.6805 H   0  0  0  0  0  0
  -26.0144  -38.2824   24.1433 H   0  0  0  0  0  0
  -28.1709  -22.0385   21.5502 H   0  0  0  0  0  0
  -30.3196  -20.3650   18.2048 H   0  0  0  0  0  0
  -27.5571  -18.4923   19.6516 H   0  0  0  0  0  0
  -29.0117  -18.2907   18.7458 H   0  0  0  0  0  0
  -31.2395  -18.7973   19.8019 H   0  0  0  0  0  0
  -31.3066  -19.4185   21.4153 H   0  0  0  0  0  0
  -28.3526  -16.1166   19.4288 H   0  0  0  0  0  0
  -28.0532  -16.5643   21.0902 H   0  0  0  0  0  0
  -30.4976  -17.2876   22.3628 H   0  0  0  0  0  0
  -31.8867  -17.0241   21.3729 H   0  0  0  0  0  0
  -28.8268  -19.4435   21.5758 H   0  0  0  0  0  0
  -28.5592  -25.2694   17.8104 H   0  0  0  0  0  0
  -29.8769  -24.5490   16.9028 H   0  0  0  0  0  0
  -30.2255  -25.4318   18.3881 H   0  0  0  0  0  0
  -28.2511  -24.7826   21.6545 H   0  0  0  0  0  0
  -26.9379  -24.6032   20.5628 H   0  0  0  0  0  0
  1 25  1  0  0  0
  1 30  2  0  0  0
  1 84  1  0  0  0
  2  3  1  0  0  0
  2 25  1  0  0  0
  2 85  1  0  0  0
  2 86  1  0  0  0
  3  4  1  0  0  0
  3 87  1  0  0  0
  3 88  1  0  0  0
  4  5  1  0  0  0
  4 89  1  0  0  0
  4 90  1  0  0  0
  5  6  1  0  0  0
  5 26  1  0  0  0
  5 91  1  0  0  0
  6 25  1  0  0  0
  6 92  1  0  0  0
  6 93  1  0  0  0
  7  8  2  0  0  0
  7 26  1  0  0  0
  7 29  1  0  0  0
  8  9  1  0  0  0
  8 22  1  0  0  0
  9 10  1  0  0  0
  9 27  2  0  0  0
 10 11  2  0  0  0
 10 15  1  0  0  0
 11 12  1  0  0  0
 11 94  1  0  0  0
 12 13  2  0  0  0
 12 95  1  0  0  0
 13 14  1  0  0  0
 13 31  1  0  0  0
 14 15  2  0  0  0
 14 96  1  0  0  0
 15 97  1  0  0  0
 16 17  2  0  0  0
 16 21  1  0  0  0
 16 31  1  0  0  0
 17 18  1  0  0  0
 17 98  1  0  0  0
 18 19  2  0  0  0
 18 99  1  0  0  0
 19 20  1  0  0  0
 19 24  1  0  0  0
 20 21  2  0  0  0
 20100  1  0  0  0
 21 23  1  0  0  0
 22 28  1  0  0  0
 22 32  2  0  0  0
 26 27  1  0  0  0
 28101  1  0  0  0
 28102  1  0  0  0
 29103  1  0  0  0
 29104  1  0  0  0
 33 34  1  0  0  0
 33 66  1  0  0  0
 33 70  2  0  0  0
 34 36  1  0  0  0
 34 59  1  0  0  0
 34105  1  0  0  0
 35 44  2  0  0  0
 35 45  1  0  0  0
 35 68  1  0  0  0
 36 56  1  0  0  0
 36106  1  0  0  0
 37 39  1  0  0  0
 37 47  1  0  0  0
 37 66  1  0  0  0
 37107  1  0  0  0
 38 43  2  0  0  0
 38 46  1  0  0  0
 38 47  1  0  0  0
 39 64  1  0  0  0
 39 67  2  0  0  0
 40 52  1  0  0  0
 40 53  2  0  0  0
 40 58  1  0  0  0
 41108  1  0  0  0
 41109  1  0  0  0
 41110  1  0  0  0
 41 48  1  0  0  0
 42 43  1  0  0  0
 42 66  1  0  0  0
 42111  1  0  0  0
 42112  1  0  0  0
 43 44  1  0  0  0
 44113  1  0  0  0
 45 46  2  0  0  0
 45114  1  0  0  0
 46115  1  0  0  0
 47116  1  0  0  0
 47117  1  0  0  0
 48 56  1  0  0  0
 48 65  1  0  0  0
 48118  1  0  0  0
 49 50  1  0  0  0
 49 53  1  0  0  0
 49 64  1  0  0  0
 49119  1  0  0  0
 50 51  1  0  0  0
 50120  1  0  0  0
 50121  1  0  0  0
 51 52  1  0  0  0
 51122  1  0  0  0
 51123  1  0  0  0
 52124  1  0  0  0
 52125  1  0  0  0
 53 54  1  0  0  0
 54 55  2  0  0  0
 54126  1  0  0  0
 55 57  1  0  0  0
 55127  1  0  0  0
 56 69  2  0  0  0
 57 58  2  0  0  0
 57128  1  0  0  0
 58129  1  0  0  0
 59 60  1  0  0  0
 59 61  1  0  0  0
 59 62  1  0  0  0
 60130  1  0  0  0
 60131  1  0  0  0
 60132  1  0  0  0
 61133  1  0  0  0
 61134  1  0  0  0
 61135  1  0  0  0
 62136  1  0  0  0
 62137  1  0  0  0
 62138  1  0  0  0
 63 65  1  0  0  0
 63139  1  0  0  0
 63140  1  0  0  0
 63141  1  0  0  0
 64142  1  0  0  0
 65143  1  0  0  0
 68 82  1  0  0  0
 71 73  2  0  0  0
 71 74  1  0  0  0
 71144  1  0  0  0
 72 73  1  0  0  0
 72 83  2  0  0  0
 72145  1  0  0  0
 73 80  1  0  0  0
 74 75  2  0  0  0
 74 82  1  0  0  0
 75 81  1  0  0  0
 75 83  1  0  0  0
 76 78  1  0  0  0
 76 80  1  0  0  0
 76146  1  0  0  0
 76147  1  0  0  0
 77 79  1  0  0  0
 77 80  1  0  0  0
 77148  1  0  0  0
 77149  1  0  0  0
 78 84  1  0  0  0
 78150  1  0  0  0
 78151  1  0  0  0
 79 84  1  0  0  0
 79152  1  0  0  0
 79153  1  0  0  0
 80154  1  0  0  0
 81155  1  0  0  0
 81156  1  0  0  0
 81157  1  0  0  0
 82158  1  0  0  0
 82159  1  0  0  0
M  ISO  4   1 100  68 101  82 101  84 100
M  END
> <chiral flag>
0

> <version>
0

> <s_m_source_file>
/data/baiqing/PycharmProjects/Reinvent-master-3.2/result/LINK_invent/BTK/process_docking_weight1_custom_sum_contain_oxygen_bond_distance_aromatic_linkinvent_7_9_3/rearranged_h_0167.sdf

> <i_m_source_file_index>
27

> <r_mmod_Potential_Energy-OPLS-2005>
422.615173339844

> <r_mmod_Stretch_Energy-OPLS-2005>
176.161056518555

> <r_mmod_Bend_Energy-OPLS-2005>
234.487319946289

> <r_mmod_Torsional_Energy-OPLS-2005>
333.87939453125

> <r_mmod_Improper_Torsional_Energy-OPLS-2005>
2.03142380714417

> <r_mmod_Van_der_Waal_Energy-OPLS-2005>
138.052154541016

> <r_mmod_Electrostatic_Energy-OPLS-2005>
-398.590026855469

> <r_mmod_Solvation_Energy-OPLS-2005>
-211.887054443359

> <b_mmod_Minimization_Converged-OPLS-2005>
0

> <r_mmod_RMS_Derivative-OPLS-2005>
1.88379633426666

$$$$
27
                    3D
 Structure written by MMmdl.
167177  0  0  1  0            999 V2000
  -30.7368  -14.4874   20.5453 C   0  0  0  0  0  0
  -30.4031  -12.3105   19.4394 C   0  0  0  0  0  0
  -29.4873  -12.5035   18.2157 C   0  0  0  0  0  0
  -28.0116  -12.3537   18.6285 C   0  0  0  0  0  0
  -27.6485  -13.2108   19.8719 C   0  0  2  0  0  0
  -28.6942  -13.0591   21.0003 C   0  0  0  0  0  0
  -25.2536  -13.8161   20.5704 C   0  0  0  0  0  0
  -24.1796  -13.0421   20.9181 C   0  0  0  0  0  0
  -24.6369  -11.6898   20.8756 C   0  0  0  0  0  0
  -23.9043  -10.4283   21.0401 C   0  0  0  0  0  0
  -24.3597   -9.4203   21.9171 C   0  0  0  0  0  0
  -23.6274   -8.2239   22.0748 C   0  0  0  0  0  0
  -22.4255   -8.0281   21.3543 C   0  0  0  0  0  0
  -21.9891   -9.0244   20.4637 C   0  0  0  0  0  0
  -22.7219  -10.2126   20.3043 C   0  0  0  0  0  0
  -21.6846   -6.0733   22.5275 C   0  0  0  0  0  0
  -21.4016   -6.5632   23.8214 C   0  0  0  0  0  0
  -21.3656   -5.6783   24.9171 C   0  0  0  0  0  0
  -21.6043   -4.3048   24.7224 C   0  0  0  0  0  0
  -21.8819   -3.8142   23.4343 C   0  0  0  0  0  0
  -21.9193   -4.6959   22.3400 C   0  0  0  0  0  0
  -22.7828  -13.5221   21.1861 C   0  0  0  0  0  0
  -22.1665   -4.2134   21.0982 F   0  0  0  0  0  0
  -21.5619   -3.4548   25.7746 F   0  0  0  0  0  0
  -30.0204  -13.3324   20.4287 N   0  0  0  0  0  0
  -26.2956  -12.9323   20.3393 N   0  0  0  0  0  0
  -25.9291  -11.6485   20.5793 N   0  0  0  0  0  0
  -22.0476  -12.8204   22.0417 N   0  0  0  0  0  0
  -25.4296  -15.1886   20.4141 N   0  0  0  0  0  0
  -31.9073  -14.5715   20.1621 O   0  0  0  0  0  0
  -21.6633   -6.8871   21.4238 O   0  0  0  0  0  0
  -22.3508  -14.5525   20.6715 O   0  0  0  0  0  0
  -24.6149  -31.8672   23.2085 C   0  0  0  0  0  0
  -25.9025  -32.4819   23.8394 C   0  0  1  0  0  0
  -27.2237  -27.4116   20.1024 C   0  0  0  0  0  0
  -25.5879  -33.8610   24.2331 N   0  0  0  0  0  0
  -23.4030  -30.4887   21.5529 C   0  0  2  0  0  0
  -24.8454  -28.9540   20.1119 C   0  0  0  0  0  0
  -22.7424  -29.4638   22.5027 C   0  0  0  0  0  0
  -18.0247  -28.1336   22.8458 C   0  0  0  0  0  0
  -24.1468  -36.7326   23.2634 C   0  0  0  0  0  0
  -25.9311  -30.8290   21.3599 C   0  0  0  0  0  0
  -26.0063  -29.4605   20.7104 C   0  0  0  0  0  0
  -27.1958  -28.6957   20.7005 C   0  0  0  0  0  0
  -26.0458  -26.9315   19.4826 C   0  0  0  0  0  0
  -24.8619  -27.6929   19.4951 C   0  0  0  0  0  0
  -23.6053  -29.8170   20.1689 C   0  0  0  0  0  0
  -25.4089  -36.3121   24.0331 C   0  0  1  0  0  0
  -20.5847  -28.3624   23.1313 C   0  0  2  0  0  0
  -20.6740  -26.9357   22.5402 C   0  0  0  0  0  0
  -19.5721  -26.6348   21.5176 C   0  0  0  0  0  0
  -18.1895  -26.7883   22.1587 C   0  0  0  0  0  0
  -19.1501  -28.8795   23.2879 C   0  0  0  0  0  0
  -18.9440  -30.1404   23.8878 C   0  0  0  0  0  0
  -17.6442  -30.6554   24.0527 C   0  0  0  0  0  0
  -25.9012  -34.9483   23.5136 C   0  0  0  0  0  0
  -16.5329  -29.9055   23.6319 C   0  0  0  0  0  0
  -16.7243  -28.6467   23.0349 C   0  0  0  0  0  0
  -26.4445  -31.6567   25.0709 C   0  0  0  0  0  0
  -25.3694  -31.3679   26.1475 C   0  0  0  0  0  0
  -27.0304  -30.3027   24.6050 C   0  0  0  0  0  0
  -27.6025  -32.4293   25.7452 C   0  0  0  0  0  0
  -27.5577  -37.1815   24.8463 C   0  0  0  0  0  0
  -21.4158  -29.3014   22.3758 N   0  0  0  0  0  0
  -26.4289  -37.3804   23.9406 N   0  0  0  0  0  0
  -24.6688  -31.0764   22.0988 N   0  0  0  0  0  0
  -23.4182  -28.8158   23.3056 O   0  0  0  0  0  0
  -28.4002  -26.6858   20.1516 O   0  0  0  0  0  0
  -26.5584  -34.8947   22.4700 O   0  0  0  0  0  0
  -23.5334  -32.1423   23.7479 O   0  0  0  0  0  0
  -28.3967  -22.0076   22.2004 C   0  0  0  0  0  0
  -28.7963  -20.6514   22.1267 C   0  0  0  0  0  0
  -29.0851  -22.3496   19.9247 C   0  0  0  0  0  0
  -28.5240  -22.8986   21.1037 C   0  0  0  0  0  0
  -29.3694  -20.1175   20.9501 C   0  0  0  0  0  0
  -29.5274  -21.0053   19.8471 C   0  0  0  0  0  0
  -28.0855  -25.0595   22.5729 C   0  0  0  0  0  0
  -26.7720  -24.6393   21.9808 C   0  0  0  0  0  0
  -29.9864  -17.8457   22.1818 C   0  0  0  0  0  0
  -28.9420  -17.7487   19.9881 C   0  0  0  0  0  0
  -30.6644  -16.4648   21.9368 C   0  0  0  0  0  0
  -29.6641  -16.4204   19.6760 C   0  0  0  0  0  0
  -29.8319  -18.6371   20.8675 C   0  0  0  0  0  0
  -28.0619  -24.3730   21.2123 C   0  0  0  0  0  0
  -30.1862  -20.5655   18.5465 C   0  0  0  0  0  0
  -28.4059  -25.2478   19.9764 C   0  0  0  0  0  0
  -30.0625  -15.6281   20.8658 N   0  0  0  0  0  0
  -31.4517  -12.3787   19.1411 H   0  0  0  0  0  0
  -30.2788  -11.3126   19.8628 H   0  0  0  0  0  0
  -29.7353  -11.7842   17.4365 H   0  0  0  0  0  0
  -29.6482  -13.4929   17.7840 H   0  0  0  0  0  0
  -27.8328  -11.2996   18.8418 H   0  0  0  0  0  0
  -27.3574  -12.6099   17.7937 H   0  0  0  0  0  0
  -27.6604  -14.2467   19.5467 H   0  0  0  0  0  0
  -28.6693  -12.0485   21.4140 H   0  0  0  0  0  0
  -28.4688  -13.7327   21.8291 H   0  0  0  0  0  0
  -25.2733   -9.5683   22.4755 H   0  0  0  0  0  0
  -23.9985   -7.4626   22.7459 H   0  0  0  0  0  0
  -21.0826   -8.8743   19.8937 H   0  0  0  0  0  0
  -22.3655  -10.9660   19.6159 H   0  0  0  0  0  0
  -21.2017   -7.6140   23.9708 H   0  0  0  0  0  0
  -21.1475   -6.0522   25.9071 H   0  0  0  0  0  0
  -22.0606   -2.7601   23.2852 H   0  0  0  0  0  0
  -22.4095  -11.9852   22.4770 H   0  0  0  0  0  0
  -21.1097  -13.1228   22.2656 H   0  0  0  0  0  0
  -24.6694  -15.8516   20.5293 H   0  0  0  0  0  0
  -26.3020  -15.6251   20.1405 H   0  0  0  0  0  0
  -26.7082  -32.5568   23.1158 H   0  0  0  0  0  0
  -25.0059  -33.9712   25.0502 H   0  0  0  0  0  0
  -22.6947  -31.3078   21.4150 H   0  0  0  0  0  0
  -23.3736  -35.9656   23.3303 H   0  0  0  0  0  0
  -24.3544  -36.8929   22.2041 H   0  0  0  0  0  0
  -23.7200  -37.6521   23.6658 H   0  0  0  0  0  0
  -26.0346  -31.5919   20.5860 H   0  0  0  0  0  0
  -26.8211  -30.8918   21.9751 H   0  0  0  0  0  0
  -28.0971  -29.0735   21.1639 H   0  0  0  0  0  0
  -26.0081  -25.9699   18.9938 H   0  0  0  0  0  0
  -23.9706  -27.2982   19.0265 H   0  0  0  0  0  0
  -23.6966  -30.5853   19.3994 H   0  0  0  0  0  0
  -22.7330  -29.2252   19.8890 H   0  0  0  0  0  0
  -25.1256  -36.1990   25.0816 H   0  0  0  0  0  0
  -20.9903  -28.3173   24.1450 H   0  0  0  0  0  0
  -20.5589  -26.2226   23.3586 H   0  0  0  0  0  0
  -21.6618  -26.7376   22.1218 H   0  0  0  0  0  0
  -19.6884  -25.6269   21.1179 H   0  0  0  0  0  0
  -19.6657  -27.3181   20.6719 H   0  0  0  0  0  0
  -17.4164  -26.6590   21.3994 H   0  0  0  0  0  0
  -18.0316  -26.0021   22.8973 H   0  0  0  0  0  0
  -19.7928  -30.7188   24.2254 H   0  0  0  0  0  0
  -17.5019  -31.6232   24.5123 H   0  0  0  0  0  0
  -15.5337  -30.2942   23.7670 H   0  0  0  0  0  0
  -15.8637  -28.0776   22.7117 H   0  0  0  0  0  0
  -24.5888  -30.6974   25.7857 H   0  0  0  0  0  0
  -24.8844  -32.2823   26.4911 H   0  0  0  0  0  0
  -25.8030  -30.8901   27.0258 H   0  0  0  0  0  0
  -26.2867  -29.6797   24.1056 H   0  0  0  0  0  0
  -27.4057  -29.7258   25.4498 H   0  0  0  0  0  0
  -27.8696  -30.4398   23.9217 H   0  0  0  0  0  0
  -27.2665  -33.3627   26.1994 H   0  0  0  0  0  0
  -28.3844  -32.6759   25.0252 H   0  0  0  0  0  0
  -28.0673  -31.8414   26.5389 H   0  0  0  0  0  0
  -28.2605  -38.0118   24.7572 H   0  0  0  0  0  0
  -28.1068  -36.2653   24.6232 H   0  0  0  0  0  0
  -27.2299  -37.1400   25.8869 H   0  0  0  0  0  0
  -20.9327  -29.8798   21.7029 H   0  0  0  0  0  0
  -26.0196  -38.2876   24.1452 H   0  0  0  0  0  0
  -27.9727  -22.3492   23.1323 H   0  0  0  0  0  0
  -28.6660  -20.0287   22.9985 H   0  0  0  0  0  0
  -29.1987  -22.9636   19.0429 H   0  0  0  0  0  0
  -28.4446  -24.5150   23.4446 H   0  0  0  0  0  0
  -28.2655  -26.1321   22.6085 H   0  0  0  0  0  0
  -26.1156  -25.4451   21.6700 H   0  0  0  0  0  0
  -26.2553  -23.7977   22.4374 H   0  0  0  0  0  0
  -30.5829  -18.4144   22.8953 H   0  0  0  0  0  0
  -29.0126  -17.6946   22.6481 H   0  0  0  0  0  0
  -27.9849  -17.5645   20.4770 H   0  0  0  0  0  0
  -28.7064  -18.2406   19.0479 H   0  0  0  0  0  0
  -30.6692  -15.8952   22.8681 H   0  0  0  0  0  0
  -31.7129  -16.6517   21.6936 H   0  0  0  0  0  0
  -30.5595  -16.6527   19.0936 H   0  0  0  0  0  0
  -29.0390  -15.8242   19.0124 H   0  0  0  0  0  0
  -30.8316  -18.6714   20.4328 H   0  0  0  0  0  0
  -29.5008  -19.9781   17.9370 H   0  0  0  0  0  0
  -31.0882  -19.9805   18.7212 H   0  0  0  0  0  0
  -30.4948  -21.4297   17.9573 H   0  0  0  0  0  0
  -29.4440  -25.0433   19.7186 H   0  0  0  0  0  0
  -27.8269  -24.9219   19.1121 H   0  0  0  0  0  0
  1 25  1  0  0  0
  1 30  2  0  0  0
  1 87  1  0  0  0
  2  3  1  0  0  0
  2 25  1  0  0  0
  2 88  1  0  0  0
  2 89  1  0  0  0
  3  4  1  0  0  0
  3 90  1  0  0  0
  3 91  1  0  0  0
  4  5  1  0  0  0
  4 92  1  0  0  0
  4 93  1  0  0  0
  5  6  1  0  0  0
  5 26  1  0  0  0
  5 94  1  0  0  0
  6 25  1  0  0  0
  6 95  1  0  0  0
  6 96  1  0  0  0
  7  8  2  0  0  0
  7 26  1  0  0  0
  7 29  1  0  0  0
  8  9  1  0  0  0
  8 22  1  0  0  0
  9 10  1  0  0  0
  9 27  2  0  0  0
 10 11  2  0  0  0
 10 15  1  0  0  0
 11 12  1  0  0  0
 11 97  1  0  0  0
 12 13  2  0  0  0
 12 98  1  0  0  0
 13 14  1  0  0  0
 13 31  1  0  0  0
 14 15  2  0  0  0
 14 99  1  0  0  0
 15100  1  0  0  0
 16 17  2  0  0  0
 16 21  1  0  0  0
 16 31  1  0  0  0
 17 18  1  0  0  0
 17101  1  0  0  0
 18 19  2  0  0  0
 18102  1  0  0  0
 19 20  1  0  0  0
 19 24  1  0  0  0
 20 21  2  0  0  0
 20103  1  0  0  0
 21 23  1  0  0  0
 22 28  1  0  0  0
 22 32  2  0  0  0
 26 27  1  0  0  0
 28104  1  0  0  0
 28105  1  0  0  0
 29106  1  0  0  0
 29107  1  0  0  0
 33 34  1  0  0  0
 33 66  1  0  0  0
 33 70  2  0  0  0
 34 36  1  0  0  0
 34 59  1  0  0  0
 34108  1  0  0  0
 35 44  2  0  0  0
 35 45  1  0  0  0
 35 68  1  0  0  0
 36 56  1  0  0  0
 36109  1  0  0  0
 37 39  1  0  0  0
 37 47  1  0  0  0
 37 66  1  0  0  0
 37110  1  0  0  0
 38 43  2  0  0  0
 38 46  1  0  0  0
 38 47  1  0  0  0
 39 64  1  0  0  0
 39 67  2  0  0  0
 40 52  1  0  0  0
 40 53  2  0  0  0
 40 58  1  0  0  0
 41111  1  0  0  0
 41112  1  0  0  0
 41113  1  0  0  0
 41 48  1  0  0  0
 42 43  1  0  0  0
 42 66  1  0  0  0
 42114  1  0  0  0
 42115  1  0  0  0
 43 44  1  0  0  0
 44116  1  0  0  0
 45 46  2  0  0  0
 45117  1  0  0  0
 46118  1  0  0  0
 47119  1  0  0  0
 47120  1  0  0  0
 48 56  1  0  0  0
 48 65  1  0  0  0
 48121  1  0  0  0
 49 50  1  0  0  0
 49 53  1  0  0  0
 49 64  1  0  0  0
 49122  1  0  0  0
 50 51  1  0  0  0
 50123  1  0  0  0
 50124  1  0  0  0
 51 52  1  0  0  0
 51125  1  0  0  0
 51126  1  0  0  0
 52127  1  0  0  0
 52128  1  0  0  0
 53 54  1  0  0  0
 54 55  2  0  0  0
 54129  1  0  0  0
 55 57  1  0  0  0
 55130  1  0  0  0
 56 69  2  0  0  0
 57 58  2  0  0  0
 57131  1  0  0  0
 58132  1  0  0  0
 59 60  1  0  0  0
 59 61  1  0  0  0
 59 62  1  0  0  0
 60133  1  0  0  0
 60134  1  0  0  0
 60135  1  0  0  0
 61136  1  0  0  0
 61137  1  0  0  0
 61138  1  0  0  0
 62139  1  0  0  0
 62140  1  0  0  0
 62141  1  0  0  0
 63 65  1  0  0  0
 63142  1  0  0  0
 63143  1  0  0  0
 63144  1  0  0  0
 64145  1  0  0  0
 65146  1  0  0  0
 68 86  1  0  0  0
 71 72  2  0  0  0
 71 74  1  0  0  0
 71147  1  0  0  0
 72 75  1  0  0  0
 72148  1  0  0  0
 73 74  2  0  0  0
 73 76  1  0  0  0
 73149  1  0  0  0
 74 84  1  0  0  0
 75 76  2  0  0  0
 75 83  1  0  0  0
 76 85  1  0  0  0
 77 78  1  0  0  0
 77 84  1  0  0  0
 77150  1  0  0  0
 77151  1  0  0  0
 78 84  1  0  0  0
 78152  1  0  0  0
 78153  1  0  0  0
 79 81  1  0  0  0
 79 83  1  0  0  0
 79154  1  0  0  0
 79155  1  0  0  0
 80 82  1  0  0  0
 80 83  1  0  0  0
 80156  1  0  0  0
 80157  1  0  0  0
 81 87  1  0  0  0
 81158  1  0  0  0
 81159  1  0  0  0
 82 87  1  0  0  0
 82160  1  0  0  0
 82161  1  0  0  0
 83162  1  0  0  0
 84 86  1  0  0  0
 85163  1  0  0  0
 85164  1  0  0  0
 85165  1  0  0  0
 86166  1  0  0  0
 86167  1  0  0  0
M  ISO  4   1 100  68 101  86 101  87 100
M  END
> <chiral flag>
0

> <version>
0

> <s_m_source_file>
/data/baiqing/PycharmProjects/Reinvent-master-3.2/result/LINK_invent/BTK/process_docking_weight1_custom_sum_contain_oxygen_bond_distance_aromatic_linkinvent_7_9_3/rearranged_h_0167.sdf

> <i_m_source_file_index>
28

> <r_mmod_Potential_Energy-OPLS-2005>
259.114471435547

> <r_mmod_Stretch_Energy-OPLS-2005>
52.4425582885742

> <r_mmod_Bend_Energy-OPLS-2005>
137.165985107422

> <r_mmod_Torsional_Energy-OPLS-2005>
350.537536621094

> <r_mmod_Improper_Torsional_Energy-OPLS-2005>
9.72737216949463

> <r_mmod_Van_der_Waal_Energy-OPLS-2005>
164.723037719727

> <r_mmod_Electrostatic_Energy-OPLS-2005>
-291.986328125

> <r_mmod_Solvation_Energy-OPLS-2005>
-184.274291992188

> <b_mmod_Minimization_Converged-OPLS-2005>
0

> <r_mmod_RMS_Derivative-OPLS-2005>
3.43370962142944

$$$$
28
                    3D
 Structure written by MMmdl.
167176  0  0  1  0            999 V2000
  -30.6231  -14.7987   20.3376 C   0  0  0  0  0  0
  -30.4399  -12.4655   19.4475 C   0  0  0  0  0  0
  -29.4822  -12.3449   18.2326 C   0  0  0  0  0  0
  -28.0088  -12.2658   18.6665 C   0  0  0  0  0  0
  -27.6317  -13.2258   19.8292 C   0  0  2  0  0  0
  -28.6990  -13.2380   20.9426 C   0  0  0  0  0  0
  -25.2529  -13.8213   20.5780 C   0  0  0  0  0  0
  -24.1798  -13.0462   20.9257 C   0  0  0  0  0  0
  -24.6382  -11.6942   20.8851 C   0  0  0  0  0  0
  -23.9066  -10.4313   21.0463 C   0  0  0  0  0  0
  -24.3627   -9.4217   21.9221 C   0  0  0  0  0  0
  -23.6303   -8.2252   22.0766 C   0  0  0  0  0  0
  -22.4283   -8.0308   21.3554 C   0  0  0  0  0  0
  -21.9942   -9.0271   20.4639 C   0  0  0  0  0  0
  -22.7263  -10.2160   20.3078 C   0  0  0  0  0  0
  -21.6838   -6.0776   22.5284 C   0  0  0  0  0  0
  -21.4010   -6.5663   23.8224 C   0  0  0  0  0  0
  -21.3666   -5.6804   24.9175 C   0  0  0  0  0  0
  -21.6038   -4.3068   24.7209 C   0  0  0  0  0  0
  -21.8820   -3.8182   23.4321 C   0  0  0  0  0  0
  -21.9183   -4.7013   22.3390 C   0  0  0  0  0  0
  -22.7822  -13.5260   21.1849 C   0  0  0  0  0  0
  -22.1658   -4.2222   21.0957 F   0  0  0  0  0  0
  -21.5621   -3.4535   25.7707 F   0  0  0  0  0  0
  -29.9734  -13.5804   20.3024 N   0  0  0  0  0  0
  -26.2939  -12.9410   20.3380 N   0  0  0  0  0  0
  -25.9319  -11.6565   20.5933 N   0  0  0  0  0  0
  -22.0427  -12.8254   22.0389 N   0  0  0  0  0  0
  -25.4231  -15.1938   20.4194 N   0  0  0  0  0  0
  -31.8528  -14.8270   20.3927 O   0  0  0  0  0  0
  -21.6628   -6.8923   21.4253 O   0  0  0  0  0  0
  -22.3547  -14.5586   20.6711 O   0  0  0  0  0  0
  -24.6329  -31.8482   23.1986 C   0  0  0  0  0  0
  -25.9155  -32.4703   23.8312 C   0  0  1  0  0  0
  -27.2301  -27.2629   20.1324 C   0  0  0  0  0  0
  -25.5933  -33.8513   24.2228 N   0  0  0  0  0  0
  -23.4255  -30.4685   21.5408 C   0  0  2  0  0  0
  -24.8747  -28.9105   20.1095 C   0  0  0  0  0  0
  -22.7428  -29.4602   22.4950 C   0  0  0  0  0  0
  -18.0245  -28.1361   22.8457 C   0  0  0  0  0  0
  -24.1491  -36.7266   23.2641 C   0  0  0  0  0  0
  -25.9681  -30.7640   21.3748 C   0  0  0  0  0  0
  -26.0422  -29.3869   20.7152 C   0  0  0  0  0  0
  -27.2189  -28.5747   20.7143 C   0  0  0  0  0  0
  -26.0369  -26.8433   19.5059 C   0  0  0  0  0  0
  -24.8774  -27.6470   19.4962 C   0  0  0  0  0  0
  -23.6380  -29.7864   20.1617 C   0  0  0  0  0  0
  -25.4118  -36.3023   24.0307 C   0  0  1  0  0  0
  -20.5824  -28.3681   23.1245 C   0  0  2  0  0  0
  -20.6730  -26.9400   22.5375 C   0  0  0  0  0  0
  -19.5729  -26.6360   21.5157 C   0  0  0  0  0  0
  -18.1899  -26.7909   22.1569 C   0  0  0  0  0  0
  -19.1491  -28.8842   23.2830 C   0  0  0  0  0  0
  -18.9438  -30.1455   23.8833 C   0  0  0  0  0  0
  -17.6447  -30.6575   24.0541 C   0  0  0  0  0  0
  -25.9054  -34.9404   23.5067 C   0  0  0  0  0  0
  -16.5331  -29.9058   23.6365 C   0  0  0  0  0  0
  -16.7236  -28.6474   23.0370 C   0  0  0  0  0  0
  -26.4549  -31.6530   25.0705 C   0  0  0  0  0  0
  -25.3788  -31.3654   26.1434 C   0  0  0  0  0  0
  -27.0464  -30.2955   24.6227 C   0  0  0  0  0  0
  -27.6069  -32.4304   25.7470 C   0  0  0  0  0  0
  -27.5573  -37.1772   24.8456 C   0  0  0  0  0  0
  -21.4141  -29.3050   22.3677 N   0  0  0  0  0  0
  -26.4287  -37.3731   23.9407 N   0  0  0  0  0  0
  -24.6936  -31.0431   22.0960 N   0  0  0  0  0  0
  -23.4124  -28.8166   23.3067 O   0  0  0  0  0  0
  -28.3567  -26.4161   20.2258 O   0  0  0  0  0  0
  -26.5573  -34.8898   22.4619 O   0  0  0  0  0  0
  -23.5490  -32.1303   23.7309 O   0  0  0  0  0  0
  -29.4401  -18.4880   20.7002 C   0  0  0  0  0  0
  -30.3921  -16.8576   17.5014 C   0  0  0  0  0  0
  -30.0457  -17.9661   18.4246 C   0  0  0  0  0  0
  -27.3617  -21.2558   20.3651 C   0  0  0  0  0  0
  -27.1209  -22.7513   19.9767 C   0  0  0  0  0  0
  -29.9572  -15.6288   18.2698 C   0  0  0  0  0  0
  -30.2965  -17.4206   19.8523 C   0  0  2  0  0  0
  -29.4095  -22.5209   20.4687 C   0  0  1  0  0  0
  -28.8088  -21.0958   20.8797 C   0  0  2  0  0  0
  -28.2620  -23.6476   20.5368 C   0  0  2  0  0  0
  -30.6966  -22.8641   21.2420 C   0  0  0  0  0  0
  -27.9485  -24.0306   21.9981 C   0  0  0  0  0  0
  -28.4429  -25.0229   19.6718 C   0  0  0  0  0  0
  -29.9900  -15.8962   19.7346 N   0  0  0  0  0  0
  -29.5164  -19.8409   20.3742 N   0  0  0  0  0  0
  -28.7190  -18.0842   21.6144 O   0  0  0  0  0  0
  -31.4621  -12.6235   19.0988 H   0  0  0  0  0  0
  -30.4596  -11.5388   20.0233 H   0  0  0  0  0  0
  -29.7348  -11.4473   17.6664 H   0  0  0  0  0  0
  -29.5965  -13.1427   17.5091 H   0  0  0  0  0  0
  -27.8326  -11.2350   18.9747 H   0  0  0  0  0  0
  -27.3526  -12.4312   17.8083 H   0  0  0  0  0  0
  -27.5983  -14.2265   19.4053 H   0  0  0  0  0  0
  -28.7622  -12.2703   21.4447 H   0  0  0  0  0  0
  -28.4447  -13.9752   21.7046 H   0  0  0  0  0  0
  -25.2758   -9.5679   22.4815 H   0  0  0  0  0  0
  -23.9993   -7.4649   22.7500 H   0  0  0  0  0  0
  -21.0874   -8.8782   19.8942 H   0  0  0  0  0  0
  -22.3721  -10.9704   19.6199 H   0  0  0  0  0  0
  -21.2006   -7.6169   23.9760 H   0  0  0  0  0  0
  -21.1488   -6.0515   25.9081 H   0  0  0  0  0  0
  -22.0591   -2.7654   23.2779 H   0  0  0  0  0  0
  -22.4007  -11.9917   22.4788 H   0  0  0  0  0  0
  -21.1058  -13.1334   22.2560 H   0  0  0  0  0  0
  -24.6566  -15.8463   20.5426 H   0  0  0  0  0  0
  -26.2890  -15.6445   20.1515 H   0  0  0  0  0  0
  -26.7204  -32.5351   23.1031 H   0  0  0  0  0  0
  -25.0171  -33.9672   25.0424 H   0  0  0  0  0  0
  -22.7277  -31.2939   21.3859 H   0  0  0  0  0  0
  -23.3774  -35.9575   23.3264 H   0  0  0  0  0  0
  -24.3570  -36.8943   22.2054 H   0  0  0  0  0  0
  -23.7260  -37.6452   23.6723 H   0  0  0  0  0  0
  -26.0997  -31.5263   20.6073 H   0  0  0  0  0  0
  -26.8481  -30.8139   22.0050 H   0  0  0  0  0  0
  -28.1143  -28.9339   21.2019 H   0  0  0  0  0  0
  -25.9667  -25.8676   19.0489 H   0  0  0  0  0  0
  -23.9763  -27.2706   19.0313 H   0  0  0  0  0  0
  -23.7346  -30.5483   19.3876 H   0  0  0  0  0  0
  -22.7669  -29.1900   19.8849 H   0  0  0  0  0  0
  -25.1321  -36.1832   25.0799 H   0  0  0  0  0  0
  -20.9865  -28.3247   24.1381 H   0  0  0  0  0  0
  -20.5562  -26.2295   23.3567 H   0  0  0  0  0  0
  -21.6621  -26.7376   22.1234 H   0  0  0  0  0  0
  -19.6908  -25.6258   21.1234 H   0  0  0  0  0  0
  -19.6718  -27.3128   20.6654 H   0  0  0  0  0  0
  -17.4166  -26.6606   21.3977 H   0  0  0  0  0  0
  -18.0350  -26.0019   22.8942 H   0  0  0  0  0  0
  -19.7920  -30.7263   24.2163 H   0  0  0  0  0  0
  -17.5009  -31.6264   24.5141 H   0  0  0  0  0  0
  -15.5343  -30.2947   23.7752 H   0  0  0  0  0  0
  -15.8608  -28.0793   22.7143 H   0  0  0  0  0  0
  -24.6002  -30.6947   25.7784 H   0  0  0  0  0  0
  -24.8965  -32.2813   26.4851 H   0  0  0  0  0  0
  -25.8142  -30.8863   27.0209 H   0  0  0  0  0  0
  -26.3086  -29.6604   24.1310 H   0  0  0  0  0  0
  -27.4216  -29.7315   25.4782 H   0  0  0  0  0  0
  -27.8910  -30.4257   23.9452 H   0  0  0  0  0  0
  -27.2653  -33.3638   26.1947 H   0  0  0  0  0  0
  -28.3910  -32.6776   25.0306 H   0  0  0  0  0  0
  -28.0674  -31.8479   26.5450 H   0  0  0  0  0  0
  -28.2545  -38.0109   24.7540 H   0  0  0  0  0  0
  -28.1108  -36.2639   24.6247 H   0  0  0  0  0  0
  -27.2259  -37.1360   25.8842 H   0  0  0  0  0  0
  -20.9325  -29.8792   21.6893 H   0  0  0  0  0  0
  -26.0148  -38.2783   24.1461 H   0  0  0  0  0  0
  -31.4734  -16.8337   17.3523 H   0  0  0  0  0  0
  -29.9205  -16.9537   16.5236 H   0  0  0  0  0  0
  -28.9922  -18.2058   18.2586 H   0  0  0  0  0  0
  -30.6332  -18.8565   18.1954 H   0  0  0  0  0  0
  -27.1886  -20.6232   19.4939 H   0  0  0  0  0  0
  -26.6476  -20.9305   21.1218 H   0  0  0  0  0  0
  -26.1310  -23.0977   20.2802 H   0  0  0  0  0  0
  -27.1290  -22.8088   18.8872 H   0  0  0  0  0  0
  -30.6441  -14.8495   17.9343 H   0  0  0  0  0  0
  -28.9433  -15.3523   17.9786 H   0  0  0  0  0  0
  -31.3475  -17.5368   20.1240 H   0  0  0  0  0  0
  -29.6942  -22.4475   19.4153 H   0  0  0  0  0  0
  -28.7763  -21.0369   21.9706 H   0  0  0  0  0  0
  -30.5293  -22.8649   22.3191 H   0  0  0  0  0  0
  -31.0817  -23.8451   20.9617 H   0  0  0  0  0  0
  -31.4847  -22.1365   21.0421 H   0  0  0  0  0  0
  -27.7703  -23.1590   22.6266 H   0  0  0  0  0  0
  -27.0584  -24.6569   22.0592 H   0  0  0  0  0  0
  -28.7688  -24.5937   22.4438 H   0  0  0  0  0  0
  -27.8594  -24.9653   18.7551 H   0  0  0  0  0  0
  -29.4633  -24.9805   19.2870 H   0  0  0  0  0  0
  -30.1564  -20.0314   19.6151 H   0  0  0  0  0  0
  1 25  1  0  0  0
  1 30  2  0  0  0
  1 84  1  0  0  0
  2  3  1  0  0  0
  2 25  1  0  0  0
  2 87  1  0  0  0
  2 88  1  0  0  0
  3  4  1  0  0  0
  3 89  1  0  0  0
  3 90  1  0  0  0
  4  5  1  0  0  0
  4 91  1  0  0  0
  4 92  1  0  0  0
  5  6  1  0  0  0
  5 26  1  0  0  0
  5 93  1  0  0  0
  6 25  1  0  0  0
  6 94  1  0  0  0
  6 95  1  0  0  0
  7  8  2  0  0  0
  7 26  1  0  0  0
  7 29  1  0  0  0
  8  9  1  0  0  0
  8 22  1  0  0  0
  9 10  1  0  0  0
  9 27  2  0  0  0
 10 11  2  0  0  0
 10 15  1  0  0  0
 11 12  1  0  0  0
 11 96  1  0  0  0
 12 13  2  0  0  0
 12 97  1  0  0  0
 13 14  1  0  0  0
 13 31  1  0  0  0
 14 15  2  0  0  0
 14 98  1  0  0  0
 15 99  1  0  0  0
 16 17  2  0  0  0
 16 21  1  0  0  0
 16 31  1  0  0  0
 17 18  1  0  0  0
 17100  1  0  0  0
 18 19  2  0  0  0
 18101  1  0  0  0
 19 20  1  0  0  0
 19 24  1  0  0  0
 20 21  2  0  0  0
 20102  1  0  0  0
 21 23  1  0  0  0
 22 28  1  0  0  0
 22 32  2  0  0  0
 26 27  1  0  0  0
 28103  1  0  0  0
 28104  1  0  0  0
 29105  1  0  0  0
 29106  1  0  0  0
 33 34  1  0  0  0
 33 66  1  0  0  0
 33 70  2  0  0  0
 34 36  1  0  0  0
 34 59  1  0  0  0
 34107  1  0  0  0
 35 44  2  0  0  0
 35 45  1  0  0  0
 35 68  1  0  0  0
 36 56  1  0  0  0
 36108  1  0  0  0
 37 39  1  0  0  0
 37 47  1  0  0  0
 37 66  1  0  0  0
 37109  1  0  0  0
 38 43  2  0  0  0
 38 46  1  0  0  0
 38 47  1  0  0  0
 39 64  1  0  0  0
 39 67  2  0  0  0
 40 52  1  0  0  0
 40 53  2  0  0  0
 40 58  1  0  0  0
 41110  1  0  0  0
 41111  1  0  0  0
 41112  1  0  0  0
 41 48  1  0  0  0
 42 43  1  0  0  0
 42 66  1  0  0  0
 42113  1  0  0  0
 42114  1  0  0  0
 43 44  1  0  0  0
 44115  1  0  0  0
 45 46  2  0  0  0
 45116  1  0  0  0
 46117  1  0  0  0
 47118  1  0  0  0
 47119  1  0  0  0
 48 56  1  0  0  0
 48 65  1  0  0  0
 48120  1  0  0  0
 49 50  1  0  0  0
 49 53  1  0  0  0
 49 64  1  0  0  0
 49121  1  0  0  0
 50 51  1  0  0  0
 50122  1  0  0  0
 50123  1  0  0  0
 51 52  1  0  0  0
 51124  1  0  0  0
 51125  1  0  0  0
 52126  1  0  0  0
 52127  1  0  0  0
 53 54  1  0  0  0
 54 55  2  0  0  0
 54128  1  0  0  0
 55 57  1  0  0  0
 55129  1  0  0  0
 56 69  2  0  0  0
 57 58  2  0  0  0
 57130  1  0  0  0
 58131  1  0  0  0
 59 60  1  0  0  0
 59 61  1  0  0  0
 59 62  1  0  0  0
 60132  1  0  0  0
 60133  1  0  0  0
 60134  1  0  0  0
 61135  1  0  0  0
 61136  1  0  0  0
 61137  1  0  0  0
 62138  1  0  0  0
 62139  1  0  0  0
 62140  1  0  0  0
 63 65  1  0  0  0
 63141  1  0  0  0
 63142  1  0  0  0
 63143  1  0  0  0
 64144  1  0  0  0
 65145  1  0  0  0
 68 83  1  0  0  0
 71 85  1  0  0  0
 71 86  2  0  0  0
 71 77  1  0  0  0
 72 73  1  0  0  0
 72 76  1  0  0  0
 72146  1  0  0  0
 72147  1  0  0  0
 73 77  1  0  0  0
 73148  1  0  0  0
 73149  1  0  0  0
 74 75  1  0  0  0
 74 79  1  0  0  0
 74150  1  0  0  0
 74151  1  0  0  0
 75 80  1  0  0  0
 75152  1  0  0  0
 75153  1  0  0  0
 76 84  1  0  0  0
 76154  1  0  0  0
 76155  1  0  0  0
 77 84  1  0  0  0
 77156  1  0  0  0
 78 79  1  0  0  0
 78 80  1  0  0  0
 78 81  1  0  0  0
 78157  1  0  0  0
 79 85  1  0  0  0
 79158  1  0  0  0
 80 82  1  0  0  0
 80 83  1  0  0  0
 81159  1  0  0  0
 81160  1  0  0  0
 81161  1  0  0  0
 82162  1  0  0  0
 82163  1  0  0  0
 82164  1  0  0  0
 83165  1  0  0  0
 83166  1  0  0  0
 85167  1  0  0  0
M  ISO  4   1 100  68 101  83 101  84 100
M  END
> <chiral flag>
0

> <version>
0

> <s_m_source_file>
/data/baiqing/PycharmProjects/Reinvent-master-3.2/result/LINK_invent/BTK/process_docking_weight1_custom_sum_contain_oxygen_bond_distance_aromatic_linkinvent_7_9_3/rearranged_h_0167.sdf

> <i_m_source_file_index>
29

> <r_mmod_Potential_Energy-OPLS-2005>
440.344970703125

> <r_mmod_Stretch_Energy-OPLS-2005>
139.863052368164

> <r_mmod_Bend_Energy-OPLS-2005>
275.569641113281

> <r_mmod_Torsional_Energy-OPLS-2005>
381.585479736328

> <r_mmod_Improper_Torsional_Energy-OPLS-2005>
25.0500812530518

> <r_mmod_Van_der_Waal_Energy-OPLS-2005>
125.670227050781

> <r_mmod_Electrostatic_Energy-OPLS-2005>
-418.242736816406

> <r_mmod_Solvation_Energy-OPLS-2005>
-209.023986816406

> <b_mmod_Minimization_Converged-OPLS-2005>
0

> <r_mmod_RMS_Derivative-OPLS-2005>
3.81295204162598

$$$$
29
                    3D
 Structure written by MMmdl.
163172  0  0  1  0            999 V2000
  -30.4808  -15.1845   20.3826 C   0  0  0  0  0  0
  -30.4357  -12.7535   19.5149 C   0  0  0  0  0  0
  -29.5281  -12.5619   18.2759 C   0  0  0  0  0  0
  -28.0735  -12.3021   18.7053 C   0  0  0  0  0  0
  -27.6147  -13.2700   19.8250 C   0  0  2  0  0  0
  -28.6528  -13.4176   20.9576 C   0  0  0  0  0  0
  -25.2406  -13.8244   20.5743 C   0  0  0  0  0  0
  -24.1753  -13.0441   20.9261 C   0  0  0  0  0  0
  -24.6401  -11.6936   20.8769 C   0  0  0  0  0  0
  -23.9096  -10.4298   21.0416 C   0  0  0  0  0  0
  -24.3640   -9.4208   21.9191 C   0  0  0  0  0  0
  -23.6307   -8.2248   22.0758 C   0  0  0  0  0  0
  -22.4290   -8.0290   21.3546 C   0  0  0  0  0  0
  -21.9932   -9.0267   20.4648 C   0  0  0  0  0  0
  -22.7269  -10.2141   20.3060 C   0  0  0  0  0  0
  -21.6855   -6.0747   22.5280 C   0  0  0  0  0  0
  -21.4012   -6.5646   23.8215 C   0  0  0  0  0  0
  -21.3655   -5.6796   24.9175 C   0  0  0  0  0  0
  -21.6042   -4.3061   24.7220 C   0  0  0  0  0  0
  -21.8820   -3.8155   23.4343 C   0  0  0  0  0  0
  -21.9192   -4.6974   22.3400 C   0  0  0  0  0  0
  -22.7769  -13.5195   21.1901 C   0  0  0  0  0  0
  -22.1663   -4.2161   21.0979 F   0  0  0  0  0  0
  -21.5624   -3.4541   25.7731 F   0  0  0  0  0  0
  -29.8929  -13.8972   20.3294 N   0  0  0  0  0  0
  -26.2830  -12.9512   20.3230 N   0  0  0  0  0  0
  -25.9337  -11.6620   20.5740 N   0  0  0  0  0  0
  -22.0423  -12.8176   22.0451 N   0  0  0  0  0  0
  -25.4040  -15.1978   20.4159 N   0  0  0  0  0  0
  -31.7017  -15.1756   20.1771 O   0  0  0  0  0  0
  -21.6644   -6.8891   21.4246 O   0  0  0  0  0  0
  -22.3452  -14.5497   20.6744 O   0  0  0  0  0  0
  -24.6596  -31.8292   23.1747 C   0  0  0  0  0  0
  -25.9300  -32.4615   23.8189 C   0  0  1  0  0  0
  -27.2108  -26.9684   20.1740 C   0  0  0  0  0  0
  -25.5987  -33.8426   24.2106 N   0  0  0  0  0  0
  -23.4714  -30.4448   21.5227 C   0  0  2  0  0  0
  -24.9233  -28.8445   20.1107 C   0  0  0  0  0  0
  -22.7645  -29.4480   22.4782 C   0  0  0  0  0  0
  -18.0320  -28.1410   22.8478 C   0  0  0  0  0  0
  -24.1485  -36.7206   23.2646 C   0  0  0  0  0  0
  -26.0398  -30.6486   21.3999 C   0  0  0  0  0  0
  -26.1077  -29.2436   20.7429 C   0  0  0  0  0  0
  -27.2491  -28.3263   20.7530 C   0  0  0  0  0  0
  -25.9975  -26.7200   19.4909 C   0  0  0  0  0  0
  -24.8919  -27.6017   19.4645 C   0  0  0  0  0  0
  -23.7078  -29.7663   20.1473 C   0  0  0  0  0  0
  -25.4127  -36.2980   24.0308 C   0  0  1  0  0  0
  -20.5946  -28.3751   23.1191 C   0  0  2  0  0  0
  -20.6800  -26.9436   22.5399 C   0  0  0  0  0  0
  -19.5771  -26.6388   21.5210 C   0  0  0  0  0  0
  -18.1954  -26.7949   22.1623 C   0  0  0  0  0  0
  -19.1584  -28.8901   23.2827 C   0  0  0  0  0  0
  -18.9493  -30.1490   23.8861 C   0  0  0  0  0  0
  -17.6488  -30.6601   24.0555 C   0  0  0  0  0  0
  -25.9096  -34.9365   23.5022 C   0  0  0  0  0  0
  -16.5377  -29.9088   23.6349 C   0  0  0  0  0  0
  -16.7304  -28.6505   23.0377 C   0  0  0  0  0  0
  -26.4562  -31.6546   25.0701 C   0  0  0  0  0  0
  -25.3699  -31.3784   26.1360 C   0  0  0  0  0  0
  -27.0450  -30.2917   24.6409 C   0  0  0  0  0  0
  -27.6062  -32.4342   25.7499 C   0  0  0  0  0  0
  -27.5565  -37.1762   24.8468 C   0  0  0  0  0  0
  -21.4319  -29.3050   22.3536 N   0  0  0  0  0  0
  -26.4269  -37.3718   23.9415 N   0  0  0  0  0  0
  -24.7446  -30.9999   22.0859 N   0  0  0  0  0  0
  -23.4216  -28.8040   23.2998 O   0  0  0  0  0  0
  -28.1981  -25.8605   20.2492 O   0  0  0  0  0  0
  -26.5683  -34.8897   22.4605 O   0  0  0  0  0  0
  -23.5675  -32.1237   23.6875 O   0  0  0  0  0  0
  -28.8333  -21.9643   21.4046 C   0  0  0  0  0  0
  -29.1415  -20.3542   19.2092 C   0  0  0  0  0  0
  -29.2487  -20.5389   21.5093 C   0  0  0  0  0  0
  -29.4207  -19.5898   20.4121 C   0  0  0  0  0  0
  -28.7385  -21.7833   19.1052 C   0  0  0  0  0  0
  -28.5558  -22.7368   20.2032 C   0  0  0  0  0  0
  -29.5882  -20.0535   22.9146 C   0  0  0  0  0  0
  -30.1979  -18.0427   20.5523 C   0  0  1  0  0  0
  -30.1215  -18.6022   23.0280 C   0  0  1  0  0  0
  -31.0342  -18.1613   21.8534 C   0  0  2  0  0  0
  -28.4701  -22.2943   17.7007 C   0  0  0  0  0  0
  -30.7747  -18.3570   24.3996 C   0  0  0  0  0  0
  -32.2698  -19.0705   21.6757 C   0  0  0  0  0  0
  -27.7863  -24.2956   20.0850 C   0  0  0  0  0  0
  -29.7476  -16.4591   20.4736 N   0  0  0  0  0  0
  -31.4590  -12.9393   19.1864 H   0  0  0  0  0  0
  -30.4803  -11.8388   20.1077 H   0  0  0  0  0  0
  -29.8913  -11.7381   17.6593 H   0  0  0  0  0  0
  -29.5716  -13.4557   17.6513 H   0  0  0  0  0  0
  -28.0174  -11.2740   19.0656 H   0  0  0  0  0  0
  -27.4036  -12.3624   17.8465 H   0  0  0  0  0  0
  -27.5391  -14.2441   19.3403 H   0  0  0  0  0  0
  -28.8032  -12.4774   21.4902 H   0  0  0  0  0  0
  -28.3093  -14.1441   21.6957 H   0  0  0  0  0  0
  -25.2780   -9.5680   22.4774 H   0  0  0  0  0  0
  -24.0010   -7.4635   22.7478 H   0  0  0  0  0  0
  -21.0864   -8.8794   19.8950 H   0  0  0  0  0  0
  -22.3733  -10.9685   19.6173 H   0  0  0  0  0  0
  -21.2009   -7.6153   23.9721 H   0  0  0  0  0  0
  -21.1471   -6.0525   25.9076 H   0  0  0  0  0  0
  -22.0600   -2.7619   23.2837 H   0  0  0  0  0  0
  -22.4047  -11.9837   22.4827 H   0  0  0  0  0  0
  -21.1037  -13.1192   22.2658 H   0  0  0  0  0  0
  -24.6323  -15.8468   20.5264 H   0  0  0  0  0  0
  -26.2425  -15.6387   20.0615 H   0  0  0  0  0  0
  -26.7366  -32.5163   23.0903 H   0  0  0  0  0  0
  -25.0112  -33.9509   25.0239 H   0  0  0  0  0  0
  -22.7829  -31.2758   21.3575 H   0  0  0  0  0  0
  -23.3764  -35.9518   23.3285 H   0  0  0  0  0  0
  -24.3564  -36.8866   22.2063 H   0  0  0  0  0  0
  -23.7224  -37.6386   23.6705 H   0  0  0  0  0  0
  -26.2176  -31.3927   20.6223 H   0  0  0  0  0  0
  -26.9014  -30.7031   22.0535 H   0  0  0  0  0  0
  -28.1436  -28.6300   21.2785 H   0  0  0  0  0  0
  -25.8525  -25.7773   18.9879 H   0  0  0  0  0  0
  -23.9931  -27.2914   18.9489 H   0  0  0  0  0  0
  -23.8571  -30.5360   19.3894 H   0  0  0  0  0  0
  -22.8189  -29.2174   19.8316 H   0  0  0  0  0  0
  -25.1324  -36.1775   25.0797 H   0  0  0  0  0  0
  -21.0048  -28.3356   24.1309 H   0  0  0  0  0  0
  -20.5683  -26.2366   23.3636 H   0  0  0  0  0  0
  -21.6664  -26.7413   22.1203 H   0  0  0  0  0  0
  -19.6922  -25.6287   21.1269 H   0  0  0  0  0  0
  -19.6713  -27.3173   20.6718 H   0  0  0  0  0  0
  -17.4226  -26.6700   21.4024 H   0  0  0  0  0  0
  -18.0343  -26.0094   22.9021 H   0  0  0  0  0  0
  -19.7963  -30.7321   24.2214 H   0  0  0  0  0  0
  -17.5036  -31.6275   24.5162 H   0  0  0  0  0  0
  -15.5377  -30.2978   23.7692 H   0  0  0  0  0  0
  -15.8703  -28.0805   22.7126 H   0  0  0  0  0  0
  -24.5908  -30.7099   25.7681 H   0  0  0  0  0  0
  -24.8850  -32.2977   26.4648 H   0  0  0  0  0  0
  -25.7945  -30.9055   27.0224 H   0  0  0  0  0  0
  -26.3107  -29.6606   24.1389 H   0  0  0  0  0  0
  -27.3964  -29.7266   25.5053 H   0  0  0  0  0  0
  -27.9061  -30.4106   23.9830 H   0  0  0  0  0  0
  -27.2646  -33.3696   26.1936 H   0  0  0  0  0  0
  -28.3948  -32.6808   25.0380 H   0  0  0  0  0  0
  -28.0644  -31.8551   26.5524 H   0  0  0  0  0  0
  -28.2571  -38.0069   24.7524 H   0  0  0  0  0  0
  -28.1069  -36.2599   24.6283 H   0  0  0  0  0  0
  -27.2285  -37.1396   25.8871 H   0  0  0  0  0  0
  -20.9550  -29.8740   21.6679 H   0  0  0  0  0  0
  -26.0117  -38.2772   24.1436 H   0  0  0  0  0  0
  -28.7085  -22.4990   22.3362 H   0  0  0  0  0  0
  -29.2766  -19.8144   18.2819 H   0  0  0  0  0  0
  -28.7106  -20.1736   23.5515 H   0  0  0  0  0  0
  -30.3397  -20.7384   23.3099 H   0  0  0  0  0  0
  -30.9024  -18.0752   19.7200 H   0  0  0  0  0  0
  -29.2472  -17.9493   22.9852 H   0  0  0  0  0  0
  -31.4442  -17.1826   22.1041 H   0  0  0  0  0  0
  -28.8205  -21.5978   16.9387 H   0  0  0  0  0  0
  -28.9793  -23.2439   17.5326 H   0  0  0  0  0  0
  -27.4008  -22.4431   17.5471 H   0  0  0  0  0  0
  -31.6474  -18.9916   24.5537 H   0  0  0  0  0  0
  -31.0943  -17.3200   24.5088 H   0  0  0  0  0  0
  -30.0730  -18.5670   25.2078 H   0  0  0  0  0  0
  -31.9994  -20.0921   21.4093 H   0  0  0  0  0  0
  -32.9191  -18.6916   20.8860 H   0  0  0  0  0  0
  -32.8691  -19.1155   22.5845 H   0  0  0  0  0  0
  -26.9303  -24.1898   20.7525 H   0  0  0  0  0  0
  -27.3473  -24.2620   19.0908 H   0  0  0  0  0  0
  -28.7507  -16.3285   20.5534 H   0  0  0  0  0  0
  1 25  1  0  0  0
  1 30  2  0  0  0
  1 85  1  0  0  0
  2  3  1  0  0  0
  2 25  1  0  0  0
  2 86  1  0  0  0
  2 87  1  0  0  0
  3  4  1  0  0  0
  3 88  1  0  0  0
  3 89  1  0  0  0
  4  5  1  0  0  0
  4 90  1  0  0  0
  4 91  1  0  0  0
  5  6  1  0  0  0
  5 26  1  0  0  0
  5 92  1  0  0  0
  6 25  1  0  0  0
  6 93  1  0  0  0
  6 94  1  0  0  0
  7  8  2  0  0  0
  7 26  1  0  0  0
  7 29  1  0  0  0
  8  9  1  0  0  0
  8 22  1  0  0  0
  9 10  1  0  0  0
  9 27  2  0  0  0
 10 11  2  0  0  0
 10 15  1  0  0  0
 11 12  1  0  0  0
 11 95  1  0  0  0
 12 13  2  0  0  0
 12 96  1  0  0  0
 13 14  1  0  0  0
 13 31  1  0  0  0
 14 15  2  0  0  0
 14 97  1  0  0  0
 15 98  1  0  0  0
 16 17  2  0  0  0
 16 21  1  0  0  0
 16 31  1  0  0  0
 17 18  1  0  0  0
 17 99  1  0  0  0
 18 19  2  0  0  0
 18100  1  0  0  0
 19 20  1  0  0  0
 19 24  1  0  0  0
 20 21  2  0  0  0
 20101  1  0  0  0
 21 23  1  0  0  0
 22 28  1  0  0  0
 22 32  2  0  0  0
 26 27  1  0  0  0
 28102  1  0  0  0
 28103  1  0  0  0
 29104  1  0  0  0
 29105  1  0  0  0
 33 34  1  0  0  0
 33 66  1  0  0  0
 33 70  2  0  0  0
 34 36  1  0  0  0
 34 59  1  0  0  0
 34106  1  0  0  0
 35 44  2  0  0  0
 35 45  1  0  0  0
 35 68  1  0  0  0
 36 56  1  0  0  0
 36107  1  0  0  0
 37 39  1  0  0  0
 37 47  1  0  0  0
 37 66  1  0  0  0
 37108  1  0  0  0
 38 43  2  0  0  0
 38 46  1  0  0  0
 38 47  1  0  0  0
 39 64  1  0  0  0
 39 67  2  0  0  0
 40 52  1  0  0  0
 40 53  2  0  0  0
 40 58  1  0  0  0
 41109  1  0  0  0
 41110  1  0  0  0
 41111  1  0  0  0
 41 48  1  0  0  0
 42 43  1  0  0  0
 42 66  1  0  0  0
 42112  1  0  0  0
 42113  1  0  0  0
 43 44  1  0  0  0
 44114  1  0  0  0
 45 46  2  0  0  0
 45115  1  0  0  0
 46116  1  0  0  0
 47117  1  0  0  0
 47118  1  0  0  0
 48 56  1  0  0  0
 48 65  1  0  0  0
 48119  1  0  0  0
 49 50  1  0  0  0
 49 53  1  0  0  0
 49 64  1  0  0  0
 49120  1  0  0  0
 50 51  1  0  0  0
 50121  1  0  0  0
 50122  1  0  0  0
 51 52  1  0  0  0
 51123  1  0  0  0
 51124  1  0  0  0
 52125  1  0  0  0
 52126  1  0  0  0
 53 54  1  0  0  0
 54 55  2  0  0  0
 54127  1  0  0  0
 55 57  1  0  0  0
 55128  1  0  0  0
 56 69  2  0  0  0
 57 58  2  0  0  0
 57129  1  0  0  0
 58130  1  0  0  0
 59 60  1  0  0  0
 59 61  1  0  0  0
 59 62  1  0  0  0
 60131  1  0  0  0
 60132  1  0  0  0
 60133  1  0  0  0
 61134  1  0  0  0
 61135  1  0  0  0
 61136  1  0  0  0
 62137  1  0  0  0
 62138  1  0  0  0
 62139  1  0  0  0
 63 65  1  0  0  0
 63140  1  0  0  0
 63141  1  0  0  0
 63142  1  0  0  0
 64143  1  0  0  0
 65144  1  0  0  0
 68 84  1  0  0  0
 71 73  2  0  0  0
 71 76  1  0  0  0
 71145  1  0  0  0
 72 74  2  0  0  0
 72 75  1  0  0  0
 72146  1  0  0  0
 73 74  1  0  0  0
 73 77  1  0  0  0
 74 78  1  0  0  0
 75 76  2  0  0  0
 75 81  1  0  0  0
 76 84  1  0  0  0
 77 79  1  0  0  0
 77147  1  0  0  0
 77148  1  0  0  0
 78 80  1  0  0  0
 78 85  1  0  0  0
 78149  1  0  0  0
 79 80  1  0  0  0
 79 82  1  0  0  0
 79150  1  0  0  0
 80 83  1  0  0  0
 80151  1  0  0  0
 81152  1  0  0  0
 81153  1  0  0  0
 81154  1  0  0  0
 82155  1  0  0  0
 82156  1  0  0  0
 82157  1  0  0  0
 83158  1  0  0  0
 83159  1  0  0  0
 83160  1  0  0  0
 84161  1  0  0  0
 84162  1  0  0  0
 85163  1  0  0  0
M  ISO  4   1 100  68 101  84 101  85 100
M  END
> <chiral flag>
0

> <version>
0

> <s_m_source_file>
/data/baiqing/PycharmProjects/Reinvent-master-3.2/result/LINK_invent/BTK/process_docking_weight1_custom_sum_contain_oxygen_bond_distance_aromatic_linkinvent_7_9_3/rearranged_h_0167.sdf

> <i_m_source_file_index>
30

> <r_mmod_Potential_Energy-OPLS-2005>
1067.26000976562

> <r_mmod_Stretch_Energy-OPLS-2005>
458.266754150391

> <r_mmod_Bend_Energy-OPLS-2005>
416.498352050781

> <r_mmod_Torsional_Energy-OPLS-2005>
244.605361938477

> <r_mmod_Improper_Torsional_Energy-OPLS-2005>
9.92220211029053

> <r_mmod_Van_der_Waal_Energy-OPLS-2005>
141.052658081055

> <r_mmod_Electrostatic_Energy-OPLS-2005>
-390.629364013672

> <r_mmod_Solvation_Energy-OPLS-2005>
-202.422210693359

> <b_mmod_Minimization_Converged-OPLS-2005>
0

> <r_mmod_RMS_Derivative-OPLS-2005>
1.02904331684113

$$$$
30
                    3D
 Structure written by MMmdl.
164173  0  0  1  0            999 V2000
  -30.4807  -15.2269   20.3887 C   0  0  0  0  0  0
  -30.4403  -12.7869   19.5284 C   0  0  0  0  0  0
  -29.5415  -12.5735   18.2868 C   0  0  0  0  0  0
  -28.0882  -12.2994   18.7128 C   0  0  0  0  0  0
  -27.6160  -13.2745   19.8225 C   0  0  2  0  0  0
  -28.6487  -13.4475   20.9567 C   0  0  0  0  0  0
  -25.2421  -13.8257   20.5766 C   0  0  0  0  0  0
  -24.1760  -13.0447   20.9238 C   0  0  0  0  0  0
  -24.6399  -11.6940   20.8728 C   0  0  0  0  0  0
  -23.9099  -10.4289   21.0367 C   0  0  0  0  0  0
  -24.3645   -9.4211   21.9168 C   0  0  0  0  0  0
  -23.6302   -8.2248   22.0762 C   0  0  0  0  0  0
  -22.4287   -8.0278   21.3545 C   0  0  0  0  0  0
  -21.9909   -9.0262   20.4649 C   0  0  0  0  0  0
  -22.7259  -10.2131   20.3038 C   0  0  0  0  0  0
  -21.6850   -6.0728   22.5279 C   0  0  0  0  0  0
  -21.4023   -6.5634   23.8214 C   0  0  0  0  0  0
  -21.3667   -5.6791   24.9177 C   0  0  0  0  0  0
  -21.6047   -4.3054   24.7219 C   0  0  0  0  0  0
  -21.8826   -3.8138   23.4338 C   0  0  0  0  0  0
  -21.9191   -4.6956   22.3399 C   0  0  0  0  0  0
  -22.7772  -13.5202   21.1866 C   0  0  0  0  0  0
  -22.1655   -4.2147   21.0965 F   0  0  0  0  0  0
  -21.5621   -3.4540   25.7730 F   0  0  0  0  0  0
  -29.8844  -13.9378   20.3271 N   0  0  0  0  0  0
  -26.2844  -12.9529   20.3214 N   0  0  0  0  0  0
  -25.9339  -11.6635   20.5679 N   0  0  0  0  0  0
  -22.0396  -12.8220   22.0422 N   0  0  0  0  0  0
  -25.4064  -15.1998   20.4270 N   0  0  0  0  0  0
  -31.7015  -15.1937   20.1786 O   0  0  0  0  0  0
  -21.6641   -6.8880   21.4244 O   0  0  0  0  0  0
  -22.3464  -14.5499   20.6691 O   0  0  0  0  0  0
  -24.6560  -31.8272   23.1741 C   0  0  0  0  0  0
  -25.9268  -32.4595   23.8180 C   0  0  1  0  0  0
  -27.2192  -26.9720   20.1825 C   0  0  0  0  0  0
  -25.5956  -33.8409   24.2093 N   0  0  0  0  0  0
  -23.4682  -30.4413   21.5195 C   0  0  2  0  0  0
  -24.9250  -28.8352   20.1098 C   0  0  0  0  0  0
  -22.7624  -29.4467   22.4765 C   0  0  0  0  0  0
  -18.0320  -28.1404   22.8466 C   0  0  0  0  0  0
  -24.1501  -36.7221   23.2645 C   0  0  0  0  0  0
  -26.0338  -30.6487   21.3988 C   0  0  0  0  0  0
  -26.1048  -29.2426   20.7448 C   0  0  0  0  0  0
  -27.2464  -28.3291   20.7615 C   0  0  0  0  0  0
  -26.0132  -26.7055   19.4972 C   0  0  0  0  0  0
  -24.9020  -27.5859   19.4690 C   0  0  0  0  0  0
  -23.7084  -29.7582   20.1443 C   0  0  0  0  0  0
  -25.4130  -36.2963   24.0299 C   0  0  1  0  0  0
  -20.5940  -28.3743   23.1196 C   0  0  2  0  0  0
  -20.6798  -26.9426   22.5406 C   0  0  0  0  0  0
  -19.5775  -26.6375   21.5209 C   0  0  0  0  0  0
  -18.1954  -26.7939   22.1619 C   0  0  0  0  0  0
  -19.1577  -28.8890   23.2828 C   0  0  0  0  0  0
  -18.9498  -30.1487   23.8863 C   0  0  0  0  0  0
  -17.6490  -30.6597   24.0556 C   0  0  0  0  0  0
  -25.9082  -34.9342   23.5015 C   0  0  0  0  0  0
  -16.5381  -29.9086   23.6346 C   0  0  0  0  0  0
  -16.7298  -28.6505   23.0357 C   0  0  0  0  0  0
  -26.4545  -31.6515   25.0682 C   0  0  0  0  0  0
  -25.3711  -31.3778   26.1368 C   0  0  0  0  0  0
  -27.0439  -30.2875   24.6404 C   0  0  0  0  0  0
  -27.6038  -32.4324   25.7504 C   0  0  0  0  0  0
  -27.5572  -37.1757   24.8456 C   0  0  0  0  0  0
  -21.4295  -29.3047   22.3532 N   0  0  0  0  0  0
  -26.4275  -37.3692   23.9406 N   0  0  0  0  0  0
  -24.7402  -30.9971   22.0855 N   0  0  0  0  0  0
  -23.4197  -28.8029   23.2978 O   0  0  0  0  0  0
  -28.2286  -25.8924   20.2853 O   0  0  0  0  0  0
  -26.5692  -34.8868   22.4612 O   0  0  0  0  0  0
  -23.5639  -32.1231   23.6855 O   0  0  0  0  0  0
  -28.9339  -22.9504   20.5999 C   0  0  0  0  0  0
  -29.9176  -23.4344   21.4948 C   0  0  0  0  0  0
  -29.3155  -21.5620   19.9922 C   0  0  0  0  0  0
  -31.2576  -23.0840   21.2313 C   0  0  0  0  0  0
  -30.6324  -21.6912   19.4777 C   0  0  0  0  0  0
  -28.7006  -18.9574   19.4516 C   0  0  0  0  0  0
  -30.1271  -19.2615   21.2247 C   0  0  0  0  0  0
  -29.5352  -17.5076   19.2921 C   0  0  0  0  0  0
  -29.9079  -17.6249   21.5376 C   0  0  0  0  0  0
  -29.5865  -24.4901   22.5431 C   0  0  0  0  0  0
  -32.4168  -23.6433   22.0380 C   0  0  0  0  0  0
  -31.1413  -20.8547   18.3176 C   0  0  0  0  0  0
  -27.9999  -24.2914   20.0370 C   0  0  0  0  0  0
  -31.5975  -22.3644   20.1437 N   0  0  0  0  0  0
  -29.1318  -20.0739   20.3998 N   0  0  0  0  0  0
  -29.7736  -16.5327   20.4545 N   0  0  0  0  0  0
  -31.4663  -12.9688   19.2046 H   0  0  0  0  0  0
  -30.4874  -11.8843   20.1396 H   0  0  0  0  0  0
  -29.9258  -11.7527   17.6811 H   0  0  0  0  0  0
  -29.5792  -13.4622   17.6538 H   0  0  0  0  0  0
  -28.0451  -11.2745   19.0831 H   0  0  0  0  0  0
  -27.4229  -12.3434   17.8493 H   0  0  0  0  0  0
  -27.5352  -14.2415   19.3255 H   0  0  0  0  0  0
  -28.8082  -12.5142   21.4971 H   0  0  0  0  0  0
  -28.2977  -14.1781   21.6875 H   0  0  0  0  0  0
  -25.2782   -9.5695   22.4751 H   0  0  0  0  0  0
  -24.0008   -7.4642   22.7496 H   0  0  0  0  0  0
  -21.0824   -8.8793   19.8962 H   0  0  0  0  0  0
  -22.3707  -10.9677   19.6149 H   0  0  0  0  0  0
  -21.2032   -7.6145   23.9730 H   0  0  0  0  0  0
  -21.1479   -6.0504   25.9089 H   0  0  0  0  0  0
  -22.0592   -2.7596   23.2832 H   0  0  0  0  0  0
  -22.4018  -11.9928   22.4885 H   0  0  0  0  0  0
  -21.1016  -13.1260   22.2585 H   0  0  0  0  0  0
  -24.6400  -15.8492   20.5630 H   0  0  0  0  0  0
  -26.2647  -15.6516   20.1370 H   0  0  0  0  0  0
  -26.7320  -32.5160   23.0878 H   0  0  0  0  0  0
  -25.0024  -33.9499   25.0195 H   0  0  0  0  0  0
  -22.7786  -31.2711   21.3503 H   0  0  0  0  0  0
  -23.3753  -35.9561   23.3265 H   0  0  0  0  0  0
  -24.3580  -36.8913   22.2070 H   0  0  0  0  0  0
  -23.7275  -37.6403   23.6735 H   0  0  0  0  0  0
  -26.2038  -31.3932   20.6194 H   0  0  0  0  0  0
  -26.8972  -30.7083   22.0498 H   0  0  0  0  0  0
  -28.1339  -28.6333   21.2981 H   0  0  0  0  0  0
  -25.8927  -25.7501   19.0068 H   0  0  0  0  0  0
  -24.0026  -27.2698   18.9597 H   0  0  0  0  0  0
  -23.8600  -30.5284   19.3869 H   0  0  0  0  0  0
  -22.8199  -29.2095   19.8267 H   0  0  0  0  0  0
  -25.1324  -36.1752   25.0787 H   0  0  0  0  0  0
  -21.0043  -28.3356   24.1311 H   0  0  0  0  0  0
  -20.5687  -26.2346   23.3635 H   0  0  0  0  0  0
  -21.6666  -26.7409   22.1214 H   0  0  0  0  0  0
  -19.6940  -25.6276   21.1265 H   0  0  0  0  0  0
  -19.6724  -27.3160   20.6719 H   0  0  0  0  0  0
  -17.4222  -26.6677   21.4028 H   0  0  0  0  0  0
  -18.0362  -26.0099   22.9036 H   0  0  0  0  0  0
  -19.7976  -30.7317   24.2213 H   0  0  0  0  0  0
  -17.5044  -31.6278   24.5161 H   0  0  0  0  0  0
  -15.5382  -30.2976   23.7696 H   0  0  0  0  0  0
  -15.8700  -28.0818   22.7085 H   0  0  0  0  0  0
  -24.5867  -30.7139   25.7703 H   0  0  0  0  0  0
  -24.8932  -32.2999   26.4693 H   0  0  0  0  0  0
  -25.7966  -30.9013   27.0211 H   0  0  0  0  0  0
  -26.3094  -29.6543   24.1409 H   0  0  0  0  0  0
  -27.3958  -29.7231   25.5050 H   0  0  0  0  0  0
  -27.9040  -30.4020   23.9810 H   0  0  0  0  0  0
  -27.2570  -33.3643   26.1984 H   0  0  0  0  0  0
  -28.3917  -32.6857   25.0403 H   0  0  0  0  0  0
  -28.0627  -31.8523   26.5518 H   0  0  0  0  0  0
  -28.2542  -38.0092   24.7491 H   0  0  0  0  0  0
  -28.1109  -36.2607   24.6283 H   0  0  0  0  0  0
  -27.2286  -37.1402   25.8857 H   0  0  0  0  0  0
  -20.9508  -29.8729   21.6690 H   0  0  0  0  0  0
  -26.0117  -38.2748   24.1417 H   0  0  0  0  0  0
  -27.6792  -18.7004   19.7346 H   0  0  0  0  0  0
  -28.6051  -19.4010   18.4593 H   0  0  0  0  0  0
  -31.1154  -19.3755   20.7803 H   0  0  0  0  0  0
  -30.2091  -19.7684   22.1876 H   0  0  0  0  0  0
  -30.5072  -17.7168   18.8435 H   0  0  0  0  0  0
  -29.0071  -16.9247   18.5369 H   0  0  0  0  0  0
  -29.0240  -17.5278   22.1681 H   0  0  0  0  0  0
  -30.7307  -17.3175   22.1844 H   0  0  0  0  0  0
  -28.5136  -24.6687   22.6233 H   0  0  0  0  0  0
  -30.0702  -25.4388   22.3032 H   0  0  0  0  0  0
  -29.9248  -24.1755   23.5304 H   0  0  0  0  0  0
  -32.7670  -24.5799   21.6021 H   0  0  0  0  0  0
  -33.2524  -22.9434   22.0511 H   0  0  0  0  0  0
  -32.1413  -23.8303   23.0767 H   0  0  0  0  0  0
  -31.5606  -19.9114   18.6593 H   0  0  0  0  0  0
  -31.9168  -21.3909   17.7698 H   0  0  0  0  0  0
  -30.3379  -20.6441   17.6133 H   0  0  0  0  0  0
  -26.9893  -24.0851   20.3882 H   0  0  0  0  0  0
  -27.9472  -24.1702   18.9548 H   0  0  0  0  0  0
  1 25  1  0  0  0
  1 30  2  0  0  0
  1 86  1  0  0  0
  2  3  1  0  0  0
  2 25  1  0  0  0
  2 87  1  0  0  0
  2 88  1  0  0  0
  3  4  1  0  0  0
  3 89  1  0  0  0
  3 90  1  0  0  0
  4  5  1  0  0  0
  4 91  1  0  0  0
  4 92  1  0  0  0
  5  6  1  0  0  0
  5 26  1  0  0  0
  5 93  1  0  0  0
  6 25  1  0  0  0
  6 94  1  0  0  0
  6 95  1  0  0  0
  7  8  2  0  0  0
  7 26  1  0  0  0
  7 29  1  0  0  0
  8  9  1  0  0  0
  8 22  1  0  0  0
  9 10  1  0  0  0
  9 27  2  0  0  0
 10 11  2  0  0  0
 10 15  1  0  0  0
 11 12  1  0  0  0
 11 96  1  0  0  0
 12 13  2  0  0  0
 12 97  1  0  0  0
 13 14  1  0  0  0
 13 31  1  0  0  0
 14 15  2  0  0  0
 14 98  1  0  0  0
 15 99  1  0  0  0
 16 17  2  0  0  0
 16 21  1  0  0  0
 16 31  1  0  0  0
 17 18  1  0  0  0
 17100  1  0  0  0
 18 19  2  0  0  0
 18101  1  0  0  0
 19 20  1  0  0  0
 19 24  1  0  0  0
 20 21  2  0  0  0
 20102  1  0  0  0
 21 23  1  0  0  0
 22 28  1  0  0  0
 22 32  2  0  0  0
 26 27  1  0  0  0
 28103  1  0  0  0
 28104  1  0  0  0
 29105  1  0  0  0
 29106  1  0  0  0
 33 34  1  0  0  0
 33 66  1  0  0  0
 33 70  2  0  0  0
 34 36  1  0  0  0
 34 59  1  0  0  0
 34107  1  0  0  0
 35 44  2  0  0  0
 35 45  1  0  0  0
 35 68  1  0  0  0
 36 56  1  0  0  0
 36108  1  0  0  0
 37 39  1  0  0  0
 37 47  1  0  0  0
 37 66  1  0  0  0
 37109  1  0  0  0
 38 43  2  0  0  0
 38 46  1  0  0  0
 38 47  1  0  0  0
 39 64  1  0  0  0
 39 67  2  0  0  0
 40 52  1  0  0  0
 40 53  2  0  0  0
 40 58  1  0  0  0
 41110  1  0  0  0
 41111  1  0  0  0
 41112  1  0  0  0
 41 48  1  0  0  0
 42 43  1  0  0  0
 42 66  1  0  0  0
 42113  1  0  0  0
 42114  1  0  0  0
 43 44  1  0  0  0
 44115  1  0  0  0
 45 46  2  0  0  0
 45116  1  0  0  0
 46117  1  0  0  0
 47118  1  0  0  0
 47119  1  0  0  0
 48 56  1  0  0  0
 48 65  1  0  0  0
 48120  1  0  0  0
 49 50  1  0  0  0
 49 53  1  0  0  0
 49 64  1  0  0  0
 49121  1  0  0  0
 50 51  1  0  0  0
 50122  1  0  0  0
 50123  1  0  0  0
 51 52  1  0  0  0
 51124  1  0  0  0
 51125  1  0  0  0
 52126  1  0  0  0
 52127  1  0  0  0
 53 54  1  0  0  0
 54 55  2  0  0  0
 54128  1  0  0  0
 55 57  1  0  0  0
 55129  1  0  0  0
 56 69  2  0  0  0
 57 58  2  0  0  0
 57130  1  0  0  0
 58131  1  0  0  0
 59 60  1  0  0  0
 59 61  1  0  0  0
 59 62  1  0  0  0
 60132  1  0  0  0
 60133  1  0  0  0
 60134  1  0  0  0
 61135  1  0  0  0
 61136  1  0  0  0
 61137  1  0  0  0
 62138  1  0  0  0
 62139  1  0  0  0
 62140  1  0  0  0
 63 65  1  0  0  0
 63141  1  0  0  0
 63142  1  0  0  0
 63143  1  0  0  0
 64144  1  0  0  0
 65145  1  0  0  0
 68 83  1  0  0  0
 71 72  2  0  0  0
 71 73  1  0  0  0
 71 83  1  0  0  0
 72 74  1  0  0  0
 72 80  1  0  0  0
 73 75  2  0  0  0
 73 85  1  0  0  0
 74 81  1  0  0  0
 74 84  2  0  0  0
 75 82  1  0  0  0
 75 84  1  0  0  0
 76 78  1  0  0  0
 76 85  1  0  0  0
 76146  1  0  0  0
 76147  1  0  0  0
 77 79  1  0  0  0
 77 85  1  0  0  0
 77148  1  0  0  0
 77149  1  0  0  0
 78 86  1  0  0  0
 78150  1  0  0  0
 78151  1  0  0  0
 79 86  1  0  0  0
 79152  1  0  0  0
 79153  1  0  0  0
 80154  1  0  0  0
 80155  1  0  0  0
 80156  1  0  0  0
 81157  1  0  0  0
 81158  1  0  0  0
 81159  1  0  0  0
 82160  1  0  0  0
 82161  1  0  0  0
 82162  1  0  0  0
 83163  1  0  0  0
 83164  1  0  0  0
M  ISO  4   1 100  68 101  83 101  86 100
M  END
> <chiral flag>
0

> <version>
0

> <s_m_source_file>
/data/baiqing/PycharmProjects/Reinvent-master-3.2/result/LINK_invent/BTK/process_docking_weight1_custom_sum_contain_oxygen_bond_distance_aromatic_linkinvent_7_9_3/rearranged_h_0167.sdf

> <i_m_source_file_index>
31

> <r_mmod_Potential_Energy-OPLS-2005>
1455.79382324219

> <r_mmod_Stretch_Energy-OPLS-2005>
480.093597412109

> <r_mmod_Bend_Energy-OPLS-2005>
449.838989257812

> <r_mmod_Torsional_Energy-OPLS-2005>
606.596984863281

> <r_mmod_Improper_Torsional_Energy-OPLS-2005>
38.8334732055664

> <r_mmod_Van_der_Waal_Energy-OPLS-2005>
147.038619995117

> <r_mmod_Electrostatic_Energy-OPLS-2005>
-438.537231445312

> <r_mmod_Solvation_Energy-OPLS-2005>
-236.151977539062

> <b_mmod_Minimization_Converged-OPLS-2005>
0

> <r_mmod_RMS_Derivative-OPLS-2005>
2.70341205596924

$$$$
31
                    3D
 Structure written by MMmdl.
168178  0  0  1  0            999 V2000
  -30.6466  -14.6978   20.4657 C   0  0  0  0  0  0
  -30.4193  -12.4297   19.4574 C   0  0  0  0  0  0
  -29.4968  -12.5052   18.2218 C   0  0  0  0  0  0
  -28.0214  -12.3434   18.6342 C   0  0  0  0  0  0
  -27.6392  -13.2270   19.8521 C   0  0  2  0  0  0
  -28.6882  -13.1144   20.9791 C   0  0  0  0  0  0
  -25.2491  -13.8199   20.5686 C   0  0  0  0  0  0
  -24.1798  -13.0444   20.9215 C   0  0  0  0  0  0
  -24.6380  -11.6917   20.8745 C   0  0  0  0  0  0
  -23.9067  -10.4298   21.0397 C   0  0  0  0  0  0
  -24.3616   -9.4221   21.9174 C   0  0  0  0  0  0
  -23.6303   -8.2250   22.0744 C   0  0  0  0  0  0
  -22.4282   -8.0284   21.3538 C   0  0  0  0  0  0
  -21.9912   -9.0259   20.4634 C   0  0  0  0  0  0
  -22.7238  -10.2143   20.3049 C   0  0  0  0  0  0
  -21.6849   -6.0748   22.5280 C   0  0  0  0  0  0
  -21.4012   -6.5649   23.8219 C   0  0  0  0  0  0
  -21.3658   -5.6793   24.9174 C   0  0  0  0  0  0
  -21.6037   -4.3055   24.7220 C   0  0  0  0  0  0
  -21.8812   -3.8156   23.4339 C   0  0  0  0  0  0
  -21.9193   -4.6974   22.3402 C   0  0  0  0  0  0
  -22.7812  -13.5216   21.1876 C   0  0  0  0  0  0
  -22.1656   -4.2167   21.0976 F   0  0  0  0  0  0
  -21.5638   -3.4532   25.7731 F   0  0  0  0  0  0
  -29.9827  -13.4904   20.3961 N   0  0  0  0  0  0
  -26.2921  -12.9398   20.3288 N   0  0  0  0  0  0
  -25.9304  -11.6543   20.5762 N   0  0  0  0  0  0
  -22.0463  -12.8203   22.0429 N   0  0  0  0  0  0
  -25.4156  -15.1922   20.4057 N   0  0  0  0  0  0
  -31.8365  -14.7355   20.1357 O   0  0  0  0  0  0
  -21.6641   -6.8884   21.4242 O   0  0  0  0  0  0
  -22.3484  -14.5522   20.6726 O   0  0  0  0  0  0
  -24.6255  -31.8601   23.2005 C   0  0  0  0  0  0
  -25.9097  -32.4774   23.8340 C   0  0  1  0  0  0
  -27.2237  -27.3125   20.1222 C   0  0  0  0  0  0
  -25.5921  -33.8578   24.2274 N   0  0  0  0  0  0
  -23.4198  -30.4811   21.5430 C   0  0  2  0  0  0
  -24.8644  -28.9267   20.1114 C   0  0  0  0  0  0
  -22.7480  -29.4643   22.4949 C   0  0  0  0  0  0
  -18.0296  -28.1332   22.8566 C   0  0  0  0  0  0
  -24.1488  -36.7285   23.2641 C   0  0  0  0  0  0
  -25.9576  -30.7877   21.3714 C   0  0  0  0  0  0
  -26.0292  -29.4125   20.7167 C   0  0  0  0  0  0
  -27.2090  -28.6145   20.7107 C   0  0  0  0  0  0
  -26.0420  -26.8777   19.4865 C   0  0  0  0  0  0
  -24.8733  -27.6671   19.4864 C   0  0  0  0  0  0
  -23.6328  -29.8077   20.1591 C   0  0  0  0  0  0
  -25.4118  -36.3083   24.0329 C   0  0  1  0  0  0
  -20.5910  -28.3680   23.1253 C   0  0  2  0  0  0
  -20.6841  -26.9443   22.5290 C   0  0  0  0  0  0
  -19.5702  -26.6344   21.5239 C   0  0  0  0  0  0
  -18.1955  -26.7826   22.1804 C   0  0  0  0  0  0
  -19.1553  -28.8834   23.2886 C   0  0  0  0  0  0
  -18.9479  -30.1461   23.8843 C   0  0  0  0  0  0
  -17.6483  -30.6602   24.0503 C   0  0  0  0  0  0
  -25.9061  -34.9451   23.5109 C   0  0  0  0  0  0
  -16.5371  -29.9070   23.6343 C   0  0  0  0  0  0
  -16.7288  -28.6448   23.0432 C   0  0  0  0  0  0
  -26.4485  -31.6581   25.0707 C   0  0  0  0  0  0
  -25.3708  -31.3716   26.1427 C   0  0  0  0  0  0
  -27.0320  -30.3008   24.6142 C   0  0  0  0  0  0
  -27.6056  -32.4309   25.7464 C   0  0  0  0  0  0
  -27.5584  -37.1802   24.8466 C   0  0  0  0  0  0
  -21.4195  -29.3072   22.3683 N   0  0  0  0  0  0
  -26.4293  -37.3779   23.9413 N   0  0  0  0  0  0
  -24.6864  -31.0603   22.0959 N   0  0  0  0  0  0
  -23.4194  -28.8208   23.3054 O   0  0  0  0  0  0
  -28.3638  -26.5011   20.1983 O   0  0  0  0  0  0
  -26.5630  -34.8916   22.4676 O   0  0  0  0  0  0
  -23.5416  -32.1402   23.7327 O   0  0  0  0  0  0
  -26.5867  -19.8604   21.5171 C   0  0  0  0  0  0
  -25.8144  -20.8864   22.0617 C   0  0  0  0  0  0
  -28.1997  -21.4854   20.6686 C   0  0  0  0  0  0
  -27.8359  -20.0864   20.8973 C   0  0  0  0  0  0
  -27.3582  -22.5763   21.1491 C   0  0  0  0  0  0
  -26.2316  -22.2142   21.9424 C   0  0  0  0  0  0
  -25.9950  -24.3860   23.0252 C   0  0  0  0  0  0
  -27.3541  -24.7647   22.4302 C   0  0  0  0  0  0
  -28.7675  -17.7862   21.8077 C   0  0  0  0  0  0
  -28.9284  -16.2659   21.4941 C   0  0  0  0  0  0
  -30.2406  -16.9978   19.4824 C   0  0  0  0  0  0
  -28.5566  -18.6989   20.5640 C   0  0  2  0  0  0
  -27.4531  -24.1625   21.0120 C   0  0  1  0  0  0
  -29.8960  -18.5261   19.7975 C   0  0  2  0  0  0
  -29.9758  -19.3491   18.4989 C   0  0  0  0  0  0
  -28.3563  -25.0185   20.0367 C   0  0  0  0  0  0
  -25.5075  -23.1814   22.6934 N   0  0  0  0  0  0
  -29.9203  -15.8933   20.4617 N   0  0  0  0  0  0
  -25.3992  -25.1553   23.7793 O   0  0  0  0  0  0
  -31.4613  -12.5350   19.1515 H   0  0  0  0  0  0
  -30.3513  -11.4460   19.9267 H   0  0  0  0  0  0
  -29.7688  -11.7363   17.4966 H   0  0  0  0  0  0
  -29.6352  -13.4628   17.7178 H   0  0  0  0  0  0
  -27.8607  -11.2940   18.8789 H   0  0  0  0  0  0
  -27.3661  -12.5571   17.7903 H   0  0  0  0  0  0
  -27.6448  -14.2563   19.4939 H   0  0  0  0  0  0
  -28.7269  -12.0933   21.3627 H   0  0  0  0  0  0
  -28.4199  -13.7283   21.8345 H   0  0  0  0  0  0
  -25.2746   -9.5725   22.4768 H   0  0  0  0  0  0
  -24.0020   -7.4632   22.7452 H   0  0  0  0  0  0
  -21.0851   -8.8771   19.8935 H   0  0  0  0  0  0
  -22.3676  -10.9689   19.6177 H   0  0  0  0  0  0
  -21.2010   -7.6154   23.9741 H   0  0  0  0  0  0
  -21.1480   -6.0509   25.9082 H   0  0  0  0  0  0
  -22.0597   -2.7621   23.2832 H   0  0  0  0  0  0
  -22.4053  -11.9859   22.4822 H   0  0  0  0  0  0
  -21.1088  -13.1228   22.2672 H   0  0  0  0  0  0
  -24.6456  -15.8431   20.5131 H   0  0  0  0  0  0
  -26.2619  -15.6314   20.0691 H   0  0  0  0  0  0
  -26.7172  -32.5435   23.1097 H   0  0  0  0  0  0
  -25.0031  -33.9716   25.0393 H   0  0  0  0  0  0
  -22.7142  -31.3013   21.3968 H   0  0  0  0  0  0
  -23.3751  -35.9615   23.3300 H   0  0  0  0  0  0
  -24.3582  -36.8909   22.2057 H   0  0  0  0  0  0
  -23.7229  -37.6483   23.6663 H   0  0  0  0  0  0
  -26.0844  -31.5488   20.5999 H   0  0  0  0  0  0
  -26.8420  -30.8410   21.9956 H   0  0  0  0  0  0
  -28.1047  -28.9800   21.1928 H   0  0  0  0  0  0
  -26.0042  -25.9190   18.9918 H   0  0  0  0  0  0
  -23.9799  -27.2931   19.0054 H   0  0  0  0  0  0
  -23.7517  -30.5791   19.3977 H   0  0  0  0  0  0
  -22.7519  -29.2343   19.8636 H   0  0  0  0  0  0
  -25.1303  -36.1942   25.0823 H   0  0  0  0  0  0
  -20.9989  -28.3202   24.1382 H   0  0  0  0  0  0
  -20.5988  -26.2275   23.3470 H   0  0  0  0  0  0
  -21.6658  -26.7608   22.0890 H   0  0  0  0  0  0
  -19.6882  -25.6247   21.1285 H   0  0  0  0  0  0
  -19.6471  -27.3169   20.6769 H   0  0  0  0  0  0
  -17.4129  -26.6381   21.4343 H   0  0  0  0  0  0
  -18.0561  -26.0033   22.9319 H   0  0  0  0  0  0
  -19.7964  -30.7301   24.2130 H   0  0  0  0  0  0
  -17.5051  -31.6322   24.5016 H   0  0  0  0  0  0
  -15.5371  -30.2964   23.7672 H   0  0  0  0  0  0
  -15.8685  -28.0736   22.7222 H   0  0  0  0  0  0
  -24.5890  -30.7066   25.7743 H   0  0  0  0  0  0
  -24.8875  -32.2875   26.4844 H   0  0  0  0  0  0
  -25.8017  -30.8892   27.0208 H   0  0  0  0  0  0
  -26.2881  -29.6760   24.1179 H   0  0  0  0  0  0
  -27.4050  -29.7270   25.4635 H   0  0  0  0  0  0
  -27.8740  -30.4316   23.9338 H   0  0  0  0  0  0
  -27.2693  -33.3620   26.2042 H   0  0  0  0  0  0
  -28.3854  -32.6852   25.0272 H   0  0  0  0  0  0
  -28.0729  -31.8418   26.5369 H   0  0  0  0  0  0
  -28.2611  -38.0094   24.7525 H   0  0  0  0  0  0
  -28.1079  -36.2630   24.6285 H   0  0  0  0  0  0
  -27.2307  -37.1443   25.8871 H   0  0  0  0  0  0
  -20.9357  -29.8820   21.6922 H   0  0  0  0  0  0
  -26.0173  -38.2854   24.1413 H   0  0  0  0  0  0
  -26.2160  -18.8520   21.6440 H   0  0  0  0  0  0
  -24.9182  -20.6351   22.6111 H   0  0  0  0  0  0
  -29.1147  -21.7288   20.1504 H   0  0  0  0  0  0
  -28.1559  -24.3882   23.0658 H   0  0  0  0  0  0
  -27.4378  -25.8509   22.4269 H   0  0  0  0  0  0
  -29.6280  -18.1417   22.3773 H   0  0  0  0  0  0
  -27.9318  -17.8623   22.5008 H   0  0  0  0  0  0
  -27.9596  -15.8879   21.1754 H   0  0  0  0  0  0
  -29.1678  -15.7558   22.4285 H   0  0  0  0  0  0
  -31.2986  -16.9622   19.2149 H   0  0  0  0  0  0
  -29.7117  -16.7181   18.5702 H   0  0  0  0  0  0
  -27.8127  -18.2022   19.9377 H   0  0  0  0  0  0
  -26.4867  -24.3659   20.5484 H   0  0  0  0  0  0
  -30.6866  -18.9101   20.4444 H   0  0  0  0  0  0
  -29.1548  -19.1095   17.8226 H   0  0  0  0  0  0
  -30.9084  -19.1493   17.9693 H   0  0  0  0  0  0
  -29.9532  -20.4203   18.6829 H   0  0  0  0  0  0
  -28.1088  -24.7780   19.0019 H   0  0  0  0  0  0
  -29.3887  -24.6932   20.1704 H   0  0  0  0  0  0
  -24.6292  -22.9016   23.1081 H   0  0  0  0  0  0
  1 25  1  0  0  0
  1 30  2  0  0  0
  1 88  1  0  0  0
  2  3  1  0  0  0
  2 25  1  0  0  0
  2 90  1  0  0  0
  2 91  1  0  0  0
  3  4  1  0  0  0
  3 92  1  0  0  0
  3 93  1  0  0  0
  4  5  1  0  0  0
  4 94  1  0  0  0
  4 95  1  0  0  0
  5  6  1  0  0  0
  5 26  1  0  0  0
  5 96  1  0  0  0
  6 25  1  0  0  0
  6 97  1  0  0  0
  6 98  1  0  0  0
  7  8  2  0  0  0
  7 26  1  0  0  0
  7 29  1  0  0  0
  8  9  1  0  0  0
  8 22  1  0  0  0
  9 10  1  0  0  0
  9 27  2  0  0  0
 10 11  2  0  0  0
 10 15  1  0  0  0
 11 12  1  0  0  0
 11 99  1  0  0  0
 12 13  2  0  0  0
 12100  1  0  0  0
 13 14  1  0  0  0
 13 31  1  0  0  0
 14 15  2  0  0  0
 14101  1  0  0  0
 15102  1  0  0  0
 16 17  2  0  0  0
 16 21  1  0  0  0
 16 31  1  0  0  0
 17 18  1  0  0  0
 17103  1  0  0  0
 18 19  2  0  0  0
 18104  1  0  0  0
 19 20  1  0  0  0
 19 24  1  0  0  0
 20 21  2  0  0  0
 20105  1  0  0  0
 21 23  1  0  0  0
 22 28  1  0  0  0
 22 32  2  0  0  0
 26 27  1  0  0  0
 28106  1  0  0  0
 28107  1  0  0  0
 29108  1  0  0  0
 29109  1  0  0  0
 33 34  1  0  0  0
 33 66  1  0  0  0
 33 70  2  0  0  0
 34 36  1  0  0  0
 34 59  1  0  0  0
 34110  1  0  0  0
 35 44  2  0  0  0
 35 45  1  0  0  0
 35 68  1  0  0  0
 36 56  1  0  0  0
 36111  1  0  0  0
 37 39  1  0  0  0
 37 47  1  0  0  0
 37 66  1  0  0  0
 37112  1  0  0  0
 38 43  2  0  0  0
 38 46  1  0  0  0
 38 47  1  0  0  0
 39 64  1  0  0  0
 39 67  2  0  0  0
 40 52  1  0  0  0
 40 53  2  0  0  0
 40 58  1  0  0  0
 41113  1  0  0  0
 41114  1  0  0  0
 41115  1  0  0  0
 41 48  1  0  0  0
 42 43  1  0  0  0
 42 66  1  0  0  0
 42116  1  0  0  0
 42117  1  0  0  0
 43 44  1  0  0  0
 44118  1  0  0  0
 45 46  2  0  0  0
 45119  1  0  0  0
 46120  1  0  0  0
 47121  1  0  0  0
 47122  1  0  0  0
 48 56  1  0  0  0
 48 65  1  0  0  0
 48123  1  0  0  0
 49 50  1  0  0  0
 49 53  1  0  0  0
 49 64  1  0  0  0
 49124  1  0  0  0
 50 51  1  0  0  0
 50125  1  0  0  0
 50126  1  0  0  0
 51 52  1  0  0  0
 51127  1  0  0  0
 51128  1  0  0  0
 52129  1  0  0  0
 52130  1  0  0  0
 53 54  1  0  0  0
 54 55  2  0  0  0
 54131  1  0  0  0
 55 57  1  0  0  0
 55132  1  0  0  0
 56 69  2  0  0  0
 57 58  2  0  0  0
 57133  1  0  0  0
 58134  1  0  0  0
 59 60  1  0  0  0
 59 61  1  0  0  0
 59 62  1  0  0  0
 60135  1  0  0  0
 60136  1  0  0  0
 60137  1  0  0  0
 61138  1  0  0  0
 61139  1  0  0  0
 61140  1  0  0  0
 62141  1  0  0  0
 62142  1  0  0  0
 62143  1  0  0  0
 63 65  1  0  0  0
 63144  1  0  0  0
 63145  1  0  0  0
 63146  1  0  0  0
 64147  1  0  0  0
 65148  1  0  0  0
 68 86  1  0  0  0
 71 72  2  0  0  0
 71 74  1  0  0  0
 71149  1  0  0  0
 72 76  1  0  0  0
 72150  1  0  0  0
 73 74  2  0  0  0
 73 75  1  0  0  0
 73151  1  0  0  0
 74 82  1  0  0  0
 75 76  2  0  0  0
 75 83  1  0  0  0
 76 87  1  0  0  0
 77 78  1  0  0  0
 77 87  1  0  0  0
 77 89  2  0  0  0
 78 83  1  0  0  0
 78152  1  0  0  0
 78153  1  0  0  0
 79 80  1  0  0  0
 79 82  1  0  0  0
 79154  1  0  0  0
 79155  1  0  0  0
 80 88  1  0  0  0
 80156  1  0  0  0
 80157  1  0  0  0
 81 84  1  0  0  0
 81 88  1  0  0  0
 81158  1  0  0  0
 81159  1  0  0  0
 82 84  1  0  0  0
 82160  1  0  0  0
 83 86  1  0  0  0
 83161  1  0  0  0
 84 85  1  0  0  0
 84162  1  0  0  0
 85163  1  0  0  0
 85164  1  0  0  0
 85165  1  0  0  0
 86166  1  0  0  0
 86167  1  0  0  0
 87168  1  0  0  0
M  ISO  4   1 100  68 101  86 101  88 100
M  END
> <chiral flag>
0

> <version>
0

> <s_m_source_file>
/data/baiqing/PycharmProjects/Reinvent-master-3.2/result/LINK_invent/BTK/process_docking_weight1_custom_sum_contain_oxygen_bond_distance_aromatic_linkinvent_7_9_3/rearranged_h_0167.sdf

> <i_m_source_file_index>
32

> <r_mmod_Potential_Energy-OPLS-2005>
366.550598144531

> <r_mmod_Stretch_Energy-OPLS-2005>
110.573692321777

> <r_mmod_Bend_Energy-OPLS-2005>
263.865386962891

> <r_mmod_Torsional_Energy-OPLS-2005>
356.977996826172

> <r_mmod_Improper_Torsional_Energy-OPLS-2005>
13.6711158752441

> <r_mmod_Van_der_Waal_Energy-OPLS-2005>
158.888656616211

> <r_mmod_Electrostatic_Energy-OPLS-2005>
-376.938995361328

> <r_mmod_Solvation_Energy-OPLS-2005>
-219.608764648438

> <b_mmod_Minimization_Converged-OPLS-2005>
0

> <r_mmod_RMS_Derivative-OPLS-2005>
2.34248065948486

$$$$
32
                    3D
 Structure written by MMmdl.
167176  0  0  1  0            999 V2000
  -30.6679  -14.6716   20.5387 C   0  0  0  0  0  0
  -30.4150  -12.4302   19.4675 C   0  0  0  0  0  0
  -29.4980  -12.4976   18.2292 C   0  0  0  0  0  0
  -28.0285  -12.2942   18.6433 C   0  0  0  0  0  0
  -27.6340  -13.1947   19.8374 C   0  0  2  0  0  0
  -28.6755  -13.1173   20.9836 C   0  0  0  0  0  0
  -25.2461  -13.8096   20.5601 C   0  0  0  0  0  0
  -24.1752  -13.0394   20.9192 C   0  0  0  0  0  0
  -24.6310  -11.6866   20.8765 C   0  0  0  0  0  0
  -23.8999  -10.4265   21.0444 C   0  0  0  0  0  0
  -24.3571   -9.4182   21.9204 C   0  0  0  0  0  0
  -23.6253   -8.2218   22.0767 C   0  0  0  0  0  0
  -22.4240   -8.0252   21.3551 C   0  0  0  0  0  0
  -21.9862   -9.0228   20.4663 C   0  0  0  0  0  0
  -22.7187  -10.2104   20.3075 C   0  0  0  0  0  0
  -21.6841   -6.0713   22.5281 C   0  0  0  0  0  0
  -21.4010   -6.5623   23.8211 C   0  0  0  0  0  0
  -21.3663   -5.6780   24.9176 C   0  0  0  0  0  0
  -21.6044   -4.3042   24.7233 C   0  0  0  0  0  0
  -21.8814   -3.8129   23.4354 C   0  0  0  0  0  0
  -21.9187   -4.6942   22.3407 C   0  0  0  0  0  0
  -22.7796  -13.5228   21.1879 C   0  0  0  0  0  0
  -22.1658   -4.2123   21.0989 F   0  0  0  0  0  0
  -21.5629   -3.4529   25.7750 F   0  0  0  0  0  0
  -29.9769  -13.4858   20.4155 N   0  0  0  0  0  0
  -26.2851  -12.9241   20.3178 N   0  0  0  0  0  0
  -25.9214  -11.6426   20.5723 N   0  0  0  0  0  0
  -22.0438  -12.8240   22.0448 N   0  0  0  0  0  0
  -25.4085  -15.1809   20.3953 N   0  0  0  0  0  0
  -31.8385  -14.7128   20.1423 O   0  0  0  0  0  0
  -21.6614   -6.8847   21.4243 O   0  0  0  0  0  0
  -22.3503  -14.5550   20.6737 O   0  0  0  0  0  0
  -24.6209  -31.8614   23.2058 C   0  0  0  0  0  0
  -25.9077  -32.4785   23.8372 C   0  0  1  0  0  0
  -27.2258  -27.3498   20.1324 C   0  0  0  0  0  0
  -25.5899  -33.8587   24.2299 N   0  0  0  0  0  0
  -23.4141  -30.4843   21.5456 C   0  0  2  0  0  0
  -24.8654  -28.9368   20.1185 C   0  0  0  0  0  0
  -22.7446  -29.4624   22.4945 C   0  0  0  0  0  0
  -18.0274  -28.1358   22.8486 C   0  0  0  0  0  0
  -24.1489  -36.7307   23.2646 C   0  0  0  0  0  0
  -25.9515  -30.8011   21.3746 C   0  0  0  0  0  0
  -26.0289  -29.4266   20.7277 C   0  0  0  0  0  0
  -27.2160  -28.6412   20.7330 C   0  0  0  0  0  0
  -26.0504  -26.8984   19.5032 C   0  0  0  0  0  0
  -24.8744  -27.6738   19.5011 C   0  0  0  0  0  0
  -23.6314  -29.8151   20.1622 C   0  0  0  0  0  0
  -25.4115  -36.3093   24.0332 C   0  0  1  0  0  0
  -20.5876  -28.3662   23.1288 C   0  0  2  0  0  0
  -20.6767  -26.9388   22.5408 C   0  0  0  0  0  0
  -19.5753  -26.6363   21.5200 C   0  0  0  0  0  0
  -18.1931  -26.7899   22.1614 C   0  0  0  0  0  0
  -19.1527  -28.8823   23.2883 C   0  0  0  0  0  0
  -18.9457  -30.1430   23.8898 C   0  0  0  0  0  0
  -17.6462  -30.6571   24.0550 C   0  0  0  0  0  0
  -25.9035  -34.9454   23.5114 C   0  0  0  0  0  0
  -16.5351  -29.9073   23.6319 C   0  0  0  0  0  0
  -16.7267  -28.6482   23.0350 C   0  0  0  0  0  0
  -26.4489  -31.6584   25.0722 C   0  0  0  0  0  0
  -25.3742  -31.3707   26.1466 C   0  0  0  0  0  0
  -27.0331  -30.3010   24.6151 C   0  0  0  0  0  0
  -27.6052  -32.4320   25.7489 C   0  0  0  0  0  0
  -27.5564  -37.1835   24.8479 C   0  0  0  0  0  0
  -21.4163  -29.3029   22.3693 N   0  0  0  0  0  0
  -26.4310  -37.3768   23.9374 N   0  0  0  0  0  0
  -24.6805  -31.0653   22.0990 N   0  0  0  0  0  0
  -23.4183  -28.8156   23.3001 O   0  0  0  0  0  0
  -28.3328  -26.5089   20.0969 O   0  0  0  0  0  0
  -26.5598  -34.8917   22.4677 O   0  0  0  0  0  0
  -23.5386  -32.1397   23.7403 O   0  0  0  0  0  0
  -29.4024  -21.9301   20.2195 C   0  0  0  0  0  0
  -29.2820  -23.3561   20.1790 C   0  0  0  0  0  0
  -27.8391  -23.2812   22.1241 C   0  0  0  0  0  0
  -28.5116  -24.0752   21.1404 C   0  0  0  0  0  0
  -27.9554  -21.8477   22.1461 C   0  0  0  0  0  0
  -28.7644  -21.1387   21.2118 C   0  0  0  0  0  0
  -30.8660  -18.2702   20.7258 C   0  0  0  0  0  0
  -28.5269  -17.5986   20.1129 C   0  0  0  0  0  0
  -30.9314  -16.9590   21.5866 C   0  0  0  0  0  0
  -28.7187  -16.3646   21.0572 C   0  0  0  0  0  0
  -29.4515  -18.8244   20.3812 C   0  0  0  0  0  0
  -30.0378  -24.1130   19.1007 C   0  0  0  0  0  0
  -27.0163  -23.9922   23.2016 C   0  0  0  0  0  0
  -27.2114  -21.0422   23.2108 C   0  0  0  0  0  0
  -28.5562  -25.6560   21.2589 C   0  0  0  0  0  0
  -30.1052  -15.8368   21.0650 N   0  0  0  0  0  0
  -28.8924  -19.7387   21.3707 O   0  0  0  0  0  0
  -31.4578  -12.5355   19.1642 H   0  0  0  0  0  0
  -30.3503  -11.4483   19.9391 H   0  0  0  0  0  0
  -29.7903  -11.7409   17.5001 H   0  0  0  0  0  0
  -29.6124  -13.4629   17.7344 H   0  0  0  0  0  0
  -27.8958  -11.2452   18.9107 H   0  0  0  0  0  0
  -27.3670  -12.4752   17.7951 H   0  0  0  0  0  0
  -27.6240  -14.1899   19.3996 H   0  0  0  0  0  0
  -28.7170  -12.1070   21.3934 H   0  0  0  0  0  0
  -28.4072  -13.7527   21.8276 H   0  0  0  0  0  0
  -25.2716   -9.5656   22.4772 H   0  0  0  0  0  0
  -23.9955   -7.4605   22.7482 H   0  0  0  0  0  0
  -21.0789   -8.8748   19.8974 H   0  0  0  0  0  0
  -22.3655  -10.9636   19.6173 H   0  0  0  0  0  0
  -21.2009   -7.6130   23.9705 H   0  0  0  0  0  0
  -21.1499   -6.0516   25.9073 H   0  0  0  0  0  0
  -22.0595   -2.7591   23.2866 H   0  0  0  0  0  0
  -22.4007  -11.9863   22.4799 H   0  0  0  0  0  0
  -21.1090  -13.1332   22.2715 H   0  0  0  0  0  0
  -24.6393  -15.8299   20.5225 H   0  0  0  0  0  0
  -26.2521  -15.6282   20.0653 H   0  0  0  0  0  0
  -26.7137  -32.5475   23.1124 H   0  0  0  0  0  0
  -25.0049  -33.9738   25.0444 H   0  0  0  0  0  0
  -22.7055  -31.3027   21.4012 H   0  0  0  0  0  0
  -23.3710  -35.9689   23.3405 H   0  0  0  0  0  0
  -24.3553  -36.8822   22.2039 H   0  0  0  0  0  0
  -23.7322  -37.6572   23.6603 H   0  0  0  0  0  0
  -26.0748  -31.5628   20.6037 H   0  0  0  0  0  0
  -26.8351  -30.8547   21.9992 H   0  0  0  0  0  0
  -28.1140  -29.0142   21.2056 H   0  0  0  0  0  0
  -26.0444  -25.9287   19.0257 H   0  0  0  0  0  0
  -23.9819  -27.2899   19.0271 H   0  0  0  0  0  0
  -23.7498  -30.5894   19.4042 H   0  0  0  0  0  0
  -22.7527  -29.2426   19.8599 H   0  0  0  0  0  0
  -25.1313  -36.1962   25.0832 H   0  0  0  0  0  0
  -20.9970  -28.3235   24.1406 H   0  0  0  0  0  0
  -20.5646  -26.2271   23.3603 H   0  0  0  0  0  0
  -21.6642  -26.7407   22.1218 H   0  0  0  0  0  0
  -19.6915  -25.6272   21.1231 H   0  0  0  0  0  0
  -19.6693  -27.3170   20.6729 H   0  0  0  0  0  0
  -17.4195  -26.6639   21.4018 H   0  0  0  0  0  0
  -18.0342  -26.0038   22.9014 H   0  0  0  0  0  0
  -19.7937  -30.7236   24.2275 H   0  0  0  0  0  0
  -17.5020  -31.6257   24.5144 H   0  0  0  0  0  0
  -15.5353  -30.2976   23.7637 H   0  0  0  0  0  0
  -15.8663  -28.0799   22.7071 H   0  0  0  0  0  0
  -24.5901  -30.7072   25.7799 H   0  0  0  0  0  0
  -24.8950  -32.2866   26.4928 H   0  0  0  0  0  0
  -25.8089  -30.8854   27.0214 H   0  0  0  0  0  0
  -26.2891  -29.6761   24.1197 H   0  0  0  0  0  0
  -27.4058  -29.7267   25.4643 H   0  0  0  0  0  0
  -27.8749  -30.4293   23.9345 H   0  0  0  0  0  0
  -27.2657  -33.3614   26.2075 H   0  0  0  0  0  0
  -28.3861  -32.6894   25.0321 H   0  0  0  0  0  0
  -28.0724  -31.8440   26.5399 H   0  0  0  0  0  0
  -28.2668  -38.0042   24.7389 H   0  0  0  0  0  0
  -28.0972  -36.2568   24.6488 H   0  0  0  0  0  0
  -27.2251  -37.1711   25.8878 H   0  0  0  0  0  0
  -20.9320  -29.8762   21.6931 H   0  0  0  0  0  0
  -26.0199  -38.2865   24.1283 H   0  0  0  0  0  0
  -30.0349  -21.4510   19.4872 H   0  0  0  0  0  0
  -31.3694  -18.0527   19.7824 H   0  0  0  0  0  0
  -31.4573  -19.0562   21.1960 H   0  0  0  0  0  0
  -27.4853  -17.9232   20.1267 H   0  0  0  0  0  0
  -28.7095  -17.2587   19.0918 H   0  0  0  0  0  0
  -30.6033  -17.1853   22.6027 H   0  0  0  0  0  0
  -31.9745  -16.6584   21.6986 H   0  0  0  0  0  0
  -27.9885  -15.6229   20.7958 H   0  0  0  0  0  0
  -28.4431  -16.6508   22.0738 H   0  0  0  0  0  0
  -29.5191  -19.3642   19.4383 H   0  0  0  0  0  0
  -30.7359  -23.4678   18.5670 H   0  0  0  0  0  0
  -30.6138  -24.9329   19.5292 H   0  0  0  0  0  0
  -29.3423  -24.5281   18.3709 H   0  0  0  0  0  0
  -26.2758  -24.6495   22.7451 H   0  0  0  0  0  0
  -27.6681  -24.5963   23.8331 H   0  0  0  0  0  0
  -26.4653  -23.3377   23.8721 H   0  0  0  0  0  0
  -27.5798  -21.2946   24.2056 H   0  0  0  0  0  0
  -27.3114  -19.9640   23.0956 H   0  0  0  0  0  0
  -26.1417  -21.2506   23.1703 H   0  0  0  0  0  0
  -29.5682  -25.8871   21.5916 H   0  0  0  0  0  0
  -27.9367  -26.0251   22.0744 H   0  0  0  0  0  0
  1 25  1  0  0  0
  1 30  2  0  0  0
  1 86  1  0  0  0
  2  3  1  0  0  0
  2 25  1  0  0  0
  2 88  1  0  0  0
  2 89  1  0  0  0
  3  4  1  0  0  0
  3 90  1  0  0  0
  3 91  1  0  0  0
  4  5  1  0  0  0
  4 92  1  0  0  0
  4 93  1  0  0  0
  5  6  1  0  0  0
  5 26  1  0  0  0
  5 94  1  0  0  0
  6 25  1  0  0  0
  6 95  1  0  0  0
  6 96  1  0  0  0
  7  8  2  0  0  0
  7 26  1  0  0  0
  7 29  1  0  0  0
  8  9  1  0  0  0
  8 22  1  0  0  0
  9 10  1  0  0  0
  9 27  2  0  0  0
 10 11  2  0  0  0
 10 15  1  0  0  0
 11 12  1  0  0  0
 11 97  1  0  0  0
 12 13  2  0  0  0
 12 98  1  0  0  0
 13 14  1  0  0  0
 13 31  1  0  0  0
 14 15  2  0  0  0
 14 99  1  0  0  0
 15100  1  0  0  0
 16 17  2  0  0  0
 16 21  1  0  0  0
 16 31  1  0  0  0
 17 18  1  0  0  0
 17101  1  0  0  0
 18 19  2  0  0  0
 18102  1  0  0  0
 19 20  1  0  0  0
 19 24  1  0  0  0
 20 21  2  0  0  0
 20103  1  0  0  0
 21 23  1  0  0  0
 22 28  1  0  0  0
 22 32  2  0  0  0
 26 27  1  0  0  0
 28104  1  0  0  0
 28105  1  0  0  0
 29106  1  0  0  0
 29107  1  0  0  0
 33 34  1  0  0  0
 33 66  1  0  0  0
 33 70  2  0  0  0
 34 36  1  0  0  0
 34 59  1  0  0  0
 34108  1  0  0  0
 35 44  2  0  0  0
 35 45  1  0  0  0
 35 68  1  0  0  0
 36 56  1  0  0  0
 36109  1  0  0  0
 37 39  1  0  0  0
 37 47  1  0  0  0
 37 66  1  0  0  0
 37110  1  0  0  0
 38 43  2  0  0  0
 38 46  1  0  0  0
 38 47  1  0  0  0
 39 64  1  0  0  0
 39 67  2  0  0  0
 40 52  1  0  0  0
 40 53  2  0  0  0
 40 58  1  0  0  0
 41111  1  0  0  0
 41112  1  0  0  0
 41113  1  0  0  0
 41 48  1  0  0  0
 42 43  1  0  0  0
 42 66  1  0  0  0
 42114  1  0  0  0
 42115  1  0  0  0
 43 44  1  0  0  0
 44116  1  0  0  0
 45 46  2  0  0  0
 45117  1  0  0  0
 46118  1  0  0  0
 47119  1  0  0  0
 47120  1  0  0  0
 48 56  1  0  0  0
 48 65  1  0  0  0
 48121  1  0  0  0
 49 50  1  0  0  0
 49 53  1  0  0  0
 49 64  1  0  0  0
 49122  1  0  0  0
 50 51  1  0  0  0
 50123  1  0  0  0
 50124  1  0  0  0
 51 52  1  0  0  0
 51125  1  0  0  0
 51126  1  0  0  0
 52127  1  0  0  0
 52128  1  0  0  0
 53 54  1  0  0  0
 54 55  2  0  0  0
 54129  1  0  0  0
 55 57  1  0  0  0
 55130  1  0  0  0
 56 69  2  0  0  0
 57 58  2  0  0  0
 57131  1  0  0  0
 58132  1  0  0  0
 59 60  1  0  0  0
 59 61  1  0  0  0
 59 62  1  0  0  0
 60133  1  0  0  0
 60134  1  0  0  0
 60135  1  0  0  0
 61136  1  0  0  0
 61137  1  0  0  0
 61138  1  0  0  0
 62139  1  0  0  0
 62140  1  0  0  0
 62141  1  0  0  0
 63 65  1  0  0  0
 63142  1  0  0  0
 63143  1  0  0  0
 63144  1  0  0  0
 64145  1  0  0  0
 65146  1  0  0  0
 68 85  1  0  0  0
 71 72  2  0  0  0
 71 76  1  0  0  0
 71147  1  0  0  0
 72 74  1  0  0  0
 72 82  1  0  0  0
 73 74  2  0  0  0
 73 75  1  0  0  0
 73 83  1  0  0  0
 74 85  1  0  0  0
 75 76  2  0  0  0
 75 84  1  0  0  0
 76 87  1  0  0  0
 77 79  1  0  0  0
 77 81  1  0  0  0
 77148  1  0  0  0
 77149  1  0  0  0
 78 80  1  0  0  0
 78 81  1  0  0  0
 78150  1  0  0  0
 78151  1  0  0  0
 79 86  1  0  0  0
 79152  1  0  0  0
 79153  1  0  0  0
 80 86  1  0  0  0
 80154  1  0  0  0
 80155  1  0  0  0
 81 87  1  0  0  0
 81156  1  0  0  0
 82157  1  0  0  0
 82158  1  0  0  0
 82159  1  0  0  0
 83160  1  0  0  0
 83161  1  0  0  0
 83162  1  0  0  0
 84163  1  0  0  0
 84164  1  0  0  0
 84165  1  0  0  0
 85166  1  0  0  0
 85167  1  0  0  0
M  ISO  4   1 100  68 101  85 101  86 100
M  END
> <chiral flag>
0

> <version>
0

> <s_m_source_file>
/data/baiqing/PycharmProjects/Reinvent-master-3.2/result/LINK_invent/BTK/process_docking_weight1_custom_sum_contain_oxygen_bond_distance_aromatic_linkinvent_7_9_3/rearranged_h_0167.sdf

> <i_m_source_file_index>
33

> <r_mmod_Potential_Energy-OPLS-2005>
337.159545898438

> <r_mmod_Stretch_Energy-OPLS-2005>
83.0578765869141

> <r_mmod_Bend_Energy-OPLS-2005>
184.908721923828

> <r_mmod_Torsional_Energy-OPLS-2005>
340.225646972656

> <r_mmod_Improper_Torsional_Energy-OPLS-2005>
2.78233456611633

> <r_mmod_Van_der_Waal_Energy-OPLS-2005>
163.720733642578

> <r_mmod_Electrostatic_Energy-OPLS-2005>
-291.78955078125

> <r_mmod_Solvation_Energy-OPLS-2005>
-195.006057739258

> <b_mmod_Minimization_Converged-OPLS-2005>
0

> <r_mmod_RMS_Derivative-OPLS-2005>
1.82614016532898

$$$$
33
                    3D
 Structure written by MMmdl.
167176  0  0  1  0            999 V2000
  -30.6953  -14.7457   20.4847 C   0  0  0  0  0  0
  -30.3945  -12.4528   19.5049 C   0  0  0  0  0  0
  -29.4906  -12.4474   18.2551 C   0  0  0  0  0  0
  -28.0274  -12.2480   18.6770 C   0  0  0  0  0  0
  -27.6175  -13.2056   19.8206 C   0  0  2  0  0  0
  -28.6558  -13.2393   20.9673 C   0  0  0  0  0  0
  -25.2414  -13.8109   20.5654 C   0  0  0  0  0  0
  -24.1724  -13.0411   20.9217 C   0  0  0  0  0  0
  -24.6278  -11.6868   20.8784 C   0  0  0  0  0  0
  -23.8978  -10.4268   21.0439 C   0  0  0  0  0  0
  -24.3556   -9.4180   21.9195 C   0  0  0  0  0  0
  -23.6277   -8.2186   22.0756 C   0  0  0  0  0  0
  -22.4255   -8.0230   21.3526 C   0  0  0  0  0  0
  -21.9862   -9.0201   20.4632 C   0  0  0  0  0  0
  -22.7164  -10.2094   20.3053 C   0  0  0  0  0  0
  -21.6841   -6.0707   22.5289 C   0  0  0  0  0  0
  -21.4014   -6.5624   23.8221 C   0  0  0  0  0  0
  -21.3671   -5.6772   24.9184 C   0  0  0  0  0  0
  -21.6062   -4.3036   24.7230 C   0  0  0  0  0  0
  -21.8815   -3.8123   23.4347 C   0  0  0  0  0  0
  -21.9174   -4.6929   22.3398 C   0  0  0  0  0  0
  -22.7765  -13.5199   21.1929 C   0  0  0  0  0  0
  -22.1649   -4.2105   21.0981 F   0  0  0  0  0  0
  -21.5631   -3.4538   25.7755 F   0  0  0  0  0  0
  -29.9643  -13.5714   20.3868 N   0  0  0  0  0  0
  -26.2775  -12.9255   20.3146 N   0  0  0  0  0  0
  -25.9180  -11.6449   20.5763 N   0  0  0  0  0  0
  -22.0387  -12.8230   22.0491 N   0  0  0  0  0  0
  -25.4152  -15.1848   20.4115 N   0  0  0  0  0  0
  -31.8738  -14.7205   20.1173 O   0  0  0  0  0  0
  -21.6615   -6.8852   21.4248 O   0  0  0  0  0  0
  -22.3452  -14.5519   20.6771 O   0  0  0  0  0  0
  -24.6232  -31.8610   23.2006 C   0  0  0  0  0  0
  -25.9067  -32.4806   23.8338 C   0  0  1  0  0  0
  -27.2492  -27.3411   20.1236 C   0  0  0  0  0  0
  -25.5897  -33.8613   24.2265 N   0  0  0  0  0  0
  -23.4167  -30.4790   21.5458 C   0  0  2  0  0  0
  -24.8695  -28.9341   20.1149 C   0  0  0  0  0  0
  -22.7462  -29.4606   22.4980 C   0  0  0  0  0  0
  -18.0277  -28.1400   22.8484 C   0  0  0  0  0  0
  -24.1497  -36.7337   23.2628 C   0  0  0  0  0  0
  -25.9520  -30.8065   21.3581 C   0  0  0  0  0  0
  -26.0351  -29.4304   20.7095 C   0  0  0  0  0  0
  -27.2261  -28.6483   20.6986 C   0  0  0  0  0  0
  -26.0522  -26.8890   19.5152 C   0  0  0  0  0  0
  -24.8789  -27.6682   19.5087 C   0  0  0  0  0  0
  -23.6303  -29.8045   20.1642 C   0  0  0  0  0  0
  -25.4115  -36.3117   24.0320 C   0  0  1  0  0  0
  -20.5871  -28.3685   23.1333 C   0  0  2  0  0  0
  -20.6781  -26.9422   22.5437 C   0  0  0  0  0  0
  -19.5770  -26.6397   21.5227 C   0  0  0  0  0  0
  -18.1937  -26.7947   22.1619 C   0  0  0  0  0  0
  -19.1523  -28.8862   23.2907 C   0  0  0  0  0  0
  -18.9442  -30.1463   23.8922 C   0  0  0  0  0  0
  -17.6440  -30.6602   24.0573 C   0  0  0  0  0  0
  -25.9037  -34.9473   23.5095 C   0  0  0  0  0  0
  -16.5339  -29.9106   23.6322 C   0  0  0  0  0  0
  -16.7261  -28.6531   23.0326 C   0  0  0  0  0  0
  -26.4450  -31.6618   25.0704 C   0  0  0  0  0  0
  -25.3682  -31.3785   26.1440 C   0  0  0  0  0  0
  -27.0216  -30.3035   24.6098 C   0  0  0  0  0  0
  -27.6035  -32.4322   25.7472 C   0  0  0  0  0  0
  -27.5591  -37.1819   24.8442 C   0  0  0  0  0  0
  -21.4174  -29.3036   22.3738 N   0  0  0  0  0  0
  -26.4300  -37.3803   23.9399 N   0  0  0  0  0  0
  -24.6838  -31.0638   22.0942 N   0  0  0  0  0  0
  -23.4201  -28.8158   23.3059 O   0  0  0  0  0  0
  -28.3916  -26.5257   20.1848 O   0  0  0  0  0  0
  -26.5619  -34.8933   22.4670 O   0  0  0  0  0  0
  -23.5402  -32.1374   23.7362 O   0  0  0  0  0  0
  -31.8287  -23.5177   20.0564 C   0  0  0  0  0  0
  -30.8081  -24.4999   20.0963 C   0  0  0  0  0  0
  -31.4625  -22.1460   19.9658 C   0  0  0  0  0  0
  -29.4527  -24.0779   20.1395 C   0  0  0  0  0  0
  -30.1055  -21.7535   20.1118 C   0  0  0  0  0  0
  -31.0800  -18.4243   20.8143 C   0  0  0  0  0  0
  -28.7734  -18.0205   20.1338 C   0  0  0  0  0  0
  -31.0464  -17.0296   21.5469 C   0  0  0  0  0  0
  -28.8346  -16.5785   20.7961 C   0  0  0  0  0  0
  -29.7089  -19.1497   20.7061 C   0  0  0  0  0  0
  -33.3041  -23.9367   19.9778 C   0  0  0  0  0  0
  -31.1635  -25.9828   19.9649 C   0  0  0  0  0  0
  -32.5342  -21.1468   19.5498 C   0  0  0  0  0  0
  -28.2545  -25.0789   19.9098 C   0  0  0  0  0  0
  -29.1436  -22.7296   20.1997 N   0  0  0  0  0  0
  -30.1829  -15.9705   20.9398 N   0  0  0  0  0  0
  -29.6785  -20.4014   19.8527 N   0  0  0  0  0  0
  -31.4432  -12.5100   19.2157 H   0  0  0  0  0  0
  -30.3001  -11.5073   20.0426 H   0  0  0  0  0  0
  -29.7890  -11.6393   17.5851 H   0  0  0  0  0  0
  -29.5970  -13.3765   17.6943 H   0  0  0  0  0  0
  -27.9245  -11.2148   19.0159 H   0  0  0  0  0  0
  -27.3553  -12.3437   17.8229 H   0  0  0  0  0  0
  -27.5759  -14.1771   19.3375 H   0  0  0  0  0  0
  -28.6938  -12.2740   21.4746 H   0  0  0  0  0  0
  -28.3657  -13.9707   21.7211 H   0  0  0  0  0  0
  -25.2681   -9.5679   22.4784 H   0  0  0  0  0  0
  -23.9987   -7.4579   22.7469 H   0  0  0  0  0  0
  -21.0774   -8.8706   19.8963 H   0  0  0  0  0  0
  -22.3607  -10.9628   19.6172 H   0  0  0  0  0  0
  -21.2026   -7.6133   23.9732 H   0  0  0  0  0  0
  -21.1520   -6.0494   25.9095 H   0  0  0  0  0  0
  -22.0591   -2.7573   23.2843 H   0  0  0  0  0  0
  -22.3971  -11.9880   22.4895 H   0  0  0  0  0  0
  -21.1025  -13.1313   22.2739 H   0  0  0  0  0  0
  -24.6579  -15.8417   20.5641 H   0  0  0  0  0  0
  -26.2674  -15.6285   20.1004 H   0  0  0  0  0  0
  -26.7145  -32.5501   23.1104 H   0  0  0  0  0  0
  -25.0019  -33.9766   25.0395 H   0  0  0  0  0  0
  -22.7062  -31.2969   21.4004 H   0  0  0  0  0  0
  -23.3751  -35.9677   23.3268 H   0  0  0  0  0  0
  -24.3597  -36.8981   22.2046 H   0  0  0  0  0  0
  -23.7249  -37.6535   23.6663 H   0  0  0  0  0  0
  -26.0500  -31.5646   20.5801 H   0  0  0  0  0  0
  -26.8444  -30.8793   21.9676 H   0  0  0  0  0  0
  -28.1230  -29.0348   21.1625 H   0  0  0  0  0  0
  -25.9891  -25.9164   19.0532 H   0  0  0  0  0  0
  -23.9838  -27.2755   19.0455 H   0  0  0  0  0  0
  -23.7324  -30.5747   19.3992 H   0  0  0  0  0  0
  -22.7558  -29.2194   19.8750 H   0  0  0  0  0  0
  -25.1297  -36.1966   25.0815 H   0  0  0  0  0  0
  -20.9940  -28.3251   24.1465 H   0  0  0  0  0  0
  -20.5698  -26.2293   23.3621 H   0  0  0  0  0  0
  -21.6652  -26.7489   22.1221 H   0  0  0  0  0  0
  -19.6937  -25.6308   21.1265 H   0  0  0  0  0  0
  -19.6734  -27.3206   20.6758 H   0  0  0  0  0  0
  -17.4224  -26.6694   21.4004 H   0  0  0  0  0  0
  -18.0329  -26.0095   22.9016 H   0  0  0  0  0  0
  -19.7914  -30.7273   24.2315 H   0  0  0  0  0  0
  -17.4994  -31.6277   24.5172 H   0  0  0  0  0  0
  -15.5339  -30.3005   23.7645 H   0  0  0  0  0  0
  -15.8662  -28.0867   22.7001 H   0  0  0  0  0  0
  -24.5846  -30.7137   25.7786 H   0  0  0  0  0  0
  -24.8874  -32.2965   26.4839 H   0  0  0  0  0  0
  -25.7997  -30.8986   27.0230 H   0  0  0  0  0  0
  -26.2728  -29.6867   24.1105 H   0  0  0  0  0  0
  -27.3884  -29.7227   25.4570 H   0  0  0  0  0  0
  -27.8629  -30.4312   23.9277 H   0  0  0  0  0  0
  -27.2661  -33.3617   26.2069 H   0  0  0  0  0  0
  -28.3840  -32.6882   25.0296 H   0  0  0  0  0  0
  -28.0690  -31.8414   26.5368 H   0  0  0  0  0  0
  -28.2601  -38.0123   24.7505 H   0  0  0  0  0  0
  -28.1090  -36.2660   24.6236 H   0  0  0  0  0  0
  -27.2324  -37.1438   25.8847 H   0  0  0  0  0  0
  -20.9358  -29.8752   21.6940 H   0  0  0  0  0  0
  -26.0181  -38.2883   24.1401 H   0  0  0  0  0  0
  -31.4936  -18.2926   19.8145 H   0  0  0  0  0  0
  -31.7706  -19.0613   21.3655 H   0  0  0  0  0  0
  -27.7377  -18.3626   20.1613 H   0  0  0  0  0  0
  -28.9958  -17.8980   19.0737 H   0  0  0  0  0  0
  -30.6906  -17.2099   22.5622 H   0  0  0  0  0  0
  -32.0669  -16.6685   21.6771 H   0  0  0  0  0  0
  -28.2115  -15.9260   20.2023 H   0  0  0  0  0  0
  -28.3781  -16.6193   21.7868 H   0  0  0  0  0  0
  -29.3692  -19.4171   21.7093 H   0  0  0  0  0  0
  -33.5521  -24.7401   20.6730 H   0  0  0  0  0  0
  -33.5382  -24.2643   18.9629 H   0  0  0  0  0  0
  -33.9983  -23.1414   20.2420 H   0  0  0  0  0  0
  -32.2265  -26.1954   19.8866 H   0  0  0  0  0  0
  -30.7996  -26.5553   20.8182 H   0  0  0  0  0  0
  -30.7225  -26.3748   19.0489 H   0  0  0  0  0  0
  -33.2743  -21.6268   18.9040 H   0  0  0  0  0  0
  -32.1310  -20.3463   18.9344 H   0  0  0  0  0  0
  -33.0394  -20.7267   20.4200 H   0  0  0  0  0  0
  -27.3945  -24.6928   20.4576 H   0  0  0  0  0  0
  -28.0226  -24.9868   18.8481 H   0  0  0  0  0  0
  -29.7942  -20.1779   18.8708 H   0  0  0  0  0  0
  1 25  1  0  0  0
  1 30  2  0  0  0
  1 86  1  0  0  0
  2  3  1  0  0  0
  2 25  1  0  0  0
  2 88  1  0  0  0
  2 89  1  0  0  0
  3  4  1  0  0  0
  3 90  1  0  0  0
  3 91  1  0  0  0
  4  5  1  0  0  0
  4 92  1  0  0  0
  4 93  1  0  0  0
  5  6  1  0  0  0
  5 26  1  0  0  0
  5 94  1  0  0  0
  6 25  1  0  0  0
  6 95  1  0  0  0
  6 96  1  0  0  0
  7  8  2  0  0  0
  7 26  1  0  0  0
  7 29  1  0  0  0
  8  9  1  0  0  0
  8 22  1  0  0  0
  9 10  1  0  0  0
  9 27  2  0  0  0
 10 11  2  0  0  0
 10 15  1  0  0  0
 11 12  1  0  0  0
 11 97  1  0  0  0
 12 13  2  0  0  0
 12 98  1  0  0  0
 13 14  1  0  0  0
 13 31  1  0  0  0
 14 15  2  0  0  0
 14 99  1  0  0  0
 15100  1  0  0  0
 16 17  2  0  0  0
 16 21  1  0  0  0
 16 31  1  0  0  0
 17 18  1  0  0  0
 17101  1  0  0  0
 18 19  2  0  0  0
 18102  1  0  0  0
 19 20  1  0  0  0
 19 24  1  0  0  0
 20 21  2  0  0  0
 20103  1  0  0  0
 21 23  1  0  0  0
 22 28  1  0  0  0
 22 32  2  0  0  0
 26 27  1  0  0  0
 28104  1  0  0  0
 28105  1  0  0  0
 29106  1  0  0  0
 29107  1  0  0  0
 33 34  1  0  0  0
 33 66  1  0  0  0
 33 70  2  0  0  0
 34 36  1  0  0  0
 34 59  1  0  0  0
 34108  1  0  0  0
 35 44  2  0  0  0
 35 45  1  0  0  0
 35 68  1  0  0  0
 36 56  1  0  0  0
 36109  1  0  0  0
 37 39  1  0  0  0
 37 47  1  0  0  0
 37 66  1  0  0  0
 37110  1  0  0  0
 38 43  2  0  0  0
 38 46  1  0  0  0
 38 47  1  0  0  0
 39 64  1  0  0  0
 39 67  2  0  0  0
 40 52  1  0  0  0
 40 53  2  0  0  0
 40 58  1  0  0  0
 41111  1  0  0  0
 41112  1  0  0  0
 41113  1  0  0  0
 41 48  1  0  0  0
 42 43  1  0  0  0
 42 66  1  0  0  0
 42114  1  0  0  0
 42115  1  0  0  0
 43 44  1  0  0  0
 44116  1  0  0  0
 45 46  2  0  0  0
 45117  1  0  0  0
 46118  1  0  0  0
 47119  1  0  0  0
 47120  1  0  0  0
 48 56  1  0  0  0
 48 65  1  0  0  0
 48121  1  0  0  0
 49 50  1  0  0  0
 49 53  1  0  0  0
 49 64  1  0  0  0
 49122  1  0  0  0
 50 51  1  0  0  0
 50123  1  0  0  0
 50124  1  0  0  0
 51 52  1  0  0  0
 51125  1  0  0  0
 51126  1  0  0  0
 52127  1  0  0  0
 52128  1  0  0  0
 53 54  1  0  0  0
 54 55  2  0  0  0
 54129  1  0  0  0
 55 57  1  0  0  0
 55130  1  0  0  0
 56 69  2  0  0  0
 57 58  2  0  0  0
 57131  1  0  0  0
 58132  1  0  0  0
 59 60  1  0  0  0
 59 61  1  0  0  0
 59 62  1  0  0  0
 60133  1  0  0  0
 60134  1  0  0  0
 60135  1  0  0  0
 61136  1  0  0  0
 61137  1  0  0  0
 61138  1  0  0  0
 62139  1  0  0  0
 62140  1  0  0  0
 62141  1  0  0  0
 63 65  1  0  0  0
 63142  1  0  0  0
 63143  1  0  0  0
 63144  1  0  0  0
 64145  1  0  0  0
 65146  1  0  0  0
 68 84  1  0  0  0
 71 72  2  0  0  0
 71 73  1  0  0  0
 71 81  1  0  0  0
 72 74  1  0  0  0
 72 82  1  0  0  0
 73 75  2  0  0  0
 73 83  1  0  0  0
 74 84  1  0  0  0
 74 85  2  0  0  0
 75 85  1  0  0  0
 75 87  1  0  0  0
 76 78  1  0  0  0
 76 80  1  0  0  0
 76147  1  0  0  0
 76148  1  0  0  0
 77 79  1  0  0  0
 77 80  1  0  0  0
 77149  1  0  0  0
 77150  1  0  0  0
 78 86  1  0  0  0
 78151  1  0  0  0
 78152  1  0  0  0
 79 86  1  0  0  0
 79153  1  0  0  0
 79154  1  0  0  0
 80 87  1  0  0  0
 80155  1  0  0  0
 81156  1  0  0  0
 81157  1  0  0  0
 81158  1  0  0  0
 82159  1  0  0  0
 82160  1  0  0  0
 82161  1  0  0  0
 83162  1  0  0  0
 83163  1  0  0  0
 83164  1  0  0  0
 84165  1  0  0  0
 84166  1  0  0  0
 87167  1  0  0  0
M  ISO  4   1 100  68 101  84 101  86 100
M  END
> <chiral flag>
0

> <version>
0

> <s_m_source_file>
/data/baiqing/PycharmProjects/Reinvent-master-3.2/result/LINK_invent/BTK/process_docking_weight1_custom_sum_contain_oxygen_bond_distance_aromatic_linkinvent_7_9_3/rearranged_h_0167.sdf

> <i_m_source_file_index>
34

> <r_mmod_Potential_Energy-OPLS-2005>
177.304885864258

> <r_mmod_Stretch_Energy-OPLS-2005>
100.665374755859

> <r_mmod_Bend_Energy-OPLS-2005>
209.533630371094

> <r_mmod_Torsional_Energy-OPLS-2005>
346.337310791016

> <r_mmod_Improper_Torsional_Energy-OPLS-2005>
8.00712394714355

> <r_mmod_Van_der_Waal_Energy-OPLS-2005>
170.64045715332

> <r_mmod_Electrostatic_Energy-OPLS-2005>
-499.194580078125

> <r_mmod_Solvation_Energy-OPLS-2005>
-232.56315612793

> <b_mmod_Minimization_Converged-OPLS-2005>
0

> <r_mmod_RMS_Derivative-OPLS-2005>
6.18574380874634

$$$$
34
                    3D
 Structure written by MMmdl.
168177  0  0  1  0            999 V2000
  -30.6216  -14.9407   20.4145 C   0  0  0  0  0  0
  -30.4183  -12.5944   19.4883 C   0  0  0  0  0  0
  -29.5079  -12.5224   18.2455 C   0  0  0  0  0  0
  -28.0458  -12.3086   18.6713 C   0  0  0  0  0  0
  -27.6202  -13.2514   19.8271 C   0  0  2  0  0  0
  -28.6677  -13.3346   20.9583 C   0  0  0  0  0  0
  -25.2439  -13.8214   20.5740 C   0  0  0  0  0  0
  -24.1764  -13.0434   20.9240 C   0  0  0  0  0  0
  -24.6391  -11.6920   20.8769 C   0  0  0  0  0  0
  -23.9083  -10.4284   21.0406 C   0  0  0  0  0  0
  -24.3637   -9.4201   21.9179 C   0  0  0  0  0  0
  -23.6305   -8.2241   22.0754 C   0  0  0  0  0  0
  -22.4284   -8.0284   21.3548 C   0  0  0  0  0  0
  -21.9928   -9.0257   20.4646 C   0  0  0  0  0  0
  -22.7261  -10.2130   20.3048 C   0  0  0  0  0  0
  -21.6856   -6.0737   22.5277 C   0  0  0  0  0  0
  -21.4015   -6.5641   23.8209 C   0  0  0  0  0  0
  -21.3659   -5.6794   24.9168 C   0  0  0  0  0  0
  -21.6047   -4.3057   24.7222 C   0  0  0  0  0  0
  -21.8819   -3.8149   23.4341 C   0  0  0  0  0  0
  -21.9197   -4.6965   22.3397 C   0  0  0  0  0  0
  -22.7788  -13.5205   21.1887 C   0  0  0  0  0  0
  -22.1666   -4.2153   21.0973 F   0  0  0  0  0  0
  -21.5629   -3.4538   25.7731 F   0  0  0  0  0  0
  -29.9376  -13.7265   20.3362 N   0  0  0  0  0  0
  -26.2860  -12.9447   20.3252 N   0  0  0  0  0  0
  -25.9319  -11.6579   20.5754 N   0  0  0  0  0  0
  -22.0439  -12.8187   22.0440 N   0  0  0  0  0  0
  -25.4118  -15.1935   20.4170 N   0  0  0  0  0  0
  -31.8394  -14.8817   20.2115 O   0  0  0  0  0  0
  -21.6646   -6.8885   21.4240 O   0  0  0  0  0  0
  -22.3472  -14.5512   20.6727 O   0  0  0  0  0  0
  -24.6431  -31.8451   23.1910 C   0  0  0  0  0  0
  -25.9196  -32.4708   23.8297 C   0  0  1  0  0  0
  -27.2029  -27.1380   20.1452 C   0  0  0  0  0  0
  -25.5953  -33.8517   24.2210 N   0  0  0  0  0  0
  -23.4475  -30.4681   21.5355 C   0  0  2  0  0  0
  -24.8946  -28.9034   20.1050 C   0  0  0  0  0  0
  -22.7580  -29.4553   22.4847 C   0  0  0  0  0  0
  -18.0314  -28.1413   22.8488 C   0  0  0  0  0  0
  -24.1486  -36.7250   23.2641 C   0  0  0  0  0  0
  -26.0040  -30.7171   21.3930 C   0  0  0  0  0  0
  -26.0711  -29.3315   20.7322 C   0  0  0  0  0  0
  -27.2266  -28.4624   20.7407 C   0  0  0  0  0  0
  -26.0065  -26.8241   19.4598 C   0  0  0  0  0  0
  -24.8757  -27.6637   19.4529 C   0  0  0  0  0  0
  -23.6725  -29.8055   20.1516 C   0  0  0  0  0  0
  -25.4120  -36.3037   24.0318 C   0  0  1  0  0  0
  -20.5931  -28.3727   23.1244 C   0  0  2  0  0  0
  -20.6799  -26.9429   22.5413 C   0  0  0  0  0  0
  -19.5764  -26.6388   21.5232 C   0  0  0  0  0  0
  -18.1941  -26.7954   22.1633 C   0  0  0  0  0  0
  -19.1573  -28.8887   23.2859 C   0  0  0  0  0  0
  -18.9487  -30.1481   23.8884 C   0  0  0  0  0  0
  -17.6480  -30.6606   24.0567 C   0  0  0  0  0  0
  -25.9068  -34.9414   23.5067 C   0  0  0  0  0  0
  -16.5368  -29.9101   23.6350 C   0  0  0  0  0  0
  -16.7297  -28.6530   23.0354 C   0  0  0  0  0  0
  -26.4517  -31.6578   25.0737 C   0  0  0  0  0  0
  -25.3711  -31.3782   26.1435 C   0  0  0  0  0  0
  -27.0374  -30.2974   24.6319 C   0  0  0  0  0  0
  -27.6038  -32.4346   25.7530 C   0  0  0  0  0  0
  -27.5571  -37.1786   24.8467 C   0  0  0  0  0  0
  -21.4267  -29.3052   22.3615 N   0  0  0  0  0  0
  -26.4280  -37.3751   23.9411 N   0  0  0  0  0  0
  -24.7180  -31.0311   22.0947 N   0  0  0  0  0  0
  -23.4226  -28.8072   23.2971 O   0  0  0  0  0  0
  -28.2325  -26.1311   20.2376 O   0  0  0  0  0  0
  -26.5648  -34.8899   22.4640 O   0  0  0  0  0  0
  -23.5550  -32.1312   23.7136 O   0  0  0  0  0  0
  -31.0314  -20.3264   19.0309 C   0  0  0  0  0  0
  -29.6918  -22.2526   19.8832 C   0  0  0  0  0  0
  -29.9219  -20.7404   19.8149 C   0  0  0  0  0  0
  -31.9066  -21.2115   18.4010 C   0  0  0  0  0  0
  -30.7014  -23.0593   19.2462 C   0  0  0  0  0  0
  -28.8286  -18.4068   19.5061 C   0  0  0  0  0  0
  -30.1270  -18.8037   21.4471 C   0  0  0  0  0  0
  -28.7968  -16.8549   20.0236 C   0  0  0  0  0  0
  -30.8600  -17.4155   21.0610 C   0  0  0  0  0  0
  -33.0882  -20.7370   17.5806 C   0  0  0  0  0  0
  -30.7861  -24.5792   19.2815 C   0  0  0  0  0  0
  -28.8052  -23.3315   22.0892 C   0  0  0  0  0  0
  -27.9056  -24.6291   19.9861 C   0  0  0  0  0  0
  -28.5398  -23.1718   20.5839 C   0  0  1  0  0  0
  -31.7198  -22.5203   18.5546 N   0  3  0  0  0  0
  -29.3172  -19.5178   20.4097 N   0  0  0  0  0  0
  -30.0327  -16.2347   20.6195 N   0  0  0  0  0  0
  -31.4557  -12.7164   19.1739 H   0  0  0  0  0  0
  -30.3880  -11.6560   20.0441 H   0  0  0  0  0  0
  -29.8276  -11.7142   17.5867 H   0  0  0  0  0  0
  -29.5970  -13.4435   17.6674 H   0  0  0  0  0  0
  -27.9483  -11.2700   18.9894 H   0  0  0  0  0  0
  -27.3799  -12.4297   17.8154 H   0  0  0  0  0  0
  -27.5610  -14.2385   19.3743 H   0  0  0  0  0  0
  -28.7612  -12.3835   21.4843 H   0  0  0  0  0  0
  -28.3692  -14.0762   21.7017 H   0  0  0  0  0  0
  -25.2777   -9.5674   22.4760 H   0  0  0  0  0  0
  -24.0012   -7.4630   22.7468 H   0  0  0  0  0  0
  -21.0865   -8.8773   19.8948 H   0  0  0  0  0  0
  -22.3720  -10.9671   19.6161 H   0  0  0  0  0  0
  -21.2002   -7.6149   23.9716 H   0  0  0  0  0  0
  -21.1482   -6.0520   25.9075 H   0  0  0  0  0  0
  -22.0599   -2.7614   23.2834 H   0  0  0  0  0  0
  -22.4085  -11.9861   22.4824 H   0  0  0  0  0  0
  -21.1042  -13.1172   22.2617 H   0  0  0  0  0  0
  -24.6466  -15.8487   20.5320 H   0  0  0  0  0  0
  -26.2643  -15.6326   20.0974 H   0  0  0  0  0  0
  -26.7260  -32.5312   23.1022 H   0  0  0  0  0  0
  -25.0123  -33.9652   25.0375 H   0  0  0  0  0  0
  -22.7483  -31.2937   21.3867 H   0  0  0  0  0  0
  -23.3762  -35.9567   23.3288 H   0  0  0  0  0  0
  -24.3567  -36.8887   22.2057 H   0  0  0  0  0  0
  -23.7226  -37.6437   23.6683 H   0  0  0  0  0  0
  -26.1652  -31.4711   20.6211 H   0  0  0  0  0  0
  -26.8725  -30.7627   22.0385 H   0  0  0  0  0  0
  -28.1185  -28.7774   21.2649 H   0  0  0  0  0  0
  -25.9000  -25.8843   18.9390 H   0  0  0  0  0  0
  -23.9807  -27.3360   18.9413 H   0  0  0  0  0  0
  -23.8097  -30.5829   19.3982 H   0  0  0  0  0  0
  -22.7875  -29.2480   19.8407 H   0  0  0  0  0  0
  -25.1310  -36.1866   25.0812 H   0  0  0  0  0  0
  -21.0027  -28.3300   24.1360 H   0  0  0  0  0  0
  -20.5715  -26.2322   23.3623 H   0  0  0  0  0  0
  -21.6661  -26.7443   22.1191 H   0  0  0  0  0  0
  -19.6915  -25.6295   21.1271 H   0  0  0  0  0  0
  -19.6710  -27.3196   20.6761 H   0  0  0  0  0  0
  -17.4219  -26.6714   21.4026 H   0  0  0  0  0  0
  -18.0316  -26.0118   22.9045 H   0  0  0  0  0  0
  -19.7961  -30.7325   24.2224 H   0  0  0  0  0  0
  -17.5034  -31.6284   24.5179 H   0  0  0  0  0  0
  -15.5370  -30.2998   23.7700 H   0  0  0  0  0  0
  -15.8692  -28.0855   22.7062 H   0  0  0  0  0  0
  -24.5904  -30.7104   25.7773 H   0  0  0  0  0  0
  -24.8881  -32.2969   26.4780 H   0  0  0  0  0  0
  -25.8001  -30.9030   27.0265 H   0  0  0  0  0  0
  -26.2990  -29.6719   24.1294 H   0  0  0  0  0  0
  -27.3953  -29.7256   25.4888 H   0  0  0  0  0  0
  -27.8915  -30.4214   23.9661 H   0  0  0  0  0  0
  -27.2621  -33.3668   26.2050 H   0  0  0  0  0  0
  -28.3887  -32.6875   25.0389 H   0  0  0  0  0  0
  -28.0658  -31.8513   26.5503 H   0  0  0  0  0  0
  -28.2584  -38.0091   24.7511 H   0  0  0  0  0  0
  -28.1071  -36.2617   24.6292 H   0  0  0  0  0  0
  -27.2282  -37.1423   25.8868 H   0  0  0  0  0  0
  -20.9460  -29.8786   21.6820 H   0  0  0  0  0  0
  -26.0145  -38.2808   24.1436 H   0  0  0  0  0  0
  -31.2656  -19.2832   18.9097 H   0  0  0  0  0  0
  -27.8083  -18.6698   19.2230 H   0  0  0  0  0  0
  -29.3693  -18.4220   18.5595 H   0  0  0  0  0  0
  -30.8822  -19.4971   21.8249 H   0  0  0  0  0  0
  -29.4678  -18.6168   22.2957 H   0  0  0  0  0  0
  -28.4970  -16.2423   19.1736 H   0  0  0  0  0  0
  -28.0046  -16.7448   20.7633 H   0  0  0  0  0  0
  -31.4156  -17.0943   21.9436 H   0  0  0  0  0  0
  -31.6253  -17.5995   20.3067 H   0  0  0  0  0  0
  -32.8973  -19.7487   17.1628 H   0  0  0  0  0  0
  -33.9803  -20.6774   18.2041 H   0  0  0  0  0  0
  -33.2915  -21.4147   16.7513 H   0  0  0  0  0  0
  -30.0929  -25.0256   18.5689 H   0  0  0  0  0  0
  -31.7790  -24.9296   18.9978 H   0  0  0  0  0  0
  -30.6031  -24.9779   20.2782 H   0  0  0  0  0  0
  -28.9611  -22.3664   22.5709 H   0  0  0  0  0  0
  -27.9595  -23.8090   22.5856 H   0  0  0  0  0  0
  -29.6828  -23.9508   22.2778 H   0  0  0  0  0  0
  -26.8892  -24.5569   20.3724 H   0  0  0  0  0  0
  -27.7939  -24.5072   18.9083 H   0  0  0  0  0  0
  -27.6889  -22.4937   20.5138 H   0  0  0  0  0  0
  -32.3988  -23.1520   18.1259 H   0  0  0  0  0  0
  1 25  1  0  0  0
  1 30  2  0  0  0
  1 87  1  0  0  0
  2  3  1  0  0  0
  2 25  1  0  0  0
  2 88  1  0  0  0
  2 89  1  0  0  0
  3  4  1  0  0  0
  3 90  1  0  0  0
  3 91  1  0  0  0
  4  5  1  0  0  0
  4 92  1  0  0  0
  4 93  1  0  0  0
  5  6  1  0  0  0
  5 26  1  0  0  0
  5 94  1  0  0  0
  6 25  1  0  0  0
  6 95  1  0  0  0
  6 96  1  0  0  0
  7  8  2  0  0  0
  7 26  1  0  0  0
  7 29  1  0  0  0
  8  9  1  0  0  0
  8 22  1  0  0  0
  9 10  1  0  0  0
  9 27  2  0  0  0
 10 11  2  0  0  0
 10 15  1  0  0  0
 11 12  1  0  0  0
 11 97  1  0  0  0
 12 13  2  0  0  0
 12 98  1  0  0  0
 13 14  1  0  0  0
 13 31  1  0  0  0
 14 15  2  0  0  0
 14 99  1  0  0  0
 15100  1  0  0  0
 16 17  2  0  0  0
 16 21  1  0  0  0
 16 31  1  0  0  0
 17 18  1  0  0  0
 17101  1  0  0  0
 18 19  2  0  0  0
 18102  1  0  0  0
 19 20  1  0  0  0
 19 24  1  0  0  0
 20 21  2  0  0  0
 20103  1  0  0  0
 21 23  1  0  0  0
 22 28  1  0  0  0
 22 32  2  0  0  0
 26 27  1  0  0  0
 28104  1  0  0  0
 28105  1  0  0  0
 29106  1  0  0  0
 29107  1  0  0  0
 33 34  1  0  0  0
 33 66  1  0  0  0
 33 70  2  0  0  0
 34 36  1  0  0  0
 34 59  1  0  0  0
 34108  1  0  0  0
 35 44  2  0  0  0
 35 45  1  0  0  0
 35 68  1  0  0  0
 36 56  1  0  0  0
 36109  1  0  0  0
 37 39  1  0  0  0
 37 47  1  0  0  0
 37 66  1  0  0  0
 37110  1  0  0  0
 38 43  2  0  0  0
 38 46  1  0  0  0
 38 47  1  0  0  0
 39 64  1  0  0  0
 39 67  2  0  0  0
 40 52  1  0  0  0
 40 53  2  0  0  0
 40 58  1  0  0  0
 41111  1  0  0  0
 41112  1  0  0  0
 41113  1  0  0  0
 41 48  1  0  0  0
 42 43  1  0  0  0
 42 66  1  0  0  0
 42114  1  0  0  0
 42115  1  0  0  0
 43 44  1  0  0  0
 44116  1  0  0  0
 45 46  2  0  0  0
 45117  1  0  0  0
 46118  1  0  0  0
 47119  1  0  0  0
 47120  1  0  0  0
 48 56  1  0  0  0
 48 65  1  0  0  0
 48121  1  0  0  0
 49 50  1  0  0  0
 49 53  1  0  0  0
 49 64  1  0  0  0
 49122  1  0  0  0
 50 51  1  0  0  0
 50123  1  0  0  0
 50124  1  0  0  0
 51 52  1  0  0  0
 51125  1  0  0  0
 51126  1  0  0  0
 52127  1  0  0  0
 52128  1  0  0  0
 53 54  1  0  0  0
 54 55  2  0  0  0
 54129  1  0  0  0
 55 57  1  0  0  0
 55130  1  0  0  0
 56 69  2  0  0  0
 57 58  2  0  0  0
 57131  1  0  0  0
 58132  1  0  0  0
 59 60  1  0  0  0
 59 61  1  0  0  0
 59 62  1  0  0  0
 60133  1  0  0  0
 60134  1  0  0  0
 60135  1  0  0  0
 61136  1  0  0  0
 61137  1  0  0  0
 61138  1  0  0  0
 62139  1  0  0  0
 62140  1  0  0  0
 62141  1  0  0  0
 63 65  1  0  0  0
 63142  1  0  0  0
 63143  1  0  0  0
 63144  1  0  0  0
 64145  1  0  0  0
 65146  1  0  0  0
 68 83  1  0  0  0
 71 73  2  0  0  0
 71 74  1  0  0  0
 71147  1  0  0  0
 72 73  1  0  0  0
 72 75  2  0  0  0
 72 84  1  0  0  0
 73 86  1  0  0  0
 74 80  1  0  0  0
 74 85  2  0  0  0
 75 81  1  0  0  0
 75 85  1  0  0  0
 76 78  1  0  0  0
 76 86  1  0  0  0
 76148  1  0  0  0
 76149  1  0  0  0
 77 79  1  0  0  0
 77 86  1  0  0  0
 77150  1  0  0  0
 77151  1  0  0  0
 78 87  1  0  0  0
 78152  1  0  0  0
 78153  1  0  0  0
 79 87  1  0  0  0
 79154  1  0  0  0
 79155  1  0  0  0
 80156  1  0  0  0
 80157  1  0  0  0
 80158  1  0  0  0
 81159  1  0  0  0
 81160  1  0  0  0
 81161  1  0  0  0
 82162  1  0  0  0
 82163  1  0  0  0
 82164  1  0  0  0
 82 84  1  0  0  0
 83 84  1  0  0  0
 83165  1  0  0  0
 83166  1  0  0  0
 84167  1  0  0  0
 85168  1  0  0  0
M  CHG  1  85   1
M  ISO  4   1 100  68 101  83 101  87 100
M  END
> <chiral flag>
0

> <version>
0

> <s_m_source_file>
/data/baiqing/PycharmProjects/Reinvent-master-3.2/result/LINK_invent/BTK/process_docking_weight1_custom_sum_contain_oxygen_bond_distance_aromatic_linkinvent_7_9_3/rearranged_h_0167.sdf

> <i_m_source_file_index>
35

> <r_mmod_Potential_Energy-OPLS-2005>
748.191528320312

> <r_mmod_Stretch_Energy-OPLS-2005>
261.273468017578

> <r_mmod_Bend_Energy-OPLS-2005>
354.247619628906

> <r_mmod_Torsional_Energy-OPLS-2005>
371.454467773438

> <r_mmod_Improper_Torsional_Energy-OPLS-2005>
9.05102729797363

> <r_mmod_Van_der_Waal_Energy-OPLS-2005>
160.039947509766

> <r_mmod_Electrostatic_Energy-OPLS-2005>
-204.622055053711

> <r_mmod_Solvation_Energy-OPLS-2005>
-400.090209960938

> <b_mmod_Minimization_Converged-OPLS-2005>
0

> <r_mmod_RMS_Derivative-OPLS-2005>
2.18769407272339

$$$$
35
                    3D
 Structure written by MMmdl.
179189  0  0  1  0            999 V2000
  -30.7049  -14.4761   20.6910 C   0  0  0  0  0  0
  -30.4359  -12.3563   19.4212 C   0  0  0  0  0  0
  -29.4971  -12.5098   18.2049 C   0  0  0  0  0  0
  -28.0221  -12.3280   18.6143 C   0  0  0  0  0  0
  -27.6611  -13.1641   19.8660 C   0  0  2  0  0  0
  -28.7003  -12.9203   20.9902 C   0  0  0  0  0  0
  -25.2633  -13.8062   20.5609 C   0  0  0  0  0  0
  -24.1842  -13.0408   20.9139 C   0  0  0  0  0  0
  -24.6344  -11.6855   20.8722 C   0  0  0  0  0  0
  -23.9005  -10.4272   21.0419 C   0  0  0  0  0  0
  -24.3582   -9.4205   21.9199 C   0  0  0  0  0  0
  -23.6253   -8.2245   22.0773 C   0  0  0  0  0  0
  -22.4244   -8.0270   21.3549 C   0  0  0  0  0  0
  -21.9863   -9.0255   20.4668 C   0  0  0  0  0  0
  -22.7191  -10.2130   20.3064 C   0  0  0  0  0  0
  -21.6846   -6.0715   22.5279 C   0  0  0  0  0  0
  -21.4032   -6.5620   23.8218 C   0  0  0  0  0  0
  -21.3652   -5.6772   24.9170 C   0  0  0  0  0  0
  -21.6032   -4.3030   24.7228 C   0  0  0  0  0  0
  -21.8831   -3.8129   23.4348 C   0  0  0  0  0  0
  -21.9194   -4.6944   22.3402 C   0  0  0  0  0  0
  -22.7891  -13.5273   21.1776 C   0  0  0  0  0  0
  -22.1656   -4.2131   21.0980 F   0  0  0  0  0  0
  -21.5607   -3.4518   25.7746 F   0  0  0  0  0  0
  -30.0196  -13.3100   20.4712 N   0  0  0  0  0  0
  -26.3007  -12.9136   20.3266 N   0  0  0  0  0  0
  -25.9242  -11.6352   20.5712 N   0  0  0  0  0  0
  -22.0474  -12.8353   22.0352 N   0  0  0  0  0  0
  -25.4366  -15.1777   20.4029 N   0  0  0  0  0  0
  -31.7826  -14.6781   20.1148 O   0  0  0  0  0  0
  -21.6614   -6.8860   21.4237 O   0  0  0  0  0  0
  -22.3620  -14.5584   20.6582 O   0  0  0  0  0  0
  -24.6068  -31.8717   23.2116 C   0  0  0  0  0  0
  -25.8961  -32.4841   23.8371 C   0  0  1  0  0  0
  -27.2349  -27.4539   20.0967 C   0  0  0  0  0  0
  -25.5849  -33.8639   24.2301 N   0  0  0  0  0  0
  -23.3961  -30.4955   21.5508 C   0  0  2  0  0  0
  -24.8474  -28.9633   20.1206 C   0  0  0  0  0  0
  -22.7369  -29.4676   22.4997 C   0  0  0  0  0  0
  -18.0259  -28.1384   22.8481 C   0  0  0  0  0  0
  -24.1498  -36.7352   23.2654 C   0  0  0  0  0  0
  -25.9212  -30.8446   21.3607 C   0  0  0  0  0  0
  -26.0036  -29.4739   20.7227 C   0  0  0  0  0  0
  -27.2056  -28.7245   20.7212 C   0  0  0  0  0  0
  -26.0681  -26.9643   19.4822 C   0  0  0  0  0  0
  -24.8704  -27.7027   19.4994 C   0  0  0  0  0  0
  -23.6060  -29.8278   20.1666 C   0  0  0  0  0  0
  -25.4122  -36.3127   24.0336 C   0  0  1  0  0  0
  -20.5846  -28.3667   23.1319 C   0  0  2  0  0  0
  -20.6762  -26.9413   22.5428 C   0  0  0  0  0  0
  -19.5746  -26.6393   21.5227 C   0  0  0  0  0  0
  -18.1912  -26.7927   22.1617 C   0  0  0  0  0  0
  -19.1509  -28.8836   23.2897 C   0  0  0  0  0  0
  -18.9456  -30.1450   23.8901 C   0  0  0  0  0  0
  -17.6456  -30.6583   24.0580 C   0  0  0  0  0  0
  -25.9041  -34.9492   23.5118 C   0  0  0  0  0  0
  -16.5344  -29.9098   23.6337 C   0  0  0  0  0  0
  -16.7256  -28.6522   23.0331 C   0  0  0  0  0  0
  -26.4474  -31.6604   25.0666 C   0  0  0  0  0  0
  -25.3811  -31.3727   26.1495 C   0  0  0  0  0  0
  -27.0269  -30.3025   24.6008 C   0  0  0  0  0  0
  -27.6064  -32.4351   25.7333 C   0  0  0  0  0  0
  -27.5587  -37.1838   24.8478 C   0  0  0  0  0  0
  -21.4100  -29.3041   22.3721 N   0  0  0  0  0  0
  -26.4306  -37.3815   23.9424 N   0  0  0  0  0  0
  -24.6588  -31.0852   22.0988 N   0  0  0  0  0  0
  -23.4164  -28.8229   23.3032 O   0  0  0  0  0  0
  -28.3471  -26.6512   20.0087 O   0  0  0  0  0  0
  -26.5651  -34.8940   22.4710 O   0  0  0  0  0  0
  -23.5257  -32.1431   23.7538 O   0  0  0  0  0  0
  -28.3187  -22.7644   24.9261 C   0  0  0  0  0  0
  -29.0486  -21.2406   23.1527 C   0  0  0  0  0  0
  -27.9683  -20.3663   25.1578 C   0  0  0  0  0  0
  -28.9223  -22.5577   23.6704 C   0  0  0  0  0  0
  -27.8310  -21.6711   25.6662 C   0  0  0  0  0  0
  -28.5837  -20.1305   23.9083 C   0  0  0  0  0  0
  -29.0868  -24.1092   21.7093 C   0  0  0  0  0  0
  -29.4427  -23.7362   22.9457 C   0  0  0  0  0  0
  -28.8517  -17.4152   21.4730 C   0  0  0  0  0  0
  -30.6322  -17.3152   23.2600 C   0  0  0  0  0  0
  -31.1434  -25.2071   22.1212 C   0  0  0  0  0  0
  -28.8905  -15.8996   21.7501 C   0  0  0  0  0  0
  -31.2545  -16.2457   22.3192 C   0  0  0  0  0  0
  -30.6351  -24.5420   23.4174 C   0  0  1  0  0  0
  -29.6055  -18.2280   22.5438 C   0  0  0  0  0  0
  -29.9591  -25.2043   21.1209 C   0  0  1  0  0  0
  -27.1501  -21.8985   27.0038 C   0  0  0  0  0  0
  -30.2656  -25.5841   24.4882 C   0  0  0  0  0  0
  -30.4463  -24.8134   19.7103 C   0  0  0  0  0  0
  -29.2420  -26.5887   21.1125 C   0  0  0  0  0  0
  -30.2661  -15.3597   21.6491 N   0  0  0  0  0  0
  -28.6537  -18.7858   23.5033 N   0  0  0  0  0  0
  -31.4689  -12.5009   19.1029 H   0  0  0  0  0  0
  -30.4028  -11.3386   19.8097 H   0  0  0  0  0  0
  -29.7590  -11.7835   17.4333 H   0  0  0  0  0  0
  -29.6372  -13.4927   17.7538 H   0  0  0  0  0  0
  -27.8485  -11.2680   18.8112 H   0  0  0  0  0  0
  -27.3695  -12.5958   17.7811 H   0  0  0  0  0  0
  -27.7064  -14.1937   19.5233 H   0  0  0  0  0  0
  -28.7171  -11.8603   21.2484 H   0  0  0  0  0  0
  -28.4366  -13.4056   21.9290 H   0  0  0  0  0  0
  -25.2735   -9.5660   22.4771 H   0  0  0  0  0  0
  -23.9945   -7.4629   22.7512 H   0  0  0  0  0  0
  -21.0774   -8.8796   19.8985 H   0  0  0  0  0  0
  -22.3666  -10.9678   19.6168 H   0  0  0  0  0  0
  -21.2056   -7.6141   23.9718 H   0  0  0  0  0  0
  -21.1435   -6.0494   25.9069 H   0  0  0  0  0  0
  -22.0611   -2.7594   23.2851 H   0  0  0  0  0  0
  -22.4034  -12.0062   22.4860 H   0  0  0  0  0  0
  -21.1109  -13.1467   22.2490 H   0  0  0  0  0  0
  -24.6689  -15.8287   20.5267 H   0  0  0  0  0  0
  -26.2804  -15.6227   20.0662 H   0  0  0  0  0  0
  -26.7009  -32.5593   23.1126 H   0  0  0  0  0  0
  -24.9885  -33.9812   25.0355 H   0  0  0  0  0  0
  -22.6808  -31.3103   21.4127 H   0  0  0  0  0  0
  -23.3741  -35.9708   23.3346 H   0  0  0  0  0  0
  -24.3583  -36.8939   22.2064 H   0  0  0  0  0  0
  -23.7276  -37.6570   23.6664 H   0  0  0  0  0  0
  -26.0207  -31.6053   20.5852 H   0  0  0  0  0  0
  -26.8108  -30.9075   21.9723 H   0  0  0  0  0  0
  -28.0967  -29.1288   21.1797 H   0  0  0  0  0  0
  -26.0889  -25.9996   18.9946 H   0  0  0  0  0  0
  -23.9826  -27.3030   19.0309 H   0  0  0  0  0  0
  -23.7130  -30.6026   19.4066 H   0  0  0  0  0  0
  -22.7290  -29.2503   19.8678 H   0  0  0  0  0  0
  -25.1309  -36.1987   25.0828 H   0  0  0  0  0  0
  -20.9952  -28.3291   24.1439 H   0  0  0  0  0  0
  -20.5706  -26.2295   23.3629 H   0  0  0  0  0  0
  -21.6631  -26.7501   22.1215 H   0  0  0  0  0  0
  -19.6933  -25.6327   21.1219 H   0  0  0  0  0  0
  -19.6671  -27.3243   20.6794 H   0  0  0  0  0  0
  -17.4195  -26.6679   21.4006 H   0  0  0  0  0  0
  -18.0303  -26.0052   22.8994 H   0  0  0  0  0  0
  -19.7937  -30.7258   24.2261 H   0  0  0  0  0  0
  -17.5024  -31.6256   24.5209 H   0  0  0  0  0  0
  -15.5350  -30.3013   23.7653 H   0  0  0  0  0  0
  -15.8652  -28.0872   22.7027 H   0  0  0  0  0  0
  -24.6087  -30.6887   25.7980 H   0  0  0  0  0  0
  -24.8900  -32.2855   26.4862 H   0  0  0  0  0  0
  -25.8338  -30.9135   27.0292 H   0  0  0  0  0  0
  -26.2740  -29.6777   24.1204 H   0  0  0  0  0  0
  -27.4141  -29.7285   25.4444 H   0  0  0  0  0  0
  -27.8534  -30.4315   23.9011 H   0  0  0  0  0  0
  -27.2660  -33.3548   26.2118 H   0  0  0  0  0  0
  -28.3684  -32.7098   25.0029 H   0  0  0  0  0  0
  -28.1005  -31.8423   26.5040 H   0  0  0  0  0  0
  -28.2627  -38.0115   24.7498 H   0  0  0  0  0  0
  -28.1048  -36.2642   24.6332 H   0  0  0  0  0  0
  -27.2299  -37.1526   25.8879 H   0  0  0  0  0  0
  -20.9258  -29.8751   21.6936 H   0  0  0  0  0  0
  -26.0192  -38.2890   24.1426 H   0  0  0  0  0  0
  -28.2177  -23.7667   25.3166 H   0  0  0  0  0  0
  -29.4978  -21.1042   22.1799 H   0  0  0  0  0  0
  -27.5947  -19.5365   25.7439 H   0  0  0  0  0  0
  -28.3129  -23.6308   21.1231 H   0  0  0  0  0  0
  -27.8197  -17.7590   21.3688 H   0  0  0  0  0  0
  -29.3121  -17.5894   20.4985 H   0  0  0  0  0  0
  -31.4131  -17.9247   23.7167 H   0  0  0  0  0  0
  -30.1508  -16.7934   24.0901 H   0  0  0  0  0  0
  -31.9535  -24.5903   21.7270 H   0  0  0  0  0  0
  -31.5763  -26.1940   22.2834 H   0  0  0  0  0  0
  -28.1991  -15.4524   21.0580 H   0  0  0  0  0  0
  -28.4901  -15.6830   22.7434 H   0  0  0  0  0  0
  -31.9570  -15.6276   22.8788 H   0  0  0  0  0  0
  -31.8475  -16.7694   21.5663 H   0  0  0  0  0  0
  -31.4054  -23.8704   23.8012 H   0  0  0  0  0  0
  -30.1442  -19.0299   22.0382 H   0  0  0  0  0  0
  -27.5380  -22.7895   27.4985 H   0  0  0  0  0  0
  -27.3073  -21.0528   27.6731 H   0  0  0  0  0  0
  -26.0755  -22.0259   26.8664 H   0  0  0  0  0  0
  -29.3924  -26.1712   24.2045 H   0  0  0  0  0  0
  -31.0857  -26.2818   24.6591 H   0  0  0  0  0  0
  -30.0483  -25.1109   25.4447 H   0  0  0  0  0  0
  -30.9759  -23.8585   19.7168 H   0  0  0  0  0  0
  -31.1267  -25.5652   19.3070 H   0  0  0  0  0  0
  -29.6142  -24.7063   19.0117 H   0  0  0  0  0  0
  -29.9725  -27.3926   20.9983 H   0  0  0  0  0  0
  -28.7220  -26.7566   22.0564 H   0  0  0  0  0  0
  -28.1956  -18.1115   24.1089 H   0  0  0  0  0  0
  1 25  1  0  0  0
  1 30  2  0  0  0
  1 91  1  0  0  0
  2  3  1  0  0  0
  2 25  1  0  0  0
  2 93  1  0  0  0
  2 94  1  0  0  0
  3  4  1  0  0  0
  3 95  1  0  0  0
  3 96  1  0  0  0
  4  5  1  0  0  0
  4 97  1  0  0  0
  4 98  1  0  0  0
  5  6  1  0  0  0
  5 26  1  0  0  0
  5 99  1  0  0  0
  6 25  1  0  0  0
  6100  1  0  0  0
  6101  1  0  0  0
  7  8  2  0  0  0
  7 26  1  0  0  0
  7 29  1  0  0  0
  8  9  1  0  0  0
  8 22  1  0  0  0
  9 10  1  0  0  0
  9 27  2  0  0  0
 10 11  2  0  0  0
 10 15  1  0  0  0
 11 12  1  0  0  0
 11102  1  0  0  0
 12 13  2  0  0  0
 12103  1  0  0  0
 13 14  1  0  0  0
 13 31  1  0  0  0
 14 15  2  0  0  0
 14104  1  0  0  0
 15105  1  0  0  0
 16 17  2  0  0  0
 16 21  1  0  0  0
 16 31  1  0  0  0
 17 18  1  0  0  0
 17106  1  0  0  0
 18 19  2  0  0  0
 18107  1  0  0  0
 19 20  1  0  0  0
 19 24  1  0  0  0
 20 21  2  0  0  0
 20108  1  0  0  0
 21 23  1  0  0  0
 22 28  1  0  0  0
 22 32  2  0  0  0
 26 27  1  0  0  0
 28109  1  0  0  0
 28110  1  0  0  0
 29111  1  0  0  0
 29112  1  0  0  0
 33 34  1  0  0  0
 33 66  1  0  0  0
 33 70  2  0  0  0
 34 36  1  0  0  0
 34 59  1  0  0  0
 34113  1  0  0  0
 35 44  2  0  0  0
 35 45  1  0  0  0
 35 68  1  0  0  0
 36 56  1  0  0  0
 36114  1  0  0  0
 37 39  1  0  0  0
 37 47  1  0  0  0
 37 66  1  0  0  0
 37115  1  0  0  0
 38 43  2  0  0  0
 38 46  1  0  0  0
 38 47  1  0  0  0
 39 64  1  0  0  0
 39 67  2  0  0  0
 40 52  1  0  0  0
 40 53  2  0  0  0
 40 58  1  0  0  0
 41116  1  0  0  0
 41117  1  0  0  0
 41118  1  0  0  0
 41 48  1  0  0  0
 42 43  1  0  0  0
 42 66  1  0  0  0
 42119  1  0  0  0
 42120  1  0  0  0
 43 44  1  0  0  0
 44121  1  0  0  0
 45 46  2  0  0  0
 45122  1  0  0  0
 46123  1  0  0  0
 47124  1  0  0  0
 47125  1  0  0  0
 48 56  1  0  0  0
 48 65  1  0  0  0
 48126  1  0  0  0
 49 50  1  0  0  0
 49 53  1  0  0  0
 49 64  1  0  0  0
 49127  1  0  0  0
 50 51  1  0  0  0
 50128  1  0  0  0
 50129  1  0  0  0
 51 52  1  0  0  0
 51130  1  0  0  0
 51131  1  0  0  0
 52132  1  0  0  0
 52133  1  0  0  0
 53 54  1  0  0  0
 54 55  2  0  0  0
 54134  1  0  0  0
 55 57  1  0  0  0
 55135  1  0  0  0
 56 69  2  0  0  0
 57 58  2  0  0  0
 57136  1  0  0  0
 58137  1  0  0  0
 59 60  1  0  0  0
 59 61  1  0  0  0
 59 62  1  0  0  0
 60138  1  0  0  0
 60139  1  0  0  0
 60140  1  0  0  0
 61141  1  0  0  0
 61142  1  0  0  0
 61143  1  0  0  0
 62144  1  0  0  0
 62145  1  0  0  0
 62146  1  0  0  0
 63 65  1  0  0  0
 63147  1  0  0  0
 63148  1  0  0  0
 63149  1  0  0  0
 64150  1  0  0  0
 65151  1  0  0  0
 68 90  1  0  0  0
 71 74  2  0  0  0
 71 75  1  0  0  0
 71152  1  0  0  0
 72 74  1  0  0  0
 72 76  2  0  0  0
 72153  1  0  0  0
 73 75  2  0  0  0
 73 76  1  0  0  0
 73154  1  0  0  0
 74 78  1  0  0  0
 75 87  1  0  0  0
 76 92  1  0  0  0
 77 78  2  0  0  0
 77 86  1  0  0  0
 77155  1  0  0  0
 78 84  1  0  0  0
 79 82  1  0  0  0
 79 85  1  0  0  0
 79156  1  0  0  0
 79157  1  0  0  0
 80 83  1  0  0  0
 80 85  1  0  0  0
 80158  1  0  0  0
 80159  1  0  0  0
 81 84  1  0  0  0
 81 86  1  0  0  0
 81160  1  0  0  0
 81161  1  0  0  0
 82 91  1  0  0  0
 82162  1  0  0  0
 82163  1  0  0  0
 83 91  1  0  0  0
 83164  1  0  0  0
 83165  1  0  0  0
 84 88  1  0  0  0
 84166  1  0  0  0
 85 92  1  0  0  0
 85167  1  0  0  0
 86 89  1  0  0  0
 86 90  1  0  0  0
 87168  1  0  0  0
 87169  1  0  0  0
 87170  1  0  0  0
 88171  1  0  0  0
 88172  1  0  0  0
 88173  1  0  0  0
 89174  1  0  0  0
 89175  1  0  0  0
 89176  1  0  0  0
 90177  1  0  0  0
 90178  1  0  0  0
 92179  1  0  0  0
M  ISO  4   1 100  68 101  90 101  91 100
M  END
> <chiral flag>
0

> <version>
0

> <s_m_source_file>
/data/baiqing/PycharmProjects/Reinvent-master-3.2/result/LINK_invent/BTK/process_docking_weight1_custom_sum_contain_oxygen_bond_distance_aromatic_linkinvent_7_9_3/rearranged_h_0167.sdf

> <i_m_source_file_index>
36

> <r_mmod_Potential_Energy-OPLS-2005>
254.085357666016

> <r_mmod_Stretch_Energy-OPLS-2005>
45.1109466552734

> <r_mmod_Bend_Energy-OPLS-2005>
183.472152709961

> <r_mmod_Torsional_Energy-OPLS-2005>
348.679504394531

> <r_mmod_Improper_Torsional_Energy-OPLS-2005>
5.4672384262085

> <r_mmod_Van_der_Waal_Energy-OPLS-2005>
164.790740966797

> <r_mmod_Electrostatic_Energy-OPLS-2005>
-312.901519775391

> <r_mmod_Solvation_Energy-OPLS-2005>
-193.425308227539

> <b_mmod_Minimization_Converged-OPLS-2005>
0

> <r_mmod_RMS_Derivative-OPLS-2005>
4.25298023223877

$$$$
36
                    3D
 Structure written by MMmdl.
160169  0  0  1  0            999 V2000
  -30.3902  -15.3877   20.3480 C   0  0  0  0  0  0
  -30.4346  -12.8939   19.5378 C   0  0  0  0  0  0
  -29.5395  -12.6032   18.3037 C   0  0  0  0  0  0
  -28.0950  -12.3010   18.7335 C   0  0  0  0  0  0
  -27.6062  -13.2863   19.8222 C   0  0  2  0  0  0
  -28.6339  -13.5104   20.9544 C   0  0  0  0  0  0
  -25.2360  -13.8261   20.5767 C   0  0  0  0  0  0
  -24.1723  -13.0434   20.9263 C   0  0  0  0  0  0
  -24.6397  -11.6937   20.8758 C   0  0  0  0  0  0
  -23.9095  -10.4291   21.0399 C   0  0  0  0  0  0
  -24.3636   -9.4206   21.9182 C   0  0  0  0  0  0
  -23.6303   -8.2243   22.0754 C   0  0  0  0  0  0
  -22.4286   -8.0279   21.3542 C   0  0  0  0  0  0
  -21.9928   -9.0253   20.4642 C   0  0  0  0  0  0
  -22.7264  -10.2130   20.3048 C   0  0  0  0  0  0
  -21.6857   -6.0734   22.5279 C   0  0  0  0  0  0
  -21.4016   -6.5641   23.8210 C   0  0  0  0  0  0
  -21.3657   -5.6793   24.9172 C   0  0  0  0  0  0
  -21.6043   -4.3055   24.7227 C   0  0  0  0  0  0
  -21.8819   -3.8148   23.4347 C   0  0  0  0  0  0
  -21.9197   -4.6962   22.3402 C   0  0  0  0  0  0
  -22.7740  -13.5177   21.1906 C   0  0  0  0  0  0
  -22.1664   -4.2147   21.0980 F   0  0  0  0  0  0
  -21.5628   -3.4540   25.7740 F   0  0  0  0  0  0
  -29.8513  -14.0543   20.3242 N   0  0  0  0  0  0
  -26.2795  -12.9557   20.3229 N   0  0  0  0  0  0
  -25.9338  -11.6652   20.5715 N   0  0  0  0  0  0
  -22.0401  -12.8148   22.0453 N   0  0  0  0  0  0
  -25.3977  -15.1997   20.4216 N   0  0  0  0  0  0
  -31.6096  -15.3738   20.1144 O   0  0  0  0  0  0
  -21.6646   -6.8881   21.4240 O   0  0  0  0  0  0
  -22.3419  -14.5481   20.6749 O   0  0  0  0  0  0
  -24.6695  -31.8144   23.1647 C   0  0  0  0  0  0
  -25.9347  -32.4539   23.8130 C   0  0  1  0  0  0
  -27.2247  -26.8514   20.1876 C   0  0  0  0  0  0
  -25.5994  -33.8358   24.2030 N   0  0  0  0  0  0
  -23.4890  -30.4223   21.5131 C   0  0  2  0  0  0
  -24.9458  -28.7940   20.1101 C   0  0  0  0  0  0
  -22.7708  -29.4385   22.4744 C   0  0  0  0  0  0
  -18.0319  -28.1418   22.8450 C   0  0  0  0  0  0
  -24.1475  -36.7163   23.2653 C   0  0  0  0  0  0
  -26.0608  -30.5948   21.4081 C   0  0  0  0  0  0
  -26.1288  -29.1764   20.7534 C   0  0  0  0  0  0
  -27.2563  -28.2252   20.7715 C   0  0  0  0  0  0
  -26.0154  -26.6462   19.4828 C   0  0  0  0  0  0
  -24.9182  -27.5518   19.4552 C   0  0  0  0  0  0
  -23.7350  -29.7305   20.1417 C   0  0  0  0  0  0
  -25.4124  -36.2928   24.0290 C   0  0  1  0  0  0
  -20.5951  -28.3759   23.1158 C   0  0  2  0  0  0
  -20.6789  -26.9432   22.5389 C   0  0  0  0  0  0
  -19.5767  -26.6382   21.5193 C   0  0  0  0  0  0
  -18.1948  -26.7955   22.1596 C   0  0  0  0  0  0
  -19.1590  -28.8908   23.2790 C   0  0  0  0  0  0
  -18.9508  -30.1496   23.8834 C   0  0  0  0  0  0
  -17.6506  -30.6607   24.0554 C   0  0  0  0  0  0
  -25.9105  -34.9320   23.4983 C   0  0  0  0  0  0
  -16.5390  -29.9098   23.6359 C   0  0  0  0  0  0
  -16.7304  -28.6520   23.0370 C   0  0  0  0  0  0
  -26.4583  -31.6531   25.0701 C   0  0  0  0  0  0
  -25.3678  -31.3798   26.1332 C   0  0  0  0  0  0
  -27.0519  -30.2900   24.6497 C   0  0  0  0  0  0
  -27.6057  -32.4367   25.7511 C   0  0  0  0  0  0
  -27.5542  -37.1733   24.8474 C   0  0  0  0  0  0
  -21.4372  -29.3035   22.3508 N   0  0  0  0  0  0
  -26.4252  -37.3681   23.9420 N   0  0  0  0  0  0
  -24.7611  -30.9732   22.0819 N   0  0  0  0  0  0
  -23.4224  -28.7964   23.3020 O   0  0  0  0  0  0
  -28.2032  -25.7023   20.3140 O   0  0  0  0  0  0
  -26.5719  -34.8874   22.4585 O   0  0  0  0  0  0
  -23.5749  -32.1152   23.6692 O   0  0  0  0  0  0
  -28.9354  -21.0666   20.1267 C   0  0  0  0  0  0
  -29.3064  -19.8274   20.8992 C   0  0  0  0  0  0
  -28.6342  -22.5294   20.6207 C   0  0  0  0  0  0
  -29.3702  -20.0624   22.2884 C   0  0  0  0  0  0
  -28.7328  -22.5274   22.0461 C   0  0  0  0  0  0
  -29.1260  -21.3749   22.8291 C   0  0  0  0  0  0
  -28.9312  -20.4831   18.7112 C   0  0  0  0  0  0
  -29.1409  -18.8772   18.7623 C   0  0  0  0  0  0
  -29.7481  -18.3630   20.1204 C   0  0  2  0  0  0
  -29.7174  -18.8954   23.2065 C   0  0  0  0  0  0
  -28.3658  -23.8304   22.7623 C   0  0  0  0  0  0
  -29.3109  -21.5670   24.3381 C   0  0  0  0  0  0
  -28.0960  -24.0709   19.8822 C   0  0  0  0  0  0
  -29.6152  -16.6822   20.4369 N   0  0  0  0  0  0
  -31.4456  -13.1149   19.1944 H   0  0  0  0  0  0
  -30.5320  -12.0069   20.1660 H   0  0  0  0  0  0
  -29.9431  -11.7721   17.7237 H   0  0  0  0  0  0
  -29.5449  -13.4709   17.6427 H   0  0  0  0  0  0
  -28.0711  -11.2828   19.1232 H   0  0  0  0  0  0
  -27.4265  -12.3155   17.8718 H   0  0  0  0  0  0
  -27.5052  -14.2395   19.3020 H   0  0  0  0  0  0
  -28.8293  -12.5903   21.5075 H   0  0  0  0  0  0
  -28.2488  -14.2322   21.6762 H   0  0  0  0  0  0
  -25.2774   -9.5686   22.4765 H   0  0  0  0  0  0
  -24.0006   -7.4639   22.7480 H   0  0  0  0  0  0
  -21.0858   -8.8774   19.8948 H   0  0  0  0  0  0
  -22.3717  -10.9668   19.6158 H   0  0  0  0  0  0
  -21.2005   -7.6148   23.9712 H   0  0  0  0  0  0
  -21.1478   -6.0524   25.9075 H   0  0  0  0  0  0
  -22.0599   -2.7609   23.2850 H   0  0  0  0  0  0
  -22.4045  -11.9817   22.4828 H   0  0  0  0  0  0
  -21.1009  -13.1143   22.2652 H   0  0  0  0  0  0
  -24.6253  -15.8466   20.5378 H   0  0  0  0  0  0
  -26.2367  -15.6451   20.0755 H   0  0  0  0  0  0
  -26.7412  -32.5051   23.0830 H   0  0  0  0  0  0
  -25.0117  -33.9430   25.0165 H   0  0  0  0  0  0
  -22.8070  -31.2564   21.3343 H   0  0  0  0  0  0
  -23.3767  -35.9465   23.3283 H   0  0  0  0  0  0
  -24.3527  -36.8860   22.2072 H   0  0  0  0  0  0
  -23.7207  -37.6322   23.6748 H   0  0  0  0  0  0
  -26.2467  -31.3298   20.6240 H   0  0  0  0  0  0
  -26.9173  -30.6561   22.0674 H   0  0  0  0  0  0
  -28.1433  -28.5128   21.3191 H   0  0  0  0  0  0
  -25.8734  -25.7019   18.9789 H   0  0  0  0  0  0
  -24.0205  -27.2533   18.9318 H   0  0  0  0  0  0
  -23.8989  -30.4950   19.3816 H   0  0  0  0  0  0
  -22.8442  -29.1885   19.8191 H   0  0  0  0  0  0
  -25.1324  -36.1696   25.0777 H   0  0  0  0  0  0
  -21.0026  -28.3357   24.1286 H   0  0  0  0  0  0
  -20.5645  -26.2379   23.3639 H   0  0  0  0  0  0
  -21.6657  -26.7387   22.1212 H   0  0  0  0  0  0
  -19.6934  -25.6284   21.1252 H   0  0  0  0  0  0
  -19.6718  -27.3166   20.6704 H   0  0  0  0  0  0
  -17.4226  -26.6706   21.3992 H   0  0  0  0  0  0
  -18.0328  -26.0103   22.8996 H   0  0  0  0  0  0
  -19.7992  -30.7313   24.2187 H   0  0  0  0  0  0
  -17.5072  -31.6285   24.5167 H   0  0  0  0  0  0
  -15.5391  -30.2987   23.7744 H   0  0  0  0  0  0
  -15.8695  -28.0829   22.7127 H   0  0  0  0  0  0
  -24.5945  -30.7050   25.7641 H   0  0  0  0  0  0
  -24.8769  -32.2998   26.4518 H   0  0  0  0  0  0
  -25.7889  -30.9154   27.0260 H   0  0  0  0  0  0
  -26.3220  -29.6536   24.1490 H   0  0  0  0  0  0
  -27.4027  -29.7306   25.5179 H   0  0  0  0  0  0
  -27.9157  -30.4092   23.9957 H   0  0  0  0  0  0
  -27.2653  -33.3793   26.1811 H   0  0  0  0  0  0
  -28.4013  -32.6713   25.0427 H   0  0  0  0  0  0
  -28.0550  -31.8666   26.5654 H   0  0  0  0  0  0
  -28.2535  -38.0050   24.7518 H   0  0  0  0  0  0
  -28.1061  -36.2571   24.6313 H   0  0  0  0  0  0
  -27.2249  -37.1374   25.8875 H   0  0  0  0  0  0
  -20.9665  -29.8747   21.6630 H   0  0  0  0  0  0
  -26.0087  -38.2720   24.1489 H   0  0  0  0  0  0
  -29.7458  -20.9474   18.1556 H   0  0  0  0  0  0
  -28.0046  -20.7426   18.1976 H   0  0  0  0  0  0
  -29.6916  -18.5088   17.8964 H   0  0  0  0  0  0
  -28.1470  -18.4358   18.6867 H   0  0  0  0  0  0
  -30.8292  -18.4792   20.0339 H   0  0  0  0  0  0
  -29.6149  -17.9278   22.7230 H   0  0  0  0  0  0
  -29.0491  -18.8681   24.0674 H   0  0  0  0  0  0
  -30.7443  -18.9792   23.5630 H   0  0  0  0  0  0
  -27.4669  -24.2728   22.3343 H   0  0  0  0  0  0
  -29.1790  -24.5527   22.6830 H   0  0  0  0  0  0
  -28.1188  -23.7129   23.8148 H   0  0  0  0  0  0
  -29.9453  -20.8180   24.8072 H   0  0  0  0  0  0
  -28.3468  -21.5559   24.8474 H   0  0  0  0  0  0
  -29.8082  -22.5118   24.5558 H   0  0  0  0  0  0
  -27.0320  -23.9051   19.7183 H   0  0  0  0  0  0
  -28.5229  -24.0377   18.8798 H   0  0  0  0  0  0
  -28.6575  -16.4605   20.6648 H   0  0  0  0  0  0
  1 25  1  0  0  0
  1 30  2  0  0  0
  1 84  1  0  0  0
  2  3  1  0  0  0
  2 25  1  0  0  0
  2 85  1  0  0  0
  2 86  1  0  0  0
  3  4  1  0  0  0
  3 87  1  0  0  0
  3 88  1  0  0  0
  4  5  1  0  0  0
  4 89  1  0  0  0
  4 90  1  0  0  0
  5  6  1  0  0  0
  5 26  1  0  0  0
  5 91  1  0  0  0
  6 25  1  0  0  0
  6 92  1  0  0  0
  6 93  1  0  0  0
  7  8  2  0  0  0
  7 26  1  0  0  0
  7 29  1  0  0  0
  8  9  1  0  0  0
  8 22  1  0  0  0
  9 10  1  0  0  0
  9 27  2  0  0  0
 10 11  2  0  0  0
 10 15  1  0  0  0
 11 12  1  0  0  0
 11 94  1  0  0  0
 12 13  2  0  0  0
 12 95  1  0  0  0
 13 14  1  0  0  0
 13 31  1  0  0  0
 14 15  2  0  0  0
 14 96  1  0  0  0
 15 97  1  0  0  0
 16 17  2  0  0  0
 16 21  1  0  0  0
 16 31  1  0  0  0
 17 18  1  0  0  0
 17 98  1  0  0  0
 18 19  2  0  0  0
 18 99  1  0  0  0
 19 20  1  0  0  0
 19 24  1  0  0  0
 20 21  2  0  0  0
 20100  1  0  0  0
 21 23  1  0  0  0
 22 28  1  0  0  0
 22 32  2  0  0  0
 26 27  1  0  0  0
 28101  1  0  0  0
 28102  1  0  0  0
 29103  1  0  0  0
 29104  1  0  0  0
 33 34  1  0  0  0
 33 66  1  0  0  0
 33 70  2  0  0  0
 34 36  1  0  0  0
 34 59  1  0  0  0
 34105  1  0  0  0
 35 44  2  0  0  0
 35 45  1  0  0  0
 35 68  1  0  0  0
 36 56  1  0  0  0
 36106  1  0  0  0
 37 39  1  0  0  0
 37 47  1  0  0  0
 37 66  1  0  0  0
 37107  1  0  0  0
 38 43  2  0  0  0
 38 46  1  0  0  0
 38 47  1  0  0  0
 39 64  1  0  0  0
 39 67  2  0  0  0
 40 52  1  0  0  0
 40 53  2  0  0  0
 40 58  1  0  0  0
 41108  1  0  0  0
 41109  1  0  0  0
 41110  1  0  0  0
 41 48  1  0  0  0
 42 43  1  0  0  0
 42 66  1  0  0  0
 42111  1  0  0  0
 42112  1  0  0  0
 43 44  1  0  0  0
 44113  1  0  0  0
 45 46  2  0  0  0
 45114  1  0  0  0
 46115  1  0  0  0
 47116  1  0  0  0
 47117  1  0  0  0
 48 56  1  0  0  0
 48 65  1  0  0  0
 48118  1  0  0  0
 49 50  1  0  0  0
 49 53  1  0  0  0
 49 64  1  0  0  0
 49119  1  0  0  0
 50 51  1  0  0  0
 50120  1  0  0  0
 50121  1  0  0  0
 51 52  1  0  0  0
 51122  1  0  0  0
 51123  1  0  0  0
 52124  1  0  0  0
 52125  1  0  0  0
 53 54  1  0  0  0
 54 55  2  0  0  0
 54126  1  0  0  0
 55 57  1  0  0  0
 55127  1  0  0  0
 56 69  2  0  0  0
 57 58  2  0  0  0
 57128  1  0  0  0
 58129  1  0  0  0
 59 60  1  0  0  0
 59 61  1  0  0  0
 59 62  1  0  0  0
 60130  1  0  0  0
 60131  1  0  0  0
 60132  1  0  0  0
 61133  1  0  0  0
 61134  1  0  0  0
 61135  1  0  0  0
 62136  1  0  0  0
 62137  1  0  0  0
 62138  1  0  0  0
 63 65  1  0  0  0
 63139  1  0  0  0
 63140  1  0  0  0
 63141  1  0  0  0
 64142  1  0  0  0
 65143  1  0  0  0
 68 83  1  0  0  0
 71 72  1  0  0  0
 71 73  2  0  0  0
 71 77  1  0  0  0
 72 74  2  0  0  0
 72 79  1  0  0  0
 73 75  1  0  0  0
 73 83  1  0  0  0
 74 76  1  0  0  0
 74 80  1  0  0  0
 75 76  2  0  0  0
 75 81  1  0  0  0
 76 82  1  0  0  0
 77 78  1  0  0  0
 77144  1  0  0  0
 77145  1  0  0  0
 78 79  1  0  0  0
 78146  1  0  0  0
 78147  1  0  0  0
 79 84  1  0  0  0
 79148  1  0  0  0
 80149  1  0  0  0
 80150  1  0  0  0
 80151  1  0  0  0
 81152  1  0  0  0
 81153  1  0  0  0
 81154  1  0  0  0
 82155  1  0  0  0
 82156  1  0  0  0
 82157  1  0  0  0
 83158  1  0  0  0
 83159  1  0  0  0
 84160  1  0  0  0
M  ISO  4   1 100  68 101  83 101  84 100
M  END
> <chiral flag>
0

> <version>
0

> <s_m_source_file>
/data/baiqing/PycharmProjects/Reinvent-master-3.2/result/LINK_invent/BTK/process_docking_weight1_custom_sum_contain_oxygen_bond_distance_aromatic_linkinvent_7_9_3/rearranged_h_0167.sdf

> <i_m_source_file_index>
37

> <r_mmod_Potential_Energy-OPLS-2005>
1544.42004394531

> <r_mmod_Stretch_Energy-OPLS-2005>
674.851013183594

> <r_mmod_Bend_Energy-OPLS-2005>
532.330383300781

> <r_mmod_Torsional_Energy-OPLS-2005>
222.092727661133

> <r_mmod_Improper_Torsional_Energy-OPLS-2005>
5.02440071105957

> <r_mmod_Van_der_Waal_Energy-OPLS-2005>
137.619140625

> <r_mmod_Electrostatic_Energy-OPLS-2005>
-409.490142822266

> <r_mmod_Solvation_Energy-OPLS-2005>
-210.416168212891

> <b_mmod_Minimization_Converged-OPLS-2005>
0

> <r_mmod_RMS_Derivative-OPLS-2005>
1.0869699716568

$$$$
37
                    3D
 Structure written by MMmdl.
168179  0  0  1  0            999 V2000
  -30.4215  -15.2475   20.5144 C   0  0  0  0  0  0
  -30.4572  -12.8590   19.5031 C   0  0  0  0  0  0
  -29.5178  -12.6586   18.2791 C   0  0  0  0  0  0
  -28.0600  -12.3787   18.6838 C   0  0  0  0  0  0
  -27.6261  -13.2570   19.8690 C   0  0  2  0  0  0
  -28.6730  -13.2495   20.9872 C   0  0  0  0  0  0
  -25.2432  -13.8206   20.5742 C   0  0  0  0  0  0
  -24.1782  -13.0377   20.9301 C   0  0  0  0  0  0
  -24.6487  -11.6918   20.8933 C   0  0  0  0  0  0
  -23.9231  -10.4287   21.0558 C   0  0  0  0  0  0
  -24.3773   -9.4161   21.9272 C   0  0  0  0  0  0
  -23.6391   -8.2210   22.0741 C   0  0  0  0  0  0
  -22.4350   -8.0344   21.3535 C   0  0  0  0  0  0
  -22.0094   -9.0367   20.4643 C   0  0  0  0  0  0
  -22.7459  -10.2222   20.3129 C   0  0  0  0  0  0
  -21.6863   -6.0834   22.5247 C   0  0  0  0  0  0
  -21.4037   -6.5721   23.8202 C   0  0  0  0  0  0
  -21.3636   -5.6837   24.9151 C   0  0  0  0  0  0
  -21.6025   -4.3100   24.7173 C   0  0  0  0  0  0
  -21.8815   -3.8228   23.4282 C   0  0  0  0  0  0
  -21.9217   -4.7072   22.3363 C   0  0  0  0  0  0
  -22.7813  -13.5221   21.1814 C   0  0  0  0  0  0
  -22.1679   -4.2275   21.0932 F   0  0  0  0  0  0
  -21.5617   -3.4551   25.7673 F   0  0  0  0  0  0
  -29.8829  -13.9170   20.4155 N   0  0  0  0  0  0
  -26.2889  -12.9419   20.3476 N   0  0  0  0  0  0
  -25.9425  -11.6553   20.5931 N   0  0  0  0  0  0
  -22.0475  -12.8219   22.0418 N   0  0  0  0  0  0
  -25.3987  -15.1892   20.4080 N   0  0  0  0  0  0
  -31.6127  -15.3016   20.1669 O   0  0  0  0  0  0
  -21.6638   -6.8984   21.4215 O   0  0  0  0  0  0
  -22.3498  -14.5456   20.6581 O   0  0  0  0  0  0
  -24.6588  -31.8269   23.1809 C   0  0  0  0  0  0
  -25.9319  -32.4605   23.8210 C   0  0  1  0  0  0
  -27.2161  -26.9501   20.2064 C   0  0  0  0  0  0
  -25.6007  -33.8403   24.2122 N   0  0  0  0  0  0
  -23.4731  -30.4501   21.5228 C   0  0  2  0  0  0
  -24.9261  -28.8538   20.1165 C   0  0  0  0  0  0
  -22.7640  -29.4469   22.4727 C   0  0  0  0  0  0
  -18.0328  -28.1367   22.8483 C   0  0  0  0  0  0
  -24.1476  -36.7203   23.2634 C   0  0  0  0  0  0
  -26.0454  -30.6553   21.4023 C   0  0  0  0  0  0
  -26.1167  -29.2500   20.7415 C   0  0  0  0  0  0
  -27.2567  -28.3251   20.7533 C   0  0  0  0  0  0
  -25.9742  -26.7025   19.5698 C   0  0  0  0  0  0
  -24.8807  -27.5927   19.5119 C   0  0  0  0  0  0
  -23.7240  -29.7886   20.1423 C   0  0  0  0  0  0
  -25.4103  -36.2951   24.0295 C   0  0  1  0  0  0
  -20.5950  -28.3714   23.1187 C   0  0  2  0  0  0
  -20.6774  -26.9393   22.5396 C   0  0  0  0  0  0
  -19.5746  -26.6350   21.5200 C   0  0  0  0  0  0
  -18.1950  -26.7905   22.1626 C   0  0  0  0  0  0
  -19.1588  -28.8851   23.2833 C   0  0  0  0  0  0
  -18.9497  -30.1443   23.8866 C   0  0  0  0  0  0
  -17.6490  -30.6562   24.0543 C   0  0  0  0  0  0
  -25.9066  -34.9345   23.5013 C   0  0  0  0  0  0
  -16.5390  -29.9069   23.6309 C   0  0  0  0  0  0
  -16.7306  -28.6478   23.0348 C   0  0  0  0  0  0
  -26.4582  -31.6497   25.0679 C   0  0  0  0  0  0
  -25.3779  -31.3788   26.1397 C   0  0  0  0  0  0
  -27.0438  -30.2862   24.6382 C   0  0  0  0  0  0
  -27.6091  -32.4234   25.7527 C   0  0  0  0  0  0
  -27.5558  -37.1753   24.8465 C   0  0  0  0  0  0
  -21.4296  -29.3035   22.3512 N   0  0  0  0  0  0
  -26.4242  -37.3694   23.9431 N   0  0  0  0  0  0
  -24.7466  -31.0014   22.0911 N   0  0  0  0  0  0
  -23.4218  -28.7965   23.2895 O   0  0  0  0  0  0
  -28.2371  -25.8603   20.2974 O   0  0  0  0  0  0
  -26.5640  -34.8894   22.4584 O   0  0  0  0  0  0
  -23.5661  -32.1160   23.6930 O   0  0  0  0  0  0
  -28.7842  -17.1456   23.0025 C   0  0  0  0  0  0
  -29.0812  -18.4577   22.3476 C   0  0  0  0  0  0
  -25.7922  -22.3176   19.7154 C   0  0  0  0  0  0
  -27.9084  -21.3165   18.8470 C   0  0  0  0  0  0
  -27.3826  -21.1832   21.2971 C   0  0  0  0  0  0
  -27.6150  -23.8717   18.7841 C   0  0  0  0  0  0
  -26.9672  -23.8419   21.2933 C   0  0  0  0  0  0
  -29.1079  -22.8382   20.4679 C   0  0  0  0  0  0
  -28.6205  -16.1925   21.8495 C   0  0  0  0  0  0
  -26.9176  -22.4912   18.6779 C   0  0  2  0  0  0
  -26.4001  -22.3944   21.1189 C   0  0  1  0  0  0
  -29.8060  -18.1530   21.0266 C   0  0  1  0  0  0
  -28.5536  -21.1945   20.2702 C   0  0  2  0  0  0
  -28.0417  -24.2157   20.2314 C   0  0  1  0  0  0
  -29.3356  -19.5679   20.0749 C   0  0  0  0  0  0
  -29.6344  -16.4842   20.8283 N   0  0  0  0  0  0
  -31.4330  -13.1696   19.1302 H   0  0  0  0  0  0
  -30.6356  -11.9294   20.0454 H   0  0  0  0  0  0
  -29.8961  -11.8684   17.6321 H   0  0  0  0  0  0
  -29.5213  -13.5679   17.6772 H   0  0  0  0  0  0
  -27.9712  -11.3284   18.9575 H   0  0  0  0  0  0
  -27.3927  -12.5575   17.8410 H   0  0  0  0  0  0
  -27.5768  -14.2716   19.4763 H   0  0  0  0  0  0
  -28.9276  -12.2444   21.3180 H   0  0  0  0  0  0
  -28.1776  -13.6206   21.8775 H   0  0  0  0  0  0
  -25.2930   -9.5556   22.4869 H   0  0  0  0  0  0
  -24.0102   -7.4547   22.7375 H   0  0  0  0  0  0
  -21.1085   -8.8987   19.8862 H   0  0  0  0  0  0
  -22.4042  -10.9851   19.6268 H   0  0  0  0  0  0
  -21.2025   -7.6220   23.9750 H   0  0  0  0  0  0
  -21.1448   -6.0545   25.9057 H   0  0  0  0  0  0
  -22.0621   -2.7700   23.2711 H   0  0  0  0  0  0
  -22.4189  -12.0081   22.5061 H   0  0  0  0  0  0
  -21.0961  -13.1056   22.2261 H   0  0  0  0  0  0
  -24.6299  -15.8387   20.5195 H   0  0  0  0  0  0
  -26.2625  -15.6487   20.1528 H   0  0  0  0  0  0
  -26.7375  -32.5179   23.0913 H   0  0  0  0  0  0
  -25.0206  -33.9475   25.0311 H   0  0  0  0  0  0
  -22.7805  -31.2760   21.3505 H   0  0  0  0  0  0
  -23.3729  -35.9545   23.3250 H   0  0  0  0  0  0
  -24.3589  -36.8878   22.2063 H   0  0  0  0  0  0
  -23.7222  -37.6374   23.6713 H   0  0  0  0  0  0
  -26.2207  -31.4066   20.6309 H   0  0  0  0  0  0
  -26.9037  -30.7063   22.0589 H   0  0  0  0  0  0
  -28.1594  -28.6343   21.2617 H   0  0  0  0  0  0
  -25.7406  -25.7389   19.1740 H   0  0  0  0  0  0
  -23.9695  -27.2495   19.0385 H   0  0  0  0  0  0
  -23.9241  -30.5642   19.4011 H   0  0  0  0  0  0
  -22.8276  -29.2751   19.7914 H   0  0  0  0  0  0
  -25.1295  -36.1722   25.0776 H   0  0  0  0  0  0
  -21.0088  -28.3314   24.1282 H   0  0  0  0  0  0
  -20.5576  -26.2334   23.3628 H   0  0  0  0  0  0
  -21.6650  -26.7308   22.1236 H   0  0  0  0  0  0
  -19.6893  -25.6256   21.1229 H   0  0  0  0  0  0
  -19.6668  -27.3146   20.6722 H   0  0  0  0  0  0
  -17.4199  -26.6641   21.4056 H   0  0  0  0  0  0
  -18.0366  -26.0054   22.9025 H   0  0  0  0  0  0
  -19.7976  -30.7262   24.2232 H   0  0  0  0  0  0
  -17.5044  -31.6252   24.5130 H   0  0  0  0  0  0
  -15.5376  -30.2950   23.7631 H   0  0  0  0  0  0
  -15.8712  -28.0773   22.7069 H   0  0  0  0  0  0
  -24.6035  -30.6970   25.7868 H   0  0  0  0  0  0
  -24.8869  -32.2992   26.4585 H   0  0  0  0  0  0
  -25.8134  -30.9230   27.0307 H   0  0  0  0  0  0
  -26.3101  -29.6555   24.1347 H   0  0  0  0  0  0
  -27.3928  -29.7213   25.5030 H   0  0  0  0  0  0
  -27.9072  -30.4006   23.9828 H   0  0  0  0  0  0
  -27.2723  -33.3634   26.1945 H   0  0  0  0  0  0
  -28.4120  -32.6587   25.0519 H   0  0  0  0  0  0
  -28.0517  -31.8381   26.5607 H   0  0  0  0  0  0
  -28.2535  -38.0078   24.7498 H   0  0  0  0  0  0
  -28.1097  -36.2602   24.6294 H   0  0  0  0  0  0
  -27.2320  -37.1432   25.8882 H   0  0  0  0  0  0
  -20.9475  -29.8846   21.6788 H   0  0  0  0  0  0
  -26.0068  -38.2738   24.1468 H   0  0  0  0  0  0
  -27.8889  -17.1685   23.6273 H   0  0  0  0  0  0
  -29.6236  -16.8184   23.6179 H   0  0  0  0  0  0
  -29.5916  -19.1907   22.9821 H   0  0  0  0  0  0
  -28.0977  -18.8579   22.1341 H   0  0  0  0  0  0
  -25.3116  -21.3465   19.5829 H   0  0  0  0  0  0
  -25.0150  -23.0712   19.5846 H   0  0  0  0  0  0
  -28.6979  -21.3725   18.0917 H   0  0  0  0  0  0
  -27.3253  -20.4271   18.5987 H   0  0  0  0  0  0
  -26.7983  -20.2707   21.1612 H   0  0  0  0  0  0
  -27.7553  -21.1298   22.3235 H   0  0  0  0  0  0
  -27.0297  -24.6214   18.2737 H   0  0  0  0  0  0
  -28.5148  -23.8646   18.1745 H   0  0  0  0  0  0
  -27.3899  -23.9704   22.2919 H   0  0  0  0  0  0
  -26.1263  -24.5324   21.2451 H   0  0  0  0  0  0
  -29.9776  -22.9434   19.8236 H   0  0  0  0  0  0
  -29.5041  -22.9226   21.4824 H   0  0  0  0  0  0
  -27.6056  -16.1769   21.4416 H   0  0  0  0  0  0
  -28.8350  -15.2968   22.4025 H   0  0  0  0  0  0
  -26.4785  -22.4327   17.6818 H   0  0  0  0  0  0
  -25.6072  -22.2635   21.8566 H   0  0  0  0  0  0
  -30.8772  -18.2683   21.2160 H   0  0  0  0  0  0
  -28.5811  -19.0458   19.4945 H   0  0  0  0  0  0
  -30.1402  -19.7277   19.3549 H   0  0  0  0  0  0
  1 25  1  0  0  0
  1 30  2  0  0  0
  1 86  1  0  0  0
  2  3  1  0  0  0
  2 25  1  0  0  0
  2 87  1  0  0  0
  2 88  1  0  0  0
  3  4  1  0  0  0
  3 89  1  0  0  0
  3 90  1  0  0  0
  4  5  1  0  0  0
  4 91  1  0  0  0
  4 92  1  0  0  0
  5  6  1  0  0  0
  5 26  1  0  0  0
  5 93  1  0  0  0
  6 25  1  0  0  0
  6 94  1  0  0  0
  6 95  1  0  0  0
  7  8  2  0  0  0
  7 26  1  0  0  0
  7 29  1  0  0  0
  8  9  1  0  0  0
  8 22  1  0  0  0
  9 10  1  0  0  0
  9 27  2  0  0  0
 10 11  2  0  0  0
 10 15  1  0  0  0
 11 12  1  0  0  0
 11 96  1  0  0  0
 12 13  2  0  0  0
 12 97  1  0  0  0
 13 14  1  0  0  0
 13 31  1  0  0  0
 14 15  2  0  0  0
 14 98  1  0  0  0
 15 99  1  0  0  0
 16 17  2  0  0  0
 16 21  1  0  0  0
 16 31  1  0  0  0
 17 18  1  0  0  0
 17100  1  0  0  0
 18 19  2  0  0  0
 18101  1  0  0  0
 19 20  1  0  0  0
 19 24  1  0  0  0
 20 21  2  0  0  0
 20102  1  0  0  0
 21 23  1  0  0  0
 22 28  1  0  0  0
 22 32  2  0  0  0
 26 27  1  0  0  0
 28103  1  0  0  0
 28104  1  0  0  0
 29105  1  0  0  0
 29106  1  0  0  0
 33 34  1  0  0  0
 33 66  1  0  0  0
 33 70  2  0  0  0
 34 36  1  0  0  0
 34 59  1  0  0  0
 34107  1  0  0  0
 35 44  2  0  0  0
 35 45  1  0  0  0
 35 68  1  0  0  0
 36 56  1  0  0  0
 36108  1  0  0  0
 37 39  1  0  0  0
 37 47  1  0  0  0
 37 66  1  0  0  0
 37109  1  0  0  0
 38 43  2  0  0  0
 38 46  1  0  0  0
 38 47  1  0  0  0
 39 64  1  0  0  0
 39 67  2  0  0  0
 40 52  1  0  0  0
 40 53  2  0  0  0
 40 58  1  0  0  0
 41110  1  0  0  0
 41111  1  0  0  0
 41112  1  0  0  0
 41 48  1  0  0  0
 42 43  1  0  0  0
 42 66  1  0  0  0
 42113  1  0  0  0
 42114  1  0  0  0
 43 44  1  0  0  0
 44115  1  0  0  0
 45 46  2  0  0  0
 45116  1  0  0  0
 46117  1  0  0  0
 47118  1  0  0  0
 47119  1  0  0  0
 48 56  1  0  0  0
 48 65  1  0  0  0
 48120  1  0  0  0
 49 50  1  0  0  0
 49 53  1  0  0  0
 49 64  1  0  0  0
 49121  1  0  0  0
 50 51  1  0  0  0
 50122  1  0  0  0
 50123  1  0  0  0
 51 52  1  0  0  0
 51124  1  0  0  0
 51125  1  0  0  0
 52126  1  0  0  0
 52127  1  0  0  0
 53 54  1  0  0  0
 54 55  2  0  0  0
 54128  1  0  0  0
 55 57  1  0  0  0
 55129  1  0  0  0
 56 69  2  0  0  0
 57 58  2  0  0  0
 57130  1  0  0  0
 58131  1  0  0  0
 59 60  1  0  0  0
 59 61  1  0  0  0
 59 62  1  0  0  0
 60132  1  0  0  0
 60133  1  0  0  0
 60134  1  0  0  0
 61135  1  0  0  0
 61136  1  0  0  0
 61137  1  0  0  0
 62138  1  0  0  0
 62139  1  0  0  0
 62140  1  0  0  0
 63 65  1  0  0  0
 63141  1  0  0  0
 63142  1  0  0  0
 63143  1  0  0  0
 64144  1  0  0  0
 65145  1  0  0  0
 68 84  1  0  0  0
 71 72  1  0  0  0
 71 79  1  0  0  0
 71146  1  0  0  0
 71147  1  0  0  0
 72 82  1  0  0  0
 72148  1  0  0  0
 72149  1  0  0  0
 73150  1  0  0  0
 73151  1  0  0  0
 73 80  1  0  0  0
 73 81  1  0  0  0
 74 80  1  0  0  0
 74 83  1  0  0  0
 74152  1  0  0  0
 74153  1  0  0  0
 75 81  1  0  0  0
 75 83  1  0  0  0
 75154  1  0  0  0
 75155  1  0  0  0
 76 80  1  0  0  0
 76 84  1  0  0  0
 76156  1  0  0  0
 76157  1  0  0  0
 77 81  1  0  0  0
 77 84  1  0  0  0
 77158  1  0  0  0
 77159  1  0  0  0
 78 83  1  0  0  0
 78 84  1  0  0  0
 78160  1  0  0  0
 78161  1  0  0  0
 79 86  1  0  0  0
 79162  1  0  0  0
 79163  1  0  0  0
 80164  1  0  0  0
 81165  1  0  0  0
 82 85  1  0  0  0
 82 86  1  0  0  0
 82166  1  0  0  0
 83 85  1  0  0  0
 85167  1  0  0  0
 85168  1  0  0  0
M  ISO  4   1 100  68 101  84 101  86 100
M  END
> <chiral flag>
0

> <version>
0

> <s_m_source_file>
/data/baiqing/PycharmProjects/Reinvent-master-3.2/result/LINK_invent/BTK/process_docking_weight1_custom_sum_contain_oxygen_bond_distance_aromatic_linkinvent_7_9_3/rearranged_h_0167.sdf

> <i_m_source_file_index>
38

> <r_mmod_Potential_Energy-OPLS-2005>
1798.38977050781

> <r_mmod_Stretch_Energy-OPLS-2005>
617.275268554688

> <r_mmod_Bend_Energy-OPLS-2005>
614.560119628906

> <r_mmod_Torsional_Energy-OPLS-2005>
413.085540771484

> <r_mmod_Improper_Torsional_Energy-OPLS-2005>
6.5156569480896

> <r_mmod_Van_der_Waal_Energy-OPLS-2005>
173.280914306641

> <r_mmod_Electrostatic_Energy-OPLS-2005>
-257.854827880859

> <r_mmod_Solvation_Energy-OPLS-2005>
-188.347610473633

> <b_mmod_Minimization_Converged-OPLS-2005>
0

> <r_mmod_RMS_Derivative-OPLS-2005>
10.7458276748657

$$$$
38
                    3D
 Structure written by MMmdl.
168177  0  0  1  0            999 V2000
  -30.6575  -14.5292   20.4889 C   0  0  0  0  0  0
  -30.4197  -12.3087   19.4574 C   0  0  0  0  0  0
  -29.5112  -12.5096   18.2237 C   0  0  0  0  0  0
  -28.0264  -12.3622   18.6221 C   0  0  0  0  0  0
  -27.6566  -13.2110   19.8677 C   0  0  2  0  0  0
  -28.6936  -13.0384   21.0035 C   0  0  0  0  0  0
  -25.2535  -13.8156   20.5631 C   0  0  0  0  0  0
  -24.1795  -13.0435   20.9145 C   0  0  0  0  0  0
  -24.6364  -11.6906   20.8691 C   0  0  0  0  0  0
  -23.9036  -10.4276   21.0372 C   0  0  0  0  0  0
  -24.3599   -9.4219   21.9161 C   0  0  0  0  0  0
  -23.6287   -8.2253   22.0745 C   0  0  0  0  0  0
  -22.4260   -8.0254   21.3560 C   0  0  0  0  0  0
  -21.9880   -9.0234   20.4671 C   0  0  0  0  0  0
  -22.7207  -10.2107   20.3056 C   0  0  0  0  0  0
  -21.6852   -6.0726   22.5268 C   0  0  0  0  0  0
  -21.4030   -6.5633   23.8204 C   0  0  0  0  0  0
  -21.3670   -5.6782   24.9161 C   0  0  0  0  0  0
  -21.6038   -4.3048   24.7230 C   0  0  0  0  0  0
  -21.8813   -3.8140   23.4355 C   0  0  0  0  0  0
  -21.9200   -4.6954   22.3400 C   0  0  0  0  0  0
  -22.7830  -13.5228   21.1831 C   0  0  0  0  0  0
  -22.1657   -4.2139   21.0986 F   0  0  0  0  0  0
  -21.5636   -3.4537   25.7767 F   0  0  0  0  0  0
  -30.0280  -13.3192   20.4518 N   0  0  0  0  0  0
  -26.2972  -12.9349   20.3283 N   0  0  0  0  0  0
  -25.9289  -11.6505   20.5715 N   0  0  0  0  0  0
  -22.0459  -12.8231   22.0406 N   0  0  0  0  0  0
  -25.4186  -15.1872   20.4027 N   0  0  0  0  0  0
  -31.8127  -14.6936   20.0871 O   0  0  0  0  0  0
  -21.6633   -6.8849   21.4232 O   0  0  0  0  0  0
  -22.3507  -14.5557   20.6689 O   0  0  0  0  0  0
  -24.6160  -31.8687   23.2127 C   0  0  0  0  0  0
  -25.9055  -32.4826   23.8415 C   0  0  1  0  0  0
  -27.2440  -27.4696   20.0749 C   0  0  0  0  0  0
  -25.5918  -33.8614   24.2367 N   0  0  0  0  0  0
  -23.4034  -30.4939   21.5515 C   0  0  2  0  0  0
  -24.8537  -28.9681   20.1159 C   0  0  0  0  0  0
  -22.7420  -29.4655   22.4974 C   0  0  0  0  0  0
  -18.0282  -28.1351   22.8478 C   0  0  0  0  0  0
  -24.1483  -36.7303   23.2625 C   0  0  0  0  0  0
  -25.9312  -30.8488   21.3590 C   0  0  0  0  0  0
  -26.0151  -29.4857   20.7049 C   0  0  0  0  0  0
  -27.2202  -28.7456   20.6868 C   0  0  0  0  0  0
  -26.0639  -26.9601   19.5033 C   0  0  0  0  0  0
  -24.8704  -27.7006   19.5125 C   0  0  0  0  0  0
  -23.6142  -29.8290   20.1658 C   0  0  0  0  0  0
  -25.4095  -36.3117   24.0351 C   0  0  1  0  0  0
  -20.5881  -28.3650   23.1308 C   0  0  2  0  0  0
  -20.6767  -26.9383   22.5402 C   0  0  0  0  0  0
  -19.5770  -26.6393   21.5169 C   0  0  0  0  0  0
  -18.1941  -26.7906   22.1581 C   0  0  0  0  0  0
  -19.1535  -28.8812   23.2902 C   0  0  0  0  0  0
  -18.9455  -30.1409   23.8930 C   0  0  0  0  0  0
  -17.6463  -30.6557   24.0560 C   0  0  0  0  0  0
  -25.9021  -34.9484   23.5150 C   0  0  0  0  0  0
  -16.5360  -29.9064   23.6315 C   0  0  0  0  0  0
  -16.7273  -28.6481   23.0343 C   0  0  0  0  0  0
  -26.4498  -31.6569   25.0711 C   0  0  0  0  0  0
  -25.3760  -31.3693   26.1466 C   0  0  0  0  0  0
  -27.0283  -30.3007   24.6031 C   0  0  0  0  0  0
  -27.6143  -32.4197   25.7454 C   0  0  0  0  0  0
  -27.5594  -37.1787   24.8449 C   0  0  0  0  0  0
  -21.4144  -29.3030   22.3713 N   0  0  0  0  0  0
  -26.4276  -37.3813   23.9444 N   0  0  0  0  0  0
  -24.6684  -31.0818   22.1003 N   0  0  0  0  0  0
  -23.4189  -28.8173   23.3003 O   0  0  0  0  0  0
  -28.3154  -26.6117   20.0298 O   0  0  0  0  0  0
  -26.5577  -34.8929   22.4705 O   0  0  0  0  0  0
  -23.5348  -32.1410   23.7524 O   0  0  0  0  0  0
  -31.0270  -19.8955   20.2719 C   0  0  0  0  0  0
  -29.6854  -19.5810   20.5607 C   0  0  0  0  0  0
  -31.4000  -21.2274   20.0087 C   0  0  0  0  0  0
  -28.7786  -20.6695   20.6366 C   0  0  0  0  0  0
  -30.4170  -22.2448   20.0746 C   0  0  0  0  0  0
  -28.7173  -17.4455   19.4974 C   0  0  0  0  0  0
  -29.2510  -18.1312   20.7231 C   0  0  1  0  0  0
  -29.9799  -16.9028   20.1420 C   0  0  1  0  0  0
  -32.8435  -21.5225   19.6261 C   0  0  0  0  0  0
  -27.3112  -20.4645   20.9659 C   0  0  0  0  0  0
  -30.5111  -24.0469   18.2657 C   0  0  0  0  0  0
  -30.4563  -26.0223   20.8104 C   0  0  0  0  0  0
  -29.6591  -27.0642   20.0006 C   0  0  0  0  0  0
  -30.7335  -23.7223   19.7560 C   0  0  1  0  0  0
  -29.1368  -21.9582   20.4097 N   0  0  0  0  0  0
  -29.8376  -15.5804   20.7092 N   0  0  0  0  0  0
  -29.9502  -24.6283   20.6246 N   0  3  0  0  0  0
  -31.4748  -12.3740   19.1823 H   0  0  0  0  0  0
  -30.2840  -11.3074   19.8691 H   0  0  0  0  0  0
  -29.7653  -11.7911   17.4434 H   0  0  0  0  0  0
  -29.6799  -13.5003   17.7968 H   0  0  0  0  0  0
  -27.8378  -11.3068   18.8239 H   0  0  0  0  0  0
  -27.3872  -12.6371   17.7839 H   0  0  0  0  0  0
  -27.6894  -14.2519   19.5449 H   0  0  0  0  0  0
  -28.6595  -12.0259   21.4112 H   0  0  0  0  0  0
  -28.4594  -13.6956   21.8425 H   0  0  0  0  0  0
  -25.2748   -9.5731   22.4712 H   0  0  0  0  0  0
  -24.0045   -7.4639   22.7434 H   0  0  0  0  0  0
  -21.0823   -8.8754   19.8956 H   0  0  0  0  0  0
  -22.3662  -10.9645   19.6161 H   0  0  0  0  0  0
  -21.2024   -7.6142   23.9717 H   0  0  0  0  0  0
  -21.1492   -6.0507   25.9062 H   0  0  0  0  0  0
  -22.0591   -2.7614   23.2857 H   0  0  0  0  0  0
  -22.4079  -11.9913   22.4844 H   0  0  0  0  0  0
  -21.1076  -13.1255   22.2588 H   0  0  0  0  0  0
  -24.6386  -15.8297   20.4819 H   0  0  0  0  0  0
  -26.2619  -15.6315   20.0638 H   0  0  0  0  0  0
  -26.7131  -32.5583   23.1187 H   0  0  0  0  0  0
  -25.0102  -33.9771   25.0539 H   0  0  0  0  0  0
  -22.6930  -31.3101   21.4113 H   0  0  0  0  0  0
  -23.3777  -35.9598   23.3214 H   0  0  0  0  0  0
  -24.3613  -36.8972   22.2054 H   0  0  0  0  0  0
  -23.7174  -37.6467   23.6664 H   0  0  0  0  0  0
  -26.0336  -31.6173   20.5913 H   0  0  0  0  0  0
  -26.8221  -30.9087   21.9710 H   0  0  0  0  0  0
  -28.0977  -29.1608   21.1618 H   0  0  0  0  0  0
  -26.0760  -25.9813   19.0443 H   0  0  0  0  0  0
  -23.9786  -27.2887   19.0611 H   0  0  0  0  0  0
  -23.7243  -30.6031   19.4061 H   0  0  0  0  0  0
  -22.7418  -29.2447   19.8661 H   0  0  0  0  0  0
  -25.1247  -36.1987   25.0842 H   0  0  0  0  0  0
  -20.9983  -28.3202   24.1427 H   0  0  0  0  0  0
  -20.5627  -26.2247   23.3578 H   0  0  0  0  0  0
  -21.6650  -26.7404   22.1226 H   0  0  0  0  0  0
  -19.6935  -25.6312   21.1174 H   0  0  0  0  0  0
  -19.6718  -27.3222   20.6706 H   0  0  0  0  0  0
  -17.4215  -26.6665   21.3973 H   0  0  0  0  0  0
  -18.0354  -26.0029   22.8962 H   0  0  0  0  0  0
  -19.7943  -30.7199   24.2335 H   0  0  0  0  0  0
  -17.5026  -31.6238   24.5160 H   0  0  0  0  0  0
  -15.5356  -30.2973   23.7605 H   0  0  0  0  0  0
  -15.8677  -28.0792   22.7054 H   0  0  0  0  0  0
  -24.5950  -30.7013   25.7814 H   0  0  0  0  0  0
  -24.8934  -32.2860   26.4866 H   0  0  0  0  0  0
  -25.8109  -30.8899   27.0240 H   0  0  0  0  0  0
  -26.2779  -29.6777   24.1147 H   0  0  0  0  0  0
  -27.4143  -29.7234   25.4440 H   0  0  0  0  0  0
  -27.8593  -30.4342   23.9099 H   0  0  0  0  0  0
  -27.2902  -33.3559   26.2013 H   0  0  0  0  0  0
  -28.3985  -32.6593   25.0256 H   0  0  0  0  0  0
  -28.0754  -31.8265   26.5366 H   0  0  0  0  0  0
  -28.2559  -38.0136   24.7571 H   0  0  0  0  0  0
  -28.1125  -36.2665   24.6137 H   0  0  0  0  0  0
  -27.2334  -37.1300   25.8853 H   0  0  0  0  0  0
  -20.9283  -29.8775   21.6966 H   0  0  0  0  0  0
  -26.0158  -38.2878   24.1498 H   0  0  0  0  0  0
  -31.7631  -19.1065   20.2160 H   0  0  0  0  0  0
  -28.8365  -17.9436   18.5352 H   0  0  0  0  0  0
  -27.7789  -16.9065   19.6158 H   0  0  0  0  0  0
  -28.7157  -17.9817   21.6598 H   0  0  0  0  0  0
  -30.8992  -17.0960   19.5882 H   0  0  0  0  0  0
  -33.3997  -20.6039   19.4328 H   0  0  0  0  0  0
  -33.3597  -22.0638   20.4200 H   0  0  0  0  0  0
  -32.8837  -22.1181   18.7152 H   0  0  0  0  0  0
  -27.1971  -20.0126   21.9516 H   0  0  0  0  0  0
  -26.8355  -19.8176   20.2289 H   0  0  0  0  0  0
  -26.7721  -21.4136   20.9717 H   0  0  0  0  0  0
  -31.0748  -23.3679   17.6252 H   0  0  0  0  0  0
  -30.8460  -25.0550   18.0292 H   0  0  0  0  0  0
  -29.4613  -23.9680   17.9828 H   0  0  0  0  0  0
  -30.3310  -26.2645   21.8652 H   0  0  0  0  0  0
  -31.5242  -26.1050   20.6032 H   0  0  0  0  0  0
  -29.9875  -27.0784   18.9602 H   0  0  0  0  0  0
  -29.8125  -28.0682   20.3967 H   0  0  0  0  0  0
  -31.7826  -23.8908   19.9962 H   0  0  0  0  0  0
  -28.9275  -15.3554   21.0827 H   0  0  0  0  0  0
  -28.9943  -24.6589   20.2998 H   0  0  0  0  0  0
  -29.9244  -24.1624   21.5175 H   0  0  0  0  0  0
  1 25  1  0  0  0
  1 30  2  0  0  0
  1 86  1  0  0  0
  2  3  1  0  0  0
  2 25  1  0  0  0
  2 88  1  0  0  0
  2 89  1  0  0  0
  3  4  1  0  0  0
  3 90  1  0  0  0
  3 91  1  0  0  0
  4  5  1  0  0  0
  4 92  1  0  0  0
  4 93  1  0  0  0
  5  6  1  0  0  0
  5 26  1  0  0  0
  5 94  1  0  0  0
  6 25  1  0  0  0
  6 95  1  0  0  0
  6 96  1  0  0  0
  7  8  2  0  0  0
  7 26  1  0  0  0
  7 29  1  0  0  0
  8  9  1  0  0  0
  8 22  1  0  0  0
  9 10  1  0  0  0
  9 27  2  0  0  0
 10 11  2  0  0  0
 10 15  1  0  0  0
 11 12  1  0  0  0
 11 97  1  0  0  0
 12 13  2  0  0  0
 12 98  1  0  0  0
 13 14  1  0  0  0
 13 31  1  0  0  0
 14 15  2  0  0  0
 14 99  1  0  0  0
 15100  1  0  0  0
 16 17  2  0  0  0
 16 21  1  0  0  0
 16 31  1  0  0  0
 17 18  1  0  0  0
 17101  1  0  0  0
 18 19  2  0  0  0
 18102  1  0  0  0
 19 20  1  0  0  0
 19 24  1  0  0  0
 20 21  2  0  0  0
 20103  1  0  0  0
 21 23  1  0  0  0
 22 28  1  0  0  0
 22 32  2  0  0  0
 26 27  1  0  0  0
 28104  1  0  0  0
 28105  1  0  0  0
 29106  1  0  0  0
 29107  1  0  0  0
 33 34  1  0  0  0
 33 66  1  0  0  0
 33 70  2  0  0  0
 34 36  1  0  0  0
 34 59  1  0  0  0
 34108  1  0  0  0
 35 44  2  0  0  0
 35 45  1  0  0  0
 35 68  1  0  0  0
 36 56  1  0  0  0
 36109  1  0  0  0
 37 39  1  0  0  0
 37 47  1  0  0  0
 37 66  1  0  0  0
 37110  1  0  0  0
 38 43  2  0  0  0
 38 46  1  0  0  0
 38 47  1  0  0  0
 39 64  1  0  0  0
 39 67  2  0  0  0
 40 52  1  0  0  0
 40 53  2  0  0  0
 40 58  1  0  0  0
 41111  1  0  0  0
 41112  1  0  0  0
 41113  1  0  0  0
 41 48  1  0  0  0
 42 43  1  0  0  0
 42 66  1  0  0  0
 42114  1  0  0  0
 42115  1  0  0  0
 43 44  1  0  0  0
 44116  1  0  0  0
 45 46  2  0  0  0
 45117  1  0  0  0
 46118  1  0  0  0
 47119  1  0  0  0
 47120  1  0  0  0
 48 56  1  0  0  0
 48 65  1  0  0  0
 48121  1  0  0  0
 49 50  1  0  0  0
 49 53  1  0  0  0
 49 64  1  0  0  0
 49122  1  0  0  0
 50 51  1  0  0  0
 50123  1  0  0  0
 50124  1  0  0  0
 51 52  1  0  0  0
 51125  1  0  0  0
 51126  1  0  0  0
 52127  1  0  0  0
 52128  1  0  0  0
 53 54  1  0  0  0
 54 55  2  0  0  0
 54129  1  0  0  0
 55 57  1  0  0  0
 55130  1  0  0  0
 56 69  2  0  0  0
 57 58  2  0  0  0
 57131  1  0  0  0
 58132  1  0  0  0
 59 60  1  0  0  0
 59 61  1  0  0  0
 59 62  1  0  0  0
 60133  1  0  0  0
 60134  1  0  0  0
 60135  1  0  0  0
 61136  1  0  0  0
 61137  1  0  0  0
 61138  1  0  0  0
 62139  1  0  0  0
 62140  1  0  0  0
 62141  1  0  0  0
 63 65  1  0  0  0
 63142  1  0  0  0
 63143  1  0  0  0
 63144  1  0  0  0
 64145  1  0  0  0
 65146  1  0  0  0
 68 83  1  0  0  0
 71 72  2  0  0  0
 71 73  1  0  0  0
 71147  1  0  0  0
 72 74  1  0  0  0
 72 77  1  0  0  0
 73 75  2  0  0  0
 73 79  1  0  0  0
 74 80  1  0  0  0
 74 85  2  0  0  0
 75 84  1  0  0  0
 75 85  1  0  0  0
 76 77  1  0  0  0
 76 78  1  0  0  0
 76148  1  0  0  0
 76149  1  0  0  0
 77 78  1  0  0  0
 77150  1  0  0  0
 78 86  1  0  0  0
 78151  1  0  0  0
 79152  1  0  0  0
 79153  1  0  0  0
 79154  1  0  0  0
 80155  1  0  0  0
 80156  1  0  0  0
 80157  1  0  0  0
 81158  1  0  0  0
 81159  1  0  0  0
 81160  1  0  0  0
 81 84  1  0  0  0
 82 83  1  0  0  0
 82 87  1  0  0  0
 82161  1  0  0  0
 82162  1  0  0  0
 83163  1  0  0  0
 83164  1  0  0  0
 84 87  1  0  0  0
 84165  1  0  0  0
 86166  1  0  0  0
 87167  1  0  0  0
 87168  1  0  0  0
M  CHG  1  87   1
M  ISO  4   1 100  68 101  83 101  86 100
M  END
> <chiral flag>
0

> <version>
0

> <s_m_source_file>
/data/baiqing/PycharmProjects/Reinvent-master-3.2/result/LINK_invent/BTK/process_docking_weight1_custom_sum_contain_oxygen_bond_distance_aromatic_linkinvent_7_9_3/rearranged_h_0167.sdf

> <i_m_source_file_index>
39

> <r_mmod_Potential_Energy-OPLS-2005>
-385.495910644531

> <r_mmod_Stretch_Energy-OPLS-2005>
39.3464584350586

> <r_mmod_Bend_Energy-OPLS-2005>
117.093933105469

> <r_mmod_Torsional_Energy-OPLS-2005>
286.978088378906

> <r_mmod_Improper_Torsional_Energy-OPLS-2005>
8.64731597900391

> <r_mmod_Van_der_Waal_Energy-OPLS-2005>
149.467315673828

> <r_mmod_Electrostatic_Energy-OPLS-2005>
-590.355590820312

> <r_mmod_Solvation_Energy-OPLS-2005>
-415.883697509766

> <b_mmod_Minimization_Converged-OPLS-2005>
0

> <r_mmod_RMS_Derivative-OPLS-2005>
4.78864526748657

$$$$
39
                    3D
 Structure written by MMmdl.
161170  0  0  1  0            999 V2000
  -30.4138  -15.3004   20.3570 C   0  0  0  0  0  0
  -30.4373  -12.8251   19.5467 C   0  0  0  0  0  0
  -29.5416  -12.5900   18.3024 C   0  0  0  0  0  0
  -28.0900  -12.3069   18.7235 C   0  0  0  0  0  0
  -27.6128  -13.2802   19.8297 C   0  0  2  0  0  0
  -28.6408  -13.4604   20.9694 C   0  0  0  0  0  0
  -25.2383  -13.8256   20.5750 C   0  0  0  0  0  0
  -24.1739  -13.0438   20.9254 C   0  0  0  0  0  0
  -24.6400  -11.6937   20.8756 C   0  0  0  0  0  0
  -23.9097  -10.4293   21.0401 C   0  0  0  0  0  0
  -24.3640   -9.4208   21.9181 C   0  0  0  0  0  0
  -23.6307   -8.2246   22.0753 C   0  0  0  0  0  0
  -22.4288   -8.0285   21.3544 C   0  0  0  0  0  0
  -21.9929   -9.0259   20.4645 C   0  0  0  0  0  0
  -22.7265  -10.2134   20.3051 C   0  0  0  0  0  0
  -21.6857   -6.0740   22.5278 C   0  0  0  0  0  0
  -21.4018   -6.5641   23.8212 C   0  0  0  0  0  0
  -21.3661   -5.6793   24.9173 C   0  0  0  0  0  0
  -21.6044   -4.3055   24.7224 C   0  0  0  0  0  0
  -21.8819   -3.8149   23.4344 C   0  0  0  0  0  0
  -21.9194   -4.6966   22.3401 C   0  0  0  0  0  0
  -22.7756  -13.5188   21.1900 C   0  0  0  0  0  0
  -22.1661   -4.2151   21.0978 F   0  0  0  0  0  0
  -21.5629   -3.4539   25.7736 F   0  0  0  0  0  0
  -29.8762  -13.9757   20.3552 N   0  0  0  0  0  0
  -26.2818  -12.9540   20.3236 N   0  0  0  0  0  0
  -25.9340  -11.6640   20.5721 N   0  0  0  0  0  0
  -22.0418  -12.8167   22.0456 N   0  0  0  0  0  0
  -25.4011  -15.1993   20.4187 N   0  0  0  0  0  0
  -31.6174  -15.3081   20.0618 O   0  0  0  0  0  0
  -21.6646   -6.8885   21.4242 O   0  0  0  0  0  0
  -22.3433  -14.5487   20.6740 O   0  0  0  0  0  0
  -24.6644  -31.8201   23.1676 C   0  0  0  0  0  0
  -25.9316  -32.4568   23.8150 C   0  0  1  0  0  0
  -27.2220  -26.9020   20.1858 C   0  0  0  0  0  0
  -25.5974  -33.8385   24.2052 N   0  0  0  0  0  0
  -23.4812  -30.4297   21.5161 C   0  0  2  0  0  0
  -24.9372  -28.8124   20.1068 C   0  0  0  0  0  0
  -22.7676  -29.4418   22.4761 C   0  0  0  0  0  0
  -18.0324  -28.1411   22.8466 C   0  0  0  0  0  0
  -24.1494  -36.7199   23.2648 C   0  0  0  0  0  0
  -26.0508  -30.6168   21.4037 C   0  0  0  0  0  0
  -26.1179  -29.2042   20.7486 C   0  0  0  0  0  0
  -27.2496  -28.2678   20.7685 C   0  0  0  0  0  0
  -26.0176  -26.6735   19.4815 C   0  0  0  0  0  0
  -24.9144  -27.5690   19.4528 C   0  0  0  0  0  0
  -23.7231  -29.7424   20.1426 C   0  0  0  0  0  0
  -25.4137  -36.2956   24.0295 C   0  0  1  0  0  0
  -20.5950  -28.3757   23.1181 C   0  0  2  0  0  0
  -20.6798  -26.9434   22.5404 C   0  0  0  0  0  0
  -19.5773  -26.6376   21.5216 C   0  0  0  0  0  0
  -18.1955  -26.7944   22.1622 C   0  0  0  0  0  0
  -19.1586  -28.8906   23.2811 C   0  0  0  0  0  0
  -18.9495  -30.1495   23.8847 C   0  0  0  0  0  0
  -17.6488  -30.6600   24.0557 C   0  0  0  0  0  0
  -25.9102  -34.9339   23.4998 C   0  0  0  0  0  0
  -16.5379  -29.9087   23.6345 C   0  0  0  0  0  0
  -16.7306  -28.6508   23.0363 C   0  0  0  0  0  0
  -26.4560  -31.6530   25.0693 C   0  0  0  0  0  0
  -25.3679  -31.3792   26.1344 C   0  0  0  0  0  0
  -27.0465  -30.2891   24.6457 C   0  0  0  0  0  0
  -27.6044  -32.4351   25.7498 C   0  0  0  0  0  0
  -27.5568  -37.1758   24.8467 C   0  0  0  0  0  0
  -21.4343  -29.3038   22.3518 N   0  0  0  0  0  0
  -26.4279  -37.3695   23.9406 N   0  0  0  0  0  0
  -24.7534  -30.9837   22.0825 N   0  0  0  0  0  0
  -23.4212  -28.7995   23.3017 O   0  0  0  0  0  0
  -28.2121  -25.7836   20.3230 O   0  0  0  0  0  0
  -26.5720  -34.8882   22.4599 O   0  0  0  0  0  0
  -23.5708  -32.1184   23.6751 O   0  0  0  0  0  0
  -30.5631  -19.9321   18.5225 C   0  0  0  0  0  0
  -28.6003  -22.7094   20.6649 C   0  0  0  0  0  0
  -29.5100  -21.0556   18.6445 C   0  0  0  0  0  0
  -28.4985  -19.5063   20.4373 C   0  0  0  0  0  0
  -29.5647  -18.2007   20.0580 C   0  0  2  0  0  0
  -30.7779  -19.2347   19.8935 C   0  0  2  0  0  0
  -29.1511  -21.0868   20.1551 C   0  0  2  0  0  0
  -30.5381  -20.5700   20.7760 C   0  0  0  0  0  0
  -32.1631  -18.5794   20.0296 C   0  0  0  0  0  0
  -31.6622  -21.6491   20.6381 C   0  0  0  0  0  0
  -30.5304  -20.2390   22.2995 C   0  0  0  0  0  0
  -28.1541  -24.1959   19.8226 C   0  0  0  0  0  0
  -29.6262  -16.5620   20.5068 N   0  0  0  0  0  0
  -31.1427  -19.6351   17.4741 O   0  0  0  0  0  0
  -28.4875  -22.8146   21.8887 O   0  0  0  0  0  0
  -31.4591  -13.0230   19.2211 H   0  0  0  0  0  0
  -30.5002  -11.9196   20.1525 H   0  0  0  0  0  0
  -29.9281  -11.7641   17.7036 H   0  0  0  0  0  0
  -29.5705  -13.4737   17.6633 H   0  0  0  0  0  0
  -28.0485  -11.2826   19.0957 H   0  0  0  0  0  0
  -27.4247  -12.3468   17.8602 H   0  0  0  0  0  0
  -27.5271  -14.2463   19.3309 H   0  0  0  0  0  0
  -28.8094  -12.5265   21.5075 H   0  0  0  0  0  0
  -28.2715  -14.1781   21.7035 H   0  0  0  0  0  0
  -25.2782   -9.5684   22.4761 H   0  0  0  0  0  0
  -24.0012   -7.4640   22.7476 H   0  0  0  0  0  0
  -21.0860   -8.8784   19.8950 H   0  0  0  0  0  0
  -22.3723  -10.9675   19.6163 H   0  0  0  0  0  0
  -21.2011   -7.6149   23.9716 H   0  0  0  0  0  0
  -21.1484   -6.0523   25.9077 H   0  0  0  0  0  0
  -22.0596   -2.7610   23.2843 H   0  0  0  0  0  0
  -22.4056  -11.9841   22.4850 H   0  0  0  0  0  0
  -21.1027  -13.1169   22.2657 H   0  0  0  0  0  0
  -24.6284  -15.8469   20.5294 H   0  0  0  0  0  0
  -26.2387  -15.6412   20.0637 H   0  0  0  0  0  0
  -26.7386  -32.5097   23.0863 H   0  0  0  0  0  0
  -25.0066  -33.9458   25.0166 H   0  0  0  0  0  0
  -22.7960  -31.2619   21.3428 H   0  0  0  0  0  0
  -23.3766  -35.9520   23.3281 H   0  0  0  0  0  0
  -24.3569  -36.8877   22.2069 H   0  0  0  0  0  0
  -23.7243  -37.6374   23.6727 H   0  0  0  0  0  0
  -26.2352  -31.3560   20.6231 H   0  0  0  0  0  0
  -26.9092  -30.6744   22.0610 H   0  0  0  0  0  0
  -28.1365  -28.5610   21.3122 H   0  0  0  0  0  0
  -25.8841  -25.7256   18.9820 H   0  0  0  0  0  0
  -24.0186  -27.2648   18.9287 H   0  0  0  0  0  0
  -23.8783  -30.5101   19.3836 H   0  0  0  0  0  0
  -22.8327  -29.1965   19.8256 H   0  0  0  0  0  0
  -25.1339  -36.1747   25.0786 H   0  0  0  0  0  0
  -21.0042  -28.3369   24.1303 H   0  0  0  0  0  0
  -20.5676  -26.2376   23.3648 H   0  0  0  0  0  0
  -21.6661  -26.7404   22.1212 H   0  0  0  0  0  0
  -19.6930  -25.6273   21.1279 H   0  0  0  0  0  0
  -19.6714  -27.3158   20.6724 H   0  0  0  0  0  0
  -17.4224  -26.6688   21.4027 H   0  0  0  0  0  0
  -18.0348  -26.0101   22.9032 H   0  0  0  0  0  0
  -19.7971  -30.7327   24.2191 H   0  0  0  0  0  0
  -17.5039  -31.6274   24.5169 H   0  0  0  0  0  0
  -15.5377  -30.2973   23.7697 H   0  0  0  0  0  0
  -15.8707  -28.0811   22.7104 H   0  0  0  0  0  0
  -24.5877  -30.7126   25.7653 H   0  0  0  0  0  0
  -24.8852  -32.2998   26.4634 H   0  0  0  0  0  0
  -25.7902  -30.9048   27.0212 H   0  0  0  0  0  0
  -26.3140  -29.6554   24.1446 H   0  0  0  0  0  0
  -27.3962  -29.7274   25.5129 H   0  0  0  0  0  0
  -27.9096  -30.4061   23.9901 H   0  0  0  0  0  0
  -27.2606  -33.3700   26.1934 H   0  0  0  0  0  0
  -28.3928  -32.6833   25.0379 H   0  0  0  0  0  0
  -28.0633  -31.8573   26.5531 H   0  0  0  0  0  0
  -28.2568  -38.0069   24.7507 H   0  0  0  0  0  0
  -28.1080  -36.2593   24.6304 H   0  0  0  0  0  0
  -27.2282  -37.1411   25.8869 H   0  0  0  0  0  0
  -20.9599  -29.8719   21.6640 H   0  0  0  0  0  0
  -26.0123  -38.2752   24.1411 H   0  0  0  0  0  0
  -28.6393  -20.8258   18.0311 H   0  0  0  0  0  0
  -29.9286  -22.0018   18.3033 H   0  0  0  0  0  0
  -28.1313  -19.4267   21.4602 H   0  0  0  0  0  0
  -27.5942  -19.3958   19.8376 H   0  0  0  0  0  0
  -29.2535  -17.9633   19.0379 H   0  0  0  0  0  0
  -32.2740  -17.7570   19.3235 H   0  0  0  0  0  0
  -32.3107  -18.1796   21.0322 H   0  0  0  0  0  0
  -32.9701  -19.2825   19.8259 H   0  0  0  0  0  0
  -31.4469  -22.5200   21.2580 H   0  0  0  0  0  0
  -31.8172  -22.0243   19.6270 H   0  0  0  0  0  0
  -32.6259  -21.2674   20.9758 H   0  0  0  0  0  0
  -29.9599  -19.3525   22.5701 H   0  0  0  0  0  0
  -30.1469  -21.0692   22.8917 H   0  0  0  0  0  0
  -31.5407  -20.0399   22.6583 H   0  0  0  0  0  0
  -27.1233  -24.0216   19.5185 H   0  0  0  0  0  0
  -28.7181  -24.1709   18.8906 H   0  0  0  0  0  0
  -28.7181  -16.2947   20.8589 H   0  0  0  0  0  0
  1 25  1  0  0  0
  1 30  2  0  0  0
  1 83  1  0  0  0
  2  3  1  0  0  0
  2 25  1  0  0  0
  2 86  1  0  0  0
  2 87  1  0  0  0
  3  4  1  0  0  0
  3 88  1  0  0  0
  3 89  1  0  0  0
  4  5  1  0  0  0
  4 90  1  0  0  0
  4 91  1  0  0  0
  5  6  1  0  0  0
  5 26  1  0  0  0
  5 92  1  0  0  0
  6 25  1  0  0  0
  6 93  1  0  0  0
  6 94  1  0  0  0
  7  8  2  0  0  0
  7 26  1  0  0  0
  7 29  1  0  0  0
  8  9  1  0  0  0
  8 22  1  0  0  0
  9 10  1  0  0  0
  9 27  2  0  0  0
 10 11  2  0  0  0
 10 15  1  0  0  0
 11 12  1  0  0  0
 11 95  1  0  0  0
 12 13  2  0  0  0
 12 96  1  0  0  0
 13 14  1  0  0  0
 13 31  1  0  0  0
 14 15  2  0  0  0
 14 97  1  0  0  0
 15 98  1  0  0  0
 16 17  2  0  0  0
 16 21  1  0  0  0
 16 31  1  0  0  0
 17 18  1  0  0  0
 17 99  1  0  0  0
 18 19  2  0  0  0
 18100  1  0  0  0
 19 20  1  0  0  0
 19 24  1  0  0  0
 20 21  2  0  0  0
 20101  1  0  0  0
 21 23  1  0  0  0
 22 28  1  0  0  0
 22 32  2  0  0  0
 26 27  1  0  0  0
 28102  1  0  0  0
 28103  1  0  0  0
 29104  1  0  0  0
 29105  1  0  0  0
 33 34  1  0  0  0
 33 66  1  0  0  0
 33 70  2  0  0  0
 34 36  1  0  0  0
 34 59  1  0  0  0
 34106  1  0  0  0
 35 44  2  0  0  0
 35 45  1  0  0  0
 35 68  1  0  0  0
 36 56  1  0  0  0
 36107  1  0  0  0
 37 39  1  0  0  0
 37 47  1  0  0  0
 37 66  1  0  0  0
 37108  1  0  0  0
 38 43  2  0  0  0
 38 46  1  0  0  0
 38 47  1  0  0  0
 39 64  1  0  0  0
 39 67  2  0  0  0
 40 52  1  0  0  0
 40 53  2  0  0  0
 40 58  1  0  0  0
 41109  1  0  0  0
 41110  1  0  0  0
 41111  1  0  0  0
 41 48  1  0  0  0
 42 43  1  0  0  0
 42 66  1  0  0  0
 42112  1  0  0  0
 42113  1  0  0  0
 43 44  1  0  0  0
 44114  1  0  0  0
 45 46  2  0  0  0
 45115  1  0  0  0
 46116  1  0  0  0
 47117  1  0  0  0
 47118  1  0  0  0
 48 56  1  0  0  0
 48 65  1  0  0  0
 48119  1  0  0  0
 49 50  1  0  0  0
 49 53  1  0  0  0
 49 64  1  0  0  0
 49120  1  0  0  0
 50 51  1  0  0  0
 50121  1  0  0  0
 50122  1  0  0  0
 51 52  1  0  0  0
 51123  1  0  0  0
 51124  1  0  0  0
 52125  1  0  0  0
 52126  1  0  0  0
 53 54  1  0  0  0
 54 55  2  0  0  0
 54127  1  0  0  0
 55 57  1  0  0  0
 55128  1  0  0  0
 56 69  2  0  0  0
 57 58  2  0  0  0
 57129  1  0  0  0
 58130  1  0  0  0
 59 60  1  0  0  0
 59 61  1  0  0  0
 59 62  1  0  0  0
 60131  1  0  0  0
 60132  1  0  0  0
 60133  1  0  0  0
 61134  1  0  0  0
 61135  1  0  0  0
 61136  1  0  0  0
 62137  1  0  0  0
 62138  1  0  0  0
 62139  1  0  0  0
 63 65  1  0  0  0
 63140  1  0  0  0
 63141  1  0  0  0
 63142  1  0  0  0
 64143  1  0  0  0
 65144  1  0  0  0
 68 82  1  0  0  0
 71 73  1  0  0  0
 71 76  1  0  0  0
 71 84  2  0  0  0
 72 82  1  0  0  0
 72 85  2  0  0  0
 72 77  1  0  0  0
 73 77  1  0  0  0
 73145  1  0  0  0
 73146  1  0  0  0
 74 75  1  0  0  0
 74 77  1  0  0  0
 74147  1  0  0  0
 74148  1  0  0  0
 75 76  1  0  0  0
 75 83  1  0  0  0
 75149  1  0  0  0
 76 78  1  0  0  0
 76 79  1  0  0  0
 77 78  1  0  0  0
 78 80  1  0  0  0
 78 81  1  0  0  0
 79150  1  0  0  0
 79151  1  0  0  0
 79152  1  0  0  0
 80153  1  0  0  0
 80154  1  0  0  0
 80155  1  0  0  0
 81156  1  0  0  0
 81157  1  0  0  0
 81158  1  0  0  0
 82159  1  0  0  0
 82160  1  0  0  0
 83161  1  0  0  0
M  ISO  4   1 100  68 101  82 101  83 100
M  END
> <chiral flag>
0

> <version>
0

> <s_m_source_file>
/data/baiqing/PycharmProjects/Reinvent-master-3.2/result/LINK_invent/BTK/process_docking_weight1_custom_sum_contain_oxygen_bond_distance_aromatic_linkinvent_7_9_3/rearranged_h_0167.sdf

> <i_m_source_file_index>
40

> <r_mmod_Potential_Energy-OPLS-2005>
1578.48999023438

> <r_mmod_Stretch_Energy-OPLS-2005>
639.252014160156

> <r_mmod_Bend_Energy-OPLS-2005>
622.726013183594

> <r_mmod_Torsional_Energy-OPLS-2005>
245.652282714844

> <r_mmod_Improper_Torsional_Energy-OPLS-2005>
4.43034648895264

> <r_mmod_Van_der_Waal_Energy-OPLS-2005>
133.211212158203

> <r_mmod_Electrostatic_Energy-OPLS-2005>
-320.244567871094

> <r_mmod_Solvation_Energy-OPLS-2005>
-246.055389404297

> <b_mmod_Minimization_Converged-OPLS-2005>
0

> <r_mmod_RMS_Derivative-OPLS-2005>
0.308871656656265

$$$$
40
                    3D
 Structure written by MMmdl.
163172  0  0  1  0            999 V2000
  -30.5428  -14.9539   20.4378 C   0  0  0  0  0  0
  -30.4336  -12.5979   19.4909 C   0  0  0  0  0  0
  -29.5134  -12.5270   18.2510 C   0  0  0  0  0  0
  -28.0496  -12.3112   18.6763 C   0  0  0  0  0  0
  -27.6264  -13.2489   19.8375 C   0  0  2  0  0  0
  -28.6689  -13.2836   20.9723 C   0  0  0  0  0  0
  -25.2457  -13.8220   20.5730 C   0  0  0  0  0  0
  -24.1766  -13.0440   20.9214 C   0  0  0  0  0  0
  -24.6386  -11.6926   20.8759 C   0  0  0  0  0  0
  -23.9078  -10.4292   21.0415 C   0  0  0  0  0  0
  -24.3631   -9.4203   21.9186 C   0  0  0  0  0  0
  -23.6305   -8.2242   22.0758 C   0  0  0  0  0  0
  -22.4287   -8.0281   21.3544 C   0  0  0  0  0  0
  -21.9925   -9.0254   20.4646 C   0  0  0  0  0  0
  -22.7257  -10.2132   20.3059 C   0  0  0  0  0  0
  -21.6852   -6.0743   22.5283 C   0  0  0  0  0  0
  -21.4013   -6.5649   23.8214 C   0  0  0  0  0  0
  -21.3659   -5.6804   24.9176 C   0  0  0  0  0  0
  -21.6042   -4.3065   24.7227 C   0  0  0  0  0  0
  -21.8816   -3.8156   23.4348 C   0  0  0  0  0  0
  -21.9189   -4.6971   22.3405 C   0  0  0  0  0  0
  -22.7793  -13.5207   21.1886 C   0  0  0  0  0  0
  -22.1657   -4.2161   21.0979 F   0  0  0  0  0  0
  -21.5629   -3.4549   25.7741 F   0  0  0  0  0  0
  -29.9366  -13.6997   20.3639 N   0  0  0  0  0  0
  -26.2870  -12.9451   20.3263 N   0  0  0  0  0  0
  -25.9322  -11.6578   20.5757 N   0  0  0  0  0  0
  -22.0455  -12.8180   22.0438 N   0  0  0  0  0  0
  -25.4170  -15.1953   20.4199 N   0  0  0  0  0  0
  -31.7464  -15.0027   20.1571 O   0  0  0  0  0  0
  -21.6639   -6.8886   21.4243 O   0  0  0  0  0  0
  -22.3468  -14.5510   20.6738 O   0  0  0  0  0  0
  -24.6461  -31.8405   23.1862 C   0  0  0  0  0  0
  -25.9229  -32.4679   23.8253 C   0  0  1  0  0  0
  -27.2144  -27.1118   20.1656 C   0  0  0  0  0  0
  -25.5972  -33.8487   24.2160 N   0  0  0  0  0  0
  -23.4507  -30.4590   21.5322 C   0  0  2  0  0  0
  -24.9017  -28.8815   20.1071 C   0  0  0  0  0  0
  -22.7588  -29.4530   22.4864 C   0  0  0  0  0  0
  -18.0296  -28.1387   22.8468 C   0  0  0  0  0  0
  -24.1480  -36.7256   23.2644 C   0  0  0  0  0  0
  -26.0068  -30.7062   21.3886 C   0  0  0  0  0  0
  -26.0777  -29.3150   20.7324 C   0  0  0  0  0  0
  -27.2339  -28.4457   20.7447 C   0  0  0  0  0  0
  -26.0175  -26.7885   19.4877 C   0  0  0  0  0  0
  -24.8858  -27.6329   19.4689 C   0  0  0  0  0  0
  -23.6780  -29.7839   20.1528 C   0  0  0  0  0  0
  -25.4119  -36.3013   24.0297 C   0  0  1  0  0  0
  -20.5911  -28.3710   23.1231 C   0  0  2  0  0  0
  -20.6780  -26.9412   22.5399 C   0  0  0  0  0  0
  -19.5759  -26.6365   21.5203 C   0  0  0  0  0  0
  -18.1934  -26.7932   22.1606 C   0  0  0  0  0  0
  -19.1553  -28.8871   23.2826 C   0  0  0  0  0  0
  -18.9479  -30.1474   23.8838 C   0  0  0  0  0  0
  -17.6480  -30.6588   24.0553 C   0  0  0  0  0  0
  -25.9079  -34.9399   23.5041 C   0  0  0  0  0  0
  -16.5366  -29.9076   23.6347 C   0  0  0  0  0  0
  -16.7286  -28.6496   23.0360 C   0  0  0  0  0  0
  -26.4534  -31.6577   25.0721 C   0  0  0  0  0  0
  -25.3703  -31.3772   26.1413 C   0  0  0  0  0  0
  -27.0453  -30.2979   24.6350 C   0  0  0  0  0  0
  -27.6042  -32.4392   25.7501 C   0  0  0  0  0  0
  -27.5572  -37.1762   24.8461 C   0  0  0  0  0  0
  -21.4278  -29.3044   22.3610 N   0  0  0  0  0  0
  -26.4266  -37.3742   23.9431 N   0  0  0  0  0  0
  -24.7203  -31.0249   22.0909 N   0  0  0  0  0  0
  -23.4216  -28.8066   23.3009 O   0  0  0  0  0  0
  -28.2486  -26.1060   20.2751 O   0  0  0  0  0  0
  -26.5658  -34.8909   22.4615 O   0  0  0  0  0  0
  -23.5568  -32.1308   23.7059 O   0  0  0  0  0  0
  -30.4743  -22.3365   22.2460 C   0  0  0  0  0  0
  -30.3676  -20.9988   21.7428 C   0  0  0  0  0  0
  -29.7839  -23.4425   21.6566 C   0  0  0  0  0  0
  -28.6729  -21.8251   20.2046 C   0  0  0  0  0  0
  -29.4142  -20.6409   20.7434 C   0  0  0  0  0  0
  -28.8444  -23.2597   20.6079 C   0  0  0  0  0  0
  -30.1114  -16.9288   21.8424 C   0  0  0  0  0  0
  -30.1335  -17.6790   20.5497 C   0  0  2  0  0  0
  -31.3148  -22.5925   23.5053 C   0  0  0  0  0  0
  -31.3026  -19.9297   22.2988 C   0  0  0  0  0  0
  -30.0465  -24.8628   22.1583 C   0  0  0  0  0  0
  -27.6304  -21.5209   19.1406 C   0  0  0  0  0  0
  -29.1189  -19.0180   20.3967 C   0  0  0  0  0  0
  -27.9727  -24.5765   20.0522 C   0  0  0  0  0  0
  -29.7958  -16.1521   20.6834 N   0  0  0  0  0  0
  -31.4663  -12.7550   19.1759 H   0  0  0  0  0  0
  -30.4299  -11.6490   20.0302 H   0  0  0  0  0  0
  -29.8337  -11.7237   17.5856 H   0  0  0  0  0  0
  -29.5964  -13.4522   17.6799 H   0  0  0  0  0  0
  -27.9519  -11.2728   18.9932 H   0  0  0  0  0  0
  -27.3822  -12.4330   17.8224 H   0  0  0  0  0  0
  -27.5879  -14.2506   19.4066 H   0  0  0  0  0  0
  -28.7622  -12.3098   21.4555 H   0  0  0  0  0  0
  -28.3680  -13.9908   21.7466 H   0  0  0  0  0  0
  -25.2778   -9.5679   22.4768 H   0  0  0  0  0  0
  -24.0014   -7.4630   22.7479 H   0  0  0  0  0  0
  -21.0858   -8.8769   19.8951 H   0  0  0  0  0  0
  -22.3712  -10.9671   19.6175 H   0  0  0  0  0  0
  -21.2005   -7.6155   23.9722 H   0  0  0  0  0  0
  -21.1486   -6.0534   25.9081 H   0  0  0  0  0  0
  -22.0593   -2.7622   23.2846 H   0  0  0  0  0  0
  -22.4099  -11.9849   22.4816 H   0  0  0  0  0  0
  -21.1079  -13.1195   22.2678 H   0  0  0  0  0  0
  -24.6586  -15.8572   20.5480 H   0  0  0  0  0  0
  -26.2836  -15.6346   20.1363 H   0  0  0  0  0  0
  -26.7295  -32.5269   23.0984 H   0  0  0  0  0  0
  -25.0160  -33.9591   25.0336 H   0  0  0  0  0  0
  -22.7540  -31.2834   21.3728 H   0  0  0  0  0  0
  -23.3742  -35.9579   23.3266 H   0  0  0  0  0  0
  -24.3570  -36.8957   22.2069 H   0  0  0  0  0  0
  -23.7227  -37.6433   23.6728 H   0  0  0  0  0  0
  -26.1664  -31.4558   20.6116 H   0  0  0  0  0  0
  -26.8768  -30.7599   22.0307 H   0  0  0  0  0  0
  -28.1271  -28.7667   21.2632 H   0  0  0  0  0  0
  -25.9206  -25.8343   18.9920 H   0  0  0  0  0  0
  -23.9881  -27.2983   18.9669 H   0  0  0  0  0  0
  -23.8102  -30.5548   19.3925 H   0  0  0  0  0  0
  -22.7941  -29.2222   19.8446 H   0  0  0  0  0  0
  -25.1284  -36.1819   25.0771 H   0  0  0  0  0  0
  -20.9975  -28.3287   24.1365 H   0  0  0  0  0  0
  -20.5676  -26.2317   23.3612 H   0  0  0  0  0  0
  -21.6646  -26.7415   22.1193 H   0  0  0  0  0  0
  -19.6922  -25.6257   21.1280 H   0  0  0  0  0  0
  -19.6709  -27.3130   20.6701 H   0  0  0  0  0  0
  -17.4208  -26.6679   21.3998 H   0  0  0  0  0  0
  -18.0319  -26.0055   22.8980 H   0  0  0  0  0  0
  -19.7955  -30.7308   24.2166 H   0  0  0  0  0  0
  -17.5037  -31.6275   24.5151 H   0  0  0  0  0  0
  -15.5366  -30.2967   23.7731 H   0  0  0  0  0  0
  -15.8676  -28.0828   22.7098 H   0  0  0  0  0  0
  -24.5875  -30.7129   25.7738 H   0  0  0  0  0  0
  -24.8892  -32.2952   26.4785 H   0  0  0  0  0  0
  -25.7953  -30.8982   27.0242 H   0  0  0  0  0  0
  -26.3111  -29.6659   24.1344 H   0  0  0  0  0  0
  -27.4072  -29.7313   25.4947 H   0  0  0  0  0  0
  -27.8993  -30.4239   23.9692 H   0  0  0  0  0  0
  -27.2622  -33.3754   26.1930 H   0  0  0  0  0  0
  -28.3901  -32.6885   25.0355 H   0  0  0  0  0  0
  -28.0658  -31.8640   26.5539 H   0  0  0  0  0  0
  -28.2524  -38.0118   24.7579 H   0  0  0  0  0  0
  -28.1123  -36.2654   24.6175 H   0  0  0  0  0  0
  -27.2316  -37.1287   25.8866 H   0  0  0  0  0  0
  -20.9497  -29.8790   21.6817 H   0  0  0  0  0  0
  -26.0117  -38.2788   24.1490 H   0  0  0  0  0  0
  -29.2875  -17.1148   22.5275 H   0  0  0  0  0  0
  -31.0699  -16.7502   22.3298 H   0  0  0  0  0  0
  -31.0848  -17.8290   20.0427 H   0  0  0  0  0  0
  -31.4184  -21.7183   24.1459 H   0  0  0  0  0  0
  -30.8313  -23.3130   24.1638 H   0  0  0  0  0  0
  -32.3111  -22.9580   23.2528 H   0  0  0  0  0  0
  -32.1880  -20.3192   22.7958 H   0  0  0  0  0  0
  -31.7306  -19.3474   21.4900 H   0  0  0  0  0  0
  -30.7762  -19.2792   22.9964 H   0  0  0  0  0  0
  -30.8908  -24.9734   22.8346 H   0  0  0  0  0  0
  -29.1619  -25.2586   22.6606 H   0  0  0  0  0  0
  -30.2979  -25.5102   21.3206 H   0  0  0  0  0  0
  -26.9553  -20.7353   19.4775 H   0  0  0  0  0  0
  -28.1191  -21.1837   18.2260 H   0  0  0  0  0  0
  -27.0109  -22.3803   18.8866 H   0  0  0  0  0  0
  -28.7799  -19.0015   19.3615 H   0  0  0  0  0  0
  -28.2240  -18.7776   20.9723 H   0  0  0  0  0  0
  -26.9647  -24.3912   20.4230 H   0  0  0  0  0  0
  -27.9149  -24.4579   18.9710 H   0  0  0  0  0  0
  1 25  1  0  0  0
  1 30  2  0  0  0
  1 85  1  0  0  0
  2  3  1  0  0  0
  2 25  1  0  0  0
  2 86  1  0  0  0
  2 87  1  0  0  0
  3  4  1  0  0  0
  3 88  1  0  0  0
  3 89  1  0  0  0
  4  5  1  0  0  0
  4 90  1  0  0  0
  4 91  1  0  0  0
  5  6  1  0  0  0
  5 26  1  0  0  0
  5 92  1  0  0  0
  6 25  1  0  0  0
  6 93  1  0  0  0
  6 94  1  0  0  0
  7  8  2  0  0  0
  7 26  1  0  0  0
  7 29  1  0  0  0
  8  9  1  0  0  0
  8 22  1  0  0  0
  9 10  1  0  0  0
  9 27  2  0  0  0
 10 11  2  0  0  0
 10 15  1  0  0  0
 11 12  1  0  0  0
 11 95  1  0  0  0
 12 13  2  0  0  0
 12 96  1  0  0  0
 13 14  1  0  0  0
 13 31  1  0  0  0
 14 15  2  0  0  0
 14 97  1  0  0  0
 15 98  1  0  0  0
 16 17  2  0  0  0
 16 21  1  0  0  0
 16 31  1  0  0  0
 17 18  1  0  0  0
 17 99  1  0  0  0
 18 19  2  0  0  0
 18100  1  0  0  0
 19 20  1  0  0  0
 19 24  1  0  0  0
 20 21  2  0  0  0
 20101  1  0  0  0
 21 23  1  0  0  0
 22 28  1  0  0  0
 22 32  2  0  0  0
 26 27  1  0  0  0
 28102  1  0  0  0
 28103  1  0  0  0
 29104  1  0  0  0
 29105  1  0  0  0
 33 34  1  0  0  0
 33 66  1  0  0  0
 33 70  2  0  0  0
 34 36  1  0  0  0
 34 59  1  0  0  0
 34106  1  0  0  0
 35 44  2  0  0  0
 35 45  1  0  0  0
 35 68  1  0  0  0
 36 56  1  0  0  0
 36107  1  0  0  0
 37 39  1  0  0  0
 37 47  1  0  0  0
 37 66  1  0  0  0
 37108  1  0  0  0
 38 43  2  0  0  0
 38 46  1  0  0  0
 38 47  1  0  0  0
 39 64  1  0  0  0
 39 67  2  0  0  0
 40 52  1  0  0  0
 40 53  2  0  0  0
 40 58  1  0  0  0
 41109  1  0  0  0
 41110  1  0  0  0
 41111  1  0  0  0
 41 48  1  0  0  0
 42 43  1  0  0  0
 42 66  1  0  0  0
 42112  1  0  0  0
 42113  1  0  0  0
 43 44  1  0  0  0
 44114  1  0  0  0
 45 46  2  0  0  0
 45115  1  0  0  0
 46116  1  0  0  0
 47117  1  0  0  0
 47118  1  0  0  0
 48 56  1  0  0  0
 48 65  1  0  0  0
 48119  1  0  0  0
 49 50  1  0  0  0
 49 53  1  0  0  0
 49 64  1  0  0  0
 49120  1  0  0  0
 50 51  1  0  0  0
 50121  1  0  0  0
 50122  1  0  0  0
 51 52  1  0  0  0
 51123  1  0  0  0
 51124  1  0  0  0
 52125  1  0  0  0
 52126  1  0  0  0
 53 54  1  0  0  0
 54 55  2  0  0  0
 54127  1  0  0  0
 55 57  1  0  0  0
 55128  1  0  0  0
 56 69  2  0  0  0
 57 58  2  0  0  0
 57129  1  0  0  0
 58130  1  0  0  0
 59 60  1  0  0  0
 59 61  1  0  0  0
 59 62  1  0  0  0
 60131  1  0  0  0
 60132  1  0  0  0
 60133  1  0  0  0
 61134  1  0  0  0
 61135  1  0  0  0
 61136  1  0  0  0
 62137  1  0  0  0
 62138  1  0  0  0
 62139  1  0  0  0
 63 65  1  0  0  0
 63140  1  0  0  0
 63141  1  0  0  0
 63142  1  0  0  0
 64143  1  0  0  0
 65144  1  0  0  0
 68 84  1  0  0  0
 71 72  2  0  0  0
 71 73  1  0  0  0
 71 79  1  0  0  0
 72 75  1  0  0  0
 72 80  1  0  0  0
 73 76  2  0  0  0
 73 81  1  0  0  0
 74 75  2  0  0  0
 74 76  1  0  0  0
 74 82  1  0  0  0
 75 83  1  0  0  0
 76 84  1  0  0  0
 77 78  1  0  0  0
 77 85  1  0  0  0
 77145  1  0  0  0
 77146  1  0  0  0
 78 83  1  0  0  0
 78 85  1  0  0  0
 78147  1  0  0  0
 79148  1  0  0  0
 79149  1  0  0  0
 79150  1  0  0  0
 80151  1  0  0  0
 80152  1  0  0  0
 80153  1  0  0  0
 81154  1  0  0  0
 81155  1  0  0  0
 81156  1  0  0  0
 82157  1  0  0  0
 82158  1  0  0  0
 82159  1  0  0  0
 83160  1  0  0  0
 83161  1  0  0  0
 84162  1  0  0  0
 84163  1  0  0  0
M  ISO  4   1 100  68 101  84 101  85 100
M  END
> <chiral flag>
0

> <version>
0

> <s_m_source_file>
/data/baiqing/PycharmProjects/Reinvent-master-3.2/result/LINK_invent/BTK/process_docking_weight1_custom_sum_contain_oxygen_bond_distance_aromatic_linkinvent_7_9_3/rearranged_h_0167.sdf

> <i_m_source_file_index>
41

> <r_mmod_Potential_Energy-OPLS-2005>
716.226318359375

> <r_mmod_Stretch_Energy-OPLS-2005>
308.117919921875

> <r_mmod_Bend_Energy-OPLS-2005>
274.548645019531

> <r_mmod_Torsional_Energy-OPLS-2005>
314.93798828125

> <r_mmod_Improper_Torsional_Energy-OPLS-2005>
11.2109146118164

> <r_mmod_Van_der_Waal_Energy-OPLS-2005>
159.141235351562

> <r_mmod_Electrostatic_Energy-OPLS-2005>
-359.600952148438

> <r_mmod_Solvation_Energy-OPLS-2005>
-200.919555664062

> <b_mmod_Minimization_Converged-OPLS-2005>
0

> <r_mmod_RMS_Derivative-OPLS-2005>
2.39394569396973

$$$$
41
                    3D
 Structure written by MMmdl.
170179  0  0  1  0            999 V2000
  -30.7361  -14.4943   20.5917 C   0  0  0  0  0  0
  -30.4144  -12.3398   19.4193 C   0  0  0  0  0  0
  -29.4870  -12.5299   18.2030 C   0  0  0  0  0  0
  -28.0140  -12.3546   18.6185 C   0  0  0  0  0  0
  -27.6535  -13.1959   19.8716 C   0  0  2  0  0  0
  -28.7040  -13.0066   20.9938 C   0  0  0  0  0  0
  -25.2561  -13.8119   20.5679 C   0  0  0  0  0  0
  -24.1814  -13.0411   20.9191 C   0  0  0  0  0  0
  -24.6351  -11.6871   20.8715 C   0  0  0  0  0  0
  -23.9014  -10.4270   21.0375 C   0  0  0  0  0  0
  -24.3588   -9.4205   21.9167 C   0  0  0  0  0  0
  -23.6287   -8.2229   22.0736 C   0  0  0  0  0  0
  -22.4271   -8.0254   21.3530 C   0  0  0  0  0  0
  -21.9883   -9.0214   20.4621 C   0  0  0  0  0  0
  -22.7180  -10.2112   20.3032 C   0  0  0  0  0  0
  -21.6849   -6.0719   22.5280 C   0  0  0  0  0  0
  -21.4003   -6.5629   23.8216 C   0  0  0  0  0  0
  -21.3667   -5.6789   24.9180 C   0  0  0  0  0  0
  -21.6051   -4.3049   24.7234 C   0  0  0  0  0  0
  -21.8823   -3.8139   23.4352 C   0  0  0  0  0  0
  -21.9197   -4.6954   22.3407 C   0  0  0  0  0  0
  -22.7852  -13.5223   21.1869 C   0  0  0  0  0  0
  -22.1661   -4.2137   21.0984 F   0  0  0  0  0  0
  -21.5643   -3.4533   25.7753 F   0  0  0  0  0  0
  -30.0258  -13.3339   20.4370 N   0  0  0  0  0  0
  -26.2980  -12.9256   20.3381 N   0  0  0  0  0  0
  -25.9277  -11.6427   20.5770 N   0  0  0  0  0  0
  -22.0486  -12.8211   22.0412 N   0  0  0  0  0  0
  -25.4260  -15.1835   20.4040 N   0  0  0  0  0  0
  -31.8611  -14.6246   20.0994 O   0  0  0  0  0  0
  -21.6638   -6.8851   21.4233 O   0  0  0  0  0  0
  -22.3552  -14.5540   20.6731 O   0  0  0  0  0  0
  -24.6160  -31.8670   23.2094 C   0  0  0  0  0  0
  -25.9053  -32.4813   23.8387 C   0  0  1  0  0  0
  -27.2385  -27.4208   20.0732 C   0  0  0  0  0  0
  -25.5901  -33.8616   24.2315 N   0  0  0  0  0  0
  -23.4037  -30.4911   21.5515 C   0  0  2  0  0  0
  -24.8478  -28.9579   20.1121 C   0  0  0  0  0  0
  -22.7418  -29.4650   22.5000 C   0  0  0  0  0  0
  -18.0272  -28.1381   22.8490 C   0  0  0  0  0  0
  -24.1485  -36.7299   23.2632 C   0  0  0  0  0  0
  -25.9357  -30.8249   21.3663 C   0  0  0  0  0  0
  -26.0103  -29.4606   20.7070 C   0  0  0  0  0  0
  -27.2022  -28.6973   20.6884 C   0  0  0  0  0  0
  -26.0443  -26.9337   19.4862 C   0  0  0  0  0  0
  -24.8606  -27.6937   19.5028 C   0  0  0  0  0  0
  -23.6098  -29.8246   20.1658 C   0  0  0  0  0  0
  -25.4114  -36.3105   24.0330 C   0  0  1  0  0  0
  -20.5864  -28.3663   23.1319 C   0  0  2  0  0  0
  -20.6765  -26.9401   22.5416 C   0  0  0  0  0  0
  -19.5743  -26.6386   21.5208 C   0  0  0  0  0  0
  -18.1923  -26.7928   22.1616 C   0  0  0  0  0  0
  -19.1526  -28.8838   23.2898 C   0  0  0  0  0  0
  -18.9449  -30.1452   23.8910 C   0  0  0  0  0  0
  -17.6450  -30.6587   24.0567 C   0  0  0  0  0  0
  -25.9048  -34.9469   23.5120 C   0  0  0  0  0  0
  -16.5340  -29.9084   23.6328 C   0  0  0  0  0  0
  -16.7262  -28.6504   23.0346 C   0  0  0  0  0  0
  -26.4481  -31.6596   25.0719 C   0  0  0  0  0  0
  -25.3738  -31.3690   26.1452 C   0  0  0  0  0  0
  -27.0309  -30.3035   24.6099 C   0  0  0  0  0  0
  -27.6064  -32.4313   25.7481 C   0  0  0  0  0  0
  -27.5586  -37.1800   24.8464 C   0  0  0  0  0  0
  -21.4148  -29.3025   22.3728 N   0  0  0  0  0  0
  -26.4296  -37.3795   23.9413 N   0  0  0  0  0  0
  -24.6704  -31.0756   22.0998 N   0  0  0  0  0  0
  -23.4180  -28.8195   23.3052 O   0  0  0  0  0  0
  -28.4185  -26.6952   20.1264 O   0  0  0  0  0  0
  -26.5613  -34.8925   22.4687 O   0  0  0  0  0  0
  -23.5358  -32.1436   23.7479 O   0  0  0  0  0  0
  -31.8362  -23.9434   20.6967 C   0  0  0  0  0  0
  -30.9104  -24.9071   20.2596 C   0  0  0  0  0  0
  -31.5460  -22.5699   20.6299 C   0  0  0  0  0  0
  -29.3006  -23.1121   19.7982 C   0  0  0  0  0  0
  -29.6245  -24.5107   19.8085 C   0  0  0  0  0  0
  -30.2884  -22.1333   20.1406 C   0  0  0  0  0  0
  -31.4170  -17.7363   21.4439 C   0  0  0  0  0  0
  -28.9067  -17.7146   21.2319 C   0  0  0  0  0  0
  -31.1006  -16.3774   22.1296 C   0  0  0  0  0  0
  -28.9420  -16.1893   20.9471 C   0  0  0  0  0  0
  -30.1980  -18.3909   20.7570 C   0  0  0  0  0  0
  -31.3470  -26.3644   20.2692 C   0  0  0  0  0  0
  -32.6240  -21.5868   21.0651 C   0  0  0  0  0  0
  -27.8968  -22.6500   19.4066 C   0  0  0  0  0  0
  -28.6673  -25.5861   19.2390 C   0  0  0  0  0  0
  -30.0874  -20.6254   19.8720 C   0  0  0  0  0  0
  -30.2035  -15.5092   21.3359 N   0  0  0  0  0  0
  -30.1554  -19.7974   21.0371 O   0  0  0  0  0  0
  -31.4579  -12.4306   19.1128 H   0  0  0  0  0  0
  -30.3162  -11.3304   19.8206 H   0  0  0  0  0  0
  -29.7448  -11.8218   17.4139 H   0  0  0  0  0  0
  -29.6337  -13.5258   17.7807 H   0  0  0  0  0  0
  -27.8508  -11.2957   18.8202 H   0  0  0  0  0  0
  -27.3554  -12.6098   17.7867 H   0  0  0  0  0  0
  -27.6726  -14.2319   19.5468 H   0  0  0  0  0  0
  -28.6991  -11.9715   21.3378 H   0  0  0  0  0  0
  -28.4681  -13.5975   21.8784 H   0  0  0  0  0  0
  -25.2724   -9.5715   22.4752 H   0  0  0  0  0  0
  -24.0012   -7.4631   22.7453 H   0  0  0  0  0  0
  -21.0824   -8.8692   19.8932 H   0  0  0  0  0  0
  -22.3596  -10.9649   19.6155 H   0  0  0  0  0  0
  -21.1961   -7.6135   23.9716 H   0  0  0  0  0  0
  -21.1500   -6.0514   25.9090 H   0  0  0  0  0  0
  -22.0596   -2.7600   23.2857 H   0  0  0  0  0  0
  -22.4093  -11.9874   22.4811 H   0  0  0  0  0  0
  -21.1091  -13.1229   22.2598 H   0  0  0  0  0  0
  -24.6539  -15.8340   20.5018 H   0  0  0  0  0  0
  -26.2766  -15.6249   20.0789 H   0  0  0  0  0  0
  -26.7116  -32.5511   23.1142 H   0  0  0  0  0  0
  -25.0049  -33.9787   25.0456 H   0  0  0  0  0  0
  -22.6921  -31.3074   21.4140 H   0  0  0  0  0  0
  -23.3759  -35.9617   23.3296 H   0  0  0  0  0  0
  -24.3577  -36.8918   22.2046 H   0  0  0  0  0  0
  -23.7222  -37.6495   23.6654 H   0  0  0  0  0  0
  -26.0558  -31.5942   20.6022 H   0  0  0  0  0  0
  -26.8200  -30.8715   21.9897 H   0  0  0  0  0  0
  -28.1006  -29.0841   21.1495 H   0  0  0  0  0  0
  -25.9704  -25.9608   19.0298 H   0  0  0  0  0  0
  -23.9629  -27.2940   19.0512 H   0  0  0  0  0  0
  -23.7142  -30.5996   19.4053 H   0  0  0  0  0  0
  -22.7332  -29.2432   19.8733 H   0  0  0  0  0  0
  -25.1295  -36.1964   25.0825 H   0  0  0  0  0  0
  -20.9949  -28.3221   24.1439 H   0  0  0  0  0  0
  -20.5669  -26.2269   23.3599 H   0  0  0  0  0  0
  -21.6636  -26.7450   22.1200 H   0  0  0  0  0  0
  -19.6905  -25.6298   21.1234 H   0  0  0  0  0  0
  -19.6692  -27.3204   20.6747 H   0  0  0  0  0  0
  -17.4193  -26.6678   21.4013 H   0  0  0  0  0  0
  -18.0322  -26.0068   22.9012 H   0  0  0  0  0  0
  -19.7929  -30.7265   24.2276 H   0  0  0  0  0  0
  -17.5007  -31.6270   24.5158 H   0  0  0  0  0  0
  -15.5343  -30.2990   23.7659 H   0  0  0  0  0  0
  -15.8656  -28.0830   22.7055 H   0  0  0  0  0  0
  -24.5921  -30.7035   25.7769 H   0  0  0  0  0  0
  -24.8909  -32.2832   26.4914 H   0  0  0  0  0  0
  -25.8073  -30.8840   27.0202 H   0  0  0  0  0  0
  -26.2844  -29.6797   24.1159 H   0  0  0  0  0  0
  -27.4082  -29.7280   25.4562 H   0  0  0  0  0  0
  -27.8687  -30.4356   23.9247 H   0  0  0  0  0  0
  -27.2697  -33.3616   26.2074 H   0  0  0  0  0  0
  -28.3864  -32.6864   25.0292 H   0  0  0  0  0  0
  -28.0735  -31.8413   26.5377 H   0  0  0  0  0  0
  -28.2599  -38.0104   24.7542 H   0  0  0  0  0  0
  -28.1091  -36.2640   24.6262 H   0  0  0  0  0  0
  -27.2304  -37.1410   25.8866 H   0  0  0  0  0  0
  -20.9311  -29.8734   21.6940 H   0  0  0  0  0  0
  -26.0182  -38.2868   24.1435 H   0  0  0  0  0  0
  -32.8092  -24.2622   21.0458 H   0  0  0  0  0  0
  -32.2100  -17.6018   20.7072 H   0  0  0  0  0  0
  -31.8301  -18.4116   22.1932 H   0  0  0  0  0  0
  -28.7679  -17.8996   22.2988 H   0  0  0  0  0  0
  -28.0453  -18.1651   20.7389 H   0  0  0  0  0  0
  -30.6176  -16.5665   23.0893 H   0  0  0  0  0  0
  -32.0330  -15.8682   22.3800 H   0  0  0  0  0  0
  -28.7926  -16.0662   19.8739 H   0  0  0  0  0  0
  -28.0941  -15.7270   21.4495 H   0  0  0  0  0  0
  -30.2845  -18.2099   19.6841 H   0  0  0  0  0  0
  -32.4053  -26.4633   20.5121 H   0  0  0  0  0  0
  -30.7879  -26.9331   21.0125 H   0  0  0  0  0  0
  -31.1965  -26.8231   19.2921 H   0  0  0  0  0  0
  -33.4688  -22.0970   21.5295 H   0  0  0  0  0  0
  -33.0019  -21.0189   20.2146 H   0  0  0  0  0  0
  -32.2384  -20.8885   21.8065 H   0  0  0  0  0  0
  -27.1270  -23.3530   19.7200 H   0  0  0  0  0  0
  -27.6168  -21.7230   19.9049 H   0  0  0  0  0  0
  -27.8231  -22.4997   18.3297 H   0  0  0  0  0  0
  -27.7799  -25.1292   18.8269 H   0  0  0  0  0  0
  -29.1568  -26.0025   18.3581 H   0  0  0  0  0  0
  -30.8884  -20.3346   19.1900 H   0  0  0  0  0  0
  -29.1739  -20.4045   19.3234 H   0  0  0  0  0  0
  1 25  1  0  0  0
  1 30  2  0  0  0
  1 87  1  0  0  0
  2  3  1  0  0  0
  2 25  1  0  0  0
  2 89  1  0  0  0
  2 90  1  0  0  0
  3  4  1  0  0  0
  3 91  1  0  0  0
  3 92  1  0  0  0
  4  5  1  0  0  0
  4 93  1  0  0  0
  4 94  1  0  0  0
  5  6  1  0  0  0
  5 26  1  0  0  0
  5 95  1  0  0  0
  6 25  1  0  0  0
  6 96  1  0  0  0
  6 97  1  0  0  0
  7  8  2  0  0  0
  7 26  1  0  0  0
  7 29  1  0  0  0
  8  9  1  0  0  0
  8 22  1  0  0  0
  9 10  1  0  0  0
  9 27  2  0  0  0
 10 11  2  0  0  0
 10 15  1  0  0  0
 11 12  1  0  0  0
 11 98  1  0  0  0
 12 13  2  0  0  0
 12 99  1  0  0  0
 13 14  1  0  0  0
 13 31  1  0  0  0
 14 15  2  0  0  0
 14100  1  0  0  0
 15101  1  0  0  0
 16 17  2  0  0  0
 16 21  1  0  0  0
 16 31  1  0  0  0
 17 18  1  0  0  0
 17102  1  0  0  0
 18 19  2  0  0  0
 18103  1  0  0  0
 19 20  1  0  0  0
 19 24  1  0  0  0
 20 21  2  0  0  0
 20104  1  0  0  0
 21 23  1  0  0  0
 22 28  1  0  0  0
 22 32  2  0  0  0
 26 27  1  0  0  0
 28105  1  0  0  0
 28106  1  0  0  0
 29107  1  0  0  0
 29108  1  0  0  0
 33 34  1  0  0  0
 33 66  1  0  0  0
 33 70  2  0  0  0
 34 36  1  0  0  0
 34 59  1  0  0  0
 34109  1  0  0  0
 35 44  2  0  0  0
 35 45  1  0  0  0
 35 68  1  0  0  0
 36 56  1  0  0  0
 36110  1  0  0  0
 37 39  1  0  0  0
 37 47  1  0  0  0
 37 66  1  0  0  0
 37111  1  0  0  0
 38 43  2  0  0  0
 38 46  1  0  0  0
 38 47  1  0  0  0
 39 64  1  0  0  0
 39 67  2  0  0  0
 40 52  1  0  0  0
 40 53  2  0  0  0
 40 58  1  0  0  0
 41112  1  0  0  0
 41113  1  0  0  0
 41114  1  0  0  0
 41 48  1  0  0  0
 42 43  1  0  0  0
 42 66  1  0  0  0
 42115  1  0  0  0
 42116  1  0  0  0
 43 44  1  0  0  0
 44117  1  0  0  0
 45 46  2  0  0  0
 45118  1  0  0  0
 46119  1  0  0  0
 47120  1  0  0  0
 47121  1  0  0  0
 48 56  1  0  0  0
 48 65  1  0  0  0
 48122  1  0  0  0
 49 50  1  0  0  0
 49 53  1  0  0  0
 49 64  1  0  0  0
 49123  1  0  0  0
 50 51  1  0  0  0
 50124  1  0  0  0
 50125  1  0  0  0
 51 52  1  0  0  0
 51126  1  0  0  0
 51127  1  0  0  0
 52128  1  0  0  0
 52129  1  0  0  0
 53 54  1  0  0  0
 54 55  2  0  0  0
 54130  1  0  0  0
 55 57  1  0  0  0
 55131  1  0  0  0
 56 69  2  0  0  0
 57 58  2  0  0  0
 57132  1  0  0  0
 58133  1  0  0  0
 59 60  1  0  0  0
 59 61  1  0  0  0
 59 62  1  0  0  0
 60134  1  0  0  0
 60135  1  0  0  0
 60136  1  0  0  0
 61137  1  0  0  0
 61138  1  0  0  0
 61139  1  0  0  0
 62140  1  0  0  0
 62141  1  0  0  0
 62142  1  0  0  0
 63 65  1  0  0  0
 63143  1  0  0  0
 63144  1  0  0  0
 63145  1  0  0  0
 64146  1  0  0  0
 65147  1  0  0  0
 68 85  1  0  0  0
 71 72  2  0  0  0
 71 73  1  0  0  0
 71148  1  0  0  0
 72 75  1  0  0  0
 72 82  1  0  0  0
 73 76  2  0  0  0
 73 83  1  0  0  0
 74 75  2  0  0  0
 74 76  1  0  0  0
 74 84  1  0  0  0
 75 85  1  0  0  0
 76 86  1  0  0  0
 77 79  1  0  0  0
 77 81  1  0  0  0
 77149  1  0  0  0
 77150  1  0  0  0
 78 80  1  0  0  0
 78 81  1  0  0  0
 78151  1  0  0  0
 78152  1  0  0  0
 79 87  1  0  0  0
 79153  1  0  0  0
 79154  1  0  0  0
 80 87  1  0  0  0
 80155  1  0  0  0
 80156  1  0  0  0
 81 88  1  0  0  0
 81157  1  0  0  0
 82158  1  0  0  0
 82159  1  0  0  0
 82160  1  0  0  0
 83161  1  0  0  0
 83162  1  0  0  0
 83163  1  0  0  0
 84164  1  0  0  0
 84165  1  0  0  0
 84166  1  0  0  0
 85167  1  0  0  0
 85168  1  0  0  0
 86 88  1  0  0  0
 86169  1  0  0  0
 86170  1  0  0  0
M  ISO  4   1 100  68 101  85 101  87 100
M  END
> <chiral flag>
0

> <version>
0

> <s_m_source_file>
/data/baiqing/PycharmProjects/Reinvent-master-3.2/result/LINK_invent/BTK/process_docking_weight1_custom_sum_contain_oxygen_bond_distance_aromatic_linkinvent_7_9_3/rearranged_h_0167.sdf

> <i_m_source_file_index>
42

> <r_mmod_Potential_Energy-OPLS-2005>
252.314559936523

> <r_mmod_Stretch_Energy-OPLS-2005>
52.0724029541016

> <r_mmod_Bend_Energy-OPLS-2005>
121.586135864258

> <r_mmod_Torsional_Energy-OPLS-2005>
346.029998779297

> <r_mmod_Improper_Torsional_Energy-OPLS-2005>
4.45659780502319

> <r_mmod_Van_der_Waal_Energy-OPLS-2005>
180.343978881836

> <r_mmod_Electrostatic_Energy-OPLS-2005>
-267.142456054688

> <r_mmod_Solvation_Energy-OPLS-2005>
-201.340454101562

> <b_mmod_Minimization_Converged-OPLS-2005>
0

> <r_mmod_RMS_Derivative-OPLS-2005>
1.88158345222473

$$$$
42
                    3D
 Structure written by MMmdl.
155164  0  0  1  0            999 V2000
  -30.5834  -14.9579   20.4321 C   0  0  0  0  0  0
  -30.4553  -12.5929   19.5398 C   0  0  0  0  0  0
  -29.5420  -12.5306   18.2940 C   0  0  0  0  0  0
  -28.0787  -12.3075   18.7151 C   0  0  0  0  0  0
  -27.6419  -13.2573   19.8604 C   0  0  2  0  0  0
  -28.6816  -13.3241   21.0109 C   0  0  0  0  0  0
  -25.2289  -13.8146   20.5570 C   0  0  0  0  0  0
  -24.1696  -13.0343   20.9258 C   0  0  0  0  0  0
  -24.6420  -11.6902   20.8826 C   0  0  0  0  0  0
  -23.9123  -10.4253   21.0468 C   0  0  0  0  0  0
  -24.3654   -9.4159   21.9235 C   0  0  0  0  0  0
  -23.6293   -8.2203   22.0770 C   0  0  0  0  0  0
  -22.4282   -8.0258   21.3554 C   0  0  0  0  0  0
  -21.9949   -9.0255   20.4664 C   0  0  0  0  0  0
  -22.7301  -10.2123   20.3097 C   0  0  0  0  0  0
  -21.6838   -6.0731   22.5280 C   0  0  0  0  0  0
  -21.3994   -6.5625   23.8216 C   0  0  0  0  0  0
  -21.3652   -5.6781   24.9178 C   0  0  0  0  0  0
  -21.6032   -4.3045   24.7229 C   0  0  0  0  0  0
  -21.8814   -3.8132   23.4352 C   0  0  0  0  0  0
  -21.9184   -4.6952   22.3405 C   0  0  0  0  0  0
  -22.7694  -13.5094   21.1863 C   0  0  0  0  0  0
  -22.1654   -4.2121   21.0987 F   0  0  0  0  0  0
  -21.5642   -3.4529   25.7755 F   0  0  0  0  0  0
  -29.9856  -13.6964   20.4359 N   0  0  0  0  0  0
  -26.2914  -12.9494   20.3374 N   0  0  0  0  0  0
  -25.9390  -11.6636   20.5927 N   0  0  0  0  0  0
  -22.0367  -12.8147   22.0485 N   0  0  0  0  0  0
  -25.3465  -15.1807   20.3573 N   0  0  0  0  0  0
  -31.7231  -15.0386   19.9619 O   0  0  0  0  0  0
  -21.6611   -6.8887   21.4255 O   0  0  0  0  0  0
  -22.3376  -14.5391   20.6692 O   0  0  0  0  0  0
  -24.6431  -31.8417   23.1825 C   0  0  0  0  0  0
  -25.9218  -32.4690   23.8197 C   0  0  1  0  0  0
  -27.2348  -27.1680   20.1473 C   0  0  0  0  0  0
  -25.5892  -33.8470   24.2124 N   0  0  0  0  0  0
  -23.4413  -30.4624   21.5351 C   0  0  2  0  0  0
  -24.8935  -28.8861   20.1147 C   0  0  0  0  0  0
  -22.7574  -29.4488   22.4862 C   0  0  0  0  0  0
  -18.0287  -28.1524   22.8537 C   0  0  0  0  0  0
  -24.1488  -36.7285   23.2635 C   0  0  0  0  0  0
  -25.9979  -30.7260   21.3791 C   0  0  0  0  0  0
  -26.0731  -29.3400   20.7239 C   0  0  0  0  0  0
  -27.2415  -28.4961   20.7281 C   0  0  0  0  0  0
  -26.0263  -26.7988   19.5113 C   0  0  0  0  0  0
  -24.8804  -27.6253   19.4945 C   0  0  0  0  0  0
  -23.6675  -29.7878   20.1555 C   0  0  0  0  0  0
  -25.4116  -36.3010   24.0304 C   0  0  1  0  0  0
  -20.5878  -28.3747   23.1256 C   0  0  2  0  0  0
  -20.6724  -26.9366   22.5586 C   0  0  0  0  0  0
  -19.5695  -26.6248   21.5408 C   0  0  0  0  0  0
  -18.1832  -26.8065   22.1647 C   0  0  0  0  0  0
  -19.1586  -28.8976   23.2842 C   0  0  0  0  0  0
  -18.9628  -30.1553   23.8868 C   0  0  0  0  0  0
  -17.6666  -30.6749   24.0666 C   0  0  0  0  0  0
  -25.9049  -34.9387   23.5045 C   0  0  0  0  0  0
  -16.5483  -29.9295   23.6520 C   0  0  0  0  0  0
  -16.7327  -28.6730   23.0431 C   0  0  0  0  0  0
  -26.4574  -31.6524   25.0618 C   0  0  0  0  0  0
  -25.3844  -31.3692   26.1377 C   0  0  0  0  0  0
  -27.0427  -30.2919   24.6169 C   0  0  0  0  0  0
  -27.6121  -32.4298   25.7337 C   0  0  0  0  0  0
  -27.5566  -37.1786   24.8460 C   0  0  0  0  0  0
  -21.4258  -29.3016   22.3633 N   0  0  0  0  0  0
  -26.4281  -37.3721   23.9409 N   0  0  0  0  0  0
  -24.7129  -31.0301   22.0876 N   0  0  0  0  0  0
  -23.4283  -28.8022   23.2959 O   0  0  0  0  0  0
  -28.3178  -26.2244   20.2133 O   0  0  0  0  0  0
  -26.5706  -34.8916   22.4655 O   0  0  0  0  0  0
  -23.5565  -32.1293   23.7073 O   0  0  0  0  0  0
  -29.9671  -21.1343   19.3808 C   0  0  0  0  0  0
  -29.2419  -21.9011   20.3489 C   0  0  0  0  0  0
  -28.7134  -20.9905   21.3200 C   0  0  0  0  0  0
  -29.5667  -18.9594   20.3327 C   0  0  0  0  0  0
  -27.8576  -17.0994   19.9009 C   0  0  0  0  0  0
  -28.7334  -16.9278   18.7105 C   0  0  0  0  0  0
  -29.3485  -17.3356   20.0520 C   0  0  0  0  0  0
  -27.9268  -21.5381   22.4960 C   0  0  0  0  0  0
  -29.2709  -23.5560   20.4730 C   0  0  0  0  0  0
  -28.1160  -24.6941   20.0710 C   0  0  0  0  0  0
  -30.1073  -19.7518   19.3741 N   0  0  0  0  0  0
  -28.8588  -19.6065   21.2904 N   0  0  0  0  0  0
  -29.8945  -16.1241   20.8439 N   0  0  0  0  0  0
  -31.4967  -12.7215   19.2338 H   0  0  0  0  0  0
  -30.4202  -11.6468   20.0794 H   0  0  0  0  0  0
  -29.8657  -11.7245   17.6300 H   0  0  0  0  0  0
  -29.6300  -13.4574   17.7228 H   0  0  0  0  0  0
  -28.0007  -11.2772   19.0667 H   0  0  0  0  0  0
  -27.4099  -12.3998   17.8581 H   0  0  0  0  0  0
  -27.5910  -14.2443   19.4083 H   0  0  0  0  0  0
  -28.7551  -12.3826   21.5552 H   0  0  0  0  0  0
  -28.3740  -14.0713   21.7449 H   0  0  0  0  0  0
  -25.2812   -9.5554   22.4824 H   0  0  0  0  0  0
  -23.9945   -7.4561   22.7498 H   0  0  0  0  0  0
  -21.0869   -8.8792   19.8970 H   0  0  0  0  0  0
  -22.3787  -10.9662   19.6177 H   0  0  0  0  0  0
  -21.1976   -7.6126   23.9693 H   0  0  0  0  0  0
  -21.1489   -6.0529   25.9081 H   0  0  0  0  0  0
  -22.0611   -2.7580   23.2864 H   0  0  0  0  0  0
  -22.4002  -11.9852   22.4929 H   0  0  0  0  0  0
  -21.0958  -13.1148   22.2681 H   0  0  0  0  0  0
  -24.5130  -15.7633   20.3536 H   0  0  0  0  0  0
  -26.1204  -15.6032   19.8596 H   0  0  0  0  0  0
  -26.7310  -32.5303   23.0922 H   0  0  0  0  0  0
  -24.9894  -33.9563   25.0176 H   0  0  0  0  0  0
  -22.7415  -31.2897   21.3908 H   0  0  0  0  0  0
  -23.3730  -35.9624   23.3272 H   0  0  0  0  0  0
  -24.3566  -36.8955   22.2055 H   0  0  0  0  0  0
  -23.7289  -37.6492   23.6715 H   0  0  0  0  0  0
  -26.1487  -31.4803   20.6030 H   0  0  0  0  0  0
  -26.8668  -30.7737   22.0264 H   0  0  0  0  0  0
  -28.1366  -28.8410   21.2341 H   0  0  0  0  0  0
  -25.9452  -25.8316   19.0381 H   0  0  0  0  0  0
  -23.9834  -27.2672   19.0053 H   0  0  0  0  0  0
  -23.7950  -30.5616   19.4005 H   0  0  0  0  0  0
  -22.7810  -29.2311   19.8433 H   0  0  0  0  0  0
  -25.1315  -36.1836   25.0808 H   0  0  0  0  0  0
  -20.9933  -28.3422   24.1384 H   0  0  0  0  0  0
  -20.5459  -26.2440   23.3919 H   0  0  0  0  0  0
  -21.6628  -26.7376   22.1462 H   0  0  0  0  0  0
  -19.6727  -25.6058   21.1648 H   0  0  0  0  0  0
  -19.6791  -27.2922   20.6838 H   0  0  0  0  0  0
  -17.4195  -26.7067   21.3908 H   0  0  0  0  0  0
  -17.9928  -26.0302   22.9010 H   0  0  0  0  0  0
  -19.8163  -30.7350   24.2155 H   0  0  0  0  0  0
  -17.5364  -31.6393   24.5340 H   0  0  0  0  0  0
  -15.5553  -30.3292   23.8014 H   0  0  0  0  0  0
  -15.8626  -28.1168   22.7150 H   0  0  0  0  0  0
  -24.6041  -30.6990   25.7761 H   0  0  0  0  0  0
  -24.8986  -32.2853   26.4732 H   0  0  0  0  0  0
  -25.8222  -30.8965   27.0189 H   0  0  0  0  0  0
  -26.3058  -29.6644   24.1140 H   0  0  0  0  0  0
  -27.4070  -29.7186   25.4701 H   0  0  0  0  0  0
  -27.8957  -30.4156   23.9494 H   0  0  0  0  0  0
  -27.2754  -33.3655   26.1834 H   0  0  0  0  0  0
  -28.3915  -32.6766   25.0123 H   0  0  0  0  0  0
  -28.0842  -31.8491   26.5276 H   0  0  0  0  0  0
  -28.2573  -38.0091   24.7498 H   0  0  0  0  0  0
  -28.1079  -36.2625   24.6298 H   0  0  0  0  0  0
  -27.2271  -37.1431   25.8852 H   0  0  0  0  0  0
  -20.9530  -29.8873   21.6876 H   0  0  0  0  0  0
  -26.0159  -38.2775   24.1432 H   0  0  0  0  0  0
  -30.4876  -21.6639   18.5917 H   0  0  0  0  0  0
  -27.5206  -16.2598   20.4982 H   0  0  0  0  0  0
  -27.1994  -17.9647   19.9202 H   0  0  0  0  0  0
  -28.6066  -17.6755   17.9316 H   0  0  0  0  0  0
  -28.8936  -15.9137   18.3445 H   0  0  0  0  0  0
  -27.4830  -20.7388   23.0877 H   0  0  0  0  0  0
  -27.1083  -22.1643   22.1445 H   0  0  0  0  0  0
  -28.5613  -22.1410   23.1459 H   0  0  0  0  0  0
  -30.1893  -23.8777   19.9752 H   0  0  0  0  0  0
  -29.4819  -23.7461   21.5258 H   0  0  0  0  0  0
  -27.2146  -24.4453   20.6374 H   0  0  0  0  0  0
  -27.8635  -24.5175   19.0268 H   0  0  0  0  0  0
  -29.1992  -15.8834   21.5320 H   0  0  0  0  0  0
  1 25  1  0  0  0
  1 30  2  0  0  0
  1 83  1  0  0  0
  2  3  1  0  0  0
  2 25  1  0  0  0
  2 84  1  0  0  0
  2 85  1  0  0  0
  3  4  1  0  0  0
  3 86  1  0  0  0
  3 87  1  0  0  0
  4  5  1  0  0  0
  4 88  1  0  0  0
  4 89  1  0  0  0
  5  6  1  0  0  0
  5 26  1  0  0  0
  5 90  1  0  0  0
  6 25  1  0  0  0
  6 91  1  0  0  0
  6 92  1  0  0  0
  7  8  2  0  0  0
  7 26  1  0  0  0
  7 29  1  0  0  0
  8  9  1  0  0  0
  8 22  1  0  0  0
  9 10  1  0  0  0
  9 27  2  0  0  0
 10 11  2  0  0  0
 10 15  1  0  0  0
 11 12  1  0  0  0
 11 93  1  0  0  0
 12 13  2  0  0  0
 12 94  1  0  0  0
 13 14  1  0  0  0
 13 31  1  0  0  0
 14 15  2  0  0  0
 14 95  1  0  0  0
 15 96  1  0  0  0
 16 17  2  0  0  0
 16 21  1  0  0  0
 16 31  1  0  0  0
 17 18  1  0  0  0
 17 97  1  0  0  0
 18 19  2  0  0  0
 18 98  1  0  0  0
 19 20  1  0  0  0
 19 24  1  0  0  0
 20 21  2  0  0  0
 20 99  1  0  0  0
 21 23  1  0  0  0
 22 28  1  0  0  0
 22 32  2  0  0  0
 26 27  1  0  0  0
 28100  1  0  0  0
 28101  1  0  0  0
 29102  1  0  0  0
 29103  1  0  0  0
 33 34  1  0  0  0
 33 66  1  0  0  0
 33 70  2  0  0  0
 34 36  1  0  0  0
 34 59  1  0  0  0
 34104  1  0  0  0
 35 44  2  0  0  0
 35 45  1  0  0  0
 35 68  1  0  0  0
 36 56  1  0  0  0
 36105  1  0  0  0
 37 39  1  0  0  0
 37 47  1  0  0  0
 37 66  1  0  0  0
 37106  1  0  0  0
 38 43  2  0  0  0
 38 46  1  0  0  0
 38 47  1  0  0  0
 39 64  1  0  0  0
 39 67  2  0  0  0
 40 52  1  0  0  0
 40 53  2  0  0  0
 40 58  1  0  0  0
 41107  1  0  0  0
 41108  1  0  0  0
 41109  1  0  0  0
 41 48  1  0  0  0
 42 43  1  0  0  0
 42 66  1  0  0  0
 42110  1  0  0  0
 42111  1  0  0  0
 43 44  1  0  0  0
 44112  1  0  0  0
 45 46  2  0  0  0
 45113  1  0  0  0
 46114  1  0  0  0
 47115  1  0  0  0
 47116  1  0  0  0
 48 56  1  0  0  0
 48 65  1  0  0  0
 48117  1  0  0  0
 49 50  1  0  0  0
 49 53  1  0  0  0
 49 64  1  0  0  0
 49118  1  0  0  0
 50 51  1  0  0  0
 50119  1  0  0  0
 50120  1  0  0  0
 51 52  1  0  0  0
 51121  1  0  0  0
 51122  1  0  0  0
 52123  1  0  0  0
 52124  1  0  0  0
 53 54  1  0  0  0
 54 55  2  0  0  0
 54125  1  0  0  0
 55 57  1  0  0  0
 55126  1  0  0  0
 56 69  2  0  0  0
 57 58  2  0  0  0
 57127  1  0  0  0
 58128  1  0  0  0
 59 60  1  0  0  0
 59 61  1  0  0  0
 59 62  1  0  0  0
 60129  1  0  0  0
 60130  1  0  0  0
 60131  1  0  0  0
 61132  1  0  0  0
 61133  1  0  0  0
 61134  1  0  0  0
 62135  1  0  0  0
 62136  1  0  0  0
 62137  1  0  0  0
 63 65  1  0  0  0
 63138  1  0  0  0
 63139  1  0  0  0
 63140  1  0  0  0
 64141  1  0  0  0
 65142  1  0  0  0
 68 80  1  0  0  0
 71 72  2  0  0  0
 71 81  1  0  0  0
 71143  1  0  0  0
 72 73  1  0  0  0
 72 79  1  0  0  0
 73 78  1  0  0  0
 73 82  2  0  0  0
 74 77  1  0  0  0
 74 81  2  0  0  0
 74 82  1  0  0  0
 75 76  1  0  0  0
 75 77  1  0  0  0
 75144  1  0  0  0
 75145  1  0  0  0
 76 77  1  0  0  0
 76146  1  0  0  0
 76147  1  0  0  0
 77 83  1  0  0  0
 78148  1  0  0  0
 78149  1  0  0  0
 78150  1  0  0  0
 79 80  1  0  0  0
 79151  1  0  0  0
 79152  1  0  0  0
 80153  1  0  0  0
 80154  1  0  0  0
 83155  1  0  0  0
M  ISO  4   1 100  68 101  80 101  83 100
M  END
> <chiral flag>
0

> <version>
0

> <s_m_source_file>
/data/baiqing/PycharmProjects/Reinvent-master-3.2/result/LINK_invent/BTK/process_docking_weight1_custom_sum_contain_oxygen_bond_distance_aromatic_linkinvent_7_9_3/rearranged_h_0167.sdf

> <i_m_source_file_index>
43

> <r_mmod_Potential_Energy-OPLS-2005>
26.2211647033691

> <r_mmod_Stretch_Energy-OPLS-2005>
229.972763061523

> <r_mmod_Bend_Energy-OPLS-2005>
289.482360839844

> <r_mmod_Torsional_Energy-OPLS-2005>
306.658264160156

> <r_mmod_Improper_Torsional_Energy-OPLS-2005>
13.7688570022583

> <r_mmod_Van_der_Waal_Energy-OPLS-2005>
139.274490356445

> <r_mmod_Electrostatic_Energy-OPLS-2005>
-900.166564941406

> <r_mmod_Solvation_Energy-OPLS-2005>
-239.880981445312

> <b_mmod_Minimization_Converged-OPLS-2005>
0

> <r_mmod_RMS_Derivative-OPLS-2005>
8.36163902282715

$$$$
43
                    3D
 Structure written by MMmdl.
164173  0  0  1  0            999 V2000
  -30.6930  -14.5907   20.4770 C   0  0  0  0  0  0
  -30.4149  -12.3628   19.4424 C   0  0  0  0  0  0
  -29.4935  -12.4824   18.2113 C   0  0  0  0  0  0
  -28.0162  -12.3387   18.6284 C   0  0  0  0  0  0
  -27.6456  -13.2235   19.8497 C   0  0  2  0  0  0
  -28.6925  -13.1074   20.9770 C   0  0  0  0  0  0
  -25.2543  -13.8210   20.5698 C   0  0  0  0  0  0
  -24.1816  -13.0462   20.9196 C   0  0  0  0  0  0
  -24.6385  -11.6933   20.8742 C   0  0  0  0  0  0
  -23.9059  -10.4313   21.0402 C   0  0  0  0  0  0
  -24.3613   -9.4227   21.9180 C   0  0  0  0  0  0
  -23.6295   -8.2256   22.0761 C   0  0  0  0  0  0
  -22.4283   -8.0282   21.3544 C   0  0  0  0  0  0
  -21.9904   -9.0262   20.4655 C   0  0  0  0  0  0
  -22.7228  -10.2143   20.3055 C   0  0  0  0  0  0
  -21.6856   -6.0727   22.5278 C   0  0  0  0  0  0
  -21.4021   -6.5631   23.8213 C   0  0  0  0  0  0
  -21.3666   -5.6787   24.9177 C   0  0  0  0  0  0
  -21.6045   -4.3047   24.7232 C   0  0  0  0  0  0
  -21.8821   -3.8135   23.4355 C   0  0  0  0  0  0
  -21.9198   -4.6952   22.3408 C   0  0  0  0  0  0
  -22.7842  -13.5254   21.1853 C   0  0  0  0  0  0
  -22.1660   -4.2134   21.0986 F   0  0  0  0  0  0
  -21.5631   -3.4537   25.7744 F   0  0  0  0  0  0
  -30.0022  -13.4147   20.3911 N   0  0  0  0  0  0
  -26.2956  -12.9396   20.3289 N   0  0  0  0  0  0
  -25.9311  -11.6544   20.5758 N   0  0  0  0  0  0
  -22.0471  -12.8262   22.0409 N   0  0  0  0  0  0
  -25.4287  -15.1928   20.4132 N   0  0  0  0  0  0
  -31.8937  -14.6266   20.1839 O   0  0  0  0  0  0
  -21.6644   -6.8876   21.4243 O   0  0  0  0  0  0
  -22.3535  -14.5568   20.6705 O   0  0  0  0  0  0
  -24.6228  -31.8635   23.2050 C   0  0  0  0  0  0
  -25.9097  -32.4792   23.8364 C   0  0  1  0  0  0
  -27.2214  -27.3573   20.1111 C   0  0  0  0  0  0
  -25.5927  -33.8591   24.2294 N   0  0  0  0  0  0
  -23.4142  -30.4876   21.5456 C   0  0  2  0  0  0
  -24.8607  -28.9466   20.1093 C   0  0  0  0  0  0
  -22.7455  -29.4655   22.4944 C   0  0  0  0  0  0
  -18.0286  -28.1360   22.8504 C   0  0  0  0  0  0
  -24.1490  -36.7297   23.2632 C   0  0  0  0  0  0
  -25.9524  -30.8041   21.3729 C   0  0  0  0  0  0
  -26.0268  -29.4349   20.7140 C   0  0  0  0  0  0
  -27.2132  -28.6503   20.7072 C   0  0  0  0  0  0
  -26.0416  -26.9157   19.4766 C   0  0  0  0  0  0
  -24.8675  -27.6904   19.4816 C   0  0  0  0  0  0
  -23.6278  -29.8229   20.1599 C   0  0  0  0  0  0
  -25.4110  -36.3090   24.0327 C   0  0  1  0  0  0
  -20.5885  -28.3694   23.1280 C   0  0  2  0  0  0
  -20.6796  -26.9409   22.5436 C   0  0  0  0  0  0
  -19.5756  -26.6328   21.5261 C   0  0  0  0  0  0
  -18.1942  -26.7875   22.1686 C   0  0  0  0  0  0
  -19.1534  -28.8843   23.2883 C   0  0  0  0  0  0
  -18.9449  -30.1451   23.8893 C   0  0  0  0  0  0
  -17.6451  -30.6586   24.0543 C   0  0  0  0  0  0
  -25.9044  -34.9459   23.5109 C   0  0  0  0  0  0
  -16.5349  -29.9073   23.6316 C   0  0  0  0  0  0
  -16.7269  -28.6482   23.0360 C   0  0  0  0  0  0
  -26.4489  -31.6592   25.0726 C   0  0  0  0  0  0
  -25.3733  -31.3748   26.1466 C   0  0  0  0  0  0
  -27.0332  -30.3013   24.6181 C   0  0  0  0  0  0
  -27.6057  -32.4329   25.7496 C   0  0  0  0  0  0
  -27.5579  -37.1804   24.8463 C   0  0  0  0  0  0
  -21.4167  -29.3068   22.3686 N   0  0  0  0  0  0
  -26.4295  -37.3781   23.9407 N   0  0  0  0  0  0
  -24.6812  -31.0676   22.0985 N   0  0  0  0  0  0
  -23.4192  -28.8179   23.2999 O   0  0  0  0  0  0
  -28.3358  -26.5236   20.1310 O   0  0  0  0  0  0
  -26.5607  -34.8925   22.4671 O   0  0  0  0  0  0
  -23.5405  -32.1429   23.7393 O   0  0  0  0  0  0
  -28.9925  -21.4065   19.7578 C   0  0  0  0  0  0
  -29.5057  -18.0314   19.2682 C   0  0  0  0  0  0
  -28.7756  -17.7403   21.5779 C   0  0  0  0  0  0
  -30.4009  -16.7655   19.4260 C   0  0  0  0  0  0
  -29.6816  -16.4723   21.7179 C   0  0  0  0  0  0
  -27.6507  -22.2710   21.4163 C   0  0  0  0  0  0
  -28.3934  -20.1309   20.4373 C   0  0  1  0  0  0
  -29.3022  -18.8201   20.5849 C   0  0  0  0  0  0
  -27.8918  -20.7784   21.7501 C   0  0  2  0  0  0
  -28.8029  -23.9715   19.8241 C   0  0  0  0  0  0
  -28.1224  -25.1531   20.6178 C   0  0  0  0  0  0
  -28.5588  -22.5697   20.3177 N   0  0  0  0  0  0
  -29.9766  -15.7697   20.4497 N   0  0  0  0  0  0
  -26.6933  -20.1476   22.3439 N   0  3  0  0  0  0
  -29.7505  -21.3467   18.7865 O   0  0  0  0  0  0
  -31.4586  -12.4523   19.1346 H   0  0  0  0  0  0
  -30.3234  -11.3778   19.9026 H   0  0  0  0  0  0
  -29.7466  -11.7188   17.4747 H   0  0  0  0  0  0
  -29.6487  -13.4454   17.7218 H   0  0  0  0  0  0
  -27.8447  -11.2889   18.8679 H   0  0  0  0  0  0
  -27.3631  -12.5651   17.7850 H   0  0  0  0  0  0
  -27.6588  -14.2555   19.4964 H   0  0  0  0  0  0
  -28.6946  -12.1027   21.4014 H   0  0  0  0  0  0
  -28.4505  -13.7840   21.7963 H   0  0  0  0  0  0
  -25.2758   -9.5712   22.4751 H   0  0  0  0  0  0
  -24.0000   -7.4656   22.7487 H   0  0  0  0  0  0
  -21.0831   -8.8789   19.8975 H   0  0  0  0  0  0
  -22.3680  -10.9682   19.6168 H   0  0  0  0  0  0
  -21.2012   -7.6137   23.9711 H   0  0  0  0  0  0
  -21.1481   -6.0515   25.9079 H   0  0  0  0  0  0
  -22.0593   -2.7594   23.2864 H   0  0  0  0  0  0
  -22.4058  -11.9926   22.4815 H   0  0  0  0  0  0
  -21.1091  -13.1303   22.2609 H   0  0  0  0  0  0
  -24.6649  -15.8520   20.5173 H   0  0  0  0  0  0
  -26.2866  -15.6239   20.0944 H   0  0  0  0  0  0
  -26.7171  -32.5477   23.1118 H   0  0  0  0  0  0
  -25.0121  -33.9742   25.0468 H   0  0  0  0  0  0
  -22.7067  -31.3075   21.4032 H   0  0  0  0  0  0
  -23.3751  -35.9635   23.3305 H   0  0  0  0  0  0
  -24.3578  -36.8909   22.2046 H   0  0  0  0  0  0
  -23.7249  -37.6503   23.6646 H   0  0  0  0  0  0
  -26.0863  -31.5715   20.6090 H   0  0  0  0  0  0
  -26.8300  -30.8466   22.0064 H   0  0  0  0  0  0
  -28.1090  -29.0169   21.1894 H   0  0  0  0  0  0
  -26.0236  -25.9572   18.9778 H   0  0  0  0  0  0
  -23.9767  -27.3131   18.9984 H   0  0  0  0  0  0
  -23.7461  -30.5992   19.4028 H   0  0  0  0  0  0
  -22.7494  -29.2508   19.8576 H   0  0  0  0  0  0
  -25.1291  -36.1951   25.0823 H   0  0  0  0  0  0
  -20.9963  -28.3283   24.1406 H   0  0  0  0  0  0
  -20.5734  -26.2312   23.3649 H   0  0  0  0  0  0
  -21.6659  -26.7455   22.1197 H   0  0  0  0  0  0
  -19.6940  -25.6219   21.1354 H   0  0  0  0  0  0
  -19.6659  -27.3077   20.6747 H   0  0  0  0  0  0
  -17.4188  -26.6554   21.4131 H   0  0  0  0  0  0
  -18.0398  -26.0058   22.9141 H   0  0  0  0  0  0
  -19.7928  -30.7262   24.2270 H   0  0  0  0  0  0
  -17.5000  -31.6276   24.5129 H   0  0  0  0  0  0
  -15.5350  -30.2974   23.7620 H   0  0  0  0  0  0
  -15.8671  -28.0779   22.7094 H   0  0  0  0  0  0
  -24.5894  -30.7107   25.7804 H   0  0  0  0  0  0
  -24.8942  -32.2932   26.4881 H   0  0  0  0  0  0
  -25.8059  -30.8939   27.0250 H   0  0  0  0  0  0
  -26.2912  -29.6769   24.1198 H   0  0  0  0  0  0
  -27.4015  -29.7269   25.4689 H   0  0  0  0  0  0
  -27.8786  -30.4285   23.9416 H   0  0  0  0  0  0
  -27.2656  -33.3616   26.2091 H   0  0  0  0  0  0
  -28.3853  -32.6915   25.0315 H   0  0  0  0  0  0
  -28.0746  -31.8455   26.5405 H   0  0  0  0  0  0
  -28.2604  -38.0093   24.7499 H   0  0  0  0  0  0
  -28.1066  -36.2626   24.6299 H   0  0  0  0  0  0
  -27.2298  -37.1468   25.8865 H   0  0  0  0  0  0
  -20.9322  -29.8809   21.6924 H   0  0  0  0  0  0
  -26.0182  -38.2864   24.1396 H   0  0  0  0  0  0
  -28.5373  -17.7334   18.8630 H   0  0  0  0  0  0
  -29.9547  -18.6827   18.5173 H   0  0  0  0  0  0
  -28.6690  -18.1743   22.5711 H   0  0  0  0  0  0
  -27.7776  -17.4211   21.2714 H   0  0  0  0  0  0
  -31.4190  -17.0928   19.6500 H   0  0  0  0  0  0
  -30.4560  -16.2670   18.4546 H   0  0  0  0  0  0
  -29.2134  -15.7834   22.4222 H   0  0  0  0  0  0
  -30.6298  -16.7627   22.1735 H   0  0  0  0  0  0
  -27.8413  -22.9033   22.2852 H   0  0  0  0  0  0
  -26.6293  -22.4498   21.0795 H   0  0  0  0  0  0
  -27.5251  -19.8666   19.8309 H   0  0  0  0  0  0
  -30.2828  -19.1426   20.9392 H   0  0  0  0  0  0
  -28.6946  -20.7238   22.4878 H   0  0  0  0  0  0
  -29.8802  -24.1381   19.7993 H   0  0  0  0  0  0
  -28.4711  -24.0194   18.7859 H   0  0  0  0  0  0
  -28.5050  -25.1360   21.6386 H   0  0  0  0  0  0
  -27.0615  -24.9263   20.7201 H   0  0  0  0  0  0
  -25.9217  -20.1387   21.6992 H   0  0  0  0  0  0
  -26.4072  -20.6490   23.1661 H   0  0  0  0  0  0
  -26.8849  -19.2006   22.6171 H   0  0  0  0  0  0
  1 25  1  0  0  0
  1 30  2  0  0  0
  1 83  1  0  0  0
  2  3  1  0  0  0
  2 25  1  0  0  0
  2 86  1  0  0  0
  2 87  1  0  0  0
  3  4  1  0  0  0
  3 88  1  0  0  0
  3 89  1  0  0  0
  4  5  1  0  0  0
  4 90  1  0  0  0
  4 91  1  0  0  0
  5  6  1  0  0  0
  5 26  1  0  0  0
  5 92  1  0  0  0
  6 25  1  0  0  0
  6 93  1  0  0  0
  6 94  1  0  0  0
  7  8  2  0  0  0
  7 26  1  0  0  0
  7 29  1  0  0  0
  8  9  1  0  0  0
  8 22  1  0  0  0
  9 10  1  0  0  0
  9 27  2  0  0  0
 10 11  2  0  0  0
 10 15  1  0  0  0
 11 12  1  0  0  0
 11 95  1  0  0  0
 12 13  2  0  0  0
 12 96  1  0  0  0
 13 14  1  0  0  0
 13 31  1  0  0  0
 14 15  2  0  0  0
 14 97  1  0  0  0
 15 98  1  0  0  0
 16 17  2  0  0  0
 16 21  1  0  0  0
 16 31  1  0  0  0
 17 18  1  0  0  0
 17 99  1  0  0  0
 18 19  2  0  0  0
 18100  1  0  0  0
 19 20  1  0  0  0
 19 24  1  0  0  0
 20 21  2  0  0  0
 20101  1  0  0  0
 21 23  1  0  0  0
 22 28  1  0  0  0
 22 32  2  0  0  0
 26 27  1  0  0  0
 28102  1  0  0  0
 28103  1  0  0  0
 29104  1  0  0  0
 29105  1  0  0  0
 33 34  1  0  0  0
 33 66  1  0  0  0
 33 70  2  0  0  0
 34 36  1  0  0  0
 34 59  1  0  0  0
 34106  1  0  0  0
 35 44  2  0  0  0
 35 45  1  0  0  0
 35 68  1  0  0  0
 36 56  1  0  0  0
 36107  1  0  0  0
 37 39  1  0  0  0
 37 47  1  0  0  0
 37 66  1  0  0  0
 37108  1  0  0  0
 38 43  2  0  0  0
 38 46  1  0  0  0
 38 47  1  0  0  0
 39 64  1  0  0  0
 39 67  2  0  0  0
 40 52  1  0  0  0
 40 53  2  0  0  0
 40 58  1  0  0  0
 41109  1  0  0  0
 41110  1  0  0  0
 41111  1  0  0  0
 41 48  1  0  0  0
 42 43  1  0  0  0
 42 66  1  0  0  0
 42112  1  0  0  0
 42113  1  0  0  0
 43 44  1  0  0  0
 44114  1  0  0  0
 45 46  2  0  0  0
 45115  1  0  0  0
 46116  1  0  0  0
 47117  1  0  0  0
 47118  1  0  0  0
 48 56  1  0  0  0
 48 65  1  0  0  0
 48119  1  0  0  0
 49 50  1  0  0  0
 49 53  1  0  0  0
 49 64  1  0  0  0
 49120  1  0  0  0
 50 51  1  0  0  0
 50121  1  0  0  0
 50122  1  0  0  0
 51 52  1  0  0  0
 51123  1  0  0  0
 51124  1  0  0  0
 52125  1  0  0  0
 52126  1  0  0  0
 53 54  1  0  0  0
 54 55  2  0  0  0
 54127  1  0  0  0
 55 57  1  0  0  0
 55128  1  0  0  0
 56 69  2  0  0  0
 57 58  2  0  0  0
 57129  1  0  0  0
 58130  1  0  0  0
 59 60  1  0  0  0
 59 61  1  0  0  0
 59 62  1  0  0  0
 60131  1  0  0  0
 60132  1  0  0  0
 60133  1  0  0  0
 61134  1  0  0  0
 61135  1  0  0  0
 61136  1  0  0  0
 62137  1  0  0  0
 62138  1  0  0  0
 62139  1  0  0  0
 63 65  1  0  0  0
 63140  1  0  0  0
 63141  1  0  0  0
 63142  1  0  0  0
 64143  1  0  0  0
 65144  1  0  0  0
 68 81  1  0  0  0
 71 82  1  0  0  0
 71 85  2  0  0  0
 71 77  1  0  0  0
 72 74  1  0  0  0
 72145  1  0  0  0
 72146  1  0  0  0
 72 78  1  0  0  0
 73 75  1  0  0  0
 73 78  1  0  0  0
 73147  1  0  0  0
 73148  1  0  0  0
 74 83  1  0  0  0
 74149  1  0  0  0
 74150  1  0  0  0
 75 83  1  0  0  0
 75151  1  0  0  0
 75152  1  0  0  0
 76 79  1  0  0  0
 76 82  1  0  0  0
 76153  1  0  0  0
 76154  1  0  0  0
 77 78  1  0  0  0
 77 79  1  0  0  0
 77155  1  0  0  0
 78156  1  0  0  0
 79 84  1  0  0  0
 79157  1  0  0  0
 80 81  1  0  0  0
 80 82  1  0  0  0
 80158  1  0  0  0
 80159  1  0  0  0
 81160  1  0  0  0
 81161  1  0  0  0
 84162  1  0  0  0
 84163  1  0  0  0
 84164  1  0  0  0
M  CHG  1  84   1
M  ISO  4   1 100  68 101  81 101  83 100
M  END
> <chiral flag>
0

> <version>
0

> <s_m_source_file>
/data/baiqing/PycharmProjects/Reinvent-master-3.2/result/LINK_invent/BTK/process_docking_weight1_custom_sum_contain_oxygen_bond_distance_aromatic_linkinvent_7_9_3/rearranged_h_0167.sdf

> <i_m_source_file_index>
44

> <r_mmod_Potential_Energy-OPLS-2005>
61.1651420593262

> <r_mmod_Stretch_Energy-OPLS-2005>
68.1069793701172

> <r_mmod_Bend_Energy-OPLS-2005>
168.501342773438

> <r_mmod_Torsional_Energy-OPLS-2005>
381.210784912109

> <r_mmod_Improper_Torsional_Energy-OPLS-2005>
17.3757095336914

> <r_mmod_Van_der_Waal_Energy-OPLS-2005>
125.121566772461

> <r_mmod_Electrostatic_Energy-OPLS-2005>
-185.429702758789

> <r_mmod_Solvation_Energy-OPLS-2005>
-554.203247070312

> <b_mmod_Minimization_Converged-OPLS-2005>
0

> <r_mmod_RMS_Derivative-OPLS-2005>
2.16966366767883

$$$$
44
                    3D
 Structure written by MMmdl.
184194  0  0  1  0            999 V2000
  -30.7232  -14.3958   20.6433 C   0  0  0  0  0  0
  -30.4269  -12.2872   19.3931 C   0  0  0  0  0  0
  -29.4902  -12.5171   18.1900 C   0  0  0  0  0  0
  -28.0113  -12.3763   18.6059 C   0  0  0  0  0  0
  -27.6675  -13.1973   19.8780 C   0  0  2  0  0  0
  -28.7060  -12.9229   20.9875 C   0  0  0  0  0  0
  -25.2615  -13.8159   20.5669 C   0  0  0  0  0  0
  -24.1846  -13.0442   20.9169 C   0  0  0  0  0  0
  -24.6387  -11.6909   20.8730 C   0  0  0  0  0  0
  -23.9038  -10.4300   21.0406 C   0  0  0  0  0  0
  -24.3595   -9.4222   21.9184 C   0  0  0  0  0  0
  -23.6286   -8.2249   22.0751 C   0  0  0  0  0  0
  -22.4274   -8.0281   21.3534 C   0  0  0  0  0  0
  -21.9900   -9.0247   20.4633 C   0  0  0  0  0  0
  -22.7214  -10.2137   20.3048 C   0  0  0  0  0  0
  -21.6850   -6.0732   22.5278 C   0  0  0  0  0  0
  -21.4011   -6.5636   23.8209 C   0  0  0  0  0  0
  -21.3663   -5.6782   24.9169 C   0  0  0  0  0  0
  -21.6053   -4.3049   24.7216 C   0  0  0  0  0  0
  -21.8817   -3.8142   23.4337 C   0  0  0  0  0  0
  -21.9185   -4.6965   22.3398 C   0  0  0  0  0  0
  -22.7870  -13.5248   21.1824 C   0  0  0  0  0  0
  -22.1643   -4.2144   21.0973 F   0  0  0  0  0  0
  -21.5642   -3.4531   25.7730 F   0  0  0  0  0  0
  -30.0466  -13.2344   20.4504 N   0  0  0  0  0  0
  -26.3046  -12.9305   20.3367 N   0  0  0  0  0  0
  -25.9311  -11.6472   20.5749 N   0  0  0  0  0  0
  -22.0495  -12.8263   22.0390 N   0  0  0  0  0  0
  -25.4346  -15.1874   20.4067 N   0  0  0  0  0  0
  -31.7976  -14.6575   20.0934 O   0  0  0  0  0  0
  -21.6638   -6.8873   21.4237 O   0  0  0  0  0  0
  -22.3567  -14.5548   20.6656 O   0  0  0  0  0  0
  -24.6093  -31.8699   23.2127 C   0  0  0  0  0  0
  -25.8986  -32.4848   23.8432 C   0  0  1  0  0  0
  -27.2595  -27.4750   20.1043 C   0  0  0  0  0  0
  -25.5850  -33.8648   24.2357 N   0  0  0  0  0  0
  -23.3992  -30.4889   21.5529 C   0  0  2  0  0  0
  -24.8518  -28.9532   20.1270 C   0  0  0  0  0  0
  -22.7393  -29.4643   22.5015 C   0  0  0  0  0  0
  -18.0251  -28.1394   22.8478 C   0  0  0  0  0  0
  -24.1478  -36.7330   23.2641 C   0  0  0  0  0  0
  -25.9206  -30.8490   21.3591 C   0  0  0  0  0  0
  -26.0050  -29.4806   20.7210 C   0  0  0  0  0  0
  -27.2103  -28.7504   20.7122 C   0  0  0  0  0  0
  -26.0933  -26.9563   19.5052 C   0  0  0  0  0  0
  -24.8872  -27.6839   19.5226 C   0  0  0  0  0  0
  -23.6102  -29.8153   20.1700 C   0  0  0  0  0  0
  -25.4098  -36.3125   24.0342 C   0  0  1  0  0  0
  -20.5833  -28.3662   23.1327 C   0  0  2  0  0  0
  -20.6727  -26.9395   22.5423 C   0  0  0  0  0  0
  -19.5716  -26.6390   21.5205 C   0  0  0  0  0  0
  -18.1893  -26.7940   22.1614 C   0  0  0  0  0  0
  -19.1500  -28.8845   23.2895 C   0  0  0  0  0  0
  -18.9436  -30.1449   23.8908 C   0  0  0  0  0  0
  -17.6438  -30.6589   24.0575 C   0  0  0  0  0  0
  -25.9016  -34.9488   23.5154 C   0  0  0  0  0  0
  -16.5323  -29.9097   23.6329 C   0  0  0  0  0  0
  -16.7241  -28.6520   23.0335 C   0  0  0  0  0  0
  -26.4453  -31.6606   25.0740 C   0  0  0  0  0  0
  -25.3738  -31.3668   26.1496 C   0  0  0  0  0  0
  -27.0283  -30.3065   24.6061 C   0  0  0  0  0  0
  -27.6038  -32.4320   25.7499 C   0  0  0  0  0  0
  -27.5581  -37.1815   24.8460 C   0  0  0  0  0  0
  -21.4120  -29.3031   22.3748 N   0  0  0  0  0  0
  -26.4290  -37.3805   23.9410 N   0  0  0  0  0  0
  -24.6617  -31.0829   22.1012 N   0  0  0  0  0  0
  -23.4174  -28.8168   23.3036 O   0  0  0  0  0  0
  -28.4101  -26.7304   19.9994 O   0  0  0  0  0  0
  -26.5588  -34.8926   22.4720 O   0  0  0  0  0  0
  -23.5279  -32.1424   23.7517 O   0  0  0  0  0  0
  -29.3939  -18.6717   22.9907 C   0  0  0  0  0  0
  -30.7608  -19.0399   20.9259 C   0  0  0  0  0  0
  -31.8627  -18.2835   23.0392 C   0  0  0  0  0  0
  -29.1957  -17.1916   22.6020 C   0  0  0  0  0  0
  -30.5312  -17.5633   20.5171 C   0  0  0  0  0  0
  -31.6594  -16.8056   22.6226 C   0  0  0  0  0  0
  -31.2084  -22.9143   21.7088 C   0  0  0  0  0  0
  -29.0093  -22.1797   22.4143 C   0  0  0  0  0  0
  -30.5678  -23.8078   20.6108 C   0  0  1  0  0  0
  -28.3676  -22.9616   21.2484 C   0  0  1  0  0  0
  -30.7510  -19.2213   22.4724 C   0  0  2  0  0  0
  -30.3837  -16.6624   21.7681 C   0  0  1  0  0  0
  -30.6905  -23.2125   19.1969 C   0  0  0  0  0  0
  -26.8773  -23.2756   21.4774 C   0  0  0  0  0  0
  -30.8447  -21.0082   24.3959 C   0  0  0  0  0  0
  -29.0523  -25.2961   21.8417 C   0  0  0  0  0  0
  -29.2814  -26.6452   21.1284 C   0  0  0  0  0  0
  -31.0368  -20.7145   22.8895 C   0  0  2  0  0  0
  -29.1630  -24.1588   20.9069 N   0  0  0  0  0  0
  -30.0845  -15.2684   21.4358 N   0  0  0  0  0  0
  -30.3656  -21.7269   22.0113 N   0  3  2  0  0  0
  -31.4695  -12.3999   19.0886 H   0  0  0  0  0  0
  -30.3338  -11.2629   19.7576 H   0  0  0  0  0  0
  -29.7277  -11.8091   17.3950 H   0  0  0  0  0  0
  -29.6599  -13.5106   17.7743 H   0  0  0  0  0  0
  -27.8195  -11.3178   18.7862 H   0  0  0  0  0  0
  -27.3581  -12.6646   17.7814 H   0  0  0  0  0  0
  -27.7301  -14.2520   19.6106 H   0  0  0  0  0  0
  -28.6710  -11.8714   21.2772 H   0  0  0  0  0  0
  -28.4576  -13.4725   21.8953 H   0  0  0  0  0  0
  -25.2729   -9.5719   22.4766 H   0  0  0  0  0  0
  -23.9982   -7.4658   22.7490 H   0  0  0  0  0  0
  -21.0821   -8.8756   19.8961 H   0  0  0  0  0  0
  -22.3642  -10.9669   19.6157 H   0  0  0  0  0  0
  -21.1998   -7.6142   23.9710 H   0  0  0  0  0  0
  -21.1494   -6.0517   25.9078 H   0  0  0  0  0  0
  -22.0603   -2.7605   23.2835 H   0  0  0  0  0  0
  -22.4057  -11.9893   22.4762 H   0  0  0  0  0  0
  -21.1123  -13.1333   22.2579 H   0  0  0  0  0  0
  -24.6709  -15.8470   20.5123 H   0  0  0  0  0  0
  -26.2931  -15.6277   20.1025 H   0  0  0  0  0  0
  -26.7075  -32.5602   23.1227 H   0  0  0  0  0  0
  -24.9983  -33.9834   25.0487 H   0  0  0  0  0  0
  -22.6844  -31.3024   21.4133 H   0  0  0  0  0  0
  -23.3737  -35.9665   23.3292 H   0  0  0  0  0  0
  -24.3569  -36.8964   22.2056 H   0  0  0  0  0  0
  -23.7232  -37.6530   23.6678 H   0  0  0  0  0  0
  -26.0133  -31.6075   20.5804 H   0  0  0  0  0  0
  -26.8130  -30.9181   21.9694 H   0  0  0  0  0  0
  -28.0965  -29.1925   21.1442 H   0  0  0  0  0  0
  -26.1242  -25.9887   19.0237 H   0  0  0  0  0  0
  -24.0024  -27.2661   19.0629 H   0  0  0  0  0  0
  -23.7235  -30.5893   19.4106 H   0  0  0  0  0  0
  -22.7355  -29.2348   19.8721 H   0  0  0  0  0  0
  -25.1265  -36.2012   25.0832 H   0  0  0  0  0  0
  -20.9913  -28.3236   24.1455 H   0  0  0  0  0  0
  -20.5597  -26.2264   23.3607 H   0  0  0  0  0  0
  -21.6607  -26.7424   22.1246 H   0  0  0  0  0  0
  -19.6859  -25.6306   21.1223 H   0  0  0  0  0  0
  -19.6671  -27.3196   20.6731 H   0  0  0  0  0  0
  -17.4162  -26.6686   21.4013 H   0  0  0  0  0  0
  -18.0277  -26.0093   22.9020 H   0  0  0  0  0  0
  -19.7918  -30.7251   24.2283 H   0  0  0  0  0  0
  -17.5008  -31.6269   24.5185 H   0  0  0  0  0  0
  -15.5324  -30.3006   23.7666 H   0  0  0  0  0  0
  -15.8639  -28.0858   22.7028 H   0  0  0  0  0  0
  -24.5939  -30.6987   25.7832 H   0  0  0  0  0  0
  -24.8891  -32.2792   26.4974 H   0  0  0  0  0  0
  -25.8111  -30.8841   27.0244 H   0  0  0  0  0  0
  -26.2802  -29.6837   24.1145 H   0  0  0  0  0  0
  -27.4101  -29.7298   25.4494 H   0  0  0  0  0  0
  -27.8617  -30.4409   23.9161 H   0  0  0  0  0  0
  -27.2674  -33.3628   26.2082 H   0  0  0  0  0  0
  -28.3841  -32.6857   25.0313 H   0  0  0  0  0  0
  -28.0709  -31.8438   26.5411 H   0  0  0  0  0  0
  -28.2588  -38.0124   24.7517 H   0  0  0  0  0  0
  -28.1087  -36.2651   24.6278 H   0  0  0  0  0  0
  -27.2292  -37.1446   25.8861 H   0  0  0  0  0  0
  -20.9266  -29.8817   21.7035 H   0  0  0  0  0  0
  -26.0182  -38.2883   24.1441 H   0  0  0  0  0  0
  -29.3236  -18.7577   24.0758 H   0  0  0  0  0  0
  -28.5609  -19.2338   22.5769 H   0  0  0  0  0  0
  -29.9818  -19.6416   20.4562 H   0  0  0  0  0  0
  -31.7103  -19.3846   20.5111 H   0  0  0  0  0  0
  -32.8456  -18.6126   22.7003 H   0  0  0  0  0  0
  -31.8939  -18.3328   24.1278 H   0  0  0  0  0  0
  -28.2609  -17.0850   22.0478 H   0  0  0  0  0  0
  -29.0764  -16.5944   23.5077 H   0  0  0  0  0  0
  -31.3687  -17.2381   19.8990 H   0  0  0  0  0  0
  -29.6414  -17.4864   19.8895 H   0  0  0  0  0  0
  -31.5924  -16.1805   23.5146 H   0  0  0  0  0  0
  -32.5338  -16.4579   22.0706 H   0  0  0  0  0  0
  -31.3658  -23.4917   22.6214 H   0  0  0  0  0  0
  -32.2003  -22.6068   21.3733 H   0  0  0  0  0  0
  -28.3757  -21.3346   22.6670 H   0  0  0  0  0  0
  -29.0537  -22.7997   23.3108 H   0  0  0  0  0  0
  -31.1544  -24.7262   20.5780 H   0  0  0  0  0  0
  -28.3785  -22.3132   20.3716 H   0  0  0  0  0  0
  -30.1800  -22.2580   19.0837 H   0  0  0  0  0  0
  -31.7387  -23.0486   18.9428 H   0  0  0  0  0  0
  -30.2828  -23.8923   18.4475 H   0  0  0  0  0  0
  -26.6847  -23.7367   22.4461 H   0  0  0  0  0  0
  -26.2858  -22.3600   21.4481 H   0  0  0  0  0  0
  -26.4842  -23.9340   20.7020 H   0  0  0  0  0  0
  -31.4536  -20.3481   25.0101 H   0  0  0  0  0  0
  -29.8122  -20.8864   24.7208 H   0  0  0  0  0  0
  -31.1447  -22.0268   24.6390 H   0  0  0  0  0  0
  -28.0573  -25.3555   22.2774 H   0  0  0  0  0  0
  -29.7388  -25.1893   22.6819 H   0  0  0  0  0  0
  -30.3095  -26.7372   20.7779 H   0  0  0  0  0  0
  -29.1452  -27.4477   21.8519 H   0  0  0  0  0  0
  -32.1045  -20.8425   22.7064 H   0  0  0  0  0  0
  -29.2216  -14.9114   21.8170 H   0  0  0  0  0  0
  -30.2510  -21.2582   21.1261 H   0  0  0  0  0  0
  1 25  1  0  0  0
  1 30  2  0  0  0
  1 90  1  0  0  0
  2  3  1  0  0  0
  2 25  1  0  0  0
  2 92  1  0  0  0
  2 93  1  0  0  0
  3  4  1  0  0  0
  3 94  1  0  0  0
  3 95  1  0  0  0
  4  5  1  0  0  0
  4 96  1  0  0  0
  4 97  1  0  0  0
  5  6  1  0  0  0
  5 26  1  0  0  0
  5 98  1  0  0  0
  6 25  1  0  0  0
  6 99  1  0  0  0
  6100  1  0  0  0
  7  8  2  0  0  0
  7 26  1  0  0  0
  7 29  1  0  0  0
  8  9  1  0  0  0
  8 22  1  0  0  0
  9 10  1  0  0  0
  9 27  2  0  0  0
 10 11  2  0  0  0
 10 15  1  0  0  0
 11 12  1  0  0  0
 11101  1  0  0  0
 12 13  2  0  0  0
 12102  1  0  0  0
 13 14  1  0  0  0
 13 31  1  0  0  0
 14 15  2  0  0  0
 14103  1  0  0  0
 15104  1  0  0  0
 16 17  2  0  0  0
 16 21  1  0  0  0
 16 31  1  0  0  0
 17 18  1  0  0  0
 17105  1  0  0  0
 18 19  2  0  0  0
 18106  1  0  0  0
 19 20  1  0  0  0
 19 24  1  0  0  0
 20 21  2  0  0  0
 20107  1  0  0  0
 21 23  1  0  0  0
 22 28  1  0  0  0
 22 32  2  0  0  0
 26 27  1  0  0  0
 28108  1  0  0  0
 28109  1  0  0  0
 29110  1  0  0  0
 29111  1  0  0  0
 33 34  1  0  0  0
 33 66  1  0  0  0
 33 70  2  0  0  0
 34 36  1  0  0  0
 34 59  1  0  0  0
 34112  1  0  0  0
 35 44  2  0  0  0
 35 45  1  0  0  0
 35 68  1  0  0  0
 36 56  1  0  0  0
 36113  1  0  0  0
 37 39  1  0  0  0
 37 47  1  0  0  0
 37 66  1  0  0  0
 37114  1  0  0  0
 38 43  2  0  0  0
 38 46  1  0  0  0
 38 47  1  0  0  0
 39 64  1  0  0  0
 39 67  2  0  0  0
 40 52  1  0  0  0
 40 53  2  0  0  0
 40 58  1  0  0  0
 41115  1  0  0  0
 41116  1  0  0  0
 41117  1  0  0  0
 41 48  1  0  0  0
 42 43  1  0  0  0
 42 66  1  0  0  0
 42118  1  0  0  0
 42119  1  0  0  0
 43 44  1  0  0  0
 44120  1  0  0  0
 45 46  2  0  0  0
 45121  1  0  0  0
 46122  1  0  0  0
 47123  1  0  0  0
 47124  1  0  0  0
 48 56  1  0  0  0
 48 65  1  0  0  0
 48125  1  0  0  0
 49 50  1  0  0  0
 49 53  1  0  0  0
 49 64  1  0  0  0
 49126  1  0  0  0
 50 51  1  0  0  0
 50127  1  0  0  0
 50128  1  0  0  0
 51 52  1  0  0  0
 51129  1  0  0  0
 51130  1  0  0  0
 52131  1  0  0  0
 52132  1  0  0  0
 53 54  1  0  0  0
 54 55  2  0  0  0
 54133  1  0  0  0
 55 57  1  0  0  0
 55134  1  0  0  0
 56 69  2  0  0  0
 57 58  2  0  0  0
 57135  1  0  0  0
 58136  1  0  0  0
 59 60  1  0  0  0
 59 61  1  0  0  0
 59 62  1  0  0  0
 60137  1  0  0  0
 60138  1  0  0  0
 60139  1  0  0  0
 61140  1  0  0  0
 61141  1  0  0  0
 61142  1  0  0  0
 62143  1  0  0  0
 62144  1  0  0  0
 62145  1  0  0  0
 63 65  1  0  0  0
 63146  1  0  0  0
 63147  1  0  0  0
 63148  1  0  0  0
 64149  1  0  0  0
 65150  1  0  0  0
 68 87  1  0  0  0
 71 74  1  0  0  0
 71151  1  0  0  0
 71152  1  0  0  0
 71 81  1  0  0  0
 72 75  1  0  0  0
 72 81  1  0  0  0
 72153  1  0  0  0
 72154  1  0  0  0
 73 76  1  0  0  0
 73 81  1  0  0  0
 73155  1  0  0  0
 73156  1  0  0  0
 74 82  1  0  0  0
 74157  1  0  0  0
 74158  1  0  0  0
 75 82  1  0  0  0
 75159  1  0  0  0
 75160  1  0  0  0
 76 82  1  0  0  0
 76161  1  0  0  0
 76162  1  0  0  0
 77 79  1  0  0  0
 77163  1  0  0  0
 77164  1  0  0  0
 77 91  1  0  0  0
 78 80  1  0  0  0
 78 91  1  0  0  0
 78165  1  0  0  0
 78166  1  0  0  0
 79 83  1  0  0  0
 79 89  1  0  0  0
 79167  1  0  0  0
 80 84  1  0  0  0
 80 89  1  0  0  0
 80168  1  0  0  0
 81 88  1  0  0  0
 82 90  1  0  0  0
 83169  1  0  0  0
 83170  1  0  0  0
 83171  1  0  0  0
 84172  1  0  0  0
 84173  1  0  0  0
 84174  1  0  0  0
 85175  1  0  0  0
 85176  1  0  0  0
 85177  1  0  0  0
 85 88  1  0  0  0
 86 87  1  0  0  0
 86 89  1  0  0  0
 86178  1  0  0  0
 86179  1  0  0  0
 87180  1  0  0  0
 87181  1  0  0  0
 88 91  1  0  0  0
 88182  1  0  0  0
 90183  1  0  0  0
 91184  1  0  0  0
M  CHG  1  91   1
M  ISO  4   1 100  68 101  87 101  90 100
M  END
> <chiral flag>
0

> <version>
0

> <s_m_source_file>
/data/baiqing/PycharmProjects/Reinvent-master-3.2/result/LINK_invent/BTK/process_docking_weight1_custom_sum_contain_oxygen_bond_distance_aromatic_linkinvent_7_9_3/rearranged_h_0167.sdf

> <i_m_source_file_index>
45

> <r_mmod_Potential_Energy-OPLS-2005>
34.9595031738281

> <r_mmod_Stretch_Energy-OPLS-2005>
44.750244140625

> <r_mmod_Bend_Energy-OPLS-2005>
141.40754699707

> <r_mmod_Torsional_Energy-OPLS-2005>
356.251098632812

> <r_mmod_Improper_Torsional_Energy-OPLS-2005>
2.2938117980957

> <r_mmod_Van_der_Waal_Energy-OPLS-2005>
169.773803710938

> <r_mmod_Electrostatic_Energy-OPLS-2005>
-268.836120605469

> <r_mmod_Solvation_Energy-OPLS-2005>
-416.902923583984

> <b_mmod_Minimization_Converged-OPLS-2005>
0

> <r_mmod_RMS_Derivative-OPLS-2005>
2.11619639396667

$$$$
45
                    3D
 Structure written by MMmdl.
157166  0  0  1  0            999 V2000
  -30.5407  -14.9522   20.4094 C   0  0  0  0  0  0
  -30.4397  -12.5877   19.4986 C   0  0  0  0  0  0
  -29.5248  -12.5334   18.2529 C   0  0  0  0  0  0
  -28.0547  -12.3309   18.6636 C   0  0  0  0  0  0
  -27.6293  -13.2524   19.8374 C   0  0  2  0  0  0
  -28.6735  -13.2755   20.9741 C   0  0  0  0  0  0
  -25.2449  -13.8242   20.5699 C   0  0  0  0  0  0
  -24.1770  -13.0453   20.9230 C   0  0  0  0  0  0
  -24.6399  -11.6939   20.8770 C   0  0  0  0  0  0
  -23.9094  -10.4311   21.0428 C   0  0  0  0  0  0
  -24.3642   -9.4217   21.9200 C   0  0  0  0  0  0
  -23.6298   -8.2257   22.0762 C   0  0  0  0  0  0
  -22.4284   -8.0308   21.3555 C   0  0  0  0  0  0
  -21.9919   -9.0281   20.4658 C   0  0  0  0  0  0
  -22.7261  -10.2148   20.3067 C   0  0  0  0  0  0
  -21.6849   -6.0740   22.5272 C   0  0  0  0  0  0
  -21.4017   -6.5633   23.8210 C   0  0  0  0  0  0
  -21.3661   -5.6784   24.9172 C   0  0  0  0  0  0
  -21.6049   -4.3047   24.7217 C   0  0  0  0  0  0
  -21.8828   -3.8140   23.4330 C   0  0  0  0  0  0
  -21.9183   -4.6962   22.3386 C   0  0  0  0  0  0
  -22.7784  -13.5221   21.1870 C   0  0  0  0  0  0
  -22.1667   -4.2157   21.0957 F   0  0  0  0  0  0
  -21.5625   -3.4524   25.7724 F   0  0  0  0  0  0
  -29.9477  -13.6894   20.3737 N   0  0  0  0  0  0
  -26.2880  -12.9472   20.3228 N   0  0  0  0  0  0
  -25.9339  -11.6608   20.5752 N   0  0  0  0  0  0
  -22.0423  -12.8232   22.0431 N   0  0  0  0  0  0
  -25.4107  -15.1982   20.4149 N   0  0  0  0  0  0
  -31.7482  -15.0110   20.1529 O   0  0  0  0  0  0
  -21.6646   -6.8897   21.4242 O   0  0  0  0  0  0
  -22.3470  -14.5527   20.6707 O   0  0  0  0  0  0
  -24.6449  -31.8425   23.1868 C   0  0  0  0  0  0
  -25.9222  -32.4681   23.8262 C   0  0  1  0  0  0
  -27.2172  -27.1268   20.1430 C   0  0  0  0  0  0
  -25.5968  -33.8484   24.2194 N   0  0  0  0  0  0
  -23.4496  -30.4624   21.5323 C   0  0  2  0  0  0
  -24.8988  -28.8907   20.1075 C   0  0  0  0  0  0
  -22.7571  -29.4534   22.4825 C   0  0  0  0  0  0
  -18.0317  -28.1416   22.8442 C   0  0  0  0  0  0
  -24.1502  -36.7249   23.2638 C   0  0  0  0  0  0
  -26.0065  -30.7124   21.3885 C   0  0  0  0  0  0
  -26.0771  -29.3230   20.7280 C   0  0  0  0  0  0
  -27.2369  -28.4579   20.7298 C   0  0  0  0  0  0
  -26.0112  -26.7996   19.4841 C   0  0  0  0  0  0
  -24.8795  -27.6427   19.4684 C   0  0  0  0  0  0
  -23.6761  -29.7941   20.1497 C   0  0  0  0  0  0
  -25.4132  -36.3011   24.0312 C   0  0  1  0  0  0
  -20.5921  -28.3731   23.1217 C   0  0  2  0  0  0
  -20.6800  -26.9427   22.5398 C   0  0  0  0  0  0
  -19.5778  -26.6369   21.5203 C   0  0  0  0  0  0
  -18.1957  -26.7940   22.1605 C   0  0  0  0  0  0
  -19.1565  -28.8890   23.2822 C   0  0  0  0  0  0
  -18.9490  -30.1477   23.8861 C   0  0  0  0  0  0
  -17.6479  -30.6586   24.0556 C   0  0  0  0  0  0
  -25.9080  -34.9393   23.5052 C   0  0  0  0  0  0
  -16.5368  -29.9078   23.6328 C   0  0  0  0  0  0
  -16.7300  -28.6509   23.0324 C   0  0  0  0  0  0
  -26.4536  -31.6542   25.0698 C   0  0  0  0  0  0
  -25.3729  -31.3767   26.1412 C   0  0  0  0  0  0
  -27.0367  -30.2902   24.6313 C   0  0  0  0  0  0
  -27.6069  -32.4301   25.7489 C   0  0  0  0  0  0
  -27.5584  -37.1783   24.8450 C   0  0  0  0  0  0
  -21.4264  -29.3048   22.3581 N   0  0  0  0  0  0
  -26.4285  -37.3727   23.9398 N   0  0  0  0  0  0
  -24.7204  -31.0269   22.0916 N   0  0  0  0  0  0
  -23.4204  -28.8075   23.2980 O   0  0  0  0  0  0
  -28.2649  -26.1313   20.2084 O   0  0  0  0  0  0
  -26.5631  -34.8877   22.4607 O   0  0  0  0  0  0
  -23.5557  -32.1313   23.7077 O   0  0  0  0  0  0
  -30.8688  -21.0717   20.3184 C   0  0  0  0  0  0
  -28.6079  -21.8796   20.2448 C   0  0  0  0  0  0
  -29.5117  -20.6962   20.3105 C   0  0  0  0  0  0
  -31.3115  -22.4205   20.2726 C   0  0  0  0  0  0
  -28.9987  -23.3193   20.2029 C   0  0  0  0  0  0
  -30.4052  -23.5272   20.2286 C   0  0  0  0  0  0
  -29.4536  -18.2817   19.0941 C   0  0  0  0  0  0
  -29.1761  -19.0696   20.3467 C   0  0  1  0  0  0
  -30.1024  -17.6528   20.3089 C   0  0  1  0  0  0
  -32.8185  -22.6468   20.2526 C   0  0  0  0  0  0
  -30.9384  -24.9567   20.1881 C   0  0  0  0  0  0
  -27.9600  -24.6061   20.0351 C   0  0  0  0  0  0
  -29.7557  -16.1397   20.4988 N   0  0  0  0  0  0
  -31.4747  -12.7408   19.1911 H   0  0  0  0  0  0
  -30.4255  -11.6356   20.0310 H   0  0  0  0  0  0
  -29.8416  -11.7348   17.5815 H   0  0  0  0  0  0
  -29.6235  -13.4627   17.6893 H   0  0  0  0  0  0
  -27.9359  -11.2841   18.9477 H   0  0  0  0  0  0
  -27.4047  -12.4893   17.8025 H   0  0  0  0  0  0
  -27.5938  -14.2588   19.4180 H   0  0  0  0  0  0
  -28.7564  -12.2971   21.4505 H   0  0  0  0  0  0
  -28.3775  -13.9786   21.7538 H   0  0  0  0  0  0
  -25.2811   -9.5665   22.4753 H   0  0  0  0  0  0
  -23.9998   -7.4645   22.7475 H   0  0  0  0  0  0
  -21.0840   -8.8815   19.8967 H   0  0  0  0  0  0
  -22.3751  -10.9687   19.6156 H   0  0  0  0  0  0
  -21.2020   -7.6143   23.9725 H   0  0  0  0  0  0
  -21.1477   -6.0508   25.9082 H   0  0  0  0  0  0
  -22.0599   -2.7597   23.2834 H   0  0  0  0  0  0
  -22.4031  -11.9894   22.4839 H   0  0  0  0  0  0
  -21.1053  -13.1296   22.2660 H   0  0  0  0  0  0
  -24.6415  -15.8497   20.5342 H   0  0  0  0  0  0
  -26.2449  -15.6417   20.0558 H   0  0  0  0  0  0
  -26.7288  -32.5298   23.0983 H   0  0  0  0  0  0
  -25.0128  -33.9584   25.0351 H   0  0  0  0  0  0
  -22.7541  -31.2903   21.3784 H   0  0  0  0  0  0
  -23.3754  -35.9593   23.3276 H   0  0  0  0  0  0
  -24.3606  -36.8893   22.2060 H   0  0  0  0  0  0
  -23.7260  -37.6441   23.6690 H   0  0  0  0  0  0
  -26.1672  -31.4694   20.6192 H   0  0  0  0  0  0
  -26.8745  -30.7580   22.0344 H   0  0  0  0  0  0
  -28.1330  -28.7809   21.2412 H   0  0  0  0  0  0
  -25.9024  -25.8498   18.9837 H   0  0  0  0  0  0
  -23.9816  -27.3098   18.9661 H   0  0  0  0  0  0
  -23.8174  -30.5710   19.3970 H   0  0  0  0  0  0
  -22.7893  -29.2417   19.8335 H   0  0  0  0  0  0
  -25.1316  -36.1843   25.0804 H   0  0  0  0  0  0
  -21.0014  -28.3350   24.1342 H   0  0  0  0  0  0
  -20.5698  -26.2345   23.3627 H   0  0  0  0  0  0
  -21.6678  -26.7439   22.1219 H   0  0  0  0  0  0
  -19.6948  -25.6275   21.1248 H   0  0  0  0  0  0
  -19.6715  -27.3159   20.6723 H   0  0  0  0  0  0
  -17.4227  -26.6647   21.4022 H   0  0  0  0  0  0
  -18.0364  -26.0116   22.9032 H   0  0  0  0  0  0
  -19.7964  -30.7293   24.2222 H   0  0  0  0  0  0
  -17.5036  -31.6261   24.5156 H   0  0  0  0  0  0
  -15.5371  -30.2958   23.7698 H   0  0  0  0  0  0
  -15.8699  -28.0824   22.7037 H   0  0  0  0  0  0
  -24.5904  -30.7097   25.7770 H   0  0  0  0  0  0
  -24.8932  -32.2966   26.4769 H   0  0  0  0  0  0
  -25.8029  -30.9007   27.0230 H   0  0  0  0  0  0
  -26.2968  -29.6629   24.1318 H   0  0  0  0  0  0
  -27.3919  -29.7205   25.4910 H   0  0  0  0  0  0
  -27.8918  -30.4071   23.9645 H   0  0  0  0  0  0
  -27.2657  -33.3607   26.2036 H   0  0  0  0  0  0
  -28.3907  -32.6850   25.0343 H   0  0  0  0  0  0
  -28.0704  -31.8446   26.5434 H   0  0  0  0  0  0
  -28.2578  -38.0100   24.7500 H   0  0  0  0  0  0
  -28.1095  -36.2622   24.6271 H   0  0  0  0  0  0
  -27.2295  -37.1432   25.8849 H   0  0  0  0  0  0
  -20.9478  -29.8763   21.6756 H   0  0  0  0  0  0
  -26.0143  -38.2786   24.1410 H   0  0  0  0  0  0
  -31.6079  -20.2820   20.3513 H   0  0  0  0  0  0
  -27.5469  -21.6721   20.2101 H   0  0  0  0  0  0
  -30.1395  -18.7139   18.3664 H   0  0  0  0  0  0
  -28.6008  -17.7772   18.6477 H   0  0  0  0  0  0
  -28.1818  -18.9546   20.7773 H   0  0  0  0  0  0
  -31.1593  -17.8614   20.4601 H   0  0  0  0  0  0
  -33.3735  -21.7090   20.2079 H   0  0  0  0  0  0
  -33.1438  -23.1770   21.1486 H   0  0  0  0  0  0
  -33.1114  -23.2277   19.3767 H   0  0  0  0  0  0
  -32.0215  -25.0430   20.2229 H   0  0  0  0  0  0
  -30.5601  -25.5233   21.0399 H   0  0  0  0  0  0
  -30.6136  -25.4542   19.2736 H   0  0  0  0  0  0
  -27.1025  -24.3820   20.6710 H   0  0  0  0  0  0
  -27.5994  -24.4980   19.0122 H   0  0  0  0  0  0
  -28.7812  -15.9566   20.6863 H   0  0  0  0  0  0
  1 25  1  0  0  0
  1 30  2  0  0  0
  1 83  1  0  0  0
  2  3  1  0  0  0
  2 25  1  0  0  0
  2 84  1  0  0  0
  2 85  1  0  0  0
  3  4  1  0  0  0
  3 86  1  0  0  0
  3 87  1  0  0  0
  4  5  1  0  0  0
  4 88  1  0  0  0
  4 89  1  0  0  0
  5  6  1  0  0  0
  5 26  1  0  0  0
  5 90  1  0  0  0
  6 25  1  0  0  0
  6 91  1  0  0  0
  6 92  1  0  0  0
  7  8  2  0  0  0
  7 26  1  0  0  0
  7 29  1  0  0  0
  8  9  1  0  0  0
  8 22  1  0  0  0
  9 10  1  0  0  0
  9 27  2  0  0  0
 10 11  2  0  0  0
 10 15  1  0  0  0
 11 12  1  0  0  0
 11 93  1  0  0  0
 12 13  2  0  0  0
 12 94  1  0  0  0
 13 14  1  0  0  0
 13 31  1  0  0  0
 14 15  2  0  0  0
 14 95  1  0  0  0
 15 96  1  0  0  0
 16 17  2  0  0  0
 16 21  1  0  0  0
 16 31  1  0  0  0
 17 18  1  0  0  0
 17 97  1  0  0  0
 18 19  2  0  0  0
 18 98  1  0  0  0
 19 20  1  0  0  0
 19 24  1  0  0  0
 20 21  2  0  0  0
 20 99  1  0  0  0
 21 23  1  0  0  0
 22 28  1  0  0  0
 22 32  2  0  0  0
 26 27  1  0  0  0
 28100  1  0  0  0
 28101  1  0  0  0
 29102  1  0  0  0
 29103  1  0  0  0
 33 34  1  0  0  0
 33 66  1  0  0  0
 33 70  2  0  0  0
 34 36  1  0  0  0
 34 59  1  0  0  0
 34104  1  0  0  0
 35 44  2  0  0  0
 35 45  1  0  0  0
 35 68  1  0  0  0
 36 56  1  0  0  0
 36105  1  0  0  0
 37 39  1  0  0  0
 37 47  1  0  0  0
 37 66  1  0  0  0
 37106  1  0  0  0
 38 43  2  0  0  0
 38 46  1  0  0  0
 38 47  1  0  0  0
 39 64  1  0  0  0
 39 67  2  0  0  0
 40 52  1  0  0  0
 40 53  2  0  0  0
 40 58  1  0  0  0
 41107  1  0  0  0
 41108  1  0  0  0
 41109  1  0  0  0
 41 48  1  0  0  0
 42 43  1  0  0  0
 42 66  1  0  0  0
 42110  1  0  0  0
 42111  1  0  0  0
 43 44  1  0  0  0
 44112  1  0  0  0
 45 46  2  0  0  0
 45113  1  0  0  0
 46114  1  0  0  0
 47115  1  0  0  0
 47116  1  0  0  0
 48 56  1  0  0  0
 48 65  1  0  0  0
 48117  1  0  0  0
 49 50  1  0  0  0
 49 53  1  0  0  0
 49 64  1  0  0  0
 49118  1  0  0  0
 50 51  1  0  0  0
 50119  1  0  0  0
 50120  1  0  0  0
 51 52  1  0  0  0
 51121  1  0  0  0
 51122  1  0  0  0
 52123  1  0  0  0
 52124  1  0  0  0
 53 54  1  0  0  0
 54 55  2  0  0  0
 54125  1  0  0  0
 55 57  1  0  0  0
 55126  1  0  0  0
 56 69  2  0  0  0
 57 58  2  0  0  0
 57127  1  0  0  0
 58128  1  0  0  0
 59 60  1  0  0  0
 59 61  1  0  0  0
 59 62  1  0  0  0
 60129  1  0  0  0
 60130  1  0  0  0
 60131  1  0  0  0
 61132  1  0  0  0
 61133  1  0  0  0
 61134  1  0  0  0
 62135  1  0  0  0
 62136  1  0  0  0
 62137  1  0  0  0
 63 65  1  0  0  0
 63138  1  0  0  0
 63139  1  0  0  0
 63140  1  0  0  0
 64141  1  0  0  0
 65142  1  0  0  0
 68 82  1  0  0  0
 71 73  2  0  0  0
 71 74  1  0  0  0
 71143  1  0  0  0
 72 73  1  0  0  0
 72 75  2  0  0  0
 72144  1  0  0  0
 73 78  1  0  0  0
 74 76  2  0  0  0
 74 80  1  0  0  0
 75 76  1  0  0  0
 75 82  1  0  0  0
 76 81  1  0  0  0
 77 78  1  0  0  0
 77 79  1  0  0  0
 77145  1  0  0  0
 77146  1  0  0  0
 78 79  1  0  0  0
 78147  1  0  0  0
 79 83  1  0  0  0
 79148  1  0  0  0
 80149  1  0  0  0
 80150  1  0  0  0
 80151  1  0  0  0
 81152  1  0  0  0
 81153  1  0  0  0
 81154  1  0  0  0
 82155  1  0  0  0
 82156  1  0  0  0
 83157  1  0  0  0
M  ISO  4   1 100  68 101  82 101  83 100
M  END
> <chiral flag>
0

> <version>
0

> <s_m_source_file>
/data/baiqing/PycharmProjects/Reinvent-master-3.2/result/LINK_invent/BTK/process_docking_weight1_custom_sum_contain_oxygen_bond_distance_aromatic_linkinvent_7_9_3/rearranged_h_0167.sdf

> <i_m_source_file_index>
46

> <r_mmod_Potential_Energy-OPLS-2005>
545.544067382812

> <r_mmod_Stretch_Energy-OPLS-2005>
281.565490722656

> <r_mmod_Bend_Energy-OPLS-2005>
237.231567382812

> <r_mmod_Torsional_Energy-OPLS-2005>
264.605651855469

> <r_mmod_Improper_Torsional_Energy-OPLS-2005>
5.31365489959717

> <r_mmod_Van_der_Waal_Energy-OPLS-2005>
135.951995849609

> <r_mmod_Electrostatic_Energy-OPLS-2005>
-367.335021972656

> <r_mmod_Solvation_Energy-OPLS-2005>
-209.639862060547

> <b_mmod_Minimization_Converged-OPLS-2005>
0

> <r_mmod_RMS_Derivative-OPLS-2005>
2.95280838012695

$$$$
46
                    3D
 Structure written by MMmdl.
173183  0  0  1  0            999 V2000
  -30.6419  -14.8619   20.4358 C   0  0  0  0  0  0
  -30.4076  -12.5432   19.4781 C   0  0  0  0  0  0
  -29.4924  -12.4983   18.2380 C   0  0  0  0  0  0
  -28.0316  -12.2817   18.6670 C   0  0  0  0  0  0
  -27.6125  -13.2193   19.8256 C   0  0  2  0  0  0
  -28.6626  -13.2914   20.9574 C   0  0  0  0  0  0
  -25.2433  -13.8138   20.5767 C   0  0  0  0  0  0
  -24.1729  -13.0380   20.9271 C   0  0  0  0  0  0
  -24.6325  -11.6866   20.8808 C   0  0  0  0  0  0
  -23.9021  -10.4249   21.0461 C   0  0  0  0  0  0
  -24.3583   -9.4159   21.9217 C   0  0  0  0  0  0
  -23.6266   -8.2194   22.0760 C   0  0  0  0  0  0
  -22.4252   -8.0238   21.3540 C   0  0  0  0  0  0
  -21.9889   -9.0221   20.4652 C   0  0  0  0  0  0
  -22.7215  -10.2102   20.3087 C   0  0  0  0  0  0
  -21.6837   -6.0715   22.5286 C   0  0  0  0  0  0
  -21.4002   -6.5635   23.8212 C   0  0  0  0  0  0
  -21.3662   -5.6795   24.9186 C   0  0  0  0  0  0
  -21.6043   -4.3057   24.7245 C   0  0  0  0  0  0
  -21.8822   -3.8139   23.4369 C   0  0  0  0  0  0
  -21.9187   -4.6950   22.3414 C   0  0  0  0  0  0
  -22.7760  -13.5174   21.1928 C   0  0  0  0  0  0
  -22.1654   -4.2129   21.0993 F   0  0  0  0  0  0
  -21.5630   -3.4544   25.7762 F   0  0  0  0  0  0
  -29.9401  -13.6655   20.3409 N   0  0  0  0  0  0
  -26.2788  -12.9296   20.3261 N   0  0  0  0  0  0
  -25.9236  -11.6459   20.5796 N   0  0  0  0  0  0
  -22.0412  -12.8154   22.0483 N   0  0  0  0  0  0
  -25.4150  -15.1870   20.4238 N   0  0  0  0  0  0
  -31.8538  -14.8030   20.2050 O   0  0  0  0  0  0
  -21.6613   -6.8852   21.4238 O   0  0  0  0  0  0
  -22.3446  -14.5476   20.6779 O   0  0  0  0  0  0
  -24.6385  -31.8499   23.1922 C   0  0  0  0  0  0
  -25.9177  -32.4716   23.8303 C   0  0  1  0  0  0
  -27.2101  -27.1919   20.1548 C   0  0  0  0  0  0
  -25.5936  -33.8521   24.2214 N   0  0  0  0  0  0
  -23.4401  -30.4690   21.5376 C   0  0  2  0  0  0
  -24.8873  -28.9023   20.1144 C   0  0  0  0  0  0
  -22.7546  -29.4581   22.4900 C   0  0  0  0  0  0
  -18.0288  -28.1410   22.8483 C   0  0  0  0  0  0
  -24.1489  -36.7270   23.2639 C   0  0  0  0  0  0
  -25.9910  -30.7430   21.3816 C   0  0  0  0  0  0
  -26.0631  -29.3576   20.7267 C   0  0  0  0  0  0
  -27.2326  -28.5185   20.7264 C   0  0  0  0  0  0
  -26.0153  -26.8220   19.5059 C   0  0  0  0  0  0
  -24.8728  -27.6474   19.4864 C   0  0  0  0  0  0
  -23.6623  -29.7984   20.1568 C   0  0  0  0  0  0
  -25.4118  -36.3056   24.0318 C   0  0  1  0  0  0
  -20.5898  -28.3733   23.1257 C   0  0  2  0  0  0
  -20.6781  -26.9445   22.5414 C   0  0  0  0  0  0
  -19.5760  -26.6401   21.5220 C   0  0  0  0  0  0
  -18.1933  -26.7951   22.1624 C   0  0  0  0  0  0
  -19.1543  -28.8891   23.2854 C   0  0  0  0  0  0
  -18.9457  -30.1482   23.8886 C   0  0  0  0  0  0
  -17.6456  -30.6603   24.0575 C   0  0  0  0  0  0
  -25.9068  -34.9422   23.5075 C   0  0  0  0  0  0
  -16.5347  -29.9101   23.6338 C   0  0  0  0  0  0
  -16.7273  -28.6520   23.0358 C   0  0  0  0  0  0
  -26.4510  -31.6568   25.0733 C   0  0  0  0  0  0
  -25.3691  -31.3721   26.1420 C   0  0  0  0  0  0
  -27.0364  -30.2969   24.6272 C   0  0  0  0  0  0
  -27.6050  -32.4332   25.7515 C   0  0  0  0  0  0
  -27.5575  -37.1788   24.8459 C   0  0  0  0  0  0
  -21.4244  -29.3064   22.3638 N   0  0  0  0  0  0
  -26.4286  -37.3767   23.9408 N   0  0  0  0  0  0
  -24.7096  -31.0401   22.0931 N   0  0  0  0  0  0
  -23.4206  -28.8118   23.3034 O   0  0  0  0  0  0
  -28.2690  -26.2382   20.1708 O   0  0  0  0  0  0
  -26.5656  -34.8913   22.4656 O   0  0  0  0  0  0
  -23.5514  -32.1356   23.7171 O   0  0  0  0  0  0
  -28.9568  -23.5669   18.6556 C   0  0  0  0  0  0
  -29.4100  -22.4634   17.9054 C   0  0  0  0  0  0
  -29.1994  -20.9101   19.8599 C   0  0  0  0  0  0
  -28.5872  -23.4636   19.9980 C   0  0  0  0  0  0
  -29.5969  -21.1748   18.5010 C   0  0  0  0  0  0
  -28.6753  -22.1020   20.5721 C   0  0  0  0  0  0
  -28.7770  -23.6308   15.6257 C   0  0  0  0  0  0
  -28.8070  -22.1514   15.3521 C   0  0  0  0  0  0
  -28.4585  -18.1964   19.9374 C   0  0  0  0  0  0
  -30.7632  -18.7218   20.5891 C   0  0  0  0  0  0
  -28.6812  -16.6844   20.4630 C   0  0  0  0  0  0
  -30.8686  -17.2784   21.2512 C   0  0  0  0  0  0
  -29.6842  -22.7314   16.4441 C   0  0  0  0  0  0
  -29.3403  -19.3900   20.5040 C   0  0  0  0  0  0
  -28.1752  -21.9155   21.9973 C   0  0  0  0  0  0
  -31.7921  -20.2701   17.5356 C   0  0  0  0  0  0
  -30.2643  -20.1097   17.6198 C   0  0  0  0  0  0
  -28.0050  -24.8168   20.6833 C   0  0  0  0  0  0
  -30.0669  -16.1460   20.6716 N   0  0  0  0  0  0
  -31.4436  -12.6608   19.1561 H   0  0  0  0  0  0
  -30.3703  -11.5983   20.0236 H   0  0  0  0  0  0
  -29.8025  -11.7015   17.5601 H   0  0  0  0  0  0
  -29.5808  -13.4309   17.6776 H   0  0  0  0  0  0
  -27.9260  -11.2409   18.9757 H   0  0  0  0  0  0
  -27.3643  -12.4158   17.8156 H   0  0  0  0  0  0
  -27.5447  -14.1860   19.3449 H   0  0  0  0  0  0
  -28.7446  -12.3352   21.4772 H   0  0  0  0  0  0
  -28.3690  -14.0281   21.7057 H   0  0  0  0  0  0
  -25.2729   -9.5623   22.4788 H   0  0  0  0  0  0
  -23.9974   -7.4569   22.7464 H   0  0  0  0  0  0
  -21.0825   -8.8754   19.8938 H   0  0  0  0  0  0
  -22.3695  -10.9650   19.6198 H   0  0  0  0  0  0
  -21.1992   -7.6142   23.9713 H   0  0  0  0  0  0
  -21.1479   -6.0533   25.9088 H   0  0  0  0  0  0
  -22.0603   -2.7599   23.2890 H   0  0  0  0  0  0
  -22.4034  -11.9813   22.4852 H   0  0  0  0  0  0
  -21.1036  -13.1175   22.2717 H   0  0  0  0  0  0
  -24.6568  -15.8466   20.5595 H   0  0  0  0  0  0
  -26.2757  -15.6291   20.1314 H   0  0  0  0  0  0
  -26.7244  -32.5348   23.1043 H   0  0  0  0  0  0
  -25.0041  -33.9639   25.0329 H   0  0  0  0  0  0
  -22.7420  -31.2940   21.3852 H   0  0  0  0  0  0
  -23.3767  -35.9589   23.3297 H   0  0  0  0  0  0
  -24.3571  -36.8908   22.2056 H   0  0  0  0  0  0
  -23.7226  -37.6452   23.6685 H   0  0  0  0  0  0
  -26.1343  -31.4995   20.6092 H   0  0  0  0  0  0
  -26.8670  -30.7952   22.0168 H   0  0  0  0  0  0
  -28.1357  -28.8648   21.2081 H   0  0  0  0  0  0
  -25.9542  -25.8587   19.0177 H   0  0  0  0  0  0
  -23.9762  -27.2984   18.9932 H   0  0  0  0  0  0
  -23.7912  -30.5728   19.4001 H   0  0  0  0  0  0
  -22.7805  -29.2339   19.8491 H   0  0  0  0  0  0
  -25.1301  -36.1901   25.0812 H   0  0  0  0  0  0
  -20.9951  -28.3330   24.1399 H   0  0  0  0  0  0
  -20.5695  -26.2351   23.3631 H   0  0  0  0  0  0
  -21.6646  -26.7484   22.1207 H   0  0  0  0  0  0
  -19.6929  -25.6304   21.1275 H   0  0  0  0  0  0
  -19.6698  -27.3195   20.6740 H   0  0  0  0  0  0
  -17.4204  -26.6689   21.4028 H   0  0  0  0  0  0
  -18.0331  -26.0105   22.9033 H   0  0  0  0  0  0
  -19.7929  -30.7297   24.2264 H   0  0  0  0  0  0
  -17.5009  -31.6281   24.5181 H   0  0  0  0  0  0
  -15.5345  -30.2997   23.7680 H   0  0  0  0  0  0
  -15.8673  -28.0834   22.7088 H   0  0  0  0  0  0
  -24.5912  -30.7028   25.7724 H   0  0  0  0  0  0
  -24.8825  -32.2877   26.4786 H   0  0  0  0  0  0
  -25.7977  -30.8939   27.0233 H   0  0  0  0  0  0
  -26.2965  -29.6708   24.1266 H   0  0  0  0  0  0
  -27.3968  -29.7250   25.4831 H   0  0  0  0  0  0
  -27.8887  -30.4215   23.9590 H   0  0  0  0  0  0
  -27.2646  -33.3655   26.2031 H   0  0  0  0  0  0
  -28.3884  -32.6835   25.0352 H   0  0  0  0  0  0
  -28.0691  -31.8495   26.5472 H   0  0  0  0  0  0
  -28.2570  -38.0103   24.7527 H   0  0  0  0  0  0
  -28.1089  -36.2629   24.6273 H   0  0  0  0  0  0
  -27.2293  -37.1420   25.8859 H   0  0  0  0  0  0
  -20.9455  -29.8759   21.6792 H   0  0  0  0  0  0
  -26.0163  -38.2839   24.1425 H   0  0  0  0  0  0
  -28.8581  -24.5309   18.1756 H   0  0  0  0  0  0
  -27.8692  -24.0200   16.0816 H   0  0  0  0  0  0
  -29.2341  -24.2759   14.8779 H   0  0  0  0  0  0
  -29.2870  -21.8329   14.4284 H   0  0  0  0  0  0
  -27.9336  -21.5726   15.6498 H   0  0  0  0  0  0
  -27.4107  -18.4521   20.1029 H   0  0  0  0  0  0
  -28.5278  -18.1452   18.8550 H   0  0  0  0  0  0
  -31.2145  -18.6215   19.6092 H   0  0  0  0  0  0
  -31.4179  -19.4001   21.1369 H   0  0  0  0  0  0
  -28.1847  -16.0570   19.7364 H   0  0  0  0  0  0
  -28.1427  -16.5542   21.4023 H   0  0  0  0  0  0
  -30.5810  -17.3581   22.2998 H   0  0  0  0  0  0
  -31.9266  -17.0127   21.2765 H   0  0  0  0  0  0
  -30.7510  -22.8223   16.2541 H   0  0  0  0  0  0
  -29.0349  -19.4851   21.5442 H   0  0  0  0  0  0
  -29.0160  -21.8280   22.6860 H   0  0  0  0  0  0
  -27.5602  -21.0204   22.0838 H   0  0  0  0  0  0
  -27.5506  -22.7412   22.3332 H   0  0  0  0  0  0
  -32.2326  -19.4508   16.9680 H   0  0  0  0  0  0
  -32.2551  -20.2721   18.5216 H   0  0  0  0  0  0
  -32.0834  -21.1961   17.0445 H   0  0  0  0  0  0
  -29.8470  -20.1328   16.6161 H   0  0  0  0  0  0
  -30.0438  -19.1029   17.9329 H   0  0  0  0  0  0
  -28.3764  -24.8220   21.7075 H   0  0  0  0  0  0
  -26.9309  -24.6644   20.7839 H   0  0  0  0  0  0
  1 25  1  0  0  0
  1 30  2  0  0  0
  1 89  1  0  0  0
  2  3  1  0  0  0
  2 25  1  0  0  0
  2 90  1  0  0  0
  2 91  1  0  0  0
  3  4  1  0  0  0
  3 92  1  0  0  0
  3 93  1  0  0  0
  4  5  1  0  0  0
  4 94  1  0  0  0
  4 95  1  0  0  0
  5  6  1  0  0  0
  5 26  1  0  0  0
  5 96  1  0  0  0
  6 25  1  0  0  0
  6 97  1  0  0  0
  6 98  1  0  0  0
  7  8  2  0  0  0
  7 26  1  0  0  0
  7 29  1  0  0  0
  8  9  1  0  0  0
  8 22  1  0  0  0
  9 10  1  0  0  0
  9 27  2  0  0  0
 10 11  2  0  0  0
 10 15  1  0  0  0
 11 12  1  0  0  0
 11 99  1  0  0  0
 12 13  2  0  0  0
 12100  1  0  0  0
 13 14  1  0  0  0
 13 31  1  0  0  0
 14 15  2  0  0  0
 14101  1  0  0  0
 15102  1  0  0  0
 16 17  2  0  0  0
 16 21  1  0  0  0
 16 31  1  0  0  0
 17 18  1  0  0  0
 17103  1  0  0  0
 18 19  2  0  0  0
 18104  1  0  0  0
 19 20  1  0  0  0
 19 24  1  0  0  0
 20 21  2  0  0  0
 20105  1  0  0  0
 21 23  1  0  0  0
 22 28  1  0  0  0
 22 32  2  0  0  0
 26 27  1  0  0  0
 28106  1  0  0  0
 28107  1  0  0  0
 29108  1  0  0  0
 29109  1  0  0  0
 33 34  1  0  0  0
 33 66  1  0  0  0
 33 70  2  0  0  0
 34 36  1  0  0  0
 34 59  1  0  0  0
 34110  1  0  0  0
 35 44  2  0  0  0
 35 45  1  0  0  0
 35 68  1  0  0  0
 36 56  1  0  0  0
 36111  1  0  0  0
 37 39  1  0  0  0
 37 47  1  0  0  0
 37 66  1  0  0  0
 37112  1  0  0  0
 38 43  2  0  0  0
 38 46  1  0  0  0
 38 47  1  0  0  0
 39 64  1  0  0  0
 39 67  2  0  0  0
 40 52  1  0  0  0
 40 53  2  0  0  0
 40 58  1  0  0  0
 41113  1  0  0  0
 41114  1  0  0  0
 41115  1  0  0  0
 41 48  1  0  0  0
 42 43  1  0  0  0
 42 66  1  0  0  0
 42116  1  0  0  0
 42117  1  0  0  0
 43 44  1  0  0  0
 44118  1  0  0  0
 45 46  2  0  0  0
 45119  1  0  0  0
 46120  1  0  0  0
 47121  1  0  0  0
 47122  1  0  0  0
 48 56  1  0  0  0
 48 65  1  0  0  0
 48123  1  0  0  0
 49 50  1  0  0  0
 49 53  1  0  0  0
 49 64  1  0  0  0
 49124  1  0  0  0
 50 51  1  0  0  0
 50125  1  0  0  0
 50126  1  0  0  0
 51 52  1  0  0  0
 51127  1  0  0  0
 51128  1  0  0  0
 52129  1  0  0  0
 52130  1  0  0  0
 53 54  1  0  0  0
 54 55  2  0  0  0
 54131  1  0  0  0
 55 57  1  0  0  0
 55132  1  0  0  0
 56 69  2  0  0  0
 57 58  2  0  0  0
 57133  1  0  0  0
 58134  1  0  0  0
 59 60  1  0  0  0
 59 61  1  0  0  0
 59 62  1  0  0  0
 60135  1  0  0  0
 60136  1  0  0  0
 60137  1  0  0  0
 61138  1  0  0  0
 61139  1  0  0  0
 61140  1  0  0  0
 62141  1  0  0  0
 62142  1  0  0  0
 62143  1  0  0  0
 63 65  1  0  0  0
 63144  1  0  0  0
 63145  1  0  0  0
 63146  1  0  0  0
 64147  1  0  0  0
 65148  1  0  0  0
 68 88  1  0  0  0
 71 72  2  0  0  0
 71 74  1  0  0  0
 71149  1  0  0  0
 72 75  1  0  0  0
 72 83  1  0  0  0
 73 75  2  0  0  0
 73 76  1  0  0  0
 73 84  1  0  0  0
 74 76  2  0  0  0
 74 88  1  0  0  0
 75 87  1  0  0  0
 76 85  1  0  0  0
 77 78  1  0  0  0
 77 83  1  0  0  0
 77150  1  0  0  0
 77151  1  0  0  0
 78 83  1  0  0  0
 78152  1  0  0  0
 78153  1  0  0  0
 79 81  1  0  0  0
 79 84  1  0  0  0
 79154  1  0  0  0
 79155  1  0  0  0
 80 82  1  0  0  0
 80 84  1  0  0  0
 80156  1  0  0  0
 80157  1  0  0  0
 81 89  1  0  0  0
 81158  1  0  0  0
 81159  1  0  0  0
 82 89  1  0  0  0
 82160  1  0  0  0
 82161  1  0  0  0
 83162  1  0  0  0
 84163  1  0  0  0
 85164  1  0  0  0
 85165  1  0  0  0
 85166  1  0  0  0
 86 87  1  0  0  0
 86167  1  0  0  0
 86168  1  0  0  0
 86169  1  0  0  0
 87170  1  0  0  0
 87171  1  0  0  0
 88172  1  0  0  0
 88173  1  0  0  0
M  ISO  4   1 100  68 101  88 101  89 100
M  END
> <chiral flag>
0

> <version>
0

> <s_m_source_file>
/data/baiqing/PycharmProjects/Reinvent-master-3.2/result/LINK_invent/BTK/process_docking_weight1_custom_sum_contain_oxygen_bond_distance_aromatic_linkinvent_7_9_3/rearranged_h_0167.sdf

> <i_m_source_file_index>
47

> <r_mmod_Potential_Energy-OPLS-2005>
615.823486328125

> <r_mmod_Stretch_Energy-OPLS-2005>
196.303466796875

> <r_mmod_Bend_Energy-OPLS-2005>
245.603088378906

> <r_mmod_Torsional_Energy-OPLS-2005>
368.554138183594

> <r_mmod_Improper_Torsional_Energy-OPLS-2005>
2.23860764503479

> <r_mmod_Van_der_Waal_Energy-OPLS-2005>
150.181900024414

> <r_mmod_Electrostatic_Energy-OPLS-2005>
-299.429992675781

> <r_mmod_Solvation_Energy-OPLS-2005>
-193.798187255859

> <b_mmod_Minimization_Converged-OPLS-2005>
0

> <r_mmod_RMS_Derivative-OPLS-2005>
1.89403486251831

$$$$
47
                    3D
 Structure written by MMmdl.
160169  0  0  1  0            999 V2000
  -30.5904  -14.8737   20.4418 C   0  0  0  0  0  0
  -30.4313  -12.5415   19.4939 C   0  0  0  0  0  0
  -29.5145  -12.5185   18.2510 C   0  0  0  0  0  0
  -28.0490  -12.3105   18.6736 C   0  0  0  0  0  0
  -27.6318  -13.2422   19.8414 C   0  0  2  0  0  0
  -28.6747  -13.2563   20.9791 C   0  0  0  0  0  0
  -25.2467  -13.8208   20.5706 C   0  0  0  0  0  0
  -24.1784  -13.0438   20.9225 C   0  0  0  0  0  0
  -24.6394  -11.6922   20.8771 C   0  0  0  0  0  0
  -23.9085  -10.4295   21.0417 C   0  0  0  0  0  0
  -24.3634   -9.4210   21.9189 C   0  0  0  0  0  0
  -23.6299   -8.2251   22.0763 C   0  0  0  0  0  0
  -22.4281   -8.0294   21.3559 C   0  0  0  0  0  0
  -21.9932   -9.0268   20.4655 C   0  0  0  0  0  0
  -22.7261  -10.2140   20.3063 C   0  0  0  0  0  0
  -21.6855   -6.0748   22.5284 C   0  0  0  0  0  0
  -21.4019   -6.5652   23.8218 C   0  0  0  0  0  0
  -21.3655   -5.6800   24.9177 C   0  0  0  0  0  0
  -21.6035   -4.3059   24.7228 C   0  0  0  0  0  0
  -21.8817   -3.8160   23.4346 C   0  0  0  0  0  0
  -21.9192   -4.6979   22.3404 C   0  0  0  0  0  0
  -22.7798  -13.5204   21.1875 C   0  0  0  0  0  0
  -22.1656   -4.2163   21.0981 F   0  0  0  0  0  0
  -21.5628   -3.4541   25.7741 F   0  0  0  0  0  0
  -29.9587  -13.6390   20.3808 N   0  0  0  0  0  0
  -26.2895  -12.9431   20.3273 N   0  0  0  0  0  0
  -25.9325  -11.6566   20.5767 N   0  0  0  0  0  0
  -22.0453  -12.8196   22.0428 N   0  0  0  0  0  0
  -25.4117  -15.1935   20.4087 N   0  0  0  0  0  0
  -31.7944  -14.9140   20.1692 O   0  0  0  0  0  0
  -21.6642   -6.8895   21.4245 O   0  0  0  0  0  0
  -22.3486  -14.5516   20.6718 O   0  0  0  0  0  0
  -24.6403  -31.8489   23.1914 C   0  0  0  0  0  0
  -25.9196  -32.4722   23.8295 C   0  0  1  0  0  0
  -27.2154  -27.1668   20.1566 C   0  0  0  0  0  0
  -25.5952  -33.8526   24.2213 N   0  0  0  0  0  0
  -23.4415  -30.4688   21.5357 C   0  0  2  0  0  0
  -24.8896  -28.8939   20.1186 C   0  0  0  0  0  0
  -22.7557  -29.4565   22.4878 C   0  0  0  0  0  0
  -18.0291  -28.1375   22.8476 C   0  0  0  0  0  0
  -24.1490  -36.7275   23.2635 C   0  0  0  0  0  0
  -25.9939  -30.7305   21.3864 C   0  0  0  0  0  0
  -26.0636  -29.3406   20.7379 C   0  0  0  0  0  0
  -27.2292  -28.4920   20.7404 C   0  0  0  0  0  0
  -26.0245  -26.8196   19.4900 C   0  0  0  0  0  0
  -24.8808  -27.6457   19.4782 C   0  0  0  0  0  0
  -23.6664  -29.7944   20.1560 C   0  0  0  0  0  0
  -25.4126  -36.3056   24.0306 C   0  0  1  0  0  0
  -20.5912  -28.3708   23.1238 C   0  0  2  0  0  0
  -20.6789  -26.9406   22.5404 C   0  0  0  0  0  0
  -19.5753  -26.6359   21.5217 C   0  0  0  0  0  0
  -18.1932  -26.7915   22.1620 C   0  0  0  0  0  0
  -19.1556  -28.8857   23.2843 C   0  0  0  0  0  0
  -18.9476  -30.1459   23.8860 C   0  0  0  0  0  0
  -17.6472  -30.6582   24.0554 C   0  0  0  0  0  0
  -25.9067  -34.9424   23.5065 C   0  0  0  0  0  0
  -16.5361  -29.9072   23.6332 C   0  0  0  0  0  0
  -16.7281  -28.6494   23.0349 C   0  0  0  0  0  0
  -26.4528  -31.6581   25.0730 C   0  0  0  0  0  0
  -25.3719  -31.3770   26.1437 C   0  0  0  0  0  0
  -27.0399  -30.2974   24.6308 C   0  0  0  0  0  0
  -27.6056  -32.4363   25.7506 C   0  0  0  0  0  0
  -27.5581  -37.1790   24.8455 C   0  0  0  0  0  0
  -21.4258  -29.3049   22.3634 N   0  0  0  0  0  0
  -26.4288  -37.3774   23.9409 N   0  0  0  0  0  0
  -24.7112  -31.0379   22.0926 N   0  0  0  0  0  0
  -23.4223  -28.8112   23.3013 O   0  0  0  0  0  0
  -28.3121  -26.2487   20.1248 O   0  0  0  0  0  0
  -26.5637  -34.8910   22.4631 O   0  0  0  0  0  0
  -23.5530  -32.1343   23.7171 O   0  0  0  0  0  0
  -28.0504  -20.8839   20.8226 C   0  0  0  0  0  0
  -30.4407  -20.0558   19.7680 C   0  0  0  0  0  0
  -28.7661  -21.9366   20.1418 C   0  0  0  0  0  0
  -28.4867  -19.4981   20.9666 C   0  0  0  0  0  0
  -30.0043  -21.4299   19.6211 C   0  0  0  0  0  0
  -29.7191  -19.0038   20.4219 C   0  0  0  0  0  0
  -26.7352  -23.2022   19.1330 C   0  0  0  0  0  0
  -27.8692  -23.6588   18.2692 C   0  0  0  0  0  0
  -28.1136  -23.3960   19.7454 C   0  0  0  0  0  0
  -27.5963  -18.5339   21.7267 C   0  0  0  0  0  0
  -30.8948  -22.3550   18.8109 C   0  0  0  0  0  0
  -30.4320  -17.5314   20.6094 C   0  0  0  0  0  0
  -28.2972  -24.7782   20.6199 C   0  0  0  0  0  0
  -29.8662  -16.0762   20.6030 N   0  0  0  0  0  0
  -31.4680  -12.6782   19.1861 H   0  0  0  0  0  0
  -30.4009  -11.5848   20.0184 H   0  0  0  0  0  0
  -29.8232  -11.7290   17.5652 H   0  0  0  0  0  0
  -29.6105  -13.4568   17.7009 H   0  0  0  0  0  0
  -27.9421  -11.2691   18.9801 H   0  0  0  0  0  0
  -27.3845  -12.4454   17.8203 H   0  0  0  0  0  0
  -27.6020  -14.2458   19.4177 H   0  0  0  0  0  0
  -28.7436  -12.2812   21.4641 H   0  0  0  0  0  0
  -28.3875  -13.9710   21.7518 H   0  0  0  0  0  0
  -25.2775   -9.5673   22.4772 H   0  0  0  0  0  0
  -24.0007   -7.4634   22.7484 H   0  0  0  0  0  0
  -21.0872   -8.8783   19.8952 H   0  0  0  0  0  0
  -22.3724  -10.9682   19.6183 H   0  0  0  0  0  0
  -21.2017   -7.6159   23.9723 H   0  0  0  0  0  0
  -21.1474   -6.0533   25.9076 H   0  0  0  0  0  0
  -22.0601   -2.7623   23.2845 H   0  0  0  0  0  0
  -22.4080  -11.9862   22.4813 H   0  0  0  0  0  0
  -21.1065  -13.1217   22.2640 H   0  0  0  0  0  0
  -24.6345  -15.8390   20.5023 H   0  0  0  0  0  0
  -26.2442  -15.6300   20.0350 H   0  0  0  0  0  0
  -26.7274  -32.5361   23.1038 H   0  0  0  0  0  0
  -25.0141  -33.9656   25.0393 H   0  0  0  0  0  0
  -22.7420  -31.2941   21.3834 H   0  0  0  0  0  0
  -23.3772  -35.9587   23.3280 H   0  0  0  0  0  0
  -24.3575  -36.8935   22.2051 H   0  0  0  0  0  0
  -23.7227  -37.6453   23.6695 H   0  0  0  0  0  0
  -26.1379  -31.4817   20.6089 H   0  0  0  0  0  0
  -26.8681  -30.7863   22.0233 H   0  0  0  0  0  0
  -28.1321  -28.8307   21.2283 H   0  0  0  0  0  0
  -25.9745  -25.8929   18.9468 H   0  0  0  0  0  0
  -23.9903  -27.3108   18.9634 H   0  0  0  0  0  0
  -23.7993  -30.5651   19.3955 H   0  0  0  0  0  0
  -22.7825  -29.2317   19.8502 H   0  0  0  0  0  0
  -25.1313  -36.1879   25.0797 H   0  0  0  0  0  0
  -20.9986  -28.3289   24.1365 H   0  0  0  0  0  0
  -20.5682  -26.2315   23.3624 H   0  0  0  0  0  0
  -21.6655  -26.7408   22.1197 H   0  0  0  0  0  0
  -19.6910  -25.6266   21.1246 H   0  0  0  0  0  0
  -19.6686  -27.3176   20.6753 H   0  0  0  0  0  0
  -17.4210  -26.6666   21.4009 H   0  0  0  0  0  0
  -18.0308  -26.0052   22.9005 H   0  0  0  0  0  0
  -19.7953  -30.7284   24.2198 H   0  0  0  0  0  0
  -17.5031  -31.6255   24.5171 H   0  0  0  0  0  0
  -15.5364  -30.2964   23.7684 H   0  0  0  0  0  0
  -15.8675  -28.0817   22.7053 H   0  0  0  0  0  0
  -24.5889  -30.7109   25.7792 H   0  0  0  0  0  0
  -24.8912  -32.2946   26.4830 H   0  0  0  0  0  0
  -25.8012  -30.8980   27.0241 H   0  0  0  0  0  0
  -26.3008  -29.6688   24.1315 H   0  0  0  0  0  0
  -27.4015  -29.7285   25.4892 H   0  0  0  0  0  0
  -27.8920  -30.4235   23.9624 H   0  0  0  0  0  0
  -27.2639  -33.3697   26.2004 H   0  0  0  0  0  0
  -28.3893  -32.6874   25.0343 H   0  0  0  0  0  0
  -28.0682  -31.8533   26.5483 H   0  0  0  0  0  0
  -28.2580  -38.0107   24.7543 H   0  0  0  0  0  0
  -28.1091  -36.2635   24.6240 H   0  0  0  0  0  0
  -27.2288  -37.1400   25.8853 H   0  0  0  0  0  0
  -20.9468  -29.8795   21.6842 H   0  0  0  0  0  0
  -26.0151  -38.2830   24.1464 H   0  0  0  0  0  0
  -27.0797  -21.1431   21.2218 H   0  0  0  0  0  0
  -31.3996  -19.7949   19.3406 H   0  0  0  0  0  0
  -26.3772  -22.1913   18.9470 H   0  0  0  0  0  0
  -25.9605  -23.8955   19.4381 H   0  0  0  0  0  0
  -27.8437  -24.6925   17.9318 H   0  0  0  0  0  0
  -28.2701  -22.9463   17.5516 H   0  0  0  0  0  0
  -27.0765  -17.8699   21.0346 H   0  0  0  0  0  0
  -26.8478  -19.0628   22.3174 H   0  0  0  0  0  0
  -28.1846  -17.9230   22.4119 H   0  0  0  0  0  0
  -31.9401  -22.0452   18.8549 H   0  0  0  0  0  0
  -30.8406  -23.3830   19.1696 H   0  0  0  0  0  0
  -30.5892  -22.3403   17.7645 H   0  0  0  0  0  0
  -30.9605  -17.6124   21.5601 H   0  0  0  0  0  0
  -31.2349  -17.5174   19.8709 H   0  0  0  0  0  0
  -29.2758  -24.6706   21.0884 H   0  0  0  0  0  0
  -27.5982  -24.7229   21.4542 H   0  0  0  0  0  0
  -28.8764  -15.9802   20.7692 H   0  0  0  0  0  0
  1 25  1  0  0  0
  1 30  2  0  0  0
  1 84  1  0  0  0
  2  3  1  0  0  0
  2 25  1  0  0  0
  2 85  1  0  0  0
  2 86  1  0  0  0
  3  4  1  0  0  0
  3 87  1  0  0  0
  3 88  1  0  0  0
  4  5  1  0  0  0
  4 89  1  0  0  0
  4 90  1  0  0  0
  5  6  1  0  0  0
  5 26  1  0  0  0
  5 91  1  0  0  0
  6 25  1  0  0  0
  6 92  1  0  0  0
  6 93  1  0  0  0
  7  8  2  0  0  0
  7 26  1  0  0  0
  7 29  1  0  0  0
  8  9  1  0  0  0
  8 22  1  0  0  0
  9 10  1  0  0  0
  9 27  2  0  0  0
 10 11  2  0  0  0
 10 15  1  0  0  0
 11 12  1  0  0  0
 11 94  1  0  0  0
 12 13  2  0  0  0
 12 95  1  0  0  0
 13 14  1  0  0  0
 13 31  1  0  0  0
 14 15  2  0  0  0
 14 96  1  0  0  0
 15 97  1  0  0  0
 16 17  2  0  0  0
 16 21  1  0  0  0
 16 31  1  0  0  0
 17 18  1  0  0  0
 17 98  1  0  0  0
 18 19  2  0  0  0
 18 99  1  0  0  0
 19 20  1  0  0  0
 19 24  1  0  0  0
 20 21  2  0  0  0
 20100  1  0  0  0
 21 23  1  0  0  0
 22 28  1  0  0  0
 22 32  2  0  0  0
 26 27  1  0  0  0
 28101  1  0  0  0
 28102  1  0  0  0
 29103  1  0  0  0
 29104  1  0  0  0
 33 34  1  0  0  0
 33 66  1  0  0  0
 33 70  2  0  0  0
 34 36  1  0  0  0
 34 59  1  0  0  0
 34105  1  0  0  0
 35 44  2  0  0  0
 35 45  1  0  0  0
 35 68  1  0  0  0
 36 56  1  0  0  0
 36106  1  0  0  0
 37 39  1  0  0  0
 37 47  1  0  0  0
 37 66  1  0  0  0
 37107  1  0  0  0
 38 43  2  0  0  0
 38 46  1  0  0  0
 38 47  1  0  0  0
 39 64  1  0  0  0
 39 67  2  0  0  0
 40 52  1  0  0  0
 40 53  2  0  0  0
 40 58  1  0  0  0
 41108  1  0  0  0
 41109  1  0  0  0
 41110  1  0  0  0
 41 48  1  0  0  0
 42 43  1  0  0  0
 42 66  1  0  0  0
 42111  1  0  0  0
 42112  1  0  0  0
 43 44  1  0  0  0
 44113  1  0  0  0
 45 46  2  0  0  0
 45114  1  0  0  0
 46115  1  0  0  0
 47116  1  0  0  0
 47117  1  0  0  0
 48 56  1  0  0  0
 48 65  1  0  0  0
 48118  1  0  0  0
 49 50  1  0  0  0
 49 53  1  0  0  0
 49 64  1  0  0  0
 49119  1  0  0  0
 50 51  1  0  0  0
 50120  1  0  0  0
 50121  1  0  0  0
 51 52  1  0  0  0
 51122  1  0  0  0
 51123  1  0  0  0
 52124  1  0  0  0
 52125  1  0  0  0
 53 54  1  0  0  0
 54 55  2  0  0  0
 54126  1  0  0  0
 55 57  1  0  0  0
 55127  1  0  0  0
 56 69  2  0  0  0
 57 58  2  0  0  0
 57128  1  0  0  0
 58129  1  0  0  0
 59 60  1  0  0  0
 59 61  1  0  0  0
 59 62  1  0  0  0
 60130  1  0  0  0
 60131  1  0  0  0
 60132  1  0  0  0
 61133  1  0  0  0
 61134  1  0  0  0
 61135  1  0  0  0
 62136  1  0  0  0
 62137  1  0  0  0
 62138  1  0  0  0
 63 65  1  0  0  0
 63139  1  0  0  0
 63140  1  0  0  0
 63141  1  0  0  0
 64142  1  0  0  0
 65143  1  0  0  0
 68 83  1  0  0  0
 71 73  2  0  0  0
 71 74  1  0  0  0
 71144  1  0  0  0
 72 75  2  0  0  0
 72 76  1  0  0  0
 72145  1  0  0  0
 73 75  1  0  0  0
 73 79  1  0  0  0
 74 76  2  0  0  0
 74 80  1  0  0  0
 75 81  1  0  0  0
 76 82  1  0  0  0
 77 78  1  0  0  0
 77 79  1  0  0  0
 77146  1  0  0  0
 77147  1  0  0  0
 78 79  1  0  0  0
 78148  1  0  0  0
 78149  1  0  0  0
 79 83  1  0  0  0
 80150  1  0  0  0
 80151  1  0  0  0
 80152  1  0  0  0
 81153  1  0  0  0
 81154  1  0  0  0
 81155  1  0  0  0
 82 84  1  0  0  0
 82156  1  0  0  0
 82157  1  0  0  0
 83158  1  0  0  0
 83159  1  0  0  0
 84160  1  0  0  0
M  ISO  4   1 100  68 101  83 101  84 100
M  END
> <chiral flag>
0

> <version>
0

> <s_m_source_file>
/data/baiqing/PycharmProjects/Reinvent-master-3.2/result/LINK_invent/BTK/process_docking_weight1_custom_sum_contain_oxygen_bond_distance_aromatic_linkinvent_7_9_3/rearranged_h_0167.sdf

> <i_m_source_file_index>
48

> <r_mmod_Potential_Energy-OPLS-2005>
403.345886230469

> <r_mmod_Stretch_Energy-OPLS-2005>
209.303955078125

> <r_mmod_Bend_Energy-OPLS-2005>
269.656311035156

> <r_mmod_Torsional_Energy-OPLS-2005>
262.206207275391

> <r_mmod_Improper_Torsional_Energy-OPLS-2005>
7.23050212860107

> <r_mmod_Van_der_Waal_Energy-OPLS-2005>
125.92399597168

> <r_mmod_Electrostatic_Energy-OPLS-2005>
-413.140533447266

> <r_mmod_Solvation_Energy-OPLS-2005>
-203.798278808594

> <b_mmod_Minimization_Converged-OPLS-2005>
0

> <r_mmod_RMS_Derivative-OPLS-2005>
2.03701400756836

$$$$
48
                    3D
 Structure written by MMmdl.
165174  0  0  1  0            999 V2000
  -30.7128  -14.7359   20.4720 C   0  0  0  0  0  0
  -30.4125  -12.4698   19.4625 C   0  0  0  0  0  0
  -29.4944  -12.5006   18.2256 C   0  0  0  0  0  0
  -28.0279  -12.3243   18.6564 C   0  0  0  0  0  0
  -27.6361  -13.2431   19.8454 C   0  0  2  0  0  0
  -28.6915  -13.2173   20.9732 C   0  0  0  0  0  0
  -25.2499  -13.8238   20.5728 C   0  0  0  0  0  0
  -24.1798  -13.0459   20.9225 C   0  0  0  0  0  0
  -24.6402  -11.6940   20.8770 C   0  0  0  0  0  0
  -23.9081  -10.4302   21.0409 C   0  0  0  0  0  0
  -24.3631   -9.4217   21.9183 C   0  0  0  0  0  0
  -23.6311   -8.2247   22.0750 C   0  0  0  0  0  0
  -22.4291   -8.0283   21.3538 C   0  0  0  0  0  0
  -21.9922   -9.0263   20.4644 C   0  0  0  0  0  0
  -22.7250  -10.2146   20.3059 C   0  0  0  0  0  0
  -21.6863   -6.0744   22.5276 C   0  0  0  0  0  0
  -21.4023   -6.5642   23.8210 C   0  0  0  0  0  0
  -21.3661   -5.6793   24.9171 C   0  0  0  0  0  0
  -21.6043   -4.3053   24.7222 C   0  0  0  0  0  0
  -21.8823   -3.8147   23.4342 C   0  0  0  0  0  0
  -21.9200   -4.6969   22.3403 C   0  0  0  0  0  0
  -22.7810  -13.5222   21.1874 C   0  0  0  0  0  0
  -22.1661   -4.2150   21.0982 F   0  0  0  0  0  0
  -21.5630   -3.4538   25.7734 F   0  0  0  0  0  0
  -29.9758  -13.5726   20.3581 N   0  0  0  0  0  0
  -26.2938  -12.9455   20.3333 N   0  0  0  0  0  0
  -25.9340  -11.6587   20.5799 N   0  0  0  0  0  0
  -22.0465  -12.8205   22.0434 N   0  0  0  0  0  0
  -25.4193  -15.1959   20.4118 N   0  0  0  0  0  0
  -31.9198  -14.6582   20.2257 O   0  0  0  0  0  0
  -21.6647   -6.8886   21.4234 O   0  0  0  0  0  0
  -22.3477  -14.5526   20.6720 O   0  0  0  0  0  0
  -24.6336  -31.8576   23.2049 C   0  0  0  0  0  0
  -25.9164  -32.4762   23.8373 C   0  0  1  0  0  0
  -27.2042  -27.2522   20.1095 C   0  0  0  0  0  0
  -25.5962  -33.8567   24.2283 N   0  0  0  0  0  0
  -23.4282  -30.4884   21.5493 C   0  0  2  0  0  0
  -24.8711  -28.9505   20.1107 C   0  0  0  0  0  0
  -22.7505  -29.4630   22.4917 C   0  0  0  0  0  0
  -18.0293  -28.1385   22.8492 C   0  0  0  0  0  0
  -24.1483  -36.7268   23.2639 C   0  0  0  0  0  0
  -25.9808  -30.7648   21.3926 C   0  0  0  0  0  0
  -26.0481  -29.3908   20.7282 C   0  0  0  0  0  0
  -27.2140  -28.5528   20.7275 C   0  0  0  0  0  0
  -25.9992  -26.9129   19.4401 C   0  0  0  0  0  0
  -24.8527  -27.7168   19.4592 C   0  0  0  0  0  0
  -23.6459  -29.8387   20.1617 C   0  0  0  0  0  0
  -25.4110  -36.3065   24.0325 C   0  0  1  0  0  0
  -20.5903  -28.3704   23.1256 C   0  0  2  0  0  0
  -20.6784  -26.9418   22.5403 C   0  0  0  0  0  0
  -19.5754  -26.6387   21.5211 C   0  0  0  0  0  0
  -18.1935  -26.7928   22.1628 C   0  0  0  0  0  0
  -19.1546  -28.8860   23.2875 C   0  0  0  0  0  0
  -18.9472  -30.1461   23.8896 C   0  0  0  0  0  0
  -17.6472  -30.6590   24.0564 C   0  0  0  0  0  0
  -25.9062  -34.9440   23.5098 C   0  0  0  0  0  0
  -16.5364  -29.9089   23.6330 C   0  0  0  0  0  0
  -16.7281  -28.6502   23.0361 C   0  0  0  0  0  0
  -26.4529  -31.6591   25.0764 C   0  0  0  0  0  0
  -25.3748  -31.3757   26.1486 C   0  0  0  0  0  0
  -27.0379  -30.2995   24.6283 C   0  0  0  0  0  0
  -27.6081  -32.4344   25.7525 C   0  0  0  0  0  0
  -27.5570  -37.1785   24.8469 C   0  0  0  0  0  0
  -21.4216  -29.3057   22.3645 N   0  0  0  0  0  0
  -26.4278  -37.3769   23.9421 N   0  0  0  0  0  0
  -24.6997  -31.0541   22.1038 N   0  0  0  0  0  0
  -23.4204  -28.8142   23.2993 O   0  0  0  0  0  0
  -28.2730  -26.3096   20.1896 O   0  0  0  0  0  0
  -26.5623  -34.8910   22.4662 O   0  0  0  0  0  0
  -23.5483  -32.1408   23.7331 O   0  0  0  0  0  0
  -28.1574  -21.2263   20.5188 C   0  0  0  0  0  0
  -29.4926  -20.7569   20.5443 C   0  0  0  0  0  0
  -30.4634  -21.8109   20.4213 C   0  0  0  0  0  0
  -30.0596  -23.1895   20.2499 C   0  0  0  0  0  0
  -28.6803  -23.5464   20.2076 C   0  0  0  0  0  0
  -28.7967  -18.1805   21.2290 C   0  0  0  0  0  0
  -30.3483  -18.4910   19.4325 C   0  0  0  0  0  0
  -29.2666  -16.6624   21.4293 C   0  0  0  0  0  0
  -30.9520  -17.0643   19.6863 C   0  0  0  0  0  0
  -29.8634  -19.2019   20.7131 C   0  0  0  0  0  0
  -31.9570  -21.4931   20.4290 C   0  0  0  0  0  0
  -31.1144  -24.2741   20.0518 C   0  0  0  0  0  0
  -28.2667  -24.9619   18.1200 C   0  0  0  0  0  0
  -28.0547  -24.9153   19.6461 C   0  0  2  0  0  0
  -27.7805  -22.5295   20.3522 N   0  0  0  0  0  0
  -30.1309  -16.0178   20.3873 N   0  0  0  0  0  0
  -31.4527  -12.5557   19.1450 H   0  0  0  0  0  0
  -30.3416  -11.5077   19.9713 H   0  0  0  0  0  0
  -29.7745  -11.7127   17.5256 H   0  0  0  0  0  0
  -29.6169  -13.4471   17.6967 H   0  0  0  0  0  0
  -27.9010  -11.2797   18.9429 H   0  0  0  0  0  0
  -27.3599  -12.4898   17.8101 H   0  0  0  0  0  0
  -27.6187  -14.2573   19.4453 H   0  0  0  0  0  0
  -28.7432  -12.2294   21.4323 H   0  0  0  0  0  0
  -28.4301  -13.9053   21.7753 H   0  0  0  0  0  0
  -25.2773   -9.5697   22.4763 H   0  0  0  0  0  0
  -24.0032   -7.4631   22.7460 H   0  0  0  0  0  0
  -21.0859   -8.8775   19.8944 H   0  0  0  0  0  0
  -22.3699  -10.9688   19.6176 H   0  0  0  0  0  0
  -21.2008   -7.6146   23.9714 H   0  0  0  0  0  0
  -21.1481   -6.0520   25.9076 H   0  0  0  0  0  0
  -22.0601   -2.7609   23.2840 H   0  0  0  0  0  0
  -22.4108  -11.9892   22.4849 H   0  0  0  0  0  0
  -21.1076  -13.1211   22.2632 H   0  0  0  0  0  0
  -24.6518  -15.8516   20.5113 H   0  0  0  0  0  0
  -26.2754  -15.6323   20.0932 H   0  0  0  0  0  0
  -26.7229  -32.5405   23.1109 H   0  0  0  0  0  0
  -25.0125  -33.9715   25.0437 H   0  0  0  0  0  0
  -22.7256  -31.3132   21.4107 H   0  0  0  0  0  0
  -23.3751  -35.9593   23.3299 H   0  0  0  0  0  0
  -24.3577  -36.8892   22.2056 H   0  0  0  0  0  0
  -23.7231  -37.6465   23.6663 H   0  0  0  0  0  0
  -26.1306  -31.5281   20.6277 H   0  0  0  0  0  0
  -26.8549  -30.8040   22.0307 H   0  0  0  0  0  0
  -28.1070  -28.8827   21.2404 H   0  0  0  0  0  0
  -25.8652  -26.0011   18.8833 H   0  0  0  0  0  0
  -23.9571  -27.3768   18.9577 H   0  0  0  0  0  0
  -23.7752  -30.6233   19.4152 H   0  0  0  0  0  0
  -22.7622  -29.2794   19.8486 H   0  0  0  0  0  0
  -25.1286  -36.1907   25.0814 H   0  0  0  0  0  0
  -21.0007  -28.3285   24.1372 H   0  0  0  0  0  0
  -20.5687  -26.2313   23.3611 H   0  0  0  0  0  0
  -21.6649  -26.7438   22.1192 H   0  0  0  0  0  0
  -19.6918  -25.6295   21.1244 H   0  0  0  0  0  0
  -19.6688  -27.3194   20.6738 H   0  0  0  0  0  0
  -17.4203  -26.6678   21.4034 H   0  0  0  0  0  0
  -18.0338  -26.0066   22.9021 H   0  0  0  0  0  0
  -19.7951  -30.7278   24.2264 H   0  0  0  0  0  0
  -17.5028  -31.6271   24.5162 H   0  0  0  0  0  0
  -15.5364  -30.2996   23.7653 H   0  0  0  0  0  0
  -15.8680  -28.0823   22.7080 H   0  0  0  0  0  0
  -24.5925  -30.7096   25.7830 H   0  0  0  0  0  0
  -24.8941  -32.2933   26.4886 H   0  0  0  0  0  0
  -25.8068  -30.8967   27.0280 H   0  0  0  0  0  0
  -26.2982  -29.6740   24.1275 H   0  0  0  0  0  0
  -27.4002  -29.7268   25.4832 H   0  0  0  0  0  0
  -27.8886  -30.4247   23.9580 H   0  0  0  0  0  0
  -27.2682  -33.3647   26.2086 H   0  0  0  0  0  0
  -28.3887  -32.6909   25.0349 H   0  0  0  0  0  0
  -28.0751  -31.8490   26.5454 H   0  0  0  0  0  0
  -28.2591  -38.0078   24.7514 H   0  0  0  0  0  0
  -28.1060  -36.2612   24.6288 H   0  0  0  0  0  0
  -27.2294  -37.1426   25.8873 H   0  0  0  0  0  0
  -20.9390  -29.8804   21.6877 H   0  0  0  0  0  0
  -26.0149  -38.2831   24.1455 H   0  0  0  0  0  0
  -27.3411  -20.5249   20.6090 H   0  0  0  0  0  0
  -28.3899  -18.5395   22.1751 H   0  0  0  0  0  0
  -27.9550  -18.1814   20.5357 H   0  0  0  0  0  0
  -29.5296  -18.4207   18.7147 H   0  0  0  0  0  0
  -31.1087  -19.1021   18.9451 H   0  0  0  0  0  0
  -28.3669  -16.0638   21.5592 H   0  0  0  0  0  0
  -29.8087  -16.5963   22.3746 H   0  0  0  0  0  0
  -31.8697  -17.2050   20.2618 H   0  0  0  0  0  0
  -31.2682  -16.6690   18.7188 H   0  0  0  0  0  0
  -30.6679  -19.1754   21.4485 H   0  0  0  0  0  0
  -32.1882  -20.4376   20.5409 H   0  0  0  0  0  0
  -32.4549  -22.0109   21.2488 H   0  0  0  0  0  0
  -32.4187  -21.8150   19.4953 H   0  0  0  0  0  0
  -31.8464  -24.2603   20.8597 H   0  0  0  0  0  0
  -30.6866  -25.2759   20.0379 H   0  0  0  0  0  0
  -31.6407  -24.1287   19.1076 H   0  0  0  0  0  0
  -27.8971  -24.0489   17.6536 H   0  0  0  0  0  0
  -29.3246  -25.0522   17.8769 H   0  0  0  0  0  0
  -27.7557  -25.7993   17.6481 H   0  0  0  0  0  0
  -27.0114  -24.6900   19.8471 H   0  0  0  0  0  0
  1 25  1  0  0  0
  1 30  2  0  0  0
  1 86  1  0  0  0
  2  3  1  0  0  0
  2 25  1  0  0  0
  2 87  1  0  0  0
  2 88  1  0  0  0
  3  4  1  0  0  0
  3 89  1  0  0  0
  3 90  1  0  0  0
  4  5  1  0  0  0
  4 91  1  0  0  0
  4 92  1  0  0  0
  5  6  1  0  0  0
  5 26  1  0  0  0
  5 93  1  0  0  0
  6 25  1  0  0  0
  6 94  1  0  0  0
  6 95  1  0  0  0
  7  8  2  0  0  0
  7 26  1  0  0  0
  7 29  1  0  0  0
  8  9  1  0  0  0
  8 22  1  0  0  0
  9 10  1  0  0  0
  9 27  2  0  0  0
 10 11  2  0  0  0
 10 15  1  0  0  0
 11 12  1  0  0  0
 11 96  1  0  0  0
 12 13  2  0  0  0
 12 97  1  0  0  0
 13 14  1  0  0  0
 13 31  1  0  0  0
 14 15  2  0  0  0
 14 98  1  0  0  0
 15 99  1  0  0  0
 16 17  2  0  0  0
 16 21  1  0  0  0
 16 31  1  0  0  0
 17 18  1  0  0  0
 17100  1  0  0  0
 18 19  2  0  0  0
 18101  1  0  0  0
 19 20  1  0  0  0
 19 24  1  0  0  0
 20 21  2  0  0  0
 20102  1  0  0  0
 21 23  1  0  0  0
 22 28  1  0  0  0
 22 32  2  0  0  0
 26 27  1  0  0  0
 28103  1  0  0  0
 28104  1  0  0  0
 29105  1  0  0  0
 29106  1  0  0  0
 33 34  1  0  0  0
 33 66  1  0  0  0
 33 70  2  0  0  0
 34 36  1  0  0  0
 34 59  1  0  0  0
 34107  1  0  0  0
 35 44  2  0  0  0
 35 45  1  0  0  0
 35 68  1  0  0  0
 36 56  1  0  0  0
 36108  1  0  0  0
 37 39  1  0  0  0
 37 47  1  0  0  0
 37 66  1  0  0  0
 37109  1  0  0  0
 38 43  2  0  0  0
 38 46  1  0  0  0
 38 47  1  0  0  0
 39 64  1  0  0  0
 39 67  2  0  0  0
 40 52  1  0  0  0
 40 53  2  0  0  0
 40 58  1  0  0  0
 41110  1  0  0  0
 41111  1  0  0  0
 41112  1  0  0  0
 41 48  1  0  0  0
 42 43  1  0  0  0
 42 66  1  0  0  0
 42113  1  0  0  0
 42114  1  0  0  0
 43 44  1  0  0  0
 44115  1  0  0  0
 45 46  2  0  0  0
 45116  1  0  0  0
 46117  1  0  0  0
 47118  1  0  0  0
 47119  1  0  0  0
 48 56  1  0  0  0
 48 65  1  0  0  0
 48120  1  0  0  0
 49 50  1  0  0  0
 49 53  1  0  0  0
 49 64  1  0  0  0
 49121  1  0  0  0
 50 51  1  0  0  0
 50122  1  0  0  0
 50123  1  0  0  0
 51 52  1  0  0  0
 51124  1  0  0  0
 51125  1  0  0  0
 52126  1  0  0  0
 52127  1  0  0  0
 53 54  1  0  0  0
 54 55  2  0  0  0
 54128  1  0  0  0
 55 57  1  0  0  0
 55129  1  0  0  0
 56 69  2  0  0  0
 57 58  2  0  0  0
 57130  1  0  0  0
 58131  1  0  0  0
 59 60  1  0  0  0
 59 61  1  0  0  0
 59 62  1  0  0  0
 60132  1  0  0  0
 60133  1  0  0  0
 60134  1  0  0  0
 61135  1  0  0  0
 61136  1  0  0  0
 61137  1  0  0  0
 62138  1  0  0  0
 62139  1  0  0  0
 62140  1  0  0  0
 63 65  1  0  0  0
 63141  1  0  0  0
 63142  1  0  0  0
 63143  1  0  0  0
 64144  1  0  0  0
 65145  1  0  0  0
 68 84  1  0  0  0
 71 72  2  0  0  0
 71 85  1  0  0  0
 71146  1  0  0  0
 72 73  1  0  0  0
 72 80  1  0  0  0
 73 74  2  0  0  0
 73 81  1  0  0  0
 74 75  1  0  0  0
 74 82  1  0  0  0
 75 84  1  0  0  0
 75 85  2  0  0  0
 76 78  1  0  0  0
 76 80  1  0  0  0
 76147  1  0  0  0
 76148  1  0  0  0
 77 79  1  0  0  0
 77 80  1  0  0  0
 77149  1  0  0  0
 77150  1  0  0  0
 78 86  1  0  0  0
 78151  1  0  0  0
 78152  1  0  0  0
 79 86  1  0  0  0
 79153  1  0  0  0
 79154  1  0  0  0
 80155  1  0  0  0
 81156  1  0  0  0
 81157  1  0  0  0
 81158  1  0  0  0
 82159  1  0  0  0
 82160  1  0  0  0
 82161  1  0  0  0
 83162  1  0  0  0
 83163  1  0  0  0
 83164  1  0  0  0
 83 84  1  0  0  0
 84165  1  0  0  0
M  ISO  4   1 100  68 101  84 101  86 100
M  END
> <chiral flag>
0

> <version>
0

> <s_m_source_file>
/data/baiqing/PycharmProjects/Reinvent-master-3.2/result/LINK_invent/BTK/process_docking_weight1_custom_sum_contain_oxygen_bond_distance_aromatic_linkinvent_7_9_3/rearranged_h_0167.sdf

> <i_m_source_file_index>
49

> <r_mmod_Potential_Energy-OPLS-2005>
322.817596435547

> <r_mmod_Stretch_Energy-OPLS-2005>
128.188812255859

> <r_mmod_Bend_Energy-OPLS-2005>
219.4775390625

> <r_mmod_Torsional_Energy-OPLS-2005>
307.633605957031

> <r_mmod_Improper_Torsional_Energy-OPLS-2005>
19.3883743286133

> <r_mmod_Van_der_Waal_Energy-OPLS-2005>
170.5380859375

> <r_mmod_Electrostatic_Energy-OPLS-2005>
-413.222930908203

> <r_mmod_Solvation_Energy-OPLS-2005>
-207.891021728516

> <b_mmod_Minimization_Converged-OPLS-2005>
0

> <r_mmod_RMS_Derivative-OPLS-2005>
1.44443368911743

$$$$
49
                    3D
 Structure written by MMmdl.
164173  0  0  1  0            999 V2000
  -30.5529  -14.9690   20.4112 C   0  0  0  0  0  0
  -30.4375  -12.6010   19.4945 C   0  0  0  0  0  0
  -29.5160  -12.5336   18.2535 C   0  0  0  0  0  0
  -28.0521  -12.3149   18.6809 C   0  0  0  0  0  0
  -27.6259  -13.2470   19.8448 C   0  0  2  0  0  0
  -28.6792  -13.2865   20.9736 C   0  0  0  0  0  0
  -25.2241  -13.7902   20.5432 C   0  0  0  0  0  0
  -24.1683  -13.0201   20.9259 C   0  0  0  0  0  0
  -24.6407  -11.6749   20.8871 C   0  0  0  0  0  0
  -23.9086  -10.4156   21.0476 C   0  0  0  0  0  0
  -24.3618   -9.4067   21.9241 C   0  0  0  0  0  0
  -23.6272   -8.2120   22.0773 C   0  0  0  0  0  0
  -22.4253   -8.0207   21.3546 C   0  0  0  0  0  0
  -21.9911   -9.0190   20.4644 C   0  0  0  0  0  0
  -22.7267  -10.2052   20.3088 C   0  0  0  0  0  0
  -21.6807   -6.0698   22.5293 C   0  0  0  0  0  0
  -21.3966   -6.5609   23.8224 C   0  0  0  0  0  0
  -21.3658   -5.6771   24.9195 C   0  0  0  0  0  0
  -21.6040   -4.3035   24.7253 C   0  0  0  0  0  0
  -21.8818   -3.8124   23.4379 C   0  0  0  0  0  0
  -21.9172   -4.6931   22.3428 C   0  0  0  0  0  0
  -22.7717  -13.5034   21.1912 C   0  0  0  0  0  0
  -22.1649   -4.2115   21.1008 F   0  0  0  0  0  0
  -21.5649   -3.4530   25.7775 F   0  0  0  0  0  0
  -29.9454  -13.7115   20.3635 N   0  0  0  0  0  0
  -26.2859  -12.9310   20.3306 N   0  0  0  0  0  0
  -25.9370  -11.6443   20.5909 N   0  0  0  0  0  0
  -22.0377  -12.8080   22.0516 N   0  0  0  0  0  0
  -25.3382  -15.1458   20.3156 N   0  0  0  0  0  0
  -31.7609  -15.0085   20.1658 O   0  0  0  0  0  0
  -21.6589   -6.8830   21.4245 O   0  0  0  0  0  0
  -22.3430  -14.5356   20.6754 O   0  0  0  0  0  0
  -24.6463  -31.8434   23.1838 C   0  0  0  0  0  0
  -25.9228  -32.4690   23.8252 C   0  0  1  0  0  0
  -27.2239  -27.1322   20.1414 C   0  0  0  0  0  0
  -25.5960  -33.8491   24.2163 N   0  0  0  0  0  0
  -23.4493  -30.4631   21.5315 C   0  0  2  0  0  0
  -24.8956  -28.8847   20.1104 C   0  0  0  0  0  0
  -22.7558  -29.4591   22.4859 C   0  0  0  0  0  0
  -18.0343  -28.1455   22.8512 C   0  0  0  0  0  0
  -24.1481  -36.7258   23.2647 C   0  0  0  0  0  0
  -26.0064  -30.7147   21.3804 C   0  0  0  0  0  0
  -26.0766  -29.3256   20.7206 C   0  0  0  0  0  0
  -27.2402  -28.4678   20.7142 C   0  0  0  0  0  0
  -26.0097  -26.7858   19.5047 C   0  0  0  0  0  0
  -24.8763  -27.6274   19.4875 C   0  0  0  0  0  0
  -23.6707  -29.7857   20.1544 C   0  0  0  0  0  0
  -25.4119  -36.3031   24.0313 C   0  0  1  0  0  0
  -20.5955  -28.3776   23.1276 C   0  0  2  0  0  0
  -20.6853  -26.9488   22.5444 C   0  0  0  0  0  0
  -19.5781  -26.6344   21.5322 C   0  0  0  0  0  0
  -18.1949  -26.7960   22.1713 C   0  0  0  0  0  0
  -19.1618  -28.8926   23.2866 C   0  0  0  0  0  0
  -18.9575  -30.1535   23.8884 C   0  0  0  0  0  0
  -17.6588  -30.6698   24.0559 C   0  0  0  0  0  0
  -25.9075  -34.9402   23.5048 C   0  0  0  0  0  0
  -16.5455  -29.9210   23.6337 C   0  0  0  0  0  0
  -16.7344  -28.6610   23.0401 C   0  0  0  0  0  0
  -26.4536  -31.6582   25.0719 C   0  0  0  0  0  0
  -25.3687  -31.3785   26.1386 C   0  0  0  0  0  0
  -27.0396  -30.2974   24.6316 C   0  0  0  0  0  0
  -27.6065  -32.4349   25.7537 C   0  0  0  0  0  0
  -27.5569  -37.1787   24.8464 C   0  0  0  0  0  0
  -21.4251  -29.3122   22.3642 N   0  0  0  0  0  0
  -26.4280  -37.3743   23.9403 N   0  0  0  0  0  0
  -24.7211  -31.0291   22.0873 N   0  0  0  0  0  0
  -23.4191  -28.8133   23.3007 O   0  0  0  0  0  0
  -28.2923  -26.1606   20.1940 O   0  0  0  0  0  0
  -26.5671  -34.8904   22.4641 O   0  0  0  0  0  0
  -23.5562  -32.1309   23.7052 O   0  0  0  0  0  0
  -26.9293  -20.0130   20.2232 C   0  0  0  0  0  0
  -29.6055  -20.5125   20.3522 C   0  0  0  0  0  0
  -27.7968  -18.9275   20.4847 C   0  0  0  0  0  0
  -29.2048  -19.0713   20.4307 C   0  0  0  0  0  0
  -28.7040  -21.7033   20.2320 C   0  0  0  0  0  0
  -27.3452  -21.3543   20.0587 C   0  0  0  0  0  0
  -26.1020  -17.7547   22.0050 C   0  0  0  0  0  0
  -27.3579  -16.9459   22.1851 C   0  0  0  0  0  0
  -27.1122  -17.6684   20.8732 C   0  0  0  0  0  0
  -29.9059  -23.5737   21.5597 C   0  0  0  0  0  0
  -25.2624  -21.9856   19.0537 C   0  0  0  0  0  0
  -30.1932  -17.7226   20.4956 C   0  0  0  0  0  0
  -28.0242  -24.6254   20.1031 C   0  0  0  0  0  0
  -29.1055  -23.3214   20.2770 C   0  0  1  0  0  0
  -29.7977  -16.1770   20.5279 N   0  0  0  0  0  0
  -26.4326  -22.3457   19.7808 O   0  0  0  0  0  0
  -31.4718  -12.7517   19.1796 H   0  0  0  0  0  0
  -30.4280  -11.6509   20.0326 H   0  0  0  0  0  0
  -29.8338  -11.7317   17.5847 H   0  0  0  0  0  0
  -29.5997  -13.4590   17.6821 H   0  0  0  0  0  0
  -27.9584  -11.2755   18.9955 H   0  0  0  0  0  0
  -27.3806  -12.4361   17.8296 H   0  0  0  0  0  0
  -27.5791  -14.2487   19.4195 H   0  0  0  0  0  0
  -28.7794  -12.3118   21.4524 H   0  0  0  0  0  0
  -28.3907  -13.9802   21.7625 H   0  0  0  0  0  0
  -25.2753   -9.5516   22.4835 H   0  0  0  0  0  0
  -23.9939   -7.4477   22.7479 H   0  0  0  0  0  0
  -21.0842   -8.8724   19.8942 H   0  0  0  0  0  0
  -22.3734  -10.9603   19.6209 H   0  0  0  0  0  0
  -21.1915   -7.6110   23.9723 H   0  0  0  0  0  0
  -21.1498   -6.0505   25.9098 H   0  0  0  0  0  0
  -22.0609   -2.7587   23.2895 H   0  0  0  0  0  0
  -22.3998  -11.9743   22.4894 H   0  0  0  0  0  0
  -21.1006  -13.1108   22.2764 H   0  0  0  0  0  0
  -24.5247  -15.7497   20.3600 H   0  0  0  0  0  0
  -26.1488  -15.5907   19.9131 H   0  0  0  0  0  0
  -26.7312  -32.5293   23.0991 H   0  0  0  0  0  0
  -24.9997  -33.9591   25.0230 H   0  0  0  0  0  0
  -22.7543  -31.2901   21.3705 H   0  0  0  0  0  0
  -23.3745  -35.9589   23.3309 H   0  0  0  0  0  0
  -24.3551  -36.8894   22.2061 H   0  0  0  0  0  0
  -23.7233  -37.6457   23.6672 H   0  0  0  0  0  0
  -26.1590  -31.4701   20.6083 H   0  0  0  0  0  0
  -26.8780  -30.7622   22.0233 H   0  0  0  0  0  0
  -28.1431  -28.8070   21.2016 H   0  0  0  0  0  0
  -25.8967  -25.8241   19.0272 H   0  0  0  0  0  0
  -23.9735  -27.2824   19.0019 H   0  0  0  0  0  0
  -23.8004  -30.5559   19.3946 H   0  0  0  0  0  0
  -22.7845  -29.2247   19.8511 H   0  0  0  0  0  0
  -25.1319  -36.1853   25.0806 H   0  0  0  0  0  0
  -21.0046  -28.3374   24.1411 H   0  0  0  0  0  0
  -20.5870  -26.2456   23.3714 H   0  0  0  0  0  0
  -21.6707  -26.7559   22.1179 H   0  0  0  0  0  0
  -19.6939  -25.6189   21.1535 H   0  0  0  0  0  0
  -19.6715  -27.3008   20.6741 H   0  0  0  0  0  0
  -17.4197  -26.6672   21.4153 H   0  0  0  0  0  0
  -18.0304  -26.0185   22.9181 H   0  0  0  0  0  0
  -19.8058  -30.7354   24.2272 H   0  0  0  0  0  0
  -17.5193  -31.6385   24.5145 H   0  0  0  0  0  0
  -15.5488  -30.3197   23.7687 H   0  0  0  0  0  0
  -15.8720  -28.0957   22.7114 H   0  0  0  0  0  0
  -24.5858  -30.7156   25.7681 H   0  0  0  0  0  0
  -24.8878  -32.2967   26.4765 H   0  0  0  0  0  0
  -25.7926  -30.8970   27.0201 H   0  0  0  0  0  0
  -26.3019  -29.6712   24.1282 H   0  0  0  0  0  0
  -27.3950  -29.7274   25.4919 H   0  0  0  0  0  0
  -27.8946  -30.4253   23.9675 H   0  0  0  0  0  0
  -27.2659  -33.3650   26.2100 H   0  0  0  0  0  0
  -28.3907  -32.6915   25.0403 H   0  0  0  0  0  0
  -28.0701  -31.8486   26.5475 H   0  0  0  0  0  0
  -28.2612  -38.0063   24.7516 H   0  0  0  0  0  0
  -28.1047  -36.2609   24.6295 H   0  0  0  0  0  0
  -27.2292  -37.1455   25.8866 H   0  0  0  0  0  0
  -20.9383  -29.8898   21.6930 H   0  0  0  0  0  0
  -26.0148  -38.2814   24.1380 H   0  0  0  0  0  0
  -25.8708  -19.7959   20.2132 H   0  0  0  0  0  0
  -30.6659  -20.7212   20.3974 H   0  0  0  0  0  0
  -26.0397  -18.6842   22.5685 H   0  0  0  0  0  0
  -25.1616  -17.2201   21.9010 H   0  0  0  0  0  0
  -27.2175  -15.8699   22.2210 H   0  0  0  0  0  0
  -28.1332  -17.3338   22.8438 H   0  0  0  0  0  0
  -26.8526  -17.1106   19.9790 H   0  0  0  0  0  0
  -29.3014  -23.3706   22.4447 H   0  0  0  0  0  0
  -30.2387  -24.6097   21.6182 H   0  0  0  0  0  0
  -30.7940  -22.9428   21.6044 H   0  0  0  0  0  0
  -24.8321  -22.8815   18.6074 H   0  0  0  0  0  0
  -24.5055  -21.5430   19.7034 H   0  0  0  0  0  0
  -25.4854  -21.2989   18.2347 H   0  0  0  0  0  0
  -30.8294  -17.8696   21.3702 H   0  0  0  0  0  0
  -30.8727  -17.8252   19.6475 H   0  0  0  0  0  0
  -27.2311  -24.4606   20.8340 H   0  0  0  0  0  0
  -27.5697  -24.4813   19.1240 H   0  0  0  0  0  0
  -29.8094  -23.4364   19.4531 H   0  0  0  0  0  0
  -28.8111  -16.0198   20.6602 H   0  0  0  0  0  0
  1 25  1  0  0  0
  1 30  2  0  0  0
  1 85  1  0  0  0
  2  3  1  0  0  0
  2 25  1  0  0  0
  2 87  1  0  0  0
  2 88  1  0  0  0
  3  4  1  0  0  0
  3 89  1  0  0  0
  3 90  1  0  0  0
  4  5  1  0  0  0
  4 91  1  0  0  0
  4 92  1  0  0  0
  5  6  1  0  0  0
  5 26  1  0  0  0
  5 93  1  0  0  0
  6 25  1  0  0  0
  6 94  1  0  0  0
  6 95  1  0  0  0
  7  8  2  0  0  0
  7 26  1  0  0  0
  7 29  1  0  0  0
  8  9  1  0  0  0
  8 22  1  0  0  0
  9 10  1  0  0  0
  9 27  2  0  0  0
 10 11  2  0  0  0
 10 15  1  0  0  0
 11 12  1  0  0  0
 11 96  1  0  0  0
 12 13  2  0  0  0
 12 97  1  0  0  0
 13 14  1  0  0  0
 13 31  1  0  0  0
 14 15  2  0  0  0
 14 98  1  0  0  0
 15 99  1  0  0  0
 16 17  2  0  0  0
 16 21  1  0  0  0
 16 31  1  0  0  0
 17 18  1  0  0  0
 17100  1  0  0  0
 18 19  2  0  0  0
 18101  1  0  0  0
 19 20  1  0  0  0
 19 24  1  0  0  0
 20 21  2  0  0  0
 20102  1  0  0  0
 21 23  1  0  0  0
 22 28  1  0  0  0
 22 32  2  0  0  0
 26 27  1  0  0  0
 28103  1  0  0  0
 28104  1  0  0  0
 29105  1  0  0  0
 29106  1  0  0  0
 33 34  1  0  0  0
 33 66  1  0  0  0
 33 70  2  0  0  0
 34 36  1  0  0  0
 34 59  1  0  0  0
 34107  1  0  0  0
 35 44  2  0  0  0
 35 45  1  0  0  0
 35 68  1  0  0  0
 36 56  1  0  0  0
 36108  1  0  0  0
 37 39  1  0  0  0
 37 47  1  0  0  0
 37 66  1  0  0  0
 37109  1  0  0  0
 38 43  2  0  0  0
 38 46  1  0  0  0
 38 47  1  0  0  0
 39 64  1  0  0  0
 39 67  2  0  0  0
 40 52  1  0  0  0
 40 53  2  0  0  0
 40 58  1  0  0  0
 41110  1  0  0  0
 41111  1  0  0  0
 41112  1  0  0  0
 41 48  1  0  0  0
 42 43  1  0  0  0
 42 66  1  0  0  0
 42113  1  0  0  0
 42114  1  0  0  0
 43 44  1  0  0  0
 44115  1  0  0  0
 45 46  2  0  0  0
 45116  1  0  0  0
 46117  1  0  0  0
 47118  1  0  0  0
 47119  1  0  0  0
 48 56  1  0  0  0
 48 65  1  0  0  0
 48120  1  0  0  0
 49 50  1  0  0  0
 49 53  1  0  0  0
 49 64  1  0  0  0
 49121  1  0  0  0
 50 51  1  0  0  0
 50122  1  0  0  0
 50123  1  0  0  0
 51 52  1  0  0  0
 51124  1  0  0  0
 51125  1  0  0  0
 52126  1  0  0  0
 52127  1  0  0  0
 53 54  1  0  0  0
 54 55  2  0  0  0
 54128  1  0  0  0
 55 57  1  0  0  0
 55129  1  0  0  0
 56 69  2  0  0  0
 57 58  2  0  0  0
 57130  1  0  0  0
 58131  1  0  0  0
 59 60  1  0  0  0
 59 61  1  0  0  0
 59 62  1  0  0  0
 60132  1  0  0  0
 60133  1  0  0  0
 60134  1  0  0  0
 61135  1  0  0  0
 61136  1  0  0  0
 61137  1  0  0  0
 62138  1  0  0  0
 62139  1  0  0  0
 62140  1  0  0  0
 63 65  1  0  0  0
 63141  1  0  0  0
 63142  1  0  0  0
 63143  1  0  0  0
 64144  1  0  0  0
 65145  1  0  0  0
 68 83  1  0  0  0
 71 73  2  0  0  0
 71 76  1  0  0  0
 71146  1  0  0  0
 72 74  2  0  0  0
 72 75  1  0  0  0
 72147  1  0  0  0
 73 74  1  0  0  0
 73 79  1  0  0  0
 74 82  1  0  0  0
 75 76  2  0  0  0
 75 84  1  0  0  0
 76 86  1  0  0  0
 77 78  1  0  0  0
 77 79  1  0  0  0
 77148  1  0  0  0
 77149  1  0  0  0
 78 79  1  0  0  0
 78150  1  0  0  0
 78151  1  0  0  0
 79152  1  0  0  0
 80153  1  0  0  0
 80154  1  0  0  0
 80155  1  0  0  0
 80 84  1  0  0  0
 81 86  1  0  0  0
 81156  1  0  0  0
 81157  1  0  0  0
 81158  1  0  0  0
 82 85  1  0  0  0
 82159  1  0  0  0
 82160  1  0  0  0
 83 84  1  0  0  0
 83161  1  0  0  0
 83162  1  0  0  0
 84163  1  0  0  0
 85164  1  0  0  0
M  ISO  4   1 100  68 101  83 101  85 100
M  END
> <chiral flag>
0

> <version>
0

> <s_m_source_file>
/data/baiqing/PycharmProjects/Reinvent-master-3.2/result/LINK_invent/BTK/process_docking_weight1_custom_sum_contain_oxygen_bond_distance_aromatic_linkinvent_7_9_3/rearranged_h_0167.sdf

> <i_m_source_file_index>
50

> <r_mmod_Potential_Energy-OPLS-2005>
524.923522949219

> <r_mmod_Stretch_Energy-OPLS-2005>
285.376678466797

> <r_mmod_Bend_Energy-OPLS-2005>
264.083618164062

> <r_mmod_Torsional_Energy-OPLS-2005>
255.24089050293

> <r_mmod_Improper_Torsional_Energy-OPLS-2005>
4.94750833511353

> <r_mmod_Van_der_Waal_Energy-OPLS-2005>
142.262634277344

> <r_mmod_Electrostatic_Energy-OPLS-2005>
-422.900146484375

> <r_mmod_Solvation_Energy-OPLS-2005>
-204.636596679688

> <b_mmod_Minimization_Converged-OPLS-2005>
0

> <r_mmod_RMS_Derivative-OPLS-2005>
3.68845534324646

$$$$
50
                    3D
 Structure written by MMmdl.
167177  0  0  1  0            999 V2000
  -30.6002  -14.8687   20.4714 C   0  0  0  0  0  0
  -30.4358  -12.5461   19.4896 C   0  0  0  0  0  0
  -29.5117  -12.5282   18.2500 C   0  0  0  0  0  0
  -28.0411  -12.3452   18.6680 C   0  0  0  0  0  0
  -27.6372  -13.2545   19.8596 C   0  0  2  0  0  0
  -28.6855  -13.2128   20.9910 C   0  0  0  0  0  0
  -25.2448  -13.8270   20.5745 C   0  0  0  0  0  0
  -24.1780  -13.0472   20.9240 C   0  0  0  0  0  0
  -24.6416  -11.6962   20.8769 C   0  0  0  0  0  0
  -23.9117  -10.4315   21.0401 C   0  0  0  0  0  0
  -24.3669   -9.4221   21.9167 C   0  0  0  0  0  0
  -23.6329   -8.2256   22.0746 C   0  0  0  0  0  0
  -22.4307   -8.0289   21.3541 C   0  0  0  0  0  0
  -21.9961   -9.0266   20.4633 C   0  0  0  0  0  0
  -22.7293  -10.2144   20.3043 C   0  0  0  0  0  0
  -21.6873   -6.0754   22.5282 C   0  0  0  0  0  0
  -21.4014   -6.5647   23.8216 C   0  0  0  0  0  0
  -21.3659   -5.6800   24.9172 C   0  0  0  0  0  0
  -21.6050   -4.3063   24.7218 C   0  0  0  0  0  0
  -21.8817   -3.8159   23.4335 C   0  0  0  0  0  0
  -21.9198   -4.6983   22.3397 C   0  0  0  0  0  0
  -22.7777  -13.5181   21.1884 C   0  0  0  0  0  0
  -22.1669   -4.2174   21.0973 F   0  0  0  0  0  0
  -21.5653   -3.4538   25.7725 F   0  0  0  0  0  0
  -29.9649  -13.6306   20.3993 N   0  0  0  0  0  0
  -26.2917  -12.9535   20.3358 N   0  0  0  0  0  0
  -25.9355  -11.6652   20.5816 N   0  0  0  0  0  0
  -22.0470  -12.8137   22.0442 N   0  0  0  0  0  0
  -25.4067  -15.2013   20.4155 N   0  0  0  0  0  0
  -31.7782  -14.9172   20.0980 O   0  0  0  0  0  0
  -21.6663   -6.8895   21.4234 O   0  0  0  0  0  0
  -22.3415  -14.5462   20.6727 O   0  0  0  0  0  0
  -24.6414  -31.8482   23.1971 C   0  0  0  0  0  0
  -25.9207  -32.4714   23.8323 C   0  0  1  0  0  0
  -27.2076  -27.1626   20.1328 C   0  0  0  0  0  0
  -25.5980  -33.8524   24.2228 N   0  0  0  0  0  0
  -23.4428  -30.4749   21.5423 C   0  0  2  0  0  0
  -24.8925  -28.9227   20.1075 C   0  0  0  0  0  0
  -22.7562  -29.4568   22.4876 C   0  0  0  0  0  0
  -18.0299  -28.1395   22.8489 C   0  0  0  0  0  0
  -24.1496  -36.7251   23.2647 C   0  0  0  0  0  0
  -26.0021  -30.7284   21.4010 C   0  0  0  0  0  0
  -26.0706  -29.3460   20.7360 C   0  0  0  0  0  0
  -27.2274  -28.4787   20.7440 C   0  0  0  0  0  0
  -26.0066  -26.8639   19.4376 C   0  0  0  0  0  0
  -24.8723  -27.6922   19.4455 C   0  0  0  0  0  0
  -23.6678  -29.8189   20.1572 C   0  0  0  0  0  0
  -25.4132  -36.3033   24.0306 C   0  0  1  0  0  0
  -20.5910  -28.3723   23.1236 C   0  0  2  0  0  0
  -20.6788  -26.9431   22.5405 C   0  0  0  0  0  0
  -19.5756  -26.6388   21.5218 C   0  0  0  0  0  0
  -18.1931  -26.7943   22.1622 C   0  0  0  0  0  0
  -19.1557  -28.8879   23.2849 C   0  0  0  0  0  0
  -18.9480  -30.1484   23.8860 C   0  0  0  0  0  0
  -17.6479  -30.6597   24.0565 C   0  0  0  0  0  0
  -25.9078  -34.9410   23.5051 C   0  0  0  0  0  0
  -16.5368  -29.9095   23.6347 C   0  0  0  0  0  0
  -16.7285  -28.6512   23.0368 C   0  0  0  0  0  0
  -26.4540  -31.6591   25.0765 C   0  0  0  0  0  0
  -25.3731  -31.3751   26.1458 C   0  0  0  0  0  0
  -27.0437  -30.2995   24.6365 C   0  0  0  0  0  0
  -27.6059  -32.4374   25.7551 C   0  0  0  0  0  0
  -27.5572  -37.1783   24.8466 C   0  0  0  0  0  0
  -21.4258  -29.3051   22.3620 N   0  0  0  0  0  0
  -26.4282  -37.3757   23.9415 N   0  0  0  0  0  0
  -24.7143  -31.0369   22.1005 N   0  0  0  0  0  0
  -23.4214  -28.8102   23.3006 O   0  0  0  0  0  0
  -28.2254  -26.1405   20.2288 O   0  0  0  0  0  0
  -26.5656  -34.8893   22.4622 O   0  0  0  0  0  0
  -23.5537  -32.1373   23.7180 O   0  0  0  0  0  0
  -29.2194  -21.1923   21.3367 C   0  0  0  0  0  0
  -29.1195  -20.2159   20.2872 C   0  0  0  0  0  0
  -28.3759  -22.2327   18.8991 C   0  0  0  0  0  0
  -28.9397  -22.6142   21.1913 C   0  0  0  0  0  0
  -28.7553  -20.8281   19.0424 C   0  0  0  0  0  0
  -28.4920  -23.2155   19.9643 C   0  0  0  0  0  0
  -26.3683  -23.2572   17.4522 C   0  0  0  0  0  0
  -26.6222  -21.8816   16.9243 C   0  0  0  0  0  0
  -28.9658  -18.0133   21.9182 C   0  0  0  0  0  0
  -29.0431  -16.4505   21.7804 C   0  0  0  0  0  0
  -30.1710  -17.4609   19.9866 C   0  0  0  0  0  0
  -29.1231  -18.5787   20.5056 C   0  0  2  0  0  0
  -27.7641  -22.6562   17.5697 C   0  0  0  0  0  0
  -29.0285  -23.4806   22.4337 C   0  0  0  0  0  0
  -28.7207  -19.9046   17.8281 C   0  0  0  0  0  0
  -27.8294  -24.7190   19.7892 C   0  0  0  0  0  0
  -29.8787  -16.0872   20.6165 N   0  0  0  0  0  0
  -31.4675  -12.6920   19.1673 H   0  0  0  0  0  0
  -30.4237  -11.5826   20.0014 H   0  0  0  0  0  0
  -29.8066  -11.7328   17.5632 H   0  0  0  0  0  0
  -29.6185  -13.4634   17.7002 H   0  0  0  0  0  0
  -27.9110  -11.2985   18.9469 H   0  0  0  0  0  0
  -27.3802  -12.5212   17.8189 H   0  0  0  0  0  0
  -27.6224  -14.2753   19.4743 H   0  0  0  0  0  0
  -28.7596  -12.2083   21.4080 H   0  0  0  0  0  0
  -28.3966  -13.8517   21.8245 H   0  0  0  0  0  0
  -25.2826   -9.5682   22.4732 H   0  0  0  0  0  0
  -24.0040   -7.4645   22.7478 H   0  0  0  0  0  0
  -21.0903   -8.8787   19.8934 H   0  0  0  0  0  0
  -22.3758  -10.9683   19.6151 H   0  0  0  0  0  0
  -21.2004   -7.6153   23.9716 H   0  0  0  0  0  0
  -21.1478   -6.0528   25.9078 H   0  0  0  0  0  0
  -22.0589   -2.7622   23.2820 H   0  0  0  0  0  0
  -22.4146  -11.9822   22.4832 H   0  0  0  0  0  0
  -21.1057  -13.1082   22.2649 H   0  0  0  0  0  0
  -24.6361  -15.8498   20.5264 H   0  0  0  0  0  0
  -26.2557  -15.6498   20.0956 H   0  0  0  0  0  0
  -26.7276  -32.5315   23.1052 H   0  0  0  0  0  0
  -25.0156  -33.9681   25.0392 H   0  0  0  0  0  0
  -22.7419  -31.2990   21.3944 H   0  0  0  0  0  0
  -23.3768  -35.9568   23.3288 H   0  0  0  0  0  0
  -24.3578  -36.8927   22.2065 H   0  0  0  0  0  0
  -23.7228  -37.6424   23.6711 H   0  0  0  0  0  0
  -26.1635  -31.4878   20.6336 H   0  0  0  0  0  0
  -26.8699  -30.7665   22.0498 H   0  0  0  0  0  0
  -28.1153  -28.7924   21.2758 H   0  0  0  0  0  0
  -25.8726  -25.9455   18.8885 H   0  0  0  0  0  0
  -23.9781  -27.3705   18.9272 H   0  0  0  0  0  0
  -23.8017  -30.5996   19.4078 H   0  0  0  0  0  0
  -22.7826  -29.2639   19.8427 H   0  0  0  0  0  0
  -25.1314  -36.1860   25.0792 H   0  0  0  0  0  0
  -20.9986  -28.3318   24.1365 H   0  0  0  0  0  0
  -20.5714  -26.2337   23.3619 H   0  0  0  0  0  0
  -21.6645  -26.7462   22.1186 H   0  0  0  0  0  0
  -19.6925  -25.6295   21.1262 H   0  0  0  0  0  0
  -19.6685  -27.3183   20.6726 H   0  0  0  0  0  0
  -17.4204  -26.6695   21.4016 H   0  0  0  0  0  0
  -18.0320  -26.0088   22.9015 H   0  0  0  0  0  0
  -19.7950  -30.7312   24.2209 H   0  0  0  0  0  0
  -17.5029  -31.6271   24.5183 H   0  0  0  0  0  0
  -15.5365  -30.2987   23.7702 H   0  0  0  0  0  0
  -15.8681  -28.0827   22.7106 H   0  0  0  0  0  0
  -24.5921  -30.7089   25.7776 H   0  0  0  0  0  0
  -24.8907  -32.2924   26.4837 H   0  0  0  0  0  0
  -25.8026  -30.8961   27.0269 H   0  0  0  0  0  0
  -26.3090  -29.6695   24.1347 H   0  0  0  0  0  0
  -27.4038  -29.7303   25.4946 H   0  0  0  0  0  0
  -27.8986  -30.4252   23.9718 H   0  0  0  0  0  0
  -27.2649  -33.3706   26.2040 H   0  0  0  0  0  0
  -28.3910  -32.6897   25.0411 H   0  0  0  0  0  0
  -28.0686  -31.8572   26.5551 H   0  0  0  0  0  0
  -28.2563  -38.0110   24.7551 H   0  0  0  0  0  0
  -28.1098  -36.2634   24.6256 H   0  0  0  0  0  0
  -27.2285  -37.1378   25.8870 H   0  0  0  0  0  0
  -20.9468  -29.8777   21.6812 H   0  0  0  0  0  0
  -26.0139  -38.2809   24.1471 H   0  0  0  0  0  0
  -29.4669  -20.8307   22.3257 H   0  0  0  0  0  0
  -25.7543  -23.3254   18.3485 H   0  0  0  0  0  0
  -26.2115  -24.0440   16.7152 H   0  0  0  0  0  0
  -26.6369  -21.7619   15.8431 H   0  0  0  0  0  0
  -26.1619  -21.0657   17.4790 H   0  0  0  0  0  0
  -29.7858  -18.3653   22.5462 H   0  0  0  0  0  0
  -28.0353  -18.3350   22.3875 H   0  0  0  0  0  0
  -28.0377  -16.0631   21.6173 H   0  0  0  0  0  0
  -29.4220  -15.9998   22.6998 H   0  0  0  0  0  0
  -31.1859  -17.7544   20.2592 H   0  0  0  0  0  0
  -30.1535  -17.3646   18.9025 H   0  0  0  0  0  0
  -28.1924  -18.2989   20.0116 H   0  0  0  0  0  0
  -28.5352  -23.0432   16.9040 H   0  0  0  0  0  0
  -29.7077  -23.0507   23.1703 H   0  0  0  0  0  0
  -28.0460  -23.5744   22.8958 H   0  0  0  0  0  0
  -29.3944  -24.4791   22.1941 H   0  0  0  0  0  0
  -29.5575  -19.2109   17.8506 H   0  0  0  0  0  0
  -28.8273  -20.4348   16.8838 H   0  0  0  0  0  0
  -27.7945  -19.3285   17.8041 H   0  0  0  0  0  0
  -26.8234  -24.5427   20.1711 H   0  0  0  0  0  0
  -27.7753  -24.8794   18.7174 H   0  0  0  0  0  0
  1 25  1  0  0  0
  1 30  2  0  0  0
  1 87  1  0  0  0
  2  3  1  0  0  0
  2 25  1  0  0  0
  2 88  1  0  0  0
  2 89  1  0  0  0
  3  4  1  0  0  0
  3 90  1  0  0  0
  3 91  1  0  0  0
  4  5  1  0  0  0
  4 92  1  0  0  0
  4 93  1  0  0  0
  5  6  1  0  0  0
  5 26  1  0  0  0
  5 94  1  0  0  0
  6 25  1  0  0  0
  6 95  1  0  0  0
  6 96  1  0  0  0
  7  8  2  0  0  0
  7 26  1  0  0  0
  7 29  1  0  0  0
  8  9  1  0  0  0
  8 22  1  0  0  0
  9 10  1  0  0  0
  9 27  2  0  0  0
 10 11  2  0  0  0
 10 15  1  0  0  0
 11 12  1  0  0  0
 11 97  1  0  0  0
 12 13  2  0  0  0
 12 98  1  0  0  0
 13 14  1  0  0  0
 13 31  1  0  0  0
 14 15  2  0  0  0
 14 99  1  0  0  0
 15100  1  0  0  0
 16 17  2  0  0  0
 16 21  1  0  0  0
 16 31  1  0  0  0
 17 18  1  0  0  0
 17101  1  0  0  0
 18 19  2  0  0  0
 18102  1  0  0  0
 19 20  1  0  0  0
 19 24  1  0  0  0
 20 21  2  0  0  0
 20103  1  0  0  0
 21 23  1  0  0  0
 22 28  1  0  0  0
 22 32  2  0  0  0
 26 27  1  0  0  0
 28104  1  0  0  0
 28105  1  0  0  0
 29106  1  0  0  0
 29107  1  0  0  0
 33 34  1  0  0  0
 33 66  1  0  0  0
 33 70  2  0  0  0
 34 36  1  0  0  0
 34 59  1  0  0  0
 34108  1  0  0  0
 35 44  2  0  0  0
 35 45  1  0  0  0
 35 68  1  0  0  0
 36 56  1  0  0  0
 36109  1  0  0  0
 37 39  1  0  0  0
 37 47  1  0  0  0
 37 66  1  0  0  0
 37110  1  0  0  0
 38 43  2  0  0  0
 38 46  1  0  0  0
 38 47  1  0  0  0
 39 64  1  0  0  0
 39 67  2  0  0  0
 40 52  1  0  0  0
 40 53  2  0  0  0
 40 58  1  0  0  0
 41111  1  0  0  0
 41112  1  0  0  0
 41113  1  0  0  0
 41 48  1  0  0  0
 42 43  1  0  0  0
 42 66  1  0  0  0
 42114  1  0  0  0
 42115  1  0  0  0
 43 44  1  0  0  0
 44116  1  0  0  0
 45 46  2  0  0  0
 45117  1  0  0  0
 46118  1  0  0  0
 47119  1  0  0  0
 47120  1  0  0  0
 48 56  1  0  0  0
 48 65  1  0  0  0
 48121  1  0  0  0
 49 50  1  0  0  0
 49 53  1  0  0  0
 49 64  1  0  0  0
 49122  1  0  0  0
 50 51  1  0  0  0
 50123  1  0  0  0
 50124  1  0  0  0
 51 52  1  0  0  0
 51125  1  0  0  0
 51126  1  0  0  0
 52127  1  0  0  0
 52128  1  0  0  0
 53 54  1  0  0  0
 54 55  2  0  0  0
 54129  1  0  0  0
 55 57  1  0  0  0
 55130  1  0  0  0
 56 69  2  0  0  0
 57 58  2  0  0  0
 57131  1  0  0  0
 58132  1  0  0  0
 59 60  1  0  0  0
 59 61  1  0  0  0
 59 62  1  0  0  0
 60133  1  0  0  0
 60134  1  0  0  0
 60135  1  0  0  0
 61136  1  0  0  0
 61137  1  0  0  0
 61138  1  0  0  0
 62139  1  0  0  0
 62140  1  0  0  0
 62141  1  0  0  0
 63 65  1  0  0  0
 63142  1  0  0  0
 63143  1  0  0  0
 63144  1  0  0  0
 64145  1  0  0  0
 65146  1  0  0  0
 68 86  1  0  0  0
 71 72  2  0  0  0
 71 74  1  0  0  0
 71147  1  0  0  0
 72 75  1  0  0  0
 72 82  1  0  0  0
 73 75  2  0  0  0
 73 76  1  0  0  0
 73 83  1  0  0  0
 74 76  2  0  0  0
 74 84  1  0  0  0
 75 85  1  0  0  0
 76 86  1  0  0  0
 77 78  1  0  0  0
 77 83  1  0  0  0
 77148  1  0  0  0
 77149  1  0  0  0
 78 83  1  0  0  0
 78150  1  0  0  0
 78151  1  0  0  0
 79 80  1  0  0  0
 79 82  1  0  0  0
 79152  1  0  0  0
 79153  1  0  0  0
 80 87  1  0  0  0
 80154  1  0  0  0
 80155  1  0  0  0
 81 82  1  0  0  0
 81 87  1  0  0  0
 81156  1  0  0  0
 81157  1  0  0  0
 82158  1  0  0  0
 83159  1  0  0  0
 84160  1  0  0  0
 84161  1  0  0  0
 84162  1  0  0  0
 85163  1  0  0  0
 85164  1  0  0  0
 85165  1  0  0  0
 86166  1  0  0  0
 86167  1  0  0  0
M  ISO  4   1 100  68 101  86 101  87 100
M  END
> <chiral flag>
0

> <version>
0

> <s_m_source_file>
/data/baiqing/PycharmProjects/Reinvent-master-3.2/result/LINK_invent/BTK/process_docking_weight1_custom_sum_contain_oxygen_bond_distance_aromatic_linkinvent_7_9_3/rearranged_h_0167.sdf

> <i_m_source_file_index>
51

> <r_mmod_Potential_Energy-OPLS-2005>
689.341674804688

> <r_mmod_Stretch_Energy-OPLS-2005>
206.474411010742

> <r_mmod_Bend_Energy-OPLS-2005>
299.945434570312

> <r_mmod_Torsional_Energy-OPLS-2005>
356.951110839844

> <r_mmod_Improper_Torsional_Energy-OPLS-2005>
14.7698755264282

> <r_mmod_Van_der_Waal_Energy-OPLS-2005>
152.581604003906

> <r_mmod_Electrostatic_Energy-OPLS-2005>
-300.365905761719

> <r_mmod_Solvation_Energy-OPLS-2005>
-198.258224487305

> <b_mmod_Minimization_Converged-OPLS-2005>
0

> <r_mmod_RMS_Derivative-OPLS-2005>
2.50029611587524

$$$$
51
                    3D
 Structure written by MMmdl.
174184  0  0  1  0            999 V2000
  -30.6648  -14.7408   20.4597 C   0  0  0  0  0  0
  -30.4144  -12.4643   19.4580 C   0  0  0  0  0  0
  -29.4932  -12.5094   18.2227 C   0  0  0  0  0  0
  -28.0214  -12.3394   18.6448 C   0  0  0  0  0  0
  -27.6357  -13.2377   19.8529 C   0  0  2  0  0  0
  -28.6909  -13.1704   20.9771 C   0  0  0  0  0  0
  -25.2483  -13.8211   20.5738 C   0  0  0  0  0  0
  -24.1780  -13.0436   20.9219 C   0  0  0  0  0  0
  -24.6379  -11.6922   20.8763 C   0  0  0  0  0  0
  -23.9060  -10.4286   21.0409 C   0  0  0  0  0  0
  -24.3611   -9.4200   21.9181 C   0  0  0  0  0  0
  -23.6291   -8.2231   22.0746 C   0  0  0  0  0  0
  -22.4271   -8.0270   21.3546 C   0  0  0  0  0  0
  -21.9904   -9.0243   20.4641 C   0  0  0  0  0  0
  -22.7232  -10.2120   20.3052 C   0  0  0  0  0  0
  -21.6847   -6.0728   22.5275 C   0  0  0  0  0  0
  -21.4011   -6.5637   23.8212 C   0  0  0  0  0  0
  -21.3663   -5.6792   24.9176 C   0  0  0  0  0  0
  -21.6041   -4.3050   24.7221 C   0  0  0  0  0  0
  -21.8819   -3.8142   23.4344 C   0  0  0  0  0  0
  -21.9187   -4.6958   22.3400 C   0  0  0  0  0  0
  -22.7801  -13.5211   21.1866 C   0  0  0  0  0  0
  -22.1656   -4.2144   21.0976 F   0  0  0  0  0  0
  -21.5631   -3.4537   25.7736 F   0  0  0  0  0  0
  -29.9682  -13.5507   20.3670 N   0  0  0  0  0  0
  -26.2918  -12.9428   20.3349 N   0  0  0  0  0  0
  -25.9313  -11.6561   20.5790 N   0  0  0  0  0  0
  -22.0455  -12.8204   22.0415 N   0  0  0  0  0  0
  -25.4157  -15.1935   20.4170 N   0  0  0  0  0  0
  -31.8729  -14.7017   20.2027 O   0  0  0  0  0  0
  -21.6635   -6.8867   21.4235 O   0  0  0  0  0  0
  -22.3484  -14.5512   20.6706 O   0  0  0  0  0  0
  -24.6304  -31.8564   23.2000 C   0  0  0  0  0  0
  -25.9132  -32.4758   23.8346 C   0  0  1  0  0  0
  -27.2157  -27.2799   20.1265 C   0  0  0  0  0  0
  -25.5940  -33.8562   24.2273 N   0  0  0  0  0  0
  -23.4286  -30.4787   21.5420 C   0  0  2  0  0  0
  -24.8788  -28.9337   20.1057 C   0  0  0  0  0  0
  -22.7511  -29.4593   22.4903 C   0  0  0  0  0  0
  -18.0294  -28.1387   22.8486 C   0  0  0  0  0  0
  -24.1489  -36.7276   23.2639 C   0  0  0  0  0  0
  -25.9741  -30.7750   21.3798 C   0  0  0  0  0  0
  -26.0503  -29.4008   20.7183 C   0  0  0  0  0  0
  -27.2276  -28.5847   20.7211 C   0  0  0  0  0  0
  -26.0323  -26.8860   19.4699 C   0  0  0  0  0  0
  -24.8737  -27.6836   19.4689 C   0  0  0  0  0  0
  -23.6474  -29.8165   20.1566 C   0  0  0  0  0  0
  -25.4117  -36.3073   24.0336 C   0  0  1  0  0  0
  -20.5900  -28.3693   23.1275 C   0  0  2  0  0  0
  -20.6784  -26.9412   22.5408 C   0  0  0  0  0  0
  -19.5758  -26.6384   21.5212 C   0  0  0  0  0  0
  -18.1936  -26.7930   22.1621 C   0  0  0  0  0  0
  -19.1546  -28.8856   23.2874 C   0  0  0  0  0  0
  -18.9461  -30.1457   23.8890 C   0  0  0  0  0  0
  -17.6459  -30.6590   24.0560 C   0  0  0  0  0  0
  -25.9057  -34.9440   23.5103 C   0  0  0  0  0  0
  -16.5349  -29.9087   23.6328 C   0  0  0  0  0  0
  -16.7280  -28.6501   23.0358 C   0  0  0  0  0  0
  -26.4507  -31.6577   25.0730 C   0  0  0  0  0  0
  -25.3726  -31.3724   26.1444 C   0  0  0  0  0  0
  -27.0351  -30.2993   24.6212 C   0  0  0  0  0  0
  -27.6064  -32.4315   25.7499 C   0  0  0  0  0  0
  -27.5582  -37.1796   24.8464 C   0  0  0  0  0  0
  -21.4216  -29.3038   22.3659 N   0  0  0  0  0  0
  -26.4291  -37.3774   23.9416 N   0  0  0  0  0  0
  -24.6962  -31.0538   22.0969 N   0  0  0  0  0  0
  -23.4215  -28.8133   23.2995 O   0  0  0  0  0  0
  -28.2497  -26.3242   20.1901 O   0  0  0  0  0  0
  -26.5622  -34.8916   22.4669 O   0  0  0  0  0  0
  -23.5452  -32.1370   23.7303 O   0  0  0  0  0  0
  -29.2440  -21.5833   19.7036 C   0  0  0  0  0  0
  -29.0860  -20.6961   20.8169 C   0  0  0  0  0  0
  -28.5971  -21.3414   21.9970 C   0  0  0  0  0  0
  -28.2182  -22.7347   22.0219 C   0  0  0  0  0  0
  -28.3975  -23.6201   20.9027 C   0  0  0  0  0  0
  -28.9327  -22.9994   19.7351 C   0  0  0  0  0  0
  -28.4817  -18.0274   21.1405 C   0  0  0  0  0  0
  -30.1630  -18.5461   19.5281 C   0  0  0  0  0  0
  -29.0438  -16.5522   21.3636 C   0  0  0  0  0  0
  -30.7953  -17.1073   19.7112 C   0  0  0  0  0  0
  -31.5612  -23.6855   18.2808 C   0  0  0  0  0  0
  -30.4856  -24.6727   16.8164 C   0  0  0  0  0  0
  -29.5325  -19.1415   20.8075 C   0  0  0  0  0  0
  -30.1489  -23.4922   17.7240 C   0  0  0  0  0  0
  -28.4863  -20.5392   23.2943 C   0  0  0  0  0  0
  -27.5966  -23.2897   23.3108 C   0  0  0  0  0  0
  -27.8970  -25.1439   21.0365 C   0  0  0  0  0  0
  -30.0274  -15.9977   20.3827 N   0  0  0  0  0  0
  -31.8952  -24.3707   17.0373 N   0  3  0  0  0  0
  -29.1113  -23.8209   18.6435 O   0  0  0  0  0  0
  -31.4553  -12.5639   19.1467 H   0  0  0  0  0  0
  -30.3506  -11.4926   19.9510 H   0  0  0  0  0  0
  -29.7717  -11.7308   17.5110 H   0  0  0  0  0  0
  -29.6177  -13.4613   17.7031 H   0  0  0  0  0  0
  -27.8761  -11.2901   18.9044 H   0  0  0  0  0  0
  -27.3589  -12.5360   17.8014 H   0  0  0  0  0  0
  -27.6272  -14.2608   19.4767 H   0  0  0  0  0  0
  -28.7469  -12.1620   21.3899 H   0  0  0  0  0  0
  -28.4386  -13.8115   21.8196 H   0  0  0  0  0  0
  -25.2751   -9.5678   22.4769 H   0  0  0  0  0  0
  -24.0003   -7.4613   22.7458 H   0  0  0  0  0  0
  -21.0839   -8.8751   19.8947 H   0  0  0  0  0  0
  -22.3685  -10.9659   19.6165 H   0  0  0  0  0  0
  -21.2005   -7.6146   23.9721 H   0  0  0  0  0  0
  -21.1492   -6.0517   25.9083 H   0  0  0  0  0  0
  -22.0597   -2.7604   23.2840 H   0  0  0  0  0  0
  -22.4079  -11.9873   22.4813 H   0  0  0  0  0  0
  -21.1061  -13.1206   22.2615 H   0  0  0  0  0  0
  -24.6486  -15.8456   20.5354 H   0  0  0  0  0  0
  -26.2700  -15.6381   20.1059 H   0  0  0  0  0  0
  -26.7200  -32.5423   23.1093 H   0  0  0  0  0  0
  -25.0102  -33.9704   25.0429 H   0  0  0  0  0  0
  -22.7247  -31.3006   21.3975 H   0  0  0  0  0  0
  -23.3763  -35.9594   23.3294 H   0  0  0  0  0  0
  -24.3574  -36.8899   22.2052 H   0  0  0  0  0  0
  -23.7228  -37.6475   23.6656 H   0  0  0  0  0  0
  -26.1152  -31.5402   20.6151 H   0  0  0  0  0  0
  -26.8500  -30.8194   22.0152 H   0  0  0  0  0  0
  -28.1211  -28.9292   21.2225 H   0  0  0  0  0  0
  -25.9919  -25.9185   18.9882 H   0  0  0  0  0  0
  -23.9795  -27.3231   18.9789 H   0  0  0  0  0  0
  -23.7700  -30.5948   19.4021 H   0  0  0  0  0  0
  -22.7671  -29.2477   19.8509 H   0  0  0  0  0  0
  -25.1298  -36.1920   25.0831 H   0  0  0  0  0  0
  -20.9994  -28.3256   24.1393 H   0  0  0  0  0  0
  -20.5675  -26.2302   23.3607 H   0  0  0  0  0  0
  -21.6650  -26.7421   22.1205 H   0  0  0  0  0  0
  -19.6916  -25.6292   21.1247 H   0  0  0  0  0  0
  -19.6706  -27.3187   20.6736 H   0  0  0  0  0  0
  -17.4215  -26.6677   21.4016 H   0  0  0  0  0  0
  -18.0320  -26.0064   22.9007 H   0  0  0  0  0  0
  -19.7940  -30.7262   24.2262 H   0  0  0  0  0  0
  -17.5018  -31.6272   24.5157 H   0  0  0  0  0  0
  -15.5347  -30.2980   23.7661 H   0  0  0  0  0  0
  -15.8683  -28.0811   22.7079 H   0  0  0  0  0  0
  -24.5907  -30.7073   25.7763 H   0  0  0  0  0  0
  -24.8910  -32.2889   26.4862 H   0  0  0  0  0  0
  -25.8034  -30.8901   27.0228 H   0  0  0  0  0  0
  -26.2936  -29.6739   24.1230 H   0  0  0  0  0  0
  -27.4024  -29.7258   25.4733 H   0  0  0  0  0  0
  -27.8819  -30.4268   23.9467 H   0  0  0  0  0  0
  -27.2687  -33.3629   26.2057 H   0  0  0  0  0  0
  -28.3885  -32.6852   25.0331 H   0  0  0  0  0  0
  -28.0722  -31.8451   26.5429 H   0  0  0  0  0  0
  -28.2590  -38.0101   24.7528 H   0  0  0  0  0  0
  -28.1088  -36.2637   24.6267 H   0  0  0  0  0  0
  -27.2305  -37.1418   25.8866 H   0  0  0  0  0  0
  -20.9398  -29.8765   21.6872 H   0  0  0  0  0  0
  -26.0168  -38.2848   24.1419 H   0  0  0  0  0  0
  -29.6278  -21.1503   18.7934 H   0  0  0  0  0  0
  -27.9113  -18.2919   22.0279 H   0  0  0  0  0  0
  -27.7375  -18.0030   20.3427 H   0  0  0  0  0  0
  -29.4212  -18.5211   18.7281 H   0  0  0  0  0  0
  -30.9511  -19.2123   19.1758 H   0  0  0  0  0  0
  -28.1818  -15.8921   21.4238 H   0  0  0  0  0  0
  -29.5216  -16.5111   22.3432 H   0  0  0  0  0  0
  -31.7206  -17.2423   20.2739 H   0  0  0  0  0  0
  -31.1008  -16.7556   18.7238 H   0  0  0  0  0  0
  -32.1225  -22.7656   18.4446 H   0  0  0  0  0  0
  -31.6066  -24.3543   19.1424 H   0  0  0  0  0  0
  -30.2037  -25.6421   17.2313 H   0  0  0  0  0  0
  -30.1684  -24.5618   15.7793 H   0  0  0  0  0  0
  -30.3167  -19.0875   21.5632 H   0  0  0  0  0  0
  -30.0040  -22.5710   17.1557 H   0  0  0  0  0  0
  -29.1442  -19.6750   23.3319 H   0  0  0  0  0  0
  -27.4618  -20.1944   23.4394 H   0  0  0  0  0  0
  -28.7727  -21.1360   24.1598 H   0  0  0  0  0  0
  -27.0021  -22.5444   23.8372 H   0  0  0  0  0  0
  -26.9001  -24.1091   23.1472 H   0  0  0  0  0  0
  -28.3781  -23.6392   23.9861 H   0  0  0  0  0  0
  -28.2226  -25.4793   22.0208 H   0  0  0  0  0  0
  -26.8119  -25.0611   21.1073 H   0  0  0  0  0  0
  -32.2607  -23.7400   16.3439 H   0  0  0  0  0  0
  -32.4807  -25.1810   17.1515 H   0  0  0  0  0  0
  1 25  1  0  0  0
  1 30  2  0  0  0
  1 88  1  0  0  0
  2  3  1  0  0  0
  2 25  1  0  0  0
  2 91  1  0  0  0
  2 92  1  0  0  0
  3  4  1  0  0  0
  3 93  1  0  0  0
  3 94  1  0  0  0
  4  5  1  0  0  0
  4 95  1  0  0  0
  4 96  1  0  0  0
  5  6  1  0  0  0
  5 26  1  0  0  0
  5 97  1  0  0  0
  6 25  1  0  0  0
  6 98  1  0  0  0
  6 99  1  0  0  0
  7  8  2  0  0  0
  7 26  1  0  0  0
  7 29  1  0  0  0
  8  9  1  0  0  0
  8 22  1  0  0  0
  9 10  1  0  0  0
  9 27  2  0  0  0
 10 11  2  0  0  0
 10 15  1  0  0  0
 11 12  1  0  0  0
 11100  1  0  0  0
 12 13  2  0  0  0
 12101  1  0  0  0
 13 14  1  0  0  0
 13 31  1  0  0  0
 14 15  2  0  0  0
 14102  1  0  0  0
 15103  1  0  0  0
 16 17  2  0  0  0
 16 21  1  0  0  0
 16 31  1  0  0  0
 17 18  1  0  0  0
 17104  1  0  0  0
 18 19  2  0  0  0
 18105  1  0  0  0
 19 20  1  0  0  0
 19 24  1  0  0  0
 20 21  2  0  0  0
 20106  1  0  0  0
 21 23  1  0  0  0
 22 28  1  0  0  0
 22 32  2  0  0  0
 26 27  1  0  0  0
 28107  1  0  0  0
 28108  1  0  0  0
 29109  1  0  0  0
 29110  1  0  0  0
 33 34  1  0  0  0
 33 66  1  0  0  0
 33 70  2  0  0  0
 34 36  1  0  0  0
 34 59  1  0  0  0
 34111  1  0  0  0
 35 44  2  0  0  0
 35 45  1  0  0  0
 35 68  1  0  0  0
 36 56  1  0  0  0
 36112  1  0  0  0
 37 39  1  0  0  0
 37 47  1  0  0  0
 37 66  1  0  0  0
 37113  1  0  0  0
 38 43  2  0  0  0
 38 46  1  0  0  0
 38 47  1  0  0  0
 39 64  1  0  0  0
 39 67  2  0  0  0
 40 52  1  0  0  0
 40 53  2  0  0  0
 40 58  1  0  0  0
 41114  1  0  0  0
 41115  1  0  0  0
 41116  1  0  0  0
 41 48  1  0  0  0
 42 43  1  0  0  0
 42 66  1  0  0  0
 42117  1  0  0  0
 42118  1  0  0  0
 43 44  1  0  0  0
 44119  1  0  0  0
 45 46  2  0  0  0
 45120  1  0  0  0
 46121  1  0  0  0
 47122  1  0  0  0
 47123  1  0  0  0
 48 56  1  0  0  0
 48 65  1  0  0  0
 48124  1  0  0  0
 49 50  1  0  0  0
 49 53  1  0  0  0
 49 64  1  0  0  0
 49125  1  0  0  0
 50 51  1  0  0  0
 50126  1  0  0  0
 50127  1  0  0  0
 51 52  1  0  0  0
 51128  1  0  0  0
 51129  1  0  0  0
 52130  1  0  0  0
 52131  1  0  0  0
 53 54  1  0  0  0
 54 55  2  0  0  0
 54132  1  0  0  0
 55 57  1  0  0  0
 55133  1  0  0  0
 56 69  2  0  0  0
 57 58  2  0  0  0
 57134  1  0  0  0
 58135  1  0  0  0
 59 60  1  0  0  0
 59 61  1  0  0  0
 59 62  1  0  0  0
 60136  1  0  0  0
 60137  1  0  0  0
 60138  1  0  0  0
 61139  1  0  0  0
 61140  1  0  0  0
 61141  1  0  0  0
 62142  1  0  0  0
 62143  1  0  0  0
 62144  1  0  0  0
 63 65  1  0  0  0
 63145  1  0  0  0
 63146  1  0  0  0
 63147  1  0  0  0
 64148  1  0  0  0
 65149  1  0  0  0
 68 87  1  0  0  0
 71 72  2  0  0  0
 71 76  1  0  0  0
 71150  1  0  0  0
 72 73  1  0  0  0
 72 83  1  0  0  0
 73 74  2  0  0  0
 73 85  1  0  0  0
 74 75  1  0  0  0
 74 86  1  0  0  0
 75 76  2  0  0  0
 75 87  1  0  0  0
 76 90  1  0  0  0
 77 79  1  0  0  0
 77 83  1  0  0  0
 77151  1  0  0  0
 77152  1  0  0  0
 78 80  1  0  0  0
 78 83  1  0  0  0
 78153  1  0  0  0
 78154  1  0  0  0
 79 88  1  0  0  0
 79155  1  0  0  0
 79156  1  0  0  0
 80 88  1  0  0  0
 80157  1  0  0  0
 80158  1  0  0  0
 81 84  1  0  0  0
 81 89  1  0  0  0
 81159  1  0  0  0
 81160  1  0  0  0
 82 84  1  0  0  0
 82 89  1  0  0  0
 82161  1  0  0  0
 82162  1  0  0  0
 83163  1  0  0  0
 84 90  1  0  0  0
 84164  1  0  0  0
 85165  1  0  0  0
 85166  1  0  0  0
 85167  1  0  0  0
 86168  1  0  0  0
 86169  1  0  0  0
 86170  1  0  0  0
 87171  1  0  0  0
 87172  1  0  0  0
 89173  1  0  0  0
 89174  1  0  0  0
M  CHG  1  89   1
M  ISO  4   1 100  68 101  87 101  88 100
M  END
> <chiral flag>
0

> <version>
0

> <s_m_source_file>
/data/baiqing/PycharmProjects/Reinvent-master-3.2/result/LINK_invent/BTK/process_docking_weight1_custom_sum_contain_oxygen_bond_distance_aromatic_linkinvent_7_9_3/rearranged_h_0167.sdf

> <i_m_source_file_index>
52

> <r_mmod_Potential_Energy-OPLS-2005>
244.043502807617

> <r_mmod_Stretch_Energy-OPLS-2005>
129.346038818359

> <r_mmod_Bend_Energy-OPLS-2005>
242.35107421875

> <r_mmod_Torsional_Energy-OPLS-2005>
366.307250976562

> <r_mmod_Improper_Torsional_Energy-OPLS-2005>
16.2256889343262

> <r_mmod_Van_der_Waal_Energy-OPLS-2005>
165.67936706543

> <r_mmod_Electrostatic_Energy-OPLS-2005>
-280.595550537109

> <r_mmod_Solvation_Energy-OPLS-2005>
-484.432647705078

> <b_mmod_Minimization_Converged-OPLS-2005>
0

> <r_mmod_RMS_Derivative-OPLS-2005>
1.34762477874756

$$$$
52
                    3D
 Structure written by MMmdl.
156165  0  0  1  0            999 V2000
  -30.5887  -14.8788   20.3704 C   0  0  0  0  0  0
  -30.4355  -12.5281   19.4898 C   0  0  0  0  0  0
  -29.5206  -12.4631   18.2469 C   0  0  0  0  0  0
  -28.0430  -12.3010   18.6615 C   0  0  0  0  0  0
  -27.6277  -13.2311   19.8332 C   0  0  2  0  0  0
  -28.6775  -13.2704   20.9622 C   0  0  0  0  0  0
  -25.2504  -13.8170   20.5729 C   0  0  0  0  0  0
  -24.1777  -13.0431   20.9200 C   0  0  0  0  0  0
  -24.6361  -11.6910   20.8754 C   0  0  0  0  0  0
  -23.9033  -10.4294   21.0405 C   0  0  0  0  0  0
  -24.3598   -9.4216   21.9179 C   0  0  0  0  0  0
  -23.6296   -8.2242   22.0754 C   0  0  0  0  0  0
  -22.4283   -8.0272   21.3538 C   0  0  0  0  0  0
  -21.9903   -9.0236   20.4644 C   0  0  0  0  0  0
  -22.7208  -10.2125   20.3058 C   0  0  0  0  0  0
  -21.6857   -6.0728   22.5269 C   0  0  0  0  0  0
  -21.4012   -6.5633   23.8193 C   0  0  0  0  0  0
  -21.3673   -5.6789   24.9156 C   0  0  0  0  0  0
  -21.6045   -4.3050   24.7217 C   0  0  0  0  0  0
  -21.8811   -3.8141   23.4343 C   0  0  0  0  0  0
  -21.9200   -4.6956   22.3401 C   0  0  0  0  0  0
  -22.7813  -13.5233   21.1874 C   0  0  0  0  0  0
  -22.1677   -4.2141   21.0978 F   0  0  0  0  0  0
  -21.5643   -3.4534   25.7738 F   0  0  0  0  0  0
  -29.9556  -13.6431   20.3453 N   0  0  0  0  0  0
  -26.2889  -12.9355   20.3268 N   0  0  0  0  0  0
  -25.9288  -11.6504   20.5747 N   0  0  0  0  0  0
  -22.0482  -12.8208   22.0428 N   0  0  0  0  0  0
  -25.4275  -15.1897   20.4223 N   0  0  0  0  0  0
  -31.8158  -14.8950   20.2340 O   0  0  0  0  0  0
  -21.6646   -6.8871   21.4235 O   0  0  0  0  0  0
  -22.3506  -14.5551   20.6741 O   0  0  0  0  0  0
  -24.6375  -31.8507   23.1920 C   0  0  0  0  0  0
  -25.9173  -32.4720   23.8290 C   0  0  1  0  0  0
  -27.2183  -27.1916   20.1492 C   0  0  0  0  0  0
  -25.5933  -33.8523   24.2218 N   0  0  0  0  0  0
  -23.4379  -30.4706   21.5370 C   0  0  2  0  0  0
  -24.8856  -28.9025   20.1133 C   0  0  0  0  0  0
  -22.7539  -29.4594   22.4892 C   0  0  0  0  0  0
  -18.0310  -28.1413   22.8488 C   0  0  0  0  0  0
  -24.1497  -36.7279   23.2636 C   0  0  0  0  0  0
  -25.9880  -30.7408   21.3809 C   0  0  0  0  0  0
  -26.0596  -29.3548   20.7276 C   0  0  0  0  0  0
  -27.2281  -28.5157   20.7288 C   0  0  0  0  0  0
  -26.0205  -26.8245   19.4973 C   0  0  0  0  0  0
  -24.8755  -27.6487   19.4834 C   0  0  0  0  0  0
  -23.6617  -29.8009   20.1554 C   0  0  0  0  0  0
  -25.4115  -36.3049   24.0325 C   0  0  1  0  0  0
  -20.5915  -28.3736   23.1248 C   0  0  2  0  0  0
  -20.6802  -26.9446   22.5406 C   0  0  0  0  0  0
  -19.5765  -26.6402   21.5229 C   0  0  0  0  0  0
  -18.1949  -26.7948   22.1640 C   0  0  0  0  0  0
  -19.1561  -28.8892   23.2862 C   0  0  0  0  0  0
  -18.9472  -30.1486   23.8894 C   0  0  0  0  0  0
  -17.6467  -30.6604   24.0571 C   0  0  0  0  0  0
  -25.9057  -34.9425   23.5076 C   0  0  0  0  0  0
  -16.5364  -29.9099   23.6332 C   0  0  0  0  0  0
  -16.7293  -28.6518   23.0354 C   0  0  0  0  0  0
  -26.4503  -31.6551   25.0708 C   0  0  0  0  0  0
  -25.3684  -31.3738   26.1402 C   0  0  0  0  0  0
  -27.0339  -30.2944   24.6234 C   0  0  0  0  0  0
  -27.6050  -32.4289   25.7489 C   0  0  0  0  0  0
  -27.5583  -37.1790   24.8460 C   0  0  0  0  0  0
  -21.4240  -29.3076   22.3639 N   0  0  0  0  0  0
  -26.4291  -37.3756   23.9413 N   0  0  0  0  0  0
  -24.7079  -31.0399   22.0934 N   0  0  0  0  0  0
  -23.4209  -28.8148   23.3026 O   0  0  0  0  0  0
  -28.3061  -26.2646   20.1693 O   0  0  0  0  0  0
  -26.5653  -34.8916   22.4657 O   0  0  0  0  0  0
  -23.5502  -32.1390   23.7150 O   0  0  0  0  0  0
  -30.4603  -19.9951   21.1376 C   0  0  0  0  0  0
  -28.7030  -19.7088   19.6145 C   0  0  0  0  0  0
  -29.7544  -19.0497   20.3364 C   0  0  0  0  0  0
  -30.1981  -21.4165   21.1169 C   0  0  0  0  0  0
  -29.1828  -21.9953   20.2886 C   0  0  0  0  0  0
  -30.3142  -17.2239   18.5523 C   0  0  0  0  0  0
  -29.1722  -16.2874   18.9375 C   0  0  0  0  0  0
  -30.3877  -17.5604   20.0353 C   0  0  2  0  0  0
  -31.1132  -22.3138   21.9343 C   0  0  0  0  0  0
  -29.1251  -23.5908   19.9060 C   0  0  0  0  0  0
  -28.1013  -24.7638   20.4532 C   0  0  0  0  0  0
  -28.4435  -21.0781   19.5835 N   0  0  0  0  0  0
  -29.8478  -16.0902   20.2332 N   0  0  0  0  0  0
  -31.4729  -12.6670   19.1795 H   0  0  0  0  0  0
  -30.4085  -11.5856   20.0382 H   0  0  0  0  0  0
  -29.8180  -11.6279   17.6096 H   0  0  0  0  0  0
  -29.6502  -13.3577   17.6384 H   0  0  0  0  0  0
  -27.9034  -11.2608   18.9564 H   0  0  0  0  0  0
  -27.3898  -12.4616   17.8029 H   0  0  0  0  0  0
  -27.5751  -14.2248   19.3995 H   0  0  0  0  0  0
  -28.7535  -12.3053   21.4650 H   0  0  0  0  0  0
  -28.3959  -14.0020   21.7223 H   0  0  0  0  0  0
  -25.2750   -9.5700   22.4729 H   0  0  0  0  0  0
  -24.0023   -7.4631   22.7452 H   0  0  0  0  0  0
  -21.0851   -8.8721   19.8946 H   0  0  0  0  0  0
  -22.3649  -10.9653   19.6160 H   0  0  0  0  0  0
  -21.1988   -7.6135   23.9685 H   0  0  0  0  0  0
  -21.1518   -6.0527   25.9055 H   0  0  0  0  0  0
  -22.0592   -2.7609   23.2833 H   0  0  0  0  0  0
  -22.4152  -11.9882   22.4797 H   0  0  0  0  0  0
  -21.1089  -13.1183   22.2627 H   0  0  0  0  0  0
  -24.6787  -15.8596   20.5552 H   0  0  0  0  0  0
  -26.3054  -15.6254   20.1705 H   0  0  0  0  0  0
  -26.7237  -32.5356   23.1026 H   0  0  0  0  0  0
  -25.0026  -33.9632   25.0322 H   0  0  0  0  0  0
  -22.7393  -31.2964   21.3856 H   0  0  0  0  0  0
  -23.3760  -35.9609   23.3263 H   0  0  0  0  0  0
  -24.3601  -36.8939   22.2059 H   0  0  0  0  0  0
  -23.7253  -37.6470   23.6680 H   0  0  0  0  0  0
  -26.1299  -31.4931   20.6043 H   0  0  0  0  0  0
  -26.8652  -30.7966   22.0140 H   0  0  0  0  0  0
  -28.1245  -28.8616   21.2231 H   0  0  0  0  0  0
  -25.9516  -25.8740   18.9900 H   0  0  0  0  0  0
  -23.9800  -27.3029   18.9855 H   0  0  0  0  0  0
  -23.7974  -30.5789   19.4031 H   0  0  0  0  0  0
  -22.7774  -29.2438   19.8421 H   0  0  0  0  0  0
  -25.1293  -36.1887   25.0819 H   0  0  0  0  0  0
  -21.0003  -28.3327   24.1369 H   0  0  0  0  0  0
  -20.5742  -26.2349   23.3625 H   0  0  0  0  0  0
  -21.6657  -26.7495   22.1167 H   0  0  0  0  0  0
  -19.6923  -25.6313   21.1265 H   0  0  0  0  0  0
  -19.6674  -27.3215   20.6758 H   0  0  0  0  0  0
  -17.4216  -26.6712   21.4047 H   0  0  0  0  0  0
  -18.0328  -26.0108   22.9047 H   0  0  0  0  0  0
  -19.7945  -30.7317   24.2253 H   0  0  0  0  0  0
  -17.5018  -31.6279   24.5182 H   0  0  0  0  0  0
  -15.5362  -30.2998   23.7649 H   0  0  0  0  0  0
  -15.8702  -28.0837   22.7046 H   0  0  0  0  0  0
  -24.5868  -30.7083   25.7721 H   0  0  0  0  0  0
  -24.8863  -32.2921   26.4758 H   0  0  0  0  0  0
  -25.7954  -30.8956   27.0223 H   0  0  0  0  0  0
  -26.2931  -29.6698   24.1233 H   0  0  0  0  0  0
  -27.3960  -29.7205   25.4774 H   0  0  0  0  0  0
  -27.8838  -30.4188   23.9523 H   0  0  0  0  0  0
  -27.2649  -33.3593   26.2042 H   0  0  0  0  0  0
  -28.3868  -32.6834   25.0322 H   0  0  0  0  0  0
  -28.0707  -31.8432   26.5425 H   0  0  0  0  0  0
  -28.2569  -38.0117   24.7522 H   0  0  0  0  0  0
  -28.1112  -36.2643   24.6250 H   0  0  0  0  0  0
  -27.2312  -37.1397   25.8868 H   0  0  0  0  0  0
  -20.9455  -29.8754   21.6791 H   0  0  0  0  0  0
  -26.0160  -38.2830   24.1409 H   0  0  0  0  0  0
  -31.3038  -19.6388   21.7128 H   0  0  0  0  0  0
  -28.1017  -19.1368   18.9251 H   0  0  0  0  0  0
  -30.0397  -18.0387   17.8831 H   0  0  0  0  0  0
  -31.1994  -16.7021   18.1802 H   0  0  0  0  0  0
  -29.1234  -15.4276   18.2703 H   0  0  0  0  0  0
  -28.1955  -16.7687   19.0138 H   0  0  0  0  0  0
  -31.4385  -17.6247   20.3238 H   0  0  0  0  0  0
  -31.5611  -21.7664   22.7652 H   0  0  0  0  0  0
  -30.5643  -23.1547   22.3593 H   0  0  0  0  0  0
  -31.9233  -22.7042   21.3158 H   0  0  0  0  0  0
  -29.0348  -23.6087   18.8198 H   0  0  0  0  0  0
  -30.1278  -23.9773   20.0823 H   0  0  0  0  0  0
  -28.1020  -24.6875   21.5409 H   0  0  0  0  0  0
  -27.0981  -24.4619   20.1614 H   0  0  0  0  0  0
  1 25  1  0  0  0
  1 30  2  0  0  0
  1 83  1  0  0  0
  2  3  1  0  0  0
  2 25  1  0  0  0
  2 84  1  0  0  0
  2 85  1  0  0  0
  3  4  1  0  0  0
  3 86  1  0  0  0
  3 87  1  0  0  0
  4  5  1  0  0  0
  4 88  1  0  0  0
  4 89  1  0  0  0
  5  6  1  0  0  0
  5 26  1  0  0  0
  5 90  1  0  0  0
  6 25  1  0  0  0
  6 91  1  0  0  0
  6 92  1  0  0  0
  7  8  2  0  0  0
  7 26  1  0  0  0
  7 29  1  0  0  0
  8  9  1  0  0  0
  8 22  1  0  0  0
  9 10  1  0  0  0
  9 27  2  0  0  0
 10 11  2  0  0  0
 10 15  1  0  0  0
 11 12  1  0  0  0
 11 93  1  0  0  0
 12 13  2  0  0  0
 12 94  1  0  0  0
 13 14  1  0  0  0
 13 31  1  0  0  0
 14 15  2  0  0  0
 14 95  1  0  0  0
 15 96  1  0  0  0
 16 17  2  0  0  0
 16 21  1  0  0  0
 16 31  1  0  0  0
 17 18  1  0  0  0
 17 97  1  0  0  0
 18 19  2  0  0  0
 18 98  1  0  0  0
 19 20  1  0  0  0
 19 24  1  0  0  0
 20 21  2  0  0  0
 20 99  1  0  0  0
 21 23  1  0  0  0
 22 28  1  0  0  0
 22 32  2  0  0  0
 26 27  1  0  0  0
 28100  1  0  0  0
 28101  1  0  0  0
 29102  1  0  0  0
 29103  1  0  0  0
 33 34  1  0  0  0
 33 66  1  0  0  0
 33 70  2  0  0  0
 34 36  1  0  0  0
 34 59  1  0  0  0
 34104  1  0  0  0
 35 44  2  0  0  0
 35 45  1  0  0  0
 35 68  1  0  0  0
 36 56  1  0  0  0
 36105  1  0  0  0
 37 39  1  0  0  0
 37 47  1  0  0  0
 37 66  1  0  0  0
 37106  1  0  0  0
 38 43  2  0  0  0
 38 46  1  0  0  0
 38 47  1  0  0  0
 39 64  1  0  0  0
 39 67  2  0  0  0
 40 52  1  0  0  0
 40 53  2  0  0  0
 40 58  1  0  0  0
 41107  1  0  0  0
 41108  1  0  0  0
 41109  1  0  0  0
 41 48  1  0  0  0
 42 43  1  0  0  0
 42 66  1  0  0  0
 42110  1  0  0  0
 42111  1  0  0  0
 43 44  1  0  0  0
 44112  1  0  0  0
 45 46  2  0  0  0
 45113  1  0  0  0
 46114  1  0  0  0
 47115  1  0  0  0
 47116  1  0  0  0
 48 56  1  0  0  0
 48 65  1  0  0  0
 48117  1  0  0  0
 49 50  1  0  0  0
 49 53  1  0  0  0
 49 64  1  0  0  0
 49118  1  0  0  0
 50 51  1  0  0  0
 50119  1  0  0  0
 50120  1  0  0  0
 51 52  1  0  0  0
 51121  1  0  0  0
 51122  1  0  0  0
 52123  1  0  0  0
 52124  1  0  0  0
 53 54  1  0  0  0
 54 55  2  0  0  0
 54125  1  0  0  0
 55 57  1  0  0  0
 55126  1  0  0  0
 56 69  2  0  0  0
 57 58  2  0  0  0
 57127  1  0  0  0
 58128  1  0  0  0
 59 60  1  0  0  0
 59 61  1  0  0  0
 59 62  1  0  0  0
 60129  1  0  0  0
 60130  1  0  0  0
 60131  1  0  0  0
 61132  1  0  0  0
 61133  1  0  0  0
 61134  1  0  0  0
 62135  1  0  0  0
 62136  1  0  0  0
 62137  1  0  0  0
 63 65  1  0  0  0
 63138  1  0  0  0
 63139  1  0  0  0
 63140  1  0  0  0
 64141  1  0  0  0
 65142  1  0  0  0
 68 81  1  0  0  0
 71 73  2  0  0  0
 71 74  1  0  0  0
 71143  1  0  0  0
 72 73  1  0  0  0
 72 82  2  0  0  0
 72144  1  0  0  0
 73 78  1  0  0  0
 74 75  2  0  0  0
 74 79  1  0  0  0
 75 80  1  0  0  0
 75 82  1  0  0  0
 76 77  1  0  0  0
 76 78  1  0  0  0
 76145  1  0  0  0
 76146  1  0  0  0
 77 83  1  0  0  0
 77147  1  0  0  0
 77148  1  0  0  0
 78 83  1  0  0  0
 78149  1  0  0  0
 79150  1  0  0  0
 79151  1  0  0  0
 79152  1  0  0  0
 80 81  1  0  0  0
 80153  1  0  0  0
 80154  1  0  0  0
 81155  1  0  0  0
 81156  1  0  0  0
M  ISO  4   1 100  68 101  81 101  83 100
M  END
> <chiral flag>
0

> <version>
0

> <s_m_source_file>
/data/baiqing/PycharmProjects/Reinvent-master-3.2/result/LINK_invent/BTK/process_docking_weight1_custom_sum_contain_oxygen_bond_distance_aromatic_linkinvent_7_9_3/rearranged_h_0167.sdf

> <i_m_source_file_index>
53

> <r_mmod_Potential_Energy-OPLS-2005>
440.095062255859

> <r_mmod_Stretch_Energy-OPLS-2005>
199.291564941406

> <r_mmod_Bend_Energy-OPLS-2005>
257.341735839844

> <r_mmod_Torsional_Energy-OPLS-2005>
300.724426269531

> <r_mmod_Improper_Torsional_Energy-OPLS-2005>
20.5764579772949

> <r_mmod_Van_der_Waal_Energy-OPLS-2005>
142.880111694336

> <r_mmod_Electrostatic_Energy-OPLS-2005>
-411.064361572266

> <r_mmod_Solvation_Energy-OPLS-2005>
-218.080490112305

> <b_mmod_Minimization_Converged-OPLS-2005>
0

> <r_mmod_RMS_Derivative-OPLS-2005>
2.2007098197937

$$$$
53
                    3D
 Structure written by MMmdl.
160169  0  0  1  0            999 V2000
  -30.6674  -14.5435   20.5356 C   0  0  0  0  0  0
  -30.4278  -12.3446   19.4349 C   0  0  0  0  0  0
  -29.4936  -12.4947   18.2150 C   0  0  0  0  0  0
  -28.0193  -12.3428   18.6345 C   0  0  0  0  0  0
  -27.6565  -13.2054   19.8719 C   0  0  2  0  0  0
  -28.7013  -13.0406   20.9983 C   0  0  0  0  0  0
  -25.2588  -13.8168   20.5698 C   0  0  0  0  0  0
  -24.1849  -13.0462   20.9184 C   0  0  0  0  0  0
  -24.6383  -11.6912   20.8749 C   0  0  0  0  0  0
  -23.9038  -10.4312   21.0403 C   0  0  0  0  0  0
  -24.3589   -9.4231   21.9183 C   0  0  0  0  0  0
  -23.6277   -8.2256   22.0760 C   0  0  0  0  0  0
  -22.4266   -8.0284   21.3537 C   0  0  0  0  0  0
  -21.9888   -9.0251   20.4637 C   0  0  0  0  0  0
  -22.7203  -10.2137   20.3049 C   0  0  0  0  0  0
  -21.6861   -6.0725   22.5268 C   0  0  0  0  0  0
  -21.4012   -6.5635   23.8194 C   0  0  0  0  0  0
  -21.3667   -5.6790   24.9166 C   0  0  0  0  0  0
  -21.6053   -4.3054   24.7224 C   0  0  0  0  0  0
  -21.8824   -3.8134   23.4347 C   0  0  0  0  0  0
  -21.9197   -4.6947   22.3394 C   0  0  0  0  0  0
  -22.7861  -13.5247   21.1835 C   0  0  0  0  0  0
  -22.1667   -4.2124   21.0978 F   0  0  0  0  0  0
  -21.5630   -3.4538   25.7741 F   0  0  0  0  0  0
  -30.0221  -13.3490   20.4304 N   0  0  0  0  0  0
  -26.3007  -12.9315   20.3375 N   0  0  0  0  0  0
  -25.9310  -11.6482   20.5796 N   0  0  0  0  0  0
  -22.0513  -12.8236   22.0386 N   0  0  0  0  0  0
  -25.4387  -15.1878   20.4108 N   0  0  0  0  0  0
  -31.8364  -14.7008   20.1713 O   0  0  0  0  0  0
  -21.6643   -6.8867   21.4231 O   0  0  0  0  0  0
  -22.3528  -14.5559   20.6696 O   0  0  0  0  0  0
  -24.6135  -31.8708   23.2157 C   0  0  0  0  0  0
  -25.9032  -32.4843   23.8435 C   0  0  1  0  0  0
  -27.2214  -27.4380   20.0954 C   0  0  0  0  0  0
  -25.5873  -33.8645   24.2348 N   0  0  0  0  0  0
  -23.3994  -30.4997   21.5563 C   0  0  2  0  0  0
  -24.8429  -28.9703   20.1114 C   0  0  0  0  0  0
  -22.7384  -29.4716   22.5018 C   0  0  0  0  0  0
  -18.0268  -28.1375   22.8515 C   0  0  0  0  0  0
  -24.1470  -36.7304   23.2663 C   0  0  0  0  0  0
  -25.9288  -30.8412   21.3674 C   0  0  0  0  0  0
  -26.0065  -29.4785   20.7046 C   0  0  0  0  0  0
  -27.2045  -28.7239   20.6867 C   0  0  0  0  0  0
  -26.0419  -26.9476   19.4968 C   0  0  0  0  0  0
  -24.8561  -27.7043   19.5020 C   0  0  0  0  0  0
  -23.6027  -29.8357   20.1703 C   0  0  0  0  0  0
  -25.4098  -36.3118   24.0355 C   0  0  1  0  0  0
  -20.5850  -28.3680   23.1313 C   0  0  2  0  0  0
  -20.6758  -26.9412   22.5417 C   0  0  0  0  0  0
  -19.5746  -26.6390   21.5207 C   0  0  0  0  0  0
  -18.1922  -26.7942   22.1607 C   0  0  0  0  0  0
  -19.1510  -28.8833   23.2930 C   0  0  0  0  0  0
  -18.9450  -30.1431   23.8964 C   0  0  0  0  0  0
  -17.6452  -30.6595   24.0551 C   0  0  0  0  0  0
  -25.9017  -34.9494   23.5144 C   0  0  0  0  0  0
  -16.5348  -29.9085   23.6326 C   0  0  0  0  0  0
  -16.7256  -28.6474   23.0403 C   0  0  0  0  0  0
  -26.4506  -31.6634   25.0758 C   0  0  0  0  0  0
  -25.3778  -31.3650   26.1478 C   0  0  0  0  0  0
  -27.0409  -30.3096   24.6153 C   0  0  0  0  0  0
  -27.6053  -32.4405   25.7486 C   0  0  0  0  0  0
  -27.5585  -37.1809   24.8487 C   0  0  0  0  0  0
  -21.4108  -29.3047   22.3716 N   0  0  0  0  0  0
  -26.4302  -37.3795   23.9427 N   0  0  0  0  0  0
  -24.6661  -31.0825   22.1058 N   0  0  0  0  0  0
  -23.4155  -28.8271   23.3078 O   0  0  0  0  0  0
  -28.3560  -26.6545   20.1082 O   0  0  0  0  0  0
  -26.5583  -34.8951   22.4709 O   0  0  0  0  0  0
  -23.5322  -32.1455   23.7543 O   0  0  0  0  0  0
  -28.7996  -19.6500   20.7438 C   0  0  0  0  0  0
  -30.1311  -19.1842   20.7108 C   0  0  0  0  0  0
  -31.1522  -20.1752   20.7550 C   0  0  0  0  0  0
  -30.7806  -21.5504   20.8280 C   0  0  0  0  0  0
  -29.4092  -21.8921   20.8510 C   0  0  0  0  0  0
  -30.1338  -16.6791   21.7941 C   0  0  0  0  0  0
  -29.6105  -16.6694   19.7901 C   0  0  0  0  0  0
  -30.4179  -17.6547   20.6429 C   0  0  0  0  0  0
  -32.6185  -19.7603   20.7740 C   0  0  0  0  0  0
  -31.8401  -22.6417   20.9592 C   0  0  0  0  0  0
  -28.1951  -25.4082   20.8170 C   0  0  0  0  0  0
  -28.8118  -24.1559   20.1427 C   0  0  0  0  0  0
  -28.4433  -20.9548   20.8156 N   0  0  0  0  0  0
  -29.8674  -15.6146   20.7989 N   0  0  0  0  0  0
  -28.9646  -23.1613   21.1715 O   0  0  0  0  0  0
  -31.4683  -12.4666   19.1306 H   0  0  0  0  0  0
  -30.3501  -11.3437   19.8637 H   0  0  0  0  0  0
  -29.7433  -11.7482   17.4607 H   0  0  0  0  0  0
  -29.6424  -13.4677   17.7442 H   0  0  0  0  0  0
  -27.8507  -11.2896   18.8601 H   0  0  0  0  0  0
  -27.3610  -12.5838   17.8003 H   0  0  0  0  0  0
  -27.6878  -14.2453   19.5460 H   0  0  0  0  0  0
  -28.6936  -12.0262   21.3986 H   0  0  0  0  0  0
  -28.4626  -13.6933   21.8402 H   0  0  0  0  0  0
  -25.2726   -9.5722   22.4770 H   0  0  0  0  0  0
  -23.9989   -7.4656   22.7492 H   0  0  0  0  0  0
  -21.0820   -8.8770   19.8936 H   0  0  0  0  0  0
  -22.3658  -10.9681   19.6171 H   0  0  0  0  0  0
  -21.2016   -7.6143   23.9683 H   0  0  0  0  0  0
  -21.1479   -6.0529   25.9062 H   0  0  0  0  0  0
  -22.0605   -2.7597   23.2858 H   0  0  0  0  0  0
  -22.4119  -11.9860   22.4735 H   0  0  0  0  0  0
  -21.1128  -13.1244   22.2633 H   0  0  0  0  0  0
  -24.6901  -15.8618   20.5310 H   0  0  0  0  0  0
  -26.3146  -15.6107   20.1323 H   0  0  0  0  0  0
  -26.7104  -32.5554   23.1202 H   0  0  0  0  0  0
  -25.0072  -33.9826   25.0516 H   0  0  0  0  0  0
  -22.6864  -31.3165   21.4239 H   0  0  0  0  0  0
  -23.3761  -35.9614   23.3322 H   0  0  0  0  0  0
  -24.3554  -36.8911   22.2078 H   0  0  0  0  0  0
  -23.7192  -37.6494   23.6682 H   0  0  0  0  0  0
  -26.0421  -31.6181   20.6120 H   0  0  0  0  0  0
  -26.8149  -30.8860   21.9886 H   0  0  0  0  0  0
  -28.1024  -29.1171   21.1428 H   0  0  0  0  0  0
  -26.0360  -25.9700   19.0385 H   0  0  0  0  0  0
  -23.9640  -27.3073   19.0367 H   0  0  0  0  0  0
  -23.6993  -30.6147   19.4130 H   0  0  0  0  0  0
  -22.7256  -29.2563   19.8809 H   0  0  0  0  0  0
  -25.1281  -36.2010   25.0852 H   0  0  0  0  0  0
  -20.9979  -28.3284   24.1422 H   0  0  0  0  0  0
  -20.5644  -26.2305   23.3621 H   0  0  0  0  0  0
  -21.6644  -26.7463   22.1233 H   0  0  0  0  0  0
  -19.6904  -25.6296   21.1255 H   0  0  0  0  0  0
  -19.6678  -27.3197   20.6732 H   0  0  0  0  0  0
  -17.4202  -26.6749   21.3986 H   0  0  0  0  0  0
  -18.0253  -26.0036   22.8938 H   0  0  0  0  0  0
  -19.7936  -30.7195   24.2398 H   0  0  0  0  0  0
  -17.5033  -31.6291   24.5142 H   0  0  0  0  0  0
  -15.5361  -30.3009   23.7613 H   0  0  0  0  0  0
  -15.8648  -28.0762   22.7160 H   0  0  0  0  0  0
  -24.6064  -30.6863   25.7805 H   0  0  0  0  0  0
  -24.8821  -32.2736   26.4898 H   0  0  0  0  0  0
  -25.8172  -30.8894   27.0248 H   0  0  0  0  0  0
  -26.2961  -29.6736   24.1340 H   0  0  0  0  0  0
  -27.4329  -29.7458   25.4629 H   0  0  0  0  0  0
  -27.8720  -30.4443   23.9220 H   0  0  0  0  0  0
  -27.2674  -33.3726   26.2032 H   0  0  0  0  0  0
  -28.3847  -32.6932   25.0286 H   0  0  0  0  0  0
  -28.0765  -31.8576   26.5411 H   0  0  0  0  0  0
  -28.2627  -38.0086   24.7524 H   0  0  0  0  0  0
  -28.1039  -36.2605   24.6326 H   0  0  0  0  0  0
  -27.2287  -37.1490   25.8887 H   0  0  0  0  0  0
  -20.9244  -29.8718   21.6898 H   0  0  0  0  0  0
  -26.0190  -38.2876   24.1420 H   0  0  0  0  0  0
  -27.9825  -18.9453   20.7453 H   0  0  0  0  0  0
  -29.2460  -16.9358   22.3770 H   0  0  0  0  0  0
  -30.9869  -16.5091   22.4561 H   0  0  0  0  0  0
  -30.0529  -16.4968   18.8058 H   0  0  0  0  0  0
  -28.5514  -16.9118   19.6924 H   0  0  0  0  0  0
  -31.4595  -17.5238   20.3477 H   0  0  0  0  0  0
  -32.9087  -19.3392   19.8107 H   0  0  0  0  0  0
  -32.7799  -19.0070   21.5439 H   0  0  0  0  0  0
  -33.3154  -20.5679   20.9944 H   0  0  0  0  0  0
  -32.3636  -22.5460   21.9113 H   0  0  0  0  0  0
  -31.4332  -23.6501   20.9311 H   0  0  0  0  0  0
  -32.5686  -22.5749   20.1488 H   0  0  0  0  0  0
  -28.6775  -25.5541   21.7834 H   0  0  0  0  0  0
  -27.1527  -25.1927   21.0557 H   0  0  0  0  0  0
  -29.7748  -24.4166   19.7039 H   0  0  0  0  0  0
  -28.1704  -23.8093   19.3290 H   0  0  0  0  0  0
  1 25  1  0  0  0
  1 30  2  0  0  0
  1 84  1  0  0  0
  2  3  1  0  0  0
  2 25  1  0  0  0
  2 86  1  0  0  0
  2 87  1  0  0  0
  3  4  1  0  0  0
  3 88  1  0  0  0
  3 89  1  0  0  0
  4  5  1  0  0  0
  4 90  1  0  0  0
  4 91  1  0  0  0
  5  6  1  0  0  0
  5 26  1  0  0  0
  5 92  1  0  0  0
  6 25  1  0  0  0
  6 93  1  0  0  0
  6 94  1  0  0  0
  7  8  2  0  0  0
  7 26  1  0  0  0
  7 29  1  0  0  0
  8  9  1  0  0  0
  8 22  1  0  0  0
  9 10  1  0  0  0
  9 27  2  0  0  0
 10 11  2  0  0  0
 10 15  1  0  0  0
 11 12  1  0  0  0
 11 95  1  0  0  0
 12 13  2  0  0  0
 12 96  1  0  0  0
 13 14  1  0  0  0
 13 31  1  0  0  0
 14 15  2  0  0  0
 14 97  1  0  0  0
 15 98  1  0  0  0
 16 17  2  0  0  0
 16 21  1  0  0  0
 16 31  1  0  0  0
 17 18  1  0  0  0
 17 99  1  0  0  0
 18 19  2  0  0  0
 18100  1  0  0  0
 19 20  1  0  0  0
 19 24  1  0  0  0
 20 21  2  0  0  0
 20101  1  0  0  0
 21 23  1  0  0  0
 22 28  1  0  0  0
 22 32  2  0  0  0
 26 27  1  0  0  0
 28102  1  0  0  0
 28103  1  0  0  0
 29104  1  0  0  0
 29105  1  0  0  0
 33 34  1  0  0  0
 33 66  1  0  0  0
 33 70  2  0  0  0
 34 36  1  0  0  0
 34 59  1  0  0  0
 34106  1  0  0  0
 35 44  2  0  0  0
 35 45  1  0  0  0
 35 68  1  0  0  0
 36 56  1  0  0  0
 36107  1  0  0  0
 37 39  1  0  0  0
 37 47  1  0  0  0
 37 66  1  0  0  0
 37108  1  0  0  0
 38 43  2  0  0  0
 38 46  1  0  0  0
 38 47  1  0  0  0
 39 64  1  0  0  0
 39 67  2  0  0  0
 40 52  1  0  0  0
 40 53  2  0  0  0
 40 58  1  0  0  0
 41109  1  0  0  0
 41110  1  0  0  0
 41111  1  0  0  0
 41 48  1  0  0  0
 42 43  1  0  0  0
 42 66  1  0  0  0
 42112  1  0  0  0
 42113  1  0  0  0
 43 44  1  0  0  0
 44114  1  0  0  0
 45 46  2  0  0  0
 45115  1  0  0  0
 46116  1  0  0  0
 47117  1  0  0  0
 47118  1  0  0  0
 48 56  1  0  0  0
 48 65  1  0  0  0
 48119  1  0  0  0
 49 50  1  0  0  0
 49 53  1  0  0  0
 49 64  1  0  0  0
 49120  1  0  0  0
 50 51  1  0  0  0
 50121  1  0  0  0
 50122  1  0  0  0
 51 52  1  0  0  0
 51123  1  0  0  0
 51124  1  0  0  0
 52125  1  0  0  0
 52126  1  0  0  0
 53 54  1  0  0  0
 54 55  2  0  0  0
 54127  1  0  0  0
 55 57  1  0  0  0
 55128  1  0  0  0
 56 69  2  0  0  0
 57 58  2  0  0  0
 57129  1  0  0  0
 58130  1  0  0  0
 59 60  1  0  0  0
 59 61  1  0  0  0
 59 62  1  0  0  0
 60131  1  0  0  0
 60132  1  0  0  0
 60133  1  0  0  0
 61134  1  0  0  0
 61135  1  0  0  0
 61136  1  0  0  0
 62137  1  0  0  0
 62138  1  0  0  0
 62139  1  0  0  0
 63 65  1  0  0  0
 63140  1  0  0  0
 63141  1  0  0  0
 63142  1  0  0  0
 64143  1  0  0  0
 65144  1  0  0  0
 68 81  1  0  0  0
 71 72  2  0  0  0
 71 83  1  0  0  0
 71145  1  0  0  0
 72 73  1  0  0  0
 72 78  1  0  0  0
 73 74  2  0  0  0
 73 79  1  0  0  0
 74 75  1  0  0  0
 74 80  1  0  0  0
 75 83  2  0  0  0
 75 85  1  0  0  0
 76 78  1  0  0  0
 76 84  1  0  0  0
 76146  1  0  0  0
 76147  1  0  0  0
 77 78  1  0  0  0
 77 84  1  0  0  0
 77148  1  0  0  0
 77149  1  0  0  0
 78150  1  0  0  0
 79151  1  0  0  0
 79152  1  0  0  0
 79153  1  0  0  0
 80154  1  0  0  0
 80155  1  0  0  0
 80156  1  0  0  0
 81 82  1  0  0  0
 81157  1  0  0  0
 81158  1  0  0  0
 82 85  1  0  0  0
 82159  1  0  0  0
 82160  1  0  0  0
M  ISO  4   1 100  68 101  81 101  84 100
M  END
> <chiral flag>
0

> <version>
0

> <s_m_source_file>
/data/baiqing/PycharmProjects/Reinvent-master-3.2/result/LINK_invent/BTK/process_docking_weight1_custom_sum_contain_oxygen_bond_distance_aromatic_linkinvent_7_9_3/rearranged_h_0167.sdf

> <i_m_source_file_index>
54

> <r_mmod_Potential_Energy-OPLS-2005>
-72.0356750488281

> <r_mmod_Stretch_Energy-OPLS-2005>
44.9077606201172

> <r_mmod_Bend_Energy-OPLS-2005>
111.544883728027

> <r_mmod_Torsional_Energy-OPLS-2005>
323.765350341797

> <r_mmod_Improper_Torsional_Energy-OPLS-2005>
14.8469829559326

> <r_mmod_Van_der_Waal_Energy-OPLS-2005>
154.867172241211

> <r_mmod_Electrostatic_Energy-OPLS-2005>
-533.099487304688

> <r_mmod_Solvation_Energy-OPLS-2005>
-210.079681396484

> <b_mmod_Minimization_Converged-OPLS-2005>
0

> <r_mmod_RMS_Derivative-OPLS-2005>
4.06812191009521

$$$$
54
                    3D
 Structure written by MMmdl.
175184  0  0  1  0            999 V2000
  -30.6952  -14.4166   20.6528 C   0  0  0  0  0  0
  -30.4293  -12.3073   19.3856 C   0  0  0  0  0  0
  -29.4870  -12.5280   18.1853 C   0  0  0  0  0  0
  -28.0087  -12.3811   18.6014 C   0  0  0  0  0  0
  -27.6637  -13.1939   19.8762 C   0  0  2  0  0  0
  -28.7026  -12.9104   20.9812 C   0  0  0  0  0  0
  -25.2605  -13.8127   20.5642 C   0  0  0  0  0  0
  -24.1854  -13.0439   20.9183 C   0  0  0  0  0  0
  -24.6381  -11.6891   20.8725 C   0  0  0  0  0  0
  -23.9045  -10.4291   21.0405 C   0  0  0  0  0  0
  -24.3598   -9.4211   21.9196 C   0  0  0  0  0  0
  -23.6276   -8.2244   22.0765 C   0  0  0  0  0  0
  -22.4268   -8.0273   21.3543 C   0  0  0  0  0  0
  -21.9902   -9.0250   20.4643 C   0  0  0  0  0  0
  -22.7223  -10.2133   20.3050 C   0  0  0  0  0  0
  -21.6843   -6.0733   22.5280 C   0  0  0  0  0  0
  -21.4010   -6.5640   23.8215 C   0  0  0  0  0  0
  -21.3656   -5.6791   24.9179 C   0  0  0  0  0  0
  -21.6038   -4.3054   24.7227 C   0  0  0  0  0  0
  -21.8819   -3.8146   23.4346 C   0  0  0  0  0  0
  -21.9195   -4.6964   22.3400 C   0  0  0  0  0  0
  -22.7873  -13.5243   21.1831 C   0  0  0  0  0  0
  -22.1662   -4.2150   21.0979 F   0  0  0  0  0  0
  -21.5630   -3.4539   25.7740 F   0  0  0  0  0  0
  -30.0336  -13.2488   20.4419 N   0  0  0  0  0  0
  -26.3026  -12.9274   20.3336 N   0  0  0  0  0  0
  -25.9292  -11.6451   20.5726 N   0  0  0  0  0  0
  -22.0485  -12.8237   22.0357 N   0  0  0  0  0  0
  -25.4363  -15.1840   20.3962 N   0  0  0  0  0  0
  -31.7850  -14.6777   20.1348 O   0  0  0  0  0  0
  -21.6629   -6.8876   21.4243 O   0  0  0  0  0  0
  -22.3588  -14.5566   20.6685 O   0  0  0  0  0  0
  -24.6160  -31.8685   23.2106 C   0  0  0  0  0  0
  -25.9062  -32.4821   23.8398 C   0  0  1  0  0  0
  -27.2228  -27.4194   20.1033 C   0  0  0  0  0  0
  -25.5930  -33.8619   24.2327 N   0  0  0  0  0  0
  -23.4047  -30.4943   21.5507 C   0  0  2  0  0  0
  -24.8503  -28.9666   20.1095 C   0  0  0  0  0  0
  -22.7424  -29.4670   22.4973 C   0  0  0  0  0  0
  -18.0285  -28.1373   22.8488 C   0  0  0  0  0  0
  -24.1479  -36.7304   23.2631 C   0  0  0  0  0  0
  -25.9366  -30.8270   21.3725 C   0  0  0  0  0  0
  -26.0123  -29.4644   20.7144 C   0  0  0  0  0  0
  -27.2034  -28.6986   20.7098 C   0  0  0  0  0  0
  -26.0505  -26.9565   19.4631 C   0  0  0  0  0  0
  -24.8662  -27.7131   19.4778 C   0  0  0  0  0  0
  -23.6124  -29.8334   20.1632 C   0  0  0  0  0  0
  -25.4104  -36.3108   24.0327 C   0  0  1  0  0  0
  -20.5876  -28.3678   23.1300 C   0  0  2  0  0  0
  -20.6782  -26.9415   22.5406 C   0  0  0  0  0  0
  -19.5755  -26.6396   21.5198 C   0  0  0  0  0  0
  -18.1927  -26.7929   22.1605 C   0  0  0  0  0  0
  -19.1529  -28.8842   23.2897 C   0  0  0  0  0  0
  -18.9468  -30.1446   23.8919 C   0  0  0  0  0  0
  -17.6474  -30.6593   24.0563 C   0  0  0  0  0  0
  -25.9039  -34.9474   23.5113 C   0  0  0  0  0  0
  -16.5363  -29.9096   23.6319 C   0  0  0  0  0  0
  -16.7277  -28.6500   23.0357 C   0  0  0  0  0  0
  -26.4473  -31.6611   25.0740 C   0  0  0  0  0  0
  -25.3725  -31.3713   26.1480 C   0  0  0  0  0  0
  -27.0328  -30.3049   24.6152 C   0  0  0  0  0  0
  -27.6028  -32.4340   25.7535 C   0  0  0  0  0  0
  -27.5587  -37.1805   24.8439 C   0  0  0  0  0  0
  -21.4154  -29.3044   22.3709 N   0  0  0  0  0  0
  -26.4273  -37.3807   23.9410 N   0  0  0  0  0  0
  -24.6702  -31.0770   22.1022 N   0  0  0  0  0  0
  -23.4199  -28.8193   23.2989 O   0  0  0  0  0  0
  -28.3618  -26.6350   20.1276 O   0  0  0  0  0  0
  -26.5598  -34.8926   22.4671 O   0  0  0  0  0  0
  -23.5345  -32.1454   23.7481 O   0  0  0  0  0  0
  -27.3887  -20.9205   21.0644 C   0  0  0  0  0  0
  -31.1301  -17.5738   21.2221 C   0  0  0  0  0  0
  -29.2025  -17.1849   22.7627 C   0  0  0  0  0  0
  -28.1720  -22.2421   21.2875 C   0  0  0  0  0  0
  -30.1824  -18.3391   20.2702 C   0  0  0  0  0  0
  -28.3071  -17.9393   21.7530 C   0  0  0  0  0  0
  -29.4342  -21.9115   19.2236 C   0  0  0  0  0  0
  -28.6325  -20.6226   18.9070 C   0  0  2  0  0  0
  -28.1139  -19.8622   20.1799 C   0  0  1  0  0  0
  -30.4487  -16.5178   22.1303 C   0  0  2  0  0  0
  -29.1956  -19.7854   17.7379 C   0  0  0  0  0  0
  -31.4145  -16.1083   23.2634 C   0  0  0  0  0  0
  -29.1675  -24.2456   20.1064 C   0  0  0  0  0  0
  -28.1610  -25.2986   20.6470 C   0  0  0  0  0  0
  -30.0284  -15.2824   21.4427 N   0  0  0  0  0  0
  -29.0512  -18.9883   20.9898 N   0  3  2  0  0  0
  -28.5912  -22.8633   20.0002 N   0  3  2  0  0  0
  -31.4681  -12.4385   19.0772 H   0  0  0  0  0  0
  -30.3546  -11.2799   19.7465 H   0  0  0  0  0  0
  -29.7209  -11.8261   17.3836 H   0  0  0  0  0  0
  -29.6503  -13.5250   17.7719 H   0  0  0  0  0  0
  -27.8149  -11.3222   18.7750 H   0  0  0  0  0  0
  -27.3567  -12.6781   17.7787 H   0  0  0  0  0  0
  -27.7268  -14.2499   19.6156 H   0  0  0  0  0  0
  -28.6818  -11.8512   21.2456 H   0  0  0  0  0  0
  -28.4518  -13.4319   21.9060 H   0  0  0  0  0  0
  -25.2738   -9.5694   22.4779 H   0  0  0  0  0  0
  -23.9982   -7.4644   22.7490 H   0  0  0  0  0  0
  -21.0837   -8.8759   19.8937 H   0  0  0  0  0  0
  -22.3685  -10.9670   19.6152 H   0  0  0  0  0  0
  -21.1999   -7.6148   23.9718 H   0  0  0  0  0  0
  -21.1477   -6.0521   25.9078 H   0  0  0  0  0  0
  -22.0604   -2.7608   23.2847 H   0  0  0  0  0  0
  -22.4054  -11.9856   22.4696 H   0  0  0  0  0  0
  -21.1094  -13.1273   22.2527 H   0  0  0  0  0  0
  -24.6512  -15.8239   20.4452 H   0  0  0  0  0  0
  -26.2488  -15.5852   19.9482 H   0  0  0  0  0  0
  -26.7143  -32.5513   23.1167 H   0  0  0  0  0  0
  -25.0115  -33.9766   25.0500 H   0  0  0  0  0  0
  -22.6945  -31.3129   21.4128 H   0  0  0  0  0  0
  -23.3770  -35.9604   23.3227 H   0  0  0  0  0  0
  -24.3607  -36.8985   22.2061 H   0  0  0  0  0  0
  -23.7172  -37.6460   23.6695 H   0  0  0  0  0  0
  -26.0614  -31.5958   20.6086 H   0  0  0  0  0  0
  -26.8184  -30.8689   21.9999 H   0  0  0  0  0  0
  -28.0958  -29.0726   21.1937 H   0  0  0  0  0  0
  -26.0390  -26.0083   18.9444 H   0  0  0  0  0  0
  -23.9784  -27.3328   18.9892 H   0  0  0  0  0  0
  -23.7179  -30.6119   19.4050 H   0  0  0  0  0  0
  -22.7359  -29.2520   19.8682 H   0  0  0  0  0  0
  -25.1266  -36.1983   25.0814 H   0  0  0  0  0  0
  -20.9968  -28.3270   24.1418 H   0  0  0  0  0  0
  -20.5691  -26.2295   23.3597 H   0  0  0  0  0  0
  -21.6647  -26.7472   22.1188 H   0  0  0  0  0  0
  -19.6921  -25.6312   21.1213 H   0  0  0  0  0  0
  -19.6684  -27.3210   20.6726 H   0  0  0  0  0  0
  -17.4202  -26.6707   21.3992 H   0  0  0  0  0  0
  -18.0300  -26.0060   22.8971 H   0  0  0  0  0  0
  -19.7946  -30.7230   24.2328 H   0  0  0  0  0  0
  -17.5033  -31.6271   24.5164 H   0  0  0  0  0  0
  -15.5366  -30.3006   23.7623 H   0  0  0  0  0  0
  -15.8675  -28.0820   22.7085 H   0  0  0  0  0  0
  -24.5936  -30.7025   25.7810 H   0  0  0  0  0  0
  -24.8889  -32.2865   26.4904 H   0  0  0  0  0  0
  -25.8084  -30.8916   27.0258 H   0  0  0  0  0  0
  -26.2903  -29.6815   24.1162 H   0  0  0  0  0  0
  -27.4029  -29.7290   25.4649 H   0  0  0  0  0  0
  -27.8768  -30.4352   23.9373 H   0  0  0  0  0  0
  -27.2654  -33.3671   26.2066 H   0  0  0  0  0  0
  -28.3900  -32.6846   25.0409 H   0  0  0  0  0  0
  -28.0626  -31.8486   26.5507 H   0  0  0  0  0  0
  -28.2527  -38.0184   24.7641 H   0  0  0  0  0  0
  -28.1165  -36.2730   24.6086 H   0  0  0  0  0  0
  -27.2330  -37.1238   25.8842 H   0  0  0  0  0  0
  -20.9333  -29.8806   21.6958 H   0  0  0  0  0  0
  -26.0161  -38.2863   24.1504 H   0  0  0  0  0  0
  -26.4430  -21.1729   20.5811 H   0  0  0  0  0  0
  -27.0958  -20.5129   22.0298 H   0  0  0  0  0  0
  -31.6116  -18.3155   21.8619 H   0  0  0  0  0  0
  -31.9490  -17.1362   20.6515 H   0  0  0  0  0  0
  -28.6025  -16.4392   23.2872 H   0  0  0  0  0  0
  -29.5162  -17.8906   23.5336 H   0  0  0  0  0  0
  -29.0464  -22.0653   21.9149 H   0  0  0  0  0  0
  -27.5318  -22.9257   21.8454 H   0  0  0  0  0  0
  -29.8039  -17.6628   19.5007 H   0  0  0  0  0  0
  -30.7897  -19.1009   19.7881 H   0  0  0  0  0  0
  -27.4735  -18.3762   22.3017 H   0  0  0  0  0  0
  -27.8621  -17.2244   21.0581 H   0  0  0  0  0  0
  -29.7474  -22.3831   18.2901 H   0  0  0  0  0  0
  -30.3483  -21.6789   19.7723 H   0  0  0  0  0  0
  -27.7098  -20.9949   18.4580 H   0  0  0  0  0  0
  -27.3483  -19.1789   19.8056 H   0  0  0  0  0  0
  -30.2676  -19.6131   17.7996 H   0  0  0  0  0  0
  -29.0363  -20.3042   16.7906 H   0  0  0  0  0  0
  -28.6919  -18.8222   17.6527 H   0  0  0  0  0  0
  -31.6999  -16.9617   23.8788 H   0  0  0  0  0  0
  -32.3346  -15.6759   22.8701 H   0  0  0  0  0  0
  -30.9624  -15.3728   23.9302 H   0  0  0  0  0  0
  -30.0770  -24.2400   20.7098 H   0  0  0  0  0  0
  -29.4679  -24.5611   19.1062 H   0  0  0  0  0  0
  -28.2321  -25.3415   21.7353 H   0  0  0  0  0  0
  -27.1553  -24.9312   20.4486 H   0  0  0  0  0  0
  -29.1366  -14.9142   21.7386 H   0  0  0  0  0  0
  -29.4827  -19.5881   21.6761 H   0  0  0  0  0  0
  -27.7502  -22.9794   19.4515 H   0  0  0  0  0  0
  1 25  1  0  0  0
  1 30  2  0  0  0
  1 85  1  0  0  0
  2  3  1  0  0  0
  2 25  1  0  0  0
  2 88  1  0  0  0
  2 89  1  0  0  0
  3  4  1  0  0  0
  3 90  1  0  0  0
  3 91  1  0  0  0
  4  5  1  0  0  0
  4 92  1  0  0  0
  4 93  1  0  0  0
  5  6  1  0  0  0
  5 26  1  0  0  0
  5 94  1  0  0  0
  6 25  1  0  0  0
  6 95  1  0  0  0
  6 96  1  0  0  0
  7  8  2  0  0  0
  7 26  1  0  0  0
  7 29  1  0  0  0
  8  9  1  0  0  0
  8 22  1  0  0  0
  9 10  1  0  0  0
  9 27  2  0  0  0
 10 11  2  0  0  0
 10 15  1  0  0  0
 11 12  1  0  0  0
 11 97  1  0  0  0
 12 13  2  0  0  0
 12 98  1  0  0  0
 13 14  1  0  0  0
 13 31  1  0  0  0
 14 15  2  0  0  0
 14 99  1  0  0  0
 15100  1  0  0  0
 16 17  2  0  0  0
 16 21  1  0  0  0
 16 31  1  0  0  0
 17 18  1  0  0  0
 17101  1  0  0  0
 18 19  2  0  0  0
 18102  1  0  0  0
 19 20  1  0  0  0
 19 24  1  0  0  0
 20 21  2  0  0  0
 20103  1  0  0  0
 21 23  1  0  0  0
 22 28  1  0  0  0
 22 32  2  0  0  0
 26 27  1  0  0  0
 28104  1  0  0  0
 28105  1  0  0  0
 29106  1  0  0  0
 29107  1  0  0  0
 33 34  1  0  0  0
 33 66  1  0  0  0
 33 70  2  0  0  0
 34 36  1  0  0  0
 34 59  1  0  0  0
 34108  1  0  0  0
 35 44  2  0  0  0
 35 45  1  0  0  0
 35 68  1  0  0  0
 36 56  1  0  0  0
 36109  1  0  0  0
 37 39  1  0  0  0
 37 47  1  0  0  0
 37 66  1  0  0  0
 37110  1  0  0  0
 38 43  2  0  0  0
 38 46  1  0  0  0
 38 47  1  0  0  0
 39 64  1  0  0  0
 39 67  2  0  0  0
 40 52  1  0  0  0
 40 53  2  0  0  0
 40 58  1  0  0  0
 41111  1  0  0  0
 41112  1  0  0  0
 41113  1  0  0  0
 41 48  1  0  0  0
 42 43  1  0  0  0
 42 66  1  0  0  0
 42114  1  0  0  0
 42115  1  0  0  0
 43 44  1  0  0  0
 44116  1  0  0  0
 45 46  2  0  0  0
 45117  1  0  0  0
 46118  1  0  0  0
 47119  1  0  0  0
 47120  1  0  0  0
 48 56  1  0  0  0
 48 65  1  0  0  0
 48121  1  0  0  0
 49 50  1  0  0  0
 49 53  1  0  0  0
 49 64  1  0  0  0
 49122  1  0  0  0
 50 51  1  0  0  0
 50123  1  0  0  0
 50124  1  0  0  0
 51 52  1  0  0  0
 51125  1  0  0  0
 51126  1  0  0  0
 52127  1  0  0  0
 52128  1  0  0  0
 53 54  1  0  0  0
 54 55  2  0  0  0
 54129  1  0  0  0
 55 57  1  0  0  0
 55130  1  0  0  0
 56 69  2  0  0  0
 57 58  2  0  0  0
 57131  1  0  0  0
 58132  1  0  0  0
 59 60  1  0  0  0
 59 61  1  0  0  0
 59 62  1  0  0  0
 60133  1  0  0  0
 60134  1  0  0  0
 60135  1  0  0  0
 61136  1  0  0  0
 61137  1  0  0  0
 61138  1  0  0  0
 62139  1  0  0  0
 62140  1  0  0  0
 62141  1  0  0  0
 63 65  1  0  0  0
 63142  1  0  0  0
 63143  1  0  0  0
 63144  1  0  0  0
 64145  1  0  0  0
 65146  1  0  0  0
 68 84  1  0  0  0
 71 74  1  0  0  0
 71147  1  0  0  0
 71148  1  0  0  0
 71 79  1  0  0  0
 72 75  1  0  0  0
 72 80  1  0  0  0
 72149  1  0  0  0
 72150  1  0  0  0
 73 76  1  0  0  0
 73 80  1  0  0  0
 73151  1  0  0  0
 73152  1  0  0  0
 74 87  1  0  0  0
 74153  1  0  0  0
 74154  1  0  0  0
 75155  1  0  0  0
 75156  1  0  0  0
 75 86  1  0  0  0
 76 86  1  0  0  0
 76157  1  0  0  0
 76158  1  0  0  0
 77 78  1  0  0  0
 77 87  1  0  0  0
 77159  1  0  0  0
 77160  1  0  0  0
 78 79  1  0  0  0
 78 81  1  0  0  0
 78161  1  0  0  0
 79 86  1  0  0  0
 79162  1  0  0  0
 80 82  1  0  0  0
 80 85  1  0  0  0
 81163  1  0  0  0
 81164  1  0  0  0
 81165  1  0  0  0
 82166  1  0  0  0
 82167  1  0  0  0
 82168  1  0  0  0
 83 84  1  0  0  0
 83169  1  0  0  0
 83170  1  0  0  0
 83 87  1  0  0  0
 84171  1  0  0  0
 84172  1  0  0  0
 85173  1  0  0  0
 86174  1  0  0  0
 87175  1  0  0  0
M  CHG  2  86   1  87   1
M  ISO  4   1 100  68 101  84 101  85 100
M  END
> <chiral flag>
0

> <version>
0

> <s_m_source_file>
/data/baiqing/PycharmProjects/Reinvent-master-3.2/result/LINK_invent/BTK/process_docking_weight1_custom_sum_contain_oxygen_bond_distance_aromatic_linkinvent_7_9_3/rearranged_h_0167.sdf

> <i_m_source_file_index>
55

> <r_mmod_Potential_Energy-OPLS-2005>
-86.9637222290039

> <r_mmod_Stretch_Energy-OPLS-2005>
46.8832511901855

> <r_mmod_Bend_Energy-OPLS-2005>
142.820571899414

> <r_mmod_Torsional_Energy-OPLS-2005>
306.114776611328

> <r_mmod_Improper_Torsional_Energy-OPLS-2005>
3.15918731689453

> <r_mmod_Van_der_Waal_Energy-OPLS-2005>
147.644561767578

> <r_mmod_Electrostatic_Energy-OPLS-2005>
188.090881347656

> <r_mmod_Solvation_Energy-OPLS-2005>
-934.579406738281

> <b_mmod_Minimization_Converged-OPLS-2005>
0

> <r_mmod_RMS_Derivative-OPLS-2005>
2.24854183197021

$$$$
55
                    3D
 Structure written by MMmdl.
174183  0  0  1  0            999 V2000
  -30.5701  -14.6148   20.5047 C   0  0  0  0  0  0
  -30.4349  -12.3557   19.4760 C   0  0  0  0  0  0
  -29.5134  -12.4644   18.2407 C   0  0  0  0  0  0
  -28.0412  -12.2694   18.6552 C   0  0  0  0  0  0
  -27.6423  -13.1756   19.8496 C   0  0  2  0  0  0
  -28.6744  -13.0426   20.9906 C   0  0  0  0  0  0
  -25.2580  -13.8076   20.5622 C   0  0  0  0  0  0
  -24.1788  -13.0385   20.9062 C   0  0  0  0  0  0
  -24.6291  -11.6842   20.8696 C   0  0  0  0  0  0
  -23.8957  -10.4287   21.0424 C   0  0  0  0  0  0
  -24.3550   -9.4181   21.9155 C   0  0  0  0  0  0
  -23.6282   -8.2205   22.0745 C   0  0  0  0  0  0
  -22.4272   -8.0244   21.3540 C   0  0  0  0  0  0
  -21.9852   -9.0199   20.4628 C   0  0  0  0  0  0
  -22.7144  -10.2085   20.3068 C   0  0  0  0  0  0
  -21.6834   -6.0747   22.5289 C   0  0  0  0  0  0
  -21.3957   -6.5656   23.8217 C   0  0  0  0  0  0
  -21.3688   -5.6823   24.9203 C   0  0  0  0  0  0
  -21.6064   -4.3089   24.7257 C   0  0  0  0  0  0
  -21.8819   -3.8177   23.4357 C   0  0  0  0  0  0
  -21.9158   -4.6966   22.3408 C   0  0  0  0  0  0
  -22.7871  -13.5255   21.1784 C   0  0  0  0  0  0
  -22.1659   -4.2165   21.0983 F   0  0  0  0  0  0
  -21.5592   -3.4569   25.7752 F   0  0  0  0  0  0
  -29.9962  -13.3788   20.4371 N   0  0  0  0  0  0
  -26.2886  -12.9158   20.3201 N   0  0  0  0  0  0
  -25.9219  -11.6367   20.5739 N   0  0  0  0  0  0
  -22.0560  -12.8282   22.0368 N   0  0  0  0  0  0
  -25.4481  -15.1817   20.4202 N   0  0  0  0  0  0
  -31.7386  -14.8235   20.1680 O   0  0  0  0  0  0
  -21.6600   -6.8854   21.4279 O   0  0  0  0  0  0
  -22.3635  -14.5705   20.6867 O   0  0  0  0  0  0
  -24.6254  -31.8552   23.1999 C   0  0  0  0  0  0
  -25.9093  -32.4740   23.8316 C   0  0  1  0  0  0
  -27.2282  -27.3332   20.1053 C   0  0  0  0  0  0
  -25.5925  -33.8551   24.2251 N   0  0  0  0  0  0
  -23.4181  -30.4752   21.5398 C   0  0  2  0  0  0
  -24.8626  -28.9255   20.1089 C   0  0  0  0  0  0
  -22.7415  -29.4658   22.4963 C   0  0  0  0  0  0
  -18.0245  -28.1385   22.8462 C   0  0  0  0  0  0
  -24.1494  -36.7279   23.2634 C   0  0  0  0  0  0
  -25.9532  -30.7888   21.3643 C   0  0  0  0  0  0
  -26.0272  -29.4190   20.7047 C   0  0  0  0  0  0
  -27.2115  -28.6333   20.6921 C   0  0  0  0  0  0
  -26.0431  -26.8780   19.4930 C   0  0  0  0  0  0
  -24.8696  -27.6581   19.4975 C   0  0  0  0  0  0
  -23.6284  -29.8007   20.1574 C   0  0  0  0  0  0
  -25.4128  -36.3068   24.0316 C   0  0  1  0  0  0
  -20.5822  -28.3720   23.1274 C   0  0  2  0  0  0
  -20.6791  -26.9440   22.5393 C   0  0  0  0  0  0
  -19.5748  -26.6382   21.5184 C   0  0  0  0  0  0
  -18.1930  -26.7910   22.1624 C   0  0  0  0  0  0
  -19.1476  -28.8897   23.2835 C   0  0  0  0  0  0
  -18.9352  -30.1520   23.8863 C   0  0  0  0  0  0
  -17.6344  -30.6581   24.0518 C   0  0  0  0  0  0
  -25.9077  -34.9429   23.5095 C   0  0  0  0  0  0
  -16.5258  -29.9047   23.6303 C   0  0  0  0  0  0
  -16.7223  -28.6478   23.0267 C   0  0  0  0  0  0
  -26.4510  -31.6539   25.0659 C   0  0  0  0  0  0
  -25.3783  -31.3644   26.1410 C   0  0  0  0  0  0
  -27.0302  -30.2962   24.6055 C   0  0  0  0  0  0
  -27.6090  -32.4250   25.7409 C   0  0  0  0  0  0
  -27.5585  -37.1783   24.8474 C   0  0  0  0  0  0
  -21.4122  -29.3068   22.3641 N   0  0  0  0  0  0
  -26.4313  -37.3763   23.9414 N   0  0  0  0  0  0
  -24.6837  -31.0551   22.0932 N   0  0  0  0  0  0
  -23.4097  -28.8211   23.3076 O   0  0  0  0  0  0
  -28.3747  -26.5369   20.1717 O   0  0  0  0  0  0
  -26.5645  -34.8908   22.4651 O   0  0  0  0  0  0
  -23.5416  -32.1373   23.7333 O   0  0  0  0  0  0
  -26.4339  -21.0666   21.2591 C   0  0  0  0  0  0
  -28.2540  -22.6509   21.2805 C   0  0  0  0  0  0
  -27.6246  -21.5211   20.6383 C   0  0  0  0  0  0
  -26.2863  -21.2689   22.6447 C   0  0  0  0  0  0
  -28.3968  -22.3698   22.6625 C   0  0  0  0  0  0
  -29.2871  -19.6564   20.7417 C   0  0  0  0  0  0
  -27.6546  -19.5802   19.0718 C   0  0  0  0  0  0
  -29.2830  -18.1972   20.1463 C   0  0  2  0  0  0
  -27.8037  -18.1711   19.7043 C   0  0  2  0  0  0
  -25.0872  -20.6982   23.3959 C   0  0  0  0  0  0
  -29.6284  -22.7789   23.4533 C   0  0  0  0  0  0
  -27.4850  -24.9532   22.3473 C   0  0  0  0  0  0
  -29.8744  -17.0689   21.1001 C   0  0  0  0  0  0
  -28.3758  -25.0684   19.9739 C   0  0  0  0  0  0
  -27.6743  -24.1251   21.0407 C   0  0  1  0  0  0
  -27.3433  -21.7999   23.3115 N   0  3  0  0  0  0
  -28.3837  -20.5200   19.9320 N   0  0  0  0  0  0
  -29.6829  -15.6177   20.7872 N   0  0  0  0  0  0
  -27.4331  -17.0895   18.7712 N   0  3  0  0  0  0
  -31.4831  -12.4748   19.2074 H   0  0  0  0  0  0
  -30.3446  -11.3677   19.9360 H   0  0  0  0  0  0
  -29.7984  -11.7145   17.5001 H   0  0  0  0  0  0
  -29.6390  -13.4385   17.7658 H   0  0  0  0  0  0
  -27.9429  -11.2258   18.9600 H   0  0  0  0  0  0
  -27.3678  -12.4043   17.8035 H   0  0  0  0  0  0
  -27.6548  -14.1886   19.4574 H   0  0  0  0  0  0
  -28.6813  -12.0246   21.3852 H   0  0  0  0  0  0
  -28.4110  -13.6817   21.8345 H   0  0  0  0  0  0
  -25.2740   -9.5707   22.4651 H   0  0  0  0  0  0
  -24.0019   -7.4656   22.7510 H   0  0  0  0  0  0
  -21.0756   -8.8775   19.8980 H   0  0  0  0  0  0
  -22.3644  -10.9652   19.6167 H   0  0  0  0  0  0
  -21.1973   -7.6172   23.9716 H   0  0  0  0  0  0
  -21.1485   -6.0561   25.9083 H   0  0  0  0  0  0
  -22.0574   -2.7643   23.2882 H   0  0  0  0  0  0
  -22.4100  -11.9793   22.4545 H   0  0  0  0  0  0
  -21.1243  -13.1405   22.2705 H   0  0  0  0  0  0
  -24.5518  -15.6456   20.5477 H   0  0  0  0  0  0
  -26.0485  -15.4906   21.1770 H   0  0  0  0  0  0
  -26.7129  -32.5425   23.1035 H   0  0  0  0  0  0
  -25.0034  -33.9703   25.0371 H   0  0  0  0  0  0
  -22.7125  -31.2966   21.3938 H   0  0  0  0  0  0
  -23.3756  -35.9616   23.3314 H   0  0  0  0  0  0
  -24.3606  -36.8889   22.2056 H   0  0  0  0  0  0
  -23.7264  -37.6482   23.6658 H   0  0  0  0  0  0
  -26.0824  -31.5538   20.5955 H   0  0  0  0  0  0
  -26.8333  -30.8369   21.9920 H   0  0  0  0  0  0
  -28.1122  -29.0081   21.1570 H   0  0  0  0  0  0
  -26.0058  -25.9058   19.0209 H   0  0  0  0  0  0
  -23.9735  -27.2699   19.0344 H   0  0  0  0  0  0
  -23.7418  -30.5698   19.3962 H   0  0  0  0  0  0
  -22.7481  -29.2237   19.8701 H   0  0  0  0  0  0
  -25.1312  -36.1903   25.0810 H   0  0  0  0  0  0
  -20.9899  -28.3355   24.1419 H   0  0  0  0  0  0
  -20.5823  -26.2297   23.3589 H   0  0  0  0  0  0
  -21.6677  -26.7596   22.1103 H   0  0  0  0  0  0
  -19.6948  -25.6280   21.1242 H   0  0  0  0  0  0
  -19.6697  -27.3193   20.6709 H   0  0  0  0  0  0
  -17.4206  -26.6579   21.4015 H   0  0  0  0  0  0
  -18.0363  -26.0072   22.9067 H   0  0  0  0  0  0
  -19.7808  -30.7379   24.2215 H   0  0  0  0  0  0
  -17.4828  -31.6248   24.5138 H   0  0  0  0  0  0
  -15.5227  -30.2904   23.7598 H   0  0  0  0  0  0
  -15.8644  -28.0797   22.6925 H   0  0  0  0  0  0
  -24.6006  -30.6915   25.7765 H   0  0  0  0  0  0
  -24.8920  -32.2777   26.4837 H   0  0  0  0  0  0
  -25.8184  -30.8860   27.0175 H   0  0  0  0  0  0
  -26.2796  -29.6712   24.1194 H   0  0  0  0  0  0
  -27.4120  -29.7217   25.4508 H   0  0  0  0  0  0
  -27.8642  -30.4231   23.9151 H   0  0  0  0  0  0
  -27.2728  -33.3563   26.1981 H   0  0  0  0  0  0
  -28.3899  -32.6780   25.0217 H   0  0  0  0  0  0
  -28.0746  -31.8360   26.5321 H   0  0  0  0  0  0
  -28.2607  -38.0059   24.7501 H   0  0  0  0  0  0
  -28.1058  -36.2604   24.6324 H   0  0  0  0  0  0
  -27.2301  -37.1457   25.8866 H   0  0  0  0  0  0
  -20.9365  -29.8546   21.6621 H   0  0  0  0  0  0
  -26.0174  -38.2824   24.1434 H   0  0  0  0  0  0
  -25.7631  -20.3589   20.7950 H   0  0  0  0  0  0
  -30.2979  -20.0656   20.7847 H   0  0  0  0  0  0
  -28.9067  -19.6147   21.7696 H   0  0  0  0  0  0
  -26.6195  -19.8559   18.8889 H   0  0  0  0  0  0
  -28.1484  -19.5910   18.0991 H   0  0  0  0  0  0
  -29.9039  -18.2090   19.2466 H   0  0  0  0  0  0
  -27.1560  -18.0887   20.5795 H   0  0  0  0  0  0
  -24.1623  -20.9722   22.8784 H   0  0  0  0  0  0
  -25.0050  -21.0638   24.4192 H   0  0  0  0  0  0
  -25.1303  -19.6069   23.4223 H   0  0  0  0  0  0
  -30.3085  -23.3547   22.8278 H   0  0  0  0  0  0
  -30.1646  -21.8867   23.7834 H   0  0  0  0  0  0
  -29.3852  -23.3703   24.3339 H   0  0  0  0  0  0
  -26.9333  -24.4330   23.1251 H   0  0  0  0  0  0
  -26.8967  -25.8516   22.1817 H   0  0  0  0  0  0
  -28.4424  -25.2758   22.7582 H   0  0  0  0  0  0
  -30.9504  -17.2434   21.2098 H   0  0  0  0  0  0
  -29.4516  -17.2131   22.0992 H   0  0  0  0  0  0
  -28.0422  -24.8237   18.9651 H   0  0  0  0  0  0
  -29.4353  -24.8078   19.9783 H   0  0  0  0  0  0
  -26.6600  -23.9716   20.6677 H   0  0  0  0  0  0
  -27.3535  -21.7636   24.3352 H   0  0  0  0  0  0
  -28.7821  -15.2457   21.0492 H   0  0  0  0  0  0
  -26.4315  -17.0035   18.7050 H   0  0  0  0  0  0
  -27.7747  -16.2142   19.1231 H   0  0  0  0  0  0
  -27.8014  -17.2375   17.8476 H   0  0  0  0  0  0
  1 25  1  0  0  0
  1 30  2  0  0  0
  1 88  1  0  0  0
  2  3  1  0  0  0
  2 25  1  0  0  0
  2 90  1  0  0  0
  2 91  1  0  0  0
  3  4  1  0  0  0
  3 92  1  0  0  0
  3 93  1  0  0  0
  4  5  1  0  0  0
  4 94  1  0  0  0
  4 95  1  0  0  0
  5  6  1  0  0  0
  5 26  1  0  0  0
  5 96  1  0  0  0
  6 25  1  0  0  0
  6 97  1  0  0  0
  6 98  1  0  0  0
  7  8  2  0  0  0
  7 26  1  0  0  0
  7 29  1  0  0  0
  8  9  1  0  0  0
  8 22  1  0  0  0
  9 10  1  0  0  0
  9 27  2  0  0  0
 10 11  2  0  0  0
 10 15  1  0  0  0
 11 12  1  0  0  0
 11 99  1  0  0  0
 12 13  2  0  0  0
 12100  1  0  0  0
 13 14  1  0  0  0
 13 31  1  0  0  0
 14 15  2  0  0  0
 14101  1  0  0  0
 15102  1  0  0  0
 16 17  2  0  0  0
 16 21  1  0  0  0
 16 31  1  0  0  0
 17 18  1  0  0  0
 17103  1  0  0  0
 18 19  2  0  0  0
 18104  1  0  0  0
 19 20  1  0  0  0
 19 24  1  0  0  0
 20 21  2  0  0  0
 20105  1  0  0  0
 21 23  1  0  0  0
 22 28  1  0  0  0
 22 32  2  0  0  0
 26 27  1  0  0  0
 28106  1  0  0  0
 28107  1  0  0  0
 29108  1  0  0  0
 29109  1  0  0  0
 33 34  1  0  0  0
 33 66  1  0  0  0
 33 70  2  0  0  0
 34 36  1  0  0  0
 34 59  1  0  0  0
 34110  1  0  0  0
 35 44  2  0  0  0
 35 45  1  0  0  0
 35 68  1  0  0  0
 36 56  1  0  0  0
 36111  1  0  0  0
 37 39  1  0  0  0
 37 47  1  0  0  0
 37 66  1  0  0  0
 37112  1  0  0  0
 38 43  2  0  0  0
 38 46  1  0  0  0
 38 47  1  0  0  0
 39 64  1  0  0  0
 39 67  2  0  0  0
 40 52  1  0  0  0
 40 53  2  0  0  0
 40 58  1  0  0  0
 41113  1  0  0  0
 41114  1  0  0  0
 41115  1  0  0  0
 41 48  1  0  0  0
 42 43  1  0  0  0
 42 66  1  0  0  0
 42116  1  0  0  0
 42117  1  0  0  0
 43 44  1  0  0  0
 44118  1  0  0  0
 45 46  2  0  0  0
 45119  1  0  0  0
 46120  1  0  0  0
 47121  1  0  0  0
 47122  1  0  0  0
 48 56  1  0  0  0
 48 65  1  0  0  0
 48123  1  0  0  0
 49 50  1  0  0  0
 49 53  1  0  0  0
 49 64  1  0  0  0
 49124  1  0  0  0
 50 51  1  0  0  0
 50125  1  0  0  0
 50126  1  0  0  0
 51 52  1  0  0  0
 51127  1  0  0  0
 51128  1  0  0  0
 52129  1  0  0  0
 52130  1  0  0  0
 53 54  1  0  0  0
 54 55  2  0  0  0
 54131  1  0  0  0
 55 57  1  0  0  0
 55132  1  0  0  0
 56 69  2  0  0  0
 57 58  2  0  0  0
 57133  1  0  0  0
 58134  1  0  0  0
 59 60  1  0  0  0
 59 61  1  0  0  0
 59 62  1  0  0  0
 60135  1  0  0  0
 60136  1  0  0  0
 60137  1  0  0  0
 61138  1  0  0  0
 61139  1  0  0  0
 61140  1  0  0  0
 62141  1  0  0  0
 62142  1  0  0  0
 62143  1  0  0  0
 63 65  1  0  0  0
 63144  1  0  0  0
 63145  1  0  0  0
 63146  1  0  0  0
 64147  1  0  0  0
 65148  1  0  0  0
 68 84  1  0  0  0
 71 73  2  0  0  0
 71 74  1  0  0  0
 71149  1  0  0  0
 72 73  1  0  0  0
 72 75  2  0  0  0
 72 85  1  0  0  0
 73 87  1  0  0  0
 74 80  1  0  0  0
 74 86  2  0  0  0
 75 81  1  0  0  0
 75 86  1  0  0  0
 76 78  1  0  0  0
 76 87  1  0  0  0
 76150  1  0  0  0
 76151  1  0  0  0
 77 79  1  0  0  0
 77 87  1  0  0  0
 77152  1  0  0  0
 77153  1  0  0  0
 78 79  1  0  0  0
 78 83  1  0  0  0
 78154  1  0  0  0
 79 89  1  0  0  0
 79155  1  0  0  0
 80156  1  0  0  0
 80157  1  0  0  0
 80158  1  0  0  0
 81159  1  0  0  0
 81160  1  0  0  0
 81161  1  0  0  0
 82162  1  0  0  0
 82163  1  0  0  0
 82164  1  0  0  0
 82 85  1  0  0  0
 83 88  1  0  0  0
 83165  1  0  0  0
 83166  1  0  0  0
 84 85  1  0  0  0
 84167  1  0  0  0
 84168  1  0  0  0
 85169  1  0  0  0
 86170  1  0  0  0
 88171  1  0  0  0
 89172  1  0  0  0
 89173  1  0  0  0
 89174  1  0  0  0
M  CHG  2  86   1  89   1
M  ISO  4   1 100  68 101  84 101  88 100
M  END
> <chiral flag>
0

> <version>
0

> <s_m_source_file>
/data/baiqing/PycharmProjects/Reinvent-master-3.2/result/LINK_invent/BTK/process_docking_weight1_custom_sum_contain_oxygen_bond_distance_aromatic_linkinvent_7_9_3/rearranged_h_0167.sdf

> <i_m_source_file_index>
56

> <r_mmod_Potential_Energy-OPLS-2005>
164.483261108398

> <r_mmod_Stretch_Energy-OPLS-2005>
85.8429336547852

> <r_mmod_Bend_Energy-OPLS-2005>
218.300994873047

> <r_mmod_Torsional_Energy-OPLS-2005>
536.763854980469

> <r_mmod_Improper_Torsional_Energy-OPLS-2005>
48.8825836181641

> <r_mmod_Van_der_Waal_Energy-OPLS-2005>
150.583312988281

> <r_mmod_Electrostatic_Energy-OPLS-2005>
16.3124389648438

> <r_mmod_Solvation_Energy-OPLS-2005>
-939.213989257812

> <b_mmod_Minimization_Converged-OPLS-2005>
0

> <r_mmod_RMS_Derivative-OPLS-2005>
8.27277660369873

$$$$
56
                    3D
 Structure written by MMmdl.
178188  0  0  1  0            999 V2000
  -30.6954  -14.4365   20.6344 C   0  0  0  0  0  0
  -30.4259  -12.3078   19.4093 C   0  0  0  0  0  0
  -29.4899  -12.5217   18.2004 C   0  0  0  0  0  0
  -28.0133  -12.3706   18.6154 C   0  0  0  0  0  0
  -27.6628  -13.1967   19.8807 C   0  0  2  0  0  0
  -28.7010  -12.9417   20.9963 C   0  0  0  0  0  0
  -25.2587  -13.8135   20.5654 C   0  0  0  0  0  0
  -24.1819  -13.0428   20.9165 C   0  0  0  0  0  0
  -24.6362  -11.6899   20.8729 C   0  0  0  0  0  0
  -23.9027  -10.4290   21.0395 C   0  0  0  0  0  0
  -24.3593   -9.4220   21.9187 C   0  0  0  0  0  0
  -23.6278   -8.2249   22.0766 C   0  0  0  0  0  0
  -22.4268   -8.0267   21.3536 C   0  0  0  0  0  0
  -21.9894   -9.0238   20.4646 C   0  0  0  0  0  0
  -22.7215  -10.2118   20.3050 C   0  0  0  0  0  0
  -21.6848   -6.0722   22.5274 C   0  0  0  0  0  0
  -21.4002   -6.5637   23.8208 C   0  0  0  0  0  0
  -21.3654   -5.6792   24.9174 C   0  0  0  0  0  0
  -21.6044   -4.3057   24.7231 C   0  0  0  0  0  0
  -21.8822   -3.8145   23.4364 C   0  0  0  0  0  0
  -21.9195   -4.6951   22.3412 C   0  0  0  0  0  0
  -22.7853  -13.5240   21.1831 C   0  0  0  0  0  0
  -22.1664   -4.2144   21.0986 F   0  0  0  0  0  0
  -21.5638   -3.4542   25.7755 F   0  0  0  0  0  0
  -30.0344  -13.2612   20.4572 N   0  0  0  0  0  0
  -26.3015  -12.9283   20.3362 N   0  0  0  0  0  0
  -25.9274  -11.6459   20.5752 N   0  0  0  0  0  0
  -22.0481  -12.8214   22.0373 N   0  0  0  0  0  0
  -25.4350  -15.1846   20.4035 N   0  0  0  0  0  0
  -31.7827  -14.6866   20.1088 O   0  0  0  0  0  0
  -21.6632   -6.8864   21.4240 O   0  0  0  0  0  0
  -22.3561  -14.5566   20.6719 O   0  0  0  0  0  0
  -24.6152  -31.8637   23.2066 C   0  0  0  0  0  0
  -25.9082  -32.4785   23.8322 C   0  0  1  0  0  0
  -27.2529  -27.4323   20.1178 C   0  0  0  0  0  0
  -25.5927  -33.8583   24.2259 N   0  0  0  0  0  0
  -23.3981  -30.4849   21.5490 C   0  0  2  0  0  0
  -24.8486  -28.9417   20.1166 C   0  0  0  0  0  0
  -22.7382  -29.4633   22.5019 C   0  0  0  0  0  0
  -18.0263  -28.1365   22.8494 C   0  0  0  0  0  0
  -24.1474  -36.7314   23.2636 C   0  0  0  0  0  0
  -25.9214  -30.8332   21.3535 C   0  0  0  0  0  0
  -26.0033  -29.4639   20.7111 C   0  0  0  0  0  0
  -27.2024  -28.7188   20.7045 C   0  0  0  0  0  0
  -26.0766  -26.9140   19.5258 C   0  0  0  0  0  0
  -24.8799  -27.6662   19.5216 C   0  0  0  0  0  0
  -23.6078  -29.8092   20.1649 C   0  0  0  0  0  0
  -25.4115  -36.3083   24.0285 C   0  0  1  0  0  0
  -20.5850  -28.3641   23.1366 C   0  0  2  0  0  0
  -20.6756  -26.9376   22.5482 C   0  0  0  0  0  0
  -19.5774  -26.6379   21.5240 C   0  0  0  0  0  0
  -18.1919  -26.7931   22.1582 C   0  0  0  0  0  0
  -19.1512  -28.8816   23.2923 C   0  0  0  0  0  0
  -18.9447  -30.1420   23.8936 C   0  0  0  0  0  0
  -17.6462  -30.6576   24.0563 C   0  0  0  0  0  0
  -25.9043  -34.9449   23.5072 C   0  0  0  0  0  0
  -16.5350  -29.9090   23.6310 C   0  0  0  0  0  0
  -16.7264  -28.6504   23.0335 C   0  0  0  0  0  0
  -26.4531  -31.6562   25.0644 C   0  0  0  0  0  0
  -25.3807  -31.3682   26.1384 C   0  0  0  0  0  0
  -27.0333  -30.2981   24.6016 C   0  0  0  0  0  0
  -27.6071  -32.4292   25.7482 C   0  0  0  0  0  0
  -27.5557  -37.1827   24.8457 C   0  0  0  0  0  0
  -21.4120  -29.2987   22.3745 N   0  0  0  0  0  0
  -26.4304  -37.3775   23.9366 N   0  0  0  0  0  0
  -24.6629  -31.0746   22.0974 N   0  0  0  0  0  0
  -23.4155  -28.8194   23.3077 O   0  0  0  0  0  0
  -28.4658  -26.7701   20.1441 O   0  0  0  0  0  0
  -26.5624  -34.8926   22.4640 O   0  0  0  0  0  0
  -23.5359  -32.1417   23.7488 O   0  0  0  0  0  0
  -32.4401  -24.9945   20.1839 C   0  0  0  0  0  0
  -31.1721  -25.5935   20.0170 C   0  0  0  0  0  0
  -29.9976  -24.7809   20.1252 C   0  0  0  0  0  0
  -30.2161  -23.3834   20.3437 C   0  0  0  0  0  0
  -32.5297  -23.6191   20.4287 C   0  0  0  0  0  0
  -29.3129  -20.9716   19.6900 C   0  0  0  0  0  0
  -29.0623  -21.4884   21.7577 C   0  0  0  0  0  0
  -29.9486  -18.8051   22.7909 C   0  0  0  0  0  0
  -29.1336  -22.3061   20.4538 C   0  0  1  0  0  0
  -30.0195  -17.2710   22.9689 C   0  0  1  0  0  0
  -30.4011  -16.7601   21.5785 C   0  0  2  0  0  0
  -28.9172  -20.1768   20.9520 C   0  0  2  0  0  0
  -29.6563  -17.7659   20.6759 C   0  0  2  0  0  0
  -31.1601  -27.0864   19.7131 C   0  0  0  0  0  0
  -33.8558  -22.9030   20.6002 C   0  0  0  0  0  0
  -30.9442  -16.7889   24.0989 C   0  0  0  0  0  0
  -30.1065  -17.7092   19.2072 C   0  0  0  0  0  0
  -28.5587  -25.3486   19.9831 C   0  0  0  0  0  0
  -31.4443  -22.8420   20.5011 N   0  0  0  0  0  0
  -30.0251  -15.3561   21.3493 N   0  0  0  0  0  0
  -29.8748  -19.0864   21.3310 N   0  3  2  0  0  0
  -31.4682  -12.4236   19.1077 H   0  0  0  0  0  0
  -30.3380  -11.2859   19.7839 H   0  0  0  0  0  0
  -29.7281  -11.8119   17.4067 H   0  0  0  0  0  0
  -29.6519  -13.5153   17.7794 H   0  0  0  0  0  0
  -27.8281  -11.3116   18.8028 H   0  0  0  0  0  0
  -27.3608  -12.6503   17.7880 H   0  0  0  0  0  0
  -27.7198  -14.2486   19.6012 H   0  0  0  0  0  0
  -28.6766  -11.8931   21.2991 H   0  0  0  0  0  0
  -28.4502  -13.5015   21.8983 H   0  0  0  0  0  0
  -25.2727   -9.5705   22.4778 H   0  0  0  0  0  0
  -23.9988   -7.4646   22.7490 H   0  0  0  0  0  0
  -21.0839   -8.8741   19.8950 H   0  0  0  0  0  0
  -22.3665  -10.9651   19.6165 H   0  0  0  0  0  0
  -21.1979   -7.6141   23.9706 H   0  0  0  0  0  0
  -21.1473   -6.0527   25.9077 H   0  0  0  0  0  0
  -22.0608   -2.7605   23.2868 H   0  0  0  0  0  0
  -22.4082  -11.9831   22.4706 H   0  0  0  0  0  0
  -21.1098  -13.1236   22.2583 H   0  0  0  0  0  0
  -24.6648  -15.8405   20.4859 H   0  0  0  0  0  0
  -26.2860  -15.6148   20.0700 H   0  0  0  0  0  0
  -26.7149  -32.5508   23.1074 H   0  0  0  0  0  0
  -25.0052  -33.9730   25.0379 H   0  0  0  0  0  0
  -22.6867  -31.3011   21.4095 H   0  0  0  0  0  0
  -23.3736  -35.9642   23.3268 H   0  0  0  0  0  0
  -24.3548  -36.8995   22.2054 H   0  0  0  0  0  0
  -23.7221  -37.6475   23.6742 H   0  0  0  0  0  0
  -26.0154  -31.5947   20.5770 H   0  0  0  0  0  0
  -26.8153  -30.9015   21.9612 H   0  0  0  0  0  0
  -28.0943  -29.1202   21.1649 H   0  0  0  0  0  0
  -26.0667  -25.9386   19.0617 H   0  0  0  0  0  0
  -23.9920  -27.2552   19.0630 H   0  0  0  0  0  0
  -23.7114  -30.5837   19.4033 H   0  0  0  0  0  0
  -22.7316  -29.2251   19.8734 H   0  0  0  0  0  0
  -25.1305  -36.1936   25.0778 H   0  0  0  0  0  0
  -20.9909  -28.3241   24.1506 H   0  0  0  0  0  0
  -20.5677  -26.2248   23.3671 H   0  0  0  0  0  0
  -21.6644  -26.7440   22.1301 H   0  0  0  0  0  0
  -19.6952  -25.6299   21.1255 H   0  0  0  0  0  0
  -19.6766  -27.3203   20.6786 H   0  0  0  0  0  0
  -17.4241  -26.6753   21.3908 H   0  0  0  0  0  0
  -18.0206  -26.0019   22.8903 H   0  0  0  0  0  0
  -19.7924  -30.7190   24.2366 H   0  0  0  0  0  0
  -17.5020  -31.6257   24.5169 H   0  0  0  0  0  0
  -15.5354  -30.2998   23.7624 H   0  0  0  0  0  0
  -15.8655  -28.0847   22.7029 H   0  0  0  0  0  0
  -24.6044  -30.6942   25.7742 H   0  0  0  0  0  0
  -24.8944  -32.2847   26.4735 H   0  0  0  0  0  0
  -25.8170  -30.8955   27.0192 H   0  0  0  0  0  0
  -26.2824  -29.6717   24.1174 H   0  0  0  0  0  0
  -27.4174  -29.7237   25.4454 H   0  0  0  0  0  0
  -27.8646  -30.4215   23.9068 H   0  0  0  0  0  0
  -27.2656  -33.3617   26.2002 H   0  0  0  0  0  0
  -28.3990  -32.6795   25.0410 H   0  0  0  0  0  0
  -28.0624  -31.8437   26.5479 H   0  0  0  0  0  0
  -28.2638  -38.0056   24.7394 H   0  0  0  0  0  0
  -28.0976  -36.2573   24.6433 H   0  0  0  0  0  0
  -27.2258  -37.1676   25.8861 H   0  0  0  0  0  0
  -20.9306  -29.8688   21.6937 H   0  0  0  0  0  0
  -26.0162  -38.2849   24.1341 H   0  0  0  0  0  0
  -33.3446  -25.5853   20.1184 H   0  0  0  0  0  0
  -30.3424  -20.7863   19.3829 H   0  0  0  0  0  0
  -28.6389  -20.8509   18.8411 H   0  0  0  0  0  0
  -28.2026  -21.7413   22.3790 H   0  0  0  0  0  0
  -29.9870  -21.5505   22.3323 H   0  0  0  0  0  0
  -30.8317  -19.3000   23.1983 H   0  0  0  0  0  0
  -29.0820  -19.1977   23.3259 H   0  0  0  0  0  0
  -28.1517  -22.7116   20.2118 H   0  0  0  0  0  0
  -29.0085  -16.9272   23.1965 H   0  0  0  0  0  0
  -31.4793  -16.8818   21.4431 H   0  0  0  0  0  0
  -27.8786  -19.8419   20.9312 H   0  0  0  0  0  0
  -28.5874  -17.5459   20.7189 H   0  0  0  0  0  0
  -30.4884  -27.3180   18.8863 H   0  0  0  0  0  0
  -32.1483  -27.4410   19.4138 H   0  0  0  0  0  0
  -30.8621  -27.6606   20.5908 H   0  0  0  0  0  0
  -34.6873  -23.5974   20.7106 H   0  0  0  0  0  0
  -34.0573  -22.2710   19.7347 H   0  0  0  0  0  0
  -33.8298  -22.2607   21.4817 H   0  0  0  0  0  0
  -31.9744  -17.1152   23.9473 H   0  0  0  0  0  0
  -30.9465  -15.6996   24.1631 H   0  0  0  0  0  0
  -30.6147  -17.1718   25.0656 H   0  0  0  0  0  0
  -31.1707  -17.9164   19.0978 H   0  0  0  0  0  0
  -29.5538  -18.4156   18.5908 H   0  0  0  0  0  0
  -29.9208  -16.7179   18.7934 H   0  0  0  0  0  0
  -27.9255  -24.8956   20.7476 H   0  0  0  0  0  0
  -28.1682  -25.0508   19.0092 H   0  0  0  0  0  0
  -29.1477  -15.0467   21.7375 H   0  0  0  0  0  0
  -30.8046  -19.3887   21.0772 H   0  0  0  0  0  0
  1 25  1  0  0  0
  1 30  2  0  0  0
  1 90  1  0  0  0
  2  3  1  0  0  0
  2 25  1  0  0  0
  2 92  1  0  0  0
  2 93  1  0  0  0
  3  4  1  0  0  0
  3 94  1  0  0  0
  3 95  1  0  0  0
  4  5  1  0  0  0
  4 96  1  0  0  0
  4 97  1  0  0  0
  5  6  1  0  0  0
  5 26  1  0  0  0
  5 98  1  0  0  0
  6 25  1  0  0  0
  6 99  1  0  0  0
  6100  1  0  0  0
  7  8  2  0  0  0
  7 26  1  0  0  0
  7 29  1  0  0  0
  8  9  1  0  0  0
  8 22  1  0  0  0
  9 10  1  0  0  0
  9 27  2  0  0  0
 10 11  2  0  0  0
 10 15  1  0  0  0
 11 12  1  0  0  0
 11101  1  0  0  0
 12 13  2  0  0  0
 12102  1  0  0  0
 13 14  1  0  0  0
 13 31  1  0  0  0
 14 15  2  0  0  0
 14103  1  0  0  0
 15104  1  0  0  0
 16 17  2  0  0  0
 16 21  1  0  0  0
 16 31  1  0  0  0
 17 18  1  0  0  0
 17105  1  0  0  0
 18 19  2  0  0  0
 18106  1  0  0  0
 19 20  1  0  0  0
 19 24  1  0  0  0
 20 21  2  0  0  0
 20107  1  0  0  0
 21 23  1  0  0  0
 22 28  1  0  0  0
 22 32  2  0  0  0
 26 27  1  0  0  0
 28108  1  0  0  0
 28109  1  0  0  0
 29110  1  0  0  0
 29111  1  0  0  0
 33 34  1  0  0  0
 33 66  1  0  0  0
 33 70  2  0  0  0
 34 36  1  0  0  0
 34 59  1  0  0  0
 34112  1  0  0  0
 35 44  2  0  0  0
 35 45  1  0  0  0
 35 68  1  0  0  0
 36 56  1  0  0  0
 36113  1  0  0  0
 37 39  1  0  0  0
 37 47  1  0  0  0
 37 66  1  0  0  0
 37114  1  0  0  0
 38 43  2  0  0  0
 38 46  1  0  0  0
 38 47  1  0  0  0
 39 64  1  0  0  0
 39 67  2  0  0  0
 40 52  1  0  0  0
 40 53  2  0  0  0
 40 58  1  0  0  0
 41115  1  0  0  0
 41116  1  0  0  0
 41117  1  0  0  0
 41 48  1  0  0  0
 42 43  1  0  0  0
 42 66  1  0  0  0
 42118  1  0  0  0
 42119  1  0  0  0
 43 44  1  0  0  0
 44120  1  0  0  0
 45 46  2  0  0  0
 45121  1  0  0  0
 46122  1  0  0  0
 47123  1  0  0  0
 47124  1  0  0  0
 48 56  1  0  0  0
 48 65  1  0  0  0
 48125  1  0  0  0
 49 50  1  0  0  0
 49 53  1  0  0  0
 49 64  1  0  0  0
 49126  1  0  0  0
 50 51  1  0  0  0
 50127  1  0  0  0
 50128  1  0  0  0
 51 52  1  0  0  0
 51129  1  0  0  0
 51130  1  0  0  0
 52131  1  0  0  0
 52132  1  0  0  0
 53 54  1  0  0  0
 54 55  2  0  0  0
 54133  1  0  0  0
 55 57  1  0  0  0
 55134  1  0  0  0
 56 69  2  0  0  0
 57 58  2  0  0  0
 57135  1  0  0  0
 58136  1  0  0  0
 59 60  1  0  0  0
 59 61  1  0  0  0
 59 62  1  0  0  0
 60137  1  0  0  0
 60138  1  0  0  0
 60139  1  0  0  0
 61140  1  0  0  0
 61141  1  0  0  0
 61142  1  0  0  0
 62143  1  0  0  0
 62144  1  0  0  0
 62145  1  0  0  0
 63 65  1  0  0  0
 63146  1  0  0  0
 63147  1  0  0  0
 63148  1  0  0  0
 64149  1  0  0  0
 65150  1  0  0  0
 68 88  1  0  0  0
 71 72  2  0  0  0
 71 75  1  0  0  0
 71151  1  0  0  0
 72 73  1  0  0  0
 72 84  1  0  0  0
 73 74  2  0  0  0
 73 88  1  0  0  0
 74 89  1  0  0  0
 74 79  1  0  0  0
 75 85  1  0  0  0
 75 89  2  0  0  0
 76 79  1  0  0  0
 76152  1  0  0  0
 76153  1  0  0  0
 76 82  1  0  0  0
 77 79  1  0  0  0
 77 82  1  0  0  0
 77154  1  0  0  0
 77155  1  0  0  0
 78 80  1  0  0  0
 78156  1  0  0  0
 78157  1  0  0  0
 78 91  1  0  0  0
 79158  1  0  0  0
 80 81  1  0  0  0
 80 86  1  0  0  0
 80159  1  0  0  0
 81 83  1  0  0  0
 81 90  1  0  0  0
 81160  1  0  0  0
 82 91  1  0  0  0
 82161  1  0  0  0
 83 87  1  0  0  0
 83 91  1  0  0  0
 83162  1  0  0  0
 84163  1  0  0  0
 84164  1  0  0  0
 84165  1  0  0  0
 85166  1  0  0  0
 85167  1  0  0  0
 85168  1  0  0  0
 86169  1  0  0  0
 86170  1  0  0  0
 86171  1  0  0  0
 87172  1  0  0  0
 87173  1  0  0  0
 87174  1  0  0  0
 88175  1  0  0  0
 88176  1  0  0  0
 90177  1  0  0  0
 91178  1  0  0  0
M  CHG  1  91   1
M  ISO  4   1 100  68 101  88 101  90 100
M  END
> <chiral flag>
0

> <version>
0

> <s_m_source_file>
/data/baiqing/PycharmProjects/Reinvent-master-3.2/result/LINK_invent/BTK/process_docking_weight1_custom_sum_contain_oxygen_bond_distance_aromatic_linkinvent_7_9_3/rearranged_h_0167.sdf

> <i_m_source_file_index>
57

> <r_mmod_Potential_Energy-OPLS-2005>
-225.372100830078

> <r_mmod_Stretch_Energy-OPLS-2005>
43.6915512084961

> <r_mmod_Bend_Energy-OPLS-2005>
153.586944580078

> <r_mmod_Torsional_Energy-OPLS-2005>
304.829254150391

> <r_mmod_Improper_Torsional_Energy-OPLS-2005>
2.70798325538635

> <r_mmod_Van_der_Waal_Energy-OPLS-2005>
149.579437255859

> <r_mmod_Electrostatic_Energy-OPLS-2005>
-461.029571533203

> <r_mmod_Solvation_Energy-OPLS-2005>
-430.125793457031

> <b_mmod_Minimization_Converged-OPLS-2005>
0

> <r_mmod_RMS_Derivative-OPLS-2005>
3.43113422393799

$$$$
57
                    3D
 Structure written by MMmdl.
165174  0  0  1  0            999 V2000
  -30.6124  -14.7938   20.4247 C   0  0  0  0  0  0
  -30.4267  -12.4850   19.4799 C   0  0  0  0  0  0
  -29.5092  -12.5018   18.2385 C   0  0  0  0  0  0
  -28.0370  -12.3229   18.6549 C   0  0  0  0  0  0
  -27.6340  -13.2396   19.8414 C   0  0  2  0  0  0
  -28.6785  -13.2185   20.9774 C   0  0  0  0  0  0
  -25.2481  -13.8214   20.5703 C   0  0  0  0  0  0
  -24.1785  -13.0445   20.9226 C   0  0  0  0  0  0
  -24.6389  -11.6929   20.8752 C   0  0  0  0  0  0
  -23.9072  -10.4300   21.0413 C   0  0  0  0  0  0
  -24.3625   -9.4212   21.9186 C   0  0  0  0  0  0
  -23.6300   -8.2245   22.0753 C   0  0  0  0  0  0
  -22.4280   -8.0285   21.3545 C   0  0  0  0  0  0
  -21.9921   -9.0258   20.4644 C   0  0  0  0  0  0
  -22.7249  -10.2138   20.3058 C   0  0  0  0  0  0
  -21.6855   -6.0738   22.5280 C   0  0  0  0  0  0
  -21.4013   -6.5642   23.8213 C   0  0  0  0  0  0
  -21.3658   -5.6793   24.9176 C   0  0  0  0  0  0
  -21.6046   -4.3057   24.7226 C   0  0  0  0  0  0
  -21.8818   -3.8149   23.4347 C   0  0  0  0  0  0
  -21.9195   -4.6966   22.3402 C   0  0  0  0  0  0
  -22.7807  -13.5220   21.1882 C   0  0  0  0  0  0
  -22.1662   -4.2153   21.0980 F   0  0  0  0  0  0
  -21.5630   -3.4540   25.7737 F   0  0  0  0  0  0
  -29.9697  -13.5727   20.3805 N   0  0  0  0  0  0
  -26.2900  -12.9430   20.3255 N   0  0  0  0  0  0
  -25.9318  -11.6567   20.5746 N   0  0  0  0  0  0
  -22.0454  -12.8201   22.0434 N   0  0  0  0  0  0
  -25.4154  -15.1937   20.4112 N   0  0  0  0  0  0
  -31.8230  -14.8244   20.1877 O   0  0  0  0  0  0
  -21.6642   -6.8882   21.4242 O   0  0  0  0  0  0
  -22.3489  -14.5525   20.6732 O   0  0  0  0  0  0
  -24.6343  -31.8517   23.1948 C   0  0  0  0  0  0
  -25.9157  -32.4733   23.8308 C   0  0  1  0  0  0
  -27.2180  -27.2335   20.1411 C   0  0  0  0  0  0
  -25.5941  -33.8533   24.2228 N   0  0  0  0  0  0
  -23.4337  -30.4709   21.5392 C   0  0  2  0  0  0
  -24.8819  -28.9070   20.1149 C   0  0  0  0  0  0
  -22.7524  -29.4572   22.4911 C   0  0  0  0  0  0
  -18.0290  -28.1380   22.8473 C   0  0  0  0  0  0
  -24.1495  -36.7271   23.2643 C   0  0  0  0  0  0
  -25.9806  -30.7556   21.3788 C   0  0  0  0  0  0
  -26.0547  -29.3731   20.7252 C   0  0  0  0  0  0
  -27.2299  -28.5497   20.7237 C   0  0  0  0  0  0
  -26.0270  -26.8370   19.5043 C   0  0  0  0  0  0
  -24.8732  -27.6472   19.4939 C   0  0  0  0  0  0
  -23.6549  -29.7993   20.1577 C   0  0  0  0  0  0
  -25.4120  -36.3054   24.0325 C   0  0  1  0  0  0
  -20.5898  -28.3695   23.1261 C   0  0  2  0  0  0
  -20.6779  -26.9409   22.5406 C   0  0  0  0  0  0
  -19.5754  -26.6371   21.5209 C   0  0  0  0  0  0
  -18.1931  -26.7920   22.1616 C   0  0  0  0  0  0
  -19.1544  -28.8856   23.2857 C   0  0  0  0  0  0
  -18.9468  -30.1455   23.8879 C   0  0  0  0  0  0
  -17.6470  -30.6586   24.0550 C   0  0  0  0  0  0
  -25.9063  -34.9428   23.5080 C   0  0  0  0  0  0
  -16.5359  -29.9076   23.6333 C   0  0  0  0  0  0
  -16.7277  -28.6495   23.0348 C   0  0  0  0  0  0
  -26.4517  -31.6567   25.0709 C   0  0  0  0  0  0
  -25.3727  -31.3723   26.1421 C   0  0  0  0  0  0
  -27.0367  -30.2976   24.6219 C   0  0  0  0  0  0
  -27.6056  -32.4324   25.7489 C   0  0  0  0  0  0
  -27.5576  -37.1789   24.8466 C   0  0  0  0  0  0
  -21.4226  -29.3041   22.3657 N   0  0  0  0  0  0
  -26.4288  -37.3756   23.9412 N   0  0  0  0  0  0
  -24.7019  -31.0454   22.0937 N   0  0  0  0  0  0
  -23.4208  -28.8124   23.3030 O   0  0  0  0  0  0
  -28.2981  -26.3159   20.1179 O   0  0  0  0  0  0
  -26.5644  -34.8915   22.4653 O   0  0  0  0  0  0
  -23.5486  -32.1353   23.7228 O   0  0  0  0  0  0
  -28.2738  -19.1321   20.2680 C   0  0  0  0  0  0
  -28.1012  -20.5693   20.3346 C   0  0  0  0  0  0
  -29.3155  -21.1515   20.4981 C   0  0  0  0  0  0
  -29.6094  -18.7859   20.3204 C   0  0  0  0  0  0
  -29.4778  -22.6378   20.6914 C   0  0  0  0  0  0
  -28.4348  -23.5514   20.5126 C   0  0  0  0  0  0
  -26.8511  -21.4298   20.2677 C   0  0  0  0  0  0
  -27.1139  -22.9575   19.9773 C   0  0  0  0  0  0
  -30.8122  -23.0729   21.2891 C   0  0  0  0  0  0
  -30.7835  -17.3732   18.5982 C   0  0  0  0  0  0
  -27.3270  -25.2234   22.1765 C   0  0  0  0  0  0
  -31.7067  -20.2352   20.4736 C   0  0  0  0  0  0
  -30.3929  -17.3978   20.0917 C   0  0  2  0  0  0
  -28.3405  -25.0994   21.0202 C   0  0  2  0  0  0
  -30.2575  -20.0666   20.4450 N   0  0  0  0  0  0
  -29.8787  -15.9888   20.4661 N   0  0  0  0  0  0
  -31.4671  -12.6073   19.1733 H   0  0  0  0  0  0
  -30.3763  -11.5202   19.9873 H   0  0  0  0  0  0
  -29.7992  -11.7133   17.5426 H   0  0  0  0  0  0
  -29.6301  -13.4447   17.7023 H   0  0  0  0  0  0
  -27.9027  -11.2774   18.9351 H   0  0  0  0  0  0
  -27.3790  -12.4949   17.8025 H   0  0  0  0  0  0
  -27.6152  -14.2524   19.4386 H   0  0  0  0  0  0
  -28.7263  -12.2359   21.4498 H   0  0  0  0  0  0
  -28.4102  -13.9289   21.7611 H   0  0  0  0  0  0
  -25.2768   -9.5691   22.4765 H   0  0  0  0  0  0
  -24.0010   -7.4637   22.7473 H   0  0  0  0  0  0
  -21.0854   -8.8780   19.8947 H   0  0  0  0  0  0
  -22.3708  -10.9680   19.6169 H   0  0  0  0  0  0
  -21.2000   -7.6150   23.9719 H   0  0  0  0  0  0
  -21.1482   -6.0523   25.9080 H   0  0  0  0  0  0
  -22.0597   -2.7612   23.2845 H   0  0  0  0  0  0
  -22.4077  -11.9868   22.4821 H   0  0  0  0  0  0
  -21.1068  -13.1217   22.2632 H   0  0  0  0  0  0
  -24.6461  -15.8455   20.5232 H   0  0  0  0  0  0
  -26.2567  -15.6338   20.0627 H   0  0  0  0  0  0
  -26.7220  -32.5382   23.1046 H   0  0  0  0  0  0
  -25.0078  -33.9654   25.0367 H   0  0  0  0  0  0
  -22.7311  -31.2927   21.3889 H   0  0  0  0  0  0
  -23.3759  -35.9602   23.3303 H   0  0  0  0  0  0
  -24.3580  -36.8899   22.2058 H   0  0  0  0  0  0
  -23.7245  -37.6466   23.6679 H   0  0  0  0  0  0
  -26.1210  -31.5135   20.6070 H   0  0  0  0  0  0
  -26.8566  -30.8062   22.0139 H   0  0  0  0  0  0
  -28.1332  -28.9040   21.2008 H   0  0  0  0  0  0
  -25.9852  -25.8679   19.0281 H   0  0  0  0  0  0
  -23.9760  -27.2846   19.0113 H   0  0  0  0  0  0
  -23.7843  -30.5733   19.4004 H   0  0  0  0  0  0
  -22.7726  -29.2338   19.8523 H   0  0  0  0  0  0
  -25.1301  -36.1892   25.0816 H   0  0  0  0  0  0
  -20.9972  -28.3276   24.1387 H   0  0  0  0  0  0
  -20.5677  -26.2302   23.3614 H   0  0  0  0  0  0
  -21.6645  -26.7421   22.1202 H   0  0  0  0  0  0
  -19.6916  -25.6275   21.1245 H   0  0  0  0  0  0
  -19.6699  -27.3175   20.6738 H   0  0  0  0  0  0
  -17.4200  -26.6663   21.4020 H   0  0  0  0  0  0
  -18.0332  -26.0067   22.9020 H   0  0  0  0  0  0
  -19.7952  -30.7264   24.2247 H   0  0  0  0  0  0
  -17.5030  -31.6268   24.5149 H   0  0  0  0  0  0
  -15.5356  -30.2971   23.7675 H   0  0  0  0  0  0
  -15.8677  -28.0813   22.7069 H   0  0  0  0  0  0
  -24.5918  -30.7051   25.7751 H   0  0  0  0  0  0
  -24.8898  -32.2893   26.4816 H   0  0  0  0  0  0
  -25.8034  -30.8927   27.0216 H   0  0  0  0  0  0
  -26.2954  -29.6710   24.1247 H   0  0  0  0  0  0
  -27.4038  -29.7258   25.4750 H   0  0  0  0  0  0
  -27.8840  -30.4237   23.9470 H   0  0  0  0  0  0
  -27.2650  -33.3638   26.2024 H   0  0  0  0  0  0
  -28.3888  -32.6856   25.0331 H   0  0  0  0  0  0
  -28.0702  -31.8474   26.5438 H   0  0  0  0  0  0
  -28.2583  -38.0097   24.7511 H   0  0  0  0  0  0
  -28.1077  -36.2620   24.6291 H   0  0  0  0  0  0
  -27.2291  -37.1431   25.8868 H   0  0  0  0  0  0
  -20.9429  -29.8763   21.6849 H   0  0  0  0  0  0
  -26.0164  -38.2823   24.1423 H   0  0  0  0  0  0
  -27.4778  -18.4116   20.1338 H   0  0  0  0  0  0
  -26.3518  -21.3356   21.2329 H   0  0  0  0  0  0
  -26.1636  -21.0169   19.5291 H   0  0  0  0  0  0
  -27.1500  -23.1028   18.8973 H   0  0  0  0  0  0
  -26.2539  -23.5354   20.3117 H   0  0  0  0  0  0
  -31.6291  -22.8429   20.6109 H   0  0  0  0  0  0
  -30.9823  -22.5663   22.2391 H   0  0  0  0  0  0
  -30.9152  -24.1357   21.4737 H   0  0  0  0  0  0
  -31.3020  -18.2869   18.3084 H   0  0  0  0  0  0
  -29.8969  -17.2957   17.9681 H   0  0  0  0  0  0
  -31.4444  -16.5476   18.3390 H   0  0  0  0  0  0
  -27.4574  -24.4138   22.8951 H   0  0  0  0  0  0
  -26.2941  -25.1920   21.8318 H   0  0  0  0  0  0
  -27.4638  -26.1595   22.7184 H   0  0  0  0  0  0
  -32.0235  -20.6124   21.4449 H   0  0  0  0  0  0
  -32.0112  -20.9244   19.6868 H   0  0  0  0  0  0
  -32.2414  -19.3075   20.2921 H   0  0  0  0  0  0
  -31.3122  -17.4544   20.6731 H   0  0  0  0  0  0
  -29.2774  -25.2963   21.5248 H   0  0  0  0  0  0
  -28.8892  -15.9048   20.6389 H   0  0  0  0  0  0
  1 25  1  0  0  0
  1 30  2  0  0  0
  1 86  1  0  0  0
  2  3  1  0  0  0
  2 25  1  0  0  0
  2 87  1  0  0  0
  2 88  1  0  0  0
  3  4  1  0  0  0
  3 89  1  0  0  0
  3 90  1  0  0  0
  4  5  1  0  0  0
  4 91  1  0  0  0
  4 92  1  0  0  0
  5  6  1  0  0  0
  5 26  1  0  0  0
  5 93  1  0  0  0
  6 25  1  0  0  0
  6 94  1  0  0  0
  6 95  1  0  0  0
  7  8  2  0  0  0
  7 26  1  0  0  0
  7 29  1  0  0  0
  8  9  1  0  0  0
  8 22  1  0  0  0
  9 10  1  0  0  0
  9 27  2  0  0  0
 10 11  2  0  0  0
 10 15  1  0  0  0
 11 12  1  0  0  0
 11 96  1  0  0  0
 12 13  2  0  0  0
 12 97  1  0  0  0
 13 14  1  0  0  0
 13 31  1  0  0  0
 14 15  2  0  0  0
 14 98  1  0  0  0
 15 99  1  0  0  0
 16 17  2  0  0  0
 16 21  1  0  0  0
 16 31  1  0  0  0
 17 18  1  0  0  0
 17100  1  0  0  0
 18 19  2  0  0  0
 18101  1  0  0  0
 19 20  1  0  0  0
 19 24  1  0  0  0
 20 21  2  0  0  0
 20102  1  0  0  0
 21 23  1  0  0  0
 22 28  1  0  0  0
 22 32  2  0  0  0
 26 27  1  0  0  0
 28103  1  0  0  0
 28104  1  0  0  0
 29105  1  0  0  0
 29106  1  0  0  0
 33 34  1  0  0  0
 33 66  1  0  0  0
 33 70  2  0  0  0
 34 36  1  0  0  0
 34 59  1  0  0  0
 34107  1  0  0  0
 35 44  2  0  0  0
 35 45  1  0  0  0
 35 68  1  0  0  0
 36 56  1  0  0  0
 36108  1  0  0  0
 37 39  1  0  0  0
 37 47  1  0  0  0
 37 66  1  0  0  0
 37109  1  0  0  0
 38 43  2  0  0  0
 38 46  1  0  0  0
 38 47  1  0  0  0
 39 64  1  0  0  0
 39 67  2  0  0  0
 40 52  1  0  0  0
 40 53  2  0  0  0
 40 58  1  0  0  0
 41110  1  0  0  0
 41111  1  0  0  0
 41112  1  0  0  0
 41 48  1  0  0  0
 42 43  1  0  0  0
 42 66  1  0  0  0
 42113  1  0  0  0
 42114  1  0  0  0
 43 44  1  0  0  0
 44115  1  0  0  0
 45 46  2  0  0  0
 45116  1  0  0  0
 46117  1  0  0  0
 47118  1  0  0  0
 47119  1  0  0  0
 48 56  1  0  0  0
 48 65  1  0  0  0
 48120  1  0  0  0
 49 50  1  0  0  0
 49 53  1  0  0  0
 49 64  1  0  0  0
 49121  1  0  0  0
 50 51  1  0  0  0
 50122  1  0  0  0
 50123  1  0  0  0
 51 52  1  0  0  0
 51124  1  0  0  0
 51125  1  0  0  0
 52126  1  0  0  0
 52127  1  0  0  0
 53 54  1  0  0  0
 54 55  2  0  0  0
 54128  1  0  0  0
 55 57  1  0  0  0
 55129  1  0  0  0
 56 69  2  0  0  0
 57 58  2  0  0  0
 57130  1  0  0  0
 58131  1  0  0  0
 59 60  1  0  0  0
 59 61  1  0  0  0
 59 62  1  0  0  0
 60132  1  0  0  0
 60133  1  0  0  0
 60134  1  0  0  0
 61135  1  0  0  0
 61136  1  0  0  0
 61137  1  0  0  0
 62138  1  0  0  0
 62139  1  0  0  0
 62140  1  0  0  0
 63 65  1  0  0  0
 63141  1  0  0  0
 63142  1  0  0  0
 63143  1  0  0  0
 64144  1  0  0  0
 65145  1  0  0  0
 68 84  1  0  0  0
 71 72  1  0  0  0
 71 74  2  0  0  0
 71146  1  0  0  0
 72 73  2  0  0  0
 72 77  1  0  0  0
 73 75  1  0  0  0
 73 85  1  0  0  0
 74 83  1  0  0  0
 74 85  1  0  0  0
 75 76  2  0  0  0
 75 79  1  0  0  0
 76 78  1  0  0  0
 76 84  1  0  0  0
 77 78  1  0  0  0
 77147  1  0  0  0
 77148  1  0  0  0
 78149  1  0  0  0
 78150  1  0  0  0
 79151  1  0  0  0
 79152  1  0  0  0
 79153  1  0  0  0
 80154  1  0  0  0
 80155  1  0  0  0
 80156  1  0  0  0
 80 83  1  0  0  0
 81157  1  0  0  0
 81158  1  0  0  0
 81159  1  0  0  0
 81 84  1  0  0  0
 82 85  1  0  0  0
 82160  1  0  0  0
 82161  1  0  0  0
 82162  1  0  0  0
 83 86  1  0  0  0
 83163  1  0  0  0
 84164  1  0  0  0
 86165  1  0  0  0
M  ISO  4   1 100  68 101  84 101  86 100
M  END
> <chiral flag>
0

> <version>
0

> <s_m_source_file>
/data/baiqing/PycharmProjects/Reinvent-master-3.2/result/LINK_invent/BTK/process_docking_weight1_custom_sum_contain_oxygen_bond_distance_aromatic_linkinvent_7_9_3/rearranged_h_0167.sdf

> <i_m_source_file_index>
58

> <r_mmod_Potential_Energy-OPLS-2005>
241.370178222656

> <r_mmod_Stretch_Energy-OPLS-2005>
159.282363891602

> <r_mmod_Bend_Energy-OPLS-2005>
231.747573852539

> <r_mmod_Torsional_Energy-OPLS-2005>
240.796539306641

> <r_mmod_Improper_Torsional_Energy-OPLS-2005>
7.44204187393188

> <r_mmod_Van_der_Waal_Energy-OPLS-2005>
132.662399291992

> <r_mmod_Electrostatic_Energy-OPLS-2005>
-438.548675537109

> <r_mmod_Solvation_Energy-OPLS-2005>
-199.217437744141

> <b_mmod_Minimization_Converged-OPLS-2005>
0

> <r_mmod_RMS_Derivative-OPLS-2005>
0.9148069024086

$$$$
58
                    3D
 Structure written by MMmdl.
162171  0  0  1  0            999 V2000
  -30.5498  -15.1108   20.3366 C   0  0  0  0  0  0
  -30.4374  -12.7107   19.4753 C   0  0  0  0  0  0
  -29.5114  -12.5365   18.2506 C   0  0  0  0  0  0
  -28.0643  -12.2717   18.6975 C   0  0  0  0  0  0
  -27.6114  -13.2492   19.8068 C   0  0  2  0  0  0
  -28.6653  -13.4427   20.9235 C   0  0  0  0  0  0
  -25.2389  -13.8198   20.5722 C   0  0  0  0  0  0
  -24.1734  -13.0417   20.9232 C   0  0  0  0  0  0
  -24.6390  -11.6909   20.8774 C   0  0  0  0  0  0
  -23.9090  -10.4293   21.0421 C   0  0  0  0  0  0
  -24.3636   -9.4215   21.9202 C   0  0  0  0  0  0
  -23.6314   -8.2251   22.0771 C   0  0  0  0  0  0
  -22.4293   -8.0291   21.3549 C   0  0  0  0  0  0
  -21.9927   -9.0266   20.4639 C   0  0  0  0  0  0
  -22.7254  -10.2149   20.3057 C   0  0  0  0  0  0
  -21.6865   -6.0740   22.5283 C   0  0  0  0  0  0
  -21.4018   -6.5655   23.8213 C   0  0  0  0  0  0
  -21.3649   -5.6809   24.9171 C   0  0  0  0  0  0
  -21.6040   -4.3068   24.7228 C   0  0  0  0  0  0
  -21.8827   -3.8159   23.4345 C   0  0  0  0  0  0
  -21.9187   -4.6978   22.3405 C   0  0  0  0  0  0
  -22.7759  -13.5177   21.1895 C   0  0  0  0  0  0
  -22.1650   -4.2153   21.0980 F   0  0  0  0  0  0
  -21.5619   -3.4552   25.7734 F   0  0  0  0  0  0
  -29.9159  -13.8602   20.2769 N   0  0  0  0  0  0
  -26.2834  -12.9453   20.3239 N   0  0  0  0  0  0
  -25.9327  -11.6586   20.5777 N   0  0  0  0  0  0
  -22.0445  -12.8156   22.0443 N   0  0  0  0  0  0
  -25.3935  -15.1941   20.4150 N   0  0  0  0  0  0
  -31.7838  -15.0726   20.2411 O   0  0  0  0  0  0
  -21.6668   -6.8889   21.4238 O   0  0  0  0  0  0
  -22.3441  -14.5499   20.6749 O   0  0  0  0  0  0
  -24.6403  -31.8449   23.1972 C   0  0  0  0  0  0
  -25.9176  -32.4750   23.8364 C   0  0  1  0  0  0
  -27.2349  -27.1273   20.1363 C   0  0  0  0  0  0
  -25.5937  -33.8552   24.2296 N   0  0  0  0  0  0
  -23.4470  -30.4673   21.5407 C   0  0  2  0  0  0
  -24.8975  -28.8872   20.1192 C   0  0  0  0  0  0
  -22.7571  -29.4551   22.4880 C   0  0  0  0  0  0
  -18.0277  -28.1413   22.8444 C   0  0  0  0  0  0
  -24.1472  -36.7269   23.2658 C   0  0  0  0  0  0
  -26.0064  -30.7167   21.3920 C   0  0  0  0  0  0
  -26.0781  -29.3249   20.7314 C   0  0  0  0  0  0
  -27.2375  -28.4588   20.7274 C   0  0  0  0  0  0
  -26.0179  -26.7919   19.4948 C   0  0  0  0  0  0
  -24.8779  -27.6311   19.4955 C   0  0  0  0  0  0
  -23.6806  -29.8014   20.1575 C   0  0  0  0  0  0
  -25.4099  -36.3105   24.0370 C   0  0  1  0  0  0
  -20.5895  -28.3739   23.1250 C   0  0  2  0  0  0
  -20.6779  -26.9449   22.5409 C   0  0  0  0  0  0
  -19.5766  -26.6388   21.5216 C   0  0  0  0  0  0
  -18.1928  -26.7950   22.1588 C   0  0  0  0  0  0
  -19.1531  -28.8889   23.2836 C   0  0  0  0  0  0
  -18.9450  -30.1472   23.8896 C   0  0  0  0  0  0
  -17.6454  -30.6611   24.0556 C   0  0  0  0  0  0
  -25.9037  -34.9454   23.5152 C   0  0  0  0  0  0
  -16.5348  -29.9110   23.6328 C   0  0  0  0  0  0
  -16.7261  -28.6520   23.0349 C   0  0  0  0  0  0
  -26.4499  -31.6610   25.0788 C   0  0  0  0  0  0
  -25.3692  -31.3704   26.1480 C   0  0  0  0  0  0
  -27.0374  -30.3051   24.6311 C   0  0  0  0  0  0
  -27.6093  -32.4343   25.7499 C   0  0  0  0  0  0
  -27.5571  -37.1805   24.8463 C   0  0  0  0  0  0
  -21.4257  -29.3076   22.3662 N   0  0  0  0  0  0
  -26.4275  -37.3815   23.9420 N   0  0  0  0  0  0
  -24.7199  -31.0293   22.1024 N   0  0  0  0  0  0
  -23.4208  -28.8064   23.3010 O   0  0  0  0  0  0
  -28.3075  -26.1547   20.2397 O   0  0  0  0  0  0
  -26.5605  -34.8932   22.4717 O   0  0  0  0  0  0
  -23.5523  -32.1326   23.7206 O   0  0  0  0  0  0
  -28.6482  -23.2408   20.3830 C   0  0  0  0  0  0
  -29.0931  -21.9420   19.7732 C   0  0  0  0  0  0
  -28.2995  -23.0879   21.7494 C   0  0  0  0  0  0
  -29.1500  -20.6335   20.4897 C   0  0  0  0  0  0
  -28.3126  -21.7994   22.3629 C   0  0  0  0  0  0
  -28.2144  -18.2237   19.6174 C   0  0  0  0  0  0
  -28.6005  -16.6884   19.6117 C   0  0  0  0  0  0
  -30.3186  -17.8652   20.6502 C   0  0  0  0  0  0
  -29.4510  -19.0805   19.9255 C   0  0  2  0  0  0
  -29.5023  -21.9136   18.3061 C   0  0  0  0  0  0
  -27.8609  -24.3179   22.5424 C   0  0  0  0  0  0
  -27.7054  -21.5799   23.7420 C   0  0  0  0  0  0
  -28.3750  -24.7086   19.6194 C   0  0  0  0  0  0
  -28.7308  -20.6541   21.7699 N   0  0  0  0  0  0
  -29.8600  -16.3972   20.3327 N   0  0  0  0  0  0
  -31.4580  -12.8857   19.1314 H   0  0  0  0  0  0
  -30.4793  -11.8054   20.0796 H   0  0  0  0  0  0
  -29.8644  -11.7265   17.6116 H   0  0  0  0  0  0
  -29.5425  -13.4410   17.6422 H   0  0  0  0  0  0
  -28.0064  -11.2470   19.0651 H   0  0  0  0  0  0
  -27.3884  -12.3327   17.8431 H   0  0  0  0  0  0
  -27.5125  -14.1899   19.2741 H   0  0  0  0  0  0
  -28.8090  -12.5508   21.5318 H   0  0  0  0  0  0
  -28.3436  -14.2390   21.5988 H   0  0  0  0  0  0
  -25.2782   -9.5702   22.4780 H   0  0  0  0  0  0
  -24.0021   -7.4655   22.7501 H   0  0  0  0  0  0
  -21.0857   -8.8775   19.8947 H   0  0  0  0  0  0
  -22.3713  -10.9693   19.6170 H   0  0  0  0  0  0
  -21.2041   -7.6172   23.9706 H   0  0  0  0  0  0
  -21.1440   -6.0547   25.9069 H   0  0  0  0  0  0
  -22.0612   -2.7622   23.2846 H   0  0  0  0  0  0
  -22.4064  -11.9739   22.4690 H   0  0  0  0  0  0
  -21.1109  -13.1191   22.2804 H   0  0  0  0  0  0
  -24.6203  -15.8402   20.5317 H   0  0  0  0  0  0
  -26.2453  -15.6453   20.1132 H   0  0  0  0  0  0
  -26.7221  -32.5344   23.1076 H   0  0  0  0  0  0
  -25.0185  -33.9683   25.0523 H   0  0  0  0  0  0
  -22.7499  -31.2956   21.3897 H   0  0  0  0  0  0
  -23.3799  -35.9534   23.3299 H   0  0  0  0  0  0
  -24.3582  -36.8893   22.2076 H   0  0  0  0  0  0
  -23.7133  -37.6436   23.6665 H   0  0  0  0  0  0
  -26.1556  -31.4693   20.6153 H   0  0  0  0  0  0
  -26.8823  -30.7768   22.0282 H   0  0  0  0  0  0
  -28.1322  -28.7898   21.2385 H   0  0  0  0  0  0
  -25.8992  -25.8352   19.0178 H   0  0  0  0  0  0
  -23.9655  -27.2958   19.0203 H   0  0  0  0  0  0
  -23.8413  -30.5911   19.4218 H   0  0  0  0  0  0
  -22.7918  -29.2654   19.8172 H   0  0  0  0  0  0
  -25.1287  -36.2000   25.0874 H   0  0  0  0  0  0
  -20.9930  -28.3306   24.1392 H   0  0  0  0  0  0
  -20.5689  -26.2353   23.3623 H   0  0  0  0  0  0
  -21.6650  -26.7481   22.1208 H   0  0  0  0  0  0
  -19.6945  -25.6285   21.1281 H   0  0  0  0  0  0
  -19.6728  -27.3175   20.6733 H   0  0  0  0  0  0
  -17.4220  -26.6705   21.3965 H   0  0  0  0  0  0
  -18.0290  -26.0096   22.8980 H   0  0  0  0  0  0
  -19.7930  -30.7256   24.2304 H   0  0  0  0  0  0
  -17.5017  -31.6287   24.5164 H   0  0  0  0  0  0
  -15.5359  -30.3021   23.7675 H   0  0  0  0  0  0
  -15.8640  -28.0849   22.7105 H   0  0  0  0  0  0
  -24.5986  -30.6929   25.7777 H   0  0  0  0  0  0
  -24.8712  -32.2799   26.4856 H   0  0  0  0  0  0
  -25.7986  -30.8946   27.0315 H   0  0  0  0  0  0
  -26.2982  -29.6779   24.1325 H   0  0  0  0  0  0
  -27.4053  -29.7340   25.4848 H   0  0  0  0  0  0
  -27.8854  -30.4378   23.9595 H   0  0  0  0  0  0
  -27.2836  -33.3744   26.1959 H   0  0  0  0  0  0
  -28.3924  -32.6726   25.0289 H   0  0  0  0  0  0
  -28.0746  -31.8530   26.5474 H   0  0  0  0  0  0
  -28.2621  -38.0085   24.7574 H   0  0  0  0  0  0
  -28.1047  -36.2636   24.6236 H   0  0  0  0  0  0
  -27.2293  -37.1391   25.8867 H   0  0  0  0  0  0
  -20.9495  -29.8820   21.6853 H   0  0  0  0  0  0
  -26.0179  -38.2895   24.1453 H   0  0  0  0  0  0
  -27.4596  -18.4086   20.3847 H   0  0  0  0  0  0
  -27.7694  -18.5304   18.6674 H   0  0  0  0  0  0
  -28.6974  -16.3431   18.5818 H   0  0  0  0  0  0
  -27.7956  -16.1312   20.0697 H   0  0  0  0  0  0
  -30.2183  -17.9854   21.7294 H   0  0  0  0  0  0
  -31.3804  -17.9897   20.4272 H   0  0  0  0  0  0
  -29.9370  -19.2298   18.9609 H   0  0  0  0  0  0
  -29.3373  -22.8563   17.7843 H   0  0  0  0  0  0
  -28.9558  -21.1348   17.7718 H   0  0  0  0  0  0
  -30.5655  -21.6824   18.2209 H   0  0  0  0  0  0
  -27.7109  -24.1258   23.6037 H   0  0  0  0  0  0
  -26.9207  -24.7172   22.1609 H   0  0  0  0  0  0
  -28.6255  -25.0937   22.4718 H   0  0  0  0  0  0
  -28.2059  -22.1635   24.5127 H   0  0  0  0  0  0
  -27.7617  -20.5381   24.0598 H   0  0  0  0  0  0
  -26.6520  -21.8701   23.7202 H   0  0  0  0  0  0
  -27.5258  -24.5359   18.9633 H   0  0  0  0  0  0
  -29.1979  -24.7966   18.9127 H   0  0  0  0  0  0
  1 25  1  0  0  0
  1 30  2  0  0  0
  1 85  1  0  0  0
  2  3  1  0  0  0
  2 25  1  0  0  0
  2 86  1  0  0  0
  2 87  1  0  0  0
  3  4  1  0  0  0
  3 88  1  0  0  0
  3 89  1  0  0  0
  4  5  1  0  0  0
  4 90  1  0  0  0
  4 91  1  0  0  0
  5  6  1  0  0  0
  5 26  1  0  0  0
  5 92  1  0  0  0
  6 25  1  0  0  0
  6 93  1  0  0  0
  6 94  1  0  0  0
  7  8  2  0  0  0
  7 26  1  0  0  0
  7 29  1  0  0  0
  8  9  1  0  0  0
  8 22  1  0  0  0
  9 10  1  0  0  0
  9 27  2  0  0  0
 10 11  2  0  0  0
 10 15  1  0  0  0
 11 12  1  0  0  0
 11 95  1  0  0  0
 12 13  2  0  0  0
 12 96  1  0  0  0
 13 14  1  0  0  0
 13 31  1  0  0  0
 14 15  2  0  0  0
 14 97  1  0  0  0
 15 98  1  0  0  0
 16 17  2  0  0  0
 16 21  1  0  0  0
 16 31  1  0  0  0
 17 18  1  0  0  0
 17 99  1  0  0  0
 18 19  2  0  0  0
 18100  1  0  0  0
 19 20  1  0  0  0
 19 24  1  0  0  0
 20 21  2  0  0  0
 20101  1  0  0  0
 21 23  1  0  0  0
 22 28  1  0  0  0
 22 32  2  0  0  0
 26 27  1  0  0  0
 28102  1  0  0  0
 28103  1  0  0  0
 29104  1  0  0  0
 29105  1  0  0  0
 33 34  1  0  0  0
 33 66  1  0  0  0
 33 70  2  0  0  0
 34 36  1  0  0  0
 34 59  1  0  0  0
 34106  1  0  0  0
 35 44  2  0  0  0
 35 45  1  0  0  0
 35 68  1  0  0  0
 36 56  1  0  0  0
 36107  1  0  0  0
 37 39  1  0  0  0
 37 47  1  0  0  0
 37 66  1  0  0  0
 37108  1  0  0  0
 38 43  2  0  0  0
 38 46  1  0  0  0
 38 47  1  0  0  0
 39 64  1  0  0  0
 39 67  2  0  0  0
 40 52  1  0  0  0
 40 53  2  0  0  0
 40 58  1  0  0  0
 41109  1  0  0  0
 41110  1  0  0  0
 41111  1  0  0  0
 41 48  1  0  0  0
 42 43  1  0  0  0
 42 66  1  0  0  0
 42112  1  0  0  0
 42113  1  0  0  0
 43 44  1  0  0  0
 44114  1  0  0  0
 45 46  2  0  0  0
 45115  1  0  0  0
 46116  1  0  0  0
 47117  1  0  0  0
 47118  1  0  0  0
 48 56  1  0  0  0
 48 65  1  0  0  0
 48119  1  0  0  0
 49 50  1  0  0  0
 49 53  1  0  0  0
 49 64  1  0  0  0
 49120  1  0  0  0
 50 51  1  0  0  0
 50121  1  0  0  0
 50122  1  0  0  0
 51 52  1  0  0  0
 51123  1  0  0  0
 51124  1  0  0  0
 52125  1  0  0  0
 52126  1  0  0  0
 53 54  1  0  0  0
 54 55  2  0  0  0
 54127  1  0  0  0
 55 57  1  0  0  0
 55128  1  0  0  0
 56 69  2  0  0  0
 57 58  2  0  0  0
 57129  1  0  0  0
 58130  1  0  0  0
 59 60  1  0  0  0
 59 61  1  0  0  0
 59 62  1  0  0  0
 60131  1  0  0  0
 60132  1  0  0  0
 60133  1  0  0  0
 61134  1  0  0  0
 61135  1  0  0  0
 61136  1  0  0  0
 62137  1  0  0  0
 62138  1  0  0  0
 62139  1  0  0  0
 63 65  1  0  0  0
 63140  1  0  0  0
 63141  1  0  0  0
 63142  1  0  0  0
 64143  1  0  0  0
 65144  1  0  0  0
 68 83  1  0  0  0
 71 72  2  0  0  0
 71 73  1  0  0  0
 71 83  1  0  0  0
 72 74  1  0  0  0
 72 80  1  0  0  0
 73 75  2  0  0  0
 73 81  1  0  0  0
 74 84  2  0  0  0
 74 79  1  0  0  0
 75 82  1  0  0  0
 75 84  1  0  0  0
 76 77  1  0  0  0
 76 79  1  0  0  0
 76145  1  0  0  0
 76146  1  0  0  0
 77 85  1  0  0  0
 77147  1  0  0  0
 77148  1  0  0  0
 78 79  1  0  0  0
 78 85  1  0  0  0
 78149  1  0  0  0
 78150  1  0  0  0
 79151  1  0  0  0
 80152  1  0  0  0
 80153  1  0  0  0
 80154  1  0  0  0
 81155  1  0  0  0
 81156  1  0  0  0
 81157  1  0  0  0
 82158  1  0  0  0
 82159  1  0  0  0
 82160  1  0  0  0
 83161  1  0  0  0
 83162  1  0  0  0
M  ISO  4   1 100  68 101  83 101  85 100
M  END
> <chiral flag>
0

> <version>
0

> <s_m_source_file>
/data/baiqing/PycharmProjects/Reinvent-master-3.2/result/LINK_invent/BTK/process_docking_weight1_custom_sum_contain_oxygen_bond_distance_aromatic_linkinvent_7_9_3/rearranged_h_0167.sdf

> <i_m_source_file_index>
59

> <r_mmod_Potential_Energy-OPLS-2005>
692.733337402344

> <r_mmod_Stretch_Energy-OPLS-2005>
299.272369384766

> <r_mmod_Bend_Energy-OPLS-2005>
314.232421875

> <r_mmod_Torsional_Energy-OPLS-2005>
330.254028320312

> <r_mmod_Improper_Torsional_Energy-OPLS-2005>
6.14191341400146

> <r_mmod_Van_der_Waal_Energy-OPLS-2005>
129.46809387207

> <r_mmod_Electrostatic_Energy-OPLS-2005>
-438.561309814453

> <r_mmod_Solvation_Energy-OPLS-2005>
-223.294845581055

> <b_mmod_Minimization_Converged-OPLS-2005>
0

> <r_mmod_RMS_Derivative-OPLS-2005>
5.68337726593018

$$$$
59
                    3D
 Structure written by MMmdl.
179189  0  0  1  0            999 V2000
  -30.7603  -14.4178   20.6408 C   0  0  0  0  0  0
  -30.4095  -12.3014   19.4167 C   0  0  0  0  0  0
  -29.4812  -12.5045   18.2026 C   0  0  0  0  0  0
  -28.0096  -12.3262   18.6200 C   0  0  0  0  0  0
  -27.6529  -13.1742   19.8644 C   0  0  2  0  0  0
  -28.6962  -12.9669   20.9909 C   0  0  0  0  0  0
  -25.2589  -13.8069   20.5652 C   0  0  0  0  0  0
  -24.1817  -13.0397   20.9172 C   0  0  0  0  0  0
  -24.6332  -11.6855   20.8751 C   0  0  0  0  0  0
  -23.8997  -10.4268   21.0436 C   0  0  0  0  0  0
  -24.3567   -9.4187   21.9205 C   0  0  0  0  0  0
  -23.6246   -8.2221   22.0761 C   0  0  0  0  0  0
  -22.4235   -8.0270   21.3541 C   0  0  0  0  0  0
  -21.9863   -9.0244   20.4643 C   0  0  0  0  0  0
  -22.7181  -10.2123   20.3069 C   0  0  0  0  0  0
  -21.6845   -6.0714   22.5270 C   0  0  0  0  0  0
  -21.4015   -6.5626   23.8204 C   0  0  0  0  0  0
  -21.3656   -5.6789   24.9169 C   0  0  0  0  0  0
  -21.6043   -4.3046   24.7229 C   0  0  0  0  0  0
  -21.8819   -3.8129   23.4359 C   0  0  0  0  0  0
  -21.9189   -4.6939   22.3402 C   0  0  0  0  0  0
  -22.7858  -13.5235   21.1856 C   0  0  0  0  0  0
  -22.1656   -4.2121   21.0985 F   0  0  0  0  0  0
  -21.5626   -3.4544   25.7745 F   0  0  0  0  0  0
  -30.0301  -13.2805   20.4528 N   0  0  0  0  0  0
  -26.2961  -12.9168   20.3310 N   0  0  0  0  0  0
  -25.9236  -11.6369   20.5762 N   0  0  0  0  0  0
  -22.0485  -12.8239   22.0414 N   0  0  0  0  0  0
  -25.4344  -15.1783   20.4070 N   0  0  0  0  0  0
  -31.8546  -14.5743   20.0865 O   0  0  0  0  0  0
  -21.6614   -6.8855   21.4231 O   0  0  0  0  0  0
  -22.3560  -14.5559   20.6705 O   0  0  0  0  0  0
  -24.6105  -31.8707   23.2126 C   0  0  0  0  0  0
  -25.9017  -32.4832   23.8416 C   0  0  1  0  0  0
  -27.2310  -27.4691   20.0974 C   0  0  0  0  0  0
  -25.5889  -33.8629   24.2353 N   0  0  0  0  0  0
  -23.3963  -30.4957   21.5509 C   0  0  2  0  0  0
  -24.8424  -28.9679   20.1150 C   0  0  0  0  0  0
  -22.7381  -29.4676   22.4988 C   0  0  0  0  0  0
  -18.0261  -28.1357   22.8495 C   0  0  0  0  0  0
  -24.1483  -36.7315   23.2637 C   0  0  0  0  0  0
  -25.9216  -30.8505   21.3596 C   0  0  0  0  0  0
  -26.0004  -29.4886   20.7056 C   0  0  0  0  0  0
  -27.2001  -28.7477   20.6889 C   0  0  0  0  0  0
  -26.0565  -26.9546   19.5027 C   0  0  0  0  0  0
  -24.8638  -27.6997   19.5103 C   0  0  0  0  0  0
  -23.6030  -29.8296   20.1645 C   0  0  0  0  0  0
  -25.4098  -36.3112   24.0344 C   0  0  1  0  0  0
  -20.5849  -28.3646   23.1314 C   0  0  2  0  0  0
  -20.6740  -26.9385   22.5409 C   0  0  0  0  0  0
  -19.5725  -26.6377   21.5194 C   0  0  0  0  0  0
  -18.1907  -26.7905   22.1619 C   0  0  0  0  0  0
  -19.1511  -28.8817   23.2905 C   0  0  0  0  0  0
  -18.9446  -30.1417   23.8924 C   0  0  0  0  0  0
  -17.6454  -30.6574   24.0559 C   0  0  0  0  0  0
  -25.9024  -34.9477   23.5144 C   0  0  0  0  0  0
  -16.5343  -29.9082   23.6314 C   0  0  0  0  0  0
  -16.7252  -28.6488   23.0354 C   0  0  0  0  0  0
  -26.4471  -31.6589   25.0722 C   0  0  0  0  0  0
  -25.3765  -31.3684   26.1490 C   0  0  0  0  0  0
  -27.0295  -30.3034   24.6067 C   0  0  0  0  0  0
  -27.6060  -32.4298   25.7475 C   0  0  0  0  0  0
  -27.5577  -37.1803   24.8465 C   0  0  0  0  0  0
  -21.4111  -29.3030   22.3731 N   0  0  0  0  0  0
  -26.4284  -37.3792   23.9416 N   0  0  0  0  0  0
  -24.6606  -31.0854   22.1001 N   0  0  0  0  0  0
  -23.4170  -28.8205   23.3007 O   0  0  0  0  0  0
  -28.4073  -26.7602   20.1109 O   0  0  0  0  0  0
  -26.5578  -34.8921   22.4701 O   0  0  0  0  0  0
  -23.5311  -32.1437   23.7552 O   0  0  0  0  0  0
  -29.8131  -19.0365   17.9862 C   0  0  0  0  0  0
  -30.0097  -20.3915   18.2683 C   0  0  0  0  0  0
  -29.3987  -18.5074   20.3539 C   0  0  0  0  0  0
  -29.4676  -18.1033   18.9790 C   0  0  0  0  0  0
  -29.7780  -20.8497   19.5861 C   0  0  0  0  0  0
  -29.5018  -19.9141   20.6266 C   0  0  0  0  0  0
  -31.4006  -20.8438   16.0805 C   0  0  0  0  0  0
  -31.7974  -21.9076   17.0710 C   0  0  0  0  0  0
  -30.4239  -17.5498   22.5091 C   0  0  0  0  0  0
  -31.2317  -16.3079   22.1348 C   0  0  0  0  0  0
  -28.9992  -16.0369   21.4187 C   0  0  0  0  0  0
  -30.4125  -21.2993   17.1347 C   0  0  0  0  0  0
  -29.2061  -17.5523   21.5750 C   0  0  2  0  0  0
  -29.1551  -16.7217   18.4305 C   0  0  0  0  0  0
  -29.3110  -20.4792   22.0418 C   0  0  0  0  0  0
  -27.3762  -22.2776   19.0601 C   0  0  0  0  0  0
  -29.7874  -22.3647   19.8554 C   0  0  0  0  0  0
  -28.5112  -24.4535   19.3558 C   0  0  0  0  0  0
  -28.3114  -25.4033   20.5448 C   0  0  0  0  0  0
  -30.3027  -15.3596   21.5086 N   0  0  0  0  0  0
  -28.4440  -23.0248   19.7776 N   0  3  1  0  0  0
  -31.4538  -12.3836   19.1105 H   0  0  0  0  0  0
  -30.3015  -11.2885   19.8070 H   0  0  0  0  0  0
  -29.7338  -11.7945   17.4132 H   0  0  0  0  0  0
  -29.6277  -13.5003   17.7812 H   0  0  0  0  0  0
  -27.8484  -11.2687   18.8351 H   0  0  0  0  0  0
  -27.3459  -12.5713   17.7905 H   0  0  0  0  0  0
  -27.6760  -14.1963   19.5076 H   0  0  0  0  0  0
  -28.6823  -11.9260   21.3159 H   0  0  0  0  0  0
  -28.4482  -13.5328   21.8867 H   0  0  0  0  0  0
  -25.2715   -9.5656   22.4779 H   0  0  0  0  0  0
  -23.9950   -7.4615   22.7482 H   0  0  0  0  0  0
  -21.0794   -8.8773   19.8956 H   0  0  0  0  0  0
  -22.3652  -10.9673   19.6191 H   0  0  0  0  0  0
  -21.2019   -7.6139   23.9694 H   0  0  0  0  0  0
  -21.1476   -6.0525   25.9068 H   0  0  0  0  0  0
  -22.0597   -2.7589   23.2871 H   0  0  0  0  0  0
  -22.4082  -11.9884   22.4773 H   0  0  0  0  0  0
  -21.1125  -13.1317   22.2657 H   0  0  0  0  0  0
  -24.6695  -15.8339   20.5290 H   0  0  0  0  0  0
  -26.2908  -15.6199   20.1025 H   0  0  0  0  0  0
  -26.7093  -32.5568   23.1192 H   0  0  0  0  0  0
  -25.0060  -33.9801   25.0512 H   0  0  0  0  0  0
  -22.6841  -31.3116   21.4129 H   0  0  0  0  0  0
  -23.3737  -35.9654   23.3305 H   0  0  0  0  0  0
  -24.3593  -36.8917   22.2052 H   0  0  0  0  0  0
  -23.7236  -37.6525   23.6641 H   0  0  0  0  0  0
  -26.0295  -31.6209   20.5952 H   0  0  0  0  0  0
  -26.8109  -30.9025   21.9760 H   0  0  0  0  0  0
  -28.0972  -29.1477   21.1420 H   0  0  0  0  0  0
  -26.0475  -25.9878   19.0256 H   0  0  0  0  0  0
  -23.9729  -27.2938   19.0507 H   0  0  0  0  0  0
  -23.7098  -30.6045   19.4042 H   0  0  0  0  0  0
  -22.7291  -29.2451   19.8697 H   0  0  0  0  0  0
  -25.1265  -36.1985   25.0834 H   0  0  0  0  0  0
  -20.9945  -28.3200   24.1430 H   0  0  0  0  0  0
  -20.5595  -26.2261   23.3592 H   0  0  0  0  0  0
  -21.6616  -26.7398   22.1230 H   0  0  0  0  0  0
  -19.6882  -25.6291   21.1209 H   0  0  0  0  0  0
  -19.6657  -27.3196   20.6728 H   0  0  0  0  0  0
  -17.4164  -26.6639   21.4033 H   0  0  0  0  0  0
  -18.0331  -26.0037   22.9012 H   0  0  0  0  0  0
  -19.7928  -30.7210   24.2317 H   0  0  0  0  0  0
  -17.5018  -31.6260   24.5147 H   0  0  0  0  0  0
  -15.5347  -30.3001   23.7613 H   0  0  0  0  0  0
  -15.8647  -28.0809   22.7076 H   0  0  0  0  0  0
  -24.5937  -30.7019   25.7846 H   0  0  0  0  0  0
  -24.8960  -32.2837   26.4954 H   0  0  0  0  0  0
  -25.8153  -30.8857   27.0232 H   0  0  0  0  0  0
  -26.2825  -29.6793   24.1145 H   0  0  0  0  0  0
  -27.4101  -29.7264   25.4506 H   0  0  0  0  0  0
  -27.8643  -30.4352   23.9179 H   0  0  0  0  0  0
  -27.2681  -33.3575   26.2103 H   0  0  0  0  0  0
  -28.3841  -32.6892   25.0285 H   0  0  0  0  0  0
  -28.0756  -31.8391   26.5349 H   0  0  0  0  0  0
  -28.2592  -38.0103   24.7517 H   0  0  0  0  0  0
  -28.1078  -36.2637   24.6276 H   0  0  0  0  0  0
  -27.2309  -37.1435   25.8873 H   0  0  0  0  0  0
  -20.9243  -29.8808   21.7021 H   0  0  0  0  0  0
  -26.0179  -38.2868   24.1432 H   0  0  0  0  0  0
  -29.9133  -18.7100   16.9603 H   0  0  0  0  0  0
  -31.8745  -19.8704   16.1925 H   0  0  0  0  0  0
  -31.2260  -21.1622   15.0548 H   0  0  0  0  0  0
  -31.8973  -22.9197   16.6824 H   0  0  0  0  0  0
  -32.5132  -21.6304   17.8434 H   0  0  0  0  0  0
  -31.0298  -18.4558   22.4709 H   0  0  0  0  0  0
  -30.0788  -17.4431   23.5382 H   0  0  0  0  0  0
  -31.7127  -15.8627   23.0068 H   0  0  0  0  0  0
  -32.0230  -16.6047   21.4435 H   0  0  0  0  0  0
  -28.3629  -15.7758   20.5965 H   0  0  0  0  0  0
  -28.4468  -15.7033   22.2987 H   0  0  0  0  0  0
  -29.5782  -21.9104   16.7967 H   0  0  0  0  0  0
  -28.3153  -17.9097   22.0901 H   0  0  0  0  0  0
  -29.2385  -16.6887   17.3435 H   0  0  0  0  0  0
  -28.1243  -16.4388   18.6369 H   0  0  0  0  0  0
  -29.8518  -15.9796   18.7908 H   0  0  0  0  0  0
  -28.9745  -19.7785   22.7984 H   0  0  0  0  0  0
  -28.5655  -21.2720   22.0406 H   0  0  0  0  0  0
  -30.2514  -20.8935   22.4055 H   0  0  0  0  0  0
  -27.2150  -21.2834   19.4774 H   0  0  0  0  0  0
  -27.5965  -22.1754   17.9984 H   0  0  0  0  0  0
  -26.4229  -22.7991   19.1535 H   0  0  0  0  0  0
  -30.4827  -22.8366   19.1659 H   0  0  0  0  0  0
  -30.2234  -22.5849   20.8296 H   0  0  0  0  0  0
  -29.4554  -24.6888   18.8650 H   0  0  0  0  0  0
  -27.7543  -24.6595   18.5995 H   0  0  0  0  0  0
  -27.3657  -25.1986   21.0512 H   0  0  0  0  0  0
  -29.0893  -25.2346   21.2899 H   0  0  0  0  0  0
  -28.1140  -23.0344   20.7313 H   0  0  0  0  0  0
  1 25  1  0  0  0
  1 30  2  0  0  0
  1 90  1  0  0  0
  2  3  1  0  0  0
  2 25  1  0  0  0
  2 92  1  0  0  0
  2 93  1  0  0  0
  3  4  1  0  0  0
  3 94  1  0  0  0
  3 95  1  0  0  0
  4  5  1  0  0  0
  4 96  1  0  0  0
  4 97  1  0  0  0
  5  6  1  0  0  0
  5 26  1  0  0  0
  5 98  1  0  0  0
  6 25  1  0  0  0
  6 99  1  0  0  0
  6100  1  0  0  0
  7  8  2  0  0  0
  7 26  1  0  0  0
  7 29  1  0  0  0
  8  9  1  0  0  0
  8 22  1  0  0  0
  9 10  1  0  0  0
  9 27  2  0  0  0
 10 11  2  0  0  0
 10 15  1  0  0  0
 11 12  1  0  0  0
 11101  1  0  0  0
 12 13  2  0  0  0
 12102  1  0  0  0
 13 14  1  0  0  0
 13 31  1  0  0  0
 14 15  2  0  0  0
 14103  1  0  0  0
 15104  1  0  0  0
 16 17  2  0  0  0
 16 21  1  0  0  0
 16 31  1  0  0  0
 17 18  1  0  0  0
 17105  1  0  0  0
 18 19  2  0  0  0
 18106  1  0  0  0
 19 20  1  0  0  0
 19 24  1  0  0  0
 20 21  2  0  0  0
 20107  1  0  0  0
 21 23  1  0  0  0
 22 28  1  0  0  0
 22 32  2  0  0  0
 26 27  1  0  0  0
 28108  1  0  0  0
 28109  1  0  0  0
 29110  1  0  0  0
 29111  1  0  0  0
 33 34  1  0  0  0
 33 66  1  0  0  0
 33 70  2  0  0  0
 34 36  1  0  0  0
 34 59  1  0  0  0
 34112  1  0  0  0
 35 44  2  0  0  0
 35 45  1  0  0  0
 35 68  1  0  0  0
 36 56  1  0  0  0
 36113  1  0  0  0
 37 39  1  0  0  0
 37 47  1  0  0  0
 37 66  1  0  0  0
 37114  1  0  0  0
 38 43  2  0  0  0
 38 46  1  0  0  0
 38 47  1  0  0  0
 39 64  1  0  0  0
 39 67  2  0  0  0
 40 52  1  0  0  0
 40 53  2  0  0  0
 40 58  1  0  0  0
 41115  1  0  0  0
 41116  1  0  0  0
 41117  1  0  0  0
 41 48  1  0  0  0
 42 43  1  0  0  0
 42 66  1  0  0  0
 42118  1  0  0  0
 42119  1  0  0  0
 43 44  1  0  0  0
 44120  1  0  0  0
 45 46  2  0  0  0
 45121  1  0  0  0
 46122  1  0  0  0
 47123  1  0  0  0
 47124  1  0  0  0
 48 56  1  0  0  0
 48 65  1  0  0  0
 48125  1  0  0  0
 49 50  1  0  0  0
 49 53  1  0  0  0
 49 64  1  0  0  0
 49126  1  0  0  0
 50 51  1  0  0  0
 50127  1  0  0  0
 50128  1  0  0  0
 51 52  1  0  0  0
 51129  1  0  0  0
 51130  1  0  0  0
 52131  1  0  0  0
 52132  1  0  0  0
 53 54  1  0  0  0
 54 55  2  0  0  0
 54133  1  0  0  0
 55 57  1  0  0  0
 55134  1  0  0  0
 56 69  2  0  0  0
 57 58  2  0  0  0
 57135  1  0  0  0
 58136  1  0  0  0
 59 60  1  0  0  0
 59 61  1  0  0  0
 59 62  1  0  0  0
 60137  1  0  0  0
 60138  1  0  0  0
 60139  1  0  0  0
 61140  1  0  0  0
 61141  1  0  0  0
 61142  1  0  0  0
 62143  1  0  0  0
 62144  1  0  0  0
 62145  1  0  0  0
 63 65  1  0  0  0
 63146  1  0  0  0
 63147  1  0  0  0
 63148  1  0  0  0
 64149  1  0  0  0
 65150  1  0  0  0
 68 89  1  0  0  0
 71 72  2  0  0  0
 71 74  1  0  0  0
 71151  1  0  0  0
 72 75  1  0  0  0
 72 82  1  0  0  0
 73 74  2  0  0  0
 73 76  1  0  0  0
 73 83  1  0  0  0
 74 84  1  0  0  0
 75 76  2  0  0  0
 75 87  1  0  0  0
 76 85  1  0  0  0
 77 78  1  0  0  0
 77 82  1  0  0  0
 77152  1  0  0  0
 77153  1  0  0  0
 78 82  1  0  0  0
 78154  1  0  0  0
 78155  1  0  0  0
 79 80  1  0  0  0
 79 83  1  0  0  0
 79156  1  0  0  0
 79157  1  0  0  0
 80 90  1  0  0  0
 80158  1  0  0  0
 80159  1  0  0  0
 81 83  1  0  0  0
 81 90  1  0  0  0
 81160  1  0  0  0
 81161  1  0  0  0
 82162  1  0  0  0
 83163  1  0  0  0
 84164  1  0  0  0
 84165  1  0  0  0
 84166  1  0  0  0
 85167  1  0  0  0
 85168  1  0  0  0
 85169  1  0  0  0
 86170  1  0  0  0
 86171  1  0  0  0
 86172  1  0  0  0
 86 91  1  0  0  0
 87 91  1  0  0  0
 87173  1  0  0  0
 87174  1  0  0  0
 88 89  1  0  0  0
 88 91  1  0  0  0
 88175  1  0  0  0
 88176  1  0  0  0
 89177  1  0  0  0
 89178  1  0  0  0
 91179  1  0  0  0
M  CHG  1  91   1
M  ISO  4   1 100  68 101  89 101  90 100
M  END
> <chiral flag>
0

> <version>
0

> <s_m_source_file>
/data/baiqing/PycharmProjects/Reinvent-master-3.2/result/LINK_invent/BTK/process_docking_weight1_custom_sum_contain_oxygen_bond_distance_aromatic_linkinvent_7_9_3/rearranged_h_0167.sdf

> <i_m_source_file_index>
60

> <r_mmod_Potential_Energy-OPLS-2005>
158.928527832031

> <r_mmod_Stretch_Energy-OPLS-2005>
47.8542442321777

> <r_mmod_Bend_Energy-OPLS-2005>
163.774795532227

> <r_mmod_Torsional_Energy-OPLS-2005>
376.57080078125

> <r_mmod_Improper_Torsional_Energy-OPLS-2005>
4.6284704208374

> <r_mmod_Van_der_Waal_Energy-OPLS-2005>
182.896896362305

> <r_mmod_Electrostatic_Energy-OPLS-2005>
-215.984970092773

> <r_mmod_Solvation_Energy-OPLS-2005>
-411.705261230469

> <b_mmod_Minimization_Converged-OPLS-2005>
0

> <r_mmod_RMS_Derivative-OPLS-2005>
2.02759408950806

$$$$
60
                    3D
 Structure written by MMmdl.
181190  0  0  1  0            999 V2000
  -30.7709  -14.6053   20.4988 C   0  0  0  0  0  0
  -30.4193  -12.3805   19.4506 C   0  0  0  0  0  0
  -29.4982  -12.4779   18.2199 C   0  0  0  0  0  0
  -28.0309  -12.2689   18.6406 C   0  0  0  0  0  0
  -27.6338  -13.1652   19.8394 C   0  0  2  0  0  0
  -28.7044  -13.1463   20.9706 C   0  0  0  0  0  0
  -25.2525  -13.7921   20.5608 C   0  0  0  0  0  0
  -24.1794  -13.0295   20.9194 C   0  0  0  0  0  0
  -24.6338  -11.6761   20.8813 C   0  0  0  0  0  0
  -23.9006  -10.4206   21.0448 C   0  0  0  0  0  0
  -24.3577   -9.4134   21.9216 C   0  0  0  0  0  0
  -23.6256   -8.2175   22.0761 C   0  0  0  0  0  0
  -22.4242   -8.0229   21.3537 C   0  0  0  0  0  0
  -21.9869   -9.0212   20.4652 C   0  0  0  0  0  0
  -22.7191  -10.2086   20.3076 C   0  0  0  0  0  0
  -21.6830   -6.0705   22.5275 C   0  0  0  0  0  0
  -21.4002   -6.5620   23.8205 C   0  0  0  0  0  0
  -21.3660   -5.6778   24.9173 C   0  0  0  0  0  0
  -21.6049   -4.3038   24.7231 C   0  0  0  0  0  0
  -21.8830   -3.8127   23.4355 C   0  0  0  0  0  0
  -21.9194   -4.6940   22.3405 C   0  0  0  0  0  0
  -22.7846  -13.5190   21.1833 C   0  0  0  0  0  0
  -22.1665   -4.2130   21.0980 F   0  0  0  0  0  0
  -21.5637   -3.4525   25.7742 F   0  0  0  0  0  0
  -30.0221  -13.4548   20.3867 N   0  0  0  0  0  0
  -26.2925  -12.9011   20.3324 N   0  0  0  0  0  0
  -25.9258  -11.6240   20.5873 N   0  0  0  0  0  0
  -22.0485  -12.8249   22.0421 N   0  0  0  0  0  0
  -25.4136  -15.1599   20.3784 N   0  0  0  0  0  0
  -31.9419  -14.6199   20.1157 O   0  0  0  0  0  0
  -21.6605   -6.8829   21.4224 O   0  0  0  0  0  0
  -22.3570  -14.5506   20.6669 O   0  0  0  0  0  0
  -24.6167  -31.8657   23.2089 C   0  0  0  0  0  0
  -25.9051  -32.4809   23.8397 C   0  0  1  0  0  0
  -27.2491  -27.4158   20.0921 C   0  0  0  0  0  0
  -25.5897  -33.8619   24.2305 N   0  0  0  0  0  0
  -23.4072  -30.4897   21.5471 C   0  0  2  0  0  0
  -24.8578  -28.9519   20.1135 C   0  0  0  0  0  0
  -22.7415  -29.4660   22.4952 C   0  0  0  0  0  0
  -18.0280  -28.1380   22.8483 C   0  0  0  0  0  0
  -24.1476  -36.7309   23.2634 C   0  0  0  0  0  0
  -25.9400  -30.8208   21.3734 C   0  0  0  0  0  0
  -26.0174  -29.4573   20.7124 C   0  0  0  0  0  0
  -27.2130  -28.6980   20.6955 C   0  0  0  0  0  0
  -26.0654  -26.9349   19.4795 C   0  0  0  0  0  0
  -24.8778  -27.6917   19.4946 C   0  0  0  0  0  0
  -23.6191  -29.8196   20.1630 C   0  0  0  0  0  0
  -25.4105  -36.3107   24.0325 C   0  0  1  0  0  0
  -20.5866  -28.3681   23.1280 C   0  0  2  0  0  0
  -20.6758  -26.9417   22.5385 C   0  0  0  0  0  0
  -19.5736  -26.6399   21.5179 C   0  0  0  0  0  0
  -18.1923  -26.7922   22.1613 C   0  0  0  0  0  0
  -19.1528  -28.8846   23.2884 C   0  0  0  0  0  0
  -18.9462  -30.1444   23.8907 C   0  0  0  0  0  0
  -17.6468  -30.6588   24.0568 C   0  0  0  0  0  0
  -25.9043  -34.9469   23.5116 C   0  0  0  0  0  0
  -16.5360  -29.9093   23.6330 C   0  0  0  0  0  0
  -16.7270  -28.6508   23.0355 C   0  0  0  0  0  0
  -26.4455  -31.6625   25.0764 C   0  0  0  0  0  0
  -25.3691  -31.3779   26.1500 C   0  0  0  0  0  0
  -27.0309  -30.3050   24.6224 C   0  0  0  0  0  0
  -27.5998  -32.4372   25.7561 C   0  0  0  0  0  0
  -27.5575  -37.1826   24.8454 C   0  0  0  0  0  0
  -21.4144  -29.3058   22.3696 N   0  0  0  0  0  0
  -26.4287  -37.3792   23.9397 N   0  0  0  0  0  0
  -24.6718  -31.0735   22.1012 N   0  0  0  0  0  0
  -23.4176  -28.8190   23.2996 O   0  0  0  0  0  0
  -28.4272  -26.6799   20.1224 O   0  0  0  0  0  0
  -26.5612  -34.8920   22.4684 O   0  0  0  0  0  0
  -23.5360  -32.1438   23.7470 O   0  0  0  0  0  0
  -31.0776  -16.8562   21.5721 C   0  0  0  0  0  0
  -31.1862  -18.2300   20.7937 C   0  0  0  0  0  0
  -30.9368  -22.3341   20.1552 C   0  0  0  0  0  0
  -28.5863  -22.1308   20.5974 C   0  0  0  0  0  0
  -29.3038  -17.5906   19.4809 C   0  0  0  0  0  0
  -30.9620  -21.0534   19.2749 C   0  0  2  0  0  0
  -28.4033  -20.8369   19.7538 C   0  0  1  0  0  0
  -29.7551  -20.0431   19.4715 C   0  0  2  0  0  0
  -29.0120  -16.3878   20.3944 C   0  0  2  0  0  0
  -32.3869  -20.4980   19.0901 C   0  0  0  0  0  0
  -27.9738  -16.7122   21.4901 C   0  0  0  0  0  0
  -25.9116  -20.7799   20.5955 C   0  0  0  0  0  0
  -29.7002  -24.6115   22.0043 C   0  0  0  0  0  0
  -27.2074  -19.9998   20.2959 C   0  0  0  0  0  0
  -28.3455  -25.2518   19.9143 C   0  0  0  0  0  0
  -29.5815  -24.4660   20.4734 C   0  0  2  0  0  0
  -30.2284  -15.7844   20.9626 N   0  0  0  0  0  0
  -29.8879  -18.7239   20.2412 N   0  3  2  0  0  0
  -29.6236  -23.0228   20.0284 N   0  3  1  0  0  0
  -31.4643  -12.4441   19.1411 H   0  0  0  0  0  0
  -30.3166  -11.4036   19.9261 H   0  0  0  0  0  0
  -29.7810  -11.7344   17.4740 H   0  0  0  0  0  0
  -29.6233  -13.4524   17.7440 H   0  0  0  0  0  0
  -27.9051  -11.2177   18.8998 H   0  0  0  0  0  0
  -27.3696  -12.4515   17.7925 H   0  0  0  0  0  0
  -27.5497  -14.1293   19.3752 H   0  0  0  0  0  0
  -28.7380  -12.1609   21.4345 H   0  0  0  0  0  0
  -28.4501  -13.8332   21.7762 H   0  0  0  0  0  0
  -25.2722   -9.5612   22.4792 H   0  0  0  0  0  0
  -23.9957   -7.4569   22.7490 H   0  0  0  0  0  0
  -21.0794   -8.8752   19.8968 H   0  0  0  0  0  0
  -22.3670  -10.9646   19.6195 H   0  0  0  0  0  0
  -21.1980   -7.6126   23.9703 H   0  0  0  0  0  0
  -21.1474   -6.0508   25.9074 H   0  0  0  0  0  0
  -22.0601   -2.7588   23.2871 H   0  0  0  0  0  0
  -22.4062  -11.9912   22.4840 H   0  0  0  0  0  0
  -21.1133  -13.1328   22.2635 H   0  0  0  0  0  0
  -24.6430  -15.8087   20.4939 H   0  0  0  0  0  0
  -26.2638  -15.6002   20.0592 H   0  0  0  0  0  0
  -26.7129  -32.5480   23.1166 H   0  0  0  0  0  0
  -25.0011  -33.9782   25.0423 H   0  0  0  0  0  0
  -22.6995  -31.3088   21.4034 H   0  0  0  0  0  0
  -23.3740  -35.9638   23.3295 H   0  0  0  0  0  0
  -24.3561  -36.8943   22.2050 H   0  0  0  0  0  0
  -23.7237  -37.6514   23.6658 H   0  0  0  0  0  0
  -26.0717  -31.5960   20.6173 H   0  0  0  0  0  0
  -26.8184  -30.8595   22.0059 H   0  0  0  0  0  0
  -28.1075  -29.0868   21.1617 H   0  0  0  0  0  0
  -26.0369  -25.9798   18.9751 H   0  0  0  0  0  0
  -23.9871  -27.3034   19.0199 H   0  0  0  0  0  0
  -23.7281  -30.5933   19.4027 H   0  0  0  0  0  0
  -22.7436  -29.2399   19.8636 H   0  0  0  0  0  0
  -25.1293  -36.1962   25.0821 H   0  0  0  0  0  0
  -20.9966  -28.3248   24.1393 H   0  0  0  0  0  0
  -20.5625  -26.2304   23.3576 H   0  0  0  0  0  0
  -21.6633  -26.7429   22.1195 H   0  0  0  0  0  0
  -19.6898  -25.6308   21.1212 H   0  0  0  0  0  0
  -19.6664  -27.3203   20.6698 H   0  0  0  0  0  0
  -17.4175  -26.6650   21.4041 H   0  0  0  0  0  0
  -18.0367  -26.0059   22.9012 H   0  0  0  0  0  0
  -19.7949  -30.7248   24.2281 H   0  0  0  0  0  0
  -17.5038  -31.6268   24.5172 H   0  0  0  0  0  0
  -15.5363  -30.3010   23.7651 H   0  0  0  0  0  0
  -15.8662  -28.0830   22.7074 H   0  0  0  0  0  0
  -24.5798  -30.7212   25.7829 H   0  0  0  0  0  0
  -24.8963  -32.2968   26.4982 H   0  0  0  0  0  0
  -25.8002  -30.8896   27.0247 H   0  0  0  0  0  0
  -26.2928  -29.6853   24.1126 H   0  0  0  0  0  0
  -27.3868  -29.7266   25.4762 H   0  0  0  0  0  0
  -27.8842  -30.4347   23.9561 H   0  0  0  0  0  0
  -27.2553  -33.3621   26.2203 H   0  0  0  0  0  0
  -28.3795  -32.7040   25.0412 H   0  0  0  0  0  0
  -28.0680  -31.8474   26.5452 H   0  0  0  0  0  0
  -28.2586  -38.0131   24.7510 H   0  0  0  0  0  0
  -28.1084  -36.2668   24.6266 H   0  0  0  0  0  0
  -27.2285  -37.1459   25.8854 H   0  0  0  0  0  0
  -20.9296  -29.8814   21.6945 H   0  0  0  0  0  0
  -26.0169  -38.2868   24.1398 H   0  0  0  0  0  0
  -30.6776  -17.0443   22.5690 H   0  0  0  0  0  0
  -32.0901  -16.4925   21.7599 H   0  0  0  0  0  0
  -31.8814  -18.0792   19.9692 H   0  0  0  0  0  0
  -31.6217  -18.9805   21.4563 H   0  0  0  0  0  0
  -31.7356  -23.0063   19.8374 H   0  0  0  0  0  0
  -31.1498  -22.0886   21.1977 H   0  0  0  0  0  0
  -28.8329  -21.8764   21.6294 H   0  0  0  0  0  0
  -27.6488  -22.6797   20.6382 H   0  0  0  0  0  0
  -28.3875  -17.8657   18.9637 H   0  0  0  0  0  0
  -29.9941  -17.3006   18.6847 H   0  0  0  0  0  0
  -30.7632  -21.4632   18.2819 H   0  0  0  0  0  0
  -28.0739  -21.1900   18.7742 H   0  0  0  0  0  0
  -29.6378  -19.6868   18.4450 H   0  0  0  0  0  0
  -28.5937  -15.7043   19.6836 H   0  0  0  0  0  0
  -32.8606  -20.2240   20.0309 H   0  0  0  0  0  0
  -33.0327  -21.2563   18.6441 H   0  0  0  0  0  0
  -32.4064  -19.6456   18.4115 H   0  0  0  0  0  0
  -28.3395  -17.4482   22.2051 H   0  0  0  0  0  0
  -27.6898  -15.8372   22.0693 H   0  0  0  0  0  0
  -27.0600  -17.1225   21.0600 H   0  0  0  0  0  0
  -25.0750  -20.0973   20.7468 H   0  0  0  0  0  0
  -25.6376  -21.4543   19.7824 H   0  0  0  0  0  0
  -25.9952  -21.3682   21.5097 H   0  0  0  0  0  0
  -29.7338  -25.6618   22.2952 H   0  0  0  0  0  0
  -30.6128  -24.1505   22.3834 H   0  0  0  0  0  0
  -28.8519  -24.1637   22.5237 H   0  0  0  0  0  0
  -27.4929  -19.4853   21.2122 H   0  0  0  0  0  0
  -26.9258  -19.2416   19.5680 H   0  0  0  0  0  0
  -27.4437  -24.8681   20.3911 H   0  0  0  0  0  0
  -28.2435  -25.0693   18.8432 H   0  0  0  0  0  0
  -30.4540  -24.9473   20.0329 H   0  0  0  0  0  0
  -29.2971  -18.8468   21.0489 H   0  0  0  0  0  0
  -29.4491  -23.0771   19.0340 H   0  0  0  0  0  0
  1 25  1  0  0  0
  1 30  2  0  0  0
  1 87  1  0  0  0
  2  3  1  0  0  0
  2 25  1  0  0  0
  2 90  1  0  0  0
  2 91  1  0  0  0
  3  4  1  0  0  0
  3 92  1  0  0  0
  3 93  1  0  0  0
  4  5  1  0  0  0
  4 94  1  0  0  0
  4 95  1  0  0  0
  5  6  1  0  0  0
  5 26  1  0  0  0
  5 96  1  0  0  0
  6 25  1  0  0  0
  6 97  1  0  0  0
  6 98  1  0  0  0
  7  8  2  0  0  0
  7 26  1  0  0  0
  7 29  1  0  0  0
  8  9  1  0  0  0
  8 22  1  0  0  0
  9 10  1  0  0  0
  9 27  2  0  0  0
 10 11  2  0  0  0
 10 15  1  0  0  0
 11 12  1  0  0  0
 11 99  1  0  0  0
 12 13  2  0  0  0
 12100  1  0  0  0
 13 14  1  0  0  0
 13 31  1  0  0  0
 14 15  2  0  0  0
 14101  1  0  0  0
 15102  1  0  0  0
 16 17  2  0  0  0
 16 21  1  0  0  0
 16 31  1  0  0  0
 17 18  1  0  0  0
 17103  1  0  0  0
 18 19  2  0  0  0
 18104  1  0  0  0
 19 20  1  0  0  0
 19 24  1  0  0  0
 20 21  2  0  0  0
 20105  1  0  0  0
 21 23  1  0  0  0
 22 28  1  0  0  0
 22 32  2  0  0  0
 26 27  1  0  0  0
 28106  1  0  0  0
 28107  1  0  0  0
 29108  1  0  0  0
 29109  1  0  0  0
 33 34  1  0  0  0
 33 66  1  0  0  0
 33 70  2  0  0  0
 34 36  1  0  0  0
 34 59  1  0  0  0
 34110  1  0  0  0
 35 44  2  0  0  0
 35 45  1  0  0  0
 35 68  1  0  0  0
 36 56  1  0  0  0
 36111  1  0  0  0
 37 39  1  0  0  0
 37 47  1  0  0  0
 37 66  1  0  0  0
 37112  1  0  0  0
 38 43  2  0  0  0
 38 46  1  0  0  0
 38 47  1  0  0  0
 39 64  1  0  0  0
 39 67  2  0  0  0
 40 52  1  0  0  0
 40 53  2  0  0  0
 40 58  1  0  0  0
 41113  1  0  0  0
 41114  1  0  0  0
 41115  1  0  0  0
 41 48  1  0  0  0
 42 43  1  0  0  0
 42 66  1  0  0  0
 42116  1  0  0  0
 42117  1  0  0  0
 43 44  1  0  0  0
 44118  1  0  0  0
 45 46  2  0  0  0
 45119  1  0  0  0
 46120  1  0  0  0
 47121  1  0  0  0
 47122  1  0  0  0
 48 56  1  0  0  0
 48 65  1  0  0  0
 48123  1  0  0  0
 49 50  1  0  0  0
 49 53  1  0  0  0
 49 64  1  0  0  0
 49124  1  0  0  0
 50 51  1  0  0  0
 50125  1  0  0  0
 50126  1  0  0  0
 51 52  1  0  0  0
 51127  1  0  0  0
 51128  1  0  0  0
 52129  1  0  0  0
 52130  1  0  0  0
 53 54  1  0  0  0
 54 55  2  0  0  0
 54131  1  0  0  0
 55 57  1  0  0  0
 55132  1  0  0  0
 56 69  2  0  0  0
 57 58  2  0  0  0
 57133  1  0  0  0
 58134  1  0  0  0
 59 60  1  0  0  0
 59 61  1  0  0  0
 59 62  1  0  0  0
 60135  1  0  0  0
 60136  1  0  0  0
 60137  1  0  0  0
 61138  1  0  0  0
 61139  1  0  0  0
 61140  1  0  0  0
 62141  1  0  0  0
 62142  1  0  0  0
 62143  1  0  0  0
 63 65  1  0  0  0
 63144  1  0  0  0
 63145  1  0  0  0
 63146  1  0  0  0
 64147  1  0  0  0
 65148  1  0  0  0
 68 85  1  0  0  0
 71 72  1  0  0  0
 71 87  1  0  0  0
 71149  1  0  0  0
 71150  1  0  0  0
 72151  1  0  0  0
 72152  1  0  0  0
 72 88  1  0  0  0
 73 76  1  0  0  0
 73153  1  0  0  0
 73154  1  0  0  0
 73 89  1  0  0  0
 74 77  1  0  0  0
 74 89  1  0  0  0
 74155  1  0  0  0
 74156  1  0  0  0
 75 79  1  0  0  0
 75 88  1  0  0  0
 75157  1  0  0  0
 75158  1  0  0  0
 76 78  1  0  0  0
 76 80  1  0  0  0
 76159  1  0  0  0
 77 78  1  0  0  0
 77 84  1  0  0  0
 77160  1  0  0  0
 78 88  1  0  0  0
 78161  1  0  0  0
 79 81  1  0  0  0
 79 87  1  0  0  0
 79162  1  0  0  0
 80163  1  0  0  0
 80164  1  0  0  0
 80165  1  0  0  0
 81166  1  0  0  0
 81167  1  0  0  0
 81168  1  0  0  0
 82 84  1  0  0  0
 82169  1  0  0  0
 82170  1  0  0  0
 82171  1  0  0  0
 83172  1  0  0  0
 83173  1  0  0  0
 83174  1  0  0  0
 83 86  1  0  0  0
 84175  1  0  0  0
 84176  1  0  0  0
 85 86  1  0  0  0
 85177  1  0  0  0
 85178  1  0  0  0
 86 89  1  0  0  0
 86179  1  0  0  0
 88180  1  0  0  0
 89181  1  0  0  0
M  CHG  2  88   1  89   1
M  ISO  4   1 100  68 101  85 101  87 100
M  END
> <chiral flag>
0

> <version>
0

> <s_m_source_file>
/data/baiqing/PycharmProjects/Reinvent-master-3.2/result/LINK_invent/BTK/process_docking_weight1_custom_sum_contain_oxygen_bond_distance_aromatic_linkinvent_7_9_3/rearranged_h_0167.sdf

> <i_m_source_file_index>
61

> <r_mmod_Potential_Energy-OPLS-2005>
291.579040527344

> <r_mmod_Stretch_Energy-OPLS-2005>
70.8506622314453

> <r_mmod_Bend_Energy-OPLS-2005>
204.533950805664

> <r_mmod_Torsional_Energy-OPLS-2005>
480.393249511719

> <r_mmod_Improper_Torsional_Energy-OPLS-2005>
3.83669185638428

> <r_mmod_Van_der_Waal_Energy-OPLS-2005>
161.9501953125

> <r_mmod_Electrostatic_Energy-OPLS-2005>
228.937957763672

> <r_mmod_Solvation_Energy-OPLS-2005>
-896.8662109375

> <b_mmod_Minimization_Converged-OPLS-2005>
0

> <r_mmod_RMS_Derivative-OPLS-2005>
2.83460831642151

$$$$
61
                    3D
 Structure written by MMmdl.
161171  0  0  1  0            999 V2000
  -30.6233  -14.6637   20.4792 C   0  0  0  0  0  0
  -30.4284  -12.4016   19.4604 C   0  0  0  0  0  0
  -29.5044  -12.4989   18.2273 C   0  0  0  0  0  0
  -28.0284  -12.3367   18.6404 C   0  0  0  0  0  0
  -27.6468  -13.2224   19.8570 C   0  0  2  0  0  0
  -28.6905  -13.1169   20.9904 C   0  0  0  0  0  0
  -25.2557  -13.8186   20.5714 C   0  0  0  0  0  0
  -24.1821  -13.0447   20.9193 C   0  0  0  0  0  0
  -24.6396  -11.6915   20.8751 C   0  0  0  0  0  0
  -23.9062  -10.4296   21.0409 C   0  0  0  0  0  0
  -24.3613   -9.4210   21.9189 C   0  0  0  0  0  0
  -23.6286   -8.2249   22.0763 C   0  0  0  0  0  0
  -22.4270   -8.0285   21.3550 C   0  0  0  0  0  0
  -21.9905   -9.0256   20.4649 C   0  0  0  0  0  0
  -22.7236  -10.2134   20.3055 C   0  0  0  0  0  0
  -21.6850   -6.0739   22.5280 C   0  0  0  0  0  0
  -21.4018   -6.5642   23.8217 C   0  0  0  0  0  0
  -21.3659   -5.6795   24.9177 C   0  0  0  0  0  0
  -21.6045   -4.3061   24.7224 C   0  0  0  0  0  0
  -21.8819   -3.8147   23.4350 C   0  0  0  0  0  0
  -21.9196   -4.6963   22.3405 C   0  0  0  0  0  0
  -22.7843  -13.5236   21.1848 C   0  0  0  0  0  0
  -22.1661   -4.2150   21.0978 F   0  0  0  0  0  0
  -21.5628   -3.4542   25.7732 F   0  0  0  0  0  0
  -29.9971  -13.4461   20.4107 N   0  0  0  0  0  0
  -26.2964  -12.9373   20.3306 N   0  0  0  0  0  0
  -25.9321  -11.6524   20.5759 N   0  0  0  0  0  0
  -22.0490  -12.8222   22.0402 N   0  0  0  0  0  0
  -25.4299  -15.1913   20.4173 N   0  0  0  0  0  0
  -31.8117  -14.7755   20.1638 O   0  0  0  0  0  0
  -21.6636   -6.8880   21.4242 O   0  0  0  0  0  0
  -22.3524  -14.5542   20.6694 O   0  0  0  0  0  0
  -24.6251  -31.8590   23.2042 C   0  0  0  0  0  0
  -25.9097  -32.4780   23.8367 C   0  0  1  0  0  0
  -27.2183  -27.3010   20.1449 C   0  0  0  0  0  0
  -25.5919  -33.8586   24.2290 N   0  0  0  0  0  0
  -23.4215  -30.4820   21.5446 C   0  0  2  0  0  0
  -24.8695  -28.9304   20.1176 C   0  0  0  0  0  0
  -22.7469  -29.4623   22.4927 C   0  0  0  0  0  0
  -18.0282  -28.1396   22.8503 C   0  0  0  0  0  0
  -24.1484  -36.7297   23.2644 C   0  0  0  0  0  0
  -25.9625  -30.7831   21.3807 C   0  0  0  0  0  0
  -26.0355  -29.4046   20.7340 C   0  0  0  0  0  0
  -27.2139  -28.5995   20.7420 C   0  0  0  0  0  0
  -26.0476  -26.8975   19.4720 C   0  0  0  0  0  0
  -24.8769  -27.6807   19.4771 C   0  0  0  0  0  0
  -23.6385  -29.8129   20.1616 C   0  0  0  0  0  0
  -25.4112  -36.3090   24.0331 C   0  0  1  0  0  0
  -20.5882  -28.3701   23.1285 C   0  0  2  0  0  0
  -20.6777  -26.9422   22.5411 C   0  0  0  0  0  0
  -19.5748  -26.6390   21.5221 C   0  0  0  0  0  0
  -18.1919  -26.7947   22.1620 C   0  0  0  0  0  0
  -19.1534  -28.8862   23.2896 C   0  0  0  0  0  0
  -18.9459  -30.1461   23.8916 C   0  0  0  0  0  0
  -17.6462  -30.6604   24.0562 C   0  0  0  0  0  0
  -25.9048  -34.9454   23.5106 C   0  0  0  0  0  0
  -16.5348  -29.9102   23.6335 C   0  0  0  0  0  0
  -16.7267  -28.6514   23.0373 C   0  0  0  0  0  0
  -26.4495  -31.6601   25.0744 C   0  0  0  0  0  0
  -25.3744  -31.3721   26.1479 C   0  0  0  0  0  0
  -27.0360  -30.3036   24.6216 C   0  0  0  0  0  0
  -27.6053  -32.4346   25.7505 C   0  0  0  0  0  0
  -27.5576  -37.1802   24.8471 C   0  0  0  0  0  0
  -21.4180  -29.3053   22.3675 N   0  0  0  0  0  0
  -26.4295  -37.3780   23.9410 N   0  0  0  0  0  0
  -24.6883  -31.0590   22.1001 N   0  0  0  0  0  0
  -23.4184  -28.8143   23.2998 O   0  0  0  0  0  0
  -28.3429  -26.4659   20.1003 O   0  0  0  0  0  0
  -26.5613  -34.8911   22.4670 O   0  0  0  0  0  0
  -23.5408  -32.1382   23.7363 O   0  0  0  0  0  0
  -27.8011  -21.3194   20.9036 C   0  0  0  0  0  0
  -28.6738  -22.3166   20.3906 C   0  0  0  0  0  0
  -29.4260  -19.4416   20.6364 C   0  0  0  0  0  0
  -28.1445  -19.9357   21.0293 C   0  0  0  0  0  0
  -29.9622  -21.8332   20.0182 C   0  0  0  0  0  0
  -30.3175  -20.4421   20.1287 C   0  0  0  0  0  0
  -27.1535  -24.3744   21.0973 C   0  0  0  0  0  0
  -29.3555  -16.6856   21.5263 C   0  0  0  0  0  0
  -29.9262  -16.9411   19.5258 C   0  0  0  0  0  0
  -28.1446  -23.7779   20.1160 C   0  0  1  0  0  0
  -29.8885  -17.9122   20.7230 C   0  0  0  0  0  0
  -28.4172  -25.1624   20.8281 C   0  0  1  0  0  0
  -27.0774  -19.0042   21.5745 C   0  0  0  0  0  0
  -30.9828  -22.8073   19.4439 C   0  0  0  0  0  0
  -29.8008  -15.7719   20.4395 N   0  0  0  0  0  0
  -31.8903  -19.9531   19.5855 Cl  0  0  0  0  0  0
  -31.4714  -12.5168   19.1621 H   0  0  0  0  0  0
  -30.3538  -11.4168   19.9232 H   0  0  0  0  0  0
  -29.7718  -11.7393   17.4913 H   0  0  0  0  0  0
  -29.6449  -13.4631   17.7368 H   0  0  0  0  0  0
  -27.8708  -11.2854   18.8846 H   0  0  0  0  0  0
  -27.3730  -12.5525   17.7957 H   0  0  0  0  0  0
  -27.6528  -14.2514   19.4960 H   0  0  0  0  0  0
  -28.7059  -12.1135   21.4175 H   0  0  0  0  0  0
  -28.4439  -13.7982   21.8064 H   0  0  0  0  0  0
  -25.2760   -9.5686   22.4758 H   0  0  0  0  0  0
  -23.9997   -7.4646   22.7487 H   0  0  0  0  0  0
  -21.0840   -8.8775   19.8949 H   0  0  0  0  0  0
  -22.3699  -10.9671   19.6158 H   0  0  0  0  0  0
  -21.2013   -7.6149   23.9713 H   0  0  0  0  0  0
  -21.1479   -6.0524   25.9077 H   0  0  0  0  0  0
  -22.0598   -2.7608   23.2845 H   0  0  0  0  0  0
  -22.4097  -11.9866   22.4767 H   0  0  0  0  0  0
  -21.1108  -13.1251   22.2620 H   0  0  0  0  0  0
  -24.6726  -15.8536   20.5429 H   0  0  0  0  0  0
  -26.2939  -15.6243   20.1162 H   0  0  0  0  0  0
  -26.7157  -32.5466   23.1102 H   0  0  0  0  0  0
  -25.0066  -33.9736   25.0439 H   0  0  0  0  0  0
  -22.7153  -31.3020   21.3991 H   0  0  0  0  0  0
  -23.3761  -35.9615   23.3289 H   0  0  0  0  0  0
  -24.3571  -36.8943   22.2063 H   0  0  0  0  0  0
  -23.7223  -37.6481   23.6696 H   0  0  0  0  0  0
  -26.0916  -31.5391   20.6055 H   0  0  0  0  0  0
  -26.8446  -30.8397   22.0070 H   0  0  0  0  0  0
  -28.1127  -28.9599   21.2230 H   0  0  0  0  0  0
  -26.0366  -25.9585   18.9376 H   0  0  0  0  0  0
  -23.9900  -27.3189   18.9744 H   0  0  0  0  0  0
  -23.7582  -30.5871   19.4023 H   0  0  0  0  0  0
  -22.7595  -29.2397   19.8611 H   0  0  0  0  0  0
  -25.1284  -36.1939   25.0825 H   0  0  0  0  0  0
  -20.9983  -28.3290   24.1405 H   0  0  0  0  0  0
  -20.5692  -26.2305   23.3610 H   0  0  0  0  0  0
  -21.6643  -26.7457   22.1187 H   0  0  0  0  0  0
  -19.6905  -25.6297   21.1259 H   0  0  0  0  0  0
  -19.6688  -27.3195   20.6747 H   0  0  0  0  0  0
  -17.4189  -26.6706   21.4013 H   0  0  0  0  0  0
  -18.0298  -26.0088   22.9011 H   0  0  0  0  0  0
  -19.7937  -30.7272   24.2288 H   0  0  0  0  0  0
  -17.5023  -31.6289   24.5154 H   0  0  0  0  0  0
  -15.5352  -30.3005   23.7671 H   0  0  0  0  0  0
  -15.8657  -28.0832   22.7102 H   0  0  0  0  0  0
  -24.5907  -30.7084   25.7807 H   0  0  0  0  0  0
  -24.8945  -32.2879   26.4945 H   0  0  0  0  0  0
  -25.8079  -30.8862   27.0232 H   0  0  0  0  0  0
  -26.2939  -29.6760   24.1271 H   0  0  0  0  0  0
  -27.4099  -29.7321   25.4722 H   0  0  0  0  0  0
  -27.8788  -30.4331   23.9423 H   0  0  0  0  0  0
  -27.2695  -33.3689   26.2018 H   0  0  0  0  0  0
  -28.3894  -32.6833   25.0342 H   0  0  0  0  0  0
  -28.0692  -31.8518   26.5473 H   0  0  0  0  0  0
  -28.2588  -38.0100   24.7513 H   0  0  0  0  0  0
  -28.1068  -36.2628   24.6303 H   0  0  0  0  0  0
  -27.2288  -37.1449   25.8871 H   0  0  0  0  0  0
  -20.9355  -29.8786   21.6891 H   0  0  0  0  0  0
  -26.0177  -38.2856   24.1423 H   0  0  0  0  0  0
  -26.8018  -21.6262   21.1825 H   0  0  0  0  0  0
  -27.0924  -23.9289   22.0879 H   0  0  0  0  0  0
  -26.1921  -24.6625   20.6897 H   0  0  0  0  0  0
  -28.2770  -16.6427   21.6588 H   0  0  0  0  0  0
  -29.8578  -16.5434   22.4845 H   0  0  0  0  0  0
  -30.8543  -16.9970   18.9541 H   0  0  0  0  0  0
  -29.0657  -17.0517   18.8647 H   0  0  0  0  0  0
  -27.8786  -23.8429   19.0630 H   0  0  0  0  0  0
  -30.9151  -18.0005   21.0805 H   0  0  0  0  0  0
  -29.1803  -25.1854   21.6041 H   0  0  0  0  0  0
  -26.1340  -19.5269   21.7378 H   0  0  0  0  0  0
  -27.3871  -18.5873   22.5332 H   0  0  0  0  0  0
  -26.8771  -18.1946   20.8726 H   0  0  0  0  0  0
  -30.6633  -23.8460   19.5028 H   0  0  0  0  0  0
  -31.1743  -22.5775   18.3954 H   0  0  0  0  0  0
  -31.9267  -22.7377   19.9853 H   0  0  0  0  0  0
  1 25  1  0  0  0
  1 30  2  0  0  0
  1 85  1  0  0  0
  2  3  1  0  0  0
  2 25  1  0  0  0
  2 87  1  0  0  0
  2 88  1  0  0  0
  3  4  1  0  0  0
  3 89  1  0  0  0
  3 90  1  0  0  0
  4  5  1  0  0  0
  4 91  1  0  0  0
  4 92  1  0  0  0
  5  6  1  0  0  0
  5 26  1  0  0  0
  5 93  1  0  0  0
  6 25  1  0  0  0
  6 94  1  0  0  0
  6 95  1  0  0  0
  7  8  2  0  0  0
  7 26  1  0  0  0
  7 29  1  0  0  0
  8  9  1  0  0  0
  8 22  1  0  0  0
  9 10  1  0  0  0
  9 27  2  0  0  0
 10 11  2  0  0  0
 10 15  1  0  0  0
 11 12  1  0  0  0
 11 96  1  0  0  0
 12 13  2  0  0  0
 12 97  1  0  0  0
 13 14  1  0  0  0
 13 31  1  0  0  0
 14 15  2  0  0  0
 14 98  1  0  0  0
 15 99  1  0  0  0
 16 17  2  0  0  0
 16 21  1  0  0  0
 16 31  1  0  0  0
 17 18  1  0  0  0
 17100  1  0  0  0
 18 19  2  0  0  0
 18101  1  0  0  0
 19 20  1  0  0  0
 19 24  1  0  0  0
 20 21  2  0  0  0
 20102  1  0  0  0
 21 23  1  0  0  0
 22 28  1  0  0  0
 22 32  2  0  0  0
 26 27  1  0  0  0
 28103  1  0  0  0
 28104  1  0  0  0
 29105  1  0  0  0
 29106  1  0  0  0
 33 34  1  0  0  0
 33 66  1  0  0  0
 33 70  2  0  0  0
 34 36  1  0  0  0
 34 59  1  0  0  0
 34107  1  0  0  0
 35 44  2  0  0  0
 35 45  1  0  0  0
 35 68  1  0  0  0
 36 56  1  0  0  0
 36108  1  0  0  0
 37 39  1  0  0  0
 37 47  1  0  0  0
 37 66  1  0  0  0
 37109  1  0  0  0
 38 43  2  0  0  0
 38 46  1  0  0  0
 38 47  1  0  0  0
 39 64  1  0  0  0
 39 67  2  0  0  0
 40 52  1  0  0  0
 40 53  2  0  0  0
 40 58  1  0  0  0
 41110  1  0  0  0
 41111  1  0  0  0
 41112  1  0  0  0
 41 48  1  0  0  0
 42 43  1  0  0  0
 42 66  1  0  0  0
 42113  1  0  0  0
 42114  1  0  0  0
 43 44  1  0  0  0
 44115  1  0  0  0
 45 46  2  0  0  0
 45116  1  0  0  0
 46117  1  0  0  0
 47118  1  0  0  0
 47119  1  0  0  0
 48 56  1  0  0  0
 48 65  1  0  0  0
 48120  1  0  0  0
 49 50  1  0  0  0
 49 53  1  0  0  0
 49 64  1  0  0  0
 49121  1  0  0  0
 50 51  1  0  0  0
 50122  1  0  0  0
 50123  1  0  0  0
 51 52  1  0  0  0
 51124  1  0  0  0
 51125  1  0  0  0
 52126  1  0  0  0
 52127  1  0  0  0
 53 54  1  0  0  0
 54 55  2  0  0  0
 54128  1  0  0  0
 55 57  1  0  0  0
 55129  1  0  0  0
 56 69  2  0  0  0
 57 58  2  0  0  0
 57130  1  0  0  0
 58131  1  0  0  0
 59 60  1  0  0  0
 59 61  1  0  0  0
 59 62  1  0  0  0
 60132  1  0  0  0
 60133  1  0  0  0
 60134  1  0  0  0
 61135  1  0  0  0
 61136  1  0  0  0
 61137  1  0  0  0
 62138  1  0  0  0
 62139  1  0  0  0
 62140  1  0  0  0
 63 65  1  0  0  0
 63141  1  0  0  0
 63142  1  0  0  0
 63143  1  0  0  0
 64144  1  0  0  0
 65145  1  0  0  0
 68 82  1  0  0  0
 71 72  2  0  0  0
 71 74  1  0  0  0
 71146  1  0  0  0
 72 75  1  0  0  0
 72 80  1  0  0  0
 73 74  2  0  0  0
 73 76  1  0  0  0
 73 81  1  0  0  0
 74 83  1  0  0  0
 75 76  2  0  0  0
 75 84  1  0  0  0
 76 86  1  0  0  0
 77 80  1  0  0  0
 77 82  1  0  0  0
 77147  1  0  0  0
 77148  1  0  0  0
 78 81  1  0  0  0
 78 85  1  0  0  0
 78149  1  0  0  0
 78150  1  0  0  0
 79 81  1  0  0  0
 79 85  1  0  0  0
 79151  1  0  0  0
 79152  1  0  0  0
 80 82  1  0  0  0
 80153  1  0  0  0
 81154  1  0  0  0
 82155  1  0  0  0
 83156  1  0  0  0
 83157  1  0  0  0
 83158  1  0  0  0
 84159  1  0  0  0
 84160  1  0  0  0
 84161  1  0  0  0
M  ISO  4   1 100  68 101  82 101  85 100
M  END
> <chiral flag>
0

> <version>
0

> <s_m_source_file>
/data/baiqing/PycharmProjects/Reinvent-master-3.2/result/LINK_invent/BTK/process_docking_weight1_custom_sum_contain_oxygen_bond_distance_aromatic_linkinvent_7_9_3/rearranged_h_0167.sdf

> <i_m_source_file_index>
62

> <r_mmod_Potential_Energy-OPLS-2005>
273.864440917969

> <r_mmod_Stretch_Energy-OPLS-2005>
93.1423568725586

> <r_mmod_Bend_Energy-OPLS-2005>
180.293212890625

> <r_mmod_Torsional_Energy-OPLS-2005>
319.913208007812

> <r_mmod_Improper_Torsional_Energy-OPLS-2005>
20.1588401794434

> <r_mmod_Van_der_Waal_Energy-OPLS-2005>
139.141525268555

> <r_mmod_Electrostatic_Energy-OPLS-2005>
-340.28759765625

> <r_mmod_Solvation_Energy-OPLS-2005>
-193.431976318359

> <b_mmod_Minimization_Converged-OPLS-2005>
0

> <r_mmod_RMS_Derivative-OPLS-2005>
1.49183189868927

$$$$
62
                    3D
 Structure written by MMmdl.
176187  0  0  1  0            999 V2000
  -30.6600  -14.4995   20.4993 C   0  0  0  0  0  0
  -30.4293  -12.2975   19.4397 C   0  0  0  0  0  0
  -29.5061  -12.4774   18.2130 C   0  0  0  0  0  0
  -28.0199  -12.3486   18.6164 C   0  0  0  0  0  0
  -27.6544  -13.1893   19.8717 C   0  0  2  0  0  0
  -28.7003  -12.9859   20.9930 C   0  0  0  0  0  0
  -25.2558  -13.8124   20.5647 C   0  0  0  0  0  0
  -24.1788  -13.0439   20.9146 C   0  0  0  0  0  0
  -24.6317  -11.6890   20.8731 C   0  0  0  0  0  0
  -23.8997  -10.4288   21.0431 C   0  0  0  0  0  0
  -24.3570   -9.4204   21.9205 C   0  0  0  0  0  0
  -23.6255   -8.2235   22.0768 C   0  0  0  0  0  0
  -22.4245   -8.0279   21.3558 C   0  0  0  0  0  0
  -21.9861   -9.0251   20.4671 C   0  0  0  0  0  0
  -22.7184  -10.2120   20.3080 C   0  0  0  0  0  0
  -21.6842   -6.0727   22.5273 C   0  0  0  0  0  0
  -21.4021   -6.5625   23.8215 C   0  0  0  0  0  0
  -21.3661   -5.6764   24.9172 C   0  0  0  0  0  0
  -21.6034   -4.3030   24.7226 C   0  0  0  0  0  0
  -21.8812   -3.8135   23.4347 C   0  0  0  0  0  0
  -21.9193   -4.6955   22.3409 C   0  0  0  0  0  0
  -22.7811  -13.5269   21.1805 C   0  0  0  0  0  0
  -22.1660   -4.2147   21.0980 F   0  0  0  0  0  0
  -21.5637   -3.4520   25.7751 F   0  0  0  0  0  0
  -30.0243  -13.2975   20.4347 N   0  0  0  0  0  0
  -26.2965  -12.9225   20.3334 N   0  0  0  0  0  0
  -25.9240  -11.6414   20.5738 N   0  0  0  0  0  0
  -22.0420  -12.8324   22.0379 N   0  0  0  0  0  0
  -25.4268  -15.1834   20.4062 N   0  0  0  0  0  0
  -31.8402  -14.6433   20.1638 O   0  0  0  0  0  0
  -21.6614   -6.8871   21.4240 O   0  0  0  0  0  0
  -22.3516  -14.5575   20.6633 O   0  0  0  0  0  0
  -24.6089  -31.8701   23.2128 C   0  0  0  0  0  0
  -25.8987  -32.4846   23.8412 C   0  0  1  0  0  0
  -27.2424  -27.4810   20.0875 C   0  0  0  0  0  0
  -25.5842  -33.8635   24.2355 N   0  0  0  0  0  0
  -23.3945  -30.4945   21.5504 C   0  0  2  0  0  0
  -24.8435  -28.9599   20.1164 C   0  0  0  0  0  0
  -22.7371  -29.4664   22.4994 C   0  0  0  0  0  0
  -18.0257  -28.1359   22.8510 C   0  0  0  0  0  0
  -24.1478  -36.7342   23.2635 C   0  0  0  0  0  0
  -25.9152  -30.8492   21.3567 C   0  0  0  0  0  0
  -25.9949  -29.4787   20.7196 C   0  0  0  0  0  0
  -27.1927  -28.7363   20.7240 C   0  0  0  0  0  0
  -26.0784  -26.9598   19.4855 C   0  0  0  0  0  0
  -24.8746  -27.6940   19.5016 C   0  0  0  0  0  0
  -23.6043  -29.8223   20.1643 C   0  0  0  0  0  0
  -25.4092  -36.3136   24.0351 C   0  0  1  0  0  0
  -20.5851  -28.3640   23.1333 C   0  0  2  0  0  0
  -20.6740  -26.9380   22.5427 C   0  0  0  0  0  0
  -19.5730  -26.6391   21.5202 C   0  0  0  0  0  0
  -18.1905  -26.7907   22.1621 C   0  0  0  0  0  0
  -19.1507  -28.8808   23.2929 C   0  0  0  0  0  0
  -18.9444  -30.1411   23.8967 C   0  0  0  0  0  0
  -17.6455  -30.6576   24.0578 C   0  0  0  0  0  0
  -25.9011  -34.9493   23.5152 C   0  0  0  0  0  0
  -16.5344  -29.9101   23.6303 C   0  0  0  0  0  0
  -16.7253  -28.6496   23.0352 C   0  0  0  0  0  0
  -26.4442  -31.6591   25.0703 C   0  0  0  0  0  0
  -25.3742  -31.3670   26.1494 C   0  0  0  0  0  0
  -27.0217  -30.3044   24.5983 C   0  0  0  0  0  0
  -27.6087  -32.4246   25.7411 C   0  0  0  0  0  0
  -27.5586  -37.1803   24.8463 C   0  0  0  0  0  0
  -21.4106  -29.3020   22.3734 N   0  0  0  0  0  0
  -26.4284  -37.3816   23.9416 N   0  0  0  0  0  0
  -24.6578  -31.0838   22.0996 N   0  0  0  0  0  0
  -23.4160  -28.8216   23.3025 O   0  0  0  0  0  0
  -28.4338  -26.7998   20.0732 O   0  0  0  0  0  0
  -26.5599  -34.8937   22.4737 O   0  0  0  0  0  0
  -23.5294  -32.1433   23.7541 O   0  0  0  0  0  0
  -30.0502  -20.5520   20.5832 C   0  0  0  0  0  0
  -27.9726  -22.0796   19.5124 C   0  0  0  0  0  0
  -28.9026  -19.8896   20.0910 C   0  0  0  0  0  0
  -30.1710  -21.9584   20.5693 C   0  0  0  0  0  0
  -27.8584  -20.6728   19.5261 C   0  0  0  0  0  0
  -29.1099  -22.7292   20.0371 C   0  0  0  0  0  0
  -32.3851  -21.9727   22.0535 C   0  0  0  0  0  0
  -31.5218  -23.1352   22.4777 C   0  0  0  0  0  0
  -30.3979  -25.0635   18.0523 C   0  0  0  0  0  0
  -30.3513  -26.4849   18.6173 C   0  0  0  0  0  0
  -29.7642  -17.7295   19.0841 C   0  0  0  0  0  0
  -29.2300  -17.7564   21.5126 C   0  0  0  0  0  0
  -29.6356  -16.1995   19.0657 C   0  0  0  0  0  0
  -29.1619  -16.2092   21.5419 C   0  0  0  0  0  0
  -28.8485  -18.3546   20.1405 C   0  0  0  0  0  0
  -31.4348  -22.6143   21.0637 C   0  0  0  0  0  0
  -29.0446  -24.7805   18.7281 C   0  0  2  0  0  0
  -28.8416  -26.3068   18.8040 C   0  0  1  0  0  0
  -26.6152  -20.0491   18.9111 C   0  0  0  0  0  0
  -29.8179  -15.5610   20.3887 N   0  0  0  0  0  0
  -29.1803  -24.1290   20.0300 N   0  0  0  0  0  0
  -31.4783  -12.3944   19.1516 H   0  0  0  0  0  0
  -30.3298  -11.2944   19.8589 H   0  0  0  0  0  0
  -29.7484  -11.7330   17.4542 H   0  0  0  0  0  0
  -29.6820  -13.4498   17.7495 H   0  0  0  0  0  0
  -27.8187  -11.2953   18.8115 H   0  0  0  0  0  0
  -27.3799  -12.6250   17.7776 H   0  0  0  0  0  0
  -27.6758  -14.2277   19.5627 H   0  0  0  0  0  0
  -28.6794  -11.9513   21.3419 H   0  0  0  0  0  0
  -28.4696  -13.5951   21.8671 H   0  0  0  0  0  0
  -25.2741   -9.5677   22.4746 H   0  0  0  0  0  0
  -24.0000   -7.4601   22.7456 H   0  0  0  0  0  0
  -21.0810   -8.8763   19.8958 H   0  0  0  0  0  0
  -22.3683  -10.9652   19.6168 H   0  0  0  0  0  0
  -21.2012   -7.6130   23.9725 H   0  0  0  0  0  0
  -21.1488   -6.0494   25.9067 H   0  0  0  0  0  0
  -22.0596   -2.7605   23.2840 H   0  0  0  0  0  0
  -22.4029  -12.0071   22.4900 H   0  0  0  0  0  0
  -21.1039  -13.1383   22.2545 H   0  0  0  0  0  0
  -24.6534  -15.8340   20.5019 H   0  0  0  0  0  0
  -26.2836  -15.6243   20.0947 H   0  0  0  0  0  0
  -26.7067  -32.5602   23.1199 H   0  0  0  0  0  0
  -24.9929  -33.9800   25.0457 H   0  0  0  0  0  0
  -22.6815  -31.3088   21.4082 H   0  0  0  0  0  0
  -23.3738  -35.9671   23.3284 H   0  0  0  0  0  0
  -24.3597  -36.8968   22.2052 H   0  0  0  0  0  0
  -23.7221  -37.6540   23.6658 H   0  0  0  0  0  0
  -26.0027  -31.6023   20.5736 H   0  0  0  0  0  0
  -26.8132  -30.9261   21.9559 H   0  0  0  0  0  0
  -28.0823  -29.1298   21.1955 H   0  0  0  0  0  0
  -26.0999  -25.9902   19.0070 H   0  0  0  0  0  0
  -23.9886  -27.2880   19.0329 H   0  0  0  0  0  0
  -23.7083  -30.5928   19.3997 H   0  0  0  0  0  0
  -22.7309  -29.2371   19.8728 H   0  0  0  0  0  0
  -25.1250  -36.2014   25.0840 H   0  0  0  0  0  0
  -20.9953  -28.3207   24.1452 H   0  0  0  0  0  0
  -20.5596  -26.2252   23.3611 H   0  0  0  0  0  0
  -21.6618  -26.7399   22.1256 H   0  0  0  0  0  0
  -19.6890  -25.6314   21.1199 H   0  0  0  0  0  0
  -19.6663  -27.3233   20.6753 H   0  0  0  0  0  0
  -17.4166  -26.6658   21.4031 H   0  0  0  0  0  0
  -18.0320  -26.0042   22.9011 H   0  0  0  0  0  0
  -19.7925  -30.7177   24.2402 H   0  0  0  0  0  0
  -17.5020  -31.6272   24.5156 H   0  0  0  0  0  0
  -15.5352  -30.3032   23.7572 H   0  0  0  0  0  0
  -15.8648  -28.0828   22.7055 H   0  0  0  0  0  0
  -24.5923  -30.7001   25.7853 H   0  0  0  0  0  0
  -24.8925  -32.2804   26.4983 H   0  0  0  0  0  0
  -25.8140  -30.8829   27.0223 H   0  0  0  0  0  0
  -26.2683  -29.6818   24.1151 H   0  0  0  0  0  0
  -27.4139  -29.7270   25.4361 H   0  0  0  0  0  0
  -27.8465  -30.4384   23.8984 H   0  0  0  0  0  0
  -27.2807  -33.3561   26.2026 H   0  0  0  0  0  0
  -28.3858  -32.6746   25.0177 H   0  0  0  0  0  0
  -28.0792  -31.8318   26.5264 H   0  0  0  0  0  0
  -28.2613  -38.0094   24.7523 H   0  0  0  0  0  0
  -28.1061  -36.2630   24.6247 H   0  0  0  0  0  0
  -27.2319  -37.1427   25.8871 H   0  0  0  0  0  0
  -20.9231  -29.8784   21.7023 H   0  0  0  0  0  0
  -26.0189  -38.2890   24.1442 H   0  0  0  0  0  0
  -30.8725  -19.9651   20.9608 H   0  0  0  0  0  0
  -27.1685  -22.6703   19.0962 H   0  0  0  0  0  0
  -32.1442  -21.0005   22.4783 H   0  0  0  0  0  0
  -33.4483  -22.1796   21.9447 H   0  0  0  0  0  0
  -32.0243  -24.0847   22.6475 H   0  0  0  0  0  0
  -30.6982  -22.9153   23.1548 H   0  0  0  0  0  0
  -31.2457  -24.4694   18.3919 H   0  0  0  0  0  0
  -30.3285  -25.0534   16.9630 H   0  0  0  0  0  0
  -30.6311  -27.2695   17.9137 H   0  0  0  0  0  0
  -30.8922  -26.5834   19.5600 H   0  0  0  0  0  0
  -29.5008  -18.1173   18.0989 H   0  0  0  0  0  0
  -30.8010  -18.0114   19.2603 H   0  0  0  0  0  0
  -30.2431  -18.0496   21.7854 H   0  0  0  0  0  0
  -28.5750  -18.1651   22.2841 H   0  0  0  0  0  0
  -30.3342  -15.7953   18.3304 H   0  0  0  0  0  0
  -28.6442  -15.9492   18.6871 H   0  0  0  0  0  0
  -28.1183  -15.9000   21.5627 H   0  0  0  0  0  0
  -29.6008  -15.8571   22.4776 H   0  0  0  0  0  0
  -27.8282  -18.0343   19.9302 H   0  0  0  0  0  0
  -31.8890  -23.2084   20.2729 H   0  0  0  0  0  0
  -28.3306  -24.3003   18.0583 H   0  0  0  0  0  0
  -28.2977  -26.7003   17.9419 H   0  0  0  0  0  0
  -25.9523  -20.8120   18.5012 H   0  0  0  0  0  0
  -26.0491  -19.4957   19.6600 H   0  0  0  0  0  0
  -26.8833  -19.3751   18.0953 H   0  0  0  0  0  0
  -29.8861  -24.5450   20.6293 H   0  0  0  0  0  0
  1 25  1  0  0  0
  1 30  2  0  0  0
  1 90  1  0  0  0
  2  3  1  0  0  0
  2 25  1  0  0  0
  2 92  1  0  0  0
  2 93  1  0  0  0
  3  4  1  0  0  0
  3 94  1  0  0  0
  3 95  1  0  0  0
  4  5  1  0  0  0
  4 96  1  0  0  0
  4 97  1  0  0  0
  5  6  1  0  0  0
  5 26  1  0  0  0
  5 98  1  0  0  0
  6 25  1  0  0  0
  6 99  1  0  0  0
  6100  1  0  0  0
  7  8  2  0  0  0
  7 26  1  0  0  0
  7 29  1  0  0  0
  8  9  1  0  0  0
  8 22  1  0  0  0
  9 10  1  0  0  0
  9 27  2  0  0  0
 10 11  2  0  0  0
 10 15  1  0  0  0
 11 12  1  0  0  0
 11101  1  0  0  0
 12 13  2  0  0  0
 12102  1  0  0  0
 13 14  1  0  0  0
 13 31  1  0  0  0
 14 15  2  0  0  0
 14103  1  0  0  0
 15104  1  0  0  0
 16 17  2  0  0  0
 16 21  1  0  0  0
 16 31  1  0  0  0
 17 18  1  0  0  0
 17105  1  0  0  0
 18 19  2  0  0  0
 18106  1  0  0  0
 19 20  1  0  0  0
 19 24  1  0  0  0
 20 21  2  0  0  0
 20107  1  0  0  0
 21 23  1  0  0  0
 22 28  1  0  0  0
 22 32  2  0  0  0
 26 27  1  0  0  0
 28108  1  0  0  0
 28109  1  0  0  0
 29110  1  0  0  0
 29111  1  0  0  0
 33 34  1  0  0  0
 33 66  1  0  0  0
 33 70  2  0  0  0
 34 36  1  0  0  0
 34 59  1  0  0  0
 34112  1  0  0  0
 35 44  2  0  0  0
 35 45  1  0  0  0
 35 68  1  0  0  0
 36 56  1  0  0  0
 36113  1  0  0  0
 37 39  1  0  0  0
 37 47  1  0  0  0
 37 66  1  0  0  0
 37114  1  0  0  0
 38 43  2  0  0  0
 38 46  1  0  0  0
 38 47  1  0  0  0
 39 64  1  0  0  0
 39 67  2  0  0  0
 40 52  1  0  0  0
 40 53  2  0  0  0
 40 58  1  0  0  0
 41115  1  0  0  0
 41116  1  0  0  0
 41117  1  0  0  0
 41 48  1  0  0  0
 42 43  1  0  0  0
 42 66  1  0  0  0
 42118  1  0  0  0
 42119  1  0  0  0
 43 44  1  0  0  0
 44120  1  0  0  0
 45 46  2  0  0  0
 45121  1  0  0  0
 46122  1  0  0  0
 47123  1  0  0  0
 47124  1  0  0  0
 48 56  1  0  0  0
 48 65  1  0  0  0
 48125  1  0  0  0
 49 50  1  0  0  0
 49 53  1  0  0  0
 49 64  1  0  0  0
 49126  1  0  0  0
 50 51  1  0  0  0
 50127  1  0  0  0
 50128  1  0  0  0
 51 52  1  0  0  0
 51129  1  0  0  0
 51130  1  0  0  0
 52131  1  0  0  0
 52132  1  0  0  0
 53 54  1  0  0  0
 54 55  2  0  0  0
 54133  1  0  0  0
 55 57  1  0  0  0
 55134  1  0  0  0
 56 69  2  0  0  0
 57 58  2  0  0  0
 57135  1  0  0  0
 58136  1  0  0  0
 59 60  1  0  0  0
 59 61  1  0  0  0
 59 62  1  0  0  0
 60137  1  0  0  0
 60138  1  0  0  0
 60139  1  0  0  0
 61140  1  0  0  0
 61141  1  0  0  0
 61142  1  0  0  0
 62143  1  0  0  0
 62144  1  0  0  0
 62145  1  0  0  0
 63 65  1  0  0  0
 63146  1  0  0  0
 63147  1  0  0  0
 63148  1  0  0  0
 64149  1  0  0  0
 65150  1  0  0  0
 68 88  1  0  0  0
 71 73  2  0  0  0
 71 74  1  0  0  0
 71151  1  0  0  0
 72 75  2  0  0  0
 72 76  1  0  0  0
 72152  1  0  0  0
 73 75  1  0  0  0
 73 85  1  0  0  0
 74 76  2  0  0  0
 74 86  1  0  0  0
 75 89  1  0  0  0
 76 91  1  0  0  0
 77 78  1  0  0  0
 77 86  1  0  0  0
 77153  1  0  0  0
 77154  1  0  0  0
 78 86  1  0  0  0
 78155  1  0  0  0
 78156  1  0  0  0
 79 80  1  0  0  0
 79 87  1  0  0  0
 79157  1  0  0  0
 79158  1  0  0  0
 80 88  1  0  0  0
 80159  1  0  0  0
 80160  1  0  0  0
 81 83  1  0  0  0
 81 85  1  0  0  0
 81161  1  0  0  0
 81162  1  0  0  0
 82 84  1  0  0  0
 82 85  1  0  0  0
 82163  1  0  0  0
 82164  1  0  0  0
 83 90  1  0  0  0
 83165  1  0  0  0
 83166  1  0  0  0
 84 90  1  0  0  0
 84167  1  0  0  0
 84168  1  0  0  0
 85169  1  0  0  0
 86170  1  0  0  0
 87 88  1  0  0  0
 87 91  1  0  0  0
 87171  1  0  0  0
 88172  1  0  0  0
 89173  1  0  0  0
 89174  1  0  0  0
 89175  1  0  0  0
 91176  1  0  0  0
M  ISO  4   1 100  68 101  88 101  90 100
M  END
> <chiral flag>
0

> <version>
0

> <s_m_source_file>
/data/baiqing/PycharmProjects/Reinvent-master-3.2/result/LINK_invent/BTK/process_docking_weight1_custom_sum_contain_oxygen_bond_distance_aromatic_linkinvent_7_9_3/rearranged_h_0167.sdf

> <i_m_source_file_index>
63

> <r_mmod_Potential_Energy-OPLS-2005>
266.551513671875

> <r_mmod_Stretch_Energy-OPLS-2005>
38.1364097595215

> <r_mmod_Bend_Energy-OPLS-2005>
112.841354370117

> <r_mmod_Torsional_Energy-OPLS-2005>
443.327087402344

> <r_mmod_Improper_Torsional_Energy-OPLS-2005>
22.5930042266846

> <r_mmod_Van_der_Waal_Energy-OPLS-2005>
151.393737792969

> <r_mmod_Electrostatic_Energy-OPLS-2005>
-321.161834716797

> <r_mmod_Solvation_Energy-OPLS-2005>
-196.91667175293

> <b_mmod_Minimization_Converged-OPLS-2005>
0

> <r_mmod_RMS_Derivative-OPLS-2005>
4.20244455337524

$$$$
63
                    3D
 Structure written by MMmdl.
173183  0  0  1  0            999 V2000
  -30.7339  -14.4062   20.6208 C   0  0  0  0  0  0
  -30.4141  -12.2803   19.4171 C   0  0  0  0  0  0
  -29.4943  -12.5184   18.2013 C   0  0  0  0  0  0
  -28.0123  -12.3840   18.6062 C   0  0  0  0  0  0
  -27.6625  -13.2032   19.8753 C   0  0  2  0  0  0
  -28.6968  -12.9519   20.9911 C   0  0  0  0  0  0
  -25.2596  -13.8155   20.5695 C   0  0  0  0  0  0
  -24.1836  -13.0442   20.9151 C   0  0  0  0  0  0
  -24.6371  -11.6901   20.8705 C   0  0  0  0  0  0
  -23.9029  -10.4289   21.0375 C   0  0  0  0  0  0
  -24.3617   -9.4179   21.9111 C   0  0  0  0  0  0
  -23.6296   -8.2216   22.0695 C   0  0  0  0  0  0
  -22.4250   -8.0282   21.3524 C   0  0  0  0  0  0
  -21.9849   -9.0269   20.4663 C   0  0  0  0  0  0
  -22.7178  -10.2146   20.3058 C   0  0  0  0  0  0
  -21.6854   -6.0730   22.5280 C   0  0  0  0  0  0
  -21.4043   -6.5635   23.8220 C   0  0  0  0  0  0
  -21.3652   -5.6785   24.9178 C   0  0  0  0  0  0
  -21.6029   -4.3051   24.7242 C   0  0  0  0  0  0
  -21.8813   -3.8142   23.4363 C   0  0  0  0  0  0
  -21.9199   -4.6956   22.3413 C   0  0  0  0  0  0
  -22.7858  -13.5260   21.1840 C   0  0  0  0  0  0
  -22.1666   -4.2137   21.0993 F   0  0  0  0  0  0
  -21.5609   -3.4532   25.7758 F   0  0  0  0  0  0
  -30.0349  -13.2510   20.4545 N   0  0  0  0  0  0
  -26.3026  -12.9316   20.3335 N   0  0  0  0  0  0
  -25.9286  -11.6474   20.5694 N   0  0  0  0  0  0
  -22.0492  -12.8269   22.0386 N   0  0  0  0  0  0
  -25.4352  -15.1894   20.4256 N   0  0  0  0  0  0
  -31.8626  -14.5725   20.1413 O   0  0  0  0  0  0
  -21.6623   -6.8880   21.4237 O   0  0  0  0  0  0
  -22.3557  -14.5578   20.6700 O   0  0  0  0  0  0
  -24.6139  -31.8713   23.2127 C   0  0  0  0  0  0
  -25.9050  -32.4846   23.8420 C   0  0  1  0  0  0
  -27.2268  -27.4596   20.0911 C   0  0  0  0  0  0
  -25.5926  -33.8641   24.2361 N   0  0  0  0  0  0
  -23.3991  -30.4975   21.5545 C   0  0  2  0  0  0
  -24.8428  -28.9690   20.1172 C   0  0  0  0  0  0
  -22.7409  -29.4680   22.5012 C   0  0  0  0  0  0
  -18.0275  -28.1363   22.8496 C   0  0  0  0  0  0
  -24.1483  -36.7321   23.2633 C   0  0  0  0  0  0
  -25.9256  -30.8453   21.3605 C   0  0  0  0  0  0
  -26.0028  -29.4799   20.7132 C   0  0  0  0  0  0
  -27.2002  -28.7326   20.6993 C   0  0  0  0  0  0
  -26.0534  -26.9654   19.4820 C   0  0  0  0  0  0
  -24.8619  -27.7092   19.4986 C   0  0  0  0  0  0
  -23.6044  -29.8327   20.1671 C   0  0  0  0  0  0
  -25.4104  -36.3134   24.0342 C   0  0  1  0  0  0
  -20.5865  -28.3658   23.1323 C   0  0  2  0  0  0
  -20.6769  -26.9397   22.5418 C   0  0  0  0  0  0
  -19.5745  -26.6378   21.5211 C   0  0  0  0  0  0
  -18.1922  -26.7916   22.1621 C   0  0  0  0  0  0
  -19.1521  -28.8828   23.2907 C   0  0  0  0  0  0
  -18.9447  -30.1433   23.8921 C   0  0  0  0  0  0
  -17.6454  -30.6573   24.0570 C   0  0  0  0  0  0
  -25.9031  -34.9495   23.5143 C   0  0  0  0  0  0
  -16.5346  -29.9082   23.6312 C   0  0  0  0  0  0
  -16.7265  -28.6488   23.0343 C   0  0  0  0  0  0
  -26.4480  -31.6604   25.0729 C   0  0  0  0  0  0
  -25.3744  -31.3714   26.1476 C   0  0  0  0  0  0
  -27.0294  -30.3051   24.6072 C   0  0  0  0  0  0
  -27.6077  -32.4303   25.7487 C   0  0  0  0  0  0
  -27.5578  -37.1823   24.8462 C   0  0  0  0  0  0
  -21.4136  -29.3035   22.3753 N   0  0  0  0  0  0
  -26.4290  -37.3817   23.9410 N   0  0  0  0  0  0
  -24.6653  -31.0843   22.1019 N   0  0  0  0  0  0
  -23.4190  -28.8219   23.3032 O   0  0  0  0  0  0
  -28.3918  -26.7297   20.0718 O   0  0  0  0  0  0
  -26.5567  -34.8939   22.4689 O   0  0  0  0  0  0
  -23.5340  -32.1447   23.7547 O   0  0  0  0  0  0
  -28.5560  -19.7958   20.4555 C   0  0  0  0  0  0
  -28.2468  -21.7999   22.3689 C   0  0  0  0  0  0
  -29.1156  -19.6000   21.7385 C   0  0  0  0  0  0
  -27.7270  -22.0041   21.0730 C   0  0  0  0  0  0
  -28.9398  -20.6173   22.7121 C   0  0  0  0  0  0
  -27.8993  -20.9870   20.1035 C   0  0  0  0  0  0
  -25.8919  -23.7644   21.6705 C   0  0  0  0  0  0
  -25.5659  -23.2285   20.3141 C   0  0  0  0  0  0
  -29.1582  -17.1831   22.6497 C   0  0  0  0  0  0
  -30.7062  -17.8481   20.7476 C   0  0  0  0  0  0
  -29.8784  -15.8258   22.4421 C   0  0  0  0  0  0
  -29.9958  -16.6419   20.1020 C   0  0  0  0  0  0
  -29.9578  -18.3431   22.0090 C   0  0  0  0  0  0
  -27.0209  -23.2969   20.7564 C   0  0  0  0  0  0
  -29.5017  -20.4866   24.1203 C   0  0  0  0  0  0
  -27.4441  -21.1480   18.6609 C   0  0  0  0  0  0
  -27.9555  -24.2798   20.0389 C   0  0  0  0  0  0
  -28.3609  -25.5312   20.8531 C   0  0  0  0  0  0
  -30.0068  -15.4779   21.0089 N   0  0  0  0  0  0
  -31.4618  -12.3665   19.1246 H   0  0  0  0  0  0
  -30.2935  -11.2629   19.7945 H   0  0  0  0  0  0
  -29.7307  -11.8171   17.4010 H   0  0  0  0  0  0
  -29.6732  -13.5160   17.7967 H   0  0  0  0  0  0
  -27.8122  -11.3268   18.7822 H   0  0  0  0  0  0
  -27.3689  -12.6847   17.7789 H   0  0  0  0  0  0
  -27.7141  -14.2566   19.5998 H   0  0  0  0  0  0
  -28.6622  -11.9119   21.3170 H   0  0  0  0  0  0
  -28.4390  -13.5361   21.8684 H   0  0  0  0  0  0
  -25.2796   -9.5653   22.4631 H   0  0  0  0  0  0
  -24.0020   -7.4587   22.7375 H   0  0  0  0  0  0
  -21.0745   -8.8820   19.9028 H   0  0  0  0  0  0
  -22.3594  -10.9700   19.6214 H   0  0  0  0  0  0
  -21.2045   -7.6145   23.9735 H   0  0  0  0  0  0
  -21.1472   -6.0505   25.9082 H   0  0  0  0  0  0
  -22.0589   -2.7610   23.2863 H   0  0  0  0  0  0
  -22.4078  -11.9936   22.4814 H   0  0  0  0  0  0
  -21.1108  -13.1315   22.2572 H   0  0  0  0  0  0
  -24.6859  -15.8500   20.5989 H   0  0  0  0  0  0
  -26.3108  -15.6380   20.1888 H   0  0  0  0  0  0
  -26.7140  -32.5563   23.1209 H   0  0  0  0  0  0
  -25.0175  -33.9823   25.0574 H   0  0  0  0  0  0
  -22.6861  -31.3139   21.4203 H   0  0  0  0  0  0
  -23.3754  -35.9645   23.3310 H   0  0  0  0  0  0
  -24.3584  -36.8906   22.2045 H   0  0  0  0  0  0
  -23.7217  -37.6529   23.6620 H   0  0  0  0  0  0
  -26.0264  -31.6080   20.5872 H   0  0  0  0  0  0
  -26.8193  -30.9061   21.9693 H   0  0  0  0  0  0
  -28.0975  -29.1262   21.1572 H   0  0  0  0  0  0
  -26.0434  -26.0193   18.9704 H   0  0  0  0  0  0
  -23.9752  -27.3141   19.0223 H   0  0  0  0  0  0
  -23.7090  -30.6080   19.4068 H   0  0  0  0  0  0
  -22.7290  -29.2500   19.8745 H   0  0  0  0  0  0
  -25.1286  -36.2013   25.0835 H   0  0  0  0  0  0
  -20.9959  -28.3213   24.1442 H   0  0  0  0  0  0
  -20.5660  -26.2277   23.3610 H   0  0  0  0  0  0
  -21.6646  -26.7433   22.1222 H   0  0  0  0  0  0
  -19.6905  -25.6288   21.1229 H   0  0  0  0  0  0
  -19.6675  -27.3205   20.6750 H   0  0  0  0  0  0
  -17.4206  -26.6678   21.4010 H   0  0  0  0  0  0
  -18.0306  -26.0044   22.8996 H   0  0  0  0  0  0
  -19.7922  -30.7237   24.2306 H   0  0  0  0  0  0
  -17.5003  -31.6255   24.5171 H   0  0  0  0  0  0
  -15.5344  -30.2994   23.7601 H   0  0  0  0  0  0
  -15.8666  -28.0814   22.7042 H   0  0  0  0  0  0
  -24.5901  -30.7093   25.7798 H   0  0  0  0  0  0
  -24.8965  -32.2884   26.4939 H   0  0  0  0  0  0
  -25.8085  -30.8852   27.0221 H   0  0  0  0  0  0
  -26.2829  -29.6854   24.1095 H   0  0  0  0  0  0
  -27.4051  -29.7250   25.4510 H   0  0  0  0  0  0
  -27.8674  -30.4399   23.9227 H   0  0  0  0  0  0
  -27.2713  -33.3586   26.2127 H   0  0  0  0  0  0
  -28.3856  -32.6889   25.0287 H   0  0  0  0  0  0
  -28.0788  -31.8383   26.5348 H   0  0  0  0  0  0
  -28.2621  -38.0102   24.7532 H   0  0  0  0  0  0
  -28.1051  -36.2646   24.6268 H   0  0  0  0  0  0
  -27.2305  -37.1458   25.8867 H   0  0  0  0  0  0
  -20.9284  -29.8795   21.7023 H   0  0  0  0  0  0
  -26.0188  -38.2896   24.1413 H   0  0  0  0  0  0
  -28.6710  -19.0434   19.6919 H   0  0  0  0  0  0
  -28.1266  -22.5859   23.1021 H   0  0  0  0  0  0
  -25.6386  -23.1333   22.5206 H   0  0  0  0  0  0
  -25.6874  -24.8248   21.8066 H   0  0  0  0  0  0
  -25.2185  -23.9440   19.5697 H   0  0  0  0  0  0
  -25.0770  -22.2575   20.2829 H   0  0  0  0  0  0
  -28.9900  -17.3711   23.7106 H   0  0  0  0  0  0
  -28.1643  -17.1211   22.2005 H   0  0  0  0  0  0
  -30.8756  -18.6476   20.0273 H   0  0  0  0  0  0
  -31.7117  -17.5317   21.0338 H   0  0  0  0  0  0
  -29.3710  -15.0463   23.0047 H   0  0  0  0  0  0
  -30.8791  -15.8899   22.8742 H   0  0  0  0  0  0
  -28.9546  -16.8728   19.8735 H   0  0  0  0  0  0
  -30.4544  -16.4230   19.1347 H   0  0  0  0  0  0
  -30.7395  -18.6212   22.7136 H   0  0  0  0  0  0
  -29.2212  -21.3375   24.7434 H   0  0  0  0  0  0
  -30.5902  -20.4446   24.1008 H   0  0  0  0  0  0
  -29.1308  -19.5882   24.6134 H   0  0  0  0  0  0
  -27.5758  -20.2239   18.0962 H   0  0  0  0  0  0
  -28.0328  -21.9165   18.1582 H   0  0  0  0  0  0
  -26.3927  -21.4161   18.5881 H   0  0  0  0  0  0
  -27.4963  -24.5607   19.0960 H   0  0  0  0  0  0
  -28.8624  -23.7623   19.7226 H   0  0  0  0  0  0
  -29.3630  -25.3684   21.2531 H   0  0  0  0  0  0
  -27.7350  -25.6762   21.7327 H   0  0  0  0  0  0
  1 25  1  0  0  0
  1 30  2  0  0  0
  1 89  1  0  0  0
  2  3  1  0  0  0
  2 25  1  0  0  0
  2 90  1  0  0  0
  2 91  1  0  0  0
  3  4  1  0  0  0
  3 92  1  0  0  0
  3 93  1  0  0  0
  4  5  1  0  0  0
  4 94  1  0  0  0
  4 95  1  0  0  0
  5  6  1  0  0  0
  5 26  1  0  0  0
  5 96  1  0  0  0
  6 25  1  0  0  0
  6 97  1  0  0  0
  6 98  1  0  0  0
  7  8  2  0  0  0
  7 26  1  0  0  0
  7 29  1  0  0  0
  8  9  1  0  0  0
  8 22  1  0  0  0
  9 10  1  0  0  0
  9 27  2  0  0  0
 10 11  2  0  0  0
 10 15  1  0  0  0
 11 12  1  0  0  0
 11 99  1  0  0  0
 12 13  2  0  0  0
 12100  1  0  0  0
 13 14  1  0  0  0
 13 31  1  0  0  0
 14 15  2  0  0  0
 14101  1  0  0  0
 15102  1  0  0  0
 16 17  2  0  0  0
 16 21  1  0  0  0
 16 31  1  0  0  0
 17 18  1  0  0  0
 17103  1  0  0  0
 18 19  2  0  0  0
 18104  1  0  0  0
 19 20  1  0  0  0
 19 24  1  0  0  0
 20 21  2  0  0  0
 20105  1  0  0  0
 21 23  1  0  0  0
 22 28  1  0  0  0
 22 32  2  0  0  0
 26 27  1  0  0  0
 28106  1  0  0  0
 28107  1  0  0  0
 29108  1  0  0  0
 29109  1  0  0  0
 33 34  1  0  0  0
 33 66  1  0  0  0
 33 70  2  0  0  0
 34 36  1  0  0  0
 34 59  1  0  0  0
 34110  1  0  0  0
 35 44  2  0  0  0
 35 45  1  0  0  0
 35 68  1  0  0  0
 36 56  1  0  0  0
 36111  1  0  0  0
 37 39  1  0  0  0
 37 47  1  0  0  0
 37 66  1  0  0  0
 37112  1  0  0  0
 38 43  2  0  0  0
 38 46  1  0  0  0
 38 47  1  0  0  0
 39 64  1  0  0  0
 39 67  2  0  0  0
 40 52  1  0  0  0
 40 53  2  0  0  0
 40 58  1  0  0  0
 41113  1  0  0  0
 41114  1  0  0  0
 41115  1  0  0  0
 41 48  1  0  0  0
 42 43  1  0  0  0
 42 66  1  0  0  0
 42116  1  0  0  0
 42117  1  0  0  0
 43 44  1  0  0  0
 44118  1  0  0  0
 45 46  2  0  0  0
 45119  1  0  0  0
 46120  1  0  0  0
 47121  1  0  0  0
 47122  1  0  0  0
 48 56  1  0  0  0
 48 65  1  0  0  0
 48123  1  0  0  0
 49 50  1  0  0  0
 49 53  1  0  0  0
 49 64  1  0  0  0
 49124  1  0  0  0
 50 51  1  0  0  0
 50125  1  0  0  0
 50126  1  0  0  0
 51 52  1  0  0  0
 51127  1  0  0  0
 51128  1  0  0  0
 52129  1  0  0  0
 52130  1  0  0  0
 53 54  1  0  0  0
 54 55  2  0  0  0
 54131  1  0  0  0
 55 57  1  0  0  0
 55132  1  0  0  0
 56 69  2  0  0  0
 57 58  2  0  0  0
 57133  1  0  0  0
 58134  1  0  0  0
 59 60  1  0  0  0
 59 61  1  0  0  0
 59 62  1  0  0  0
 60135  1  0  0  0
 60136  1  0  0  0
 60137  1  0  0  0
 61138  1  0  0  0
 61139  1  0  0  0
 61140  1  0  0  0
 62141  1  0  0  0
 62142  1  0  0  0
 62143  1  0  0  0
 63 65  1  0  0  0
 63144  1  0  0  0
 63145  1  0  0  0
 63146  1  0  0  0
 64147  1  0  0  0
 65148  1  0  0  0
 68 88  1  0  0  0
 71 73  2  0  0  0
 71 76  1  0  0  0
 71149  1  0  0  0
 72 74  1  0  0  0
 72 75  2  0  0  0
 72150  1  0  0  0
 73 75  1  0  0  0
 73 83  1  0  0  0
 74 76  2  0  0  0
 74 84  1  0  0  0
 75 85  1  0  0  0
 76 86  1  0  0  0
 77 78  1  0  0  0
 77 84  1  0  0  0
 77151  1  0  0  0
 77152  1  0  0  0
 78 84  1  0  0  0
 78153  1  0  0  0
 78154  1  0  0  0
 79 81  1  0  0  0
 79 83  1  0  0  0
 79155  1  0  0  0
 79156  1  0  0  0
 80 82  1  0  0  0
 80 83  1  0  0  0
 80157  1  0  0  0
 80158  1  0  0  0
 81 89  1  0  0  0
 81159  1  0  0  0
 81160  1  0  0  0
 82 89  1  0  0  0
 82161  1  0  0  0
 82162  1  0  0  0
 83163  1  0  0  0
 84 87  1  0  0  0
 85164  1  0  0  0
 85165  1  0  0  0
 85166  1  0  0  0
 86167  1  0  0  0
 86168  1  0  0  0
 86169  1  0  0  0
 87 88  1  0  0  0
 87170  1  0  0  0
 87171  1  0  0  0
 88172  1  0  0  0
 88173  1  0  0  0
M  ISO  4   1 100  68 101  88 101  89 100
M  END
> <chiral flag>
0

> <version>
0

> <s_m_source_file>
/data/baiqing/PycharmProjects/Reinvent-master-3.2/result/LINK_invent/BTK/process_docking_weight1_custom_sum_contain_oxygen_bond_distance_aromatic_linkinvent_7_9_3/rearranged_h_0167.sdf

> <i_m_source_file_index>
64

> <r_mmod_Potential_Energy-OPLS-2005>
251.473770141602

> <r_mmod_Stretch_Energy-OPLS-2005>
39.4248313903809

> <r_mmod_Bend_Energy-OPLS-2005>
100.052528381348

> <r_mmod_Torsional_Energy-OPLS-2005>
413.409332275391

> <r_mmod_Improper_Torsional_Energy-OPLS-2005>
11.9929733276367

> <r_mmod_Van_der_Waal_Energy-OPLS-2005>
171.840179443359

> <r_mmod_Electrostatic_Energy-OPLS-2005>
-312.959320068359

> <r_mmod_Solvation_Energy-OPLS-2005>
-182.481918334961

> <b_mmod_Minimization_Converged-OPLS-2005>
0

> <r_mmod_RMS_Derivative-OPLS-2005>
2.90535306930542

$$$$
64
                    3D
 Structure written by MMmdl.
165174  0  0  1  0            999 V2000
  -30.6444  -14.8613   20.4297 C   0  0  0  0  0  0
  -30.4143  -12.5390   19.4802 C   0  0  0  0  0  0
  -29.4986  -12.5048   18.2400 C   0  0  0  0  0  0
  -28.0374  -12.2894   18.6711 C   0  0  0  0  0  0
  -27.6195  -13.2308   19.8294 C   0  0  2  0  0  0
  -28.6695  -13.2938   20.9607 C   0  0  0  0  0  0
  -25.2446  -13.8169   20.5729 C   0  0  0  0  0  0
  -24.1754  -13.0417   20.9245 C   0  0  0  0  0  0
  -24.6353  -11.6894   20.8784 C   0  0  0  0  0  0
  -23.9041  -10.4276   21.0431 C   0  0  0  0  0  0
  -24.3602   -9.4192   21.9199 C   0  0  0  0  0  0
  -23.6279   -8.2224   22.0760 C   0  0  0  0  0  0
  -22.4261   -8.0269   21.3549 C   0  0  0  0  0  0
  -21.9898   -9.0239   20.4648 C   0  0  0  0  0  0
  -22.7222  -10.2118   20.3066 C   0  0  0  0  0  0
  -21.6847   -6.0727   22.5279 C   0  0  0  0  0  0
  -21.4008   -6.5635   23.8211 C   0  0  0  0  0  0
  -21.3659   -5.6791   24.9176 C   0  0  0  0  0  0
  -21.6047   -4.3053   24.7227 C   0  0  0  0  0  0
  -21.8822   -3.8143   23.4349 C   0  0  0  0  0  0
  -21.9187   -4.6957   22.3403 C   0  0  0  0  0  0
  -22.7781  -13.5203   21.1893 C   0  0  0  0  0  0
  -22.1661   -4.2143   21.0982 F   0  0  0  0  0  0
  -21.5630   -3.4539   25.7742 F   0  0  0  0  0  0
  -29.9503  -13.6603   20.3441 N   0  0  0  0  0  0
  -26.2841  -12.9363   20.3268 N   0  0  0  0  0  0
  -25.9276  -11.6515   20.5786 N   0  0  0  0  0  0
  -22.0433  -12.8198   22.0450 N   0  0  0  0  0  0
  -25.4127  -15.1897   20.4152 N   0  0  0  0  0  0
  -31.8576  -14.8186   20.2016 O   0  0  0  0  0  0
  -21.6630   -6.8864   21.4238 O   0  0  0  0  0  0
  -22.3478  -14.5512   20.6730 O   0  0  0  0  0  0
  -24.6383  -31.8496   23.1940 C   0  0  0  0  0  0
  -25.9186  -32.4722   23.8307 C   0  0  1  0  0  0
  -27.2185  -27.1979   20.1406 C   0  0  0  0  0  0
  -25.5952  -33.8527   24.2226 N   0  0  0  0  0  0
  -23.4388  -30.4694   21.5384 C   0  0  2  0  0  0
  -24.8873  -28.9039   20.1141 C   0  0  0  0  0  0
  -22.7537  -29.4568   22.4892 C   0  0  0  0  0  0
  -18.0301  -28.1379   22.8473 C   0  0  0  0  0  0
  -24.1483  -36.7248   23.2646 C   0  0  0  0  0  0
  -25.9909  -30.7400   21.3859 C   0  0  0  0  0  0
  -26.0626  -29.3568   20.7275 C   0  0  0  0  0  0
  -27.2333  -28.5197   20.7238 C   0  0  0  0  0  0
  -26.0219  -26.8327   19.4888 C   0  0  0  0  0  0
  -24.8748  -27.6515   19.4816 C   0  0  0  0  0  0
  -23.6625  -29.8004   20.1568 C   0  0  0  0  0  0
  -25.4116  -36.3040   24.0320 C   0  0  1  0  0  0
  -20.5910  -28.3700   23.1242 C   0  0  2  0  0  0
  -20.6782  -26.9410   22.5398 C   0  0  0  0  0  0
  -19.5758  -26.6369   21.5201 C   0  0  0  0  0  0
  -18.1938  -26.7920   22.1612 C   0  0  0  0  0  0
  -19.1557  -28.8856   23.2849 C   0  0  0  0  0  0
  -18.9483  -30.1451   23.8874 C   0  0  0  0  0  0
  -17.6481  -30.6578   24.0551 C   0  0  0  0  0  0
  -25.9070  -34.9420   23.5077 C   0  0  0  0  0  0
  -16.5368  -29.9069   23.6335 C   0  0  0  0  0  0
  -16.7289  -28.6483   23.0363 C   0  0  0  0  0  0
  -26.4530  -31.6578   25.0730 C   0  0  0  0  0  0
  -25.3729  -31.3722   26.1430 C   0  0  0  0  0  0
  -27.0424  -30.2998   24.6275 C   0  0  0  0  0  0
  -27.6056  -32.4356   25.7505 C   0  0  0  0  0  0
  -27.5569  -37.1776   24.8476 C   0  0  0  0  0  0
  -21.4243  -29.3036   22.3632 N   0  0  0  0  0  0
  -26.4283  -37.3750   23.9417 N   0  0  0  0  0  0
  -24.7085  -31.0398   22.0946 N   0  0  0  0  0  0
  -23.4202  -28.8117   23.3026 O   0  0  0  0  0  0
  -28.2898  -26.2550   20.1513 O   0  0  0  0  0  0
  -26.5645  -34.8907   22.4650 O   0  0  0  0  0  0
  -23.5515  -32.1365   23.7187 O   0  0  0  0  0  0
  -29.4629  -20.9469   19.9638 C   0  0  0  0  0  0
  -28.7426  -22.1110   20.5273 C   0  0  0  0  0  0
  -28.8337  -23.4897   19.9907 C   0  0  0  0  0  0
  -30.2633  -21.3044   18.8404 C   0  0  0  0  0  0
  -29.6693  -23.5986   18.8602 C   0  0  0  0  0  0
  -28.7270  -18.2567   19.6783 C   0  0  0  0  0  0
  -30.7972  -18.6916   20.8755 C   0  0  0  0  0  0
  -28.7702  -16.7192   20.1737 C   0  0  0  0  0  0
  -30.7521  -17.2091   21.4610 C   0  0  0  0  0  0
  -29.4322  -19.3931   20.5270 C   0  0  0  0  0  0
  -27.8598  -21.8594   21.7371 C   0  0  0  0  0  0
  -31.1698  -20.3440   18.0885 C   0  0  0  0  0  0
  -29.8797  -24.9089   18.1229 C   0  0  0  0  0  0
  -28.0199  -24.7952   20.5379 C   0  0  0  0  0  0
  -30.3427  -22.5554   18.3320 N   0  0  0  0  0  0
  -30.0490  -16.1265   20.6910 N   0  0  0  0  0  0
  -31.4534  -12.6492   19.1661 H   0  0  0  0  0  0
  -30.3683  -11.5930   20.0226 H   0  0  0  0  0  0
  -29.8089  -11.7124   17.5571 H   0  0  0  0  0  0
  -29.5871  -13.4422   17.6881 H   0  0  0  0  0  0
  -27.9389  -11.2505   18.9889 H   0  0  0  0  0  0
  -27.3667  -12.4115   17.8200 H   0  0  0  0  0  0
  -27.5589  -14.2117   19.3710 H   0  0  0  0  0  0
  -28.7464  -12.3390   21.4824 H   0  0  0  0  0  0
  -28.3820  -14.0360   21.7072 H   0  0  0  0  0  0
  -25.2739   -9.5677   22.4783 H   0  0  0  0  0  0
  -23.9992   -7.4621   22.7480 H   0  0  0  0  0  0
  -21.0831   -8.8757   19.8947 H   0  0  0  0  0  0
  -22.3679  -10.9665   19.6182 H   0  0  0  0  0  0
  -21.1999   -7.6144   23.9712 H   0  0  0  0  0  0
  -21.1483   -6.0522   25.9081 H   0  0  0  0  0  0
  -22.0598   -2.7605   23.2852 H   0  0  0  0  0  0
  -22.4044  -11.9852   22.4826 H   0  0  0  0  0  0
  -21.1056  -13.1231   22.2667 H   0  0  0  0  0  0
  -24.6454  -15.8427   20.5311 H   0  0  0  0  0  0
  -26.2649  -15.6314   20.0976 H   0  0  0  0  0  0
  -26.7247  -32.5355   23.1034 H   0  0  0  0  0  0
  -25.0094  -33.9650   25.0369 H   0  0  0  0  0  0
  -22.7378  -31.2929   21.3865 H   0  0  0  0  0  0
  -23.3753  -35.9575   23.3307 H   0  0  0  0  0  0
  -24.3564  -36.8895   22.2066 H   0  0  0  0  0  0
  -23.7241  -37.6436   23.6693 H   0  0  0  0  0  0
  -26.1458  -31.4973   20.6167 H   0  0  0  0  0  0
  -26.8623  -30.7854   22.0273 H   0  0  0  0  0  0
  -28.1341  -28.8631   21.2133 H   0  0  0  0  0  0
  -25.9592  -25.8822   18.9790 H   0  0  0  0  0  0
  -23.9778  -27.3021   18.9883 H   0  0  0  0  0  0
  -23.7967  -30.5749   19.4009 H   0  0  0  0  0  0
  -22.7790  -29.2411   19.8467 H   0  0  0  0  0  0
  -25.1307  -36.1860   25.0812 H   0  0  0  0  0  0
  -21.0002  -28.3277   24.1363 H   0  0  0  0  0  0
  -20.5666  -26.2312   23.3610 H   0  0  0  0  0  0
  -21.6651  -26.7408   22.1207 H   0  0  0  0  0  0
  -19.6916  -25.6272   21.1250 H   0  0  0  0  0  0
  -19.6694  -27.3156   20.6712 H   0  0  0  0  0  0
  -17.4211  -26.6664   21.4011 H   0  0  0  0  0  0
  -18.0334  -26.0062   22.9008 H   0  0  0  0  0  0
  -19.7964  -30.7265   24.2235 H   0  0  0  0  0  0
  -17.5044  -31.6262   24.5145 H   0  0  0  0  0  0
  -15.5370  -30.2967   23.7670 H   0  0  0  0  0  0
  -15.8686  -28.0793   22.7104 H   0  0  0  0  0  0
  -24.5924  -30.7051   25.7744 H   0  0  0  0  0  0
  -24.8887  -32.2887   26.4814 H   0  0  0  0  0  0
  -25.8042  -30.8925   27.0229 H   0  0  0  0  0  0
  -26.3044  -29.6692   24.1307 H   0  0  0  0  0  0
  -27.4109  -29.7317   25.4827 H   0  0  0  0  0  0
  -27.8917  -30.4278   23.9559 H   0  0  0  0  0  0
  -27.2656  -33.3698   26.1988 H   0  0  0  0  0  0
  -28.3900  -32.6860   25.0349 H   0  0  0  0  0  0
  -28.0685  -31.8552   26.5499 H   0  0  0  0  0  0
  -28.2577  -38.0077   24.7525 H   0  0  0  0  0  0
  -28.1071  -36.2608   24.6304 H   0  0  0  0  0  0
  -27.2282  -37.1426   25.8876 H   0  0  0  0  0  0
  -20.9448  -29.8765   21.6833 H   0  0  0  0  0  0
  -26.0145  -38.2812   24.1437 H   0  0  0  0  0  0
  -27.6803  -18.5360   19.5509 H   0  0  0  0  0  0
  -29.1215  -18.2583   18.6665 H   0  0  0  0  0  0
  -31.4425  -18.6464   20.0039 H   0  0  0  0  0  0
  -31.3267  -19.3228   21.5896 H   0  0  0  0  0  0
  -28.4363  -16.1184   19.3320 H   0  0  0  0  0  0
  -28.0283  -16.5880   20.9617 H   0  0  0  0  0  0
  -30.2763  -17.2473   22.4412 H   0  0  0  0  0  0
  -31.7794  -16.9020   21.6650 H   0  0  0  0  0  0
  -28.8853  -19.4335   21.4683 H   0  0  0  0  0  0
  -27.1287  -21.0826   21.5149 H   0  0  0  0  0  0
  -27.3051  -22.7386   22.0582 H   0  0  0  0  0  0
  -28.4688  -21.5292   22.5785 H   0  0  0  0  0  0
  -30.7576  -19.3478   17.9837 H   0  0  0  0  0  0
  -32.1345  -20.2759   18.5904 H   0  0  0  0  0  0
  -31.3611  -20.6979   17.0742 H   0  0  0  0  0  0
  -28.9301  -25.3076   17.7660 H   0  0  0  0  0  0
  -30.5303  -24.7868   17.2559 H   0  0  0  0  0  0
  -30.3458  -25.6456   18.7767 H   0  0  0  0  0  0
  -28.1587  -24.7902   21.6186 H   0  0  0  0  0  0
  -26.9660  -24.5609   20.3994 H   0  0  0  0  0  0
  1 25  1  0  0  0
  1 30  2  0  0  0
  1 86  1  0  0  0
  2  3  1  0  0  0
  2 25  1  0  0  0
  2 87  1  0  0  0
  2 88  1  0  0  0
  3  4  1  0  0  0
  3 89  1  0  0  0
  3 90  1  0  0  0
  4  5  1  0  0  0
  4 91  1  0  0  0
  4 92  1  0  0  0
  5  6  1  0  0  0
  5 26  1  0  0  0
  5 93  1  0  0  0
  6 25  1  0  0  0
  6 94  1  0  0  0
  6 95  1  0  0  0
  7  8  2  0  0  0
  7 26  1  0  0  0
  7 29  1  0  0  0
  8  9  1  0  0  0
  8 22  1  0  0  0
  9 10  1  0  0  0
  9 27  2  0  0  0
 10 11  2  0  0  0
 10 15  1  0  0  0
 11 12  1  0  0  0
 11 96  1  0  0  0
 12 13  2  0  0  0
 12 97  1  0  0  0
 13 14  1  0  0  0
 13 31  1  0  0  0
 14 15  2  0  0  0
 14 98  1  0  0  0
 15 99  1  0  0  0
 16 17  2  0  0  0
 16 21  1  0  0  0
 16 31  1  0  0  0
 17 18  1  0  0  0
 17100  1  0  0  0
 18 19  2  0  0  0
 18101  1  0  0  0
 19 20  1  0  0  0
 19 24  1  0  0  0
 20 21  2  0  0  0
 20102  1  0  0  0
 21 23  1  0  0  0
 22 28  1  0  0  0
 22 32  2  0  0  0
 26 27  1  0  0  0
 28103  1  0  0  0
 28104  1  0  0  0
 29105  1  0  0  0
 29106  1  0  0  0
 33 34  1  0  0  0
 33 66  1  0  0  0
 33 70  2  0  0  0
 34 36  1  0  0  0
 34 59  1  0  0  0
 34107  1  0  0  0
 35 44  2  0  0  0
 35 45  1  0  0  0
 35 68  1  0  0  0
 36 56  1  0  0  0
 36108  1  0  0  0
 37 39  1  0  0  0
 37 47  1  0  0  0
 37 66  1  0  0  0
 37109  1  0  0  0
 38 43  2  0  0  0
 38 46  1  0  0  0
 38 47  1  0  0  0
 39 64  1  0  0  0
 39 67  2  0  0  0
 40 52  1  0  0  0
 40 53  2  0  0  0
 40 58  1  0  0  0
 41110  1  0  0  0
 41111  1  0  0  0
 41112  1  0  0  0
 41 48  1  0  0  0
 42 43  1  0  0  0
 42 66  1  0  0  0
 42113  1  0  0  0
 42114  1  0  0  0
 43 44  1  0  0  0
 44115  1  0  0  0
 45 46  2  0  0  0
 45116  1  0  0  0
 46117  1  0  0  0
 47118  1  0  0  0
 47119  1  0  0  0
 48 56  1  0  0  0
 48 65  1  0  0  0
 48120  1  0  0  0
 49 50  1  0  0  0
 49 53  1  0  0  0
 49 64  1  0  0  0
 49121  1  0  0  0
 50 51  1  0  0  0
 50122  1  0  0  0
 50123  1  0  0  0
 51 52  1  0  0  0
 51124  1  0  0  0
 51125  1  0  0  0
 52126  1  0  0  0
 52127  1  0  0  0
 53 54  1  0  0  0
 54 55  2  0  0  0
 54128  1  0  0  0
 55 57  1  0  0  0
 55129  1  0  0  0
 56 69  2  0  0  0
 57 58  2  0  0  0
 57130  1  0  0  0
 58131  1  0  0  0
 59 60  1  0  0  0
 59 61  1  0  0  0
 59 62  1  0  0  0
 60132  1  0  0  0
 60133  1  0  0  0
 60134  1  0  0  0
 61135  1  0  0  0
 61136  1  0  0  0
 61137  1  0  0  0
 62138  1  0  0  0
 62139  1  0  0  0
 62140  1  0  0  0
 63 65  1  0  0  0
 63141  1  0  0  0
 63142  1  0  0  0
 63143  1  0  0  0
 64144  1  0  0  0
 65145  1  0  0  0
 68 84  1  0  0  0
 71 72  2  0  0  0
 71 74  1  0  0  0
 71 80  1  0  0  0
 72 73  1  0  0  0
 72 81  1  0  0  0
 73 75  2  0  0  0
 73 84  1  0  0  0
 74 82  1  0  0  0
 74 85  2  0  0  0
 75 83  1  0  0  0
 75 85  1  0  0  0
 76 78  1  0  0  0
 76 80  1  0  0  0
 76146  1  0  0  0
 76147  1  0  0  0
 77 79  1  0  0  0
 77 80  1  0  0  0
 77148  1  0  0  0
 77149  1  0  0  0
 78 86  1  0  0  0
 78150  1  0  0  0
 78151  1  0  0  0
 79 86  1  0  0  0
 79152  1  0  0  0
 79153  1  0  0  0
 80154  1  0  0  0
 81155  1  0  0  0
 81156  1  0  0  0
 81157  1  0  0  0
 82158  1  0  0  0
 82159  1  0  0  0
 82160  1  0  0  0
 83161  1  0  0  0
 83162  1  0  0  0
 83163  1  0  0  0
 84164  1  0  0  0
 84165  1  0  0  0
M  ISO  4   1 100  68 101  84 101  86 100
M  END
> <chiral flag>
0

> <version>
0

> <s_m_source_file>
/data/baiqing/PycharmProjects/Reinvent-master-3.2/result/LINK_invent/BTK/process_docking_weight1_custom_sum_contain_oxygen_bond_distance_aromatic_linkinvent_7_9_3/rearranged_h_0167.sdf

> <i_m_source_file_index>
65

> <r_mmod_Potential_Energy-OPLS-2005>
426.871246337891

> <r_mmod_Stretch_Energy-OPLS-2005>
190.380416870117

> <r_mmod_Bend_Energy-OPLS-2005>
239.780776977539

> <r_mmod_Torsional_Energy-OPLS-2005>
337.630340576172

> <r_mmod_Improper_Torsional_Energy-OPLS-2005>
1.93758893013

> <r_mmod_Van_der_Waal_Energy-OPLS-2005>
145.806106567383

> <r_mmod_Electrostatic_Energy-OPLS-2005>
-418.221099853516

> <r_mmod_Solvation_Energy-OPLS-2005>
-212.324951171875

> <b_mmod_Minimization_Converged-OPLS-2005>
0

> <r_mmod_RMS_Derivative-OPLS-2005>
1.26584625244141

$$$$
65
                    3D
 Structure written by MMmdl.
167176  0  0  1  0            999 V2000
  -29.2463  -16.0064   20.7562 C   0  0  0  0  0  0
  -30.1835  -13.5174   19.7405 C   0  0  0  0  0  0
  -29.5207  -12.8344   18.4817 C   0  0  0  0  0  0
  -28.1309  -12.2812   18.8214 C   0  0  0  0  0  0
  -27.4677  -13.2460   19.8166 C   0  0  2  0  0  0
  -28.2982  -13.5613   21.0557 C   0  0  0  0  0  0
  -25.1486  -13.7708   20.5160 C   0  0  0  0  0  0
  -24.1101  -13.0046   20.9217 C   0  0  0  0  0  0
  -24.5891  -11.6600   20.8836 C   0  0  0  0  0  0
  -23.8754  -10.4057   21.0532 C   0  0  0  0  0  0
  -24.3424   -9.4039   21.9277 C   0  0  0  0  0  0
  -23.6169   -8.2048   22.0776 C   0  0  0  0  0  0
  -22.4156   -8.0105   21.3540 C   0  0  0  0  0  0
  -21.9735   -9.0047   20.4645 C   0  0  0  0  0  0
  -22.6996  -10.1938   20.3120 C   0  0  0  0  0  0
  -21.6787   -6.0645   22.5298 C   0  0  0  0  0  0
  -21.3966   -6.5586   23.8224 C   0  0  0  0  0  0
  -21.3651   -5.6755   24.9197 C   0  0  0  0  0  0
  -21.6050   -4.3020   24.7254 C   0  0  0  0  0  0
  -21.8827   -3.8095   23.4384 C   0  0  0  0  0  0
  -21.9171   -4.6892   22.3432 C   0  0  0  0  0  0
  -22.7266  -13.4962   21.2013 C   0  0  0  0  0  0
  -22.1651   -4.2090   21.1009 F   0  0  0  0  0  0
  -21.5638   -3.4516   25.7775 F   0  0  0  0  0  0
  -29.2352  -14.5159   20.5302 N   0  0  0  0  0  0
  -26.1712  -12.8920   20.2599 N   0  0  0  0  0  0
  -25.8714  -11.6149   20.5576 N   0  0  0  0  0  0
  -22.0004  -12.8038   22.0672 N   0  0  0  0  0  0
  -25.2919  -15.1265   20.2941 N   0  0  0  0  0  0
  -30.5012  -16.1526   20.5224 O   0  0  0  0  0  0
  -21.6540   -6.8718   21.4231 O   0  0  0  0  0  0
  -22.3040  -14.5341   20.6922 O   0  0  0  0  0  0
  -24.6593  -31.9374   23.2220 C   0  0  0  0  0  0
  -25.9476  -32.5114   23.8650 C   0  0  1  0  0  0
  -26.9573  -27.3702   20.1375 C   0  0  0  0  0  0
  -25.6347  -33.8863   24.2623 N   0  0  0  0  0  0
  -23.4648  -30.6076   21.5651 C   0  0  2  0  0  0
  -24.8535  -29.1415   19.9945 C   0  0  0  0  0  0
  -22.9831  -29.5530   22.5621 C   0  0  0  0  0  0
  -18.4773  -27.2570   23.1161 C   0  0  0  0  0  0
  -24.1501  -36.7360   23.2606 C   0  0  0  0  0  0
  -25.9912  -30.8582   21.4015 C   0  0  0  0  0  0
  -26.0018  -29.5139   20.7035 C   0  0  0  0  0  0
  -27.0836  -28.6109   20.8027 C   0  0  0  0  0  0
  -25.9838  -27.1652   19.1663 C   0  0  0  0  0  0
  -24.8741  -28.0169   19.1607 C   0  0  0  0  0  0
  -23.6384  -30.0271   20.1310 C   0  0  0  0  0  0
  -25.4128  -36.3224   24.0327 C   0  0  1  0  0  0
  -21.2989  -27.9897   23.0061 C   0  0  2  0  0  0
  -22.0402  -27.0773   21.4108 C   0  0  0  0  0  0
  -20.2397  -25.2992   20.7803 C   0  0  0  0  0  0
  -18.7908  -25.6485   22.2342 C   0  0  0  0  0  0
  -19.6078  -28.2254   23.4858 C   0  0  0  0  0  0
  -19.2287  -29.5777   23.9178 C   0  0  0  0  0  0
  -17.9109  -30.1069   23.9601 C   0  0  0  0  0  0
  -25.9134  -34.9636   23.5187 C   0  0  0  0  0  0
  -16.8716  -29.2723   23.5330 C   0  0  0  0  0  0
  -17.1588  -27.9212   23.1228 C   0  0  0  0  0  0
  -26.4608  -31.6672   25.0924 C   0  0  0  0  0  0
  -25.3722  -31.3773   26.1505 C   0  0  0  0  0  0
  -27.0373  -30.3085   24.6292 C   0  0  0  0  0  0
  -27.6174  -32.4261   25.7810 C   0  0  0  0  0  0
  -27.5601  -37.1890   24.8473 C   0  0  0  0  0  0
  -21.6969  -29.3215   22.6216 N   0  0  0  0  0  0
  -26.4319  -37.3891   23.9407 N   0  0  0  0  0  0
  -24.7240  -31.1774   22.0962 N   0  0  0  0  0  0
  -23.7624  -28.9080   23.2650 O   0  0  0  0  0  0
  -27.2729  -26.2002   20.7338 O   0  0  0  0  0  0
  -26.5497  -34.9057   22.4628 O   0  0  0  0  0  0
  -23.5755  -32.2093   23.7617 O   0  0  0  0  0  0
  -21.7483  -23.6415   22.9579 C   0  0  0  0  0  0
  -21.7334  -25.1363   22.4117 C   0  0  0  0  0  0
  -22.7270  -22.3141   22.8381 C   0  0  0  0  0  0
  -23.2670  -24.6323   21.8480 C   0  0  0  0  0  0
  -24.0825  -21.9646   22.1278 C   0  0  0  0  0  0
  -25.4816  -19.0348   22.2171 C   0  0  0  0  0  0
  -26.6468  -20.2732   21.0772 C   0  0  0  0  0  0
  -26.4626  -17.6285   21.4094 C   0  0  0  0  0  0
  -27.9786  -18.9262   21.2641 C   0  0  0  0  0  0
  -20.6503  -23.4585   23.9995 C   0  0  0  0  0  0
  -19.9379  -27.3746   21.1867 C   0  0  0  0  0  0
  -22.2730  -21.1039   23.6426 C   0  0  0  0  0  0
  -24.4615  -25.3910   20.9941 C   0  0  0  0  0  0
  -26.0406  -25.6667   21.5310 C   0  0  0  0  0  0
  -24.1061  -23.3618   21.7578 N   0  0  0  0  0  0
  -25.2261  -20.6205   21.8490 N   0  0  0  0  0  0
  -28.0782  -17.2480   21.0792 N   0  0  0  0  0  0
  -31.0681  -14.0562   19.3983 H   0  0  0  0  0  0
  -30.5765  -12.7535   20.4130 H   0  0  0  0  0  0
  -30.1628  -12.0521   18.0762 H   0  0  0  0  0  0
  -29.4153  -13.5893   17.7023 H   0  0  0  0  0  0
  -28.2371  -11.2943   19.2748 H   0  0  0  0  0  0
  -27.5267  -12.1552   17.9238 H   0  0  0  0  0  0
  -27.3230  -14.1555   19.2274 H   0  0  0  0  0  0
  -28.7235  -12.6730   21.5277 H   0  0  0  0  0  0
  -27.7010  -14.0554   21.8256 H   0  0  0  0  0  0
  -25.2560   -9.5577   22.4850 H   0  0  0  0  0  0
  -23.9905   -7.4428   22.7482 H   0  0  0  0  0  0
  -21.0675   -8.8525   19.8942 H   0  0  0  0  0  0
  -22.3453  -10.9480   19.6245 H   0  0  0  0  0  0
  -21.1939   -7.6097   23.9699 H   0  0  0  0  0  0
  -21.1476   -6.0501   25.9094 H   0  0  0  0  0  0
  -22.0619   -2.7560   23.2905 H   0  0  0  0  0  0
  -22.3588  -11.9671   22.5026 H   0  0  0  0  0  0
  -21.0688  -13.1164   22.2994 H   0  0  0  0  0  0
  -24.4793  -15.7317   20.3320 H   0  0  0  0  0  0
  -26.0610  -15.5200   19.7694 H   0  0  0  0  0  0
  -26.7630  -32.5748   23.1480 H   0  0  0  0  0  0
  -25.0629  -34.0028   25.0869 H   0  0  0  0  0  0
  -22.7154  -31.3996   21.5076 H   0  0  0  0  0  0
  -23.3787  -35.9666   23.3269 H   0  0  0  0  0  0
  -24.3615  -36.8950   22.2026 H   0  0  0  0  0  0
  -23.7246  -37.6579   23.6586 H   0  0  0  0  0  0
  -26.1861  -31.6356   20.6590 H   0  0  0  0  0  0
  -26.8553  -30.8417   22.0545 H   0  0  0  0  0  0
  -27.8623  -28.7686   21.5344 H   0  0  0  0  0  0
  -25.9186  -26.2212   18.6393 H   0  0  0  0  0  0
  -24.0174  -27.7826   18.5468 H   0  0  0  0  0  0
  -23.8003  -30.8640   19.4520 H   0  0  0  0  0  0
  -22.7276  -29.5601   19.7626 H   0  0  0  0  0  0
  -25.1281  -36.2101   25.0811 H   0  0  0  0  0  0
  -21.8032  -27.6213   23.9023 H   0  0  0  0  0  0
  -23.0002  -26.9823   21.8972 H   0  0  0  0  0  0
  -22.2671  -27.6968   20.5455 H   0  0  0  0  0  0
  -20.5218  -24.2475   20.6487 H   0  0  0  0  0  0
  -19.8368  -25.4589   19.7720 H   0  0  0  0  0  0
  -17.8416  -25.4056   21.7577 H   0  0  0  0  0  0
  -18.8312  -24.8865   22.9966 H   0  0  0  0  0  0
  -20.0069  -30.2722   24.1978 H   0  0  0  0  0  0
  -17.7220  -31.1225   24.2760 H   0  0  0  0  0  0
  -15.8594  -29.6426   23.5119 H   0  0  0  0  0  0
  -16.3172  -27.3402   22.7668 H   0  0  0  0  0  0
  -24.5902  -30.7183   25.7690 H   0  0  0  0  0  0
  -24.8932  -32.2938   26.4970 H   0  0  0  0  0  0
  -25.7933  -30.8864   27.0282 H   0  0  0  0  0  0
  -26.2975  -29.6970   24.1107 H   0  0  0  0  0  0
  -27.3841  -29.7199   25.4796 H   0  0  0  0  0  0
  -27.8972  -30.4340   23.9699 H   0  0  0  0  0  0
  -27.2818  -33.3528   26.2465 H   0  0  0  0  0  0
  -28.4048  -32.6830   25.0713 H   0  0  0  0  0  0
  -28.0739  -31.8284   26.5701 H   0  0  0  0  0  0
  -28.2612  -38.0198   24.7553 H   0  0  0  0  0  0
  -28.1114  -36.2747   24.6242 H   0  0  0  0  0  0
  -27.2328  -37.1468   25.8879 H   0  0  0  0  0  0
  -21.0443  -29.9016   22.1158 H   0  0  0  0  0  0
  -26.0196  -38.2950   24.1448 H   0  0  0  0  0  0
  -25.8127  -19.0566   23.2564 H   0  0  0  0  0  0
  -24.4632  -18.6435   22.2831 H   0  0  0  0  0  0
  -26.3821  -20.2809   20.0195 H   0  0  0  0  0  0
  -27.2033  -21.2041   21.2057 H   0  0  0  0  0  0
  -25.9856  -17.5299   20.4354 H   0  0  0  0  0  0
  -26.1469  -16.7687   21.9986 H   0  0  0  0  0  0
  -28.4110  -19.0960   22.2534 H   0  0  0  0  0  0
  -28.7696  -19.2572   20.5907 H   0  0  0  0  0  0
  -20.2972  -24.4192   24.3782 H   0  0  0  0  0  0
  -21.0128  -22.9500   24.8928 H   0  0  0  0  0  0
  -19.8117  -22.8921   23.6012 H   0  0  0  0  0  0
  -20.0223  -28.4657   21.2038 H   0  0  0  0  0  0
  -18.9079  -27.2967   20.7819 H   0  0  0  0  0  0
  -20.2129  -27.5158   20.1230 H   0  0  0  0  0  0
  -21.2120  -20.8941   23.5177 H   0  0  0  0  0  0
  -22.4892  -21.2683   24.6970 H   0  0  0  0  0  0
  -22.8041  -20.1970   23.3565 H   0  0  0  0  0  0
  -24.0847  -26.2496   20.4992 H   0  0  0  0  0  0
  -24.5970  -24.7885   20.0899 H   0  0  0  0  0  0
  -26.3978  -24.7279   21.9480 H   0  0  0  0  0  0
  -25.9585  -26.3081   22.4109 H   0  0  0  0  0  0
  1 25  1  0  0  0
  1 30  2  0  0  0
  1 87  1  0  0  0
  2  3  1  0  0  0
  2 25  1  0  0  0
  2 88  1  0  0  0
  2 89  1  0  0  0
  3  4  1  0  0  0
  3 90  1  0  0  0
  3 91  1  0  0  0
  4  5  1  0  0  0
  4 92  1  0  0  0
  4 93  1  0  0  0
  5  6  1  0  0  0
  5 26  1  0  0  0
  5 94  1  0  0  0
  6 25  1  0  0  0
  6 95  1  0  0  0
  6 96  1  0  0  0
  7  8  2  0  0  0
  7 26  1  0  0  0
  7 29  1  0  0  0
  8  9  1  0  0  0
  8 22  1  0  0  0
  9 10  1  0  0  0
  9 27  2  0  0  0
 10 11  2  0  0  0
 10 15  1  0  0  0
 11 12  1  0  0  0
 11 97  1  0  0  0
 12 13  2  0  0  0
 12 98  1  0  0  0
 13 14  1  0  0  0
 13 31  1  0  0  0
 14 15  2  0  0  0
 14 99  1  0  0  0
 15100  1  0  0  0
 16 17  2  0  0  0
 16 21  1  0  0  0
 16 31  1  0  0  0
 17 18  1  0  0  0
 17101  1  0  0  0
 18 19  2  0  0  0
 18102  1  0  0  0
 19 20  1  0  0  0
 19 24  1  0  0  0
 20 21  2  0  0  0
 20103  1  0  0  0
 21 23  1  0  0  0
 22 28  1  0  0  0
 22 32  2  0  0  0
 26 27  1  0  0  0
 28104  1  0  0  0
 28105  1  0  0  0
 29106  1  0  0  0
 29107  1  0  0  0
 33 34  1  0  0  0
 33 66  1  0  0  0
 33 70  2  0  0  0
 34 36  1  0  0  0
 34 59  1  0  0  0
 34108  1  0  0  0
 35 44  2  0  0  0
 35 45  1  0  0  0
 35 68  1  0  0  0
 36 56  1  0  0  0
 36109  1  0  0  0
 37 39  1  0  0  0
 37 47  1  0  0  0
 37 66  1  0  0  0
 37110  1  0  0  0
 38 43  2  0  0  0
 38 46  1  0  0  0
 38 47  1  0  0  0
 39 64  1  0  0  0
 39 67  2  0  0  0
 40 52  1  0  0  0
 40 53  2  0  0  0
 40 58  1  0  0  0
 41111  1  0  0  0
 41112  1  0  0  0
 41113  1  0  0  0
 41 48  1  0  0  0
 42 43  1  0  0  0
 42 66  1  0  0  0
 42114  1  0  0  0
 42115  1  0  0  0
 43 44  1  0  0  0
 44116  1  0  0  0
 45 46  2  0  0  0
 45117  1  0  0  0
 46118  1  0  0  0
 47119  1  0  0  0
 47120  1  0  0  0
 48 56  1  0  0  0
 48 65  1  0  0  0
 48121  1  0  0  0
 49 50  1  0  0  0
 49 53  1  0  0  0
 49 64  1  0  0  0
 49122  1  0  0  0
 50 51  1  0  0  0
 50123  1  0  0  0
 50124  1  0  0  0
 51 52  1  0  0  0
 51125  1  0  0  0
 51126  1  0  0  0
 52127  1  0  0  0
 52128  1  0  0  0
 53 54  1  0  0  0
 54 55  2  0  0  0
 54129  1  0  0  0
 55 57  1  0  0  0
 55130  1  0  0  0
 56 69  2  0  0  0
 57 58  2  0  0  0
 57131  1  0  0  0
 58132  1  0  0  0
 59 60  1  0  0  0
 59 61  1  0  0  0
 59 62  1  0  0  0
 60133  1  0  0  0
 60134  1  0  0  0
 60135  1  0  0  0
 61136  1  0  0  0
 61137  1  0  0  0
 61138  1  0  0  0
 62139  1  0  0  0
 62140  1  0  0  0
 62141  1  0  0  0
 63 65  1  0  0  0
 63142  1  0  0  0
 63143  1  0  0  0
 63144  1  0  0  0
 64145  1  0  0  0
 65146  1  0  0  0
 68 84  1  0  0  0
 71 72  2  0  0  0
 71 73  1  0  0  0
 71 80  1  0  0  0
 72 74  1  0  0  0
 72 81  1  0  0  0
 73 75  2  0  0  0
 73 82  1  0  0  0
 74 83  1  0  0  0
 74 85  2  0  0  0
 75 85  1  0  0  0
 75 86  1  0  0  0
 76 78  1  0  0  0
 76 86  1  0  0  0
 76147  1  0  0  0
 76148  1  0  0  0
 77 79  1  0  0  0
 77 86  1  0  0  0
 77149  1  0  0  0
 77150  1  0  0  0
 78 87  1  0  0  0
 78151  1  0  0  0
 78152  1  0  0  0
 79 87  1  0  0  0
 79153  1  0  0  0
 79154  1  0  0  0
 80155  1  0  0  0
 80156  1  0  0  0
 80157  1  0  0  0
 81158  1  0  0  0
 81159  1  0  0  0
 81160  1  0  0  0
 82161  1  0  0  0
 82162  1  0  0  0
 82163  1  0  0  0
 83 84  1  0  0  0
 83164  1  0  0  0
 83165  1  0  0  0
 84166  1  0  0  0
 84167  1  0  0  0
M  ISO  4   1 100  68 101  84 101  87 100
M  END
> <chiral flag>
0

> <version>
0

> <s_m_source_file>
/data/baiqing/PycharmProjects/Reinvent-master-3.2/result/LINK_invent/BTK/process_docking_weight1_custom_sum_contain_oxygen_bond_distance_aromatic_linkinvent_7_9_3/rearranged_h_0167.sdf

> <i_m_source_file_index>
66

> <r_mmod_Potential_Energy-OPLS-2005>
14473.4677734375

> <r_mmod_Stretch_Energy-OPLS-2005>
7620.42626953125

> <r_mmod_Bend_Energy-OPLS-2005>
1916.46716308594

> <r_mmod_Torsional_Energy-OPLS-2005>
493.471069335938

> <r_mmod_Improper_Torsional_Energy-OPLS-2005>
39.536865234375

> <r_mmod_Van_der_Waal_Energy-OPLS-2005>
2241.1201171875

> <r_mmod_Electrostatic_Energy-OPLS-2005>
-523.8642578125

> <r_mmod_Solvation_Energy-OPLS-2005>
-260.110961914062

> <b_mmod_Minimization_Converged-OPLS-2005>
0

> <r_mmod_RMS_Derivative-OPLS-2005>
6.18752336502075

$$$$
66
                    3D
 Structure written by MMmdl.
176186  0  0  1  0            999 V2000
  -30.7519  -14.4667   20.5588 C   0  0  0  0  0  0
  -30.3996  -12.3013   19.4406 C   0  0  0  0  0  0
  -29.4883  -12.4995   18.2138 C   0  0  0  0  0  0
  -28.0112  -12.3656   18.6249 C   0  0  0  0  0  0
  -27.6553  -13.2218   19.8708 C   0  0  2  0  0  0
  -28.6971  -13.0476   21.0009 C   0  0  0  0  0  0
  -25.2547  -13.8202   20.5712 C   0  0  0  0  0  0
  -24.1816  -13.0442   20.9193 C   0  0  0  0  0  0
  -24.6388  -11.6923   20.8739 C   0  0  0  0  0  0
  -23.9059  -10.4292   21.0404 C   0  0  0  0  0  0
  -24.3620   -9.4207   21.9178 C   0  0  0  0  0  0
  -23.6291   -8.2245   22.0750 C   0  0  0  0  0  0
  -22.4273   -8.0277   21.3545 C   0  0  0  0  0  0
  -21.9909   -9.0257   20.4643 C   0  0  0  0  0  0
  -22.7240  -10.2125   20.3049 C   0  0  0  0  0  0
  -21.6857   -6.0724   22.5279 C   0  0  0  0  0  0
  -21.4019   -6.5645   23.8206 C   0  0  0  0  0  0
  -21.3659   -5.6788   24.9178 C   0  0  0  0  0  0
  -21.6047   -4.3054   24.7225 C   0  0  0  0  0  0
  -21.8818   -3.8136   23.4356 C   0  0  0  0  0  0
  -21.9193   -4.6951   22.3400 C   0  0  0  0  0  0
  -22.7838  -13.5233   21.1858 C   0  0  0  0  0  0
  -22.1662   -4.2142   21.0972 F   0  0  0  0  0  0
  -21.5625   -3.4526   25.7744 F   0  0  0  0  0  0
  -30.0273  -13.3204   20.4384 N   0  0  0  0  0  0
  -26.2990  -12.9392   20.3362 N   0  0  0  0  0  0
  -25.9319  -11.6533   20.5787 N   0  0  0  0  0  0
  -22.0485  -12.8211   22.0411 N   0  0  0  0  0  0
  -25.4261  -15.1911   20.4138 N   0  0  0  0  0  0
  -31.8874  -14.5712   20.0897 O   0  0  0  0  0  0
  -21.6639   -6.8880   21.4240 O   0  0  0  0  0  0
  -22.3517  -14.5534   20.6712 O   0  0  0  0  0  0
  -24.6178  -31.8667   23.2159 C   0  0  0  0  0  0
  -25.9088  -32.4818   23.8409 C   0  0  1  0  0  0
  -27.2086  -27.3938   20.0873 C   0  0  0  0  0  0
  -25.5969  -33.8631   24.2330 N   0  0  0  0  0  0
  -23.4029  -30.5038   21.5573 C   0  0  2  0  0  0
  -24.8421  -28.9799   20.1116 C   0  0  0  0  0  0
  -22.7417  -29.4708   22.4986 C   0  0  0  0  0  0
  -18.0292  -28.1385   22.8510 C   0  0  0  0  0  0
  -24.1491  -36.7301   23.2631 C   0  0  0  0  0  0
  -25.9410  -30.8197   21.3801 C   0  0  0  0  0  0
  -26.0087  -29.4556   20.7211 C   0  0  0  0  0  0
  -27.1903  -28.6698   20.7174 C   0  0  0  0  0  0
  -26.0263  -26.9882   19.4156 C   0  0  0  0  0  0
  -24.8505  -27.7466   19.4544 C   0  0  0  0  0  0
  -23.6090  -29.8507   20.1690 C   0  0  0  0  0  0
  -25.4134  -36.3111   24.0310 C   0  0  1  0  0  0
  -20.5871  -28.3650   23.1313 C   0  0  2  0  0  0
  -20.6785  -26.9369   22.5422 C   0  0  0  0  0  0
  -19.5751  -26.6370   21.5238 C   0  0  0  0  0  0
  -18.1927  -26.7942   22.1630 C   0  0  0  0  0  0
  -19.1538  -28.8834   23.2918 C   0  0  0  0  0  0
  -18.9451  -30.1457   23.8883 C   0  0  0  0  0  0
  -17.6458  -30.6572   24.0563 C   0  0  0  0  0  0
  -25.9066  -34.9478   23.5102 C   0  0  0  0  0  0
  -16.5358  -29.9058   23.6339 C   0  0  0  0  0  0
  -16.7283  -28.6491   23.0330 C   0  0  0  0  0  0
  -26.4496  -31.6628   25.0757 C   0  0  0  0  0  0
  -25.3734  -31.3803   26.1498 C   0  0  0  0  0  0
  -27.0322  -30.3052   24.6212 C   0  0  0  0  0  0
  -27.6059  -32.4366   25.7507 C   0  0  0  0  0  0
  -27.5594  -37.1800   24.8444 C   0  0  0  0  0  0
  -21.4134  -29.3056   22.3730 N   0  0  0  0  0  0
  -26.4292  -37.3823   23.9402 N   0  0  0  0  0  0
  -24.6715  -31.0769   22.1066 N   0  0  0  0  0  0
  -23.4204  -28.8215   23.2988 O   0  0  0  0  0  0
  -28.3493  -26.5934   20.1576 O   0  0  0  0  0  0
  -26.5588  -34.8918   22.4646 O   0  0  0  0  0  0
  -23.5375  -32.1405   23.7565 O   0  0  0  0  0  0
  -29.3539  -20.6147   22.7397 C   0  0  0  0  0  0
  -30.5162  -19.3666   21.0329 C   0  0  0  0  0  0
  -30.1251  -20.6235   21.5630 C   0  0  0  0  0  0
  -28.9899  -19.4088   23.3748 C   0  0  0  0  0  0
  -30.1940  -18.1339   21.6633 C   0  0  0  0  0  0
  -29.4312  -18.1580   22.8642 C   0  0  0  0  0  0
  -28.0281  -22.7881   20.5892 C   0  0  0  0  0  0
  -30.2275  -22.7281   18.9579 C   0  0  0  0  0  0
  -30.5879  -21.9842   20.9736 C   0  0  1  0  0  0
  -28.8015  -24.1066   20.7024 C   0  0  1  0  0  0
  -31.4206  -22.0548   19.6617 C   0  0  2  0  0  0
  -29.4877  -22.7932   20.2745 C   0  0  2  0  0  0
  -28.1626  -19.5022   24.6461 C   0  0  0  0  0  0
  -29.1376  -16.8756   23.6412 C   0  0  0  0  0  0
  -33.6454  -22.3721   20.6870 C   0  0  0  0  0  0
  -33.2410  -23.1850   18.4220 C   0  0  0  0  0  0
  -30.8454  -16.8638   21.0723 C   0  0  0  0  0  0
  -28.2570  -25.1966   19.7556 C   0  0  0  0  0  0
  -30.1501  -15.5569   21.0808 N   0  0  0  0  0  0
  -32.6352  -22.9170   19.7496 N   0  3  0  0  0  0
  -31.4498  -12.3518   19.1457 H   0  0  0  0  0  0
  -30.2626  -11.3019   19.8576 H   0  0  0  0  0  0
  -29.7317  -11.7688   17.4410 H   0  0  0  0  0  0
  -29.6647  -13.4822   17.7732 H   0  0  0  0  0  0
  -27.8234  -11.3121   18.8315 H   0  0  0  0  0  0
  -27.3618  -12.6286   17.7903 H   0  0  0  0  0  0
  -27.6887  -14.2657   19.5553 H   0  0  0  0  0  0
  -28.6640  -12.0299   21.3943 H   0  0  0  0  0  0
  -28.4691  -13.7027   21.8431 H   0  0  0  0  0  0
  -25.2761   -9.5681   22.4752 H   0  0  0  0  0  0
  -23.9997   -7.4633   22.7459 H   0  0  0  0  0  0
  -21.0840   -8.8768   19.8946 H   0  0  0  0  0  0
  -22.3699  -10.9664   19.6151 H   0  0  0  0  0  0
  -21.2015   -7.6152   23.9717 H   0  0  0  0  0  0
  -21.1483   -6.0519   25.9080 H   0  0  0  0  0  0
  -22.0599   -2.7600   23.2846 H   0  0  0  0  0  0
  -22.4100  -11.9857   22.4776 H   0  0  0  0  0  0
  -21.1099  -13.1231   22.2631 H   0  0  0  0  0  0
  -24.6632  -15.8500   20.5281 H   0  0  0  0  0  0
  -26.2854  -15.6304   20.1078 H   0  0  0  0  0  0
  -26.7153  -32.5473   23.1145 H   0  0  0  0  0  0
  -25.0205  -33.9808   25.0538 H   0  0  0  0  0  0
  -22.7016  -31.3303   21.4281 H   0  0  0  0  0  0
  -23.3768  -35.9619   23.3254 H   0  0  0  0  0  0
  -24.3610  -36.8957   22.2058 H   0  0  0  0  0  0
  -23.7215  -37.6479   23.6673 H   0  0  0  0  0  0
  -26.0730  -31.5886   20.6165 H   0  0  0  0  0  0
  -26.8231  -30.8542   22.0062 H   0  0  0  0  0  0
  -28.0813  -29.0332   21.2090 H   0  0  0  0  0  0
  -25.9473  -26.0958   18.8182 H   0  0  0  0  0  0
  -23.9638  -27.3903   18.9483 H   0  0  0  0  0  0
  -23.7186  -30.6302   19.4142 H   0  0  0  0  0  0
  -22.7301  -29.2761   19.8710 H   0  0  0  0  0  0
  -25.1322  -36.1935   25.0798 H   0  0  0  0  0  0
  -20.9983  -28.3177   24.1430 H   0  0  0  0  0  0
  -20.5685  -26.2250   23.3616 H   0  0  0  0  0  0
  -21.6655  -26.7423   22.1199 H   0  0  0  0  0  0
  -19.6877  -25.6275   21.1248 H   0  0  0  0  0  0
  -19.6668  -27.3214   20.6779 H   0  0  0  0  0  0
  -17.4217  -26.6716   21.4006 H   0  0  0  0  0  0
  -18.0253  -26.0088   22.8993 H   0  0  0  0  0  0
  -19.7931  -30.7300   24.2196 H   0  0  0  0  0  0
  -17.5014  -31.6250   24.5164 H   0  0  0  0  0  0
  -15.5346  -30.2941   23.7712 H   0  0  0  0  0  0
  -15.8695  -28.0829   22.6983 H   0  0  0  0  0  0
  -24.5935  -30.7085   25.7891 H   0  0  0  0  0  0
  -24.8872  -32.2982   26.4785 H   0  0  0  0  0  0
  -25.8065  -30.9110   27.0334 H   0  0  0  0  0  0
  -26.2861  -29.6855   24.1227 H   0  0  0  0  0  0
  -27.4004  -29.7272   25.4698 H   0  0  0  0  0  0
  -27.8761  -30.4316   23.9443 H   0  0  0  0  0  0
  -27.2657  -33.3709   26.1970 H   0  0  0  0  0  0
  -28.3939  -32.6845   25.0386 H   0  0  0  0  0  0
  -28.0649  -31.8559   26.5503 H   0  0  0  0  0  0
  -28.2573  -38.0143   24.7616 H   0  0  0  0  0  0
  -28.1112  -36.2679   24.6103 H   0  0  0  0  0  0
  -27.2314  -37.1282   25.8845 H   0  0  0  0  0  0
  -20.9233  -29.8792   21.6987 H   0  0  0  0  0  0
  -26.0141  -38.2859   24.1501 H   0  0  0  0  0  0
  -29.0593  -21.5569   23.1833 H   0  0  0  0  0  0
  -31.1374  -19.3201   20.1528 H   0  0  0  0  0  0
  -27.3586  -22.6326   19.7458 H   0  0  0  0  0  0
  -27.6754  -22.3639   21.5256 H   0  0  0  0  0  0
  -29.7683  -22.0641   18.2255 H   0  0  0  0  0  0
  -30.4403  -23.6932   18.5001 H   0  0  0  0  0  0
  -31.0328  -22.5647   21.7834 H   0  0  0  0  0  0
  -28.9930  -24.4485   21.7168 H   0  0  0  0  0  0
  -31.6593  -21.0953   19.2117 H   0  0  0  0  0  0
  -27.7455  -20.5003   24.7808 H   0  0  0  0  0  0
  -28.7823  -19.2843   25.5163 H   0  0  0  0  0  0
  -27.3273  -18.8023   24.6231 H   0  0  0  0  0  0
  -28.9561  -17.0559   24.6993 H   0  0  0  0  0  0
  -29.9826  -16.1894   23.6127 H   0  0  0  0  0  0
  -28.2616  -16.3699   23.2356 H   0  0  0  0  0  0
  -33.2456  -22.2370   21.6902 H   0  0  0  0  0  0
  -34.4940  -23.0504   20.7693 H   0  0  0  0  0  0
  -34.0165  -21.4073   20.3387 H   0  0  0  0  0  0
  -32.5541  -23.7036   17.7560 H   0  0  0  0  0  0
  -33.5473  -22.2585   17.9359 H   0  0  0  0  0  0
  -34.1249  -23.8161   18.5127 H   0  0  0  0  0  0
  -31.7986  -16.7404   21.5921 H   0  0  0  0  0  0
  -31.1085  -17.0800   20.0339 H   0  0  0  0  0  0
  -27.2273  -24.8810   19.6407 H   0  0  0  0  0  0
  -28.7043  -25.0876   18.7698 H   0  0  0  0  0  0
  -29.2015  -15.4991   21.4161 H   0  0  0  0  0  0
  -32.3579  -23.8156   20.1201 H   0  0  0  0  0  0
  1 25  1  0  0  0
  1 30  2  0  0  0
  1 89  1  0  0  0
  2  3  1  0  0  0
  2 25  1  0  0  0
  2 91  1  0  0  0
  2 92  1  0  0  0
  3  4  1  0  0  0
  3 93  1  0  0  0
  3 94  1  0  0  0
  4  5  1  0  0  0
  4 95  1  0  0  0
  4 96  1  0  0  0
  5  6  1  0  0  0
  5 26  1  0  0  0
  5 97  1  0  0  0
  6 25  1  0  0  0
  6 98  1  0  0  0
  6 99  1  0  0  0
  7  8  2  0  0  0
  7 26  1  0  0  0
  7 29  1  0  0  0
  8  9  1  0  0  0
  8 22  1  0  0  0
  9 10  1  0  0  0
  9 27  2  0  0  0
 10 11  2  0  0  0
 10 15  1  0  0  0
 11 12  1  0  0  0
 11100  1  0  0  0
 12 13  2  0  0  0
 12101  1  0  0  0
 13 14  1  0  0  0
 13 31  1  0  0  0
 14 15  2  0  0  0
 14102  1  0  0  0
 15103  1  0  0  0
 16 17  2  0  0  0
 16 21  1  0  0  0
 16 31  1  0  0  0
 17 18  1  0  0  0
 17104  1  0  0  0
 18 19  2  0  0  0
 18105  1  0  0  0
 19 20  1  0  0  0
 19 24  1  0  0  0
 20 21  2  0  0  0
 20106  1  0  0  0
 21 23  1  0  0  0
 22 28  1  0  0  0
 22 32  2  0  0  0
 26 27  1  0  0  0
 28107  1  0  0  0
 28108  1  0  0  0
 29109  1  0  0  0
 29110  1  0  0  0
 33 34  1  0  0  0
 33 66  1  0  0  0
 33 70  2  0  0  0
 34 36  1  0  0  0
 34 59  1  0  0  0
 34111  1  0  0  0
 35 44  2  0  0  0
 35 45  1  0  0  0
 35 68  1  0  0  0
 36 56  1  0  0  0
 36112  1  0  0  0
 37 39  1  0  0  0
 37 47  1  0  0  0
 37 66  1  0  0  0
 37113  1  0  0  0
 38 43  2  0  0  0
 38 46  1  0  0  0
 38 47  1  0  0  0
 39 64  1  0  0  0
 39 67  2  0  0  0
 40 52  1  0  0  0
 40 53  2  0  0  0
 40 58  1  0  0  0
 41114  1  0  0  0
 41115  1  0  0  0
 41116  1  0  0  0
 41 48  1  0  0  0
 42 43  1  0  0  0
 42 66  1  0  0  0
 42117  1  0  0  0
 42118  1  0  0  0
 43 44  1  0  0  0
 44119  1  0  0  0
 45 46  2  0  0  0
 45120  1  0  0  0
 46121  1  0  0  0
 47122  1  0  0  0
 47123  1  0  0  0
 48 56  1  0  0  0
 48 65  1  0  0  0
 48124  1  0  0  0
 49 50  1  0  0  0
 49 53  1  0  0  0
 49 64  1  0  0  0
 49125  1  0  0  0
 50 51  1  0  0  0
 50126  1  0  0  0
 50127  1  0  0  0
 51 52  1  0  0  0
 51128  1  0  0  0
 51129  1  0  0  0
 52130  1  0  0  0
 52131  1  0  0  0
 53 54  1  0  0  0
 54 55  2  0  0  0
 54132  1  0  0  0
 55 57  1  0  0  0
 55133  1  0  0  0
 56 69  2  0  0  0
 57 58  2  0  0  0
 57134  1  0  0  0
 58135  1  0  0  0
 59 60  1  0  0  0
 59 61  1  0  0  0
 59 62  1  0  0  0
 60136  1  0  0  0
 60137  1  0  0  0
 60138  1  0  0  0
 61139  1  0  0  0
 61140  1  0  0  0
 61141  1  0  0  0
 62142  1  0  0  0
 62143  1  0  0  0
 62144  1  0  0  0
 63 65  1  0  0  0
 63145  1  0  0  0
 63146  1  0  0  0
 63147  1  0  0  0
 64148  1  0  0  0
 65149  1  0  0  0
 68 88  1  0  0  0
 71 73  2  0  0  0
 71 74  1  0  0  0
 71150  1  0  0  0
 72 73  1  0  0  0
 72 75  2  0  0  0
 72151  1  0  0  0
 73 79  1  0  0  0
 74 76  2  0  0  0
 74 83  1  0  0  0
 75 76  1  0  0  0
 75 87  1  0  0  0
 76 84  1  0  0  0
 77 80  1  0  0  0
 77152  1  0  0  0
 77153  1  0  0  0
 77 82  1  0  0  0
 78 82  1  0  0  0
 78154  1  0  0  0
 78155  1  0  0  0
 78 81  1  0  0  0
 79 81  1  0  0  0
 79 82  1  0  0  0
 79156  1  0  0  0
 80 82  1  0  0  0
 80 88  1  0  0  0
 80157  1  0  0  0
 81 90  1  0  0  0
 81158  1  0  0  0
 83159  1  0  0  0
 83160  1  0  0  0
 83161  1  0  0  0
 84162  1  0  0  0
 84163  1  0  0  0
 84164  1  0  0  0
 85165  1  0  0  0
 85166  1  0  0  0
 85167  1  0  0  0
 85 90  1  0  0  0
 86 90  1  0  0  0
 86168  1  0  0  0
 86169  1  0  0  0
 86170  1  0  0  0
 87 89  1  0  0  0
 87171  1  0  0  0
 87172  1  0  0  0
 88173  1  0  0  0
 88174  1  0  0  0
 89175  1  0  0  0
 90176  1  0  0  0
M  CHG  1  90   1
M  ISO  4   1 100  68 101  88 101  89 100
M  END
> <chiral flag>
0

> <version>
0

> <s_m_source_file>
/data/baiqing/PycharmProjects/Reinvent-master-3.2/result/LINK_invent/BTK/process_docking_weight1_custom_sum_contain_oxygen_bond_distance_aromatic_linkinvent_7_9_3/rearranged_h_0167.sdf

> <i_m_source_file_index>
67

> <r_mmod_Potential_Energy-OPLS-2005>
194.289688110352

> <r_mmod_Stretch_Energy-OPLS-2005>
51.4021987915039

> <r_mmod_Bend_Energy-OPLS-2005>
423.215454101562

> <r_mmod_Torsional_Energy-OPLS-2005>
297.758270263672

> <r_mmod_Improper_Torsional_Energy-OPLS-2005>
3.95079803466797

> <r_mmod_Van_der_Waal_Energy-OPLS-2005>
175.944000244141

> <r_mmod_Electrostatic_Energy-OPLS-2005>
-342.149291992188

> <r_mmod_Solvation_Energy-OPLS-2005>
-439.287628173828

> <b_mmod_Minimization_Converged-OPLS-2005>
0

> <r_mmod_RMS_Derivative-OPLS-2005>
3.68360662460327

$$$$
67
                    3D
 Structure written by MMmdl.
156165  0  0  1  0            999 V2000
  -30.4332  -15.2606   20.3909 C   0  0  0  0  0  0
  -30.4462  -12.8182   19.5194 C   0  0  0  0  0  0
  -29.5354  -12.5807   18.2887 C   0  0  0  0  0  0
  -28.0845  -12.3015   18.7199 C   0  0  0  0  0  0
  -27.6130  -13.2742   19.8282 C   0  0  2  0  0  0
  -28.6487  -13.4443   20.9602 C   0  0  0  0  0  0
  -25.2388  -13.8258   20.5760 C   0  0  0  0  0  0
  -24.1741  -13.0462   20.9275 C   0  0  0  0  0  0
  -24.6395  -11.6945   20.8779 C   0  0  0  0  0  0
  -23.9093  -10.4302   21.0410 C   0  0  0  0  0  0
  -24.3633   -9.4216   21.9184 C   0  0  0  0  0  0
  -23.6307   -8.2247   22.0743 C   0  0  0  0  0  0
  -22.4289   -8.0289   21.3540 C   0  0  0  0  0  0
  -21.9931   -9.0267   20.4640 C   0  0  0  0  0  0
  -22.7261  -10.2146   20.3066 C   0  0  0  0  0  0
  -21.6855   -6.0747   22.5276 C   0  0  0  0  0  0
  -21.4020   -6.5644   23.8208 C   0  0  0  0  0  0
  -21.3652   -5.6798   24.9171 C   0  0  0  0  0  0
  -21.6046   -4.3063   24.7221 C   0  0  0  0  0  0
  -21.8818   -3.8154   23.4342 C   0  0  0  0  0  0
  -21.9194   -4.6969   22.3400 C   0  0  0  0  0  0
  -22.7744  -13.5185   21.1904 C   0  0  0  0  0  0
  -22.1660   -4.2152   21.0980 F   0  0  0  0  0  0
  -21.5617   -3.4550   25.7733 F   0  0  0  0  0  0
  -29.8751  -13.9534   20.3289 N   0  0  0  0  0  0
  -26.2821  -12.9530   20.3256 N   0  0  0  0  0  0
  -25.9333  -11.6633   20.5763 N   0  0  0  0  0  0
  -22.0402  -12.8189   22.0469 N   0  0  0  0  0  0
  -25.4014  -15.2002   20.4164 N   0  0  0  0  0  0
  -31.6586  -15.2707   20.2143 O   0  0  0  0  0  0
  -21.6649   -6.8889   21.4233 O   0  0  0  0  0  0
  -22.3425  -14.5494   20.6736 O   0  0  0  0  0  0
  -24.6662  -31.8215   23.1626 C   0  0  0  0  0  0
  -25.9337  -32.4559   23.8097 C   0  0  1  0  0  0
  -27.2139  -26.9143   20.1556 C   0  0  0  0  0  0
  -25.6005  -33.8374   24.1997 N   0  0  0  0  0  0
  -23.4797  -30.4335   21.5125 C   0  0  2  0  0  0
  -24.9338  -28.8209   20.1093 C   0  0  0  0  0  0
  -22.7685  -29.4451   22.4734 C   0  0  0  0  0  0
  -18.0343  -28.1472   22.8429 C   0  0  0  0  0  0
  -24.1530  -36.7191   23.2637 C   0  0  0  0  0  0
  -26.0542  -30.6198   21.4032 C   0  0  0  0  0  0
  -26.1229  -29.2121   20.7383 C   0  0  0  0  0  0
  -27.2618  -28.2792   20.7304 C   0  0  0  0  0  0
  -25.9925  -26.6806   19.4870 C   0  0  0  0  0  0
  -24.8969  -27.5788   19.4620 C   0  0  0  0  0  0
  -23.7199  -29.7464   20.1425 C   0  0  0  0  0  0
  -25.4173  -36.2912   24.0263 C   0  0  1  0  0  0
  -20.5982  -28.3811   23.1184 C   0  0  2  0  0  0
  -20.6868  -26.9493   22.5422 C   0  0  0  0  0  0
  -19.5843  -26.6411   21.5240 C   0  0  0  0  0  0
  -18.1993  -26.7998   22.1609 C   0  0  0  0  0  0
  -19.1603  -28.8957   23.2788 C   0  0  0  0  0  0
  -18.9519  -30.1541   23.8848 C   0  0  0  0  0  0
  -17.6512  -30.6638   24.0572 C   0  0  0  0  0  0
  -25.9126  -34.9322   23.4930 C   0  0  0  0  0  0
  -16.5402  -29.9125   23.6365 C   0  0  0  0  0  0
  -16.7322  -28.6564   23.0340 C   0  0  0  0  0  0
  -26.4587  -31.6508   25.0619 C   0  0  0  0  0  0
  -25.3658  -31.3827   26.1217 C   0  0  0  0  0  0
  -27.0501  -30.2853   24.6433 C   0  0  0  0  0  0
  -27.6076  -32.4353   25.7426 C   0  0  0  0  0  0
  -27.5577  -37.1748   24.8447 C   0  0  0  0  0  0
  -21.4354  -29.3060   22.3487 N   0  0  0  0  0  0
  -26.4302  -37.3661   23.9370 N   0  0  0  0  0  0
  -24.7535  -30.9871   22.0785 N   0  0  0  0  0  0
  -23.4219  -28.8044   23.2993 O   0  0  0  0  0  0
  -28.2194  -25.8081   20.1721 O   0  0  0  0  0  0
  -26.5729  -34.8869   22.4525 O   0  0  0  0  0  0
  -23.5730  -32.1216   23.6694 O   0  0  0  0  0  0
  -28.7860  -21.1500   20.8605 C   0  0  0  0  0  0
  -27.7183  -22.0436   17.6580 C   0  0  0  0  0  0
  -29.0828  -22.6204   17.3363 C   0  0  0  0  0  0
  -29.0463  -19.6709   20.0860 C   0  0  1  0  0  0
  -28.8544  -22.6107   20.0146 C   0  0  1  0  0  0
  -29.5759  -20.4261   18.8226 C   0  0  2  0  0  0
  -28.8761  -21.8609   18.6349 C   0  0  0  0  0  0
  -29.5961  -19.4932   17.5918 C   0  0  0  0  0  0
  -29.9084  -18.1683   20.6180 C   0  0  0  0  0  0
  -27.9413  -24.1736   20.2516 C   0  0  0  0  0  0
  -29.6496  -16.5201   20.4565 N   0  0  0  0  0  0
  -28.5472  -21.1625   22.0696 O   0  0  0  0  0  0
  -31.4530  -13.0498   19.1716 H   0  0  0  0  0  0
  -30.5428  -11.9150   20.1246 H   0  0  0  0  0  0
  -29.9133  -11.7550   17.6864 H   0  0  0  0  0  0
  -29.5584  -13.4639   17.6501 H   0  0  0  0  0  0
  -28.0420  -11.2770   19.0952 H   0  0  0  0  0  0
  -27.4139  -12.3439   17.8625 H   0  0  0  0  0  0
  -27.5305  -14.2428   19.3335 H   0  0  0  0  0  0
  -28.8197  -12.5113   21.4988 H   0  0  0  0  0  0
  -28.2902  -14.1681   21.6947 H   0  0  0  0  0  0
  -25.2776   -9.5688   22.4773 H   0  0  0  0  0  0
  -24.0013   -7.4637   22.7477 H   0  0  0  0  0  0
  -21.0849   -8.8800   19.8953 H   0  0  0  0  0  0
  -22.3716  -10.9692   19.6187 H   0  0  0  0  0  0
  -21.2023   -7.6152   23.9710 H   0  0  0  0  0  0
  -21.1467   -6.0530   25.9069 H   0  0  0  0  0  0
  -22.0602   -2.7613   23.2848 H   0  0  0  0  0  0
  -22.4021  -11.9860   22.4888 H   0  0  0  0  0  0
  -21.1019  -13.1204   22.2669 H   0  0  0  0  0  0
  -24.6282  -15.8495   20.5226 H   0  0  0  0  0  0
  -26.2352  -15.6382   20.0487 H   0  0  0  0  0  0
  -26.7371  -32.5132   23.0779 H   0  0  0  0  0  0
  -25.0144  -33.9487   25.0143 H   0  0  0  0  0  0
  -22.7891  -31.2623   21.3364 H   0  0  0  0  0  0
  -23.3793  -35.9522   23.3285 H   0  0  0  0  0  0
  -24.3569  -36.8870   22.2043 H   0  0  0  0  0  0
  -23.7349  -37.6385   23.6744 H   0  0  0  0  0  0
  -26.2476  -31.3718   20.6366 H   0  0  0  0  0  0
  -26.9085  -30.6647   22.0682 H   0  0  0  0  0  0
  -28.1760  -28.5731   21.2298 H   0  0  0  0  0  0
  -25.8480  -25.7413   18.9758 H   0  0  0  0  0  0
  -23.9959  -27.2768   18.9442 H   0  0  0  0  0  0
  -23.8720  -30.5122   19.3810 H   0  0  0  0  0  0
  -22.8312  -29.1959   19.8259 H   0  0  0  0  0  0
  -25.1399  -36.1659   25.0760 H   0  0  0  0  0  0
  -21.0047  -28.3473   24.1322 H   0  0  0  0  0  0
  -20.5890  -26.2392   23.3657 H   0  0  0  0  0  0
  -21.6715  -26.7565   22.1152 H   0  0  0  0  0  0
  -19.7031  -25.6311   21.1315 H   0  0  0  0  0  0
  -19.6828  -27.3197   20.6752 H   0  0  0  0  0  0
  -17.4289  -26.6756   21.3976 H   0  0  0  0  0  0
  -18.0365  -26.0169   22.9023 H   0  0  0  0  0  0
  -19.7983  -30.7393   24.2171 H   0  0  0  0  0  0
  -17.5055  -31.6306   24.5212 H   0  0  0  0  0  0
  -15.5398  -30.3005   23.7764 H   0  0  0  0  0  0
  -15.8715  -28.0904   22.7033 H   0  0  0  0  0  0
  -24.5899  -30.7116   25.7500 H   0  0  0  0  0  0
  -24.8782  -32.3052   26.4366 H   0  0  0  0  0  0
  -25.7804  -30.9159   27.0152 H   0  0  0  0  0  0
  -26.3169  -29.6462   24.1476 H   0  0  0  0  0  0
  -27.4020  -29.7292   25.5129 H   0  0  0  0  0  0
  -27.9116  -30.3967   23.9849 H   0  0  0  0  0  0
  -27.2636  -33.3735   26.1799 H   0  0  0  0  0  0
  -28.3972  -32.6790   25.0298 H   0  0  0  0  0  0
  -28.0625  -31.8598   26.5489 H   0  0  0  0  0  0
  -28.2551  -38.0076   24.7451 H   0  0  0  0  0  0
  -28.1119  -36.2587   24.6342 H   0  0  0  0  0  0
  -27.2250  -37.1438   25.8836 H   0  0  0  0  0  0
  -20.9645  -29.8578   21.6471 H   0  0  0  0  0  0
  -26.0124  -38.2701   24.1410 H   0  0  0  0  0  0
  -27.3835  -21.1888   17.0698 H   0  0  0  0  0  0
  -26.9362  -22.7736   17.8588 H   0  0  0  0  0  0
  -29.2070  -23.7010   17.3879 H   0  0  0  0  0  0
  -29.6393  -22.1395   16.5330 H   0  0  0  0  0  0
  -28.0310  -19.3367   19.8596 H   0  0  0  0  0  0
  -29.8817  -22.9159   20.1989 H   0  0  0  0  0  0
  -30.6268  -20.6447   19.0213 H   0  0  0  0  0  0
  -28.6004  -19.2150   17.2519 H   0  0  0  0  0  0
  -30.1107  -18.5620   17.8383 H   0  0  0  0  0  0
  -30.1425  -19.9275   16.7548 H   0  0  0  0  0  0
  -29.9519  -18.2811   21.7004 H   0  0  0  0  0  0
  -30.9489  -18.3064   20.3218 H   0  0  0  0  0  0
  -27.6559  -24.0937   21.3011 H   0  0  0  0  0  0
  -26.9938  -24.0223   19.7361 H   0  0  0  0  0  0
  -28.6695  -16.2979   20.5422 H   0  0  0  0  0  0
  1 25  1  0  0  0
  1 30  2  0  0  0
  1 81  1  0  0  0
  2  3  1  0  0  0
  2 25  1  0  0  0
  2 83  1  0  0  0
  2 84  1  0  0  0
  3  4  1  0  0  0
  3 85  1  0  0  0
  3 86  1  0  0  0
  4  5  1  0  0  0
  4 87  1  0  0  0
  4 88  1  0  0  0
  5  6  1  0  0  0
  5 26  1  0  0  0
  5 89  1  0  0  0
  6 25  1  0  0  0
  6 90  1  0  0  0
  6 91  1  0  0  0
  7  8  2  0  0  0
  7 26  1  0  0  0
  7 29  1  0  0  0
  8  9  1  0  0  0
  8 22  1  0  0  0
  9 10  1  0  0  0
  9 27  2  0  0  0
 10 11  2  0  0  0
 10 15  1  0  0  0
 11 12  1  0  0  0
 11 92  1  0  0  0
 12 13  2  0  0  0
 12 93  1  0  0  0
 13 14  1  0  0  0
 13 31  1  0  0  0
 14 15  2  0  0  0
 14 94  1  0  0  0
 15 95  1  0  0  0
 16 17  2  0  0  0
 16 21  1  0  0  0
 16 31  1  0  0  0
 17 18  1  0  0  0
 17 96  1  0  0  0
 18 19  2  0  0  0
 18 97  1  0  0  0
 19 20  1  0  0  0
 19 24  1  0  0  0
 20 21  2  0  0  0
 20 98  1  0  0  0
 21 23  1  0  0  0
 22 28  1  0  0  0
 22 32  2  0  0  0
 26 27  1  0  0  0
 28 99  1  0  0  0
 28100  1  0  0  0
 29101  1  0  0  0
 29102  1  0  0  0
 33 34  1  0  0  0
 33 66  1  0  0  0
 33 70  2  0  0  0
 34 36  1  0  0  0
 34 59  1  0  0  0
 34103  1  0  0  0
 35 44  2  0  0  0
 35 45  1  0  0  0
 35 68  1  0  0  0
 36 56  1  0  0  0
 36104  1  0  0  0
 37 39  1  0  0  0
 37 47  1  0  0  0
 37 66  1  0  0  0
 37105  1  0  0  0
 38 43  2  0  0  0
 38 46  1  0  0  0
 38 47  1  0  0  0
 39 64  1  0  0  0
 39 67  2  0  0  0
 40 52  1  0  0  0
 40 53  2  0  0  0
 40 58  1  0  0  0
 41106  1  0  0  0
 41107  1  0  0  0
 41108  1  0  0  0
 41 48  1  0  0  0
 42 43  1  0  0  0
 42 66  1  0  0  0
 42109  1  0  0  0
 42110  1  0  0  0
 43 44  1  0  0  0
 44111  1  0  0  0
 45 46  2  0  0  0
 45112  1  0  0  0
 46113  1  0  0  0
 47114  1  0  0  0
 47115  1  0  0  0
 48 56  1  0  0  0
 48 65  1  0  0  0
 48116  1  0  0  0
 49 50  1  0  0  0
 49 53  1  0  0  0
 49 64  1  0  0  0
 49117  1  0  0  0
 50 51  1  0  0  0
 50118  1  0  0  0
 50119  1  0  0  0
 51 52  1  0  0  0
 51120  1  0  0  0
 51121  1  0  0  0
 52122  1  0  0  0
 52123  1  0  0  0
 53 54  1  0  0  0
 54 55  2  0  0  0
 54124  1  0  0  0
 55 57  1  0  0  0
 55125  1  0  0  0
 56 69  2  0  0  0
 57 58  2  0  0  0
 57126  1  0  0  0
 58127  1  0  0  0
 59 60  1  0  0  0
 59 61  1  0  0  0
 59 62  1  0  0  0
 60128  1  0  0  0
 60129  1  0  0  0
 60130  1  0  0  0
 61131  1  0  0  0
 61132  1  0  0  0
 61133  1  0  0  0
 62134  1  0  0  0
 62135  1  0  0  0
 62136  1  0  0  0
 63 65  1  0  0  0
 63137  1  0  0  0
 63138  1  0  0  0
 63139  1  0  0  0
 64140  1  0  0  0
 65141  1  0  0  0
 68 80  1  0  0  0
 71 74  1  0  0  0
 71 75  1  0  0  0
 71 82  2  0  0  0
 72 73  1  0  0  0
 72142  1  0  0  0
 72143  1  0  0  0
 72 77  1  0  0  0
 73 77  1  0  0  0
 73144  1  0  0  0
 73145  1  0  0  0
 74 76  1  0  0  0
 74 79  1  0  0  0
 74146  1  0  0  0
 75 77  1  0  0  0
 75 80  1  0  0  0
 75147  1  0  0  0
 76 77  1  0  0  0
 76 78  1  0  0  0
 76148  1  0  0  0
 78149  1  0  0  0
 78150  1  0  0  0
 78151  1  0  0  0
 79 81  1  0  0  0
 79152  1  0  0  0
 79153  1  0  0  0
 80154  1  0  0  0
 80155  1  0  0  0
 81156  1  0  0  0
M  ISO  4   1 100  68 101  80 101  81 100
M  END
> <chiral flag>
0

> <version>
0

> <s_m_source_file>
/data/baiqing/PycharmProjects/Reinvent-master-3.2/result/LINK_invent/BTK/process_docking_weight1_custom_sum_contain_oxygen_bond_distance_aromatic_linkinvent_7_9_3/rearranged_h_0167.sdf

> <i_m_source_file_index>
68

> <r_mmod_Potential_Energy-OPLS-2005>
1415.701171875

> <r_mmod_Stretch_Energy-OPLS-2005>
594.905151367188

> <r_mmod_Bend_Energy-OPLS-2005>
495.074249267578

> <r_mmod_Torsional_Energy-OPLS-2005>
293.680603027344

> <r_mmod_Improper_Torsional_Energy-OPLS-2005>
4.0519232749939

> <r_mmod_Van_der_Waal_Energy-OPLS-2005>
104.48885345459

> <r_mmod_Electrostatic_Energy-OPLS-2005>
-316.119201660156

> <r_mmod_Solvation_Energy-OPLS-2005>
-223.913513183594

> <b_mmod_Minimization_Converged-OPLS-2005>
0

> <r_mmod_RMS_Derivative-OPLS-2005>
4.81582641601562

$$$$
68
                    3D
 Structure written by MMmdl.
176185  0  0  1  0            999 V2000
  -30.5976  -14.7564   20.4583 C   0  0  0  0  0  0
  -30.4362  -12.4656   19.4605 C   0  0  0  0  0  0
  -29.5083  -12.5062   18.2266 C   0  0  0  0  0  0
  -28.0341  -12.3289   18.6426 C   0  0  0  0  0  0
  -27.6389  -13.2293   19.8437 C   0  0  2  0  0  0
  -28.6861  -13.1645   20.9749 C   0  0  0  0  0  0
  -25.2516  -13.8170   20.5694 C   0  0  0  0  0  0
  -24.1802  -13.0432   20.9210 C   0  0  0  0  0  0
  -24.6391  -11.6910   20.8751 C   0  0  0  0  0  0
  -23.9070  -10.4289   21.0414 C   0  0  0  0  0  0
  -24.3622   -9.4201   21.9189 C   0  0  0  0  0  0
  -23.6294   -8.2239   22.0758 C   0  0  0  0  0  0
  -22.4274   -8.0280   21.3549 C   0  0  0  0  0  0
  -21.9913   -9.0256   20.4652 C   0  0  0  0  0  0
  -22.7244  -10.2133   20.3062 C   0  0  0  0  0  0
  -21.6850   -6.0736   22.5280 C   0  0  0  0  0  0
  -21.4011   -6.5641   23.8213 C   0  0  0  0  0  0
  -21.3661   -5.6793   24.9176 C   0  0  0  0  0  0
  -21.6044   -4.3057   24.7223 C   0  0  0  0  0  0
  -21.8820   -3.8148   23.4346 C   0  0  0  0  0  0
  -21.9191   -4.6965   22.3401 C   0  0  0  0  0  0
  -22.7825  -13.5223   21.1861 C   0  0  0  0  0  0
  -22.1659   -4.2151   21.0979 F   0  0  0  0  0  0
  -21.5632   -3.4541   25.7737 F   0  0  0  0  0  0
  -29.9809  -13.5272   20.3852 N   0  0  0  0  0  0
  -26.2925  -12.9374   20.3251 N   0  0  0  0  0  0
  -25.9315  -11.6520   20.5734 N   0  0  0  0  0  0
  -22.0482  -12.8225   22.0439 N   0  0  0  0  0  0
  -25.4262  -15.1868   20.4124 N   0  0  0  0  0  0
  -31.7973  -14.8589   20.1879 O   0  0  0  0  0  0
  -21.6638   -6.8877   21.4240 O   0  0  0  0  0  0
  -22.3483  -14.5491   20.6668 O   0  0  0  0  0  0
  -24.6318  -31.8529   23.1962 C   0  0  0  0  0  0
  -25.9137  -32.4744   23.8319 C   0  0  1  0  0  0
  -27.2245  -27.2593   20.1320 C   0  0  0  0  0  0
  -25.5928  -33.8548   24.2238 N   0  0  0  0  0  0
  -23.4291  -30.4749   21.5393 C   0  0  2  0  0  0
  -24.8767  -28.9161   20.1125 C   0  0  0  0  0  0
  -22.7506  -29.4592   22.4905 C   0  0  0  0  0  0
  -18.0288  -28.1389   22.8472 C   0  0  0  0  0  0
  -24.1488  -36.7275   23.2645 C   0  0  0  0  0  0
  -25.9746  -30.7670   21.3734 C   0  0  0  0  0  0
  -26.0487  -29.3886   20.7166 C   0  0  0  0  0  0
  -27.2273  -28.5751   20.7081 C   0  0  0  0  0  0
  -26.0264  -26.8465   19.5111 C   0  0  0  0  0  0
  -24.8708  -27.6537   19.4979 C   0  0  0  0  0  0
  -23.6477  -29.8040   20.1570 C   0  0  0  0  0  0
  -25.4114  -36.3060   24.0326 C   0  0  1  0  0  0
  -20.5896  -28.3696   23.1258 C   0  0  2  0  0  0
  -20.6779  -26.9413   22.5400 C   0  0  0  0  0  0
  -19.5761  -26.6378   21.5202 C   0  0  0  0  0  0
  -18.1937  -26.7930   22.1615 C   0  0  0  0  0  0
  -19.1545  -28.8859   23.2861 C   0  0  0  0  0  0
  -18.9474  -30.1460   23.8879 C   0  0  0  0  0  0
  -17.6477  -30.6590   24.0562 C   0  0  0  0  0  0
  -25.9052  -34.9433   23.5085 C   0  0  0  0  0  0
  -16.5364  -29.9090   23.6340 C   0  0  0  0  0  0
  -16.7275  -28.6512   23.0346 C   0  0  0  0  0  0
  -26.4494  -31.6582   25.0719 C   0  0  0  0  0  0
  -25.3712  -31.3747   26.1442 C   0  0  0  0  0  0
  -27.0352  -30.3003   24.6205 C   0  0  0  0  0  0
  -27.6044  -32.4327   25.7490 C   0  0  0  0  0  0
  -27.5571  -37.1794   24.8466 C   0  0  0  0  0  0
  -21.4213  -29.3042   22.3651 N   0  0  0  0  0  0
  -26.4284  -37.3763   23.9411 N   0  0  0  0  0  0
  -24.6979  -31.0500   22.0930 N   0  0  0  0  0  0
  -23.4204  -28.8135   23.3006 O   0  0  0  0  0  0
  -28.3294  -26.3759   20.1607 O   0  0  0  0  0  0
  -26.5634  -34.8915   22.4660 O   0  0  0  0  0  0
  -23.5469  -32.1347   23.7256 O   0  0  0  0  0  0
  -26.6309  -18.9470   22.0069 C   0  0  0  0  0  0
  -26.2608  -18.8256   19.6012 C   0  0  0  0  0  0
  -27.1091  -19.0810   20.6924 C   0  0  0  0  0  0
  -25.2908  -18.5715   22.2351 C   0  0  0  0  0  0
  -24.9157  -18.4605   19.8147 C   0  0  0  0  0  0
  -24.4205  -18.3331   21.1399 C   0  0  0  0  0  0
  -28.4990  -19.4611   20.4468 C   0  0  0  0  0  0
  -29.0954  -20.6767   20.4267 C   0  0  0  0  0  0
  -30.4825  -20.0232   20.2675 C   0  0  0  0  0  0
  -29.7546  -18.6120   20.0773 C   0  0  1  0  0  0
  -24.8059  -18.4226   23.6671 C   0  0  0  0  0  0
  -24.0365  -18.2005   18.6025 C   0  0  0  0  0  0
  -22.9751  -17.9290   21.4111 C   0  0  0  0  0  0
  -29.0342  -22.3987   22.2983 C   0  0  0  0  0  0
  -30.4194  -23.7389   19.8027 C   0  0  0  0  0  0
  -30.1851  -17.3315   20.9767 C   0  0  0  0  0  0
  -28.0931  -24.8886   20.2415 C   0  0  0  0  0  0
  -28.6230  -22.1552   20.8365 C   0  0  1  0  0  0
  -28.9034  -23.4813   19.9273 C   0  0  2  0  0  0
  -29.8072  -15.8824   20.6491 N   0  0  0  0  0  0
  -31.4745  -12.6052   19.1538 H   0  0  0  0  0  0
  -30.3936  -11.4905   19.9475 H   0  0  0  0  0  0
  -29.7921  -11.7301   17.5144 H   0  0  0  0  0  0
  -29.6306  -13.4576   17.7066 H   0  0  0  0  0  0
  -27.8902  -11.2800   18.9048 H   0  0  0  0  0  0
  -27.3771  -12.5219   17.7938 H   0  0  0  0  0  0
  -27.6309  -14.2501   19.4612 H   0  0  0  0  0  0
  -28.7285  -12.1647   21.4092 H   0  0  0  0  0  0
  -28.4202  -13.8413   21.7884 H   0  0  0  0  0  0
  -25.2771   -9.5672   22.4761 H   0  0  0  0  0  0
  -24.0005   -7.4626   22.7475 H   0  0  0  0  0  0
  -21.0847   -8.8776   19.8955 H   0  0  0  0  0  0
  -22.3711  -10.9673   19.6171 H   0  0  0  0  0  0
  -21.2001   -7.6149   23.9717 H   0  0  0  0  0  0
  -21.1486   -6.0524   25.9080 H   0  0  0  0  0  0
  -22.0598   -2.7610   23.2845 H   0  0  0  0  0  0
  -22.4116  -11.9905   22.4842 H   0  0  0  0  0  0
  -21.1097  -13.1240   22.2631 H   0  0  0  0  0  0
  -24.6852  -15.8613   20.5725 H   0  0  0  0  0  0
  -26.2777  -15.6292   20.0946 H   0  0  0  0  0  0
  -26.7205  -32.5384   23.1063 H   0  0  0  0  0  0
  -25.0079  -33.9682   25.0389 H   0  0  0  0  0  0
  -22.7260  -31.2971   21.3902 H   0  0  0  0  0  0
  -23.3753  -35.9607   23.3302 H   0  0  0  0  0  0
  -24.3580  -36.8899   22.2062 H   0  0  0  0  0  0
  -23.7243  -37.6475   23.6671 H   0  0  0  0  0  0
  -26.1125  -31.5275   20.6035 H   0  0  0  0  0  0
  -26.8528  -30.8161   22.0058 H   0  0  0  0  0  0
  -28.1277  -28.9355   21.1857 H   0  0  0  0  0  0
  -25.9690  -25.8761   19.0391 H   0  0  0  0  0  0
  -23.9723  -27.2855   19.0219 H   0  0  0  0  0  0
  -23.7725  -30.5781   19.3988 H   0  0  0  0  0  0
  -22.7662  -29.2360   19.8533 H   0  0  0  0  0  0
  -25.1297  -36.1904   25.0818 H   0  0  0  0  0  0
  -20.9976  -28.3268   24.1382 H   0  0  0  0  0  0
  -20.5668  -26.2303   23.3604 H   0  0  0  0  0  0
  -21.6648  -26.7429   22.1203 H   0  0  0  0  0  0
  -19.6923  -25.6284   21.1239 H   0  0  0  0  0  0
  -19.6706  -27.3183   20.6733 H   0  0  0  0  0  0
  -17.4206  -26.6666   21.4018 H   0  0  0  0  0  0
  -18.0346  -26.0075   22.9018 H   0  0  0  0  0  0
  -19.7955  -30.7274   24.2233 H   0  0  0  0  0  0
  -17.5041  -31.6271   24.5167 H   0  0  0  0  0  0
  -15.5367  -30.2994   23.7680 H   0  0  0  0  0  0
  -15.8672  -28.0838   22.7061 H   0  0  0  0  0  0
  -24.5901  -30.7067   25.7786 H   0  0  0  0  0  0
  -24.8882  -32.2922   26.4821 H   0  0  0  0  0  0
  -25.8032  -30.8976   27.0249 H   0  0  0  0  0  0
  -26.2946  -29.6745   24.1209 H   0  0  0  0  0  0
  -27.4030  -29.7264   25.4722 H   0  0  0  0  0  0
  -27.8815  -30.4291   23.9453 H   0  0  0  0  0  0
  -27.2653  -33.3644   26.2032 H   0  0  0  0  0  0
  -28.3870  -32.6859   25.0323 H   0  0  0  0  0  0
  -28.0689  -31.8472   26.5435 H   0  0  0  0  0  0
  -28.2586  -38.0093   24.7503 H   0  0  0  0  0  0
  -28.1066  -36.2622   24.6296 H   0  0  0  0  0  0
  -27.2288  -37.1444   25.8869 H   0  0  0  0  0  0
  -20.9403  -29.8773   21.6859 H   0  0  0  0  0  0
  -26.0158  -38.2831   24.1425 H   0  0  0  0  0  0
  -27.2968  -19.1321   22.8385 H   0  0  0  0  0  0
  -26.6481  -18.9200   18.5958 H   0  0  0  0  0  0
  -31.1245  -20.0393   21.1495 H   0  0  0  0  0  0
  -31.0694  -20.3109   19.3945 H   0  0  0  0  0  0
  -29.7831  -18.3375   19.0221 H   0  0  0  0  0  0
  -25.6121  -18.5850   24.3833 H   0  0  0  0  0  0
  -24.4124  -17.4202   23.8378 H   0  0  0  0  0  0
  -24.0189  -19.1453   23.8826 H   0  0  0  0  0  0
  -24.5903  -18.3254   17.6715 H   0  0  0  0  0  0
  -23.1975  -18.8961   18.5813 H   0  0  0  0  0  0
  -23.6477  -17.1816   18.6196 H   0  0  0  0  0  0
  -22.9449  -16.9930   21.9694 H   0  0  0  0  0  0
  -22.3795  -17.7828   20.5118 H   0  0  0  0  0  0
  -22.4739  -18.6939   22.0046 H   0  0  0  0  0  0
  -28.7048  -21.5778   22.9368 H   0  0  0  0  0  0
  -28.5892  -23.3098   22.6973 H   0  0  0  0  0  0
  -30.1164  -22.4780   22.4024 H   0  0  0  0  0  0
  -30.6282  -24.5102   19.0605 H   0  0  0  0  0  0
  -30.9519  -22.8402   19.4930 H   0  0  0  0  0  0
  -30.8520  -24.0706   20.7467 H   0  0  0  0  0  0
  -29.8522  -17.5049   22.0008 H   0  0  0  0  0  0
  -31.2731  -17.3423   21.0524 H   0  0  0  0  0  0
  -28.3430  -25.1240   19.2056 H   0  0  0  0  0  0
  -28.6958  -25.0292   21.1388 H   0  0  0  0  0  0
  -27.5352  -22.0671   20.8466 H   0  0  0  0  0  0
  -28.5798  -23.1611   18.9332 H   0  0  0  0  0  0
  -28.8251  -15.6774   20.7505 H   0  0  0  0  0  0
  1 25  1  0  0  0
  1 30  2  0  0  0
  1 90  1  0  0  0
  2  3  1  0  0  0
  2 25  1  0  0  0
  2 91  1  0  0  0
  2 92  1  0  0  0
  3  4  1  0  0  0
  3 93  1  0  0  0
  3 94  1  0  0  0
  4  5  1  0  0  0
  4 95  1  0  0  0
  4 96  1  0  0  0
  5  6  1  0  0  0
  5 26  1  0  0  0
  5 97  1  0  0  0
  6 25  1  0  0  0
  6 98  1  0  0  0
  6 99  1  0  0  0
  7  8  2  0  0  0
  7 26  1  0  0  0
  7 29  1  0  0  0
  8  9  1  0  0  0
  8 22  1  0  0  0
  9 10  1  0  0  0
  9 27  2  0  0  0
 10 11  2  0  0  0
 10 15  1  0  0  0
 11 12  1  0  0  0
 11100  1  0  0  0
 12 13  2  0  0  0
 12101  1  0  0  0
 13 14  1  0  0  0
 13 31  1  0  0  0
 14 15  2  0  0  0
 14102  1  0  0  0
 15103  1  0  0  0
 16 17  2  0  0  0
 16 21  1  0  0  0
 16 31  1  0  0  0
 17 18  1  0  0  0
 17104  1  0  0  0
 18 19  2  0  0  0
 18105  1  0  0  0
 19 20  1  0  0  0
 19 24  1  0  0  0
 20 21  2  0  0  0
 20106  1  0  0  0
 21 23  1  0  0  0
 22 28  1  0  0  0
 22 32  2  0  0  0
 26 27  1  0  0  0
 28107  1  0  0  0
 28108  1  0  0  0
 29109  1  0  0  0
 29110  1  0  0  0
 33 34  1  0  0  0
 33 66  1  0  0  0
 33 70  2  0  0  0
 34 36  1  0  0  0
 34 59  1  0  0  0
 34111  1  0  0  0
 35 44  2  0  0  0
 35 45  1  0  0  0
 35 68  1  0  0  0
 36 56  1  0  0  0
 36112  1  0  0  0
 37 39  1  0  0  0
 37 47  1  0  0  0
 37 66  1  0  0  0
 37113  1  0  0  0
 38 43  2  0  0  0
 38 46  1  0  0  0
 38 47  1  0  0  0
 39 64  1  0  0  0
 39 67  2  0  0  0
 40 52  1  0  0  0
 40 53  2  0  0  0
 40 58  1  0  0  0
 41114  1  0  0  0
 41115  1  0  0  0
 41116  1  0  0  0
 41 48  1  0  0  0
 42 43  1  0  0  0
 42 66  1  0  0  0
 42117  1  0  0  0
 42118  1  0  0  0
 43 44  1  0  0  0
 44119  1  0  0  0
 45 46  2  0  0  0
 45120  1  0  0  0
 46121  1  0  0  0
 47122  1  0  0  0
 47123  1  0  0  0
 48 56  1  0  0  0
 48 65  1  0  0  0
 48124  1  0  0  0
 49 50  1  0  0  0
 49 53  1  0  0  0
 49 64  1  0  0  0
 49125  1  0  0  0
 50 51  1  0  0  0
 50126  1  0  0  0
 50127  1  0  0  0
 51 52  1  0  0  0
 51128  1  0  0  0
 51129  1  0  0  0
 52130  1  0  0  0
 52131  1  0  0  0
 53 54  1  0  0  0
 54 55  2  0  0  0
 54132  1  0  0  0
 55 57  1  0  0  0
 55133  1  0  0  0
 56 69  2  0  0  0
 57 58  2  0  0  0
 57134  1  0  0  0
 58135  1  0  0  0
 59 60  1  0  0  0
 59 61  1  0  0  0
 59 62  1  0  0  0
 60136  1  0  0  0
 60137  1  0  0  0
 60138  1  0  0  0
 61139  1  0  0  0
 61140  1  0  0  0
 61141  1  0  0  0
 62142  1  0  0  0
 62143  1  0  0  0
 62144  1  0  0  0
 63 65  1  0  0  0
 63145  1  0  0  0
 63146  1  0  0  0
 63147  1  0  0  0
 64148  1  0  0  0
 65149  1  0  0  0
 68 87  1  0  0  0
 71 73  2  0  0  0
 71 74  1  0  0  0
 71150  1  0  0  0
 72 73  1  0  0  0
 72 75  2  0  0  0
 72151  1  0  0  0
 73 77  1  0  0  0
 74 76  2  0  0  0
 74 81  1  0  0  0
 75 76  1  0  0  0
 75 82  1  0  0  0
 76 83  1  0  0  0
 77 78  2  0  0  0
 77 80  1  0  0  0
 78 79  1  0  0  0
 78 88  1  0  0  0
 79 80  1  0  0  0
 79152  1  0  0  0
 79153  1  0  0  0
 80 86  1  0  0  0
 80154  1  0  0  0
 81155  1  0  0  0
 81156  1  0  0  0
 81157  1  0  0  0
 82158  1  0  0  0
 82159  1  0  0  0
 82160  1  0  0  0
 83161  1  0  0  0
 83162  1  0  0  0
 83163  1  0  0  0
 84164  1  0  0  0
 84165  1  0  0  0
 84166  1  0  0  0
 84 88  1  0  0  0
 85167  1  0  0  0
 85168  1  0  0  0
 85169  1  0  0  0
 85 89  1  0  0  0
 86 90  1  0  0  0
 86170  1  0  0  0
 86171  1  0  0  0
 87 89  1  0  0  0
 87172  1  0  0  0
 87173  1  0  0  0
 88 89  1  0  0  0
 88174  1  0  0  0
 89175  1  0  0  0
 90176  1  0  0  0
M  ISO  4   1 100  68 101  87 101  90 100
M  END
> <chiral flag>
0

> <version>
0

> <s_m_source_file>
/data/baiqing/PycharmProjects/Reinvent-master-3.2/result/LINK_invent/BTK/process_docking_weight1_custom_sum_contain_oxygen_bond_distance_aromatic_linkinvent_7_9_3/rearranged_h_0167.sdf

> <i_m_source_file_index>
69

> <r_mmod_Potential_Energy-OPLS-2005>
440.334320068359

> <r_mmod_Stretch_Energy-OPLS-2005>
136.321319580078

> <r_mmod_Bend_Energy-OPLS-2005>
431.350891113281

> <r_mmod_Torsional_Energy-OPLS-2005>
267.343872070312

> <r_mmod_Improper_Torsional_Energy-OPLS-2005>
5.44320440292358

> <r_mmod_Van_der_Waal_Energy-OPLS-2005>
120.895050048828

> <r_mmod_Electrostatic_Energy-OPLS-2005>
-427.732788085938

> <r_mmod_Solvation_Energy-OPLS-2005>
-181.862091064453

> <b_mmod_Minimization_Converged-OPLS-2005>
0

> <r_mmod_RMS_Derivative-OPLS-2005>
0.928295254707336

$$$$
69
                    3D
 Structure written by MMmdl.
176186  0  0  1  0            999 V2000
  -30.5704  -14.6981   20.5574 C   0  0  0  0  0  0
  -30.4406  -12.4467   19.4719 C   0  0  0  0  0  0
  -29.5129  -12.5334   18.2368 C   0  0  0  0  0  0
  -28.0366  -12.3420   18.6407 C   0  0  0  0  0  0
  -27.6438  -13.2093   19.8643 C   0  0  2  0  0  0
  -28.6765  -13.0762   21.0020 C   0  0  0  0  0  0
  -25.2552  -13.8133   20.5638 C   0  0  0  0  0  0
  -24.1804  -13.0447   20.9127 C   0  0  0  0  0  0
  -24.6345  -11.6894   20.8706 C   0  0  0  0  0  0
  -23.9022  -10.4289   21.0418 C   0  0  0  0  0  0
  -24.3597   -9.4233   21.9209 C   0  0  0  0  0  0
  -23.6278   -8.2280   22.0787 C   0  0  0  0  0  0
  -22.4271   -8.0287   21.3583 C   0  0  0  0  0  0
  -21.9886   -9.0241   20.4680 C   0  0  0  0  0  0
  -22.7192  -10.2124   20.3080 C   0  0  0  0  0  0
  -21.6863   -6.0730   22.5276 C   0  0  0  0  0  0
  -21.4005   -6.5636   23.8213 C   0  0  0  0  0  0
  -21.3661   -5.6795   24.9171 C   0  0  0  0  0  0
  -21.6045   -4.3059   24.7223 C   0  0  0  0  0  0
  -21.8834   -3.8151   23.4357 C   0  0  0  0  0  0
  -21.9215   -4.6959   22.3406 C   0  0  0  0  0  0
  -22.7849  -13.5263   21.1810 C   0  0  0  0  0  0
  -22.1695   -4.2147   21.0978 F   0  0  0  0  0  0
  -21.5631   -3.4551   25.7751 F   0  0  0  0  0  0
  -29.9808  -13.4604   20.4467 N   0  0  0  0  0  0
  -26.2909  -12.9274   20.3261 N   0  0  0  0  0  0
  -25.9243  -11.6447   20.5694 N   0  0  0  0  0  0
  -22.0502  -12.8231   22.0344 N   0  0  0  0  0  0
  -25.4360  -15.1866   20.4048 N   0  0  0  0  0  0
  -31.7359  -14.8730   20.1900 O   0  0  0  0  0  0
  -21.6665   -6.8858   21.4234 O   0  0  0  0  0  0
  -22.3547  -14.5605   20.6707 O   0  0  0  0  0  0
  -24.6266  -31.8617   23.2034 C   0  0  0  0  0  0
  -25.9101  -32.4800   23.8393 C   0  0  1  0  0  0
  -27.2133  -27.2863   20.1700 C   0  0  0  0  0  0
  -25.5929  -33.8597   24.2318 N   0  0  0  0  0  0
  -23.4264  -30.4812   21.5458 C   0  0  2  0  0  0
  -24.8766  -28.9289   20.1255 C   0  0  0  0  0  0
  -22.7490  -29.4632   22.4946 C   0  0  0  0  0  0
  -18.0293  -28.1383   22.8470 C   0  0  0  0  0  0
  -24.1498  -36.7284   23.2641 C   0  0  0  0  0  0
  -25.9688  -30.7813   21.3873 C   0  0  0  0  0  0
  -26.0447  -29.3992   20.7450 C   0  0  0  0  0  0
  -27.2223  -28.5875   20.7664 C   0  0  0  0  0  0
  -26.0401  -26.8869   19.5049 C   0  0  0  0  0  0
  -24.8772  -27.6771   19.4922 C   0  0  0  0  0  0
  -23.6489  -29.8146   20.1633 C   0  0  0  0  0  0
  -25.4129  -36.3096   24.0340 C   0  0  1  0  0  0
  -20.5889  -28.3698   23.1264 C   0  0  2  0  0  0
  -20.6772  -26.9420   22.5399 C   0  0  0  0  0  0
  -19.5752  -26.6369   21.5203 C   0  0  0  0  0  0
  -18.1932  -26.7933   22.1607 C   0  0  0  0  0  0
  -19.1544  -28.8857   23.2863 C   0  0  0  0  0  0
  -18.9471  -30.1451   23.8885 C   0  0  0  0  0  0
  -17.6465  -30.6577   24.0559 C   0  0  0  0  0  0
  -25.9060  -34.9468   23.5124 C   0  0  0  0  0  0
  -16.5360  -29.9068   23.6336 C   0  0  0  0  0  0
  -16.7282  -28.6487   23.0353 C   0  0  0  0  0  0
  -26.4481  -31.6587   25.0747 C   0  0  0  0  0  0
  -25.3702  -31.3718   26.1463 C   0  0  0  0  0  0
  -27.0292  -30.2998   24.6190 C   0  0  0  0  0  0
  -27.6084  -32.4271   25.7498 C   0  0  0  0  0  0
  -27.5596  -37.1814   24.8477 C   0  0  0  0  0  0
  -21.4196  -29.3051   22.3665 N   0  0  0  0  0  0
  -26.4320  -37.3775   23.9400 N   0  0  0  0  0  0
  -24.6924  -31.0594   22.1019 N   0  0  0  0  0  0
  -23.4183  -28.8170   23.3059 O   0  0  0  0  0  0
  -28.2671  -26.3709   20.0664 O   0  0  0  0  0  0
  -26.5617  -34.8924   22.4678 O   0  0  0  0  0  0
  -23.5414  -32.1445   23.7301 O   0  0  0  0  0  0
  -28.1228  -20.5097   21.9156 C   0  0  0  0  0  0
  -28.0792  -21.9308   22.0699 C   0  0  0  0  0  0
  -28.8461  -22.8157   21.2815 C   0  0  0  0  0  0
  -29.6344  -22.2286   20.2386 C   0  0  0  0  0  0
  -28.9680  -19.8791   20.9559 C   0  0  0  0  0  0
  -29.7153  -20.7765   20.1190 C   0  0  0  0  0  0
  -29.5616  -24.1851   18.4846 C   0  0  0  0  0  0
  -30.1217  -22.9969   17.7567 C   0  0  0  0  0  0
  -27.4999  -24.1852   22.7485 C   0  0  0  0  0  0
  -30.3346  -23.1385   19.2569 C   0  0  0  0  0  0
  -27.2163  -22.6842   23.0819 C   0  0  0  0  0  0
  -28.7989  -24.2795   21.9041 C   0  0  1  0  0  0
  -30.6017  -20.1262   19.0597 C   0  0  0  0  0  0
  -27.5945  -22.3399   24.5462 C   0  0  0  0  0  0
  -25.7175  -22.3586   22.9042 C   0  0  0  0  0  0
  -29.9963  -24.2979   22.8922 C   0  0  0  0  0  0
  -28.8848  -18.2936   20.7169 C   0  0  0  0  0  0
  -28.9497  -25.7551   21.2056 C   0  0  0  0  0  0
  -30.0487  -17.2442   21.1025 C   0  0  0  0  0  0
  -29.7574  -15.7525   20.9357 N   0  0  0  0  0  0
  -31.4776  -12.6141   19.1733 H   0  0  0  0  0  0
  -30.4121  -11.4498   19.9182 H   0  0  0  0  0  0
  -29.8044  -11.7858   17.5009 H   0  0  0  0  0  0
  -29.6366  -13.5050   17.7515 H   0  0  0  0  0  0
  -27.8861  -11.2841   18.8677 H   0  0  0  0  0  0
  -27.3822  -12.5662   17.7991 H   0  0  0  0  0  0
  -27.6541  -14.2428   19.5200 H   0  0  0  0  0  0
  -28.7043  -12.0482   21.3688 H   0  0  0  0  0  0
  -28.4020  -13.6938   21.8599 H   0  0  0  0  0  0
  -25.2742   -9.5735   22.4746 H   0  0  0  0  0  0
  -24.0031   -7.4676   22.7477 H   0  0  0  0  0  0
  -21.0848   -8.8702   19.8927 H   0  0  0  0  0  0
  -22.3637  -10.9660   19.6186 H   0  0  0  0  0  0
  -21.1956   -7.6144   23.9692 H   0  0  0  0  0  0
  -21.1473   -6.0529   25.9063 H   0  0  0  0  0  0
  -22.0601   -2.7604   23.2855 H   0  0  0  0  0  0
  -22.4142  -11.9902   22.4743 H   0  0  0  0  0  0
  -21.1138  -13.1300   22.2589 H   0  0  0  0  0  0
  -24.6676  -15.8424   20.4883 H   0  0  0  0  0  0
  -26.2865  -15.6160   20.0633 H   0  0  0  0  0  0
  -26.7168  -32.5471   23.1153 H   0  0  0  0  0  0
  -25.0092  -33.9784   25.0471 H   0  0  0  0  0  0
  -22.7207  -31.3003   21.3952 H   0  0  0  0  0  0
  -23.3798  -35.9576   23.3273 H   0  0  0  0  0  0
  -24.3597  -36.8922   22.2058 H   0  0  0  0  0  0
  -23.7201  -37.6453   23.6679 H   0  0  0  0  0  0
  -26.1038  -31.5388   20.6146 H   0  0  0  0  0  0
  -26.8476  -30.8370   22.0192 H   0  0  0  0  0  0
  -28.1242  -28.9540   21.2349 H   0  0  0  0  0  0
  -26.0228  -25.9301   19.0044 H   0  0  0  0  0  0
  -23.9913  -27.3163   18.9902 H   0  0  0  0  0  0
  -23.7800  -30.5891   19.4070 H   0  0  0  0  0  0
  -22.7715  -29.2461   19.8536 H   0  0  0  0  0  0
  -25.1308  -36.1977   25.0834 H   0  0  0  0  0  0
  -20.9983  -28.3271   24.1387 H   0  0  0  0  0  0
  -20.5660  -26.2323   23.3605 H   0  0  0  0  0  0
  -21.6643  -26.7438   22.1214 H   0  0  0  0  0  0
  -19.6915  -25.6271   21.1256 H   0  0  0  0  0  0
  -19.6681  -27.3161   20.6716 H   0  0  0  0  0  0
  -17.4206  -26.6710   21.3995 H   0  0  0  0  0  0
  -18.0301  -26.0074   22.8995 H   0  0  0  0  0  0
  -19.7929  -30.7283   24.2257 H   0  0  0  0  0  0
  -17.5008  -31.6262   24.5134 H   0  0  0  0  0  0
  -15.5362  -30.2973   23.7631 H   0  0  0  0  0  0
  -15.8687  -28.0799   22.7083 H   0  0  0  0  0  0
  -24.5868  -30.7098   25.7756 H   0  0  0  0  0  0
  -24.8918  -32.2879   26.4933 H   0  0  0  0  0  0
  -25.8011  -30.8831   27.0211 H   0  0  0  0  0  0
  -26.2841  -29.6765   24.1237 H   0  0  0  0  0  0
  -27.3986  -29.7244   25.4691 H   0  0  0  0  0  0
  -27.8729  -30.4269   23.9405 H   0  0  0  0  0  0
  -27.2786  -33.3620   26.2038 H   0  0  0  0  0  0
  -28.3922  -32.6721   25.0318 H   0  0  0  0  0  0
  -28.0709  -31.8385   26.5436 H   0  0  0  0  0  0
  -28.2643  -38.0082   24.7490 H   0  0  0  0  0  0
  -28.1066  -36.2615   24.6363 H   0  0  0  0  0  0
  -27.2306  -37.1524   25.8878 H   0  0  0  0  0  0
  -20.9385  -29.8814   21.6900 H   0  0  0  0  0  0
  -26.0220  -38.2862   24.1357 H   0  0  0  0  0  0
  -27.4844  -19.9005   22.5417 H   0  0  0  0  0  0
  -28.4810  -24.2167   18.6195 H   0  0  0  0  0  0
  -30.0410  -25.1444   18.2998 H   0  0  0  0  0  0
  -30.9711  -23.1743   17.0995 H   0  0  0  0  0  0
  -29.4135  -22.2450   17.4058 H   0  0  0  0  0  0
  -27.5077  -24.8296   23.6297 H   0  0  0  0  0  0
  -26.6909  -24.5618   22.1190 H   0  0  0  0  0  0
  -31.3392  -23.3939   19.5898 H   0  0  0  0  0  0
  -31.2375  -20.8204   18.5157 H   0  0  0  0  0  0
  -29.9892  -19.5940   18.3308 H   0  0  0  0  0  0
  -31.2785  -19.4086   19.5207 H   0  0  0  0  0  0
  -28.6320  -22.5454   24.7897 H   0  0  0  0  0  0
  -27.4236  -21.2863   24.7731 H   0  0  0  0  0  0
  -26.9912  -22.9158   25.2519 H   0  0  0  0  0  0
  -25.3734  -22.5844   21.8943 H   0  0  0  0  0  0
  -25.1043  -22.9380   23.6015 H   0  0  0  0  0  0
  -25.5086  -21.3032   23.0889 H   0  0  0  0  0  0
  -30.0601  -23.3986   23.5003 H   0  0  0  0  0  0
  -29.9542  -25.1516   23.5721 H   0  0  0  0  0  0
  -30.9482  -24.3564   22.3618 H   0  0  0  0  0  0
  -28.6699  -18.1554   19.6564 H   0  0  0  0  0  0
  -27.9693  -17.9592   21.2047 H   0  0  0  0  0  0
  -29.9949  -25.8486   20.9114 H   0  0  0  0  0  0
  -28.8400  -26.4784   22.0128 H   0  0  0  0  0  0
  -30.3059  -17.3916   22.1540 H   0  0  0  0  0  0
  -30.9533  -17.4764   20.5439 H   0  0  0  0  0  0
  -28.8171  -15.4749   21.1766 H   0  0  0  0  0  0
  1 25  1  0  0  0
  1 30  2  0  0  0
  1 90  1  0  0  0
  2  3  1  0  0  0
  2 25  1  0  0  0
  2 91  1  0  0  0
  2 92  1  0  0  0
  3  4  1  0  0  0
  3 93  1  0  0  0
  3 94  1  0  0  0
  4  5  1  0  0  0
  4 95  1  0  0  0
  4 96  1  0  0  0
  5  6  1  0  0  0
  5 26  1  0  0  0
  5 97  1  0  0  0
  6 25  1  0  0  0
  6 98  1  0  0  0
  6 99  1  0  0  0
  7  8  2  0  0  0
  7 26  1  0  0  0
  7 29  1  0  0  0
  8  9  1  0  0  0
  8 22  1  0  0  0
  9 10  1  0  0  0
  9 27  2  0  0  0
 10 11  2  0  0  0
 10 15  1  0  0  0
 11 12  1  0  0  0
 11100  1  0  0  0
 12 13  2  0  0  0
 12101  1  0  0  0
 13 14  1  0  0  0
 13 31  1  0  0  0
 14 15  2  0  0  0
 14102  1  0  0  0
 15103  1  0  0  0
 16 17  2  0  0  0
 16 21  1  0  0  0
 16 31  1  0  0  0
 17 18  1  0  0  0
 17104  1  0  0  0
 18 19  2  0  0  0
 18105  1  0  0  0
 19 20  1  0  0  0
 19 24  1  0  0  0
 20 21  2  0  0  0
 20106  1  0  0  0
 21 23  1  0  0  0
 22 28  1  0  0  0
 22 32  2  0  0  0
 26 27  1  0  0  0
 28107  1  0  0  0
 28108  1  0  0  0
 29109  1  0  0  0
 29110  1  0  0  0
 33 34  1  0  0  0
 33 66  1  0  0  0
 33 70  2  0  0  0
 34 36  1  0  0  0
 34 59  1  0  0  0
 34111  1  0  0  0
 35 44  2  0  0  0
 35 45  1  0  0  0
 35 68  1  0  0  0
 36 56  1  0  0  0
 36112  1  0  0  0
 37 39  1  0  0  0
 37 47  1  0  0  0
 37 66  1  0  0  0
 37113  1  0  0  0
 38 43  2  0  0  0
 38 46  1  0  0  0
 38 47  1  0  0  0
 39 64  1  0  0  0
 39 67  2  0  0  0
 40 52  1  0  0  0
 40 53  2  0  0  0
 40 58  1  0  0  0
 41114  1  0  0  0
 41115  1  0  0  0
 41116  1  0  0  0
 41 48  1  0  0  0
 42 43  1  0  0  0
 42 66  1  0  0  0
 42117  1  0  0  0
 42118  1  0  0  0
 43 44  1  0  0  0
 44119  1  0  0  0
 45 46  2  0  0  0
 45120  1  0  0  0
 46121  1  0  0  0
 47122  1  0  0  0
 47123  1  0  0  0
 48 56  1  0  0  0
 48 65  1  0  0  0
 48124  1  0  0  0
 49 50  1  0  0  0
 49 53  1  0  0  0
 49 64  1  0  0  0
 49125  1  0  0  0
 50 51  1  0  0  0
 50126  1  0  0  0
 50127  1  0  0  0
 51 52  1  0  0  0
 51128  1  0  0  0
 51129  1  0  0  0
 52130  1  0  0  0
 52131  1  0  0  0
 53 54  1  0  0  0
 54 55  2  0  0  0
 54132  1  0  0  0
 55 57  1  0  0  0
 55133  1  0  0  0
 56 69  2  0  0  0
 57 58  2  0  0  0
 57134  1  0  0  0
 58135  1  0  0  0
 59 60  1  0  0  0
 59 61  1  0  0  0
 59 62  1  0  0  0
 60136  1  0  0  0
 60137  1  0  0  0
 60138  1  0  0  0
 61139  1  0  0  0
 61140  1  0  0  0
 61141  1  0  0  0
 62142  1  0  0  0
 62143  1  0  0  0
 62144  1  0  0  0
 63 65  1  0  0  0
 63145  1  0  0  0
 63146  1  0  0  0
 63147  1  0  0  0
 64148  1  0  0  0
 65149  1  0  0  0
 68 88  1  0  0  0
 71 72  2  0  0  0
 71 75  1  0  0  0
 71150  1  0  0  0
 72 73  1  0  0  0
 72 81  1  0  0  0
 73 74  2  0  0  0
 73 82  1  0  0  0
 74 76  1  0  0  0
 74 80  1  0  0  0
 75 76  2  0  0  0
 75 87  1  0  0  0
 76 83  1  0  0  0
 77 78  1  0  0  0
 77 80  1  0  0  0
 77151  1  0  0  0
 77152  1  0  0  0
 78 80  1  0  0  0
 78153  1  0  0  0
 78154  1  0  0  0
 79 81  1  0  0  0
 79 82  1  0  0  0
 79155  1  0  0  0
 79156  1  0  0  0
 80157  1  0  0  0
 81 84  1  0  0  0
 81 85  1  0  0  0
 82 86  1  0  0  0
 82 88  1  0  0  0
 83158  1  0  0  0
 83159  1  0  0  0
 83160  1  0  0  0
 84161  1  0  0  0
 84162  1  0  0  0
 84163  1  0  0  0
 85164  1  0  0  0
 85165  1  0  0  0
 85166  1  0  0  0
 86167  1  0  0  0
 86168  1  0  0  0
 86169  1  0  0  0
 87 89  1  0  0  0
 87170  1  0  0  0
 87171  1  0  0  0
 88172  1  0  0  0
 88173  1  0  0  0
 89 90  1  0  0  0
 89174  1  0  0  0
 89175  1  0  0  0
 90176  1  0  0  0
M  ISO  4   1 100  68 101  88 101  90 100
M  END
> <chiral flag>
0

> <version>
0

> <s_m_source_file>
/data/baiqing/PycharmProjects/Reinvent-master-3.2/result/LINK_invent/BTK/process_docking_weight1_custom_sum_contain_oxygen_bond_distance_aromatic_linkinvent_7_9_3/rearranged_h_0167.sdf

> <i_m_source_file_index>
70

> <r_mmod_Potential_Energy-OPLS-2005>
265.369873046875

> <r_mmod_Stretch_Energy-OPLS-2005>
117.950164794922

> <r_mmod_Bend_Energy-OPLS-2005>
296.325103759766

> <r_mmod_Torsional_Energy-OPLS-2005>
270.324005126953

> <r_mmod_Improper_Torsional_Energy-OPLS-2005>
5.81105613708496

> <r_mmod_Van_der_Waal_Energy-OPLS-2005>
131.553726196289

> <r_mmod_Electrostatic_Energy-OPLS-2005>
-428.616271972656

> <r_mmod_Solvation_Energy-OPLS-2005>
-198.635620117188

> <b_mmod_Minimization_Converged-OPLS-2005>
0

> <r_mmod_RMS_Derivative-OPLS-2005>
5.22232627868652

$$$$
70
                    3D
 Structure written by MMmdl.
162172  0  0  1  0            999 V2000
  -30.6258  -14.8908   20.4375 C   0  0  0  0  0  0
  -30.4159  -12.5603   19.4859 C   0  0  0  0  0  0
  -29.5043  -12.5219   18.2425 C   0  0  0  0  0  0
  -28.0378  -12.3242   18.6643 C   0  0  0  0  0  0
  -27.6244  -13.2555   19.8359 C   0  0  2  0  0  0
  -28.6718  -13.2870   20.9680 C   0  0  0  0  0  0
  -25.2446  -13.8242   20.5738 C   0  0  0  0  0  0
  -24.1768  -13.0451   20.9233 C   0  0  0  0  0  0
  -24.6395  -11.6939   20.8760 C   0  0  0  0  0  0
  -23.9083  -10.4300   21.0403 C   0  0  0  0  0  0
  -24.3634   -9.4208   21.9177 C   0  0  0  0  0  0
  -23.6309   -8.2243   22.0745 C   0  0  0  0  0  0
  -22.4288   -8.0282   21.3538 C   0  0  0  0  0  0
  -21.9926   -9.0256   20.4642 C   0  0  0  0  0  0
  -22.7257  -10.2137   20.3053 C   0  0  0  0  0  0
  -21.6854   -6.0741   22.5281 C   0  0  0  0  0  0
  -21.4015   -6.5645   23.8215 C   0  0  0  0  0  0
  -21.3661   -5.6795   24.9176 C   0  0  0  0  0  0
  -21.6047   -4.3058   24.7226 C   0  0  0  0  0  0
  -21.8818   -3.8150   23.4345 C   0  0  0  0  0  0
  -21.9194   -4.6967   22.3402 C   0  0  0  0  0  0
  -22.7788  -13.5214   21.1886 C   0  0  0  0  0  0
  -22.1659   -4.2152   21.0978 F   0  0  0  0  0  0
  -21.5632   -3.4540   25.7738 F   0  0  0  0  0  0
  -29.9408  -13.6818   20.3485 N   0  0  0  0  0  0
  -26.2872  -12.9486   20.3276 N   0  0  0  0  0  0
  -25.9331  -11.6607   20.5758 N   0  0  0  0  0  0
  -22.0448  -12.8198   22.0446 N   0  0  0  0  0  0
  -25.4129  -15.1965   20.4174 N   0  0  0  0  0  0
  -31.8381  -14.8299   20.1995 O   0  0  0  0  0  0
  -21.6649   -6.8882   21.4240 O   0  0  0  0  0  0
  -22.3464  -14.5512   20.6723 O   0  0  0  0  0  0
  -24.6435  -31.8462   23.1928 C   0  0  0  0  0  0
  -25.9217  -32.4704   23.8301 C   0  0  1  0  0  0
  -27.2018  -27.1432   20.1391 C   0  0  0  0  0  0
  -25.5972  -33.8510   24.2211 N   0  0  0  0  0  0
  -23.4457  -30.4710   21.5383 C   0  0  2  0  0  0
  -24.8916  -28.9091   20.1083 C   0  0  0  0  0  0
  -22.7570  -29.4566   22.4860 C   0  0  0  0  0  0
  -18.0306  -28.1395   22.8475 C   0  0  0  0  0  0
  -24.1493  -36.7259   23.2642 C   0  0  0  0  0  0
  -26.0039  -30.7210   21.3938 C   0  0  0  0  0  0
  -26.0717  -29.3359   20.7304 C   0  0  0  0  0  0
  -27.2290  -28.4684   20.7338 C   0  0  0  0  0  0
  -25.9967  -26.8331   19.4632 C   0  0  0  0  0  0
  -24.8668  -27.6701   19.4603 C   0  0  0  0  0  0
  -23.6705  -29.8107   20.1546 C   0  0  0  0  0  0
  -25.4125  -36.3034   24.0314 C   0  0  1  0  0  0
  -20.5920  -28.3725   23.1230 C   0  0  2  0  0  0
  -20.6790  -26.9425   22.5406 C   0  0  0  0  0  0
  -19.5765  -26.6378   21.5214 C   0  0  0  0  0  0
  -18.1945  -26.7936   22.1619 C   0  0  0  0  0  0
  -19.1565  -28.8876   23.2846 C   0  0  0  0  0  0
  -18.9478  -30.1473   23.8872 C   0  0  0  0  0  0
  -17.6474  -30.6591   24.0560 C   0  0  0  0  0  0
  -25.9077  -34.9408   23.5064 C   0  0  0  0  0  0
  -16.5365  -29.9084   23.6336 C   0  0  0  0  0  0
  -16.7291  -28.6504   23.0356 C   0  0  0  0  0  0
  -26.4532  -31.6569   25.0741 C   0  0  0  0  0  0
  -25.3716  -31.3774   26.1440 C   0  0  0  0  0  0
  -27.0391  -30.2958   24.6339 C   0  0  0  0  0  0
  -27.6064  -32.4334   25.7522 C   0  0  0  0  0  0
  -27.5577  -37.1789   24.8461 C   0  0  0  0  0  0
  -21.4264  -29.3053   22.3604 N   0  0  0  0  0  0
  -26.4288  -37.3745   23.9402 N   0  0  0  0  0  0
  -24.7175  -31.0332   22.0961 N   0  0  0  0  0  0
  -23.4219  -28.8099   23.2994 O   0  0  0  0  0  0
  -28.2228  -26.1238   20.2227 O   0  0  0  0  0  0
  -26.5655  -34.8899   22.4639 O   0  0  0  0  0  0
  -23.5555  -32.1335   23.7151 O   0  0  0  0  0  0
  -30.0204  -23.4055   20.6955 C   0  0  0  0  0  0
  -28.3681  -22.0182   20.1954 C   0  0  0  0  0  0
  -30.4387  -22.0925   20.8232 C   0  0  0  0  0  0
  -29.4181  -21.1216   20.5153 C   0  0  0  0  0  0
  -33.0477  -22.4816   20.7528 C   0  0  0  0  0  0
  -32.8000  -21.0620   20.3001 C   0  0  0  0  0  0
  -28.6583  -18.4200   21.1882 C   0  0  0  0  0  0
  -30.1064  -18.7000   19.3166 C   0  0  0  0  0  0
  -29.1776  -16.8858   21.3935 C   0  0  0  0  0  0
  -30.7351  -17.2487   19.5605 C   0  0  0  0  0  0
  -31.8384  -21.7280   21.2556 C   0  0  0  0  0  0
  -29.6652  -19.4772   20.5911 C   0  0  0  0  0  0
  -27.8070  -24.6820   19.9685 C   0  0  0  0  0  0
  -28.7016  -23.4337   20.2897 N   0  0  0  0  0  0
  -29.9993  -16.1781   20.3368 N   0  0  0  0  0  0
  -31.4544  -12.6747   19.1718 H   0  0  0  0  0  0
  -30.3769  -11.6122   20.0247 H   0  0  0  0  0  0
  -29.8127  -11.7222   17.5678 H   0  0  0  0  0  0
  -29.6052  -13.4532   17.6831 H   0  0  0  0  0  0
  -27.9228  -11.2820   18.9634 H   0  0  0  0  0  0
  -27.3737  -12.4695   17.8109 H   0  0  0  0  0  0
  -27.5869  -14.2598   19.4120 H   0  0  0  0  0  0
  -28.7552  -12.3147   21.4559 H   0  0  0  0  0  0
  -28.3850  -13.9971   21.7431 H   0  0  0  0  0  0
  -25.2772   -9.5693   22.4758 H   0  0  0  0  0  0
  -24.0020   -7.4636   22.7464 H   0  0  0  0  0  0
  -21.0854   -8.8776   19.8952 H   0  0  0  0  0  0
  -22.3702  -10.9678   19.6171 H   0  0  0  0  0  0
  -21.2002   -7.6153   23.9721 H   0  0  0  0  0  0
  -21.1486   -6.0523   25.9080 H   0  0  0  0  0  0
  -22.0595   -2.7611   23.2844 H   0  0  0  0  0  0
  -22.4076  -11.9868   22.4846 H   0  0  0  0  0  0
  -21.1057  -13.1195   22.2643 H   0  0  0  0  0  0
  -24.6493  -15.8532   20.5357 H   0  0  0  0  0  0
  -26.2710  -15.6370   20.1110 H   0  0  0  0  0  0
  -26.7282  -32.5300   23.1029 H   0  0  0  0  0  0
  -25.0104  -33.9629   25.0347 H   0  0  0  0  0  0
  -22.7479  -31.2977   21.3890 H   0  0  0  0  0  0
  -23.3754  -35.9591   23.3296 H   0  0  0  0  0  0
  -24.3579  -36.8897   22.2058 H   0  0  0  0  0  0
  -23.7249  -37.6455   23.6681 H   0  0  0  0  0  0
  -26.1647  -31.4782   20.6252 H   0  0  0  0  0  0
  -26.8730  -30.7642   22.0384 H   0  0  0  0  0  0
  -28.1230  -28.7864   21.2514 H   0  0  0  0  0  0
  -25.8686  -25.8979   18.9419 H   0  0  0  0  0  0
  -23.9682  -27.3418   18.9563 H   0  0  0  0  0  0
  -23.8094  -30.5895   19.4037 H   0  0  0  0  0  0
  -22.7842  -29.2564   19.8405 H   0  0  0  0  0  0
  -25.1313  -36.1865   25.0806 H   0  0  0  0  0  0
  -21.0015  -28.3313   24.1350 H   0  0  0  0  0  0
  -20.5677  -26.2340   23.3628 H   0  0  0  0  0  0
  -21.6655  -26.7426   22.1204 H   0  0  0  0  0  0
  -19.6926  -25.6281   21.1262 H   0  0  0  0  0  0
  -19.6705  -27.3171   20.6731 H   0  0  0  0  0  0
  -17.4217  -26.6686   21.4020 H   0  0  0  0  0  0
  -18.0338  -26.0083   22.9017 H   0  0  0  0  0  0
  -19.7953  -30.7298   24.2228 H   0  0  0  0  0  0
  -17.5026  -31.6269   24.5166 H   0  0  0  0  0  0
  -15.5365  -30.2978   23.7677 H   0  0  0  0  0  0
  -15.8690  -28.0816   22.7082 H   0  0  0  0  0  0
  -24.5891  -30.7126   25.7766 H   0  0  0  0  0  0
  -24.8916  -32.2965   26.4814 H   0  0  0  0  0  0
  -25.7998  -30.8982   27.0253 H   0  0  0  0  0  0
  -26.3014  -29.6686   24.1324 H   0  0  0  0  0  0
  -27.3959  -29.7258   25.4929 H   0  0  0  0  0  0
  -27.8942  -30.4175   23.9688 H   0  0  0  0  0  0
  -27.2653  -33.3642   26.2066 H   0  0  0  0  0  0
  -28.3896  -32.6890   25.0370 H   0  0  0  0  0  0
  -28.0714  -31.8490   26.5472 H   0  0  0  0  0  0
  -28.2590  -38.0090   24.7498 H   0  0  0  0  0  0
  -28.1079  -36.2620   24.6295 H   0  0  0  0  0  0
  -27.2294  -37.1439   25.8864 H   0  0  0  0  0  0
  -20.9471  -29.8785   21.6801 H   0  0  0  0  0  0
  -26.0156  -38.2810   24.1411 H   0  0  0  0  0  0
  -30.5553  -24.3335   20.8501 H   0  0  0  0  0  0
  -27.3618  -21.7670   19.8848 H   0  0  0  0  0  0
  -32.8910  -23.2718   20.0211 H   0  0  0  0  0  0
  -33.8634  -22.6488   21.4532 H   0  0  0  0  0  0
  -33.4423  -20.2807   20.7017 H   0  0  0  0  0  0
  -32.4817  -20.9204   19.2695 H   0  0  0  0  0  0
  -28.3091  -18.7855   22.1548 H   0  0  0  0  0  0
  -27.7686  -18.4021   20.5576 H   0  0  0  0  0  0
  -29.2630  -18.6219   18.6290 H   0  0  0  0  0  0
  -30.8483  -19.2982   18.7890 H   0  0  0  0  0  0
  -28.3091  -16.2658   21.6151 H   0  0  0  0  0  0
  -29.7807  -16.8655   22.3027 H   0  0  0  0  0  0
  -31.6932  -17.4039   20.0596 H   0  0  0  0  0  0
  -30.9844  -16.8330   18.5823 H   0  0  0  0  0  0
  -31.8493  -21.3986   22.2933 H   0  0  0  0  0  0
  -30.5186  -19.4126   21.2660 H   0  0  0  0  0  0
  -26.8745  -24.5083   20.5083 H   0  0  0  0  0  0
  -27.5912  -24.5990   18.9024 H   0  0  0  0  0  0
  1 25  1  0  0  0
  1 30  2  0  0  0
  1 85  1  0  0  0
  2  3  1  0  0  0
  2 25  1  0  0  0
  2 86  1  0  0  0
  2 87  1  0  0  0
  3  4  1  0  0  0
  3 88  1  0  0  0
  3 89  1  0  0  0
  4  5  1  0  0  0
  4 90  1  0  0  0
  4 91  1  0  0  0
  5  6  1  0  0  0
  5 26  1  0  0  0
  5 92  1  0  0  0
  6 25  1  0  0  0
  6 93  1  0  0  0
  6 94  1  0  0  0
  7  8  2  0  0  0
  7 26  1  0  0  0
  7 29  1  0  0  0
  8  9  1  0  0  0
  8 22  1  0  0  0
  9 10  1  0  0  0
  9 27  2  0  0  0
 10 11  2  0  0  0
 10 15  1  0  0  0
 11 12  1  0  0  0
 11 95  1  0  0  0
 12 13  2  0  0  0
 12 96  1  0  0  0
 13 14  1  0  0  0
 13 31  1  0  0  0
 14 15  2  0  0  0
 14 97  1  0  0  0
 15 98  1  0  0  0
 16 17  2  0  0  0
 16 21  1  0  0  0
 16 31  1  0  0  0
 17 18  1  0  0  0
 17 99  1  0  0  0
 18 19  2  0  0  0
 18100  1  0  0  0
 19 20  1  0  0  0
 19 24  1  0  0  0
 20 21  2  0  0  0
 20101  1  0  0  0
 21 23  1  0  0  0
 22 28  1  0  0  0
 22 32  2  0  0  0
 26 27  1  0  0  0
 28102  1  0  0  0
 28103  1  0  0  0
 29104  1  0  0  0
 29105  1  0  0  0
 33 34  1  0  0  0
 33 66  1  0  0  0
 33 70  2  0  0  0
 34 36  1  0  0  0
 34 59  1  0  0  0
 34106  1  0  0  0
 35 44  2  0  0  0
 35 45  1  0  0  0
 35 68  1  0  0  0
 36 56  1  0  0  0
 36107  1  0  0  0
 37 39  1  0  0  0
 37 47  1  0  0  0
 37 66  1  0  0  0
 37108  1  0  0  0
 38 43  2  0  0  0
 38 46  1  0  0  0
 38 47  1  0  0  0
 39 64  1  0  0  0
 39 67  2  0  0  0
 40 52  1  0  0  0
 40 53  2  0  0  0
 40 58  1  0  0  0
 41109  1  0  0  0
 41110  1  0  0  0
 41111  1  0  0  0
 41 48  1  0  0  0
 42 43  1  0  0  0
 42 66  1  0  0  0
 42112  1  0  0  0
 42113  1  0  0  0
 43 44  1  0  0  0
 44114  1  0  0  0
 45 46  2  0  0  0
 45115  1  0  0  0
 46116  1  0  0  0
 47117  1  0  0  0
 47118  1  0  0  0
 48 56  1  0  0  0
 48 65  1  0  0  0
 48119  1  0  0  0
 49 50  1  0  0  0
 49 53  1  0  0  0
 49 64  1  0  0  0
 49120  1  0  0  0
 50 51  1  0  0  0
 50121  1  0  0  0
 50122  1  0  0  0
 51 52  1  0  0  0
 51123  1  0  0  0
 51124  1  0  0  0
 52125  1  0  0  0
 52126  1  0  0  0
 53 54  1  0  0  0
 54 55  2  0  0  0
 54127  1  0  0  0
 55 57  1  0  0  0
 55128  1  0  0  0
 56 69  2  0  0  0
 57 58  2  0  0  0
 57129  1  0  0  0
 58130  1  0  0  0
 59 60  1  0  0  0
 59 61  1  0  0  0
 59 62  1  0  0  0
 60131  1  0  0  0
 60132  1  0  0  0
 60133  1  0  0  0
 61134  1  0  0  0
 61135  1  0  0  0
 61136  1  0  0  0
 62137  1  0  0  0
 62138  1  0  0  0
 62139  1  0  0  0
 63 65  1  0  0  0
 63140  1  0  0  0
 63141  1  0  0  0
 63142  1  0  0  0
 64143  1  0  0  0
 65144  1  0  0  0
 68 83  1  0  0  0
 71 73  2  0  0  0
 71 84  1  0  0  0
 71145  1  0  0  0
 72 74  2  0  0  0
 72 84  1  0  0  0
 72146  1  0  0  0
 73 74  1  0  0  0
 73 81  1  0  0  0
 74 82  1  0  0  0
 75 76  1  0  0  0
 75 81  1  0  0  0
 75147  1  0  0  0
 75148  1  0  0  0
 76 81  1  0  0  0
 76149  1  0  0  0
 76150  1  0  0  0
 77 79  1  0  0  0
 77 82  1  0  0  0
 77151  1  0  0  0
 77152  1  0  0  0
 78 80  1  0  0  0
 78 82  1  0  0  0
 78153  1  0  0  0
 78154  1  0  0  0
 79 85  1  0  0  0
 79155  1  0  0  0
 79156  1  0  0  0
 80 85  1  0  0  0
 80157  1  0  0  0
 80158  1  0  0  0
 81159  1  0  0  0
 82160  1  0  0  0
 83 84  1  0  0  0
 83161  1  0  0  0
 83162  1  0  0  0
M  ISO  4   1 100  68 101  83 101  85 100
M  END
> <chiral flag>
0

> <version>
0

> <s_m_source_file>
/data/baiqing/PycharmProjects/Reinvent-master-3.2/result/LINK_invent/BTK/process_docking_weight1_custom_sum_contain_oxygen_bond_distance_aromatic_linkinvent_7_9_3/rearranged_h_0167.sdf

> <i_m_source_file_index>
71

> <r_mmod_Potential_Energy-OPLS-2005>
636.517517089844

> <r_mmod_Stretch_Energy-OPLS-2005>
212.155624389648

> <r_mmod_Bend_Energy-OPLS-2005>
281.465118408203

> <r_mmod_Torsional_Energy-OPLS-2005>
331.563842773438

> <r_mmod_Improper_Torsional_Energy-OPLS-2005>
16.492919921875

> <r_mmod_Van_der_Waal_Energy-OPLS-2005>
120.52986907959

> <r_mmod_Electrostatic_Energy-OPLS-2005>
-298.819671630859

> <r_mmod_Solvation_Energy-OPLS-2005>
-202.614822387695

> <b_mmod_Minimization_Converged-OPLS-2005>
0

> <r_mmod_RMS_Derivative-OPLS-2005>
0.802367031574249

$$$$
71
                    3D
 Structure written by MMmdl.
162171  0  0  1  0            999 V2000
  -30.4893  -15.0356   20.3947 C   0  0  0  0  0  0
  -30.4435  -12.6558   19.4841 C   0  0  0  0  0  0
  -29.5203  -12.5526   18.2549 C   0  0  0  0  0  0
  -28.0516  -12.3338   18.6708 C   0  0  0  0  0  0
  -27.6209  -13.2636   19.8386 C   0  0  2  0  0  0
  -28.6681  -13.3243   20.9677 C   0  0  0  0  0  0
  -25.2427  -13.8227   20.5743 C   0  0  0  0  0  0
  -24.1783  -13.0424   20.9284 C   0  0  0  0  0  0
  -24.6448  -11.6938   20.8824 C   0  0  0  0  0  0
  -23.9115  -10.4318   21.0438 C   0  0  0  0  0  0
  -24.3641   -9.4208   21.9216 C   0  0  0  0  0  0
  -23.6318   -8.2231   22.0750 C   0  0  0  0  0  0
  -22.4302   -8.0292   21.3521 C   0  0  0  0  0  0
  -21.9945   -9.0286   20.4655 C   0  0  0  0  0  0
  -22.7279  -10.2174   20.3088 C   0  0  0  0  0  0
  -21.6852   -6.0739   22.5271 C   0  0  0  0  0  0
  -21.4023   -6.5650   23.8208 C   0  0  0  0  0  0
  -21.3677   -5.6808   24.9182 C   0  0  0  0  0  0
  -21.6022   -4.3059   24.7230 C   0  0  0  0  0  0
  -21.8835   -3.8149   23.4359 C   0  0  0  0  0  0
  -21.9194   -4.6967   22.3403 C   0  0  0  0  0  0
  -22.7810  -13.5159   21.1980 C   0  0  0  0  0  0
  -22.1657   -4.2182   21.0973 F   0  0  0  0  0  0
  -21.5647   -3.4535   25.7720 F   0  0  0  0  0  0
  -29.9204  -13.7599   20.3427 N   0  0  0  0  0  0
  -26.2865  -12.9526   20.3289 N   0  0  0  0  0  0
  -25.9384  -11.6638   20.5802 N   0  0  0  0  0  0
  -22.0444  -12.8122   22.0518 N   0  0  0  0  0  0
  -25.4021  -15.1962   20.4095 N   0  0  0  0  0  0
  -31.7105  -15.0895   20.2047 O   0  0  0  0  0  0
  -21.6642   -6.8897   21.4235 O   0  0  0  0  0  0
  -22.3506  -14.5442   20.6822 O   0  0  0  0  0  0
  -24.6502  -31.8378   23.1775 C   0  0  0  0  0  0
  -25.9260  -32.4653   23.8173 C   0  0  1  0  0  0
  -27.2188  -27.0923   20.1770 C   0  0  0  0  0  0
  -25.6015  -33.8434   24.2157 N   0  0  0  0  0  0
  -23.4511  -30.4546   21.5246 C   0  0  2  0  0  0
  -24.8960  -28.8493   20.1221 C   0  0  0  0  0  0
  -22.7550  -29.4522   22.4798 C   0  0  0  0  0  0
  -18.0286  -28.1371   22.8488 C   0  0  0  0  0  0
  -24.1508  -36.7215   23.2636 C   0  0  0  0  0  0
  -26.0018  -30.7074   21.3625 C   0  0  0  0  0  0
  -26.0724  -29.3052   20.7243 C   0  0  0  0  0  0
  -27.2322  -28.4453   20.7195 C   0  0  0  0  0  0
  -26.0137  -26.7262   19.5510 C   0  0  0  0  0  0
  -24.8768  -27.5743   19.5236 C   0  0  0  0  0  0
  -23.6844  -29.7673   20.1504 C   0  0  0  0  0  0
  -25.4114  -36.2981   24.0317 C   0  0  1  0  0  0
  -20.5906  -28.3695   23.1206 C   0  0  2  0  0  0
  -20.6763  -26.9393   22.5390 C   0  0  0  0  0  0
  -19.5736  -26.6368   21.5190 C   0  0  0  0  0  0
  -18.1917  -26.7915   22.1604 C   0  0  0  0  0  0
  -19.1561  -28.8847   23.2854 C   0  0  0  0  0  0
  -18.9461  -30.1433   23.8891 C   0  0  0  0  0  0
  -17.6456  -30.6567   24.0561 C   0  0  0  0  0  0
  -25.9070  -34.9363   23.5047 C   0  0  0  0  0  0
  -16.5354  -29.9071   23.6322 C   0  0  0  0  0  0
  -16.7272  -28.6488   23.0371 C   0  0  0  0  0  0
  -26.4582  -31.6453   25.0592 C   0  0  0  0  0  0
  -25.3824  -31.3512   26.1321 C   0  0  0  0  0  0
  -27.0421  -30.2854   24.6082 C   0  0  0  0  0  0
  -27.6162  -32.4176   25.7413 C   0  0  0  0  0  0
  -27.5546  -37.1745   24.8475 C   0  0  0  0  0  0
  -21.4242  -29.3055   22.3567 N   0  0  0  0  0  0
  -26.4269  -37.3715   23.9435 N   0  0  0  0  0  0
  -24.7220  -31.0220   22.0789 N   0  0  0  0  0  0
  -23.4197  -28.8105   23.2951 O   0  0  0  0  0  0
  -28.3518  -26.1967   20.1874 O   0  0  0  0  0  0
  -26.5646  -34.8900   22.4600 O   0  0  0  0  0  0
  -23.5625  -32.1253   23.6961 O   0  0  0  0  0  0
  -27.9581  -18.7677   19.2012 C   0  0  0  0  0  0
  -28.9951  -19.0782   20.1036 C   0  0  0  0  0  0
  -29.0293  -20.5456   20.4581 C   0  0  0  0  0  0
  -27.1135  -19.7716   18.6829 C   0  0  0  0  0  0
  -28.1193  -21.5855   19.8725 C   0  0  0  0  0  0
  -25.9502  -18.2144   16.8895 C   0  0  0  0  0  0
  -26.0110  -19.6110   16.2833 C   0  0  0  0  0  0
  -25.9421  -19.4300   17.7911 C   0  0  0  0  0  0
  -30.0330  -21.0374   21.4918 C   0  0  0  0  0  0
  -26.7888  -23.1376   21.5152 C   0  0  0  0  0  0
  -29.9653  -17.7976   20.5686 C   0  0  0  0  0  0
  -28.5941  -24.6207   20.2373 C   0  0  0  0  0  0
  -27.6921  -23.1850   20.2557 C   0  0  1  0  0  0
  -27.2208  -21.0899   18.9826 N   0  0  0  0  0  0
  -29.6805  -16.2245   20.4581 N   0  0  0  0  0  0
  -31.4695  -12.8479   19.1551 H   0  0  0  0  0  0
  -30.4731  -11.7165   20.0366 H   0  0  0  0  0  0
  -29.8516  -11.7422   17.6060 H   0  0  0  0  0  0
  -29.6026  -13.4699   17.6652 H   0  0  0  0  0  0
  -27.9395  -11.2883   18.9629 H   0  0  0  0  0  0
  -27.3871  -12.4785   17.8181 H   0  0  0  0  0  0
  -27.5649  -14.2621   19.4078 H   0  0  0  0  0  0
  -28.7921  -12.3598   21.4578 H   0  0  0  0  0  0
  -28.3632  -14.0364   21.7373 H   0  0  0  0  0  0
  -25.2787   -9.5680   22.4805 H   0  0  0  0  0  0
  -24.0053   -7.4601   22.7429 H   0  0  0  0  0  0
  -21.0880   -8.8781   19.8936 H   0  0  0  0  0  0
  -22.3705  -10.9726   19.6207 H   0  0  0  0  0  0
  -21.1990   -7.6158   23.9719 H   0  0  0  0  0  0
  -21.1501   -6.0529   25.9083 H   0  0  0  0  0  0
  -22.0606   -2.7621   23.2822 H   0  0  0  0  0  0
  -22.4053  -11.9749   22.4907 H   0  0  0  0  0  0
  -21.1074  -13.1198   22.2733 H   0  0  0  0  0  0
  -24.6220  -15.8372   20.5137 H   0  0  0  0  0  0
  -26.2271  -15.6485   20.0394 H   0  0  0  0  0  0
  -26.7332  -32.5295   23.0905 H   0  0  0  0  0  0
  -25.0367  -33.9511   25.0460 H   0  0  0  0  0  0
  -22.7622  -31.2823   21.3531 H   0  0  0  0  0  0
  -23.3797  -35.9536   23.3279 H   0  0  0  0  0  0
  -24.3595  -36.8867   22.2059 H   0  0  0  0  0  0
  -23.7252  -37.6390   23.6688 H   0  0  0  0  0  0
  -26.1450  -31.4533   20.5795 H   0  0  0  0  0  0
  -26.8759  -30.7808   21.9949 H   0  0  0  0  0  0
  -28.1441  -28.8022   21.1762 H   0  0  0  0  0  0
  -25.9499  -25.7552   19.0813 H   0  0  0  0  0  0
  -23.9719  -27.2165   19.0522 H   0  0  0  0  0  0
  -23.8403  -30.5338   19.3926 H   0  0  0  0  0  0
  -22.7969  -29.2214   19.8306 H   0  0  0  0  0  0
  -25.1310  -36.1809   25.0820 H   0  0  0  0  0  0
  -21.0009  -28.3321   24.1319 H   0  0  0  0  0  0
  -20.5581  -26.2331   23.3620 H   0  0  0  0  0  0
  -21.6624  -26.7368   22.1208 H   0  0  0  0  0  0
  -19.6884  -25.6285   21.1211 H   0  0  0  0  0  0
  -19.6654  -27.3182   20.6724 H   0  0  0  0  0  0
  -17.4176  -26.6670   21.4035 H   0  0  0  0  0  0
  -18.0326  -26.0042   22.8971 H   0  0  0  0  0  0
  -19.7941  -30.7249   24.2268 H   0  0  0  0  0  0
  -17.5007  -31.6244   24.5170 H   0  0  0  0  0  0
  -15.5365  -30.2973   23.7565 H   0  0  0  0  0  0
  -15.8681  -28.0758   22.7100 H   0  0  0  0  0  0
  -24.6180  -30.6680   25.7611 H   0  0  0  0  0  0
  -24.8835  -32.2587   26.4695 H   0  0  0  0  0  0
  -25.8199  -30.8769   27.0117 H   0  0  0  0  0  0
  -26.2949  -29.6581   24.1217 H   0  0  0  0  0  0
  -27.4208  -29.7140   25.4555 H   0  0  0  0  0  0
  -27.8791  -30.4064   23.9218 H   0  0  0  0  0  0
  -27.2842  -33.3567   26.1820 H   0  0  0  0  0  0
  -28.4064  -32.6505   25.0284 H   0  0  0  0  0  0
  -28.0714  -31.8376   26.5442 H   0  0  0  0  0  0
  -28.2553  -38.0052   24.7557 H   0  0  0  0  0  0
  -28.1035  -36.2570   24.6283 H   0  0  0  0  0  0
  -27.2242  -37.1403   25.8872 H   0  0  0  0  0  0
  -20.9408  -29.8827   21.6820 H   0  0  0  0  0  0
  -26.0119  -38.2786   24.1486 H   0  0  0  0  0  0
  -27.7972  -17.7415   18.9033 H   0  0  0  0  0  0
  -26.8478  -17.5897   16.8440 H   0  0  0  0  0  0
  -25.0122  -17.6624   16.8313 H   0  0  0  0  0  0
  -25.1174  -19.9924   15.7810 H   0  0  0  0  0  0
  -26.9549  -19.9420   15.8369 H   0  0  0  0  0  0
  -24.9949  -19.6516   18.2954 H   0  0  0  0  0  0
  -30.2701  -20.2691   22.2251 H   0  0  0  0  0  0
  -29.6357  -21.8923   22.0412 H   0  0  0  0  0  0
  -30.9562  -21.3546   21.0039 H   0  0  0  0  0  0
  -25.9790  -22.4116   21.3939 H   0  0  0  0  0  0
  -26.3057  -24.0957   21.7205 H   0  0  0  0  0  0
  -27.3410  -22.8419   22.4103 H   0  0  0  0  0  0
  -30.2001  -17.9704   21.6222 H   0  0  0  0  0  0
  -30.9074  -17.9632   20.0472 H   0  0  0  0  0  0
  -29.3167  -24.4579   19.4308 H   0  0  0  0  0  0
  -29.2178  -24.5283   21.1379 H   0  0  0  0  0  0
  -26.9897  -23.4229   19.4462 H   0  0  0  0  0  0
  -28.6984  -16.0020   20.5086 H   0  0  0  0  0  0
  1 25  1  0  0  0
  1 30  2  0  0  0
  1 85  1  0  0  0
  2  3  1  0  0  0
  2 25  1  0  0  0
  2 86  1  0  0  0
  2 87  1  0  0  0
  3  4  1  0  0  0
  3 88  1  0  0  0
  3 89  1  0  0  0
  4  5  1  0  0  0
  4 90  1  0  0  0
  4 91  1  0  0  0
  5  6  1  0  0  0
  5 26  1  0  0  0
  5 92  1  0  0  0
  6 25  1  0  0  0
  6 93  1  0  0  0
  6 94  1  0  0  0
  7  8  2  0  0  0
  7 26  1  0  0  0
  7 29  1  0  0  0
  8  9  1  0  0  0
  8 22  1  0  0  0
  9 10  1  0  0  0
  9 27  2  0  0  0
 10 11  2  0  0  0
 10 15  1  0  0  0
 11 12  1  0  0  0
 11 95  1  0  0  0
 12 13  2  0  0  0
 12 96  1  0  0  0
 13 14  1  0  0  0
 13 31  1  0  0  0
 14 15  2  0  0  0
 14 97  1  0  0  0
 15 98  1  0  0  0
 16 17  2  0  0  0
 16 21  1  0  0  0
 16 31  1  0  0  0
 17 18  1  0  0  0
 17 99  1  0  0  0
 18 19  2  0  0  0
 18100  1  0  0  0
 19 20  1  0  0  0
 19 24  1  0  0  0
 20 21  2  0  0  0
 20101  1  0  0  0
 21 23  1  0  0  0
 22 28  1  0  0  0
 22 32  2  0  0  0
 26 27  1  0  0  0
 28102  1  0  0  0
 28103  1  0  0  0
 29104  1  0  0  0
 29105  1  0  0  0
 33 34  1  0  0  0
 33 66  1  0  0  0
 33 70  2  0  0  0
 34 36  1  0  0  0
 34 59  1  0  0  0
 34106  1  0  0  0
 35 44  2  0  0  0
 35 45  1  0  0  0
 35 68  1  0  0  0
 36 56  1  0  0  0
 36107  1  0  0  0
 37 39  1  0  0  0
 37 47  1  0  0  0
 37 66  1  0  0  0
 37108  1  0  0  0
 38 43  2  0  0  0
 38 46  1  0  0  0
 38 47  1  0  0  0
 39 64  1  0  0  0
 39 67  2  0  0  0
 40 52  1  0  0  0
 40 53  2  0  0  0
 40 58  1  0  0  0
 41109  1  0  0  0
 41110  1  0  0  0
 41111  1  0  0  0
 41 48  1  0  0  0
 42 43  1  0  0  0
 42 66  1  0  0  0
 42112  1  0  0  0
 42113  1  0  0  0
 43 44  1  0  0  0
 44114  1  0  0  0
 45 46  2  0  0  0
 45115  1  0  0  0
 46116  1  0  0  0
 47117  1  0  0  0
 47118  1  0  0  0
 48 56  1  0  0  0
 48 65  1  0  0  0
 48119  1  0  0  0
 49 50  1  0  0  0
 49 53  1  0  0  0
 49 64  1  0  0  0
 49120  1  0  0  0
 50 51  1  0  0  0
 50121  1  0  0  0
 50122  1  0  0  0
 51 52  1  0  0  0
 51123  1  0  0  0
 51124  1  0  0  0
 52125  1  0  0  0
 52126  1  0  0  0
 53 54  1  0  0  0
 54 55  2  0  0  0
 54127  1  0  0  0
 55 57  1  0  0  0
 55128  1  0  0  0
 56 69  2  0  0  0
 57 58  2  0  0  0
 57129  1  0  0  0
 58130  1  0  0  0
 59 60  1  0  0  0
 59 61  1  0  0  0
 59 62  1  0  0  0
 60131  1  0  0  0
 60132  1  0  0  0
 60133  1  0  0  0
 61134  1  0  0  0
 61135  1  0  0  0
 61136  1  0  0  0
 62137  1  0  0  0
 62138  1  0  0  0
 62139  1  0  0  0
 63 65  1  0  0  0
 63140  1  0  0  0
 63141  1  0  0  0
 63142  1  0  0  0
 64143  1  0  0  0
 65144  1  0  0  0
 68 82  1  0  0  0
 71 72  2  0  0  0
 71 74  1  0  0  0
 71145  1  0  0  0
 72 73  1  0  0  0
 72 81  1  0  0  0
 73 75  2  0  0  0
 73 79  1  0  0  0
 74 84  2  0  0  0
 74 78  1  0  0  0
 75 83  1  0  0  0
 75 84  1  0  0  0
 76 77  1  0  0  0
 76 78  1  0  0  0
 76146  1  0  0  0
 76147  1  0  0  0
 77 78  1  0  0  0
 77148  1  0  0  0
 77149  1  0  0  0
 78150  1  0  0  0
 79151  1  0  0  0
 79152  1  0  0  0
 79153  1  0  0  0
 80154  1  0  0  0
 80155  1  0  0  0
 80156  1  0  0  0
 80 83  1  0  0  0
 81 85  1  0  0  0
 81157  1  0  0  0
 81158  1  0  0  0
 82 83  1  0  0  0
 82159  1  0  0  0
 82160  1  0  0  0
 83161  1  0  0  0
 85162  1  0  0  0
M  ISO  4   1 100  68 101  82 101  85 100
M  END
> <chiral flag>
0

> <version>
0

> <s_m_source_file>
/data/baiqing/PycharmProjects/Reinvent-master-3.2/result/LINK_invent/BTK/process_docking_weight1_custom_sum_contain_oxygen_bond_distance_aromatic_linkinvent_7_9_3/rearranged_h_0167.sdf

> <i_m_source_file_index>
72

> <r_mmod_Potential_Energy-OPLS-2005>
481.987579345703

> <r_mmod_Stretch_Energy-OPLS-2005>
328.179290771484

> <r_mmod_Bend_Energy-OPLS-2005>
396.756103515625

> <r_mmod_Torsional_Energy-OPLS-2005>
236.732269287109

> <r_mmod_Improper_Torsional_Energy-OPLS-2005>
5.6526083946228

> <r_mmod_Van_der_Waal_Energy-OPLS-2005>
114.880867004395

> <r_mmod_Electrostatic_Energy-OPLS-2005>
-611.90380859375

> <r_mmod_Solvation_Energy-OPLS-2005>
-224.460144042969

> <b_mmod_Minimization_Converged-OPLS-2005>
0

> <r_mmod_RMS_Derivative-OPLS-2005>
7.77364778518677

$$$$
72
                    3D
 Structure written by MMmdl.
169178  0  0  1  0            999 V2000
  -30.6365  -14.7993   20.4407 C   0  0  0  0  0  0
  -30.4195  -12.4955   19.4840 C   0  0  0  0  0  0
  -29.5058  -12.5071   18.2406 C   0  0  0  0  0  0
  -28.0361  -12.3129   18.6596 C   0  0  0  0  0  0
  -27.6283  -13.2304   19.8423 C   0  0  2  0  0  0
  -28.6750  -13.2291   20.9785 C   0  0  0  0  0  0
  -25.2412  -13.8051   20.5672 C   0  0  0  0  0  0
  -24.1744  -13.0333   20.9258 C   0  0  0  0  0  0
  -24.6376  -11.6833   20.8796 C   0  0  0  0  0  0
  -23.9065  -10.4234   21.0443 C   0  0  0  0  0  0
  -24.3620   -9.4151   21.9214 C   0  0  0  0  0  0
  -23.6283   -8.2200   22.0778 C   0  0  0  0  0  0
  -22.4268   -8.0254   21.3558 C   0  0  0  0  0  0
  -21.9904   -9.0230   20.4665 C   0  0  0  0  0  0
  -22.7247  -10.2096   20.3076 C   0  0  0  0  0  0
  -21.6845   -6.0722   22.5278 C   0  0  0  0  0  0
  -21.4006   -6.5632   23.8208 C   0  0  0  0  0  0
  -21.3657   -5.6789   24.9173 C   0  0  0  0  0  0
  -21.6044   -4.3051   24.7225 C   0  0  0  0  0  0
  -21.8821   -3.8138   23.4348 C   0  0  0  0  0  0
  -21.9193   -4.6952   22.3403 C   0  0  0  0  0  0
  -22.7774  -13.5143   21.1902 C   0  0  0  0  0  0
  -22.1662   -4.2138   21.0979 F   0  0  0  0  0  0
  -21.5637   -3.4541   25.7743 F   0  0  0  0  0  0
  -29.9639  -13.5915   20.3793 N   0  0  0  0  0  0
  -26.2868  -12.9319   20.3276 N   0  0  0  0  0  0
  -25.9305  -11.6466   20.5788 N   0  0  0  0  0  0
  -22.0403  -12.8157   22.0454 N   0  0  0  0  0  0
  -25.3979  -15.1713   20.3931 N   0  0  0  0  0  0
  -31.8377  -14.8101   20.1601 O   0  0  0  0  0  0
  -21.6631   -6.8857   21.4241 O   0  0  0  0  0  0
  -22.3488  -14.5467   20.6753 O   0  0  0  0  0  0
  -24.6339  -31.8536   23.1945 C   0  0  0  0  0  0
  -25.9153  -32.4736   23.8309 C   0  0  1  0  0  0
  -27.2224  -27.2392   20.1243 C   0  0  0  0  0  0
  -25.5933  -33.8541   24.2242 N   0  0  0  0  0  0
  -23.4315  -30.4743   21.5399 C   0  0  2  0  0  0
  -24.8764  -28.9177   20.1104 C   0  0  0  0  0  0
  -22.7511  -29.4592   22.4902 C   0  0  0  0  0  0
  -18.0306  -28.1386   22.8484 C   0  0  0  0  0  0
  -24.1493  -36.7278   23.2639 C   0  0  0  0  0  0
  -25.9794  -30.7579   21.3781 C   0  0  0  0  0  0
  -26.0485  -29.3782   20.7213 C   0  0  0  0  0  0
  -27.2186  -28.5507   20.7184 C   0  0  0  0  0  0
  -26.0216  -26.8525   19.4845 C   0  0  0  0  0  0
  -24.8704  -27.6642   19.4822 C   0  0  0  0  0  0
  -23.6485  -29.8063   20.1567 C   0  0  0  0  0  0
  -25.4118  -36.3060   24.0332 C   0  0  1  0  0  0
  -20.5908  -28.3707   23.1251 C   0  0  2  0  0  0
  -20.6801  -26.9425   22.5394 C   0  0  0  0  0  0
  -19.5766  -26.6381   21.5210 C   0  0  0  0  0  0
  -18.1953  -26.7919   22.1642 C   0  0  0  0  0  0
  -19.1560  -28.8867   23.2857 C   0  0  0  0  0  0
  -18.9476  -30.1463   23.8880 C   0  0  0  0  0  0
  -17.6474  -30.6581   24.0565 C   0  0  0  0  0  0
  -25.9061  -34.9432   23.5096 C   0  0  0  0  0  0
  -16.5366  -29.9084   23.6322 C   0  0  0  0  0  0
  -16.7296  -28.6501   23.0348 C   0  0  0  0  0  0
  -26.4513  -31.6556   25.0698 C   0  0  0  0  0  0
  -25.3722  -31.3715   26.1406 C   0  0  0  0  0  0
  -27.0368  -30.2966   24.6202 C   0  0  0  0  0  0
  -27.6063  -32.4301   25.7475 C   0  0  0  0  0  0
  -27.5582  -37.1792   24.8464 C   0  0  0  0  0  0
  -21.4218  -29.3056   22.3641 N   0  0  0  0  0  0
  -26.4293  -37.3760   23.9409 N   0  0  0  0  0  0
  -24.7014  -31.0472   22.0941 N   0  0  0  0  0  0
  -23.4189  -28.8135   23.3022 O   0  0  0  0  0  0
  -28.3421  -26.3685   20.1998 O   0  0  0  0  0  0
  -26.5634  -34.8917   22.4666 O   0  0  0  0  0  0
  -23.5477  -32.1380   23.7212 O   0  0  0  0  0  0
  -26.3053  -20.6627   19.9359 C   0  0  0  0  0  0
  -28.4184  -19.4919   20.4391 C   0  0  0  0  0  0
  -27.0317  -19.4796   20.1138 C   0  0  0  0  0  0
  -26.8409  -21.9380   20.1401 C   0  0  0  0  0  0
  -29.0023  -20.8506   20.5585 C   0  0  0  0  0  0
  -28.2198  -22.1236   20.4473 C   0  0  0  0  0  0
  -28.6261  -16.5739   20.4934 C   0  0  0  0  0  0
  -30.5016  -17.4237   20.3248 C   0  0  0  0  0  0
  -29.1371  -18.0509   20.7715 C   0  0  0  0  0  0
  -26.1992  -18.2197   19.9976 C   0  0  0  0  0  0
  -25.8089  -23.0609   20.0562 C   0  0  0  0  0  0
  -30.9451  -20.6029   22.2311 C   0  0  0  0  0  0
  -29.9858  -23.9288   21.4549 C   0  0  0  0  0  0
  -30.5095  -20.8782   20.7813 C   0  0  0  0  0  0
  -28.3613  -24.9195   19.7491 C   0  0  0  0  0  0
  -28.6229  -23.6791   20.7895 C   0  0  1  0  0  0
  -29.9971  -16.0375   20.6255 N   0  0  0  0  0  0
  -31.4625  -12.6036   19.1796 H   0  0  0  0  0  0
  -30.3617  -11.5342   19.9964 H   0  0  0  0  0  0
  -29.8035  -11.7209   17.5453 H   0  0  0  0  0  0
  -29.6179  -13.4513   17.7040 H   0  0  0  0  0  0
  -27.9126  -11.2678   18.9451 H   0  0  0  0  0  0
  -27.3727  -12.4755   17.8094 H   0  0  0  0  0  0
  -27.5960  -14.2336   19.4233 H   0  0  0  0  0  0
  -28.7329  -12.2497   21.4555 H   0  0  0  0  0  0
  -28.4011  -13.9369   21.7624 H   0  0  0  0  0  0
  -25.2771   -9.5623   22.4784 H   0  0  0  0  0  0
  -23.9990   -7.4585   22.7489 H   0  0  0  0  0  0
  -21.0837   -8.8758   19.8964 H   0  0  0  0  0  0
  -22.3728  -10.9644   19.6181 H   0  0  0  0  0  0
  -21.1999   -7.6142   23.9707 H   0  0  0  0  0  0
  -21.1481   -6.0524   25.9076 H   0  0  0  0  0  0
  -22.0607   -2.7603   23.2852 H   0  0  0  0  0  0
  -22.4007  -11.9826   22.4866 H   0  0  0  0  0  0
  -21.1034  -13.1214   22.2671 H   0  0  0  0  0  0
  -24.6101  -15.8039   20.4679 H   0  0  0  0  0  0
  -26.2185  -15.5929   19.9856 H   0  0  0  0  0  0
  -26.7222  -32.5376   23.1048 H   0  0  0  0  0  0
  -25.0070  -33.9684   25.0381 H   0  0  0  0  0  0
  -22.7294  -31.2968   21.3888 H   0  0  0  0  0  0
  -23.3755  -35.9608   23.3292 H   0  0  0  0  0  0
  -24.3578  -36.8909   22.2051 H   0  0  0  0  0  0
  -23.7257  -37.6484   23.6670 H   0  0  0  0  0  0
  -26.1203  -31.5155   20.6060 H   0  0  0  0  0  0
  -26.8574  -30.8074   22.0110 H   0  0  0  0  0  0
  -28.1143  -28.8990   21.2134 H   0  0  0  0  0  0
  -25.9176  -25.9038   18.9869 H   0  0  0  0  0  0
  -23.9741  -27.3069   18.9949 H   0  0  0  0  0  0
  -23.7749  -30.5797   19.3987 H   0  0  0  0  0  0
  -22.7655  -29.2421   19.8512 H   0  0  0  0  0  0
  -25.1300  -36.1906   25.0826 H   0  0  0  0  0  0
  -20.9999  -28.3294   24.1374 H   0  0  0  0  0  0
  -20.5714  -26.2335   23.3613 H   0  0  0  0  0  0
  -21.6663  -26.7441   22.1179 H   0  0  0  0  0  0
  -19.6939  -25.6293   21.1242 H   0  0  0  0  0  0
  -19.6690  -27.3187   20.6732 H   0  0  0  0  0  0
  -17.4208  -26.6636   21.4066 H   0  0  0  0  0  0
  -18.0372  -26.0069   22.9057 H   0  0  0  0  0  0
  -19.7947  -30.7290   24.2245 H   0  0  0  0  0  0
  -17.5029  -31.6255   24.5178 H   0  0  0  0  0  0
  -15.5370  -30.2992   23.7647 H   0  0  0  0  0  0
  -15.8699  -28.0813   22.7069 H   0  0  0  0  0  0
  -24.5908  -30.7052   25.7735 H   0  0  0  0  0  0
  -24.8888  -32.2883   26.4790 H   0  0  0  0  0  0
  -25.8022  -30.8920   27.0207 H   0  0  0  0  0  0
  -26.2962  -29.6689   24.1230 H   0  0  0  0  0  0
  -27.4054  -29.7245   25.4727 H   0  0  0  0  0  0
  -27.8839  -30.4226   23.9454 H   0  0  0  0  0  0
  -27.2672  -33.3619   26.2016 H   0  0  0  0  0  0
  -28.3894  -32.6831   25.0315 H   0  0  0  0  0  0
  -28.0712  -31.8443   26.5415 H   0  0  0  0  0  0
  -28.2592  -38.0093   24.7504 H   0  0  0  0  0  0
  -28.1087  -36.2621   24.6301 H   0  0  0  0  0  0
  -27.2290  -37.1453   25.8864 H   0  0  0  0  0  0
  -20.9407  -29.8774   21.6837 H   0  0  0  0  0  0
  -26.0168  -38.2841   24.1388 H   0  0  0  0  0  0
  -25.2523  -20.5922   19.6980 H   0  0  0  0  0  0
  -28.2426  -16.4275   19.4844 H   0  0  0  0  0  0
  -27.9308  -16.2029   21.2471 H   0  0  0  0  0  0
  -31.3470  -17.7454   20.9339 H   0  0  0  0  0  0
  -30.7146  -17.5785   19.2654 H   0  0  0  0  0  0
  -29.1857  -18.1085   21.8598 H   0  0  0  0  0  0
  -25.1391  -18.4381   19.8655 H   0  0  0  0  0  0
  -26.2657  -17.6420   20.9171 H   0  0  0  0  0  0
  -26.4948  -17.6304   19.1318 H   0  0  0  0  0  0
  -24.8197  -22.6917   20.3290 H   0  0  0  0  0  0
  -25.7323  -23.4311   19.0343 H   0  0  0  0  0  0
  -25.9914  -23.8952   20.7292 H   0  0  0  0  0  0
  -30.4516  -21.2554   22.9482 H   0  0  0  0  0  0
  -32.0212  -20.7422   22.3363 H   0  0  0  0  0  0
  -30.7249  -19.5827   22.5371 H   0  0  0  0  0  0
  -30.1555  -23.2717   22.3021 H   0  0  0  0  0  0
  -30.0256  -24.9426   21.8553 H   0  0  0  0  0  0
  -30.8150  -23.8548   20.7543 H   0  0  0  0  0  0
  -30.9390  -21.7975   20.4018 H   0  0  0  0  0  0
  -30.9584  -20.1262   20.1328 H   0  0  0  0  0  0
  -27.5230  -24.7003   19.1065 H   0  0  0  0  0  0
  -29.1842  -24.8762   19.0351 H   0  0  0  0  0  0
  -27.9420  -23.8899   21.6135 H   0  0  0  0  0  0
  1 25  1  0  0  0
  1 30  2  0  0  0
  1 87  1  0  0  0
  2  3  1  0  0  0
  2 25  1  0  0  0
  2 88  1  0  0  0
  2 89  1  0  0  0
  3  4  1  0  0  0
  3 90  1  0  0  0
  3 91  1  0  0  0
  4  5  1  0  0  0
  4 92  1  0  0  0
  4 93  1  0  0  0
  5  6  1  0  0  0
  5 26  1  0  0  0
  5 94  1  0  0  0
  6 25  1  0  0  0
  6 95  1  0  0  0
  6 96  1  0  0  0
  7  8  2  0  0  0
  7 26  1  0  0  0
  7 29  1  0  0  0
  8  9  1  0  0  0
  8 22  1  0  0  0
  9 10  1  0  0  0
  9 27  2  0  0  0
 10 11  2  0  0  0
 10 15  1  0  0  0
 11 12  1  0  0  0
 11 97  1  0  0  0
 12 13  2  0  0  0
 12 98  1  0  0  0
 13 14  1  0  0  0
 13 31  1  0  0  0
 14 15  2  0  0  0
 14 99  1  0  0  0
 15100  1  0  0  0
 16 17  2  0  0  0
 16 21  1  0  0  0
 16 31  1  0  0  0
 17 18  1  0  0  0
 17101  1  0  0  0
 18 19  2  0  0  0
 18102  1  0  0  0
 19 20  1  0  0  0
 19 24  1  0  0  0
 20 21  2  0  0  0
 20103  1  0  0  0
 21 23  1  0  0  0
 22 28  1  0  0  0
 22 32  2  0  0  0
 26 27  1  0  0  0
 28104  1  0  0  0
 28105  1  0  0  0
 29106  1  0  0  0
 29107  1  0  0  0
 33 34  1  0  0  0
 33 66  1  0  0  0
 33 70  2  0  0  0
 34 36  1  0  0  0
 34 59  1  0  0  0
 34108  1  0  0  0
 35 44  2  0  0  0
 35 45  1  0  0  0
 35 68  1  0  0  0
 36 56  1  0  0  0
 36109  1  0  0  0
 37 39  1  0  0  0
 37 47  1  0  0  0
 37 66  1  0  0  0
 37110  1  0  0  0
 38 43  2  0  0  0
 38 46  1  0  0  0
 38 47  1  0  0  0
 39 64  1  0  0  0
 39 67  2  0  0  0
 40 52  1  0  0  0
 40 53  2  0  0  0
 40 58  1  0  0  0
 41111  1  0  0  0
 41112  1  0  0  0
 41113  1  0  0  0
 41 48  1  0  0  0
 42 43  1  0  0  0
 42 66  1  0  0  0
 42114  1  0  0  0
 42115  1  0  0  0
 43 44  1  0  0  0
 44116  1  0  0  0
 45 46  2  0  0  0
 45117  1  0  0  0
 46118  1  0  0  0
 47119  1  0  0  0
 47120  1  0  0  0
 48 56  1  0  0  0
 48 65  1  0  0  0
 48121  1  0  0  0
 49 50  1  0  0  0
 49 53  1  0  0  0
 49 64  1  0  0  0
 49122  1  0  0  0
 50 51  1  0  0  0
 50123  1  0  0  0
 50124  1  0  0  0
 51 52  1  0  0  0
 51125  1  0  0  0
 51126  1  0  0  0
 52127  1  0  0  0
 52128  1  0  0  0
 53 54  1  0  0  0
 54 55  2  0  0  0
 54129  1  0  0  0
 55 57  1  0  0  0
 55130  1  0  0  0
 56 69  2  0  0  0
 57 58  2  0  0  0
 57131  1  0  0  0
 58132  1  0  0  0
 59 60  1  0  0  0
 59 61  1  0  0  0
 59 62  1  0  0  0
 60133  1  0  0  0
 60134  1  0  0  0
 60135  1  0  0  0
 61136  1  0  0  0
 61137  1  0  0  0
 61138  1  0  0  0
 62139  1  0  0  0
 62140  1  0  0  0
 62141  1  0  0  0
 63 65  1  0  0  0
 63142  1  0  0  0
 63143  1  0  0  0
 63144  1  0  0  0
 64145  1  0  0  0
 65146  1  0  0  0
 68 85  1  0  0  0
 71 73  2  0  0  0
 71 74  1  0  0  0
 71147  1  0  0  0
 72 73  1  0  0  0
 72 75  2  0  0  0
 72 79  1  0  0  0
 73 80  1  0  0  0
 74 76  2  0  0  0
 74 81  1  0  0  0
 75 76  1  0  0  0
 75 84  1  0  0  0
 76 86  1  0  0  0
 77 79  1  0  0  0
 77 87  1  0  0  0
 77148  1  0  0  0
 77149  1  0  0  0
 78 79  1  0  0  0
 78 87  1  0  0  0
 78150  1  0  0  0
 78151  1  0  0  0
 79152  1  0  0  0
 80153  1  0  0  0
 80154  1  0  0  0
 80155  1  0  0  0
 81156  1  0  0  0
 81157  1  0  0  0
 81158  1  0  0  0
 82 84  1  0  0  0
 82159  1  0  0  0
 82160  1  0  0  0
 82161  1  0  0  0
 83162  1  0  0  0
 83163  1  0  0  0
 83164  1  0  0  0
 83 86  1  0  0  0
 84165  1  0  0  0
 84166  1  0  0  0
 85 86  1  0  0  0
 85167  1  0  0  0
 85168  1  0  0  0
 86169  1  0  0  0
M  ISO  4   1 100  68 101  85 101  87 100
M  END
> <chiral flag>
0

> <version>
0

> <s_m_source_file>
/data/baiqing/PycharmProjects/Reinvent-master-3.2/result/LINK_invent/BTK/process_docking_weight1_custom_sum_contain_oxygen_bond_distance_aromatic_linkinvent_7_9_3/rearranged_h_0167.sdf

> <i_m_source_file_index>
73

> <r_mmod_Potential_Energy-OPLS-2005>
431.115112304688

> <r_mmod_Stretch_Energy-OPLS-2005>
180.389221191406

> <r_mmod_Bend_Energy-OPLS-2005>
273.990142822266

> <r_mmod_Torsional_Energy-OPLS-2005>
267.180633544922

> <r_mmod_Improper_Torsional_Energy-OPLS-2005>
8.51068305969238

> <r_mmod_Van_der_Waal_Energy-OPLS-2005>
157.17707824707

> <r_mmod_Electrostatic_Energy-OPLS-2005>
-357.792175292969

> <r_mmod_Solvation_Energy-OPLS-2005>
-203.092346191406

> <b_mmod_Minimization_Converged-OPLS-2005>
0

> <r_mmod_RMS_Derivative-OPLS-2005>
1.38276755809784

$$$$
73
                    3D
 Structure written by MMmdl.
179189  0  0  1  0            999 V2000
  -30.6496  -14.6973   20.4628 C   0  0  0  0  0  0
  -30.4181  -12.4232   19.4716 C   0  0  0  0  0  0
  -29.5016  -12.4917   18.2338 C   0  0  0  0  0  0
  -28.0226  -12.3511   18.6420 C   0  0  0  0  0  0
  -27.6371  -13.2407   19.8533 C   0  0  2  0  0  0
  -28.6820  -13.1688   20.9865 C   0  0  0  0  0  0
  -25.2482  -13.8217   20.5749 C   0  0  0  0  0  0
  -24.1756  -13.0439   20.9213 C   0  0  0  0  0  0
  -24.6369  -11.6931   20.8754 C   0  0  0  0  0  0
  -23.9047  -10.4299   21.0383 C   0  0  0  0  0  0
  -24.3591   -9.4220   21.9171 C   0  0  0  0  0  0
  -23.6273   -8.2249   22.0753 C   0  0  0  0  0  0
  -22.4263   -8.0273   21.3539 C   0  0  0  0  0  0
  -21.9901   -9.0232   20.4634 C   0  0  0  0  0  0
  -22.7220  -10.2120   20.3045 C   0  0  0  0  0  0
  -21.6862   -6.0715   22.5266 C   0  0  0  0  0  0
  -21.4004   -6.5626   23.8197 C   0  0  0  0  0  0
  -21.3662   -5.6795   24.9165 C   0  0  0  0  0  0
  -21.6055   -4.3054   24.7228 C   0  0  0  0  0  0
  -21.8813   -3.8141   23.4356 C   0  0  0  0  0  0
  -21.9190   -4.6947   22.3399 C   0  0  0  0  0  0
  -22.7785  -13.5220   21.1884 C   0  0  0  0  0  0
  -22.1675   -4.2118   21.0979 F   0  0  0  0  0  0
  -21.5629   -3.4554   25.7752 F   0  0  0  0  0  0
  -29.9831  -13.4959   20.3963 N   0  0  0  0  0  0
  -26.2907  -12.9433   20.3325 N   0  0  0  0  0  0
  -25.9301  -11.6566   20.5769 N   0  0  0  0  0  0
  -22.0438  -12.8159   22.0432 N   0  0  0  0  0  0
  -25.4188  -15.1926   20.4192 N   0  0  0  0  0  0
  -31.8484  -14.7447   20.1674 O   0  0  0  0  0  0
  -21.6653   -6.8854   21.4227 O   0  0  0  0  0  0
  -22.3471  -14.5532   20.6773 O   0  0  0  0  0  0
  -24.6345  -31.8554   23.1992 C   0  0  0  0  0  0
  -25.9140  -32.4759   23.8366 C   0  0  1  0  0  0
  -27.2129  -27.2514   20.1236 C   0  0  0  0  0  0
  -25.5917  -33.8579   24.2306 N   0  0  0  0  0  0
  -23.4328  -30.4828   21.5451 C   0  0  2  0  0  0
  -24.8754  -28.9398   20.1118 C   0  0  0  0  0  0
  -22.7548  -29.4593   22.4898 C   0  0  0  0  0  0
  -18.0306  -28.1385   22.8468 C   0  0  0  0  0  0
  -24.1458  -36.7261   23.2642 C   0  0  0  0  0  0
  -25.9853  -30.7640   21.3838 C   0  0  0  0  0  0
  -26.0531  -29.3876   20.7268 C   0  0  0  0  0  0
  -27.2244  -28.5572   20.7223 C   0  0  0  0  0  0
  -25.9995  -26.8880   19.4785 C   0  0  0  0  0  0
  -24.8554  -27.6963   19.4777 C   0  0  0  0  0  0
  -23.6491  -29.8282   20.1597 C   0  0  0  0  0  0
  -25.4089  -36.3084   24.0350 C   0  0  1  0  0  0
  -20.5923  -28.3685   23.1246 C   0  0  2  0  0  0
  -20.6801  -26.9398   22.5402 C   0  0  0  0  0  0
  -19.5751  -26.6369   21.5220 C   0  0  0  0  0  0
  -18.1918  -26.7922   22.1622 C   0  0  0  0  0  0
  -19.1563  -28.8861   23.2836 C   0  0  0  0  0  0
  -18.9489  -30.1448   23.8875 C   0  0  0  0  0  0
  -17.6483  -30.6574   24.0548 C   0  0  0  0  0  0
  -25.9021  -34.9455   23.5129 C   0  0  0  0  0  0
  -16.5373  -29.9076   23.6335 C   0  0  0  0  0  0
  -16.7300  -28.6497   23.0366 C   0  0  0  0  0  0
  -26.4488  -31.6581   25.0775 C   0  0  0  0  0  0
  -25.3721  -31.3675   26.1515 C   0  0  0  0  0  0
  -27.0387  -30.3038   24.6186 C   0  0  0  0  0  0
  -27.6026  -32.4336   25.7585 C   0  0  0  0  0  0
  -27.5568  -37.1769   24.8477 C   0  0  0  0  0  0
  -21.4263  -29.3025   22.3645 N   0  0  0  0  0  0
  -26.4276  -37.3779   23.9432 N   0  0  0  0  0  0
  -24.7048  -31.0523   22.0980 N   0  0  0  0  0  0
  -23.4244  -28.8161   23.3013 O   0  0  0  0  0  0
  -28.2850  -26.3138   20.1927 O   0  0  0  0  0  0
  -26.5560  -34.8915   22.4678 O   0  0  0  0  0  0
  -23.5488  -32.1418   23.7231 O   0  0  0  0  0  0
  -29.1474  -21.4339   21.3286 C   0  0  0  0  0  0
  -29.5216  -20.6536   20.2012 C   0  0  0  0  0  0
  -28.8335  -22.8308   21.2643 C   0  0  0  0  0  0
  -29.6887  -21.4179   18.9956 C   0  0  0  0  0  0
  -28.8063  -23.5553   20.0288 C   0  0  0  0  0  0
  -29.3274  -22.8264   18.8939 C   0  0  0  0  0  0
  -26.0410  -23.8105   23.2565 C   0  0  0  0  0  0
  -26.1232  -22.4157   22.6860 C   0  0  0  0  0  0
  -29.8374  -18.3489   21.6762 C   0  0  0  0  0  0
  -29.0236  -18.0848   19.4389 C   0  0  0  0  0  0
  -30.3763  -16.8497   21.6698 C   0  0  0  0  0  0
  -29.6802  -16.6542   19.3337 C   0  0  0  0  0  0
  -29.8600  -19.0795   20.3004 C   0  0  0  0  0  0
  -27.3386  -23.0389   23.3469 C   0  0  0  0  0  0
  -30.2636  -20.7001   17.7696 C   0  0  0  0  0  0
  -30.0823  -24.9295   17.5119 C   0  0  0  0  0  0
  -28.1513  -23.3825   16.6826 C   0  0  0  0  0  0
  -28.5490  -23.5486   22.5801 C   0  0  0  0  0  0
  -27.9224  -24.8864   19.8818 C   0  0  0  0  0  0
  -29.4437  -23.5199   17.5104 C   0  0  0  0  0  0
  -29.9418  -15.8952   20.5972 N   0  0  0  0  0  0
  -31.4607  -12.5290   19.1675 H   0  0  0  0  0  0
  -30.3525  -11.4467   19.9516 H   0  0  0  0  0  0
  -29.7656  -11.7073   17.5252 H   0  0  0  0  0  0
  -29.6542  -13.4400   17.7168 H   0  0  0  0  0  0
  -27.8485  -11.3024   18.8832 H   0  0  0  0  0  0
  -27.3769  -12.5759   17.7925 H   0  0  0  0  0  0
  -27.6342  -14.2657   19.4843 H   0  0  0  0  0  0
  -28.6980  -12.1765   21.4406 H   0  0  0  0  0  0
  -28.4334  -13.8690   21.7844 H   0  0  0  0  0  0
  -25.2709   -9.5709   22.4779 H   0  0  0  0  0  0
  -23.9972   -7.4640   22.7483 H   0  0  0  0  0  0
  -21.0841   -8.8732   19.8933 H   0  0  0  0  0  0
  -22.3649  -10.9644   19.6172 H   0  0  0  0  0  0
  -21.1998   -7.6136   23.9685 H   0  0  0  0  0  0
  -21.1504   -6.0539   25.9062 H   0  0  0  0  0  0
  -22.0594   -2.7602   23.2880 H   0  0  0  0  0  0
  -22.4067  -11.9790   22.4735 H   0  0  0  0  0  0
  -21.1055  -13.1150   22.2653 H   0  0  0  0  0  0
  -24.6601  -15.8555   20.5365 H   0  0  0  0  0  0
  -26.2907  -15.6302   20.1461 H   0  0  0  0  0  0
  -26.7247  -32.5407   23.1139 H   0  0  0  0  0  0
  -25.0158  -33.9724   25.0522 H   0  0  0  0  0  0
  -22.7277  -31.3051   21.4068 H   0  0  0  0  0  0
  -23.3747  -35.9565   23.3329 H   0  0  0  0  0  0
  -24.3530  -36.8850   22.2042 H   0  0  0  0  0  0
  -23.7201  -37.6462   23.6663 H   0  0  0  0  0  0
  -26.1367  -31.5142   20.6051 H   0  0  0  0  0  0
  -26.8587  -30.8060   22.0221 H   0  0  0  0  0  0
  -28.1253  -28.8891   21.2255 H   0  0  0  0  0  0
  -25.8617  -25.9465   18.9734 H   0  0  0  0  0  0
  -23.9585  -27.3430   18.9890 H   0  0  0  0  0  0
  -23.7741  -30.6113   19.4107 H   0  0  0  0  0  0
  -22.7632  -29.2660   19.8529 H   0  0  0  0  0  0
  -25.1251  -36.1929   25.0842 H   0  0  0  0  0  0
  -21.0019  -28.3282   24.1355 H   0  0  0  0  0  0
  -20.5748  -26.2270   23.3600 H   0  0  0  0  0  0
  -21.6647  -26.7443   22.1131 H   0  0  0  0  0  0
  -19.6907  -25.6281   21.1208 H   0  0  0  0  0  0
  -19.6683  -27.3218   20.6777 H   0  0  0  0  0  0
  -17.4198  -26.6688   21.4000 H   0  0  0  0  0  0
  -18.0281  -26.0075   22.9032 H   0  0  0  0  0  0
  -19.7990  -30.7230   24.2231 H   0  0  0  0  0  0
  -17.5076  -31.6263   24.5121 H   0  0  0  0  0  0
  -15.5372  -30.2957   23.7681 H   0  0  0  0  0  0
  -15.8715  -28.0793   22.7107 H   0  0  0  0  0  0
  -24.5893  -30.7004   25.7874 H   0  0  0  0  0  0
  -24.8878  -32.2814   26.4974 H   0  0  0  0  0  0
  -25.8043  -30.8866   27.0301 H   0  0  0  0  0  0
  -26.3004  -29.6785   24.1139 H   0  0  0  0  0  0
  -27.4112  -29.7228   25.4629 H   0  0  0  0  0  0
  -27.8857  -30.4407   23.9451 H   0  0  0  0  0  0
  -27.2631  -33.3677   26.2077 H   0  0  0  0  0  0
  -28.3904  -32.6817   25.0471 H   0  0  0  0  0  0
  -28.0612  -31.8500   26.5566 H   0  0  0  0  0  0
  -28.2562  -38.0079   24.7556 H   0  0  0  0  0  0
  -28.1076  -36.2606   24.6301 H   0  0  0  0  0  0
  -27.2253  -37.1403   25.8863 H   0  0  0  0  0  0
  -20.9473  -29.8798   21.6895 H   0  0  0  0  0  0
  -26.0144  -38.2841   24.1496 H   0  0  0  0  0  0
  -29.0969  -20.9472   22.2929 H   0  0  0  0  0  0
  -25.4898  -23.9574   24.1825 H   0  0  0  0  0  0
  -25.9961  -24.6444   22.5562 H   0  0  0  0  0  0
  -26.1100  -22.3113   21.6016 H   0  0  0  0  0  0
  -25.6239  -21.6166   23.2309 H   0  0  0  0  0  0
  -30.4312  -18.9174   22.3941 H   0  0  0  0  0  0
  -28.8200  -18.3554   22.0714 H   0  0  0  0  0  0
  -28.0110  -17.9975   19.8360 H   0  0  0  0  0  0
  -28.8832  -18.4675   18.4292 H   0  0  0  0  0  0
  -30.1337  -16.3939   22.6289 H   0  0  0  0  0  0
  -31.4646  -16.8978   21.6468 H   0  0  0  0  0  0
  -30.6366  -16.7810   18.8205 H   0  0  0  0  0  0
  -29.0771  -16.0344   18.6681 H   0  0  0  0  0  0
  -30.8972  -19.0153   19.9742 H   0  0  0  0  0  0
  -27.5869  -22.6691   24.3430 H   0  0  0  0  0  0
  -30.6383  -19.7017   17.9610 H   0  0  0  0  0  0
  -31.1315  -21.2243   17.3766 H   0  0  0  0  0  0
  -29.5131  -20.6120   16.9845 H   0  0  0  0  0  0
  -31.1166  -24.8889   17.8599 H   0  0  0  0  0  0
  -29.5747  -25.6725   18.1166 H   0  0  0  0  0  0
  -30.1154  -25.3432   16.5031 H   0  0  0  0  0  0
  -27.8927  -22.3298   16.5661 H   0  0  0  0  0  0
  -28.2831  -23.7880   15.6796 H   0  0  0  0  0  0
  -27.2776  -23.8642   17.1136 H   0  0  0  0  0  0
  -28.4512  -24.6261   22.4411 H   0  0  0  0  0  0
  -29.4284  -23.4248   23.2149 H   0  0  0  0  0  0
  -27.0174  -24.6559   20.4456 H   0  0  0  0  0  0
  -27.6127  -24.9076   18.8477 H   0  0  0  0  0  0
  -30.1771  -22.9943   16.9098 H   0  0  0  0  0  0
  1 25  1  0  0  0
  1 30  2  0  0  0
  1 91  1  0  0  0
  2  3  1  0  0  0
  2 25  1  0  0  0
  2 92  1  0  0  0
  2 93  1  0  0  0
  3  4  1  0  0  0
  3 94  1  0  0  0
  3 95  1  0  0  0
  4  5  1  0  0  0
  4 96  1  0  0  0
  4 97  1  0  0  0
  5  6  1  0  0  0
  5 26  1  0  0  0
  5 98  1  0  0  0
  6 25  1  0  0  0
  6 99  1  0  0  0
  6100  1  0  0  0
  7  8  2  0  0  0
  7 26  1  0  0  0
  7 29  1  0  0  0
  8  9  1  0  0  0
  8 22  1  0  0  0
  9 10  1  0  0  0
  9 27  2  0  0  0
 10 11  2  0  0  0
 10 15  1  0  0  0
 11 12  1  0  0  0
 11101  1  0  0  0
 12 13  2  0  0  0
 12102  1  0  0  0
 13 14  1  0  0  0
 13 31  1  0  0  0
 14 15  2  0  0  0
 14103  1  0  0  0
 15104  1  0  0  0
 16 17  2  0  0  0
 16 21  1  0  0  0
 16 31  1  0  0  0
 17 18  1  0  0  0
 17105  1  0  0  0
 18 19  2  0  0  0
 18106  1  0  0  0
 19 20  1  0  0  0
 19 24  1  0  0  0
 20 21  2  0  0  0
 20107  1  0  0  0
 21 23  1  0  0  0
 22 28  1  0  0  0
 22 32  2  0  0  0
 26 27  1  0  0  0
 28108  1  0  0  0
 28109  1  0  0  0
 29110  1  0  0  0
 29111  1  0  0  0
 33 34  1  0  0  0
 33 66  1  0  0  0
 33 70  2  0  0  0
 34 36  1  0  0  0
 34 59  1  0  0  0
 34112  1  0  0  0
 35 44  2  0  0  0
 35 45  1  0  0  0
 35 68  1  0  0  0
 36 56  1  0  0  0
 36113  1  0  0  0
 37 39  1  0  0  0
 37 47  1  0  0  0
 37 66  1  0  0  0
 37114  1  0  0  0
 38 43  2  0  0  0
 38 46  1  0  0  0
 38 47  1  0  0  0
 39 64  1  0  0  0
 39 67  2  0  0  0
 40 52  1  0  0  0
 40 53  2  0  0  0
 40 58  1  0  0  0
 41115  1  0  0  0
 41116  1  0  0  0
 41117  1  0  0  0
 41 48  1  0  0  0
 42 43  1  0  0  0
 42 66  1  0  0  0
 42118  1  0  0  0
 42119  1  0  0  0
 43 44  1  0  0  0
 44120  1  0  0  0
 45 46  2  0  0  0
 45121  1  0  0  0
 46122  1  0  0  0
 47123  1  0  0  0
 47124  1  0  0  0
 48 56  1  0  0  0
 48 65  1  0  0  0
 48125  1  0  0  0
 49 50  1  0  0  0
 49 53  1  0  0  0
 49 64  1  0  0  0
 49126  1  0  0  0
 50 51  1  0  0  0
 50127  1  0  0  0
 50128  1  0  0  0
 51 52  1  0  0  0
 51129  1  0  0  0
 51130  1  0  0  0
 52131  1  0  0  0
 52132  1  0  0  0
 53 54  1  0  0  0
 54 55  2  0  0  0
 54133  1  0  0  0
 55 57  1  0  0  0
 55134  1  0  0  0
 56 69  2  0  0  0
 57 58  2  0  0  0
 57135  1  0  0  0
 58136  1  0  0  0
 59 60  1  0  0  0
 59 61  1  0  0  0
 59 62  1  0  0  0
 60137  1  0  0  0
 60138  1  0  0  0
 60139  1  0  0  0
 61140  1  0  0  0
 61141  1  0  0  0
 61142  1  0  0  0
 62143  1  0  0  0
 62144  1  0  0  0
 62145  1  0  0  0
 63 65  1  0  0  0
 63146  1  0  0  0
 63147  1  0  0  0
 63148  1  0  0  0
 64149  1  0  0  0
 65150  1  0  0  0
 68 89  1  0  0  0
 71 72  2  0  0  0
 71 73  1  0  0  0
 71151  1  0  0  0
 72 74  1  0  0  0
 72 83  1  0  0  0
 73 75  2  0  0  0
 73 88  1  0  0  0
 74 76  2  0  0  0
 74 85  1  0  0  0
 75 76  1  0  0  0
 75 89  1  0  0  0
 76 90  1  0  0  0
 77 78  1  0  0  0
 77 84  1  0  0  0
 77152  1  0  0  0
 77153  1  0  0  0
 78 84  1  0  0  0
 78154  1  0  0  0
 78155  1  0  0  0
 79 81  1  0  0  0
 79 83  1  0  0  0
 79156  1  0  0  0
 79157  1  0  0  0
 80 82  1  0  0  0
 80 83  1  0  0  0
 80158  1  0  0  0
 80159  1  0  0  0
 81 91  1  0  0  0
 81160  1  0  0  0
 81161  1  0  0  0
 82 91  1  0  0  0
 82162  1  0  0  0
 82163  1  0  0  0
 83164  1  0  0  0
 84 88  1  0  0  0
 84165  1  0  0  0
 85166  1  0  0  0
 85167  1  0  0  0
 85168  1  0  0  0
 86169  1  0  0  0
 86170  1  0  0  0
 86171  1  0  0  0
 86 90  1  0  0  0
 87 90  1  0  0  0
 87172  1  0  0  0
 87173  1  0  0  0
 87174  1  0  0  0
 88175  1  0  0  0
 88176  1  0  0  0
 89177  1  0  0  0
 89178  1  0  0  0
 90179  1  0  0  0
M  ISO  4   1 100  68 101  89 101  91 100
M  END
> <chiral flag>
0

> <version>
0

> <s_m_source_file>
/data/baiqing/PycharmProjects/Reinvent-master-3.2/result/LINK_invent/BTK/process_docking_weight1_custom_sum_contain_oxygen_bond_distance_aromatic_linkinvent_7_9_3/rearranged_h_0167.sdf

> <i_m_source_file_index>
74

> <r_mmod_Potential_Energy-OPLS-2005>
538.738952636719

> <r_mmod_Stretch_Energy-OPLS-2005>
130.99560546875

> <r_mmod_Bend_Energy-OPLS-2005>
218.116836547852

> <r_mmod_Torsional_Energy-OPLS-2005>
400.138549804688

> <r_mmod_Improper_Torsional_Energy-OPLS-2005>
13.4489784240723

> <r_mmod_Van_der_Waal_Energy-OPLS-2005>
167.690017700195

> <r_mmod_Electrostatic_Energy-OPLS-2005>
-293.869262695312

> <r_mmod_Solvation_Energy-OPLS-2005>
-181.582824707031

> <b_mmod_Minimization_Converged-OPLS-2005>
0

> <r_mmod_RMS_Derivative-OPLS-2005>
4.60910797119141

$$$$
74
                    3D
 Structure written by MMmdl.
167177  0  0  1  0            999 V2000
  -30.6562  -14.6907   20.4451 C   0  0  0  0  0  0
  -30.4323  -12.4134   19.4680 C   0  0  0  0  0  0
  -29.5102  -12.4700   18.2307 C   0  0  0  0  0  0
  -28.0347  -12.3148   18.6488 C   0  0  0  0  0  0
  -27.6449  -13.2214   19.8481 C   0  0  2  0  0  0
  -28.6945  -13.1726   20.9800 C   0  0  0  0  0  0
  -25.2556  -13.8176   20.5714 C   0  0  0  0  0  0
  -24.1819  -13.0448   20.9202 C   0  0  0  0  0  0
  -24.6391  -11.6914   20.8753 C   0  0  0  0  0  0
  -23.9059  -10.4292   21.0415 C   0  0  0  0  0  0
  -24.3616   -9.4212   21.9189 C   0  0  0  0  0  0
  -23.6290   -8.2245   22.0762 C   0  0  0  0  0  0
  -22.4266   -8.0284   21.3552 C   0  0  0  0  0  0
  -21.9900   -9.0255   20.4660 C   0  0  0  0  0  0
  -22.7231  -10.2138   20.3062 C   0  0  0  0  0  0
  -21.6854   -6.0731   22.5279 C   0  0  0  0  0  0
  -21.4018   -6.5637   23.8208 C   0  0  0  0  0  0
  -21.3664   -5.6789   24.9171 C   0  0  0  0  0  0
  -21.6045   -4.3051   24.7221 C   0  0  0  0  0  0
  -21.8822   -3.8143   23.4346 C   0  0  0  0  0  0
  -21.9195   -4.6961   22.3403 C   0  0  0  0  0  0
  -22.7839  -13.5239   21.1843 C   0  0  0  0  0  0
  -22.1662   -4.2146   21.0982 F   0  0  0  0  0  0
  -21.5626   -3.4538   25.7738 F   0  0  0  0  0  0
  -29.9961  -13.4885   20.3833 N   0  0  0  0  0  0
  -26.2966  -12.9363   20.3305 N   0  0  0  0  0  0
  -25.9321  -11.6517   20.5778 N   0  0  0  0  0  0
  -22.0463  -12.8238   22.0405 N   0  0  0  0  0  0
  -25.4283  -15.1900   20.4159 N   0  0  0  0  0  0
  -31.8706  -14.7335   20.2364 O   0  0  0  0  0  0
  -21.6637   -6.8873   21.4243 O   0  0  0  0  0  0
  -22.3521  -14.5534   20.6673 O   0  0  0  0  0  0
  -24.6293  -31.8600   23.2060 C   0  0  0  0  0  0
  -25.9142  -32.4781   23.8369 C   0  0  1  0  0  0
  -27.2034  -27.2860   20.1165 C   0  0  0  0  0  0
  -25.5960  -33.8584   24.2287 N   0  0  0  0  0  0
  -23.4227  -30.4898   21.5494 C   0  0  2  0  0  0
  -24.8676  -28.9585   20.1046 C   0  0  0  0  0  0
  -22.7493  -29.4622   22.4911 C   0  0  0  0  0  0
  -18.0298  -28.1385   22.8483 C   0  0  0  0  0  0
  -24.1493  -36.7286   23.2630 C   0  0  0  0  0  0
  -25.9705  -30.7796   21.3882 C   0  0  0  0  0  0
  -26.0407  -29.4091   20.7228 C   0  0  0  0  0  0
  -27.2101  -28.5827   20.7286 C   0  0  0  0  0  0
  -26.0125  -26.9314   19.4309 C   0  0  0  0  0  0
  -24.8576  -27.7251   19.4488 C   0  0  0  0  0  0
  -23.6393  -29.8416   20.1594 C   0  0  0  0  0  0
  -25.4116  -36.3076   24.0320 C   0  0  1  0  0  0
  -20.5901  -28.3698   23.1262 C   0  0  2  0  0  0
  -20.6787  -26.9413   22.5406 C   0  0  0  0  0  0
  -19.5759  -26.6381   21.5212 C   0  0  0  0  0  0
  -18.1936  -26.7932   22.1622 C   0  0  0  0  0  0
  -19.1550  -28.8860   23.2870 C   0  0  0  0  0  0
  -18.9471  -30.1459   23.8889 C   0  0  0  0  0  0
  -17.6469  -30.6584   24.0565 C   0  0  0  0  0  0
  -25.9062  -34.9447   23.5095 C   0  0  0  0  0  0
  -16.5362  -29.9079   23.6333 C   0  0  0  0  0  0
  -16.7285  -28.6499   23.0349 C   0  0  0  0  0  0
  -26.4509  -31.6593   25.0747 C   0  0  0  0  0  0
  -25.3737  -31.3774   26.1480 C   0  0  0  0  0  0
  -27.0339  -30.2990   24.6241 C   0  0  0  0  0  0
  -27.6066  -32.4325   25.7522 C   0  0  0  0  0  0
  -27.5579  -37.1794   24.8454 C   0  0  0  0  0  0
  -21.4201  -29.3051   22.3654 N   0  0  0  0  0  0
  -26.4286  -37.3772   23.9406 N   0  0  0  0  0  0
  -24.6932  -31.0584   22.1041 N   0  0  0  0  0  0
  -23.4206  -28.8129   23.2975 O   0  0  0  0  0  0
  -28.2621  -26.3488   20.2187 O   0  0  0  0  0  0
  -26.5606  -34.8905   22.4648 O   0  0  0  0  0  0
  -23.5454  -32.1414   23.7374 O   0  0  0  0  0  0
  -30.4490  -21.9769   19.6550 C   0  0  0  0  0  0
  -29.8154  -20.9040   20.3339 C   0  0  0  0  0  0
  -28.6518  -21.2113   21.0734 C   0  0  0  0  0  0
  -29.9078  -23.2948   19.6179 C   0  0  0  0  0  0
  -28.1257  -22.5594   21.0946 C   0  0  0  0  0  0
  -28.7072  -23.6219   20.3051 C   0  0  0  0  0  0
  -30.3724  -19.4394   20.2035 C   0  0  0  0  0  0
  -27.9661  -20.0175   21.7571 C   0  0  0  0  0  0
  -28.9489  -18.9204   22.2412 C   0  0  0  0  0  0
  -28.6729  -17.0458   19.0401 C   0  0  0  0  0  0
  -30.0118  -16.3901   18.6872 C   0  0  0  0  0  0
  -29.8273  -18.2656   21.1423 C   0  0  1  0  0  0
  -29.1194  -16.9697   20.5030 C   0  0  2  0  0  0
  -30.5906  -24.3386   18.7498 C   0  0  0  0  0  0
  -26.8837  -22.8605   21.9330 C   0  0  0  0  0  0
  -27.8843  -24.9304   19.9282 C   0  0  0  0  0  0
  -29.9308  -15.7835   20.0124 N   0  0  0  0  0  0
  -31.4744  -12.5265   19.1648 H   0  0  0  0  0  0
  -30.3655  -11.4426   19.9620 H   0  0  0  0  0  0
  -29.7804  -11.6861   17.5220 H   0  0  0  0  0  0
  -29.6525  -13.4130   17.7033 H   0  0  0  0  0  0
  -27.8839  -11.2680   18.9152 H   0  0  0  0  0  0
  -27.3778  -12.5115   17.8002 H   0  0  0  0  0  0
  -27.6362  -14.2365   19.4588 H   0  0  0  0  0  0
  -28.7189  -12.1897   21.4537 H   0  0  0  0  0  0
  -28.4468  -13.8945   21.7599 H   0  0  0  0  0  0
  -25.2773   -9.5683   22.4748 H   0  0  0  0  0  0
  -24.0015   -7.4629   22.7467 H   0  0  0  0  0  0
  -21.0830   -8.8766   19.8950 H   0  0  0  0  0  0
  -22.3698  -10.9668   19.6156 H   0  0  0  0  0  0
  -21.2017   -7.6141   23.9706 H   0  0  0  0  0  0
  -21.1478   -6.0521   25.9069 H   0  0  0  0  0  0
  -22.0601   -2.7606   23.2841 H   0  0  0  0  0  0
  -22.4073  -11.9939   22.4848 H   0  0  0  0  0  0
  -21.1076  -13.1268   22.2573 H   0  0  0  0  0  0
  -24.6686  -15.8512   20.5276 H   0  0  0  0  0  0
  -26.2929  -15.6260   20.1243 H   0  0  0  0  0  0
  -26.7206  -32.5425   23.1109 H   0  0  0  0  0  0
  -25.0134  -33.9731   25.0449 H   0  0  0  0  0  0
  -22.7161  -31.3114   21.4140 H   0  0  0  0  0  0
  -23.3758  -35.9613   23.3279 H   0  0  0  0  0  0
  -24.3590  -36.8925   22.2048 H   0  0  0  0  0  0
  -23.7249  -37.6482   23.6667 H   0  0  0  0  0  0
  -26.1119  -31.5474   20.6263 H   0  0  0  0  0  0
  -26.8474  -30.8199   22.0227 H   0  0  0  0  0  0
  -28.0986  -28.9152   21.2460 H   0  0  0  0  0  0
  -25.9096  -26.0098   18.8808 H   0  0  0  0  0  0
  -23.9658  -27.3811   18.9428 H   0  0  0  0  0  0
  -23.7634  -30.6281   19.4140 H   0  0  0  0  0  0
  -22.7573  -29.2797   19.8479 H   0  0  0  0  0  0
  -25.1298  -36.1913   25.0812 H   0  0  0  0  0  0
  -20.9994  -28.3284   24.1384 H   0  0  0  0  0  0
  -20.5697  -26.2300   23.3609 H   0  0  0  0  0  0
  -21.6654  -26.7440   22.1193 H   0  0  0  0  0  0
  -19.6914  -25.6289   21.1245 H   0  0  0  0  0  0
  -19.6694  -27.3189   20.6739 H   0  0  0  0  0  0
  -17.4204  -26.6680   21.4023 H   0  0  0  0  0  0
  -18.0330  -26.0076   22.9021 H   0  0  0  0  0  0
  -19.7950  -30.7285   24.2237 H   0  0  0  0  0  0
  -17.5027  -31.6261   24.5166 H   0  0  0  0  0  0
  -15.5364  -30.2976   23.7664 H   0  0  0  0  0  0
  -15.8685  -28.0820   22.7055 H   0  0  0  0  0  0
  -24.5889  -30.7140   25.7827 H   0  0  0  0  0  0
  -24.8968  -32.2973   26.4875 H   0  0  0  0  0  0
  -25.8058  -30.8972   27.0268 H   0  0  0  0  0  0
  -26.2919  -29.6753   24.1242 H   0  0  0  0  0  0
  -27.3974  -29.7241   25.4770 H   0  0  0  0  0  0
  -27.8826  -30.4234   23.9512 H   0  0  0  0  0  0
  -27.2665  -33.3623   26.2090 H   0  0  0  0  0  0
  -28.3889  -32.6887   25.0366 H   0  0  0  0  0  0
  -28.0716  -31.8459   26.5456 H   0  0  0  0  0  0
  -28.2582  -38.0104   24.7515 H   0  0  0  0  0  0
  -28.1090  -36.2636   24.6261 H   0  0  0  0  0  0
  -27.2298  -37.1424   25.8856 H   0  0  0  0  0  0
  -20.9359  -29.8803   21.6902 H   0  0  0  0  0  0
  -26.0161  -38.2834   24.1439 H   0  0  0  0  0  0
  -31.3462  -21.7672   19.0873 H   0  0  0  0  0  0
  -31.4422  -19.5198   20.3996 H   0  0  0  0  0  0
  -30.3225  -19.1703   19.1526 H   0  0  0  0  0  0
  -27.2532  -19.5858   21.0532 H   0  0  0  0  0  0
  -27.3845  -20.3236   22.6216 H   0  0  0  0  0  0
  -28.3967  -18.1544   22.7871 H   0  0  0  0  0  0
  -29.6085  -19.3753   22.9816 H   0  0  0  0  0  0
  -27.8148  -16.4112   18.8139 H   0  0  0  0  0  0
  -28.5152  -18.0472   18.6397 H   0  0  0  0  0  0
  -30.8556  -17.0720   18.5674 H   0  0  0  0  0  0
  -29.9485  -15.6936   17.8513 H   0  0  0  0  0  0
  -30.6982  -17.8814   21.6752 H   0  0  0  0  0  0
  -28.2880  -16.6252   21.1207 H   0  0  0  0  0  0
  -31.6054  -24.0388   18.4869 H   0  0  0  0  0  0
  -30.6526  -25.2962   19.2678 H   0  0  0  0  0  0
  -30.0331  -24.4857   17.8243 H   0  0  0  0  0  0
  -26.8520  -22.3005   22.8640 H   0  0  0  0  0  0
  -25.9751  -22.6526   21.3673 H   0  0  0  0  0  0
  -26.8630  -23.9013   22.2546 H   0  0  0  0  0  0
  -26.8787  -24.7571   20.2990 H   0  0  0  0  0  0
  -27.7848  -24.8692   18.8439 H   0  0  0  0  0  0
  1 25  1  0  0  0
  1 30  2  0  0  0
  1 87  1  0  0  0
  2  3  1  0  0  0
  2 25  1  0  0  0
  2 88  1  0  0  0
  2 89  1  0  0  0
  3  4  1  0  0  0
  3 90  1  0  0  0
  3 91  1  0  0  0
  4  5  1  0  0  0
  4 92  1  0  0  0
  4 93  1  0  0  0
  5  6  1  0  0  0
  5 26  1  0  0  0
  5 94  1  0  0  0
  6 25  1  0  0  0
  6 95  1  0  0  0
  6 96  1  0  0  0
  7  8  2  0  0  0
  7 26  1  0  0  0
  7 29  1  0  0  0
  8  9  1  0  0  0
  8 22  1  0  0  0
  9 10  1  0  0  0
  9 27  2  0  0  0
 10 11  2  0  0  0
 10 15  1  0  0  0
 11 12  1  0  0  0
 11 97  1  0  0  0
 12 13  2  0  0  0
 12 98  1  0  0  0
 13 14  1  0  0  0
 13 31  1  0  0  0
 14 15  2  0  0  0
 14 99  1  0  0  0
 15100  1  0  0  0
 16 17  2  0  0  0
 16 21  1  0  0  0
 16 31  1  0  0  0
 17 18  1  0  0  0
 17101  1  0  0  0
 18 19  2  0  0  0
 18102  1  0  0  0
 19 20  1  0  0  0
 19 24  1  0  0  0
 20 21  2  0  0  0
 20103  1  0  0  0
 21 23  1  0  0  0
 22 28  1  0  0  0
 22 32  2  0  0  0
 26 27  1  0  0  0
 28104  1  0  0  0
 28105  1  0  0  0
 29106  1  0  0  0
 29107  1  0  0  0
 33 34  1  0  0  0
 33 66  1  0  0  0
 33 70  2  0  0  0
 34 36  1  0  0  0
 34 59  1  0  0  0
 34108  1  0  0  0
 35 44  2  0  0  0
 35 45  1  0  0  0
 35 68  1  0  0  0
 36 56  1  0  0  0
 36109  1  0  0  0
 37 39  1  0  0  0
 37 47  1  0  0  0
 37 66  1  0  0  0
 37110  1  0  0  0
 38 43  2  0  0  0
 38 46  1  0  0  0
 38 47  1  0  0  0
 39 64  1  0  0  0
 39 67  2  0  0  0
 40 52  1  0  0  0
 40 53  2  0  0  0
 40 58  1  0  0  0
 41111  1  0  0  0
 41112  1  0  0  0
 41113  1  0  0  0
 41 48  1  0  0  0
 42 43  1  0  0  0
 42 66  1  0  0  0
 42114  1  0  0  0
 42115  1  0  0  0
 43 44  1  0  0  0
 44116  1  0  0  0
 45 46  2  0  0  0
 45117  1  0  0  0
 46118  1  0  0  0
 47119  1  0  0  0
 47120  1  0  0  0
 48 56  1  0  0  0
 48 65  1  0  0  0
 48121  1  0  0  0
 49 50  1  0  0  0
 49 53  1  0  0  0
 49 64  1  0  0  0
 49122  1  0  0  0
 50 51  1  0  0  0
 50123  1  0  0  0
 50124  1  0  0  0
 51 52  1  0  0  0
 51125  1  0  0  0
 51126  1  0  0  0
 52127  1  0  0  0
 52128  1  0  0  0
 53 54  1  0  0  0
 54 55  2  0  0  0
 54129  1  0  0  0
 55 57  1  0  0  0
 55130  1  0  0  0
 56 69  2  0  0  0
 57 58  2  0  0  0
 57131  1  0  0  0
 58132  1  0  0  0
 59 60  1  0  0  0
 59 61  1  0  0  0
 59 62  1  0  0  0
 60133  1  0  0  0
 60134  1  0  0  0
 60135  1  0  0  0
 61136  1  0  0  0
 61137  1  0  0  0
 61138  1  0  0  0
 62139  1  0  0  0
 62140  1  0  0  0
 62141  1  0  0  0
 63 65  1  0  0  0
 63142  1  0  0  0
 63143  1  0  0  0
 63144  1  0  0  0
 64145  1  0  0  0
 65146  1  0  0  0
 68 86  1  0  0  0
 71 72  2  0  0  0
 71 74  1  0  0  0
 71147  1  0  0  0
 72 73  1  0  0  0
 72 77  1  0  0  0
 73 75  2  0  0  0
 73 78  1  0  0  0
 74 76  2  0  0  0
 74 84  1  0  0  0
 75 76  1  0  0  0
 75 85  1  0  0  0
 76 86  1  0  0  0
 77148  1  0  0  0
 77149  1  0  0  0
 77 82  1  0  0  0
 78 79  1  0  0  0
 78150  1  0  0  0
 78151  1  0  0  0
 79 82  1  0  0  0
 79152  1  0  0  0
 79153  1  0  0  0
 80 81  1  0  0  0
 80154  1  0  0  0
 80155  1  0  0  0
 80 83  1  0  0  0
 81 87  1  0  0  0
 81156  1  0  0  0
 81157  1  0  0  0
 82 83  1  0  0  0
 82158  1  0  0  0
 83 87  1  0  0  0
 83159  1  0  0  0
 84160  1  0  0  0
 84161  1  0  0  0
 84162  1  0  0  0
 85163  1  0  0  0
 85164  1  0  0  0
 85165  1  0  0  0
 86166  1  0  0  0
 86167  1  0  0  0
M  ISO  4   1 100  68 101  86 101  87 100
M  END
> <chiral flag>
0

> <version>
0

> <s_m_source_file>
/data/baiqing/PycharmProjects/Reinvent-master-3.2/result/LINK_invent/BTK/process_docking_weight1_custom_sum_contain_oxygen_bond_distance_aromatic_linkinvent_7_9_3/rearranged_h_0167.sdf

> <i_m_source_file_index>
75

> <r_mmod_Potential_Energy-OPLS-2005>
429.052581787109

> <r_mmod_Stretch_Energy-OPLS-2005>
105.043830871582

> <r_mmod_Bend_Energy-OPLS-2005>
207.797103881836

> <r_mmod_Torsional_Energy-OPLS-2005>
358.649871826172

> <r_mmod_Improper_Torsional_Energy-OPLS-2005>
31.4408931732178

> <r_mmod_Van_der_Waal_Energy-OPLS-2005>
158.26383972168

> <r_mmod_Electrostatic_Energy-OPLS-2005>
-318.610076904297

> <r_mmod_Solvation_Energy-OPLS-2005>
-194.574554443359

> <b_mmod_Minimization_Converged-OPLS-2005>
0

> <r_mmod_RMS_Derivative-OPLS-2005>
2.07059931755066

$$$$
75
                    3D
 Structure written by MMmdl.
166175  0  0  1  0            999 V2000
  -30.6685  -14.6415   20.4681 C   0  0  0  0  0  0
  -30.4169  -12.3873   19.4718 C   0  0  0  0  0  0
  -29.5026  -12.4912   18.2333 C   0  0  0  0  0  0
  -28.0270  -12.3346   18.6448 C   0  0  0  0  0  0
  -27.6444  -13.2287   19.8553 C   0  0  2  0  0  0
  -28.6866  -13.1403   20.9928 C   0  0  0  0  0  0
  -25.2514  -13.8204   20.5691 C   0  0  0  0  0  0
  -24.1801  -13.0448   20.9201 C   0  0  0  0  0  0
  -24.6389  -11.6930   20.8753 C   0  0  0  0  0  0
  -23.9069  -10.4302   21.0410 C   0  0  0  0  0  0
  -24.3620   -9.4214   21.9186 C   0  0  0  0  0  0
  -23.6294   -8.2248   22.0752 C   0  0  0  0  0  0
  -22.4276   -8.0283   21.3542 C   0  0  0  0  0  0
  -21.9916   -9.0258   20.4644 C   0  0  0  0  0  0
  -22.7245  -10.2139   20.3056 C   0  0  0  0  0  0
  -21.6852   -6.0736   22.5278 C   0  0  0  0  0  0
  -21.4013   -6.5639   23.8212 C   0  0  0  0  0  0
  -21.3660   -5.6793   24.9176 C   0  0  0  0  0  0
  -21.6045   -4.3055   24.7227 C   0  0  0  0  0  0
  -21.8819   -3.8148   23.4347 C   0  0  0  0  0  0
  -21.9192   -4.6964   22.3402 C   0  0  0  0  0  0
  -22.7823  -13.5229   21.1862 C   0  0  0  0  0  0
  -22.1661   -4.2151   21.0979 F   0  0  0  0  0  0
  -21.5631   -3.4539   25.7738 F   0  0  0  0  0  0
  -30.0004  -13.4465   20.4155 N   0  0  0  0  0  0
  -26.2944  -12.9410   20.3306 N   0  0  0  0  0  0
  -25.9318  -11.6552   20.5767 N   0  0  0  0  0  0
  -22.0474  -12.8212   22.0419 N   0  0  0  0  0  0
  -25.4207  -15.1925   20.4099 N   0  0  0  0  0  0
  -31.8513  -14.7090   20.1249 O   0  0  0  0  0  0
  -21.6639   -6.8880   21.4239 O   0  0  0  0  0  0
  -22.3505  -14.5537   20.6715 O   0  0  0  0  0  0
  -24.6241  -31.8593   23.2039 C   0  0  0  0  0  0
  -25.9093  -32.4776   23.8360 C   0  0  1  0  0  0
  -27.2209  -27.3197   20.1141 C   0  0  0  0  0  0
  -25.5916  -33.8580   24.2282 N   0  0  0  0  0  0
  -23.4169  -30.4822   21.5474 C   0  0  2  0  0  0
  -24.8622  -28.9373   20.1108 C   0  0  0  0  0  0
  -22.7464  -29.4602   22.4956 C   0  0  0  0  0  0
  -18.0279  -28.1362   22.8482 C   0  0  0  0  0  0
  -24.1489  -36.7293   23.2640 C   0  0  0  0  0  0
  -25.9571  -30.7902   21.3739 C   0  0  0  0  0  0
  -26.0300  -29.4182   20.7139 C   0  0  0  0  0  0
  -27.2108  -28.6204   20.7061 C   0  0  0  0  0  0
  -26.0304  -26.8910   19.4855 C   0  0  0  0  0  0
  -24.8636  -27.6791   19.4886 C   0  0  0  0  0  0
  -23.6303  -29.8169   20.1619 C   0  0  0  0  0  0
  -25.4114  -36.3083   24.0329 C   0  0  1  0  0  0
  -20.5879  -28.3655   23.1294 C   0  0  2  0  0  0
  -20.6765  -26.9380   22.5415 C   0  0  0  0  0  0
  -19.5746  -26.6366   21.5208 C   0  0  0  0  0  0
  -18.1923  -26.7900   22.1620 C   0  0  0  0  0  0
  -19.1533  -28.8827   23.2876 C   0  0  0  0  0  0
  -18.9460  -30.1435   23.8888 C   0  0  0  0  0  0
  -17.6459  -30.6571   24.0555 C   0  0  0  0  0  0
  -25.9045  -34.9452   23.5102 C   0  0  0  0  0  0
  -16.5349  -29.9066   23.6333 C   0  0  0  0  0  0
  -16.7269  -28.6487   23.0350 C   0  0  0  0  0  0
  -26.4486  -31.6585   25.0727 C   0  0  0  0  0  0
  -25.3735  -31.3708   26.1465 C   0  0  0  0  0  0
  -27.0331  -30.3014   24.6164 C   0  0  0  0  0  0
  -27.6039  -32.4329   25.7499 C   0  0  0  0  0  0
  -27.5578  -37.1800   24.8463 C   0  0  0  0  0  0
  -21.4183  -29.3016   22.3699 N   0  0  0  0  0  0
  -26.4295  -37.3776   23.9403 N   0  0  0  0  0  0
  -24.6850  -31.0608   22.0986 N   0  0  0  0  0  0
  -23.4193  -28.8144   23.3030 O   0  0  0  0  0  0
  -28.3598  -26.5019   20.1763 O   0  0  0  0  0  0
  -26.5623  -34.8923   22.4675 O   0  0  0  0  0  0
  -23.5411  -32.1394   23.7377 O   0  0  0  0  0  0
  -30.5123  -19.3560   21.5070 C   0  0  0  0  0  0
  -29.0105  -21.3187   21.1528 C   0  0  0  0  0  0
  -30.1236  -20.6918   21.7974 C   0  0  0  0  0  0
  -29.8314  -18.5326   20.5850 C   0  0  0  0  0  0
  -28.3171  -20.4955   20.2082 C   0  0  0  0  0  0
  -28.7142  -19.1347   19.9302 C   0  0  0  0  0  0
  -29.2686  -23.8519   22.0953 C   0  0  0  0  0  0
  -28.4263  -22.6604   21.7255 C   0  0  1  0  0  0
  -28.0432  -24.1400   21.2541 C   0  0  1  0  0  0
  -30.9251  -21.4053   22.8759 C   0  0  0  0  0  0
  -27.0867  -21.0591   19.5043 C   0  0  0  0  0  0
  -27.9198  -18.3265   18.9097 C   0  0  0  0  0  0
  -26.7688  -24.6578   21.9079 C   0  0  0  0  0  0
  -30.4776  -17.1430   20.2071 C   0  0  0  0  0  0
  -28.3162  -25.0252   19.9851 C   0  0  0  0  0  0
  -29.9542  -15.8008   20.6501 N   0  0  0  0  0  0
  -31.4632  -12.4744   19.1743 H   0  0  0  0  0  0
  -30.3233  -11.4062   19.9403 H   0  0  0  0  0  0
  -29.7693  -11.7268   17.5023 H   0  0  0  0  0  0
  -29.6500  -13.4533   17.7403 H   0  0  0  0  0  0
  -27.8691  -11.2852   18.8971 H   0  0  0  0  0  0
  -27.3725  -12.5434   17.7980 H   0  0  0  0  0  0
  -27.6495  -14.2546   19.4863 H   0  0  0  0  0  0
  -28.6920  -12.1448   21.4393 H   0  0  0  0  0  0
  -28.4395  -13.8348   21.7974 H   0  0  0  0  0  0
  -25.2762   -9.5690   22.4765 H   0  0  0  0  0  0
  -24.0003   -7.4638   22.7471 H   0  0  0  0  0  0
  -21.0849   -8.8777   19.8947 H   0  0  0  0  0  0
  -22.3701  -10.9677   19.6168 H   0  0  0  0  0  0
  -21.2002   -7.6146   23.9716 H   0  0  0  0  0  0
  -21.1483   -6.0522   25.9080 H   0  0  0  0  0  0
  -22.0597   -2.7609   23.2846 H   0  0  0  0  0  0
  -22.4093  -11.9874   22.4803 H   0  0  0  0  0  0
  -21.1093  -13.1232   22.2634 H   0  0  0  0  0  0
  -24.6522  -15.8452   20.5174 H   0  0  0  0  0  0
  -26.2709  -15.6331   20.0835 H   0  0  0  0  0  0
  -26.7154  -32.5444   23.1106 H   0  0  0  0  0  0
  -25.0054  -33.9719   25.0418 H   0  0  0  0  0  0
  -22.7108  -31.3029   21.4057 H   0  0  0  0  0  0
  -23.3751  -35.9625   23.3303 H   0  0  0  0  0  0
  -24.3573  -36.8915   22.2051 H   0  0  0  0  0  0
  -23.7245  -37.6494   23.6669 H   0  0  0  0  0  0
  -26.0883  -31.5557   20.6077 H   0  0  0  0  0  0
  -26.8374  -30.8374   22.0027 H   0  0  0  0  0  0
  -28.1084  -28.9819   21.1888 H   0  0  0  0  0  0
  -25.9620  -25.9328   18.9964 H   0  0  0  0  0  0
  -23.9670  -27.3043   19.0140 H   0  0  0  0  0  0
  -23.7483  -30.5944   19.4064 H   0  0  0  0  0  0
  -22.7494  -29.2463   19.8606 H   0  0  0  0  0  0
  -25.1296  -36.1938   25.0823 H   0  0  0  0  0  0
  -20.9963  -28.3228   24.1418 H   0  0  0  0  0  0
  -20.5669  -26.2261   23.3611 H   0  0  0  0  0  0
  -21.6635  -26.7421   22.1205 H   0  0  0  0  0  0
  -19.6911  -25.6281   21.1230 H   0  0  0  0  0  0
  -19.6684  -27.3191   20.6747 H   0  0  0  0  0  0
  -17.4195  -26.6655   21.4019 H   0  0  0  0  0  0
  -18.0315  -26.0045   22.9021 H   0  0  0  0  0  0
  -19.7941  -30.7240   24.2262 H   0  0  0  0  0  0
  -17.5022  -31.6259   24.5139 H   0  0  0  0  0  0
  -15.5347  -30.2959   23.7667 H   0  0  0  0  0  0
  -15.8670  -28.0804   22.7059 H   0  0  0  0  0  0
  -24.5913  -30.7047   25.7805 H   0  0  0  0  0  0
  -24.8923  -32.2865   26.4912 H   0  0  0  0  0  0
  -25.8081  -30.8885   27.0232 H   0  0  0  0  0  0
  -26.2896  -29.6762   24.1203 H   0  0  0  0  0  0
  -27.4046  -29.7266   25.4656 H   0  0  0  0  0  0
  -27.8763  -30.4298   23.9372 H   0  0  0  0  0  0
  -27.2636  -33.3630   26.2066 H   0  0  0  0  0  0
  -28.3858  -32.6887   25.0336 H   0  0  0  0  0  0
  -28.0702  -31.8468   26.5429 H   0  0  0  0  0  0
  -28.2593  -38.0102   24.7514 H   0  0  0  0  0  0
  -28.1080  -36.2630   24.6293 H   0  0  0  0  0  0
  -27.2293  -37.1446   25.8866 H   0  0  0  0  0  0
  -20.9359  -29.8749   21.6919 H   0  0  0  0  0  0
  -26.0177  -38.2852   24.1409 H   0  0  0  0  0  0
  -31.3781  -18.9468   22.0097 H   0  0  0  0  0  0
  -30.2300  -23.9666   21.5980 H   0  0  0  0  0  0
  -29.2546  -24.1761   23.1341 H   0  0  0  0  0  0
  -27.7955  -22.2916   22.5326 H   0  0  0  0  0  0
  -31.6052  -20.7234   23.3878 H   0  0  0  0  0  0
  -30.2760  -21.8347   23.6383 H   0  0  0  0  0  0
  -31.5332  -22.1966   22.4394 H   0  0  0  0  0  0
  -26.8456  -22.0776   19.8012 H   0  0  0  0  0  0
  -26.2082  -20.4504   19.7194 H   0  0  0  0  0  0
  -27.2388  -21.0726   18.4248 H   0  0  0  0  0  0
  -28.2912  -17.3123   18.7787 H   0  0  0  0  0  0
  -27.9448  -18.8112   17.9339 H   0  0  0  0  0  0
  -26.8794  -18.2402   19.2226 H   0  0  0  0  0  0
  -26.4886  -24.0593   22.7739 H   0  0  0  0  0  0
  -25.9385  -24.6321   21.2028 H   0  0  0  0  0  0
  -26.9056  -25.6809   22.2570 H   0  0  0  0  0  0
  -31.5181  -17.1998   20.5320 H   0  0  0  0  0  0
  -30.5517  -17.1124   19.1188 H   0  0  0  0  0  0
  -27.6334  -24.7275   19.1928 H   0  0  0  0  0  0
  -29.2942  -24.7446   19.5948 H   0  0  0  0  0  0
  -28.9829  -15.7309   20.9110 H   0  0  0  0  0  0
  1 25  1  0  0  0
  1 30  2  0  0  0
  1 86  1  0  0  0
  2  3  1  0  0  0
  2 25  1  0  0  0
  2 87  1  0  0  0
  2 88  1  0  0  0
  3  4  1  0  0  0
  3 89  1  0  0  0
  3 90  1  0  0  0
  4  5  1  0  0  0
  4 91  1  0  0  0
  4 92  1  0  0  0
  5  6  1  0  0  0
  5 26  1  0  0  0
  5 93  1  0  0  0
  6 25  1  0  0  0
  6 94  1  0  0  0
  6 95  1  0  0  0
  7  8  2  0  0  0
  7 26  1  0  0  0
  7 29  1  0  0  0
  8  9  1  0  0  0
  8 22  1  0  0  0
  9 10  1  0  0  0
  9 27  2  0  0  0
 10 11  2  0  0  0
 10 15  1  0  0  0
 11 12  1  0  0  0
 11 96  1  0  0  0
 12 13  2  0  0  0
 12 97  1  0  0  0
 13 14  1  0  0  0
 13 31  1  0  0  0
 14 15  2  0  0  0
 14 98  1  0  0  0
 15 99  1  0  0  0
 16 17  2  0  0  0
 16 21  1  0  0  0
 16 31  1  0  0  0
 17 18  1  0  0  0
 17100  1  0  0  0
 18 19  2  0  0  0
 18101  1  0  0  0
 19 20  1  0  0  0
 19 24  1  0  0  0
 20 21  2  0  0  0
 20102  1  0  0  0
 21 23  1  0  0  0
 22 28  1  0  0  0
 22 32  2  0  0  0
 26 27  1  0  0  0
 28103  1  0  0  0
 28104  1  0  0  0
 29105  1  0  0  0
 29106  1  0  0  0
 33 34  1  0  0  0
 33 66  1  0  0  0
 33 70  2  0  0  0
 34 36  1  0  0  0
 34 59  1  0  0  0
 34107  1  0  0  0
 35 44  2  0  0  0
 35 45  1  0  0  0
 35 68  1  0  0  0
 36 56  1  0  0  0
 36108  1  0  0  0
 37 39  1  0  0  0
 37 47  1  0  0  0
 37 66  1  0  0  0
 37109  1  0  0  0
 38 43  2  0  0  0
 38 46  1  0  0  0
 38 47  1  0  0  0
 39 64  1  0  0  0
 39 67  2  0  0  0
 40 52  1  0  0  0
 40 53  2  0  0  0
 40 58  1  0  0  0
 41110  1  0  0  0
 41111  1  0  0  0
 41112  1  0  0  0
 41 48  1  0  0  0
 42 43  1  0  0  0
 42 66  1  0  0  0
 42113  1  0  0  0
 42114  1  0  0  0
 43 44  1  0  0  0
 44115  1  0  0  0
 45 46  2  0  0  0
 45116  1  0  0  0
 46117  1  0  0  0
 47118  1  0  0  0
 47119  1  0  0  0
 48 56  1  0  0  0
 48 65  1  0  0  0
 48120  1  0  0  0
 49 50  1  0  0  0
 49 53  1  0  0  0
 49 64  1  0  0  0
 49121  1  0  0  0
 50 51  1  0  0  0
 50122  1  0  0  0
 50123  1  0  0  0
 51 52  1  0  0  0
 51124  1  0  0  0
 51125  1  0  0  0
 52126  1  0  0  0
 52127  1  0  0  0
 53 54  1  0  0  0
 54 55  2  0  0  0
 54128  1  0  0  0
 55 57  1  0  0  0
 55129  1  0  0  0
 56 69  2  0  0  0
 57 58  2  0  0  0
 57130  1  0  0  0
 58131  1  0  0  0
 59 60  1  0  0  0
 59 61  1  0  0  0
 59 62  1  0  0  0
 60132  1  0  0  0
 60133  1  0  0  0
 60134  1  0  0  0
 61135  1  0  0  0
 61136  1  0  0  0
 61137  1  0  0  0
 62138  1  0  0  0
 62139  1  0  0  0
 62140  1  0  0  0
 63 65  1  0  0  0
 63141  1  0  0  0
 63142  1  0  0  0
 63143  1  0  0  0
 64144  1  0  0  0
 65145  1  0  0  0
 68 85  1  0  0  0
 71 73  2  0  0  0
 71 74  1  0  0  0
 71146  1  0  0  0
 72 73  1  0  0  0
 72 75  2  0  0  0
 72 78  1  0  0  0
 73 80  1  0  0  0
 74 76  2  0  0  0
 74 84  1  0  0  0
 75 76  1  0  0  0
 75 81  1  0  0  0
 76 82  1  0  0  0
 77 78  1  0  0  0
 77 79  1  0  0  0
 77147  1  0  0  0
 77148  1  0  0  0
 78 79  1  0  0  0
 78149  1  0  0  0
 79 83  1  0  0  0
 79 85  1  0  0  0
 80150  1  0  0  0
 80151  1  0  0  0
 80152  1  0  0  0
 81153  1  0  0  0
 81154  1  0  0  0
 81155  1  0  0  0
 82156  1  0  0  0
 82157  1  0  0  0
 82158  1  0  0  0
 83159  1  0  0  0
 83160  1  0  0  0
 83161  1  0  0  0
 84 86  1  0  0  0
 84162  1  0  0  0
 84163  1  0  0  0
 85164  1  0  0  0
 85165  1  0  0  0
 86166  1  0  0  0
M  ISO  4   1 100  68 101  85 101  86 100
M  END
> <chiral flag>
0

> <version>
0

> <s_m_source_file>
/data/baiqing/PycharmProjects/Reinvent-master-3.2/result/LINK_invent/BTK/process_docking_weight1_custom_sum_contain_oxygen_bond_distance_aromatic_linkinvent_7_9_3/rearranged_h_0167.sdf

> <i_m_source_file_index>
76

> <r_mmod_Potential_Energy-OPLS-2005>
121.531761169434

> <r_mmod_Stretch_Energy-OPLS-2005>
91.7861557006836

> <r_mmod_Bend_Energy-OPLS-2005>
206.817169189453

> <r_mmod_Torsional_Energy-OPLS-2005>
252.525375366211

> <r_mmod_Improper_Torsional_Energy-OPLS-2005>
9.81089115142822

> <r_mmod_Van_der_Waal_Energy-OPLS-2005>
151.535369873047

> <r_mmod_Electrostatic_Energy-OPLS-2005>
-440.054626464844

> <r_mmod_Solvation_Energy-OPLS-2005>
-201.377563476562

> <b_mmod_Minimization_Converged-OPLS-2005>
0

> <r_mmod_RMS_Derivative-OPLS-2005>
1.15389704704285

$$$$
76
                    3D
 Structure written by MMmdl.
169179  0  0  1  0            999 V2000
  -30.6892  -14.4423   20.5392 C   0  0  0  0  0  0
  -30.4138  -12.2778   19.4100 C   0  0  0  0  0  0
  -29.4741  -12.4963   18.2060 C   0  0  0  0  0  0
  -27.9970  -12.3545   18.6220 C   0  0  0  0  0  0
  -27.6540  -13.1800   19.8893 C   0  0  2  0  0  0
  -28.7064  -12.9531   20.9989 C   0  0  0  0  0  0
  -25.2559  -13.8063   20.5735 C   0  0  0  0  0  0
  -24.1786  -13.0384   20.9189 C   0  0  0  0  0  0
  -24.6312  -11.6824   20.8776 C   0  0  0  0  0  0
  -23.8978  -10.4245   21.0435 C   0  0  0  0  0  0
  -24.3534   -9.4174   21.9221 C   0  0  0  0  0  0
  -23.6232   -8.2198   22.0782 C   0  0  0  0  0  0
  -22.4242   -8.0232   21.3542 C   0  0  0  0  0  0
  -21.9843   -9.0200   20.4666 C   0  0  0  0  0  0
  -22.7148  -10.2086   20.3097 C   0  0  0  0  0  0
  -21.6828   -6.0707   22.5280 C   0  0  0  0  0  0
  -21.3987   -6.5625   23.8214 C   0  0  0  0  0  0
  -21.3658   -5.6798   24.9190 C   0  0  0  0  0  0
  -21.6054   -4.3057   24.7258 C   0  0  0  0  0  0
  -21.8808   -3.8131   23.4379 C   0  0  0  0  0  0
  -21.9174   -4.6931   22.3425 C   0  0  0  0  0  0
  -22.7824  -13.5179   21.1872 C   0  0  0  0  0  0
  -22.1650   -4.2108   21.1005 F   0  0  0  0  0  0
  -21.5643   -3.4559   25.7773 F   0  0  0  0  0  0
  -30.0307  -13.2586   20.4343 N   0  0  0  0  0  0
  -26.2981  -12.9172   20.3502 N   0  0  0  0  0  0
  -25.9239  -11.6365   20.5870 N   0  0  0  0  0  0
  -22.0477  -12.8195   22.0455 N   0  0  0  0  0  0
  -25.4333  -15.1778   20.4088 N   0  0  0  0  0  0
  -31.8490  -14.6070   20.1389 O   0  0  0  0  0  0
  -21.6623   -6.8817   21.4233 O   0  0  0  0  0  0
  -22.3515  -14.5515   20.6743 O   0  0  0  0  0  0
  -24.6077  -31.8644   23.2175 C   0  0  0  0  0  0
  -25.8943  -32.4801   23.8431 C   0  0  1  0  0  0
  -27.2908  -27.4953   20.0887 C   0  0  0  0  0  0
  -25.5810  -33.8626   24.2402 N   0  0  0  0  0  0
  -23.4001  -30.4856   21.5576 C   0  0  2  0  0  0
  -24.8623  -28.9658   20.1069 C   0  0  0  0  0  0
  -22.7369  -29.4600   22.5048 C   0  0  0  0  0  0
  -18.0220  -28.1381   22.8478 C   0  0  0  0  0  0
  -24.1486  -36.7347   23.2663 C   0  0  0  0  0  0
  -25.9194  -30.8550   21.3623 C   0  0  0  0  0  0
  -26.0113  -29.4936   20.7069 C   0  0  0  0  0  0
  -27.2154  -28.7619   20.7001 C   0  0  0  0  0  0
  -26.1229  -26.9618   19.4873 C   0  0  0  0  0  0
  -24.9158  -27.6980   19.4926 C   0  0  0  0  0  0
  -23.6079  -29.8202   20.1684 C   0  0  0  0  0  0
  -25.4081  -36.3115   24.0376 C   0  0  1  0  0  0
  -20.5795  -28.3648   23.1409 C   0  0  2  0  0  0
  -20.6734  -26.9427   22.5483 C   0  0  0  0  0  0
  -19.5743  -26.6406   21.5252 C   0  0  0  0  0  0
  -18.1891  -26.7942   22.1605 C   0  0  0  0  0  0
  -19.1463  -28.8842   23.2926 C   0  0  0  0  0  0
  -18.9395  -30.1453   23.8950 C   0  0  0  0  0  0
  -17.6400  -30.6610   24.0576 C   0  0  0  0  0  0
  -25.8991  -34.9453   23.5196 C   0  0  0  0  0  0
  -16.5286  -29.9109   23.6363 C   0  0  0  0  0  0
  -16.7216  -28.6519   23.0369 C   0  0  0  0  0  0
  -26.4420  -31.6526   25.0685 C   0  0  0  0  0  0
  -25.3731  -31.3473   26.1449 C   0  0  0  0  0  0
  -27.0223  -30.2971   24.5979 C   0  0  0  0  0  0
  -27.6019  -32.4212   25.7402 C   0  0  0  0  0  0
  -27.5582  -37.1793   24.8466 C   0  0  0  0  0  0
  -21.4096  -29.2978   22.3799 N   0  0  0  0  0  0
  -26.4267  -37.3802   23.9424 N   0  0  0  0  0  0
  -24.6608  -31.0731   22.1095 N   0  0  0  0  0  0
  -23.4142  -28.8156   23.3103 O   0  0  0  0  0  0
  -28.4941  -26.8302   20.2082 O   0  0  0  0  0  0
  -26.5563  -34.8864   22.4784 O   0  0  0  0  0  0
  -23.5252  -32.1358   23.7559 O   0  0  0  0  0  0
  -29.2026  -20.5496   20.8912 C   0  0  0  0  0  0
  -30.4035  -19.8255   20.7410 C   0  0  0  0  0  0
  -29.1473  -21.8916   20.4721 C   0  0  0  0  0  0
  -30.3005  -22.4507   19.8836 C   0  0  0  0  0  0
  -31.5461  -20.5186   20.2775 C   0  0  0  0  0  0
  -29.8694  -17.6851   22.1298 C   0  0  0  0  0  0
  -29.4654  -17.8113   19.7002 C   0  0  0  0  0  0
  -31.3808  -24.7502   19.1696 C   0  0  0  0  0  0
  -29.7674  -16.1345   22.0564 C   0  0  0  0  0  0
  -29.5809  -16.3070   19.4927 C   0  0  0  0  0  0
  -30.3688  -18.3026   20.8209 C   0  0  0  0  0  0
  -30.2691  -23.7321   19.1013 C   0  0  2  0  0  0
  -30.0255  -25.0533   19.7869 C   0  0  2  0  0  0
  -27.8343  -22.6573   20.5622 C   0  0  0  0  0  0
  -32.9158  -19.8643   20.1703 C   0  0  0  0  0  0
  -29.0307  -26.0273   19.1648 C   0  0  0  0  0  0
  -31.4790  -21.7906   19.8397 N   0  0  0  0  0  0
  -29.8811  -15.5164   20.7122 N   0  0  0  0  0  0
  -31.4555  -12.3773   19.0992 H   0  0  0  0  0  0
  -30.3127  -11.2607   19.7955 H   0  0  0  0  0  0
  -29.7038  -11.7880   17.4094 H   0  0  0  0  0  0
  -29.6384  -13.4920   17.7912 H   0  0  0  0  0  0
  -27.7944  -11.2984   18.8034 H   0  0  0  0  0  0
  -27.3435  -12.6500   17.8005 H   0  0  0  0  0  0
  -27.6800  -14.2225   19.6018 H   0  0  0  0  0  0
  -28.6834  -11.9143   21.3307 H   0  0  0  0  0  0
  -28.4921  -13.5499   21.8850 H   0  0  0  0  0  0
  -25.2662   -9.5666   22.4825 H   0  0  0  0  0  0
  -23.9949   -7.4582   22.7488 H   0  0  0  0  0  0
  -21.0783   -8.8661   19.8969 H   0  0  0  0  0  0
  -22.3563  -10.9614   19.6230 H   0  0  0  0  0  0
  -21.1964   -7.6135   23.9688 H   0  0  0  0  0  0
  -21.1507   -6.0560   25.9082 H   0  0  0  0  0  0
  -22.0591   -2.7593   23.2915 H   0  0  0  0  0  0
  -22.4019  -11.9779   22.4761 H   0  0  0  0  0  0
  -21.1144  -13.1289   22.2753 H   0  0  0  0  0  0
  -24.6709  -15.8386   20.5219 H   0  0  0  0  0  0
  -26.3015  -15.6155   20.1274 H   0  0  0  0  0  0
  -26.7036  -32.5543   23.1204 H   0  0  0  0  0  0
  -24.9797  -33.9815   25.0422 H   0  0  0  0  0  0
  -22.6872  -31.3020   21.4229 H   0  0  0  0  0  0
  -23.3725  -35.9715   23.3298 H   0  0  0  0  0  0
  -24.3602  -36.8977   22.2096 H   0  0  0  0  0  0
  -23.7266  -37.6553   23.6700 H   0  0  0  0  0  0
  -25.9994  -31.6339   20.6037 H   0  0  0  0  0  0
  -26.8199  -30.9194   21.9611 H   0  0  0  0  0  0
  -28.1023  -29.1681   21.1702 H   0  0  0  0  0  0
  -26.1253  -25.9765   19.0439 H   0  0  0  0  0  0
  -24.0334  -27.2810   19.0301 H   0  0  0  0  0  0
  -23.6972  -30.6071   19.4168 H   0  0  0  0  0  0
  -22.7364  -29.2334   19.8756 H   0  0  0  0  0  0
  -25.1228  -36.2004   25.0866 H   0  0  0  0  0  0
  -20.9827  -28.3248   24.1552 H   0  0  0  0  0  0
  -20.5698  -26.2247   23.3603 H   0  0  0  0  0  0
  -21.6610  -26.7575   22.1254 H   0  0  0  0  0  0
  -19.6949  -25.6341   21.1234 H   0  0  0  0  0  0
  -19.6726  -27.3265   20.6820 H   0  0  0  0  0  0
  -17.4181  -26.6683   21.3973 H   0  0  0  0  0  0
  -18.0282  -26.0085   22.8988 H   0  0  0  0  0  0
  -19.7883  -30.7224   24.2381 H   0  0  0  0  0  0
  -17.4979  -31.6310   24.5143 H   0  0  0  0  0  0
  -15.5310  -30.3006   23.7738 H   0  0  0  0  0  0
  -15.8568  -28.0872   22.7101 H   0  0  0  0  0  0
  -24.6115  -30.6561   25.7802 H   0  0  0  0  0  0
  -24.8636  -32.2509   26.4805 H   0  0  0  0  0  0
  -25.8156  -30.8786   27.0263 H   0  0  0  0  0  0
  -26.2718  -29.6652   24.1224 H   0  0  0  0  0  0
  -27.4182  -29.7198   25.4337 H   0  0  0  0  0  0
  -27.8467  -30.4213   23.8952 H   0  0  0  0  0  0
  -27.2773  -33.3618   26.1857 H   0  0  0  0  0  0
  -28.3923  -32.6581   25.0266 H   0  0  0  0  0  0
  -28.0609  -31.8384   26.5391 H   0  0  0  0  0  0
  -28.2566  -38.0123   24.7568 H   0  0  0  0  0  0
  -28.1088  -36.2638   24.6227 H   0  0  0  0  0  0
  -27.2281  -37.1405   25.8857 H   0  0  0  0  0  0
  -20.9245  -29.8609   21.6946 H   0  0  0  0  0  0
  -26.0129  -38.2856   24.1457 H   0  0  0  0  0  0
  -28.3043  -20.0474   21.2174 H   0  0  0  0  0  0
  -30.5364  -17.9609   22.9481 H   0  0  0  0  0  0
  -28.8924  -18.0922   22.3938 H   0  0  0  0  0  0
  -28.4230  -18.0642   19.9046 H   0  0  0  0  0  0
  -29.7237  -18.3205   18.7691 H   0  0  0  0  0  0
  -31.6544  -25.2512   18.2417 H   0  0  0  0  0  0
  -32.2186  -24.5203   19.8281 H   0  0  0  0  0  0
  -28.8219  -15.8172   22.4964 H   0  0  0  0  0  0
  -30.5299  -15.7170   22.7183 H   0  0  0  0  0  0
  -30.3300  -16.1279   18.7195 H   0  0  0  0  0  0
  -28.6510  -15.9736   19.0392 H   0  0  0  0  0  0
  -31.3627  -17.9000   20.6404 H   0  0  0  0  0  0
  -29.7486  -23.5865   18.1553 H   0  0  0  0  0  0
  -29.9603  -24.9858   20.8686 H   0  0  0  0  0  0
  -27.0913  -22.0972   21.1301 H   0  0  0  0  0  0
  -27.4266  -22.8263   19.5664 H   0  0  0  0  0  0
  -27.9561  -23.6175   21.0662 H   0  0  0  0  0  0
  -33.6650  -20.5429   19.7632 H   0  0  0  0  0  0
  -32.8834  -18.9866   19.5253 H   0  0  0  0  0  0
  -33.2558  -19.5647   21.1639 H   0  0  0  0  0  0
  -28.2610  -25.4780   18.6257 H   0  0  0  0  0  0
  -29.5749  -26.6585   18.4603 H   0  0  0  0  0  0
  1 25  1  0  0  0
  1 30  2  0  0  0
  1 88  1  0  0  0
  2  3  1  0  0  0
  2 25  1  0  0  0
  2 89  1  0  0  0
  2 90  1  0  0  0
  3  4  1  0  0  0
  3 91  1  0  0  0
  3 92  1  0  0  0
  4  5  1  0  0  0
  4 93  1  0  0  0
  4 94  1  0  0  0
  5  6  1  0  0  0
  5 26  1  0  0  0
  5 95  1  0  0  0
  6 25  1  0  0  0
  6 96  1  0  0  0
  6 97  1  0  0  0
  7  8  2  0  0  0
  7 26  1  0  0  0
  7 29  1  0  0  0
  8  9  1  0  0  0
  8 22  1  0  0  0
  9 10  1  0  0  0
  9 27  2  0  0  0
 10 11  2  0  0  0
 10 15  1  0  0  0
 11 12  1  0  0  0
 11 98  1  0  0  0
 12 13  2  0  0  0
 12 99  1  0  0  0
 13 14  1  0  0  0
 13 31  1  0  0  0
 14 15  2  0  0  0
 14100  1  0  0  0
 15101  1  0  0  0
 16 17  2  0  0  0
 16 21  1  0  0  0
 16 31  1  0  0  0
 17 18  1  0  0  0
 17102  1  0  0  0
 18 19  2  0  0  0
 18103  1  0  0  0
 19 20  1  0  0  0
 19 24  1  0  0  0
 20 21  2  0  0  0
 20104  1  0  0  0
 21 23  1  0  0  0
 22 28  1  0  0  0
 22 32  2  0  0  0
 26 27  1  0  0  0
 28105  1  0  0  0
 28106  1  0  0  0
 29107  1  0  0  0
 29108  1  0  0  0
 33 34  1  0  0  0
 33 66  1  0  0  0
 33 70  2  0  0  0
 34 36  1  0  0  0
 34 59  1  0  0  0
 34109  1  0  0  0
 35 44  2  0  0  0
 35 45  1  0  0  0
 35 68  1  0  0  0
 36 56  1  0  0  0
 36110  1  0  0  0
 37 39  1  0  0  0
 37 47  1  0  0  0
 37 66  1  0  0  0
 37111  1  0  0  0
 38 43  2  0  0  0
 38 46  1  0  0  0
 38 47  1  0  0  0
 39 64  1  0  0  0
 39 67  2  0  0  0
 40 52  1  0  0  0
 40 53  2  0  0  0
 40 58  1  0  0  0
 41112  1  0  0  0
 41113  1  0  0  0
 41114  1  0  0  0
 41 48  1  0  0  0
 42 43  1  0  0  0
 42 66  1  0  0  0
 42115  1  0  0  0
 42116  1  0  0  0
 43 44  1  0  0  0
 44117  1  0  0  0
 45 46  2  0  0  0
 45118  1  0  0  0
 46119  1  0  0  0
 47120  1  0  0  0
 47121  1  0  0  0
 48 56  1  0  0  0
 48 65  1  0  0  0
 48122  1  0  0  0
 49 50  1  0  0  0
 49 53  1  0  0  0
 49 64  1  0  0  0
 49123  1  0  0  0
 50 51  1  0  0  0
 50124  1  0  0  0
 50125  1  0  0  0
 51 52  1  0  0  0
 51126  1  0  0  0
 51127  1  0  0  0
 52128  1  0  0  0
 52129  1  0  0  0
 53 54  1  0  0  0
 54 55  2  0  0  0
 54130  1  0  0  0
 55 57  1  0  0  0
 55131  1  0  0  0
 56 69  2  0  0  0
 57 58  2  0  0  0
 57132  1  0  0  0
 58133  1  0  0  0
 59 60  1  0  0  0
 59 61  1  0  0  0
 59 62  1  0  0  0
 60134  1  0  0  0
 60135  1  0  0  0
 60136  1  0  0  0
 61137  1  0  0  0
 61138  1  0  0  0
 61139  1  0  0  0
 62140  1  0  0  0
 62141  1  0  0  0
 62142  1  0  0  0
 63 65  1  0  0  0
 63143  1  0  0  0
 63144  1  0  0  0
 63145  1  0  0  0
 64146  1  0  0  0
 65147  1  0  0  0
 68 86  1  0  0  0
 71 72  2  0  0  0
 71 73  1  0  0  0
 71148  1  0  0  0
 72 75  1  0  0  0
 72 81  1  0  0  0
 73 74  2  0  0  0
 73 84  1  0  0  0
 74 87  1  0  0  0
 74 82  1  0  0  0
 75 85  1  0  0  0
 75 87  2  0  0  0
 76 79  1  0  0  0
 76 81  1  0  0  0
 76149  1  0  0  0
 76150  1  0  0  0
 77 80  1  0  0  0
 77 81  1  0  0  0
 77151  1  0  0  0
 77152  1  0  0  0
 78 82  1  0  0  0
 78 83  1  0  0  0
 78153  1  0  0  0
 78154  1  0  0  0
 79 88  1  0  0  0
 79155  1  0  0  0
 79156  1  0  0  0
 80 88  1  0  0  0
 80157  1  0  0  0
 80158  1  0  0  0
 81159  1  0  0  0
 82 83  1  0  0  0
 82160  1  0  0  0
 83 86  1  0  0  0
 83161  1  0  0  0
 84162  1  0  0  0
 84163  1  0  0  0
 84164  1  0  0  0
 85165  1  0  0  0
 85166  1  0  0  0
 85167  1  0  0  0
 86168  1  0  0  0
 86169  1  0  0  0
M  ISO  4   1 100  68 101  86 101  88 100
M  END
> <chiral flag>
0

> <version>
0

> <s_m_source_file>
/data/baiqing/PycharmProjects/Reinvent-master-3.2/result/LINK_invent/BTK/process_docking_weight1_custom_sum_contain_oxygen_bond_distance_aromatic_linkinvent_7_9_3/rearranged_h_0167.sdf

> <i_m_source_file_index>
77

> <r_mmod_Potential_Energy-OPLS-2005>
84.9204864501953

> <r_mmod_Stretch_Energy-OPLS-2005>
36.504508972168

> <r_mmod_Bend_Energy-OPLS-2005>
121.251525878906

> <r_mmod_Torsional_Energy-OPLS-2005>
403.393371582031

> <r_mmod_Improper_Torsional_Energy-OPLS-2005>
15.3970127105713

> <r_mmod_Van_der_Waal_Energy-OPLS-2005>
159.845687866211

> <r_mmod_Electrostatic_Energy-OPLS-2005>
-462.978637695312

> <r_mmod_Solvation_Energy-OPLS-2005>
-205.561874389648

> <b_mmod_Minimization_Converged-OPLS-2005>
0

> <r_mmod_RMS_Derivative-OPLS-2005>
6.75812196731567

$$$$
77
                    3D
 Structure written by MMmdl.
164173  0  0  1  0            999 V2000
  -30.6460  -14.7337   20.4827 C   0  0  0  0  0  0
  -30.4244  -12.4573   19.4744 C   0  0  0  0  0  0
  -29.5064  -12.5056   18.2350 C   0  0  0  0  0  0
  -28.0318  -12.3369   18.6478 C   0  0  0  0  0  0
  -27.6387  -13.2390   19.8485 C   0  0  2  0  0  0
  -28.6830  -13.1911   20.9838 C   0  0  0  0  0  0
  -25.2495  -13.8217   20.5721 C   0  0  0  0  0  0
  -24.1788  -13.0447   20.9203 C   0  0  0  0  0  0
  -24.6391  -11.6923   20.8742 C   0  0  0  0  0  0
  -23.9063  -10.4293   21.0402 C   0  0  0  0  0  0
  -24.3614   -9.4202   21.9179 C   0  0  0  0  0  0
  -23.6285   -8.2239   22.0754 C   0  0  0  0  0  0
  -22.4264   -8.0276   21.3543 C   0  0  0  0  0  0
  -21.9898   -9.0245   20.4641 C   0  0  0  0  0  0
  -22.7230  -10.2126   20.3052 C   0  0  0  0  0  0
  -21.6849   -6.0724   22.5272 C   0  0  0  0  0  0
  -21.4009   -6.5634   23.8201 C   0  0  0  0  0  0
  -21.3663   -5.6794   24.9168 C   0  0  0  0  0  0
  -21.6047   -4.3055   24.7224 C   0  0  0  0  0  0
  -21.8820   -3.8140   23.4347 C   0  0  0  0  0  0
  -21.9192   -4.6952   22.3400 C   0  0  0  0  0  0
  -22.7807  -13.5217   21.1863 C   0  0  0  0  0  0
  -22.1662   -4.2138   21.0977 F   0  0  0  0  0  0
  -21.5631   -3.4536   25.7735 F   0  0  0  0  0  0
  -29.9801  -13.5310   20.3953 N   0  0  0  0  0  0
  -26.2925  -12.9437   20.3292 N   0  0  0  0  0  0
  -25.9324  -11.6563   20.5744 N   0  0  0  0  0  0
  -22.0459  -12.8207   22.0422 N   0  0  0  0  0  0
  -25.4202  -15.1948   20.4197 N   0  0  0  0  0  0
  -31.8418  -14.7807   20.1768 O   0  0  0  0  0  0
  -21.6641   -6.8863   21.4231 O   0  0  0  0  0  0
  -22.3488  -14.5513   20.6700 O   0  0  0  0  0  0
  -24.6339  -31.8545   23.1999 C   0  0  0  0  0  0
  -25.9156  -32.4753   23.8345 C   0  0  1  0  0  0
  -27.2112  -27.2588   20.1434 C   0  0  0  0  0  0
  -25.5956  -33.8558   24.2263 N   0  0  0  0  0  0
  -23.4318  -30.4781   21.5409 C   0  0  2  0  0  0
  -24.8810  -28.9296   20.1053 C   0  0  0  0  0  0
  -22.7525  -29.4604   22.4900 C   0  0  0  0  0  0
  -18.0298  -28.1412   22.8474 C   0  0  0  0  0  0
  -24.1489  -36.7282   23.2641 C   0  0  0  0  0  0
  -25.9789  -30.7701   21.3788 C   0  0  0  0  0  0
  -26.0518  -29.3925   20.7208 C   0  0  0  0  0  0
  -27.2251  -28.5694   20.7285 C   0  0  0  0  0  0
  -26.0288  -26.8740   19.4789 C   0  0  0  0  0  0
  -24.8752  -27.6798   19.4669 C   0  0  0  0  0  0
  -23.6515  -29.8159   20.1547 C   0  0  0  0  0  0
  -25.4113  -36.3066   24.0330 C   0  0  1  0  0  0
  -20.5905  -28.3718   23.1265 C   0  0  2  0  0  0
  -20.6790  -26.9429   22.5412 C   0  0  0  0  0  0
  -19.5760  -26.6396   21.5226 C   0  0  0  0  0  0
  -18.1938  -26.7949   22.1629 C   0  0  0  0  0  0
  -19.1550  -28.8880   23.2861 C   0  0  0  0  0  0
  -18.9466  -30.1478   23.8876 C   0  0  0  0  0  0
  -17.6465  -30.6598   24.0570 C   0  0  0  0  0  0
  -25.9056  -34.9441   23.5095 C   0  0  0  0  0  0
  -16.5357  -29.9092   23.6344 C   0  0  0  0  0  0
  -16.7283  -28.6520   23.0348 C   0  0  0  0  0  0
  -26.4503  -31.6578   25.0740 C   0  0  0  0  0  0
  -25.3718  -31.3718   26.1459 C   0  0  0  0  0  0
  -27.0357  -30.2998   24.6228 C   0  0  0  0  0  0
  -27.6060  -32.4319   25.7502 C   0  0  0  0  0  0
  -27.5571  -37.1796   24.8463 C   0  0  0  0  0  0
  -21.4226  -29.3063   22.3651 N   0  0  0  0  0  0
  -26.4278  -37.3779   23.9413 N   0  0  0  0  0  0
  -24.7006  -31.0511   22.0968 N   0  0  0  0  0  0
  -23.4210  -28.8136   23.3005 O   0  0  0  0  0  0
  -28.2420  -26.2951   20.2146 O   0  0  0  0  0  0
  -26.5617  -34.8912   22.4659 O   0  0  0  0  0  0
  -23.5481  -32.1366   23.7291 O   0  0  0  0  0  0
  -28.7072  -21.2730   21.8467 C   0  0  0  0  0  0
  -28.8987  -22.9899   19.6571 C   0  0  0  0  0  0
  -29.1797  -20.6787   20.6477 C   0  0  0  0  0  0
  -28.3389  -22.6551   21.9559 C   0  0  0  0  0  0
  -28.4366  -23.5829   20.8647 C   0  0  0  0  0  0
  -29.2525  -21.5865   19.5400 C   0  0  0  0  0  0
  -29.6872  -18.2856   21.8753 C   0  0  0  0  0  0
  -28.9988  -18.1704   19.5737 C   0  0  0  0  0  0
  -30.3751  -16.8572   21.7524 C   0  0  0  0  0  0
  -29.7097  -16.7586   19.4319 C   0  0  0  0  0  0
  -29.6833  -19.1485   20.5742 C   0  0  0  0  0  0
  -27.8006  -23.1186   23.3008 C   0  0  0  0  0  0
  -29.4763  -21.7741   17.1543 C   0  0  0  0  0  0
  -27.8878  -25.0862   21.0327 C   0  0  0  0  0  0
  -29.9379  -15.9300   20.6594 N   0  0  0  0  0  0
  -29.6865  -21.0395   18.3530 O   0  0  0  0  0  0
  -31.4656  -12.5735   19.1685 H   0  0  0  0  0  0
  -30.3648  -11.4847   19.9661 H   0  0  0  0  0  0
  -29.7872  -11.7252   17.5266 H   0  0  0  0  0  0
  -29.6364  -13.4556   17.7137 H   0  0  0  0  0  0
  -27.8821  -11.2886   18.9087 H   0  0  0  0  0  0
  -27.3770  -12.5343   17.7978 H   0  0  0  0  0  0
  -27.6275  -14.2587   19.4633 H   0  0  0  0  0  0
  -28.7189  -12.2039   21.4457 H   0  0  0  0  0  0
  -28.4230  -13.8978   21.7736 H   0  0  0  0  0  0
  -25.2759   -9.5680   22.4751 H   0  0  0  0  0  0
  -23.9986   -7.4636   22.7480 H   0  0  0  0  0  0
  -21.0831   -8.8761   19.8947 H   0  0  0  0  0  0
  -22.3683  -10.9661   19.6162 H   0  0  0  0  0  0
  -21.1992   -7.6141   23.9700 H   0  0  0  0  0  0
  -21.1489   -6.0526   25.9072 H   0  0  0  0  0  0
  -22.0595   -2.7600   23.2855 H   0  0  0  0  0  0
  -22.4071  -11.9868   22.4817 H   0  0  0  0  0  0
  -21.1075  -13.1222   22.2615 H   0  0  0  0  0  0
  -24.6592  -15.8537   20.5409 H   0  0  0  0  0  0
  -26.2890  -15.6361   20.1450 H   0  0  0  0  0  0
  -26.7232  -32.5377   23.1092 H   0  0  0  0  0  0
  -25.0123  -33.9694   25.0419 H   0  0  0  0  0  0
  -22.7294  -31.3014   21.3939 H   0  0  0  0  0  0
  -23.3755  -35.9611   23.3295 H   0  0  0  0  0  0
  -24.3579  -36.8912   22.2059 H   0  0  0  0  0  0
  -23.7248  -37.6480   23.6670 H   0  0  0  0  0  0
  -26.1186  -31.5302   20.6081 H   0  0  0  0  0  0
  -26.8569  -30.8175   22.0112 H   0  0  0  0  0  0
  -28.1174  -28.9130   21.2329 H   0  0  0  0  0  0
  -25.9840  -25.9076   18.9980 H   0  0  0  0  0  0
  -23.9843  -27.3238   18.9711 H   0  0  0  0  0  0
  -23.7757  -30.5950   19.4011 H   0  0  0  0  0  0
  -22.7703  -29.2488   19.8489 H   0  0  0  0  0  0
  -25.1298  -36.1908   25.0821 H   0  0  0  0  0  0
  -20.9985  -28.3293   24.1395 H   0  0  0  0  0  0
  -20.5710  -26.2320   23.3616 H   0  0  0  0  0  0
  -21.6650  -26.7472   22.1183 H   0  0  0  0  0  0
  -19.6918  -25.6304   21.1262 H   0  0  0  0  0  0
  -19.6703  -27.3201   20.6749 H   0  0  0  0  0  0
  -17.4213  -26.6709   21.4022 H   0  0  0  0  0  0
  -18.0311  -26.0105   22.9028 H   0  0  0  0  0  0
  -19.7941  -30.7313   24.2227 H   0  0  0  0  0  0
  -17.5017  -31.6269   24.5190 H   0  0  0  0  0  0
  -15.5356  -30.2993   23.7680 H   0  0  0  0  0  0
  -15.8684  -28.0842   22.7069 H   0  0  0  0  0  0
  -24.5915  -30.7046   25.7780 H   0  0  0  0  0  0
  -24.8880  -32.2874   26.4871 H   0  0  0  0  0  0
  -25.8033  -30.8907   27.0248 H   0  0  0  0  0  0
  -26.2942  -29.6735   24.1259 H   0  0  0  0  0  0
  -27.4051  -29.7274   25.4747 H   0  0  0  0  0  0
  -27.8808  -30.4279   23.9466 H   0  0  0  0  0  0
  -27.2691  -33.3645   26.2038 H   0  0  0  0  0  0
  -28.3877  -32.6849   25.0326 H   0  0  0  0  0  0
  -28.0720  -31.8476   26.5442 H   0  0  0  0  0  0
  -28.2584  -38.0098   24.7525 H   0  0  0  0  0  0
  -28.1071  -36.2635   24.6261 H   0  0  0  0  0  0
  -27.2288  -37.1407   25.8864 H   0  0  0  0  0  0
  -20.9425  -29.8769   21.6828 H   0  0  0  0  0  0
  -26.0147  -38.2839   24.1432 H   0  0  0  0  0  0
  -28.6224  -20.6480   22.7245 H   0  0  0  0  0  0
  -28.9677  -23.6463   18.8027 H   0  0  0  0  0  0
  -30.1978  -18.8366   22.6663 H   0  0  0  0  0  0
  -28.6614  -18.1584   22.2234 H   0  0  0  0  0  0
  -27.9559  -18.0271   19.8585 H   0  0  0  0  0  0
  -28.9710  -18.6295   18.5860 H   0  0  0  0  0  0
  -30.2557  -16.3341   22.7027 H   0  0  0  0  0  0
  -31.4493  -17.0178   21.6453 H   0  0  0  0  0  0
  -30.6828  -16.9267   18.9647 H   0  0  0  0  0  0
  -29.1463  -16.1586   18.7159 H   0  0  0  0  0  0
  -30.7264  -19.2380   20.2642 H   0  0  0  0  0  0
  -27.6819  -22.2889   23.9981 H   0  0  0  0  0  0
  -26.8208  -23.5835   23.1907 H   0  0  0  0  0  0
  -28.4809  -23.8369   23.7575 H   0  0  0  0  0  0
  -29.6350  -21.1147   16.3018 H   0  0  0  0  0  0
  -30.1811  -22.6026   17.0746 H   0  0  0  0  0  0
  -28.4567  -22.1562   17.0795 H   0  0  0  0  0  0
  -28.1608  -25.3968   22.0403 H   0  0  0  0  0  0
  -26.8043  -24.9691   21.0714 H   0  0  0  0  0  0
  1 25  1  0  0  0
  1 30  2  0  0  0
  1 85  1  0  0  0
  2  3  1  0  0  0
  2 25  1  0  0  0
  2 87  1  0  0  0
  2 88  1  0  0  0
  3  4  1  0  0  0
  3 89  1  0  0  0
  3 90  1  0  0  0
  4  5  1  0  0  0
  4 91  1  0  0  0
  4 92  1  0  0  0
  5  6  1  0  0  0
  5 26  1  0  0  0
  5 93  1  0  0  0
  6 25  1  0  0  0
  6 94  1  0  0  0
  6 95  1  0  0  0
  7  8  2  0  0  0
  7 26  1  0  0  0
  7 29  1  0  0  0
  8  9  1  0  0  0
  8 22  1  0  0  0
  9 10  1  0  0  0
  9 27  2  0  0  0
 10 11  2  0  0  0
 10 15  1  0  0  0
 11 12  1  0  0  0
 11 96  1  0  0  0
 12 13  2  0  0  0
 12 97  1  0  0  0
 13 14  1  0  0  0
 13 31  1  0  0  0
 14 15  2  0  0  0
 14 98  1  0  0  0
 15 99  1  0  0  0
 16 17  2  0  0  0
 16 21  1  0  0  0
 16 31  1  0  0  0
 17 18  1  0  0  0
 17100  1  0  0  0
 18 19  2  0  0  0
 18101  1  0  0  0
 19 20  1  0  0  0
 19 24  1  0  0  0
 20 21  2  0  0  0
 20102  1  0  0  0
 21 23  1  0  0  0
 22 28  1  0  0  0
 22 32  2  0  0  0
 26 27  1  0  0  0
 28103  1  0  0  0
 28104  1  0  0  0
 29105  1  0  0  0
 29106  1  0  0  0
 33 34  1  0  0  0
 33 66  1  0  0  0
 33 70  2  0  0  0
 34 36  1  0  0  0
 34 59  1  0  0  0
 34107  1  0  0  0
 35 44  2  0  0  0
 35 45  1  0  0  0
 35 68  1  0  0  0
 36 56  1  0  0  0
 36108  1  0  0  0
 37 39  1  0  0  0
 37 47  1  0  0  0
 37 66  1  0  0  0
 37109  1  0  0  0
 38 43  2  0  0  0
 38 46  1  0  0  0
 38 47  1  0  0  0
 39 64  1  0  0  0
 39 67  2  0  0  0
 40 52  1  0  0  0
 40 53  2  0  0  0
 40 58  1  0  0  0
 41110  1  0  0  0
 41111  1  0  0  0
 41112  1  0  0  0
 41 48  1  0  0  0
 42 43  1  0  0  0
 42 66  1  0  0  0
 42113  1  0  0  0
 42114  1  0  0  0
 43 44  1  0  0  0
 44115  1  0  0  0
 45 46  2  0  0  0
 45116  1  0  0  0
 46117  1  0  0  0
 47118  1  0  0  0
 47119  1  0  0  0
 48 56  1  0  0  0
 48 65  1  0  0  0
 48120  1  0  0  0
 49 50  1  0  0  0
 49 53  1  0  0  0
 49 64  1  0  0  0
 49121  1  0  0  0
 50 51  1  0  0  0
 50122  1  0  0  0
 50123  1  0  0  0
 51 52  1  0  0  0
 51124  1  0  0  0
 51125  1  0  0  0
 52126  1  0  0  0
 52127  1  0  0  0
 53 54  1  0  0  0
 54 55  2  0  0  0
 54128  1  0  0  0
 55 57  1  0  0  0
 55129  1  0  0  0
 56 69  2  0  0  0
 57 58  2  0  0  0
 57130  1  0  0  0
 58131  1  0  0  0
 59 60  1  0  0  0
 59 61  1  0  0  0
 59 62  1  0  0  0
 60132  1  0  0  0
 60133  1  0  0  0
 60134  1  0  0  0
 61135  1  0  0  0
 61136  1  0  0  0
 61137  1  0  0  0
 62138  1  0  0  0
 62139  1  0  0  0
 62140  1  0  0  0
 63 65  1  0  0  0
 63141  1  0  0  0
 63142  1  0  0  0
 63143  1  0  0  0
 64144  1  0  0  0
 65145  1  0  0  0
 68 84  1  0  0  0
 71 73  2  0  0  0
 71 74  1  0  0  0
 71146  1  0  0  0
 72 75  1  0  0  0
 72 76  2  0  0  0
 72147  1  0  0  0
 73 76  1  0  0  0
 73 81  1  0  0  0
 74 75  2  0  0  0
 74 82  1  0  0  0
 75 84  1  0  0  0
 76 86  1  0  0  0
 77 79  1  0  0  0
 77 81  1  0  0  0
 77148  1  0  0  0
 77149  1  0  0  0
 78 80  1  0  0  0
 78 81  1  0  0  0
 78150  1  0  0  0
 78151  1  0  0  0
 79 85  1  0  0  0
 79152  1  0  0  0
 79153  1  0  0  0
 80 85  1  0  0  0
 80154  1  0  0  0
 80155  1  0  0  0
 81156  1  0  0  0
 82157  1  0  0  0
 82158  1  0  0  0
 82159  1  0  0  0
 83 86  1  0  0  0
 83160  1  0  0  0
 83161  1  0  0  0
 83162  1  0  0  0
 84163  1  0  0  0
 84164  1  0  0  0
M  ISO  4   1 100  68 101  84 101  85 100
M  END
> <chiral flag>
0

> <version>
0

> <s_m_source_file>
/data/baiqing/PycharmProjects/Reinvent-master-3.2/result/LINK_invent/BTK/process_docking_weight1_custom_sum_contain_oxygen_bond_distance_aromatic_linkinvent_7_9_3/rearranged_h_0167.sdf

> <i_m_source_file_index>
78

> <r_mmod_Potential_Energy-OPLS-2005>
453.220550537109

> <r_mmod_Stretch_Energy-OPLS-2005>
121.585014343262

> <r_mmod_Bend_Energy-OPLS-2005>
202.737823486328

> <r_mmod_Torsional_Energy-OPLS-2005>
358.231658935547

> <r_mmod_Improper_Torsional_Energy-OPLS-2005>
11.1885671615601

> <r_mmod_Van_der_Waal_Energy-OPLS-2005>
147.166534423828

> <r_mmod_Electrostatic_Energy-OPLS-2005>
-289.130889892578

> <r_mmod_Solvation_Energy-OPLS-2005>
-192.023010253906

> <b_mmod_Minimization_Converged-OPLS-2005>
0

> <r_mmod_RMS_Derivative-OPLS-2005>
2.07681846618652

$$$$
78
                    3D
 Structure written by MMmdl.
173182  0  0  1  0            999 V2000
  -30.6089  -14.7271   20.5295 C   0  0  0  0  0  0
  -30.4423  -12.4561   19.4682 C   0  0  0  0  0  0
  -29.5136  -12.5125   18.2332 C   0  0  0  0  0  0
  -28.0390  -12.3333   18.6453 C   0  0  0  0  0  0
  -27.6506  -13.2197   19.8576 C   0  0  2  0  0  0
  -28.6915  -13.0953   20.9882 C   0  0  0  0  0  0
  -25.2566  -13.8178   20.5687 C   0  0  0  0  0  0
  -24.1835  -13.0443   20.9184 C   0  0  0  0  0  0
  -24.6405  -11.6915   20.8739 C   0  0  0  0  0  0
  -23.9081  -10.4295   21.0416 C   0  0  0  0  0  0
  -24.3628   -9.4210   21.9193 C   0  0  0  0  0  0
  -23.6296   -8.2248   22.0764 C   0  0  0  0  0  0
  -22.4280   -8.0288   21.3546 C   0  0  0  0  0  0
  -21.9921   -9.0267   20.4648 C   0  0  0  0  0  0
  -22.7259  -10.2142   20.3058 C   0  0  0  0  0  0
  -21.6853   -6.0745   22.5280 C   0  0  0  0  0  0
  -21.4014   -6.5647   23.8216 C   0  0  0  0  0  0
  -21.3657   -5.6797   24.9175 C   0  0  0  0  0  0
  -21.6045   -4.3059   24.7223 C   0  0  0  0  0  0
  -21.8819   -3.8156   23.4342 C   0  0  0  0  0  0
  -21.9192   -4.6972   22.3404 C   0  0  0  0  0  0
  -22.7857  -13.5235   21.1850 C   0  0  0  0  0  0
  -22.1659   -4.2163   21.0978 F   0  0  0  0  0  0
  -21.5628   -3.4539   25.7734 F   0  0  0  0  0  0
  -29.9942  -13.4919   20.4332 N   0  0  0  0  0  0
  -26.2980  -12.9362   20.3280 N   0  0  0  0  0  0
  -25.9327  -11.6517   20.5738 N   0  0  0  0  0  0
  -22.0490  -12.8229   22.0397 N   0  0  0  0  0  0
  -25.4305  -15.1898   20.4131 N   0  0  0  0  0  0
  -31.7359  -14.8798   20.0439 O   0  0  0  0  0  0
  -21.6637   -6.8887   21.4245 O   0  0  0  0  0  0
  -22.3552  -14.5545   20.6700 O   0  0  0  0  0  0
  -24.6320  -31.8518   23.1967 C   0  0  0  0  0  0
  -25.9132  -32.4733   23.8321 C   0  0  1  0  0  0
  -27.2145  -27.2515   20.1328 C   0  0  0  0  0  0
  -25.5917  -33.8534   24.2248 N   0  0  0  0  0  0
  -23.4296  -30.4753   21.5403 C   0  0  2  0  0  0
  -24.8761  -28.9191   20.1125 C   0  0  0  0  0  0
  -22.7517  -29.4579   22.4900 C   0  0  0  0  0  0
  -18.0293  -28.1401   22.8464 C   0  0  0  0  0  0
  -24.1494  -36.7275   23.2644 C   0  0  0  0  0  0
  -25.9758  -30.7665   21.3743 C   0  0  0  0  0  0
  -26.0499  -29.3857   20.7193 C   0  0  0  0  0  0
  -27.2267  -28.5657   20.7135 C   0  0  0  0  0  0
  -26.0209  -26.8568   19.4913 C   0  0  0  0  0  0
  -24.8661  -27.6644   19.4859 C   0  0  0  0  0  0
  -23.6481  -29.8078   20.1570 C   0  0  0  0  0  0
  -25.4115  -36.3041   24.0332 C   0  0  1  0  0  0
  -20.5896  -28.3708   23.1257 C   0  0  2  0  0  0
  -20.6783  -26.9427   22.5399 C   0  0  0  0  0  0
  -19.5764  -26.6395   21.5193 C   0  0  0  0  0  0
  -18.1941  -26.7940   22.1605 C   0  0  0  0  0  0
  -19.1549  -28.8871   23.2854 C   0  0  0  0  0  0
  -18.9470  -30.1468   23.8880 C   0  0  0  0  0  0
  -17.6467  -30.6595   24.0561 C   0  0  0  0  0  0
  -25.9054  -34.9415   23.5093 C   0  0  0  0  0  0
  -16.5360  -29.9098   23.6328 C   0  0  0  0  0  0
  -16.7279  -28.6523   23.0335 C   0  0  0  0  0  0
  -26.4512  -31.6561   25.0708 C   0  0  0  0  0  0
  -25.3732  -31.3701   26.1428 C   0  0  0  0  0  0
  -27.0372  -30.2984   24.6186 C   0  0  0  0  0  0
  -27.6080  -32.4297   25.7470 C   0  0  0  0  0  0
  -27.5575  -37.1780   24.8472 C   0  0  0  0  0  0
  -21.4221  -29.3044   22.3653 N   0  0  0  0  0  0
  -26.4291  -37.3747   23.9416 N   0  0  0  0  0  0
  -24.6990  -31.0496   22.0937 N   0  0  0  0  0  0
  -23.4209  -28.8103   23.2995 O   0  0  0  0  0  0
  -28.2952  -26.3385   20.1533 O   0  0  0  0  0  0
  -26.5634  -34.8886   22.4669 O   0  0  0  0  0  0
  -23.5468  -32.1341   23.7258 O   0  0  0  0  0  0
  -28.9944  -20.8776   20.9027 C   0  0  0  0  0  0
  -28.6511  -19.7024   21.7102 C   0  0  0  0  0  0
  -28.6989  -22.2682   21.2973 C   0  0  0  0  0  0
  -27.8436  -19.9973   22.8597 C   0  0  0  0  0  0
  -27.7227  -21.3176   23.3518 C   0  0  0  0  0  0
  -28.2269  -22.4140   22.6253 C   0  0  0  0  0  0
  -29.6962  -17.4959   22.7378 C   0  0  0  0  0  0
  -29.7233  -15.9897   22.4394 C   0  0  0  0  0  0
  -29.7690  -17.2578   20.4371 C   0  0  0  0  0  0
  -28.9884  -18.1232   21.5253 C   0  0  2  0  0  0
  -27.0636  -18.9263   23.6421 C   0  0  0  0  0  0
  -27.0509  -21.5664   24.7050 C   0  0  0  0  0  0
  -28.7507  -23.2684   18.9358 C   0  0  0  0  0  0
  -30.4255  -24.0241   20.6215 C   0  0  0  0  0  0
  -29.4030  -23.7744   24.1196 C   0  0  0  0  0  0
  -28.0340  -24.9569   20.7027 C   0  0  0  0  0  0
  -28.9574  -23.6151   20.4228 C   0  0  0  0  0  0
  -29.8752  -15.8253   20.9867 N   0  0  0  0  0  0
  -28.2767  -23.6248   23.2585 O   0  0  0  0  0  0
  -31.4797  -12.5962   19.1602 H   0  0  0  0  0  0
  -30.4060  -11.4671   19.9282 H   0  0  0  0  0  0
  -29.7950  -11.7386   17.5174 H   0  0  0  0  0  0
  -29.6404  -13.4657   17.7181 H   0  0  0  0  0  0
  -27.8963  -11.2827   18.9006 H   0  0  0  0  0  0
  -27.3811  -12.5304   17.7982 H   0  0  0  0  0  0
  -27.6649  -14.2514   19.5059 H   0  0  0  0  0  0
  -28.7328  -12.0690   21.3562 H   0  0  0  0  0  0
  -28.3991  -13.6954   21.8439 H   0  0  0  0  0  0
  -25.2771   -9.5683   22.4767 H   0  0  0  0  0  0
  -24.0003   -7.4640   22.7486 H   0  0  0  0  0  0
  -21.0852   -8.8794   19.8944 H   0  0  0  0  0  0
  -22.3732  -10.9685   19.6161 H   0  0  0  0  0  0
  -21.2006   -7.6153   23.9725 H   0  0  0  0  0  0
  -21.1477   -6.0522   25.9079 H   0  0  0  0  0  0
  -22.0599   -2.7619   23.2839 H   0  0  0  0  0  0
  -22.4098  -11.9882   22.4781 H   0  0  0  0  0  0
  -21.1103  -13.1265   22.2576 H   0  0  0  0  0  0
  -24.6709  -15.8501   20.5362 H   0  0  0  0  0  0
  -26.2915  -15.6279   20.1113 H   0  0  0  0  0  0
  -26.7190  -32.5393   23.1054 H   0  0  0  0  0  0
  -25.0024  -33.9675   25.0363 H   0  0  0  0  0  0
  -22.7264  -31.2979   21.3918 H   0  0  0  0  0  0
  -23.3746  -35.9617   23.3302 H   0  0  0  0  0  0
  -24.3586  -36.8903   22.2058 H   0  0  0  0  0  0
  -23.7250  -37.6477   23.6675 H   0  0  0  0  0  0
  -26.1100  -31.5263   20.6028 H   0  0  0  0  0  0
  -26.8565  -30.8229   22.0021 H   0  0  0  0  0  0
  -28.1308  -28.9210   21.1891 H   0  0  0  0  0  0
  -25.9679  -25.8967   18.9965 H   0  0  0  0  0  0
  -23.9663  -27.3104   19.0012 H   0  0  0  0  0  0
  -23.7762  -30.5853   19.4034 H   0  0  0  0  0  0
  -22.7668  -29.2419   19.8490 H   0  0  0  0  0  0
  -25.1288  -36.1890   25.0823 H   0  0  0  0  0  0
  -20.9974  -28.3286   24.1388 H   0  0  0  0  0  0
  -20.5677  -26.2322   23.3606 H   0  0  0  0  0  0
  -21.6648  -26.7456   22.1187 H   0  0  0  0  0  0
  -19.6939  -25.6302   21.1239 H   0  0  0  0  0  0
  -19.6700  -27.3193   20.6710 H   0  0  0  0  0  0
  -17.4200  -26.6666   21.4021 H   0  0  0  0  0  0
  -18.0362  -26.0101   22.9024 H   0  0  0  0  0  0
  -19.7955  -30.7284   24.2246 H   0  0  0  0  0  0
  -17.5032  -31.6277   24.5173 H   0  0  0  0  0  0
  -15.5359  -30.2990   23.7685 H   0  0  0  0  0  0
  -15.8681  -28.0851   22.7035 H   0  0  0  0  0  0
  -24.5953  -30.6999   25.7755 H   0  0  0  0  0  0
  -24.8872  -32.2863   26.4791 H   0  0  0  0  0  0
  -25.8053  -30.8934   27.0234 H   0  0  0  0  0  0
  -26.2958  -29.6703   24.1243 H   0  0  0  0  0  0
  -27.4108  -29.7269   25.4687 H   0  0  0  0  0  0
  -27.8802  -30.4268   23.9395 H   0  0  0  0  0  0
  -27.2732  -33.3646   26.1971 H   0  0  0  0  0  0
  -28.3922  -32.6771   25.0300 H   0  0  0  0  0  0
  -28.0711  -31.8460   26.5432 H   0  0  0  0  0  0
  -28.2575  -38.0093   24.7500 H   0  0  0  0  0  0
  -28.1083  -36.2610   24.6316 H   0  0  0  0  0  0
  -27.2291  -37.1443   25.8877 H   0  0  0  0  0  0
  -20.9426  -29.8770   21.6851 H   0  0  0  0  0  0
  -26.0165  -38.2815   24.1434 H   0  0  0  0  0  0
  -29.4983  -20.7066   19.9633 H   0  0  0  0  0  0
  -30.7132  -17.8832   22.8091 H   0  0  0  0  0  0
  -29.2416  -17.6800   23.7074 H   0  0  0  0  0  0
  -28.7732  -15.5656   22.7620 H   0  0  0  0  0  0
  -30.5135  -15.4937   23.0069 H   0  0  0  0  0  0
  -30.7689  -17.6571   20.2632 H   0  0  0  0  0  0
  -29.2460  -17.2595   19.4810 H   0  0  0  0  0  0
  -27.9932  -17.6915   21.4223 H   0  0  0  0  0  0
  -27.4571  -18.8214   24.6535 H   0  0  0  0  0  0
  -27.0216  -17.9339   23.2067 H   0  0  0  0  0  0
  -26.0169  -19.2196   23.7239 H   0  0  0  0  0  0
  -27.6143  -21.0753   25.4989 H   0  0  0  0  0  0
  -26.0303  -21.1891   24.7204 H   0  0  0  0  0  0
  -26.9761  -22.6198   24.9664 H   0  0  0  0  0  0
  -29.4406  -22.4965   18.5950 H   0  0  0  0  0  0
  -28.9113  -24.1425   18.3052 H   0  0  0  0  0  0
  -27.7351  -22.9160   18.7490 H   0  0  0  0  0  0
  -31.1025  -23.1929   20.4226 H   0  0  0  0  0  0
  -30.6113  -24.3674   21.6382 H   0  0  0  0  0  0
  -30.7051  -24.8357   19.9484 H   0  0  0  0  0  0
  -29.7834  -24.7930   24.0459 H   0  0  0  0  0  0
  -30.2248  -23.0981   23.8745 H   0  0  0  0  0  0
  -29.1215  -23.6024   25.1590 H   0  0  0  0  0  0
  -28.0492  -25.2121   21.7530 H   0  0  0  0  0  0
  -27.0033  -24.6621   20.5143 H   0  0  0  0  0  0
  1 25  1  0  0  0
  1 30  2  0  0  0
  1 88  1  0  0  0
  2  3  1  0  0  0
  2 25  1  0  0  0
  2 90  1  0  0  0
  2 91  1  0  0  0
  3  4  1  0  0  0
  3 92  1  0  0  0
  3 93  1  0  0  0
  4  5  1  0  0  0
  4 94  1  0  0  0
  4 95  1  0  0  0
  5  6  1  0  0  0
  5 26  1  0  0  0
  5 96  1  0  0  0
  6 25  1  0  0  0
  6 97  1  0  0  0
  6 98  1  0  0  0
  7  8  2  0  0  0
  7 26  1  0  0  0
  7 29  1  0  0  0
  8  9  1  0  0  0
  8 22  1  0  0  0
  9 10  1  0  0  0
  9 27  2  0  0  0
 10 11  2  0  0  0
 10 15  1  0  0  0
 11 12  1  0  0  0
 11 99  1  0  0  0
 12 13  2  0  0  0
 12100  1  0  0  0
 13 14  1  0  0  0
 13 31  1  0  0  0
 14 15  2  0  0  0
 14101  1  0  0  0
 15102  1  0  0  0
 16 17  2  0  0  0
 16 21  1  0  0  0
 16 31  1  0  0  0
 17 18  1  0  0  0
 17103  1  0  0  0
 18 19  2  0  0  0
 18104  1  0  0  0
 19 20  1  0  0  0
 19 24  1  0  0  0
 20 21  2  0  0  0
 20105  1  0  0  0
 21 23  1  0  0  0
 22 28  1  0  0  0
 22 32  2  0  0  0
 26 27  1  0  0  0
 28106  1  0  0  0
 28107  1  0  0  0
 29108  1  0  0  0
 29109  1  0  0  0
 33 34  1  0  0  0
 33 66  1  0  0  0
 33 70  2  0  0  0
 34 36  1  0  0  0
 34 59  1  0  0  0
 34110  1  0  0  0
 35 44  2  0  0  0
 35 45  1  0  0  0
 35 68  1  0  0  0
 36 56  1  0  0  0
 36111  1  0  0  0
 37 39  1  0  0  0
 37 47  1  0  0  0
 37 66  1  0  0  0
 37112  1  0  0  0
 38 43  2  0  0  0
 38 46  1  0  0  0
 38 47  1  0  0  0
 39 64  1  0  0  0
 39 67  2  0  0  0
 40 52  1  0  0  0
 40 53  2  0  0  0
 40 58  1  0  0  0
 41113  1  0  0  0
 41114  1  0  0  0
 41115  1  0  0  0
 41 48  1  0  0  0
 42 43  1  0  0  0
 42 66  1  0  0  0
 42116  1  0  0  0
 42117  1  0  0  0
 43 44  1  0  0  0
 44118  1  0  0  0
 45 46  2  0  0  0
 45119  1  0  0  0
 46120  1  0  0  0
 47121  1  0  0  0
 47122  1  0  0  0
 48 56  1  0  0  0
 48 65  1  0  0  0
 48123  1  0  0  0
 49 50  1  0  0  0
 49 53  1  0  0  0
 49 64  1  0  0  0
 49124  1  0  0  0
 50 51  1  0  0  0
 50125  1  0  0  0
 50126  1  0  0  0
 51 52  1  0  0  0
 51127  1  0  0  0
 51128  1  0  0  0
 52129  1  0  0  0
 52130  1  0  0  0
 53 54  1  0  0  0
 54 55  2  0  0  0
 54131  1  0  0  0
 55 57  1  0  0  0
 55132  1  0  0  0
 56 69  2  0  0  0
 57 58  2  0  0  0
 57133  1  0  0  0
 58134  1  0  0  0
 59 60  1  0  0  0
 59 61  1  0  0  0
 59 62  1  0  0  0
 60135  1  0  0  0
 60136  1  0  0  0
 60137  1  0  0  0
 61138  1  0  0  0
 61139  1  0  0  0
 61140  1  0  0  0
 62141  1  0  0  0
 62142  1  0  0  0
 62143  1  0  0  0
 63 65  1  0  0  0
 63144  1  0  0  0
 63145  1  0  0  0
 63146  1  0  0  0
 64147  1  0  0  0
 65148  1  0  0  0
 68 86  1  0  0  0
 71 72  2  0  0  0
 71 73  1  0  0  0
 71149  1  0  0  0
 72 74  1  0  0  0
 72 80  1  0  0  0
 73 76  2  0  0  0
 73 87  1  0  0  0
 74 75  2  0  0  0
 74 81  1  0  0  0
 75 76  1  0  0  0
 75 82  1  0  0  0
 76 89  1  0  0  0
 77 78  1  0  0  0
 77 80  1  0  0  0
 77150  1  0  0  0
 77151  1  0  0  0
 78 88  1  0  0  0
 78152  1  0  0  0
 78153  1  0  0  0
 79 80  1  0  0  0
 79 88  1  0  0  0
 79154  1  0  0  0
 79155  1  0  0  0
 80156  1  0  0  0
 81157  1  0  0  0
 81158  1  0  0  0
 81159  1  0  0  0
 82160  1  0  0  0
 82161  1  0  0  0
 82162  1  0  0  0
 83163  1  0  0  0
 83164  1  0  0  0
 83165  1  0  0  0
 83 87  1  0  0  0
 84 87  1  0  0  0
 84166  1  0  0  0
 84167  1  0  0  0
 84168  1  0  0  0
 85 89  1  0  0  0
 85169  1  0  0  0
 85170  1  0  0  0
 85171  1  0  0  0
 86 87  1  0  0  0
 86172  1  0  0  0
 86173  1  0  0  0
M  ISO  4   1 100  68 101  86 101  88 100
M  END
> <chiral flag>
0

> <version>
0

> <s_m_source_file>
/data/baiqing/PycharmProjects/Reinvent-master-3.2/result/LINK_invent/BTK/process_docking_weight1_custom_sum_contain_oxygen_bond_distance_aromatic_linkinvent_7_9_3/rearranged_h_0167.sdf

> <i_m_source_file_index>
79

> <r_mmod_Potential_Energy-OPLS-2005>
552.143371582031

> <r_mmod_Stretch_Energy-OPLS-2005>
161.579696655273

> <r_mmod_Bend_Energy-OPLS-2005>
278.577239990234

> <r_mmod_Torsional_Energy-OPLS-2005>
394.416137695312

> <r_mmod_Improper_Torsional_Energy-OPLS-2005>
7.34825468063354

> <r_mmod_Van_der_Waal_Energy-OPLS-2005>
163.760131835938

> <r_mmod_Electrostatic_Energy-OPLS-2005>
-343.261047363281

> <r_mmod_Solvation_Energy-OPLS-2005>
-191.390213012695

> <b_mmod_Minimization_Converged-OPLS-2005>
0

> <r_mmod_RMS_Derivative-OPLS-2005>
2.21108436584473

$$$$
79
                    3D
 Structure written by MMmdl.
178187  0  0  1  0            999 V2000
  -30.7691  -14.5241   20.5307 C   0  0  0  0  0  0
  -30.4054  -12.3427   19.4300 C   0  0  0  0  0  0
  -29.4792  -12.4885   18.2084 C   0  0  0  0  0  0
  -28.0107  -12.3049   18.6330 C   0  0  0  0  0  0
  -27.6430  -13.1698   19.8635 C   0  0  2  0  0  0
  -28.7073  -13.0469   20.9883 C   0  0  0  0  0  0
  -25.2566  -13.8041   20.5726 C   0  0  0  0  0  0
  -24.1804  -13.0382   20.9244 C   0  0  0  0  0  0
  -24.6329  -11.6835   20.8829 C   0  0  0  0  0  0
  -23.9005  -10.4254   21.0474 C   0  0  0  0  0  0
  -24.3561   -9.4156   21.9231 C   0  0  0  0  0  0
  -23.6240   -8.2195   22.0761 C   0  0  0  0  0  0
  -22.4228   -8.0267   21.3537 C   0  0  0  0  0  0
  -21.9876   -9.0252   20.4642 C   0  0  0  0  0  0
  -22.7207  -10.2123   20.3090 C   0  0  0  0  0  0
  -21.6804   -6.0737   22.5268 C   0  0  0  0  0  0
  -21.3987   -6.5638   23.8209 C   0  0  0  0  0  0
  -21.3670   -5.6796   24.9172 C   0  0  0  0  0  0
  -21.6050   -4.3061   24.7218 C   0  0  0  0  0  0
  -21.8819   -3.8160   23.4336 C   0  0  0  0  0  0
  -21.9179   -4.6972   22.3394 C   0  0  0  0  0  0
  -22.7840  -13.5223   21.1875 C   0  0  0  0  0  0
  -22.1645   -4.2168   21.0964 F   0  0  0  0  0  0
  -21.5646   -3.4550   25.7736 F   0  0  0  0  0  0
  -30.0159  -13.3827   20.4074 N   0  0  0  0  0  0
  -26.2939  -12.9114   20.3416 N   0  0  0  0  0  0
  -25.9237  -11.6332   20.5885 N   0  0  0  0  0  0
  -22.0460  -12.8230   22.0415 N   0  0  0  0  0  0
  -25.4281  -15.1749   20.4040 N   0  0  0  0  0  0
  -31.9426  -14.5120   20.1520 O   0  0  0  0  0  0
  -21.6580   -6.8877   21.4231 O   0  0  0  0  0  0
  -22.3568  -14.5544   20.6720 O   0  0  0  0  0  0
  -24.6124  -31.8712   23.2143 C   0  0  0  0  0  0
  -25.9031  -32.4841   23.8425 C   0  0  1  0  0  0
  -27.2364  -27.4617   20.0942 C   0  0  0  0  0  0
  -25.5897  -33.8639   24.2358 N   0  0  0  0  0  0
  -23.3987  -30.4944   21.5549 C   0  0  2  0  0  0
  -24.8465  -28.9657   20.1153 C   0  0  0  0  0  0
  -22.7387  -29.4681   22.5030 C   0  0  0  0  0  0
  -18.0266  -28.1388   22.8510 C   0  0  0  0  0  0
  -24.1479  -36.7311   23.2650 C   0  0  0  0  0  0
  -25.9267  -30.8429   21.3655 C   0  0  0  0  0  0
  -26.0054  -29.4814   20.7096 C   0  0  0  0  0  0
  -27.2061  -28.7378   20.6933 C   0  0  0  0  0  0
  -26.0641  -26.9597   19.4866 C   0  0  0  0  0  0
  -24.8696  -27.7029   19.4995 C   0  0  0  0  0  0
  -23.6055  -29.8269   20.1697 C   0  0  0  0  0  0
  -25.4107  -36.3132   24.0358 C   0  0  1  0  0  0
  -20.5851  -28.3671   23.1349 C   0  0  2  0  0  0
  -20.6756  -26.9408   22.5451 C   0  0  0  0  0  0
  -19.5745  -26.6388   21.5241 C   0  0  0  0  0  0
  -18.1904  -26.7957   22.1610 C   0  0  0  0  0  0
  -19.1511  -28.8851   23.2927 C   0  0  0  0  0  0
  -18.9434  -30.1457   23.8934 C   0  0  0  0  0  0
  -17.6437  -30.6600   24.0580 C   0  0  0  0  0  0
  -25.9034  -34.9491   23.5152 C   0  0  0  0  0  0
  -16.5333  -29.9095   23.6344 C   0  0  0  0  0  0
  -16.7256  -28.6511   23.0375 C   0  0  0  0  0  0
  -26.4469  -31.6610   25.0740 C   0  0  0  0  0  0
  -25.3736  -31.3680   26.1475 C   0  0  0  0  0  0
  -27.0321  -30.3061   24.6114 C   0  0  0  0  0  0
  -27.6054  -32.4333   25.7488 C   0  0  0  0  0  0
  -27.5590  -37.1809   24.8471 C   0  0  0  0  0  0
  -21.4127  -29.3033   22.3755 N   0  0  0  0  0  0
  -26.4301  -37.3807   23.9419 N   0  0  0  0  0  0
  -24.6640  -31.0822   22.1039 N   0  0  0  0  0  0
  -23.4170  -28.8247   23.3086 O   0  0  0  0  0  0
  -28.3895  -26.7114   20.1069 O   0  0  0  0  0  0
  -26.5588  -34.8940   22.4705 O   0  0  0  0  0  0
  -23.5324  -32.1448   23.7558 O   0  0  0  0  0  0
  -30.2318  -22.5603   19.3132 C   0  0  0  0  0  0
  -31.3287  -23.2138   21.4158 C   0  0  0  0  0  0
  -29.3109  -23.6308   19.4662 C   0  0  0  0  0  0
  -30.4328  -24.3126   21.5351 C   0  0  0  0  0  0
  -31.2289  -22.3246   20.3071 C   0  0  0  0  0  0
  -29.3761  -24.4754   20.6022 C   0  0  0  0  0  0
  -31.2521  -17.5365   19.5260 C   0  0  0  0  0  0
  -30.7880  -18.0515   21.9961 C   0  0  0  0  0  0
  -32.1485  -18.7769   19.4918 C   0  0  0  0  0  0
  -31.6175  -19.3536   21.8014 C   0  0  0  0  0  0
  -31.1282  -16.9399   20.9506 C   0  0  1  0  0  0
  -30.1200  -21.6870   18.0594 C   0  0  0  0  0  0
  -32.4109  -23.0094   22.4805 C   0  0  0  0  0  0
  -28.2286  -23.8895   18.4133 C   0  0  0  0  0  0
  -30.6103  -25.3298   22.6641 C   0  0  0  0  0  0
  -28.8293  -16.1171   20.6815 C   0  0  0  0  0  0
  -32.2256  -21.1583   20.1440 C   0  0  0  0  0  0
  -28.2534  -25.4939   20.8478 C   0  0  0  0  0  0
  -30.2305  -15.7347   20.9227 N   0  0  0  0  0  0
  -31.6035  -19.8244   20.3873 N   0  3  1  0  0  0
  -31.4459  -12.4083   19.1081 H   0  0  0  0  0  0
  -30.3046  -11.3493   19.8708 H   0  0  0  0  0  0
  -29.7417  -11.7556   17.4445 H   0  0  0  0  0  0
  -29.6149  -13.4710   17.7532 H   0  0  0  0  0  0
  -27.8579  -11.2495   18.8642 H   0  0  0  0  0  0
  -27.3443  -12.5326   17.7997 H   0  0  0  0  0  0
  -27.6207  -14.1730   19.4706 H   0  0  0  0  0  0
  -28.7278  -12.0245   21.3684 H   0  0  0  0  0  0
  -28.4790  -13.6507   21.8645 H   0  0  0  0  0  0
  -25.2694   -9.5616   22.4822 H   0  0  0  0  0  0
  -23.9945   -7.4559   22.7461 H   0  0  0  0  0  0
  -21.0816   -8.8797   19.8924 H   0  0  0  0  0  0
  -22.3704  -10.9687   19.6212 H   0  0  0  0  0  0
  -21.1965   -7.6145   23.9713 H   0  0  0  0  0  0
  -21.1500   -6.0529   25.9077 H   0  0  0  0  0  0
  -22.0601   -2.7627   23.2826 H   0  0  0  0  0  0
  -22.4027  -11.9862   22.4789 H   0  0  0  0  0  0
  -21.1097  -13.1286   22.2632 H   0  0  0  0  0  0
  -24.6612  -15.8295   20.5085 H   0  0  0  0  0  0
  -26.2796  -15.6138   20.0811 H   0  0  0  0  0  0
  -26.7109  -32.5575   23.1202 H   0  0  0  0  0  0
  -25.0097  -33.9815   25.0533 H   0  0  0  0  0  0
  -22.6843  -31.3097   21.4169 H   0  0  0  0  0  0
  -23.3772  -35.9609   23.3296 H   0  0  0  0  0  0
  -24.3564  -36.8936   22.2063 H   0  0  0  0  0  0
  -23.7183  -37.6489   23.6673 H   0  0  0  0  0  0
  -26.0370  -31.6126   20.6002 H   0  0  0  0  0  0
  -26.8145  -30.8929   21.9847 H   0  0  0  0  0  0
  -28.1008  -29.1320   21.1541 H   0  0  0  0  0  0
  -26.0681  -25.9930   19.0048 H   0  0  0  0  0  0
  -23.9801  -27.2989   19.0358 H   0  0  0  0  0  0
  -23.7080  -30.6017   19.4094 H   0  0  0  0  0  0
  -22.7293  -29.2444   19.8787 H   0  0  0  0  0  0
  -25.1279  -36.2027   25.0852 H   0  0  0  0  0  0
  -20.9929  -28.3246   24.1478 H   0  0  0  0  0  0
  -20.5673  -26.2270   23.3638 H   0  0  0  0  0  0
  -21.6629  -26.7470   22.1244 H   0  0  0  0  0  0
  -19.6899  -25.6304   21.1260 H   0  0  0  0  0  0
  -19.6703  -27.3216   20.6789 H   0  0  0  0  0  0
  -17.4204  -26.6790   21.3965 H   0  0  0  0  0  0
  -18.0218  -26.0072   22.8956 H   0  0  0  0  0  0
  -19.7901  -30.7279   24.2305 H   0  0  0  0  0  0
  -17.4986  -31.6278   24.5180 H   0  0  0  0  0  0
  -15.5337  -30.3008   23.7659 H   0  0  0  0  0  0
  -15.8652  -28.0845   22.7080 H   0  0  0  0  0  0
  -24.6012  -30.6896   25.7824 H   0  0  0  0  0  0
  -24.8794  -32.2799   26.4840 H   0  0  0  0  0  0
  -25.8111  -30.8957   27.0278 H   0  0  0  0  0  0
  -26.2864  -29.6792   24.1209 H   0  0  0  0  0  0
  -27.4133  -29.7336   25.4580 H   0  0  0  0  0  0
  -27.8676  -30.4391   23.9235 H   0  0  0  0  0  0
  -27.2684  -33.3620   26.2106 H   0  0  0  0  0  0
  -28.3828  -32.6911   25.0283 H   0  0  0  0  0  0
  -28.0765  -31.8433   26.5355 H   0  0  0  0  0  0
  -28.2647  -38.0076   24.7520 H   0  0  0  0  0  0
  -28.1058  -36.2612   24.6315 H   0  0  0  0  0  0
  -27.2306  -37.1503   25.8877 H   0  0  0  0  0  0
  -20.9295  -29.8700   21.6932 H   0  0  0  0  0  0
  -26.0213  -38.2897   24.1414 H   0  0  0  0  0  0
  -31.6584  -16.7964   18.8357 H   0  0  0  0  0  0
  -30.2711  -17.8040   19.1309 H   0  0  0  0  0  0
  -29.7444  -18.3530   21.9839 H   0  0  0  0  0  0
  -30.9561  -17.6640   23.0025 H   0  0  0  0  0  0
  -32.2043  -19.1318   18.4620 H   0  0  0  0  0  0
  -33.1698  -18.5256   19.7832 H   0  0  0  0  0  0
  -32.6478  -19.1875   22.1202 H   0  0  0  0  0  0
  -31.2100  -20.1278   22.4522 H   0  0  0  0  0  0
  -32.1307  -16.6213   21.2460 H   0  0  0  0  0  0
  -29.0928  -21.3506   17.9107 H   0  0  0  0  0  0
  -30.7207  -20.7863   18.0590 H   0  0  0  0  0  0
  -30.4193  -22.2590   17.1803 H   0  0  0  0  0  0
  -32.1367  -23.4290   23.4467 H   0  0  0  0  0  0
  -33.3471  -23.4712   22.1645 H   0  0  0  0  0  0
  -32.6036  -21.9607   22.6961 H   0  0  0  0  0  0
  -28.4404  -23.4651   17.4349 H   0  0  0  0  0  0
  -28.1151  -24.9578   18.2327 H   0  0  0  0  0  0
  -27.2705  -23.4925   18.7487 H   0  0  0  0  0  0
  -31.6615  -25.5086   22.8844 H   0  0  0  0  0  0
  -30.1175  -24.9908   23.5757 H   0  0  0  0  0  0
  -30.2165  -26.3112   22.4034 H   0  0  0  0  0  0
  -28.6187  -17.1747   20.7868 H   0  0  0  0  0  0
  -28.1235  -15.6310   21.3486 H   0  0  0  0  0  0
  -28.5842  -15.9346   19.6389 H   0  0  0  0  0  0
  -33.1324  -21.2678   20.7351 H   0  0  0  0  0  0
  -32.6053  -21.2262   19.1240 H   0  0  0  0  0  0
  -28.1655  -25.7339   21.9071 H   0  0  0  0  0  0
  -27.3115  -24.9882   20.6328 H   0  0  0  0  0  0
  -30.6357  -19.9494   20.1335 H   0  0  0  0  0  0
  1 25  1  0  0  0
  1 30  2  0  0  0
  1 89  1  0  0  0
  2  3  1  0  0  0
  2 25  1  0  0  0
  2 91  1  0  0  0
  2 92  1  0  0  0
  3  4  1  0  0  0
  3 93  1  0  0  0
  3 94  1  0  0  0
  4  5  1  0  0  0
  4 95  1  0  0  0
  4 96  1  0  0  0
  5  6  1  0  0  0
  5 26  1  0  0  0
  5 97  1  0  0  0
  6 25  1  0  0  0
  6 98  1  0  0  0
  6 99  1  0  0  0
  7  8  2  0  0  0
  7 26  1  0  0  0
  7 29  1  0  0  0
  8  9  1  0  0  0
  8 22  1  0  0  0
  9 10  1  0  0  0
  9 27  2  0  0  0
 10 11  2  0  0  0
 10 15  1  0  0  0
 11 12  1  0  0  0
 11100  1  0  0  0
 12 13  2  0  0  0
 12101  1  0  0  0
 13 14  1  0  0  0
 13 31  1  0  0  0
 14 15  2  0  0  0
 14102  1  0  0  0
 15103  1  0  0  0
 16 17  2  0  0  0
 16 21  1  0  0  0
 16 31  1  0  0  0
 17 18  1  0  0  0
 17104  1  0  0  0
 18 19  2  0  0  0
 18105  1  0  0  0
 19 20  1  0  0  0
 19 24  1  0  0  0
 20 21  2  0  0  0
 20106  1  0  0  0
 21 23  1  0  0  0
 22 28  1  0  0  0
 22 32  2  0  0  0
 26 27  1  0  0  0
 28107  1  0  0  0
 28108  1  0  0  0
 29109  1  0  0  0
 29110  1  0  0  0
 33 34  1  0  0  0
 33 66  1  0  0  0
 33 70  2  0  0  0
 34 36  1  0  0  0
 34 59  1  0  0  0
 34111  1  0  0  0
 35 44  2  0  0  0
 35 45  1  0  0  0
 35 68  1  0  0  0
 36 56  1  0  0  0
 36112  1  0  0  0
 37 39  1  0  0  0
 37 47  1  0  0  0
 37 66  1  0  0  0
 37113  1  0  0  0
 38 43  2  0  0  0
 38 46  1  0  0  0
 38 47  1  0  0  0
 39 64  1  0  0  0
 39 67  2  0  0  0
 40 52  1  0  0  0
 40 53  2  0  0  0
 40 58  1  0  0  0
 41114  1  0  0  0
 41115  1  0  0  0
 41116  1  0  0  0
 41 48  1  0  0  0
 42 43  1  0  0  0
 42 66  1  0  0  0
 42117  1  0  0  0
 42118  1  0  0  0
 43 44  1  0  0  0
 44119  1  0  0  0
 45 46  2  0  0  0
 45120  1  0  0  0
 46121  1  0  0  0
 47122  1  0  0  0
 47123  1  0  0  0
 48 56  1  0  0  0
 48 65  1  0  0  0
 48124  1  0  0  0
 49 50  1  0  0  0
 49 53  1  0  0  0
 49 64  1  0  0  0
 49125  1  0  0  0
 50 51  1  0  0  0
 50126  1  0  0  0
 50127  1  0  0  0
 51 52  1  0  0  0
 51128  1  0  0  0
 51129  1  0  0  0
 52130  1  0  0  0
 52131  1  0  0  0
 53 54  1  0  0  0
 54 55  2  0  0  0
 54132  1  0  0  0
 55 57  1  0  0  0
 55133  1  0  0  0
 56 69  2  0  0  0
 57 58  2  0  0  0
 57134  1  0  0  0
 58135  1  0  0  0
 59 60  1  0  0  0
 59 61  1  0  0  0
 59 62  1  0  0  0
 60136  1  0  0  0
 60137  1  0  0  0
 60138  1  0  0  0
 61139  1  0  0  0
 61140  1  0  0  0
 61141  1  0  0  0
 62142  1  0  0  0
 62143  1  0  0  0
 62144  1  0  0  0
 63 65  1  0  0  0
 63145  1  0  0  0
 63146  1  0  0  0
 63147  1  0  0  0
 64148  1  0  0  0
 65149  1  0  0  0
 68 88  1  0  0  0
 71 73  2  0  0  0
 71 75  1  0  0  0
 71 82  1  0  0  0
 72 74  1  0  0  0
 72 75  2  0  0  0
 72 83  1  0  0  0
 73 76  1  0  0  0
 73 84  1  0  0  0
 74 76  2  0  0  0
 74 85  1  0  0  0
 75 87  1  0  0  0
 76 88  1  0  0  0
 77 79  1  0  0  0
 77 81  1  0  0  0
 77150  1  0  0  0
 77151  1  0  0  0
 78 80  1  0  0  0
 78 81  1  0  0  0
 78152  1  0  0  0
 78153  1  0  0  0
 79 90  1  0  0  0
 79154  1  0  0  0
 79155  1  0  0  0
 80 90  1  0  0  0
 80156  1  0  0  0
 80157  1  0  0  0
 81 89  1  0  0  0
 81158  1  0  0  0
 82159  1  0  0  0
 82160  1  0  0  0
 82161  1  0  0  0
 83162  1  0  0  0
 83163  1  0  0  0
 83164  1  0  0  0
 84165  1  0  0  0
 84166  1  0  0  0
 84167  1  0  0  0
 85168  1  0  0  0
 85169  1  0  0  0
 85170  1  0  0  0
 86 89  1  0  0  0
 86171  1  0  0  0
 86172  1  0  0  0
 86173  1  0  0  0
 87174  1  0  0  0
 87175  1  0  0  0
 87 90  1  0  0  0
 88176  1  0  0  0
 88177  1  0  0  0
 90178  1  0  0  0
M  CHG  1  90   1
M  ISO  4   1 100  68 101  88 101  89 100
M  END
> <chiral flag>
0

> <version>
0

> <s_m_source_file>
/data/baiqing/PycharmProjects/Reinvent-master-3.2/result/LINK_invent/BTK/process_docking_weight1_custom_sum_contain_oxygen_bond_distance_aromatic_linkinvent_7_9_3/rearranged_h_0167.sdf

> <i_m_source_file_index>
80

> <r_mmod_Potential_Energy-OPLS-2005>
154.330459594727

> <r_mmod_Stretch_Energy-OPLS-2005>
55.3822059631348

> <r_mmod_Bend_Energy-OPLS-2005>
135.973007202148

> <r_mmod_Torsional_Energy-OPLS-2005>
332.781707763672

> <r_mmod_Improper_Torsional_Energy-OPLS-2005>
5.39562082290649

> <r_mmod_Van_der_Waal_Energy-OPLS-2005>
208.181259155273

> <r_mmod_Electrostatic_Energy-OPLS-2005>
-198.493423461914

> <r_mmod_Solvation_Energy-OPLS-2005>
-409.698852539062

> <b_mmod_Minimization_Converged-OPLS-2005>
0

> <r_mmod_RMS_Derivative-OPLS-2005>
1.82729351520538

$$$$
80
                    3D
 Structure written by MMmdl.
173183  0  0  1  0            999 V2000
  -30.5771  -14.6124   20.4683 C   0  0  0  0  0  0
  -30.4509  -12.3538   19.4651 C   0  0  0  0  0  0
  -29.5075  -12.4737   18.2473 C   0  0  0  0  0  0
  -28.0316  -12.2910   18.6647 C   0  0  0  0  0  0
  -27.6419  -13.1848   19.8663 C   0  0  2  0  0  0
  -28.6911  -13.0687   20.9972 C   0  0  0  0  0  0
  -25.2549  -13.8140   20.5777 C   0  0  0  0  0  0
  -24.1773  -13.0430   20.9312 C   0  0  0  0  0  0
  -24.6308  -11.6906   20.8830 C   0  0  0  0  0  0
  -23.8983  -10.4311   21.0492 C   0  0  0  0  0  0
  -24.3576   -9.4219   21.9225 C   0  0  0  0  0  0
  -23.6281   -8.2220   22.0733 C   0  0  0  0  0  0
  -22.4265   -8.0289   21.3518 C   0  0  0  0  0  0
  -21.9910   -9.0270   20.4622 C   0  0  0  0  0  0
  -22.7223  -10.2158   20.3081 C   0  0  0  0  0  0
  -21.6809   -6.0751   22.5289 C   0  0  0  0  0  0
  -21.4028   -6.5666   23.8240 C   0  0  0  0  0  0
  -21.3652   -5.6817   24.9194 C   0  0  0  0  0  0
  -21.6042   -4.3080   24.7243 C   0  0  0  0  0  0
  -21.8793   -3.8156   23.4364 C   0  0  0  0  0  0
  -21.9191   -4.6975   22.3413 C   0  0  0  0  0  0
  -22.7814  -13.5289   21.1929 C   0  0  0  0  0  0
  -22.1634   -4.2188   21.0970 F   0  0  0  0  0  0
  -21.5633   -3.4550   25.7725 F   0  0  0  0  0  0
  -30.0135  -13.3716   20.4233 N   0  0  0  0  0  0
  -26.2897  -12.9211   20.3413 N   0  0  0  0  0  0
  -25.9239  -11.6393   20.5859 N   0  0  0  0  0  0
  -22.0424  -12.8247   22.0478 N   0  0  0  0  0  0
  -25.4352  -15.1806   20.4126 N   0  0  0  0  0  0
  -31.7779  -14.8292   20.3192 O   0  0  0  0  0  0
  -21.6608   -6.8908   21.4247 O   0  0  0  0  0  0
  -22.3511  -14.5571   20.6762 O   0  0  0  0  0  0
  -24.6359  -31.8664   23.2084 C   0  0  0  0  0  0
  -25.9328  -32.4836   23.8359 C   0  0  1  0  0  0
  -27.2565  -27.3545   20.1106 C   0  0  0  0  0  0
  -25.6140  -33.8642   24.2324 N   0  0  0  0  0  0
  -23.4297  -30.5041   21.5306 C   0  0  2  0  0  0
  -24.8849  -28.9549   20.1166 C   0  0  0  0  0  0
  -22.7423  -29.4784   22.4697 C   0  0  0  0  0  0
  -18.0264  -28.1427   22.8341 C   0  0  0  0  0  0
  -24.1500  -36.7229   23.2603 C   0  0  0  0  0  0
  -25.9764  -30.7965   21.3860 C   0  0  0  0  0  0
  -26.0552  -29.4368   20.7163 C   0  0  0  0  0  0
  -27.2429  -28.6502   20.6998 C   0  0  0  0  0  0
  -26.0505  -26.9167   19.4966 C   0  0  0  0  0  0
  -24.8797  -27.6904   19.5028 C   0  0  0  0  0  0
  -23.6670  -29.8583   20.1412 C   0  0  0  0  0  0
  -25.4159  -36.3200   24.0292 C   0  0  1  0  0  0
  -20.5876  -28.3802   23.1101 C   0  0  2  0  0  0
  -20.6840  -26.9534   22.5249 C   0  0  0  0  0  0
  -19.5823  -26.6368   21.5076 C   0  0  0  0  0  0
  -18.1966  -26.7930   22.1468 C   0  0  0  0  0  0
  -19.1539  -28.8917   23.2684 C   0  0  0  0  0  0
  -18.9456  -30.1453   23.8751 C   0  0  0  0  0  0
  -17.6463  -30.6547   24.0605 C   0  0  0  0  0  0
  -25.9178  -34.9535   23.5084 C   0  0  0  0  0  0
  -16.5332  -29.9085   23.6351 C   0  0  0  0  0  0
  -16.7273  -28.6564   23.0190 C   0  0  0  0  0  0
  -26.4772  -31.6688   25.0750 C   0  0  0  0  0  0
  -25.4042  -31.3684   26.1430 C   0  0  0  0  0  0
  -27.0609  -30.3087   24.6360 C   0  0  0  0  0  0
  -27.6279  -32.4369   25.7587 C   0  0  0  0  0  0
  -27.5551  -37.1855   24.8482 C   0  0  0  0  0  0
  -21.4145  -29.3170   22.3474 N   0  0  0  0  0  0
  -26.4326  -37.3897   23.9413 N   0  0  0  0  0  0
  -24.6978  -31.0671   22.1064 N   0  0  0  0  0  0
  -23.4136  -28.8397   23.2830 O   0  0  0  0  0  0
  -28.4074  -26.5550   20.1201 O   0  0  0  0  0  0
  -26.5567  -34.8960   22.4561 O   0  0  0  0  0  0
  -23.5518  -32.1558   23.7279 O   0  0  0  0  0  0
  -31.5593  -20.3257   21.7674 C   0  0  0  0  0  0
  -30.0895  -19.2551   20.2065 C   0  0  0  0  0  0
  -30.4935  -18.2266   22.3897 C   0  0  0  0  0  0
  -30.7315  -20.4549   20.6381 C   0  0  0  0  0  0
  -31.4989  -19.2083   22.6161 C   0  0  0  0  0  0
  -30.0099  -18.0946   21.0500 C   0  0  0  0  0  0
  -29.8514  -17.2209   24.8352 C   0  0  0  0  0  0
  -28.8895  -16.5585   23.8637 C   0  0  0  0  0  0
  -31.5470  -22.7226   17.6382 C   0  0  0  0  0  0
  -31.9461  -21.2570   17.6887 C   0  0  0  0  0  0
  -29.5172  -17.9146   23.5461 C   0  0  0  0  0  0
  -30.7052  -21.7509   18.4326 C   0  0  0  0  0  0
  -32.4581  -19.2348   23.8085 C   0  0  0  0  0  0
  -29.1471  -16.9033   20.5731 C   0  0  0  0  0  0
  -29.6097  -24.2431   20.0914 C   0  0  0  0  0  0
  -28.2706  -25.0920   20.2169 C   0  0  0  0  0  0
  -30.6621  -21.8566   19.9495 C   0  0  1  0  0  0
  -29.6373  -15.5422   20.1786 N   0  0  0  0  0  0
  -29.5578  -22.7626   20.4618 N   0  3  0  0  0  0
  -31.4921  -12.5167   19.1885 H   0  0  0  0  0  0
  -30.4167  -11.3669   19.9211 H   0  0  0  0  0  0
  -29.7900  -11.7511   17.4831 H   0  0  0  0  0  0
  -29.6302  -13.4562   17.7876 H   0  0  0  0  0  0
  -27.8946  -11.2435   18.9192 H   0  0  0  0  0  0
  -27.3770  -12.4872   17.8157 H   0  0  0  0  0  0
  -27.6293  -14.1947   19.4607 H   0  0  0  0  0  0
  -28.6898  -12.0749   21.4415 H   0  0  0  0  0  0
  -28.4562  -13.7658   21.8062 H   0  0  0  0  0  0
  -25.2722   -9.5684   22.4817 H   0  0  0  0  0  0
  -23.9998   -7.4587   22.7422 H   0  0  0  0  0  0
  -21.0872   -8.8796   19.8901 H   0  0  0  0  0  0
  -22.3726  -10.9698   19.6167 H   0  0  0  0  0  0
  -21.2003   -7.6170   23.9765 H   0  0  0  0  0  0
  -21.1516   -6.0536   25.9111 H   0  0  0  0  0  0
  -22.0572   -2.7629   23.2839 H   0  0  0  0  0  0
  -22.4001  -11.9878   22.4824 H   0  0  0  0  0  0
  -21.1049  -13.1218   22.2674 H   0  0  0  0  0  0
  -24.6924  -15.8640   20.5344 H   0  0  0  0  0  0
  -26.2927  -15.5989   20.0729 H   0  0  0  0  0  0
  -26.7310  -32.5647   23.1008 H   0  0  0  0  0  0
  -25.0656  -33.9888   25.0688 H   0  0  0  0  0  0
  -22.7283  -31.3375   21.3889 H   0  0  0  0  0  0
  -23.3850  -35.9492   23.3399 H   0  0  0  0  0  0
  -24.3539  -36.8782   22.2009 H   0  0  0  0  0  0
  -23.7101  -37.6391   23.6563 H   0  0  0  0  0  0
  -26.1164  -31.5801   20.6314 H   0  0  0  0  0  0
  -26.8421  -30.8489   22.0355 H   0  0  0  0  0  0
  -28.1345  -29.0247   21.1817 H   0  0  0  0  0  0
  -25.9796  -25.9753   18.9806 H   0  0  0  0  0  0
  -23.9823  -27.3066   19.0362 H   0  0  0  0  0  0
  -23.8206  -30.6522   19.4027 H   0  0  0  0  0  0
  -22.7849  -29.3217   19.7950 H   0  0  0  0  0  0
  -25.1331  -36.2091   25.0764 H   0  0  0  0  0  0
  -20.9916  -28.3445   24.1255 H   0  0  0  0  0  0
  -20.5761  -26.2465   23.3479 H   0  0  0  0  0  0
  -21.6731  -26.7587   22.1091 H   0  0  0  0  0  0
  -19.6993  -25.6228   21.1189 H   0  0  0  0  0  0
  -19.6772  -27.3125   20.6599 H   0  0  0  0  0  0
  -17.4262  -26.6564   21.3843 H   0  0  0  0  0  0
  -18.0388  -26.0073   22.8925 H   0  0  0  0  0  0
  -19.7939  -30.7292   24.2019 H   0  0  0  0  0  0
  -17.5080  -31.6221   24.5235 H   0  0  0  0  0  0
  -15.5363  -30.3027   23.7775 H   0  0  0  0  0  0
  -15.8612  -28.1027   22.6798 H   0  0  0  0  0  0
  -24.6247  -30.7086   25.7639 H   0  0  0  0  0  0
  -24.9224  -32.2790   26.5093 H   0  0  0  0  0  0
  -25.8503  -30.8701   27.0049 H   0  0  0  0  0  0
  -26.3182  -29.6681   24.1638 H   0  0  0  0  0  0
  -27.4445  -29.7657   25.5026 H   0  0  0  0  0  0
  -27.9114  -30.4159   23.9563 H   0  0  0  0  0  0
  -27.2981  -33.3603   26.2339 H   0  0  0  0  0  0
  -28.4164  -32.7005   25.0521 H   0  0  0  0  0  0
  -28.0998  -31.8365   26.5427 H   0  0  0  0  0  0
  -28.2689  -38.0051   24.7579 H   0  0  0  0  0  0
  -28.0977  -36.2634   24.6388 H   0  0  0  0  0  0
  -27.2275  -37.1569   25.8889 H   0  0  0  0  0  0
  -20.9337  -29.9124   21.6900 H   0  0  0  0  0  0
  -26.0233  -38.2945   24.1608 H   0  0  0  0  0  0
  -32.2138  -21.1464   22.0171 H   0  0  0  0  0  0
  -29.5590  -19.2461   19.2609 H   0  0  0  0  0  0
  -30.8694  -16.8624   24.9214 H   0  0  0  0  0  0
  -29.3924  -17.5681   25.7605 H   0  0  0  0  0  0
  -27.8317  -16.5534   24.1589 H   0  0  0  0  0  0
  -29.2298  -15.6286   23.4211 H   0  0  0  0  0  0
  -31.0202  -23.1413   16.7748 H   0  0  0  0  0  0
  -32.1638  -23.4297   18.2050 H   0  0  0  0  0  0
  -32.8456  -21.0070   18.2609 H   0  0  0  0  0  0
  -31.8100  -20.6603   16.7752 H   0  0  0  0  0  0
  -28.8400  -18.7705   23.6587 H   0  0  0  0  0  0
  -29.7523  -21.4469   17.9986 H   0  0  0  0  0  0
  -32.0558  -19.8323   24.6278 H   0  0  0  0  0  0
  -33.4017  -19.7222   23.5256 H   0  0  0  0  0  0
  -32.7343  -18.2515   24.1983 H   0  0  0  0  0  0
  -28.3293  -16.7452   21.2777 H   0  0  0  0  0  0
  -28.6216  -17.2428   19.6771 H   0  0  0  0  0  0
  -30.4187  -24.7131   20.6454 H   0  0  0  0  0  0
  -29.8626  -24.3187   19.0383 H   0  0  0  0  0  0
  -27.7829  -24.8733   21.1691 H   0  0  0  0  0  0
  -27.6139  -24.7172   19.4305 H   0  0  0  0  0  0
  -31.5928  -22.3504   20.2412 H   0  0  0  0  0  0
  -28.8761  -15.0235   19.7722 H   0  0  0  0  0  0
  -28.6918  -22.3513   20.1661 H   0  0  0  0  0  0
  -29.5648  -22.6866   21.4676 H   0  0  0  0  0  0
  1 25  1  0  0  0
  1 30  2  0  0  0
  1 88  1  0  0  0
  2  3  1  0  0  0
  2 25  1  0  0  0
  2 90  1  0  0  0
  2 91  1  0  0  0
  3  4  1  0  0  0
  3 92  1  0  0  0
  3 93  1  0  0  0
  4  5  1  0  0  0
  4 94  1  0  0  0
  4 95  1  0  0  0
  5  6  1  0  0  0
  5 26  1  0  0  0
  5 96  1  0  0  0
  6 25  1  0  0  0
  6 97  1  0  0  0
  6 98  1  0  0  0
  7  8  2  0  0  0
  7 26  1  0  0  0
  7 29  1  0  0  0
  8  9  1  0  0  0
  8 22  1  0  0  0
  9 10  1  0  0  0
  9 27  2  0  0  0
 10 11  2  0  0  0
 10 15  1  0  0  0
 11 12  1  0  0  0
 11 99  1  0  0  0
 12 13  2  0  0  0
 12100  1  0  0  0
 13 14  1  0  0  0
 13 31  1  0  0  0
 14 15  2  0  0  0
 14101  1  0  0  0
 15102  1  0  0  0
 16 17  2  0  0  0
 16 21  1  0  0  0
 16 31  1  0  0  0
 17 18  1  0  0  0
 17103  1  0  0  0
 18 19  2  0  0  0
 18104  1  0  0  0
 19 20  1  0  0  0
 19 24  1  0  0  0
 20 21  2  0  0  0
 20105  1  0  0  0
 21 23  1  0  0  0
 22 28  1  0  0  0
 22 32  2  0  0  0
 26 27  1  0  0  0
 28106  1  0  0  0
 28107  1  0  0  0
 29108  1  0  0  0
 29109  1  0  0  0
 33 34  1  0  0  0
 33 66  1  0  0  0
 33 70  2  0  0  0
 34 36  1  0  0  0
 34 59  1  0  0  0
 34110  1  0  0  0
 35 44  2  0  0  0
 35 45  1  0  0  0
 35 68  1  0  0  0
 36 56  1  0  0  0
 36111  1  0  0  0
 37 39  1  0  0  0
 37 47  1  0  0  0
 37 66  1  0  0  0
 37112  1  0  0  0
 38 43  2  0  0  0
 38 46  1  0  0  0
 38 47  1  0  0  0
 39 64  1  0  0  0
 39 67  2  0  0  0
 40 52  1  0  0  0
 40 53  2  0  0  0
 40 58  1  0  0  0
 41113  1  0  0  0
 41114  1  0  0  0
 41115  1  0  0  0
 41 48  1  0  0  0
 42 43  1  0  0  0
 42 66  1  0  0  0
 42116  1  0  0  0
 42117  1  0  0  0
 43 44  1  0  0  0
 44118  1  0  0  0
 45 46  2  0  0  0
 45119  1  0  0  0
 46120  1  0  0  0
 47121  1  0  0  0
 47122  1  0  0  0
 48 56  1  0  0  0
 48 65  1  0  0  0
 48123  1  0  0  0
 49 50  1  0  0  0
 49 53  1  0  0  0
 49 64  1  0  0  0
 49124  1  0  0  0
 50 51  1  0  0  0
 50125  1  0  0  0
 50126  1  0  0  0
 51 52  1  0  0  0
 51127  1  0  0  0
 51128  1  0  0  0
 52129  1  0  0  0
 52130  1  0  0  0
 53 54  1  0  0  0
 54 55  2  0  0  0
 54131  1  0  0  0
 55 57  1  0  0  0
 55132  1  0  0  0
 56 69  2  0  0  0
 57 58  2  0  0  0
 57133  1  0  0  0
 58134  1  0  0  0
 59 60  1  0  0  0
 59 61  1  0  0  0
 59 62  1  0  0  0
 60135  1  0  0  0
 60136  1  0  0  0
 60137  1  0  0  0
 61138  1  0  0  0
 61139  1  0  0  0
 61140  1  0  0  0
 62141  1  0  0  0
 62142  1  0  0  0
 62143  1  0  0  0
 63 65  1  0  0  0
 63144  1  0  0  0
 63145  1  0  0  0
 63146  1  0  0  0
 64147  1  0  0  0
 65148  1  0  0  0
 68 86  1  0  0  0
 71 74  2  0  0  0
 71 75  1  0  0  0
 71149  1  0  0  0
 72 74  1  0  0  0
 72 76  2  0  0  0
 72150  1  0  0  0
 73 75  2  0  0  0
 73 76  1  0  0  0
 73 81  1  0  0  0
 74 87  1  0  0  0
 75 83  1  0  0  0
 76 84  1  0  0  0
 77 78  1  0  0  0
 77 81  1  0  0  0
 77151  1  0  0  0
 77152  1  0  0  0
 78 81  1  0  0  0
 78153  1  0  0  0
 78154  1  0  0  0
 79 80  1  0  0  0
 79155  1  0  0  0
 79156  1  0  0  0
 79 82  1  0  0  0
 80 82  1  0  0  0
 80157  1  0  0  0
 80158  1  0  0  0
 81159  1  0  0  0
 82 87  1  0  0  0
 82160  1  0  0  0
 83161  1  0  0  0
 83162  1  0  0  0
 83163  1  0  0  0
 84 88  1  0  0  0
 84164  1  0  0  0
 84165  1  0  0  0
 85 86  1  0  0  0
 85 89  1  0  0  0
 85166  1  0  0  0
 85167  1  0  0  0
 86168  1  0  0  0
 86169  1  0  0  0
 87 89  1  0  0  0
 87170  1  0  0  0
 88171  1  0  0  0
 89172  1  0  0  0
 89173  1  0  0  0
M  CHG  1  89   1
M  ISO  4   1 100  68 101  86 101  88 100
M  END
> <chiral flag>
0

> <version>
0

> <s_m_source_file>
/data/baiqing/PycharmProjects/Reinvent-master-3.2/result/LINK_invent/BTK/process_docking_weight1_custom_sum_contain_oxygen_bond_distance_aromatic_linkinvent_7_9_3/rearranged_h_0167.sdf

> <i_m_source_file_index>
81

> <r_mmod_Potential_Energy-OPLS-2005>
131.924652099609

> <r_mmod_Stretch_Energy-OPLS-2005>
77.4419860839844

> <r_mmod_Bend_Energy-OPLS-2005>
204.897109985352

> <r_mmod_Torsional_Energy-OPLS-2005>
425.065093994141

> <r_mmod_Improper_Torsional_Energy-OPLS-2005>
28.4830341339111

> <r_mmod_Van_der_Waal_Energy-OPLS-2005>
133.032760620117

> <r_mmod_Electrostatic_Energy-OPLS-2005>
-328.948364257812

> <r_mmod_Solvation_Energy-OPLS-2005>
-459.521789550781

> <b_mmod_Minimization_Converged-OPLS-2005>
0

> <r_mmod_RMS_Derivative-OPLS-2005>
19.0799503326416

$$$$
81
                    3D
 Structure written by MMmdl.
164174  0  0  1  0            999 V2000
  -30.6318  -14.8802   20.4347 C   0  0  0  0  0  0
  -30.4185  -12.5531   19.4855 C   0  0  0  0  0  0
  -29.5065  -12.5209   18.2423 C   0  0  0  0  0  0
  -28.0387  -12.3126   18.6602 C   0  0  0  0  0  0
  -27.6229  -13.2387   19.8326 C   0  0  2  0  0  0
  -28.6737  -13.2677   20.9666 C   0  0  0  0  0  0
  -25.2403  -13.8186   20.5663 C   0  0  0  0  0  0
  -24.1745  -13.0419   20.9236 C   0  0  0  0  0  0
  -24.6363  -11.6905   20.8778 C   0  0  0  0  0  0
  -23.9061  -10.4280   21.0420 C   0  0  0  0  0  0
  -24.3613   -9.4194   21.9195 C   0  0  0  0  0  0
  -23.6287   -8.2230   22.0752 C   0  0  0  0  0  0
  -22.4269   -8.0269   21.3533 C   0  0  0  0  0  0
  -21.9895   -9.0249   20.4646 C   0  0  0  0  0  0
  -22.7230  -10.2134   20.3069 C   0  0  0  0  0  0
  -21.6849   -6.0734   22.5281 C   0  0  0  0  0  0
  -21.4006   -6.5638   23.8213 C   0  0  0  0  0  0
  -21.3655   -5.6791   24.9174 C   0  0  0  0  0  0
  -21.6048   -4.3055   24.7221 C   0  0  0  0  0  0
  -21.8821   -3.8146   23.4341 C   0  0  0  0  0  0
  -21.9185   -4.6963   22.3398 C   0  0  0  0  0  0
  -22.7770  -13.5194   21.1895 C   0  0  0  0  0  0
  -22.1658   -4.2145   21.0974 F   0  0  0  0  0  0
  -21.5623   -3.4541   25.7735 F   0  0  0  0  0  0
  -29.9439  -13.6711   20.3521 N   0  0  0  0  0  0
  -26.2838  -12.9420   20.3241 N   0  0  0  0  0  0
  -25.9290  -11.6558   20.5771 N   0  0  0  0  0  0
  -22.0424  -12.8193   22.0464 N   0  0  0  0  0  0
  -25.3962  -15.1915   20.4001 N   0  0  0  0  0  0
  -31.8436  -14.8226   20.1985 O   0  0  0  0  0  0
  -21.6622   -6.8876   21.4241 O   0  0  0  0  0  0
  -22.3448  -14.5494   20.6745 O   0  0  0  0  0  0
  -24.6383  -31.8474   23.1868 C   0  0  0  0  0  0
  -25.9171  -32.4715   23.8261 C   0  0  1  0  0  0
  -27.2120  -27.1742   20.1366 C   0  0  0  0  0  0
  -25.5923  -33.8519   24.2185 N   0  0  0  0  0  0
  -23.4411  -30.4629   21.5324 C   0  0  2  0  0  0
  -24.8851  -28.8926   20.1036 C   0  0  0  0  0  0
  -22.7531  -29.4550   22.4859 C   0  0  0  0  0  0
  -18.0283  -28.1392   22.8470 C   0  0  0  0  0  0
  -24.1493  -36.7264   23.2637 C   0  0  0  0  0  0
  -25.9890  -30.7305   21.3762 C   0  0  0  0  0  0
  -26.0576  -29.3430   20.7220 C   0  0  0  0  0  0
  -27.2194  -28.4952   20.7272 C   0  0  0  0  0  0
  -26.0165  -26.8084   19.4851 C   0  0  0  0  0  0
  -24.8741  -27.6386   19.4726 C   0  0  0  0  0  0
  -23.6607  -29.7898   20.1513 C   0  0  0  0  0  0
  -25.4124  -36.3052   24.0318 C   0  0  1  0  0  0
  -20.5887  -28.3728   23.1230 C   0  0  2  0  0  0
  -20.6779  -26.9431   22.5403 C   0  0  0  0  0  0
  -19.5749  -26.6351   21.5227 C   0  0  0  0  0  0
  -18.1928  -26.7922   22.1635 C   0  0  0  0  0  0
  -19.1534  -28.8883   23.2843 C   0  0  0  0  0  0
  -18.9444  -30.1474   23.8882 C   0  0  0  0  0  0
  -17.6436  -30.6596   24.0539 C   0  0  0  0  0  0
  -25.9067  -34.9423   23.5072 C   0  0  0  0  0  0
  -16.5335  -29.9077   23.6318 C   0  0  0  0  0  0
  -16.7270  -28.6493   23.0349 C   0  0  0  0  0  0
  -26.4512  -31.6567   25.0684 C   0  0  0  0  0  0
  -25.3696  -31.3742   26.1371 C   0  0  0  0  0  0
  -27.0355  -30.2981   24.6196 C   0  0  0  0  0  0
  -27.6070  -32.4307   25.7448 C   0  0  0  0  0  0
  -27.5584  -37.1790   24.8466 C   0  0  0  0  0  0
  -21.4228  -29.3062   22.3614 N   0  0  0  0  0  0
  -26.4299  -37.3756   23.9399 N   0  0  0  0  0  0
  -24.7094  -31.0343   22.0889 N   0  0  0  0  0  0
  -23.4169  -28.8110   23.3024 O   0  0  0  0  0  0
  -28.2965  -26.2494   20.2426 O   0  0  0  0  0  0
  -26.5663  -34.8926   22.4655 O   0  0  0  0  0  0
  -23.5504  -32.1330   23.7112 O   0  0  0  0  0  0
  -28.7068  -22.0774   20.2236 C   0  0  0  0  0  0
  -28.3484  -20.8114   20.9566 C   0  0  0  0  0  0
  -27.1544  -23.4094   21.4292 C   0  0  0  0  0  0
  -26.7743  -22.2339   22.1369 C   0  0  0  0  0  0
  -28.1258  -23.4470   20.4374 C   0  0  0  0  0  0
  -27.3221  -20.9606   21.9594 C   0  0  0  0  0  0
  -26.1519  -24.2790   22.1475 C   0  0  0  0  0  0
  -25.7341  -22.9598   22.9546 C   0  0  0  0  0  0
  -28.1191  -18.0344   20.5647 C   0  0  0  0  0  0
  -30.2704  -18.9035   20.0551 C   0  0  0  0  0  0
  -28.6934  -16.6028   20.9927 C   0  0  0  0  0  0
  -30.8866  -17.4305   20.3310 C   0  0  0  0  0  0
  -29.0124  -19.2976   20.8822 C   0  0  0  0  0  0
  -26.7877  -19.8520   22.8550 C   0  0  0  0  0  0
  -28.3805  -24.8377   19.6386 C   0  0  0  0  0  0
  -30.0271  -16.1797   20.4730 N   0  0  0  0  0  0
  -31.4566  -12.6721   19.1706 H   0  0  0  0  0  0
  -30.3795  -11.6033   20.0221 H   0  0  0  0  0  0
  -29.8209  -11.7348   17.5558 H   0  0  0  0  0  0
  -29.6050  -13.4599   17.6956 H   0  0  0  0  0  0
  -27.9191  -11.2690   18.9516 H   0  0  0  0  0  0
  -27.3794  -12.4655   17.8063 H   0  0  0  0  0  0
  -27.5776  -14.2281   19.3819 H   0  0  0  0  0  0
  -28.7593  -12.2889   21.4412 H   0  0  0  0  0  0
  -28.3887  -13.9583   21.7605 H   0  0  0  0  0  0
  -25.2765   -9.5663   22.4771 H   0  0  0  0  0  0
  -23.9995   -7.4610   22.7469 H   0  0  0  0  0  0
  -21.0823   -8.8777   19.8950 H   0  0  0  0  0  0
  -22.3691  -10.9672   19.6183 H   0  0  0  0  0  0
  -21.2000   -7.6148   23.9710 H   0  0  0  0  0  0
  -21.1475   -6.0523   25.9074 H   0  0  0  0  0  0
  -22.0601   -2.7604   23.2844 H   0  0  0  0  0  0
  -22.4044  -11.9853   22.4852 H   0  0  0  0  0  0
  -21.1039  -13.1215   22.2671 H   0  0  0  0  0  0
  -24.6186  -15.8338   20.5079 H   0  0  0  0  0  0
  -26.2302  -15.6367   20.0432 H   0  0  0  0  0  0
  -26.7228  -32.5340   23.0982 H   0  0  0  0  0  0
  -25.0041  -33.9633   25.0313 H   0  0  0  0  0  0
  -22.7432  -31.2892   21.3803 H   0  0  0  0  0  0
  -23.3766  -35.9586   23.3294 H   0  0  0  0  0  0
  -24.3576  -36.8890   22.2052 H   0  0  0  0  0  0
  -23.7242  -37.6458   23.6672 H   0  0  0  0  0  0
  -26.1283  -31.4815   20.5965 H   0  0  0  0  0  0
  -26.8667  -30.7896   22.0085 H   0  0  0  0  0  0
  -28.1161  -28.8302   21.2294 H   0  0  0  0  0  0
  -25.9247  -25.8416   19.0146 H   0  0  0  0  0  0
  -23.9762  -27.2871   18.9824 H   0  0  0  0  0  0
  -22.7768  -29.2236   19.8505 H   0  0  0  0  0  0
  -23.7909  -30.5621   19.3916 H   0  0  0  0  0  0
  -25.1312  -36.1890   25.0812 H   0  0  0  0  0  0
  -20.9946  -28.3327   24.1359 H   0  0  0  0  0  0
  -20.5663  -26.2352   23.3622 H   0  0  0  0  0  0
  -21.6647  -26.7436   22.1196 H   0  0  0  0  0  0
  -19.6910  -25.6236   21.1332 H   0  0  0  0  0  0
  -19.6693  -27.3113   20.6714 H   0  0  0  0  0  0
  -17.4189  -26.6621   21.4059 H   0  0  0  0  0  0
  -18.0350  -26.0097   22.9068 H   0  0  0  0  0  0
  -19.7916  -30.7295   24.2262 H   0  0  0  0  0  0
  -17.4987  -31.6281   24.5144 H   0  0  0  0  0  0
  -15.5335  -30.2967   23.7660 H   0  0  0  0  0  0
  -15.8679  -28.0806   22.7060 H   0  0  0  0  0  0
  -24.5909  -30.7061   25.7666 H   0  0  0  0  0  0
  -24.8845  -32.2915   26.4717 H   0  0  0  0  0  0
  -25.7958  -30.8965   27.0196 H   0  0  0  0  0  0
  -26.2960  -29.6751   24.1149 H   0  0  0  0  0  0
  -27.3957  -29.7235   25.4733 H   0  0  0  0  0  0
  -27.8868  -30.4248   23.9509 H   0  0  0  0  0  0
  -27.2709  -33.3634   26.1982 H   0  0  0  0  0  0
  -28.3892  -32.6801   25.0271 H   0  0  0  0  0  0
  -28.0723  -31.8453   26.5381 H   0  0  0  0  0  0
  -28.2593  -38.0095   24.7509 H   0  0  0  0  0  0
  -28.1089  -36.2617   24.6301 H   0  0  0  0  0  0
  -27.2298  -37.1453   25.8872 H   0  0  0  0  0  0
  -20.9441  -29.8752   21.6770 H   0  0  0  0  0  0
  -26.0173  -38.2829   24.1392 H   0  0  0  0  0  0
  -29.4671  -21.9954   19.4593 H   0  0  0  0  0  0
  -25.3764  -24.6659   21.4849 H   0  0  0  0  0  0
  -26.6233  -25.0563   22.7499 H   0  0  0  0  0  0
  -25.9802  -22.9825   24.0170 H   0  0  0  0  0  0
  -24.7209  -22.6034   22.7621 H   0  0  0  0  0  0
  -27.1419  -18.1222   21.0250 H   0  0  0  0  0  0
  -27.8909  -18.0162   19.4987 H   0  0  0  0  0  0
  -30.0424  -19.0088   18.9933 H   0  0  0  0  0  0
  -31.0541  -19.6360   20.2538 H   0  0  0  0  0  0
  -27.9553  -15.8711   20.6970 H   0  0  0  0  0  0
  -28.7431  -16.5465   22.0817 H   0  0  0  0  0  0
  -31.4639  -17.4907   21.2546 H   0  0  0  0  0  0
  -31.6270  -17.2551   19.5490 H   0  0  0  0  0  0
  -29.3549  -19.1694   21.9082 H   0  0  0  0  0  0
  -27.5345  -19.1062   23.1229 H   0  0  0  0  0  0
  -25.9451  -19.3626   22.3675 H   0  0  0  0  0  0
  -26.4109  -20.2595   23.7923 H   0  0  0  0  0  0
  -27.8039  -24.7993   18.7148 H   0  0  0  0  0  0
  -29.4134  -24.7569   19.2976 H   0  0  0  0  0  0
  1 25  1  0  0  0
  1 30  2  0  0  0
  1 86  1  0  0  0
  2  3  1  0  0  0
  2 25  1  0  0  0
  2 87  1  0  0  0
  2 88  1  0  0  0
  3  4  1  0  0  0
  3 89  1  0  0  0
  3 90  1  0  0  0
  4  5  1  0  0  0
  4 91  1  0  0  0
  4 92  1  0  0  0
  5  6  1  0  0  0
  5 26  1  0  0  0
  5 93  1  0  0  0
  6 25  1  0  0  0
  6 94  1  0  0  0
  6 95  1  0  0  0
  7  8  2  0  0  0
  7 26  1  0  0  0
  7 29  1  0  0  0
  8  9  1  0  0  0
  8 22  1  0  0  0
  9 10  1  0  0  0
  9 27  2  0  0  0
 10 11  2  0  0  0
 10 15  1  0  0  0
 11 12  1  0  0  0
 11 96  1  0  0  0
 12 13  2  0  0  0
 12 97  1  0  0  0
 13 14  1  0  0  0
 13 31  1  0  0  0
 14 15  2  0  0  0
 14 98  1  0  0  0
 15 99  1  0  0  0
 16 17  2  0  0  0
 16 21  1  0  0  0
 16 31  1  0  0  0
 17 18  1  0  0  0
 17100  1  0  0  0
 18 19  2  0  0  0
 18101  1  0  0  0
 19 20  1  0  0  0
 19 24  1  0  0  0
 20 21  2  0  0  0
 20102  1  0  0  0
 21 23  1  0  0  0
 22 28  1  0  0  0
 22 32  2  0  0  0
 26 27  1  0  0  0
 28103  1  0  0  0
 28104  1  0  0  0
 29105  1  0  0  0
 29106  1  0  0  0
 33 34  1  0  0  0
 33 66  1  0  0  0
 33 70  2  0  0  0
 34 36  1  0  0  0
 34 59  1  0  0  0
 34107  1  0  0  0
 35 44  2  0  0  0
 35 45  1  0  0  0
 35 68  1  0  0  0
 36 56  1  0  0  0
 36108  1  0  0  0
 37 39  1  0  0  0
 37 47  1  0  0  0
 37 66  1  0  0  0
 37109  1  0  0  0
 38 43  2  0  0  0
 38 46  1  0  0  0
 38 47  1  0  0  0
 39 64  1  0  0  0
 39 67  2  0  0  0
 40 52  1  0  0  0
 40 53  2  0  0  0
 40 58  1  0  0  0
 41110  1  0  0  0
 41111  1  0  0  0
 41112  1  0  0  0
 41 48  1  0  0  0
 42 43  1  0  0  0
 42 66  1  0  0  0
 42113  1  0  0  0
 42114  1  0  0  0
 43 44  1  0  0  0
 44115  1  0  0  0
 45 46  2  0  0  0
 45116  1  0  0  0
 46117  1  0  0  0
 47118  1  0  0  0
 47119  1  0  0  0
 48 56  1  0  0  0
 48 65  1  0  0  0
 48120  1  0  0  0
 49 50  1  0  0  0
 49 53  1  0  0  0
 49 64  1  0  0  0
 49121  1  0  0  0
 50 51  1  0  0  0
 50122  1  0  0  0
 50123  1  0  0  0
 51 52  1  0  0  0
 51124  1  0  0  0
 51125  1  0  0  0
 52126  1  0  0  0
 52127  1  0  0  0
 53 54  1  0  0  0
 54 55  2  0  0  0
 54128  1  0  0  0
 55 57  1  0  0  0
 55129  1  0  0  0
 56 69  2  0  0  0
 57 58  2  0  0  0
 57130  1  0  0  0
 58131  1  0  0  0
 59 60  1  0  0  0
 59 61  1  0  0  0
 59 62  1  0  0  0
 60132  1  0  0  0
 60133  1  0  0  0
 60134  1  0  0  0
 61135  1  0  0  0
 61136  1  0  0  0
 61137  1  0  0  0
 62138  1  0  0  0
 62139  1  0  0  0
 62140  1  0  0  0
 63 65  1  0  0  0
 63141  1  0  0  0
 63142  1  0  0  0
 63143  1  0  0  0
 64144  1  0  0  0
 65145  1  0  0  0
 68 85  1  0  0  0
 71 72  2  0  0  0
 71 75  1  0  0  0
 71146  1  0  0  0
 72 76  1  0  0  0
 72 83  1  0  0  0
 73 74  1  0  0  0
 73 75  2  0  0  0
 73 77  1  0  0  0
 74 76  2  0  0  0
 74 78  1  0  0  0
 75 85  1  0  0  0
 76 84  1  0  0  0
 77 78  1  0  0  0
 77147  1  0  0  0
 77148  1  0  0  0
 78149  1  0  0  0
 78150  1  0  0  0
 79 81  1  0  0  0
 79 83  1  0  0  0
 79151  1  0  0  0
 79152  1  0  0  0
 80 82  1  0  0  0
 80 83  1  0  0  0
 80153  1  0  0  0
 80154  1  0  0  0
 81 86  1  0  0  0
 81155  1  0  0  0
 81156  1  0  0  0
 82 86  1  0  0  0
 82157  1  0  0  0
 82158  1  0  0  0
 83159  1  0  0  0
 84160  1  0  0  0
 84161  1  0  0  0
 84162  1  0  0  0
 85163  1  0  0  0
 85164  1  0  0  0
M  ISO  4   1 100  68 101  85 101  86 100
M  END
> <chiral flag>
0

> <version>
0

> <s_m_source_file>
/data/baiqing/PycharmProjects/Reinvent-master-3.2/result/LINK_invent/BTK/process_docking_weight1_custom_sum_contain_oxygen_bond_distance_aromatic_linkinvent_7_9_3/rearranged_h_0167.sdf

> <i_m_source_file_index>
82

> <r_mmod_Potential_Energy-OPLS-2005>
993.541687011719

> <r_mmod_Stretch_Energy-OPLS-2005>
232.085021972656

> <r_mmod_Bend_Energy-OPLS-2005>
650.033447265625

> <r_mmod_Torsional_Energy-OPLS-2005>
311.1953125

> <r_mmod_Improper_Torsional_Energy-OPLS-2005>
8.64905548095703

> <r_mmod_Van_der_Waal_Energy-OPLS-2005>
137.626449584961

> <r_mmod_Electrostatic_Energy-OPLS-2005>
-298.256683349609

> <r_mmod_Solvation_Energy-OPLS-2005>
-199.674072265625

> <b_mmod_Minimization_Converged-OPLS-2005>
0

> <r_mmod_RMS_Derivative-OPLS-2005>
2.65493035316467

$$$$
82
                    3D
 Structure written by MMmdl.
169179  0  0  1  0            999 V2000
  -30.7536  -14.5513   20.5148 C   0  0  0  0  0  0
  -30.4016  -12.3610   19.4280 C   0  0  0  0  0  0
  -29.4770  -12.4929   18.2032 C   0  0  0  0  0  0
  -28.0035  -12.3391   18.6255 C   0  0  0  0  0  0
  -27.6451  -13.2027   19.8653 C   0  0  2  0  0  0
  -28.7064  -13.0472   20.9834 C   0  0  0  0  0  0
  -25.2531  -13.8137   20.5715 C   0  0  0  0  0  0
  -24.1793  -13.0412   20.9218 C   0  0  0  0  0  0
  -24.6357  -11.6886   20.8791 C   0  0  0  0  0  0
  -23.9033  -10.4281   21.0436 C   0  0  0  0  0  0
  -24.3593   -9.4193   21.9196 C   0  0  0  0  0  0
  -23.6279   -8.2228   22.0755 C   0  0  0  0  0  0
  -22.4264   -8.0275   21.3544 C   0  0  0  0  0  0
  -21.9897   -9.0246   20.4647 C   0  0  0  0  0  0
  -22.7217  -10.2129   20.3068 C   0  0  0  0  0  0
  -21.6852   -6.0742   22.5282 C   0  0  0  0  0  0
  -21.4011   -6.5642   23.8213 C   0  0  0  0  0  0
  -21.3662   -5.6791   24.9176 C   0  0  0  0  0  0
  -21.6046   -4.3051   24.7230 C   0  0  0  0  0  0
  -21.8817   -3.8152   23.4349 C   0  0  0  0  0  0
  -21.9189   -4.6969   22.3406 C   0  0  0  0  0  0
  -22.7818  -13.5218   21.1861 C   0  0  0  0  0  0
  -22.1652   -4.2155   21.0977 F   0  0  0  0  0  0
  -21.5636   -3.4535   25.7739 F   0  0  0  0  0  0
  -29.9978  -13.4119   20.3899 N   0  0  0  0  0  0
  -26.2953  -12.9293   20.3412 N   0  0  0  0  0  0
  -25.9286  -11.6466   20.5860 N   0  0  0  0  0  0
  -22.0450  -12.8226   22.0420 N   0  0  0  0  0  0
  -25.4212  -15.1855   20.4060 N   0  0  0  0  0  0
  -31.9493  -14.4823   20.2203 O   0  0  0  0  0  0
  -21.6632   -6.8879   21.4241 O   0  0  0  0  0  0
  -22.3514  -14.5525   20.6697 O   0  0  0  0  0  0
  -24.6144  -31.8667   23.2115 C   0  0  0  0  0  0
  -25.9037  -32.4814   23.8400 C   0  0  1  0  0  0
  -27.2395  -27.4256   20.1157 C   0  0  0  0  0  0
  -25.5901  -33.8614   24.2332 N   0  0  0  0  0  0
  -23.4034  -30.4903   21.5491 C   0  0  2  0  0  0
  -24.8542  -28.9552   20.1163 C   0  0  0  0  0  0
  -22.7410  -29.4660   22.4982 C   0  0  0  0  0  0
  -18.0273  -28.1381   22.8491 C   0  0  0  0  0  0
  -24.1488  -36.7315   23.2644 C   0  0  0  0  0  0
  -25.9313  -30.8319   21.3671 C   0  0  0  0  0  0
  -26.0100  -29.4627   20.7218 C   0  0  0  0  0  0
  -27.2043  -28.7048   20.7266 C   0  0  0  0  0  0
  -26.0756  -26.9513   19.4771 C   0  0  0  0  0  0
  -24.8813  -27.6960   19.4919 C   0  0  0  0  0  0
  -23.6150  -29.8211   20.1640 C   0  0  0  0  0  0
  -25.4111  -36.3113   24.0338 C   0  0  1  0  0  0
  -20.5865  -28.3661   23.1315 C   0  0  2  0  0  0
  -20.6761  -26.9388   22.5429 C   0  0  0  0  0  0
  -19.5744  -26.6380   21.5220 C   0  0  0  0  0  0
  -18.1918  -26.7928   22.1618 C   0  0  0  0  0  0
  -19.1525  -28.8834   23.2905 C   0  0  0  0  0  0
  -18.9458  -30.1443   23.8905 C   0  0  0  0  0  0
  -17.6464  -30.6585   24.0569 C   0  0  0  0  0  0
  -25.9034  -34.9471   23.5137 C   0  0  0  0  0  0
  -16.5354  -29.9088   23.6330 C   0  0  0  0  0  0
  -16.7267  -28.6510   23.0346 C   0  0  0  0  0  0
  -26.4476  -31.6596   25.0719 C   0  0  0  0  0  0
  -25.3751  -31.3724   26.1477 C   0  0  0  0  0  0
  -27.0309  -30.3035   24.6109 C   0  0  0  0  0  0
  -27.6053  -32.4317   25.7467 C   0  0  0  0  0  0
  -27.5587  -37.1808   24.8461 C   0  0  0  0  0  0
  -21.4137  -29.3025   22.3718 N   0  0  0  0  0  0
  -26.4300  -37.3795   23.9402 N   0  0  0  0  0  0
  -24.6672  -31.0781   22.1005 N   0  0  0  0  0  0
  -23.4176  -28.8212   23.3039 O   0  0  0  0  0  0
  -28.3591  -26.6174   20.0891 O   0  0  0  0  0  0
  -26.5600  -34.8927   22.4701 O   0  0  0  0  0  0
  -23.5342  -32.1421   23.7515 O   0  0  0  0  0  0
  -27.5009  -23.5771   20.5594 C   0  0  0  0  0  0
  -29.2213  -22.4213   21.8121 C   0  0  0  0  0  0
  -27.6417  -21.1322   20.4925 C   0  0  0  0  0  0
  -28.6101  -23.6471   21.4248 C   0  0  0  0  0  0
  -27.0243  -22.3353   20.0862 C   0  0  0  0  0  0
  -28.7397  -21.1596   21.3778 C   0  0  0  0  0  0
  -28.5931  -17.5883   21.6062 C   0  0  0  0  0  0
  -30.8923  -18.2500   21.0972 C   0  0  0  0  0  0
  -30.2749  -25.6222   21.2251 C   0  0  0  0  0  0
  -28.7973  -16.2562   20.8207 C   0  0  0  0  0  0
  -31.0590  -16.9782   20.2476 C   0  0  0  0  0  0
  -29.4516  -18.7528   21.0762 C   0  0  0  0  0  0
  -28.9878  -26.3912   21.3564 C   0  0  2  0  0  0
  -29.1247  -24.9791   21.9757 C   0  0  1  0  0  0
  -25.8320  -22.2903   19.1520 C   0  0  0  0  0  0
  -29.1175  -24.9494   23.4978 C   0  0  0  0  0  0
  -30.2095  -15.8196   20.6624 N   0  0  0  0  0  0
  -29.3368  -19.9812   21.8757 N   0  0  0  0  0  0
  -31.4416  -12.4344   19.1049 H   0  0  0  0  0  0
  -30.3106  -11.3703   19.8761 H   0  0  0  0  0  0
  -29.7302  -11.7422   17.4539 H   0  0  0  0  0  0
  -29.6266  -13.4647   17.7289 H   0  0  0  0  0  0
  -27.8312  -11.2846   18.8447 H   0  0  0  0  0  0
  -27.3451  -12.5852   17.7910 H   0  0  0  0  0  0
  -27.6554  -14.2282   19.5070 H   0  0  0  0  0  0
  -28.7328  -12.0094   21.3202 H   0  0  0  0  0  0
  -28.4869  -13.6080   21.8891 H   0  0  0  0  0  0
  -25.2737   -9.5676   22.4772 H   0  0  0  0  0  0
  -24.0003   -7.4617   22.7459 H   0  0  0  0  0  0
  -21.0840   -8.8749   19.8949 H   0  0  0  0  0  0
  -22.3666  -10.9667   19.6187 H   0  0  0  0  0  0
  -21.1990   -7.6145   23.9722 H   0  0  0  0  0  0
  -21.1490   -6.0520   25.9079 H   0  0  0  0  0  0
  -22.0595   -2.7618   23.2842 H   0  0  0  0  0  0
  -22.4059  -11.9896   22.4832 H   0  0  0  0  0  0
  -21.1074  -13.1276   22.2610 H   0  0  0  0  0  0
  -24.6515  -15.8363   20.5137 H   0  0  0  0  0  0
  -26.2733  -15.6282   20.0907 H   0  0  0  0  0  0
  -26.7107  -32.5542   23.1170 H   0  0  0  0  0  0
  -25.0049  -33.9779   25.0469 H   0  0  0  0  0  0
  -22.6917  -31.3066   21.4079 H   0  0  0  0  0  0
  -23.3747  -35.9652   23.3320 H   0  0  0  0  0  0
  -24.3587  -36.8920   22.2060 H   0  0  0  0  0  0
  -23.7238  -37.6523   23.6647 H   0  0  0  0  0  0
  -26.0448  -31.5963   20.5973 H   0  0  0  0  0  0
  -26.8186  -30.8884   21.9862 H   0  0  0  0  0  0
  -28.0915  -29.1098   21.1919 H   0  0  0  0  0  0
  -26.0874  -25.9932   18.9786 H   0  0  0  0  0  0
  -23.9947  -27.2980   19.0167 H   0  0  0  0  0  0
  -23.7243  -30.5945   19.4022 H   0  0  0  0  0  0
  -22.7400  -29.2406   19.8674 H   0  0  0  0  0  0
  -25.1295  -36.1986   25.0834 H   0  0  0  0  0  0
  -20.9968  -28.3224   24.1434 H   0  0  0  0  0  0
  -20.5638  -26.2272   23.3624 H   0  0  0  0  0  0
  -21.6633  -26.7410   22.1233 H   0  0  0  0  0  0
  -19.6900  -25.6291   21.1245 H   0  0  0  0  0  0
  -19.6698  -27.3198   20.6754 H   0  0  0  0  0  0
  -17.4199  -26.6704   21.4008 H   0  0  0  0  0  0
  -18.0289  -26.0066   22.9001 H   0  0  0  0  0  0
  -19.7937  -30.7260   24.2279 H   0  0  0  0  0  0
  -17.5020  -31.6265   24.5169 H   0  0  0  0  0  0
  -15.5353  -30.2999   23.7648 H   0  0  0  0  0  0
  -15.8669  -28.0840   22.7045 H   0  0  0  0  0  0
  -24.5896  -30.7101   25.7826 H   0  0  0  0  0  0
  -24.8977  -32.2904   26.4913 H   0  0  0  0  0  0
  -25.8100  -30.8879   27.0230 H   0  0  0  0  0  0
  -26.2847  -29.6782   24.1202 H   0  0  0  0  0  0
  -27.4115  -29.7289   25.4561 H   0  0  0  0  0  0
  -27.8663  -30.4347   23.9233 H   0  0  0  0  0  0
  -27.2660  -33.3592   26.2091 H   0  0  0  0  0  0
  -28.3828  -32.6934   25.0278 H   0  0  0  0  0  0
  -28.0774  -31.8417   26.5337 H   0  0  0  0  0  0
  -28.2608  -38.0105   24.7503 H   0  0  0  0  0  0
  -28.1082  -36.2632   24.6285 H   0  0  0  0  0  0
  -27.2310  -37.1465   25.8870 H   0  0  0  0  0  0
  -20.9291  -29.8755   21.6947 H   0  0  0  0  0  0
  -26.0197  -38.2875   24.1411 H   0  0  0  0  0  0
  -27.0029  -24.4858   20.2670 H   0  0  0  0  0  0
  -30.0705  -22.4520   22.4791 H   0  0  0  0  0  0
  -27.2437  -20.1896   20.1435 H   0  0  0  0  0  0
  -28.8227  -17.4117   22.6587 H   0  0  0  0  0  0
  -27.5376  -17.8639   21.5714 H   0  0  0  0  0  0
  -31.5610  -19.0249   20.7175 H   0  0  0  0  0  0
  -31.2130  -18.0449   22.1201 H   0  0  0  0  0  0
  -31.1262  -25.9692   21.8065 H   0  0  0  0  0  0
  -30.5160  -25.2361   20.2362 H   0  0  0  0  0  0
  -28.3790  -16.3748   19.8208 H   0  0  0  0  0  0
  -28.1807  -15.5327   21.3330 H   0  0  0  0  0  0
  -32.1290  -16.7714   20.2714 H   0  0  0  0  0  0
  -30.8351  -17.2043   19.2039 H   0  0  0  0  0  0
  -29.1754  -18.9631   20.0413 H   0  0  0  0  0  0
  -29.0426  -27.2665   22.0007 H   0  0  0  0  0  0
  -25.3809  -23.2767   19.0302 H   0  0  0  0  0  0
  -25.0673  -21.6172   19.5418 H   0  0  0  0  0  0
  -26.1326  -21.9343   18.1661 H   0  0  0  0  0  0
  -29.7692  -24.1698   23.8880 H   0  0  0  0  0  0
  -28.1049  -24.7792   23.8653 H   0  0  0  0  0  0
  -29.4665  -25.8987   23.9041 H   0  0  0  0  0  0
  -30.0800  -20.1220   22.5546 H   0  0  0  0  0  0
  1 25  1  0  0  0
  1 30  2  0  0  0
  1 87  1  0  0  0
  2  3  1  0  0  0
  2 25  1  0  0  0
  2 89  1  0  0  0
  2 90  1  0  0  0
  3  4  1  0  0  0
  3 91  1  0  0  0
  3 92  1  0  0  0
  4  5  1  0  0  0
  4 93  1  0  0  0
  4 94  1  0  0  0
  5  6  1  0  0  0
  5 26  1  0  0  0
  5 95  1  0  0  0
  6 25  1  0  0  0
  6 96  1  0  0  0
  6 97  1  0  0  0
  7  8  2  0  0  0
  7 26  1  0  0  0
  7 29  1  0  0  0
  8  9  1  0  0  0
  8 22  1  0  0  0
  9 10  1  0  0  0
  9 27  2  0  0  0
 10 11  2  0  0  0
 10 15  1  0  0  0
 11 12  1  0  0  0
 11 98  1  0  0  0
 12 13  2  0  0  0
 12 99  1  0  0  0
 13 14  1  0  0  0
 13 31  1  0  0  0
 14 15  2  0  0  0
 14100  1  0  0  0
 15101  1  0  0  0
 16 17  2  0  0  0
 16 21  1  0  0  0
 16 31  1  0  0  0
 17 18  1  0  0  0
 17102  1  0  0  0
 18 19  2  0  0  0
 18103  1  0  0  0
 19 20  1  0  0  0
 19 24  1  0  0  0
 20 21  2  0  0  0
 20104  1  0  0  0
 21 23  1  0  0  0
 22 28  1  0  0  0
 22 32  2  0  0  0
 26 27  1  0  0  0
 28105  1  0  0  0
 28106  1  0  0  0
 29107  1  0  0  0
 29108  1  0  0  0
 33 34  1  0  0  0
 33 66  1  0  0  0
 33 70  2  0  0  0
 34 36  1  0  0  0
 34 59  1  0  0  0
 34109  1  0  0  0
 35 44  2  0  0  0
 35 45  1  0  0  0
 35 68  1  0  0  0
 36 56  1  0  0  0
 36110  1  0  0  0
 37 39  1  0  0  0
 37 47  1  0  0  0
 37 66  1  0  0  0
 37111  1  0  0  0
 38 43  2  0  0  0
 38 46  1  0  0  0
 38 47  1  0  0  0
 39 64  1  0  0  0
 39 67  2  0  0  0
 40 52  1  0  0  0
 40 53  2  0  0  0
 40 58  1  0  0  0
 41112  1  0  0  0
 41113  1  0  0  0
 41114  1  0  0  0
 41 48  1  0  0  0
 42 43  1  0  0  0
 42 66  1  0  0  0
 42115  1  0  0  0
 42116  1  0  0  0
 43 44  1  0  0  0
 44117  1  0  0  0
 45 46  2  0  0  0
 45118  1  0  0  0
 46119  1  0  0  0
 47120  1  0  0  0
 47121  1  0  0  0
 48 56  1  0  0  0
 48 65  1  0  0  0
 48122  1  0  0  0
 49 50  1  0  0  0
 49 53  1  0  0  0
 49 64  1  0  0  0
 49123  1  0  0  0
 50 51  1  0  0  0
 50124  1  0  0  0
 50125  1  0  0  0
 51 52  1  0  0  0
 51126  1  0  0  0
 51127  1  0  0  0
 52128  1  0  0  0
 52129  1  0  0  0
 53 54  1  0  0  0
 54 55  2  0  0  0
 54130  1  0  0  0
 55 57  1  0  0  0
 55131  1  0  0  0
 56 69  2  0  0  0
 57 58  2  0  0  0
 57132  1  0  0  0
 58133  1  0  0  0
 59 60  1  0  0  0
 59 61  1  0  0  0
 59 62  1  0  0  0
 60134  1  0  0  0
 60135  1  0  0  0
 60136  1  0  0  0
 61137  1  0  0  0
 61138  1  0  0  0
 61139  1  0  0  0
 62140  1  0  0  0
 62141  1  0  0  0
 62142  1  0  0  0
 63 65  1  0  0  0
 63143  1  0  0  0
 63144  1  0  0  0
 63145  1  0  0  0
 64146  1  0  0  0
 65147  1  0  0  0
 68 83  1  0  0  0
 71 74  2  0  0  0
 71 75  1  0  0  0
 71148  1  0  0  0
 72 74  1  0  0  0
 72 76  2  0  0  0
 72149  1  0  0  0
 73 75  2  0  0  0
 73 76  1  0  0  0
 73150  1  0  0  0
 74 84  1  0  0  0
 75 85  1  0  0  0
 76 88  1  0  0  0
 77 80  1  0  0  0
 77 82  1  0  0  0
 77151  1  0  0  0
 77152  1  0  0  0
 78 81  1  0  0  0
 78 82  1  0  0  0
 78153  1  0  0  0
 78154  1  0  0  0
 79 83  1  0  0  0
 79 84  1  0  0  0
 79155  1  0  0  0
 79156  1  0  0  0
 80 87  1  0  0  0
 80157  1  0  0  0
 80158  1  0  0  0
 81 87  1  0  0  0
 81159  1  0  0  0
 81160  1  0  0  0
 82 88  1  0  0  0
 82161  1  0  0  0
 83 84  1  0  0  0
 83162  1  0  0  0
 84 86  1  0  0  0
 85163  1  0  0  0
 85164  1  0  0  0
 85165  1  0  0  0
 86166  1  0  0  0
 86167  1  0  0  0
 86168  1  0  0  0
 88169  1  0  0  0
M  ISO  4   1 100  68 101  83 101  87 100
M  END
> <chiral flag>
0

> <version>
0

> <s_m_source_file>
/data/baiqing/PycharmProjects/Reinvent-master-3.2/result/LINK_invent/BTK/process_docking_weight1_custom_sum_contain_oxygen_bond_distance_aromatic_linkinvent_7_9_3/rearranged_h_0167.sdf

> <i_m_source_file_index>
83

> <r_mmod_Potential_Energy-OPLS-2005>
243.764282226562

> <r_mmod_Stretch_Energy-OPLS-2005>
52.3493957519531

> <r_mmod_Bend_Energy-OPLS-2005>
172.214157104492

> <r_mmod_Torsional_Energy-OPLS-2005>
338.473388671875

> <r_mmod_Improper_Torsional_Energy-OPLS-2005>
10.1370468139648

> <r_mmod_Van_der_Waal_Energy-OPLS-2005>
163.86882019043

> <r_mmod_Electrostatic_Energy-OPLS-2005>
-320.431549072266

> <r_mmod_Solvation_Energy-OPLS-2005>
-204.970520019531

> <b_mmod_Minimization_Converged-OPLS-2005>
0

> <r_mmod_RMS_Derivative-OPLS-2005>
1.52862286567688

$$$$
83
                    3D
 Structure written by MMmdl.
170180  0  0  1  0            999 V2000
  -30.6218  -14.6980   20.4468 C   0  0  0  0  0  0
  -30.4172  -12.4229   19.4613 C   0  0  0  0  0  0
  -29.4963  -12.4936   18.2237 C   0  0  0  0  0  0
  -28.0211  -12.3273   18.6397 C   0  0  0  0  0  0
  -27.6314  -13.2266   19.8404 C   0  0  2  0  0  0
  -28.6796  -13.1554   20.9705 C   0  0  0  0  0  0
  -25.2458  -13.8134   20.5611 C   0  0  0  0  0  0
  -24.1766  -13.0400   20.9195 C   0  0  0  0  0  0
  -24.6351  -11.6878   20.8748 C   0  0  0  0  0  0
  -23.9031  -10.4266   21.0368 C   0  0  0  0  0  0
  -24.3605   -9.4213   21.9150 C   0  0  0  0  0  0
  -23.6309   -8.2237   22.0735 C   0  0  0  0  0  0
  -22.4295   -8.0250   21.3533 C   0  0  0  0  0  0
  -21.9904   -9.0208   20.4641 C   0  0  0  0  0  0
  -22.7197  -10.2097   20.3039 C   0  0  0  0  0  0
  -21.6838   -6.0736   22.5279 C   0  0  0  0  0  0
  -21.4000   -6.5644   23.8210 C   0  0  0  0  0  0
  -21.3666   -5.6792   24.9169 C   0  0  0  0  0  0
  -21.6021   -4.3052   24.7210 C   0  0  0  0  0  0
  -21.8839   -3.8154   23.4333 C   0  0  0  0  0  0
  -21.9205   -4.6973   22.3395 C   0  0  0  0  0  0
  -22.7816  -13.5196   21.1843 C   0  0  0  0  0  0
  -22.1647   -4.2172   21.0965 F   0  0  0  0  0  0
  -21.5640   -3.4530   25.7716 F   0  0  0  0  0  0
  -29.9782  -13.4887   20.3847 N   0  0  0  0  0  0
  -26.2885  -12.9333   20.3255 N   0  0  0  0  0  0
  -25.9283  -11.6501   20.5804 N   0  0  0  0  0  0
  -22.0477  -12.8234   22.0445 N   0  0  0  0  0  0
  -25.4080  -15.1809   20.3852 N   0  0  0  0  0  0
  -31.8267  -14.7660   20.1899 O   0  0  0  0  0  0
  -21.6637   -6.8864   21.4238 O   0  0  0  0  0  0
  -22.3505  -14.5484   20.6638 O   0  0  0  0  0  0
  -24.6235  -31.8572   23.1964 C   0  0  0  0  0  0
  -25.9097  -32.4733   23.8335 C   0  0  1  0  0  0
  -27.2386  -27.3177   20.1121 C   0  0  0  0  0  0
  -25.5915  -33.8534   24.2216 N   0  0  0  0  0  0
  -23.4165  -30.4800   21.5395 C   0  0  2  0  0  0
  -24.8675  -28.9218   20.1130 C   0  0  0  0  0  0
  -22.7429  -29.4634   22.4930 C   0  0  0  0  0  0
  -18.0270  -28.1399   22.8486 C   0  0  0  0  0  0
  -24.1510  -36.7290   23.2632 C   0  0  0  0  0  0
  -25.9598  -30.7828   21.3758 C   0  0  0  0  0  0
  -26.0346  -29.4124   20.7121 C   0  0  0  0  0  0
  -27.2204  -28.6224   20.7011 C   0  0  0  0  0  0
  -26.0444  -26.8659   19.5142 C   0  0  0  0  0  0
  -24.8725  -27.6508   19.5102 C   0  0  0  0  0  0
  -23.6323  -29.7985   20.1594 C   0  0  0  0  0  0
  -25.4143  -36.3040   24.0292 C   0  0  1  0  0  0
  -20.5867  -28.3681   23.1274 C   0  0  2  0  0  0
  -20.6791  -26.9413   22.5384 C   0  0  0  0  0  0
  -19.5753  -26.6372   21.5211 C   0  0  0  0  0  0
  -18.1932  -26.7949   22.1611 C   0  0  0  0  0  0
  -19.1527  -28.8866   23.2875 C   0  0  0  0  0  0
  -18.9462  -30.1474   23.8873 C   0  0  0  0  0  0
  -17.6461  -30.6589   24.0584 C   0  0  0  0  0  0
  -25.9050  -34.9430   23.5051 C   0  0  0  0  0  0
  -16.5355  -29.9087   23.6361 C   0  0  0  0  0  0
  -16.7265  -28.6509   23.0375 C   0  0  0  0  0  0
  -26.4454  -31.6587   25.0751 C   0  0  0  0  0  0
  -25.3644  -31.3859   26.1454 C   0  0  0  0  0  0
  -27.0299  -30.2950   24.6355 C   0  0  0  0  0  0
  -27.5972  -32.4355   25.7561 C   0  0  0  0  0  0
  -27.5588  -37.1808   24.8429 C   0  0  0  0  0  0
  -21.4161  -29.3049   22.3673 N   0  0  0  0  0  0
  -26.4301  -37.3745   23.9360 N   0  0  0  0  0  0
  -24.6840  -31.0587   22.0923 N   0  0  0  0  0  0
  -23.4167  -28.8191   23.3010 O   0  0  0  0  0  0
  -28.3960  -26.5235   20.1538 O   0  0  0  0  0  0
  -26.5628  -34.8888   22.4617 O   0  0  0  0  0  0
  -23.5412  -32.1369   23.7296 O   0  0  0  0  0  0
  -29.9438  -20.3895   20.2833 C   0  0  0  0  0  0
  -28.8933  -19.4322   20.3538 C   0  0  0  0  0  0
  -27.5775  -19.9975   20.4233 C   0  0  0  0  0  0
  -29.7287  -21.8115   20.3042 C   0  0  0  0  0  0
  -27.3517  -21.4264   20.3683 C   0  0  0  0  0  0
  -28.4185  -22.3857   20.4123 C   0  0  0  0  0  0
  -25.2049  -19.2057   21.4372 C   0  0  0  0  0  0
  -26.2890  -18.2580   21.8540 C   0  0  0  0  0  0
  -30.2636  -17.0574   19.5565 C   0  0  0  0  0  0
  -29.3638  -16.7852   21.3608 C   0  0  0  0  0  0
  -29.1213  -17.8435   20.2416 C   0  0  0  0  0  0
  -26.4230  -19.0268   20.5542 C   0  0  0  0  0  0
  -30.9544  -22.6880   20.1084 C   0  0  0  0  0  0
  -25.9286  -21.9534   20.1844 C   0  0  0  0  0  0
  -28.6053  -24.2973   22.1457 C   0  0  0  0  0  0
  -28.4725  -25.1091   19.6977 C   0  0  0  0  0  0
  -28.1205  -23.9390   20.7278 C   0  0  1  0  0  0
  -29.8440  -15.8364   20.3149 N   0  0  0  0  0  0
  -31.4589  -12.5351   19.1615 H   0  0  0  0  0  0
  -30.3468  -11.4490   19.9476 H   0  0  0  0  0  0
  -29.7749  -11.7211   17.5044 H   0  0  0  0  0  0
  -29.6267  -13.4512   17.7169 H   0  0  0  0  0  0
  -27.8743  -11.2803   18.9037 H   0  0  0  0  0  0
  -27.3628  -12.5127   17.7912 H   0  0  0  0  0  0
  -27.6230  -14.2485   19.4580 H   0  0  0  0  0  0
  -28.7132  -12.1589   21.4105 H   0  0  0  0  0  0
  -28.4318  -13.8470   21.7783 H   0  0  0  0  0  0
  -25.2722   -9.5750   22.4745 H   0  0  0  0  0  0
  -24.0039   -7.4638   22.7458 H   0  0  0  0  0  0
  -21.0841   -8.8678   19.8952 H   0  0  0  0  0  0
  -22.3583  -10.9620   19.6180 H   0  0  0  0  0  0
  -21.1960   -7.6147   23.9709 H   0  0  0  0  0  0
  -21.1462   -6.0522   25.9075 H   0  0  0  0  0  0
  -22.0623   -2.7623   23.2811 H   0  0  0  0  0  0
  -22.4126  -11.9906   22.4804 H   0  0  0  0  0  0
  -21.1073  -13.1213   22.2595 H   0  0  0  0  0  0
  -24.6506  -15.8357   20.5467 H   0  0  0  0  0  0
  -26.2724  -15.6218   20.0987 H   0  0  0  0  0  0
  -26.7174  -32.5347   23.1107 H   0  0  0  0  0  0
  -25.0091  -33.9714   25.0374 H   0  0  0  0  0  0
  -22.7071  -31.2967   21.3894 H   0  0  0  0  0  0
  -23.3740  -35.9647   23.3254 H   0  0  0  0  0  0
  -24.3607  -36.8944   22.2045 H   0  0  0  0  0  0
  -23.7276  -37.6492   23.6686 H   0  0  0  0  0  0
  -26.1095  -31.5558   20.6223 H   0  0  0  0  0  0
  -26.8311  -30.8142   22.0209 H   0  0  0  0  0  0
  -28.1154  -29.0042   21.1712 H   0  0  0  0  0  0
  -25.9911  -25.8881   19.0619 H   0  0  0  0  0  0
  -23.9718  -27.2608   19.0563 H   0  0  0  0  0  0
  -23.7486  -30.5658   19.3929 H   0  0  0  0  0  0
  -22.7546  -29.2207   19.8586 H   0  0  0  0  0  0
  -25.1346  -36.1885   25.0785 H   0  0  0  0  0  0
  -20.9986  -28.3269   24.1388 H   0  0  0  0  0  0
  -20.5751  -26.2301   23.3575 H   0  0  0  0  0  0
  -21.6667  -26.7508   22.1157 H   0  0  0  0  0  0
  -19.6911  -25.6279   21.1245 H   0  0  0  0  0  0
  -19.6707  -27.3199   20.6743 H   0  0  0  0  0  0
  -17.4231  -26.6696   21.3986 H   0  0  0  0  0  0
  -18.0329  -26.0109   22.9014 H   0  0  0  0  0  0
  -19.7951  -30.7314   24.2221 H   0  0  0  0  0  0
  -17.5026  -31.6286   24.5188 H   0  0  0  0  0  0
  -15.5356  -30.2991   23.7739 H   0  0  0  0  0  0
  -15.8648  -28.0823   22.7121 H   0  0  0  0  0  0
  -24.5764  -30.7263   25.7799 H   0  0  0  0  0  0
  -24.8955  -32.3135   26.4764 H   0  0  0  0  0  0
  -25.7934  -30.9084   27.0271 H   0  0  0  0  0  0
  -26.2980  -29.6718   24.1219 H   0  0  0  0  0  0
  -27.3694  -29.7201   25.4985 H   0  0  0  0  0  0
  -27.8962  -30.4105   23.9832 H   0  0  0  0  0  0
  -27.2486  -33.3583   26.2205 H   0  0  0  0  0  0
  -28.3803  -32.7024   25.0457 H   0  0  0  0  0  0
  -28.0634  -31.8458   26.5458 H   0  0  0  0  0  0
  -28.2582  -38.0125   24.7505 H   0  0  0  0  0  0
  -28.1120  -36.2666   24.6256 H   0  0  0  0  0  0
  -27.2309  -37.1456   25.8828 H   0  0  0  0  0  0
  -20.9310  -29.8722   21.6852 H   0  0  0  0  0  0
  -26.0148  -38.2791   24.1389 H   0  0  0  0  0  0
  -30.9603  -20.0307   20.1994 H   0  0  0  0  0  0
  -25.0910  -20.1031   22.0390 H   0  0  0  0  0  0
  -24.2770  -18.7696   21.0664 H   0  0  0  0  0  0
  -26.0499  -17.2010   21.8264 H   0  0  0  0  0  0
  -26.9252  -18.5618   22.6833 H   0  0  0  0  0  0
  -31.2665  -17.4095   19.8076 H   0  0  0  0  0  0
  -30.1484  -16.9782   18.4748 H   0  0  0  0  0  0
  -28.4564  -16.4753   21.8774 H   0  0  0  0  0  0
  -30.1348  -17.0742   22.0798 H   0  0  0  0  0  0
  -28.2421  -17.5102   19.6855 H   0  0  0  0  0  0
  -26.2585  -18.4952   19.6174 H   0  0  0  0  0  0
  -31.8412  -22.2462   20.5635 H   0  0  0  0  0  0
  -30.8597  -23.6908   20.5124 H   0  0  0  0  0  0
  -31.1474  -22.7910   19.0398 H   0  0  0  0  0  0
  -25.2370  -21.2108   19.7932 H   0  0  0  0  0  0
  -25.9149  -22.7480   19.4361 H   0  0  0  0  0  0
  -25.5268  -22.3422   21.1200 H   0  0  0  0  0  0
  -28.3078  -23.5343   22.8663 H   0  0  0  0  0  0
  -28.1542  -25.2350   22.4743 H   0  0  0  0  0  0
  -29.6854  -24.4153   22.2202 H   0  0  0  0  0  0
  -27.9276  -24.9736   18.7657 H   0  0  0  0  0  0
  -29.5139  -24.9889   19.4045 H   0  0  0  0  0  0
  -27.0444  -24.0506   20.8302 H   0  0  0  0  0  0
  1 25  1  0  0  0
  1 30  2  0  0  0
  1 88  1  0  0  0
  2  3  1  0  0  0
  2 25  1  0  0  0
  2 89  1  0  0  0
  2 90  1  0  0  0
  3  4  1  0  0  0
  3 91  1  0  0  0
  3 92  1  0  0  0
  4  5  1  0  0  0
  4 93  1  0  0  0
  4 94  1  0  0  0
  5  6  1  0  0  0
  5 26  1  0  0  0
  5 95  1  0  0  0
  6 25  1  0  0  0
  6 96  1  0  0  0
  6 97  1  0  0  0
  7  8  2  0  0  0
  7 26  1  0  0  0
  7 29  1  0  0  0
  8  9  1  0  0  0
  8 22  1  0  0  0
  9 10  1  0  0  0
  9 27  2  0  0  0
 10 11  2  0  0  0
 10 15  1  0  0  0
 11 12  1  0  0  0
 11 98  1  0  0  0
 12 13  2  0  0  0
 12 99  1  0  0  0
 13 14  1  0  0  0
 13 31  1  0  0  0
 14 15  2  0  0  0
 14100  1  0  0  0
 15101  1  0  0  0
 16 17  2  0  0  0
 16 21  1  0  0  0
 16 31  1  0  0  0
 17 18  1  0  0  0
 17102  1  0  0  0
 18 19  2  0  0  0
 18103  1  0  0  0
 19 20  1  0  0  0
 19 24  1  0  0  0
 20 21  2  0  0  0
 20104  1  0  0  0
 21 23  1  0  0  0
 22 28  1  0  0  0
 22 32  2  0  0  0
 26 27  1  0  0  0
 28105  1  0  0  0
 28106  1  0  0  0
 29107  1  0  0  0
 29108  1  0  0  0
 33 34  1  0  0  0
 33 66  1  0  0  0
 33 70  2  0  0  0
 34 36  1  0  0  0
 34 59  1  0  0  0
 34109  1  0  0  0
 35 44  2  0  0  0
 35 45  1  0  0  0
 35 68  1  0  0  0
 36 56  1  0  0  0
 36110  1  0  0  0
 37 39  1  0  0  0
 37 47  1  0  0  0
 37 66  1  0  0  0
 37111  1  0  0  0
 38 43  2  0  0  0
 38 46  1  0  0  0
 38 47  1  0  0  0
 39 64  1  0  0  0
 39 67  2  0  0  0
 40 52  1  0  0  0
 40 53  2  0  0  0
 40 58  1  0  0  0
 41112  1  0  0  0
 41113  1  0  0  0
 41114  1  0  0  0
 41 48  1  0  0  0
 42 43  1  0  0  0
 42 66  1  0  0  0
 42115  1  0  0  0
 42116  1  0  0  0
 43 44  1  0  0  0
 44117  1  0  0  0
 45 46  2  0  0  0
 45118  1  0  0  0
 46119  1  0  0  0
 47120  1  0  0  0
 47121  1  0  0  0
 48 56  1  0  0  0
 48 65  1  0  0  0
 48122  1  0  0  0
 49 50  1  0  0  0
 49 53  1  0  0  0
 49 64  1  0  0  0
 49123  1  0  0  0
 50 51  1  0  0  0
 50124  1  0  0  0
 50125  1  0  0  0
 51 52  1  0  0  0
 51126  1  0  0  0
 51127  1  0  0  0
 52128  1  0  0  0
 52129  1  0  0  0
 53 54  1  0  0  0
 54 55  2  0  0  0
 54130  1  0  0  0
 55 57  1  0  0  0
 55131  1  0  0  0
 56 69  2  0  0  0
 57 58  2  0  0  0
 57132  1  0  0  0
 58133  1  0  0  0
 59 60  1  0  0  0
 59 61  1  0  0  0
 59 62  1  0  0  0
 60134  1  0  0  0
 60135  1  0  0  0
 60136  1  0  0  0
 61137  1  0  0  0
 61138  1  0  0  0
 61139  1  0  0  0
 62140  1  0  0  0
 62141  1  0  0  0
 62142  1  0  0  0
 63 65  1  0  0  0
 63143  1  0  0  0
 63144  1  0  0  0
 63145  1  0  0  0
 64146  1  0  0  0
 65147  1  0  0  0
 68 86  1  0  0  0
 71 72  2  0  0  0
 71 74  1  0  0  0
 71148  1  0  0  0
 72 73  1  0  0  0
 72 81  1  0  0  0
 73 75  2  0  0  0
 73 82  1  0  0  0
 74 76  2  0  0  0
 74 83  1  0  0  0
 75 76  1  0  0  0
 75 84  1  0  0  0
 76 87  1  0  0  0
 77 78  1  0  0  0
 77 82  1  0  0  0
 77149  1  0  0  0
 77150  1  0  0  0
 78 82  1  0  0  0
 78151  1  0  0  0
 78152  1  0  0  0
 79 81  1  0  0  0
 79 88  1  0  0  0
 79153  1  0  0  0
 79154  1  0  0  0
 80 81  1  0  0  0
 80 88  1  0  0  0
 80155  1  0  0  0
 80156  1  0  0  0
 81157  1  0  0  0
 82158  1  0  0  0
 83159  1  0  0  0
 83160  1  0  0  0
 83161  1  0  0  0
 84162  1  0  0  0
 84163  1  0  0  0
 84164  1  0  0  0
 85165  1  0  0  0
 85166  1  0  0  0
 85167  1  0  0  0
 85 87  1  0  0  0
 86 87  1  0  0  0
 86168  1  0  0  0
 86169  1  0  0  0
 87170  1  0  0  0
M  ISO  4   1 100  68 101  86 101  88 100
M  END
> <chiral flag>
0

> <version>
0

> <s_m_source_file>
/data/baiqing/PycharmProjects/Reinvent-master-3.2/result/LINK_invent/BTK/process_docking_weight1_custom_sum_contain_oxygen_bond_distance_aromatic_linkinvent_7_9_3/rearranged_h_0167.sdf

> <i_m_source_file_index>
84

> <r_mmod_Potential_Energy-OPLS-2005>
278.016021728516

> <r_mmod_Stretch_Energy-OPLS-2005>
106.525268554688

> <r_mmod_Bend_Energy-OPLS-2005>
191.578338623047

> <r_mmod_Torsional_Energy-OPLS-2005>
306.071014404297

> <r_mmod_Improper_Torsional_Energy-OPLS-2005>
22.484468460083

> <r_mmod_Van_der_Waal_Energy-OPLS-2005>
144.242462158203

> <r_mmod_Electrostatic_Energy-OPLS-2005>
-364.496948242188

> <r_mmod_Solvation_Energy-OPLS-2005>
-190.372085571289

> <b_mmod_Minimization_Converged-OPLS-2005>
0

> <r_mmod_RMS_Derivative-OPLS-2005>
5.19126796722412

$$$$
84
                    3D
 Structure written by MMmdl.
160169  0  0  1  0            999 V2000
  -30.6779  -14.6131   20.4812 C   0  0  0  0  0  0
  -30.4224  -12.3750   19.4533 C   0  0  0  0  0  0
  -29.5034  -12.4810   18.2196 C   0  0  0  0  0  0
  -28.0229  -12.3520   18.6307 C   0  0  0  0  0  0
  -27.6471  -13.2316   19.8541 C   0  0  2  0  0  0
  -28.6934  -13.1275   20.9840 C   0  0  0  0  0  0
  -25.2536  -13.8230   20.5709 C   0  0  0  0  0  0
  -24.1820  -13.0468   20.9190 C   0  0  0  0  0  0
  -24.6399  -11.6933   20.8723 C   0  0  0  0  0  0
  -23.9093  -10.4299   21.0381 C   0  0  0  0  0  0
  -24.3645   -9.4214   21.9152 C   0  0  0  0  0  0
  -23.6315   -8.2252   22.0750 C   0  0  0  0  0  0
  -22.4283   -8.0291   21.3569 C   0  0  0  0  0  0
  -21.9930   -9.0253   20.4656 C   0  0  0  0  0  0
  -22.7266  -10.2128   20.3036 C   0  0  0  0  0  0
  -21.6869   -6.0733   22.5268 C   0  0  0  0  0  0
  -21.4021   -6.5631   23.8201 C   0  0  0  0  0  0
  -21.3659   -5.6784   24.9163 C   0  0  0  0  0  0
  -21.6047   -4.3043   24.7212 C   0  0  0  0  0  0
  -21.8831   -3.8146   23.4326 C   0  0  0  0  0  0
  -21.9215   -4.6967   22.3389 C   0  0  0  0  0  0
  -22.7838  -13.5221   21.1864 C   0  0  0  0  0  0
  -22.1679   -4.2149   21.0962 F   0  0  0  0  0  0
  -21.5630   -3.4526   25.7726 F   0  0  0  0  0  0
  -30.0037  -13.4262   20.3998 N   0  0  0  0  0  0
  -26.2976  -12.9426   20.3310 N   0  0  0  0  0  0
  -25.9338  -11.6566   20.5757 N   0  0  0  0  0  0
  -22.0521  -12.8171   22.0425 N   0  0  0  0  0  0
  -25.4280  -15.1960   20.4165 N   0  0  0  0  0  0
  -31.8816  -14.6724   20.2141 O   0  0  0  0  0  0
  -21.6661   -6.8880   21.4233 O   0  0  0  0  0  0
  -22.3481  -14.5518   20.6720 O   0  0  0  0  0  0
  -24.6192  -31.8662   23.2119 C   0  0  0  0  0  0
  -25.9057  -32.4814   23.8423 C   0  0  1  0  0  0
  -27.2191  -27.3473   20.0867 C   0  0  0  0  0  0
  -25.5902  -33.8617   24.2332 N   0  0  0  0  0  0
  -23.4137  -30.4956   21.5522 C   0  0  2  0  0  0
  -24.8608  -28.9709   20.1063 C   0  0  0  0  0  0
  -22.7450  -29.4642   22.4930 C   0  0  0  0  0  0
  -18.0291  -28.1348   22.8503 C   0  0  0  0  0  0
  -24.1477  -36.7299   23.2646 C   0  0  0  0  0  0
  -25.9586  -30.7973   21.3939 C   0  0  0  0  0  0
  -26.0297  -29.4336   20.7222 C   0  0  0  0  0  0
  -27.2077  -28.6297   20.7170 C   0  0  0  0  0  0
  -26.0270  -26.9611   19.4178 C   0  0  0  0  0  0
  -24.8595  -27.7358   19.4497 C   0  0  0  0  0  0
  -23.6284  -29.8461   20.1628 C   0  0  0  0  0  0
  -25.4107  -36.3117   24.0341 C   0  0  1  0  0  0
  -20.5886  -28.3653   23.1285 C   0  0  2  0  0  0
  -20.6760  -26.9369   22.5406 C   0  0  0  0  0  0
  -19.5741  -26.6366   21.5197 C   0  0  0  0  0  0
  -18.1932  -26.7902   22.1622 C   0  0  0  0  0  0
  -19.1543  -28.8818   23.2894 C   0  0  0  0  0  0
  -18.9476  -30.1420   23.8904 C   0  0  0  0  0  0
  -17.6479  -30.6561   24.0561 C   0  0  0  0  0  0
  -25.9041  -34.9477   23.5135 C   0  0  0  0  0  0
  -16.5364  -29.9065   23.6323 C   0  0  0  0  0  0
  -16.7283  -28.6473   23.0363 C   0  0  0  0  0  0
  -26.4468  -31.6617   25.0777 C   0  0  0  0  0  0
  -25.3717  -31.3743   26.1514 C   0  0  0  0  0  0
  -27.0323  -30.3040   24.6242 C   0  0  0  0  0  0
  -27.6039  -32.4348   25.7527 C   0  0  0  0  0  0
  -27.5580  -37.1811   24.8470 C   0  0  0  0  0  0
  -21.4165  -29.3021   22.3676 N   0  0  0  0  0  0
  -26.4303  -37.3797   23.9403 N   0  0  0  0  0  0
  -24.6814  -31.0684   22.1074 N   0  0  0  0  0  0
  -23.4195  -28.8153   23.2972 O   0  0  0  0  0  0
  -28.3267  -26.4836   20.1539 O   0  0  0  0  0  0
  -26.5611  -34.8927   22.4696 O   0  0  0  0  0  0
  -23.5359  -32.1467   23.7434 O   0  0  0  0  0  0
  -30.1275  -21.5744   21.2214 C   0  0  0  0  0  0
  -28.7029  -22.6002   19.5910 C   0  0  0  0  0  0
  -29.2836  -21.3947   20.1038 C   0  0  0  0  0  0
  -30.3054  -22.8706   21.7588 C   0  0  0  0  0  0
  -28.9248  -23.8758   20.1822 C   0  0  0  0  0  0
  -29.0130  -20.0501   19.3929 C   0  0  0  0  0  0
  -29.8507  -18.2967   21.1509 C   0  0  0  0  0  0
  -29.0479  -17.6283   18.9433 C   0  0  0  0  0  0
  -29.6999  -16.7359   21.4705 C   0  0  0  0  0  0
  -30.0667  -16.4813   19.0887 C   0  0  0  0  0  0
  -31.1647  -23.0620   22.9885 C   0  0  0  0  0  0
  -28.1045  -25.1032   19.6804 C   0  0  0  0  0  0
  -29.7233  -23.9934   21.2651 N   0  0  0  0  0  0
  -29.3368  -18.7742   19.8377 N   0  0  0  0  0  0
  -29.9261  -15.7623   20.3612 N   0  0  0  0  0  0
  -28.4309  -20.1653   18.3054 O   0  0  0  0  0  0
  -31.4664  -12.4789   19.1508 H   0  0  0  0  0  0
  -30.3409  -11.3910   19.9152 H   0  0  0  0  0  0
  -29.7534  -11.7060   17.4931 H   0  0  0  0  0  0
  -29.6704  -13.4354   17.7180 H   0  0  0  0  0  0
  -27.8382  -11.3030   18.8603 H   0  0  0  0  0  0
  -27.3767  -12.5977   17.7856 H   0  0  0  0  0  0
  -27.6534  -14.2621   19.4973 H   0  0  0  0  0  0
  -28.6896  -12.1310   21.4274 H   0  0  0  0  0  0
  -28.4602  -13.8295   21.7856 H   0  0  0  0  0  0
  -25.2801   -9.5680   22.4714 H   0  0  0  0  0  0
  -24.0056   -7.4621   22.7435 H   0  0  0  0  0  0
  -21.0879   -8.8760   19.8932 H   0  0  0  0  0  0
  -22.3738  -10.9659   19.6129 H   0  0  0  0  0  0
  -21.2008   -7.6137   23.9695 H   0  0  0  0  0  0
  -21.1472   -6.0513   25.9065 H   0  0  0  0  0  0
  -22.0620   -2.7607   23.2822 H   0  0  0  0  0  0
  -22.4226  -11.9863   22.4812 H   0  0  0  0  0  0
  -21.1116  -13.1114   22.2656 H   0  0  0  0  0  0
  -24.6731  -15.8612   20.5412 H   0  0  0  0  0  0
  -26.2980  -15.6329   20.1407 H   0  0  0  0  0  0
  -26.7109  -32.5476   23.1162 H   0  0  0  0  0  0
  -25.0021  -33.9782   25.0456 H   0  0  0  0  0  0
  -22.7057  -31.3154   21.4156 H   0  0  0  0  0  0
  -23.3749  -35.9623   23.3347 H   0  0  0  0  0  0
  -24.3569  -36.8888   22.2059 H   0  0  0  0  0  0
  -23.7232  -37.6509   23.6638 H   0  0  0  0  0  0
  -26.1108  -31.5735   20.6425 H   0  0  0  0  0  0
  -26.8289  -30.8235   22.0369 H   0  0  0  0  0  0
  -28.0978  -28.9749   21.2233 H   0  0  0  0  0  0
  -25.9439  -26.0495   18.8470 H   0  0  0  0  0  0
  -23.9689  -27.3858   18.9460 H   0  0  0  0  0  0
  -23.7351  -30.6281   19.4099 H   0  0  0  0  0  0
  -22.7510  -29.2733   19.8620 H   0  0  0  0  0  0
  -25.1289  -36.1999   25.0842 H   0  0  0  0  0  0
  -21.0008  -28.3213   24.1397 H   0  0  0  0  0  0
  -20.5631  -26.2252   23.3605 H   0  0  0  0  0  0
  -21.6638  -26.7364   22.1224 H   0  0  0  0  0  0
  -19.6895  -25.6286   21.1216 H   0  0  0  0  0  0
  -19.6689  -27.3185   20.6738 H   0  0  0  0  0  0
  -17.4197  -26.6664   21.4031 H   0  0  0  0  0  0
  -18.0324  -26.0029   22.9006 H   0  0  0  0  0  0
  -19.7944  -30.7225   24.2288 H   0  0  0  0  0  0
  -17.5027  -31.6255   24.5129 H   0  0  0  0  0  0
  -15.5353  -30.2965   23.7631 H   0  0  0  0  0  0
  -15.8683  -28.0778   22.7079 H   0  0  0  0  0  0
  -24.5839  -30.7172   25.7819 H   0  0  0  0  0  0
  -24.8966  -32.2914   26.5016 H   0  0  0  0  0  0
  -25.8046  -30.8825   27.0235 H   0  0  0  0  0  0
  -26.2915  -29.6805   24.1224 H   0  0  0  0  0  0
  -27.3984  -29.7288   25.4757 H   0  0  0  0  0  0
  -27.8805  -30.4329   23.9519 H   0  0  0  0  0  0
  -27.2641  -33.3620   26.2142 H   0  0  0  0  0  0
  -28.3810  -32.6974   25.0339 H   0  0  0  0  0  0
  -28.0746  -31.8461   26.5405 H   0  0  0  0  0  0
  -28.2624  -38.0082   24.7488 H   0  0  0  0  0  0
  -28.1053  -36.2621   24.6331 H   0  0  0  0  0  0
  -27.2291  -37.1505   25.8872 H   0  0  0  0  0  0
  -20.9295  -29.8781   21.6958 H   0  0  0  0  0  0
  -26.0203  -38.2883   24.1391 H   0  0  0  0  0  0
  -30.6427  -20.7430   21.6734 H   0  0  0  0  0  0
  -28.0453  -22.5521   18.7316 H   0  0  0  0  0  0
  -30.9113  -18.5457   21.1979 H   0  0  0  0  0  0
  -29.3623  -18.8647   21.9452 H   0  0  0  0  0  0
  -28.0344  -17.2702   19.1325 H   0  0  0  0  0  0
  -29.0837  -17.9180   17.8917 H   0  0  0  0  0  0
  -28.6788  -16.5743   21.8166 H   0  0  0  0  0  0
  -30.3345  -16.4798   22.3212 H   0  0  0  0  0  0
  -31.0819  -16.8647   18.9789 H   0  0  0  0  0  0
  -29.9202  -15.7777   18.2683 H   0  0  0  0  0  0
  -32.0143  -22.3798   22.9832 H   0  0  0  0  0  0
  -30.5737  -22.8598   23.8808 H   0  0  0  0  0  0
  -31.5556  -24.0778   23.0489 H   0  0  0  0  0  0
  -27.1094  -24.7836   19.9810 H   0  0  0  0  0  0
  -28.1350  -25.1101   18.5897 H   0  0  0  0  0  0
  1 25  1  0  0  0
  1 30  2  0  0  0
  1 85  1  0  0  0
  2  3  1  0  0  0
  2 25  1  0  0  0
  2 87  1  0  0  0
  2 88  1  0  0  0
  3  4  1  0  0  0
  3 89  1  0  0  0
  3 90  1  0  0  0
  4  5  1  0  0  0
  4 91  1  0  0  0
  4 92  1  0  0  0
  5  6  1  0  0  0
  5 26  1  0  0  0
  5 93  1  0  0  0
  6 25  1  0  0  0
  6 94  1  0  0  0
  6 95  1  0  0  0
  7  8  2  0  0  0
  7 26  1  0  0  0
  7 29  1  0  0  0
  8  9  1  0  0  0
  8 22  1  0  0  0
  9 10  1  0  0  0
  9 27  2  0  0  0
 10 11  2  0  0  0
 10 15  1  0  0  0
 11 12  1  0  0  0
 11 96  1  0  0  0
 12 13  2  0  0  0
 12 97  1  0  0  0
 13 14  1  0  0  0
 13 31  1  0  0  0
 14 15  2  0  0  0
 14 98  1  0  0  0
 15 99  1  0  0  0
 16 17  2  0  0  0
 16 21  1  0  0  0
 16 31  1  0  0  0
 17 18  1  0  0  0
 17100  1  0  0  0
 18 19  2  0  0  0
 18101  1  0  0  0
 19 20  1  0  0  0
 19 24  1  0  0  0
 20 21  2  0  0  0
 20102  1  0  0  0
 21 23  1  0  0  0
 22 28  1  0  0  0
 22 32  2  0  0  0
 26 27  1  0  0  0
 28103  1  0  0  0
 28104  1  0  0  0
 29105  1  0  0  0
 29106  1  0  0  0
 33 34  1  0  0  0
 33 66  1  0  0  0
 33 70  2  0  0  0
 34 36  1  0  0  0
 34 59  1  0  0  0
 34107  1  0  0  0
 35 44  2  0  0  0
 35 45  1  0  0  0
 35 68  1  0  0  0
 36 56  1  0  0  0
 36108  1  0  0  0
 37 39  1  0  0  0
 37 47  1  0  0  0
 37 66  1  0  0  0
 37109  1  0  0  0
 38 43  2  0  0  0
 38 46  1  0  0  0
 38 47  1  0  0  0
 39 64  1  0  0  0
 39 67  2  0  0  0
 40 52  1  0  0  0
 40 53  2  0  0  0
 40 58  1  0  0  0
 41110  1  0  0  0
 41111  1  0  0  0
 41112  1  0  0  0
 41 48  1  0  0  0
 42 43  1  0  0  0
 42 66  1  0  0  0
 42113  1  0  0  0
 42114  1  0  0  0
 43 44  1  0  0  0
 44115  1  0  0  0
 45 46  2  0  0  0
 45116  1  0  0  0
 46117  1  0  0  0
 47118  1  0  0  0
 47119  1  0  0  0
 48 56  1  0  0  0
 48 65  1  0  0  0
 48120  1  0  0  0
 49 50  1  0  0  0
 49 53  1  0  0  0
 49 64  1  0  0  0
 49121  1  0  0  0
 50 51  1  0  0  0
 50122  1  0  0  0
 50123  1  0  0  0
 51 52  1  0  0  0
 51124  1  0  0  0
 51125  1  0  0  0
 52126  1  0  0  0
 52127  1  0  0  0
 53 54  1  0  0  0
 54 55  2  0  0  0
 54128  1  0  0  0
 55 57  1  0  0  0
 55129  1  0  0  0
 56 69  2  0  0  0
 57 58  2  0  0  0
 57130  1  0  0  0
 58131  1  0  0  0
 59 60  1  0  0  0
 59 61  1  0  0  0
 59 62  1  0  0  0
 60132  1  0  0  0
 60133  1  0  0  0
 60134  1  0  0  0
 61135  1  0  0  0
 61136  1  0  0  0
 61137  1  0  0  0
 62138  1  0  0  0
 62139  1  0  0  0
 62140  1  0  0  0
 63 65  1  0  0  0
 63141  1  0  0  0
 63142  1  0  0  0
 63143  1  0  0  0
 64144  1  0  0  0
 65145  1  0  0  0
 68 82  1  0  0  0
 71 73  2  0  0  0
 71 74  1  0  0  0
 71146  1  0  0  0
 72 73  1  0  0  0
 72 75  2  0  0  0
 72147  1  0  0  0
 73 76  1  0  0  0
 74 81  1  0  0  0
 74 83  2  0  0  0
 75 82  1  0  0  0
 75 83  1  0  0  0
 76 84  1  0  0  0
 76 86  2  0  0  0
 77 79  1  0  0  0
 77 84  1  0  0  0
 77148  1  0  0  0
 77149  1  0  0  0
 78 80  1  0  0  0
 78 84  1  0  0  0
 78150  1  0  0  0
 78151  1  0  0  0
 79 85  1  0  0  0
 79152  1  0  0  0
 79153  1  0  0  0
 80 85  1  0  0  0
 80154  1  0  0  0
 80155  1  0  0  0
 81156  1  0  0  0
 81157  1  0  0  0
 81158  1  0  0  0
 82159  1  0  0  0
 82160  1  0  0  0
M  ISO  4   1 100  68 101  82 101  85 100
M  END
> <chiral flag>
0

> <version>
0

> <s_m_source_file>
/data/baiqing/PycharmProjects/Reinvent-master-3.2/result/LINK_invent/BTK/process_docking_weight1_custom_sum_contain_oxygen_bond_distance_aromatic_linkinvent_7_9_3/rearranged_h_0167.sdf

> <i_m_source_file_index>
85

> <r_mmod_Potential_Energy-OPLS-2005>
264.747161865234

> <r_mmod_Stretch_Energy-OPLS-2005>
78.3882293701172

> <r_mmod_Bend_Energy-OPLS-2005>
170.908660888672

> <r_mmod_Torsional_Energy-OPLS-2005>
399.001647949219

> <r_mmod_Improper_Torsional_Energy-OPLS-2005>
19.5410251617432

> <r_mmod_Van_der_Waal_Energy-OPLS-2005>
178.993377685547

> <r_mmod_Electrostatic_Energy-OPLS-2005>
-390.630584716797

> <r_mmod_Solvation_Energy-OPLS-2005>
-240.113265991211

> <b_mmod_Minimization_Converged-OPLS-2005>
0

> <r_mmod_RMS_Derivative-OPLS-2005>
3.4734935760498

$$$$
85
                    3D
 Structure written by MMmdl.
169178  0  0  1  0            999 V2000
  -30.6864  -14.6943   20.4676 C   0  0  0  0  0  0
  -30.4130  -12.4294   19.4691 C   0  0  0  0  0  0
  -29.4969  -12.4983   18.2311 C   0  0  0  0  0  0
  -28.0254  -12.3274   18.6498 C   0  0  0  0  0  0
  -27.6361  -13.2310   19.8502 C   0  0  2  0  0  0
  -28.6853  -13.1913   20.9831 C   0  0  0  0  0  0
  -25.2501  -13.8205   20.5730 C   0  0  0  0  0  0
  -24.1785  -13.0449   20.9214 C   0  0  0  0  0  0
  -24.6376  -11.6922   20.8753 C   0  0  0  0  0  0
  -23.9062  -10.4296   21.0407 C   0  0  0  0  0  0
  -24.3618   -9.4210   21.9180 C   0  0  0  0  0  0
  -23.6299   -8.2245   22.0746 C   0  0  0  0  0  0
  -22.4280   -8.0280   21.3540 C   0  0  0  0  0  0
  -21.9913   -9.0252   20.4640 C   0  0  0  0  0  0
  -22.7236  -10.2137   20.3050 C   0  0  0  0  0  0
  -21.6854   -6.0735   22.5278 C   0  0  0  0  0  0
  -21.4016   -6.5641   23.8212 C   0  0  0  0  0  0
  -21.3661   -5.6793   24.9175 C   0  0  0  0  0  0
  -21.6042   -4.3055   24.7223 C   0  0  0  0  0  0
  -21.8822   -3.8148   23.4344 C   0  0  0  0  0  0
  -21.9195   -4.6964   22.3401 C   0  0  0  0  0  0
  -22.7810  -13.5230   21.1873 C   0  0  0  0  0  0
  -22.1661   -4.2153   21.0977 F   0  0  0  0  0  0
  -21.5631   -3.4537   25.7736 F   0  0  0  0  0  0
  -29.9888  -13.5102   20.3888 N   0  0  0  0  0  0
  -26.2916  -12.9397   20.3330 N   0  0  0  0  0  0
  -25.9307  -11.6539   20.5784 N   0  0  0  0  0  0
  -22.0465  -12.8207   22.0425 N   0  0  0  0  0  0
  -25.4233  -15.1929   20.4166 N   0  0  0  0  0  0
  -31.8833  -14.7081   20.1655 O   0  0  0  0  0  0
  -21.6643   -6.8876   21.4238 O   0  0  0  0  0  0
  -22.3497  -14.5542   20.6733 O   0  0  0  0  0  0
  -24.6325  -31.8587   23.2048 C   0  0  0  0  0  0
  -25.9160  -32.4776   23.8372 C   0  0  1  0  0  0
  -27.2016  -27.2639   20.1145 C   0  0  0  0  0  0
  -25.5964  -33.8579   24.2290 N   0  0  0  0  0  0
  -23.4271  -30.4887   21.5487 C   0  0  2  0  0  0
  -24.8704  -28.9531   20.1063 C   0  0  0  0  0  0
  -22.7507  -29.4628   22.4912 C   0  0  0  0  0  0
  -18.0297  -28.1398   22.8479 C   0  0  0  0  0  0
  -24.1491  -36.7278   23.2633 C   0  0  0  0  0  0
  -25.9776  -30.7703   21.3897 C   0  0  0  0  0  0
  -26.0458  -29.3971   20.7259 C   0  0  0  0  0  0
  -27.2139  -28.5642   20.7269 C   0  0  0  0  0  0
  -26.0047  -26.9186   19.4342 C   0  0  0  0  0  0
  -24.8553  -27.7201   19.4504 C   0  0  0  0  0  0
  -23.6435  -29.8394   20.1597 C   0  0  0  0  0  0
  -25.4118  -36.3082   24.0327 C   0  0  1  0  0  0
  -20.5903  -28.3709   23.1260 C   0  0  2  0  0  0
  -20.6791  -26.9427   22.5402 C   0  0  0  0  0  0
  -19.5763  -26.6392   21.5211 C   0  0  0  0  0  0
  -18.1943  -26.7936   22.1625 C   0  0  0  0  0  0
  -19.1550  -28.8870   23.2863 C   0  0  0  0  0  0
  -18.9467  -30.1469   23.8886 C   0  0  0  0  0  0
  -17.6466  -30.6593   24.0567 C   0  0  0  0  0  0
  -25.9064  -34.9452   23.5103 C   0  0  0  0  0  0
  -16.5359  -29.9091   23.6338 C   0  0  0  0  0  0
  -16.7281  -28.6513   23.0350 C   0  0  0  0  0  0
  -26.4519  -31.6585   25.0748 C   0  0  0  0  0  0
  -25.3731  -31.3738   26.1457 C   0  0  0  0  0  0
  -27.0354  -30.2996   24.6235 C   0  0  0  0  0  0
  -27.6074  -32.4318   25.7523 C   0  0  0  0  0  0
  -27.5579  -37.1805   24.8467 C   0  0  0  0  0  0
  -21.4210  -29.3060   22.3650 N   0  0  0  0  0  0
  -26.4298  -37.3778   23.9404 N   0  0  0  0  0  0
  -24.6979  -31.0562   22.1031 N   0  0  0  0  0  0
  -23.4207  -28.8140   23.2987 O   0  0  0  0  0  0
  -28.2544  -26.3125   20.2047 O   0  0  0  0  0  0
  -26.5615  -34.8923   22.4661 O   0  0  0  0  0  0
  -23.5479  -32.1409   23.7344 O   0  0  0  0  0  0
  -29.3775  -20.6497   20.4125 C   0  0  0  0  0  0
  -29.8391  -21.5071   19.3525 C   0  0  0  0  0  0
  -28.5662  -21.3112   21.3963 C   0  0  0  0  0  0
  -29.5102  -22.9122   19.2783 C   0  0  0  0  0  0
  -28.2598  -22.7245   21.3291 C   0  0  0  0  0  0
  -28.6571  -23.5467   20.2278 C   0  0  0  0  0  0
  -30.0885  -18.3236   21.7704 C   0  0  0  0  0  0
  -28.8921  -18.0725   19.6782 C   0  0  0  0  0  0
  -30.7440  -16.9011   21.5628 C   0  0  0  0  0  0
  -29.5385  -16.6401   19.4809 C   0  0  0  0  0  0
  -29.7919  -19.0831   20.4424 C   0  0  0  0  0  0
  -30.6770  -20.9011   18.2230 C   0  0  0  0  0  0
  -27.9473  -20.4788   22.5146 C   0  0  0  0  0  0
  -30.0500  -23.7602   18.1286 C   0  0  0  0  0  0
  -27.4497  -23.3751   22.4487 C   0  0  0  0  0  0
  -27.8746  -24.8968   19.8718 C   0  0  0  0  0  0
  -30.0358  -15.9092   20.6885 N   0  0  0  0  0  0
  -31.4573  -12.5175   19.1646 H   0  0  0  0  0  0
  -30.3290  -11.4573   19.9582 H   0  0  0  0  0  0
  -29.6295  -13.4549   17.7223 H   0  0  0  0  0  0
  -29.7736  -11.7260   17.5121 H   0  0  0  0  0  0
  -27.8803  -11.2795   18.9148 H   0  0  0  0  0  0
  -27.3657  -12.5184   17.8024 H   0  0  0  0  0  0
  -27.6161  -14.2459   19.4609 H   0  0  0  0  0  0
  -28.7108  -12.2098   21.4595 H   0  0  0  0  0  0
  -28.4316  -13.9109   21.7638 H   0  0  0  0  0  0
  -25.2758   -9.5693   22.4759 H   0  0  0  0  0  0
  -24.0014   -7.4634   22.7460 H   0  0  0  0  0  0
  -21.0847   -8.8758   19.8945 H   0  0  0  0  0  0
  -22.3682  -10.9673   19.6162 H   0  0  0  0  0  0
  -21.2003   -7.6148   23.9716 H   0  0  0  0  0  0
  -21.1480   -6.0520   25.9079 H   0  0  0  0  0  0
  -22.0600   -2.7609   23.2839 H   0  0  0  0  0  0
  -22.4091  -11.9864   22.4795 H   0  0  0  0  0  0
  -21.1082  -13.1209   22.2646 H   0  0  0  0  0  0
  -24.6650  -15.8550   20.5388 H   0  0  0  0  0  0
  -26.2931  -15.6318   20.1418 H   0  0  0  0  0  0
  -26.7217  -32.5423   23.1103 H   0  0  0  0  0  0
  -25.0140  -33.9719   25.0456 H   0  0  0  0  0  0
  -22.7235  -31.3123   21.4119 H   0  0  0  0  0  0
  -23.3767  -35.9599   23.3301 H   0  0  0  0  0  0
  -24.3577  -36.8889   22.2045 H   0  0  0  0  0  0
  -23.7238  -37.6481   23.6648 H   0  0  0  0  0  0
  -26.1234  -31.5340   20.6244 H   0  0  0  0  0  0
  -26.8544  -30.8119   22.0243 H   0  0  0  0  0  0
  -28.1054  -28.8931   21.2421 H   0  0  0  0  0  0
  -25.8917  -25.9977   18.8853 H   0  0  0  0  0  0
  -23.9613  -27.3802   18.9454 H   0  0  0  0  0  0
  -23.7707  -30.6251   19.4139 H   0  0  0  0  0  0
  -22.7599  -29.2794   19.8482 H   0  0  0  0  0  0
  -25.1305  -36.1932   25.0822 H   0  0  0  0  0  0
  -21.0001  -28.3296   24.1380 H   0  0  0  0  0  0
  -20.5705  -26.2320   23.3609 H   0  0  0  0  0  0
  -21.6653  -26.7461   22.1187 H   0  0  0  0  0  0
  -19.6925  -25.6299   21.1249 H   0  0  0  0  0  0
  -19.6703  -27.3195   20.6734 H   0  0  0  0  0  0
  -17.4211  -26.6679   21.4029 H   0  0  0  0  0  0
  -18.0343  -26.0086   22.9029 H   0  0  0  0  0  0
  -19.7942  -30.7289   24.2253 H   0  0  0  0  0  0
  -17.5023  -31.6273   24.5168 H   0  0  0  0  0  0
  -15.5359  -30.2994   23.7669 H   0  0  0  0  0  0
  -15.8680  -28.0836   22.7066 H   0  0  0  0  0  0
  -24.5929  -30.7058   25.7787 H   0  0  0  0  0  0
  -24.8893  -32.2904   26.4845 H   0  0  0  0  0  0
  -25.8045  -30.8951   27.0257 H   0  0  0  0  0  0
  -26.2936  -29.6762   24.1227 H   0  0  0  0  0  0
  -27.3990  -29.7248   25.4762 H   0  0  0  0  0  0
  -27.8848  -30.4260   23.9517 H   0  0  0  0  0  0
  -27.2687  -33.3627   26.2086 H   0  0  0  0  0  0
  -28.3903  -32.6859   25.0360 H   0  0  0  0  0  0
  -28.0725  -31.8444   26.5452 H   0  0  0  0  0  0
  -28.2612  -38.0088   24.7508 H   0  0  0  0  0  0
  -28.1066  -36.2622   24.6313 H   0  0  0  0  0  0
  -27.2290  -37.1475   25.8869 H   0  0  0  0  0  0
  -20.9389  -29.8796   21.6871 H   0  0  0  0  0  0
  -26.0176  -38.2855   24.1403 H   0  0  0  0  0  0
  -30.7529  -18.9313   22.3862 H   0  0  0  0  0  0
  -29.1856  -18.1707   22.3560 H   0  0  0  0  0  0
  -27.9337  -17.9768   20.1891 H   0  0  0  0  0  0
  -28.6543  -18.4759   18.6938 H   0  0  0  0  0  0
  -30.8926  -16.4430   22.5420 H   0  0  0  0  0  0
  -31.7472  -17.0617   21.1628 H   0  0  0  0  0  0
  -30.3789  -16.7453   18.7911 H   0  0  0  0  0  0
  -28.8220  -16.0117   18.9549 H   0  0  0  0  0  0
  -30.7656  -19.0569   19.9565 H   0  0  0  0  0  0
  -30.3773  -19.8826   17.9861 H   0  0  0  0  0  0
  -31.7330  -20.8945   18.4932 H   0  0  0  0  0  0
  -30.5724  -21.4318   17.2789 H   0  0  0  0  0  0
  -28.6860  -20.2603   23.2856 H   0  0  0  0  0  0
  -27.5503  -19.5481   22.1130 H   0  0  0  0  0  0
  -27.0947  -20.9480   23.0000 H   0  0  0  0  0  0
  -31.0952  -23.5298   17.9222 H   0  0  0  0  0  0
  -30.0256  -24.8256   18.3563 H   0  0  0  0  0  0
  -29.4692  -23.5933   17.2211 H   0  0  0  0  0  0
  -27.7899  -23.0341   23.4268 H   0  0  0  0  0  0
  -26.3895  -23.1440   22.3464 H   0  0  0  0  0  0
  -27.5636  -24.4591   22.4624 H   0  0  0  0  0  0
  -26.8819  -24.7107   20.2813 H   0  0  0  0  0  0
  -27.7293  -24.8694   18.7917 H   0  0  0  0  0  0
  1 25  1  0  0  0
  1 30  2  0  0  0
  1 87  1  0  0  0
  2  3  1  0  0  0
  2 25  1  0  0  0
  2 88  1  0  0  0
  2 89  1  0  0  0
  3  4  1  0  0  0
  3 90  1  0  0  0
  3 91  1  0  0  0
  4  5  1  0  0  0
  4 92  1  0  0  0
  4 93  1  0  0  0
  5  6  1  0  0  0
  5 26  1  0  0  0
  5 94  1  0  0  0
  6 25  1  0  0  0
  6 95  1  0  0  0
  6 96  1  0  0  0
  7  8  2  0  0  0
  7 26  1  0  0  0
  7 29  1  0  0  0
  8  9  1  0  0  0
  8 22  1  0  0  0
  9 10  1  0  0  0
  9 27  2  0  0  0
 10 11  2  0  0  0
 10 15  1  0  0  0
 11 12  1  0  0  0
 11 97  1  0  0  0
 12 13  2  0  0  0
 12 98  1  0  0  0
 13 14  1  0  0  0
 13 31  1  0  0  0
 14 15  2  0  0  0
 14 99  1  0  0  0
 15100  1  0  0  0
 16 17  2  0  0  0
 16 21  1  0  0  0
 16 31  1  0  0  0
 17 18  1  0  0  0
 17101  1  0  0  0
 18 19  2  0  0  0
 18102  1  0  0  0
 19 20  1  0  0  0
 19 24  1  0  0  0
 20 21  2  0  0  0
 20103  1  0  0  0
 21 23  1  0  0  0
 22 28  1  0  0  0
 22 32  2  0  0  0
 26 27  1  0  0  0
 28104  1  0  0  0
 28105  1  0  0  0
 29106  1  0  0  0
 29107  1  0  0  0
 33 34  1  0  0  0
 33 66  1  0  0  0
 33 70  2  0  0  0
 34 36  1  0  0  0
 34 59  1  0  0  0
 34108  1  0  0  0
 35 44  2  0  0  0
 35 45  1  0  0  0
 35 68  1  0  0  0
 36 56  1  0  0  0
 36109  1  0  0  0
 37 39  1  0  0  0
 37 47  1  0  0  0
 37 66  1  0  0  0
 37110  1  0  0  0
 38 43  2  0  0  0
 38 46  1  0  0  0
 38 47  1  0  0  0
 39 64  1  0  0  0
 39 67  2  0  0  0
 40 52  1  0  0  0
 40 53  2  0  0  0
 40 58  1  0  0  0
 41111  1  0  0  0
 41112  1  0  0  0
 41113  1  0  0  0
 41 48  1  0  0  0
 42 43  1  0  0  0
 42 66  1  0  0  0
 42114  1  0  0  0
 42115  1  0  0  0
 43 44  1  0  0  0
 44116  1  0  0  0
 45 46  2  0  0  0
 45117  1  0  0  0
 46118  1  0  0  0
 47119  1  0  0  0
 47120  1  0  0  0
 48 56  1  0  0  0
 48 65  1  0  0  0
 48121  1  0  0  0
 49 50  1  0  0  0
 49 53  1  0  0  0
 49 64  1  0  0  0
 49122  1  0  0  0
 50 51  1  0  0  0
 50123  1  0  0  0
 50124  1  0  0  0
 51 52  1  0  0  0
 51125  1  0  0  0
 51126  1  0  0  0
 52127  1  0  0  0
 52128  1  0  0  0
 53 54  1  0  0  0
 54 55  2  0  0  0
 54129  1  0  0  0
 55 57  1  0  0  0
 55130  1  0  0  0
 56 69  2  0  0  0
 57 58  2  0  0  0
 57131  1  0  0  0
 58132  1  0  0  0
 59 60  1  0  0  0
 59 61  1  0  0  0
 59 62  1  0  0  0
 60133  1  0  0  0
 60134  1  0  0  0
 60135  1  0  0  0
 61136  1  0  0  0
 61137  1  0  0  0
 61138  1  0  0  0
 62139  1  0  0  0
 62140  1  0  0  0
 62141  1  0  0  0
 63 65  1  0  0  0
 63142  1  0  0  0
 63143  1  0  0  0
 63144  1  0  0  0
 64145  1  0  0  0
 65146  1  0  0  0
 68 86  1  0  0  0
 71 72  2  0  0  0
 71 73  1  0  0  0
 71 81  1  0  0  0
 72 74  1  0  0  0
 72 82  1  0  0  0
 73 75  2  0  0  0
 73 83  1  0  0  0
 74 76  2  0  0  0
 74 84  1  0  0  0
 75 76  1  0  0  0
 75 85  1  0  0  0
 76 86  1  0  0  0
 77 79  1  0  0  0
 77 81  1  0  0  0
 77147  1  0  0  0
 77148  1  0  0  0
 78 80  1  0  0  0
 78 81  1  0  0  0
 78149  1  0  0  0
 78150  1  0  0  0
 79 87  1  0  0  0
 79151  1  0  0  0
 79152  1  0  0  0
 80 87  1  0  0  0
 80153  1  0  0  0
 80154  1  0  0  0
 81155  1  0  0  0
 82156  1  0  0  0
 82157  1  0  0  0
 82158  1  0  0  0
 83159  1  0  0  0
 83160  1  0  0  0
 83161  1  0  0  0
 84162  1  0  0  0
 84163  1  0  0  0
 84164  1  0  0  0
 85165  1  0  0  0
 85166  1  0  0  0
 85167  1  0  0  0
 86168  1  0  0  0
 86169  1  0  0  0
M  ISO  4   1 100  68 101  86 101  87 100
M  END
> <chiral flag>
0

> <version>
0

> <s_m_source_file>
/data/baiqing/PycharmProjects/Reinvent-master-3.2/result/LINK_invent/BTK/process_docking_weight1_custom_sum_contain_oxygen_bond_distance_aromatic_linkinvent_7_9_3/rearranged_h_0167.sdf

> <i_m_source_file_index>
86

> <r_mmod_Potential_Energy-OPLS-2005>
458.2353515625

> <r_mmod_Stretch_Energy-OPLS-2005>
124.084083557129

> <r_mmod_Bend_Energy-OPLS-2005>
201.642578125

> <r_mmod_Torsional_Energy-OPLS-2005>
349.277923583984

> <r_mmod_Improper_Torsional_Energy-OPLS-2005>
12.2771148681641

> <r_mmod_Van_der_Waal_Energy-OPLS-2005>
183.091903686523

> <r_mmod_Electrostatic_Energy-OPLS-2005>
-305.520660400391

> <r_mmod_Solvation_Energy-OPLS-2005>
-191.748992919922

> <b_mmod_Minimization_Converged-OPLS-2005>
0

> <r_mmod_RMS_Derivative-OPLS-2005>
1.12328016757965

$$$$
86
                    3D
 Structure written by MMmdl.
163172  0  0  1  0            999 V2000
  -30.6547  -14.6576   20.5029 C   0  0  0  0  0  0
  -30.4316  -12.4102   19.4565 C   0  0  0  0  0  0
  -29.5053  -12.5040   18.2251 C   0  0  0  0  0  0
  -28.0302  -12.3388   18.6405 C   0  0  0  0  0  0
  -27.6485  -13.2250   19.8568 C   0  0  2  0  0  0
  -28.6947  -13.1196   20.9887 C   0  0  0  0  0  0
  -25.2539  -13.8183   20.5693 C   0  0  0  0  0  0
  -24.1817  -13.0437   20.9199 C   0  0  0  0  0  0
  -24.6399  -11.6912   20.8742 C   0  0  0  0  0  0
  -23.9067  -10.4292   21.0401 C   0  0  0  0  0  0
  -24.3618   -9.4209   21.9179 C   0  0  0  0  0  0
  -23.6294   -8.2244   22.0751 C   0  0  0  0  0  0
  -22.4275   -8.0280   21.3542 C   0  0  0  0  0  0
  -21.9912   -9.0250   20.4641 C   0  0  0  0  0  0
  -22.7241  -10.2129   20.3047 C   0  0  0  0  0  0
  -21.6853   -6.0735   22.5278 C   0  0  0  0  0  0
  -21.4016   -6.5636   23.8210 C   0  0  0  0  0  0
  -21.3657   -5.6787   24.9172 C   0  0  0  0  0  0
  -21.6042   -4.3050   24.7221 C   0  0  0  0  0  0
  -21.8821   -3.8143   23.4342 C   0  0  0  0  0  0
  -21.9196   -4.6963   22.3402 C   0  0  0  0  0  0
  -22.7837  -13.5224   21.1853 C   0  0  0  0  0  0
  -22.1665   -4.2150   21.0979 F   0  0  0  0  0  0
  -21.5625   -3.4533   25.7732 F   0  0  0  0  0  0
  -30.0051  -13.4525   20.4134 N   0  0  0  0  0  0
  -26.2972  -12.9384   20.3307 N   0  0  0  0  0  0
  -25.9330  -11.6529   20.5759 N   0  0  0  0  0  0
  -22.0475  -12.8210   22.0400 N   0  0  0  0  0  0
  -25.4228  -15.1908   20.4099 N   0  0  0  0  0  0
  -31.8260  -14.7780   20.1353 O   0  0  0  0  0  0
  -21.6641   -6.8877   21.4239 O   0  0  0  0  0  0
  -22.3524  -14.5531   20.6702 O   0  0  0  0  0  0
  -24.6304  -31.8596   23.2056 C   0  0  0  0  0  0
  -25.9143  -32.4776   23.8377 C   0  0  1  0  0  0
  -27.2085  -27.2868   20.1067 C   0  0  0  0  0  0
  -25.5959  -33.8578   24.2300 N   0  0  0  0  0  0
  -23.4240  -30.4897   21.5496 C   0  0  2  0  0  0
  -24.8679  -28.9559   20.1067 C   0  0  0  0  0  0
  -22.7498  -29.4636   22.4927 C   0  0  0  0  0  0
  -18.0292  -28.1393   22.8483 C   0  0  0  0  0  0
  -24.1490  -36.7280   23.2637 C   0  0  0  0  0  0
  -25.9723  -30.7788   21.3865 C   0  0  0  0  0  0
  -26.0422  -29.4072   20.7228 C   0  0  0  0  0  0
  -27.2143  -28.5834   20.7207 C   0  0  0  0  0  0
  -26.0109  -26.9267   19.4349 C   0  0  0  0  0  0
  -24.8567  -27.7212   19.4535 C   0  0  0  0  0  0
  -23.6394  -29.8387   20.1611 C   0  0  0  0  0  0
  -25.4113  -36.3081   24.0333 C   0  0  1  0  0  0
  -20.5898  -28.3704   23.1270 C   0  0  2  0  0  0
  -20.6782  -26.9423   22.5402 C   0  0  0  0  0  0
  -19.5756  -26.6395   21.5208 C   0  0  0  0  0  0
  -18.1937  -26.7938   22.1616 C   0  0  0  0  0  0
  -19.1544  -28.8864   23.2875 C   0  0  0  0  0  0
  -18.9465  -30.1464   23.8895 C   0  0  0  0  0  0
  -17.6462  -30.6588   24.0569 C   0  0  0  0  0  0
  -25.9056  -34.9452   23.5111 C   0  0  0  0  0  0
  -16.5354  -29.9085   23.6337 C   0  0  0  0  0  0
  -16.7277  -28.6507   23.0351 C   0  0  0  0  0  0
  -26.4511  -31.6579   25.0746 C   0  0  0  0  0  0
  -25.3739  -31.3731   26.1473 C   0  0  0  0  0  0
  -27.0333  -30.2988   24.6223 C   0  0  0  0  0  0
  -27.6089  -32.4296   25.7499 C   0  0  0  0  0  0
  -27.5579  -37.1805   24.8467 C   0  0  0  0  0  0
  -21.4208  -29.3058   22.3664 N   0  0  0  0  0  0
  -26.4289  -37.3779   23.9412 N   0  0  0  0  0  0
  -24.6946  -31.0589   22.1031 N   0  0  0  0  0  0
  -23.4212  -28.8156   23.2996 O   0  0  0  0  0  0
  -28.2786  -26.3588   20.1877 O   0  0  0  0  0  0
  -26.5612  -34.8919   22.4671 O   0  0  0  0  0  0
  -23.5457  -32.1412   23.7362 O   0  0  0  0  0  0
  -28.9137  -21.5421   21.5467 C   0  0  0  0  0  0
  -29.9651  -21.5931   19.3992 C   0  0  0  0  0  0
  -29.6409  -20.8338   20.5547 C   0  0  0  0  0  0
  -28.4807  -22.8976   21.3782 C   0  0  0  0  0  0
  -29.5407  -22.9488   19.2127 C   0  0  0  0  0  0
  -28.7526  -23.6391   20.1864 C   0  0  0  0  0  0
  -29.4813  -18.2373   21.6427 C   0  0  0  0  0  0
  -30.1726  -19.3610   20.7977 C   0  0  1  0  0  0
  -30.4387  -17.1880   20.9829 C   0  0  2  0  0  0
  -30.3544  -18.1768   19.7709 C   0  0  2  0  0  0
  -27.6598  -23.5245   22.4921 C   0  0  0  0  0  0
  -29.9102  -23.6332   17.9068 C   0  0  0  0  0  0
  -27.9368  -24.9516   19.8190 C   0  0  0  0  0  0
  -29.9228  -15.7743   20.8258 N   0  0  0  0  0  0
  -31.5931  -18.2442   18.9686 N   0  3  0  0  0  0
  -31.4732  -12.5269   19.1516 H   0  0  0  0  0  0
  -30.3648  -11.4227   19.9162 H   0  0  0  0  0  0
  -29.7744  -11.7430   17.4913 H   0  0  0  0  0  0
  -29.6426  -13.4671   17.7308 H   0  0  0  0  0  0
  -27.8756  -11.2875   18.8867 H   0  0  0  0  0  0
  -27.3729  -12.5521   17.7966 H   0  0  0  0  0  0
  -27.6561  -14.2546   19.4981 H   0  0  0  0  0  0
  -28.7118  -12.1117   21.4060 H   0  0  0  0  0  0
  -28.4405  -13.7846   21.8157 H   0  0  0  0  0  0
  -25.2763   -9.5684   22.4751 H   0  0  0  0  0  0
  -24.0003   -7.4634   22.7466 H   0  0  0  0  0  0
  -21.0844   -8.8762   19.8946 H   0  0  0  0  0  0
  -22.3697  -10.9663   19.6150 H   0  0  0  0  0  0
  -21.2009   -7.6144   23.9716 H   0  0  0  0  0  0
  -21.1473   -6.0515   25.9075 H   0  0  0  0  0  0
  -22.0603   -2.7605   23.2839 H   0  0  0  0  0  0
  -22.4087  -11.9869   22.4786 H   0  0  0  0  0  0
  -21.1084  -13.1221   22.2582 H   0  0  0  0  0  0
  -24.6508  -15.8406   20.5124 H   0  0  0  0  0  0
  -26.2645  -15.6307   20.0615 H   0  0  0  0  0  0
  -26.7212  -32.5435   23.1123 H   0  0  0  0  0  0
  -25.0138  -33.9727   25.0466 H   0  0  0  0  0  0
  -22.7194  -31.3127   21.4122 H   0  0  0  0  0  0
  -23.3767  -35.9597   23.3281 H   0  0  0  0  0  0
  -24.3592  -36.8911   22.2056 H   0  0  0  0  0  0
  -23.7219  -37.6469   23.6662 H   0  0  0  0  0  0
  -26.1136  -31.5432   20.6211 H   0  0  0  0  0  0
  -26.8502  -30.8206   22.0194 H   0  0  0  0  0  0
  -28.1063  -28.9201   21.2305 H   0  0  0  0  0  0
  -25.9034  -26.0034   18.8887 H   0  0  0  0  0  0
  -23.9634  -27.3759   18.9511 H   0  0  0  0  0  0
  -23.7633  -30.6220   19.4124 H   0  0  0  0  0  0
  -22.7574  -29.2748   19.8512 H   0  0  0  0  0  0
  -25.1290  -36.1936   25.0824 H   0  0  0  0  0  0
  -20.9990  -28.3277   24.1391 H   0  0  0  0  0  0
  -20.5684  -26.2313   23.3605 H   0  0  0  0  0  0
  -21.6650  -26.7456   22.1189 H   0  0  0  0  0  0
  -19.6918  -25.6306   21.1234 H   0  0  0  0  0  0
  -19.6691  -27.3211   20.6741 H   0  0  0  0  0  0
  -17.4207  -26.6696   21.4019 H   0  0  0  0  0  0
  -18.0332  -26.0077   22.9005 H   0  0  0  0  0  0
  -19.7941  -30.7285   24.2260 H   0  0  0  0  0  0
  -17.5014  -31.6269   24.5175 H   0  0  0  0  0  0
  -15.5352  -30.2985   23.7668 H   0  0  0  0  0  0
  -15.8677  -28.0827   22.7062 H   0  0  0  0  0  0
  -24.5909  -30.7088   25.7802 H   0  0  0  0  0  0
  -24.8942  -32.2899   26.4908 H   0  0  0  0  0  0
  -25.8058  -30.8895   27.0244 H   0  0  0  0  0  0
  -26.2902  -29.6748   24.1248 H   0  0  0  0  0  0
  -27.4004  -29.7244   25.4737 H   0  0  0  0  0  0
  -27.8796  -30.4244   23.9468 H   0  0  0  0  0  0
  -27.2748  -33.3645   26.2010 H   0  0  0  0  0  0
  -28.3932  -32.6761   25.0327 H   0  0  0  0  0  0
  -28.0710  -31.8441   26.5459 H   0  0  0  0  0  0
  -28.2600  -38.0099   24.7506 H   0  0  0  0  0  0
  -28.1069  -36.2631   24.6294 H   0  0  0  0  0  0
  -27.2302  -37.1455   25.8872 H   0  0  0  0  0  0
  -20.9387  -29.8798   21.6887 H   0  0  0  0  0  0
  -26.0167  -38.2854   24.1405 H   0  0  0  0  0  0
  -28.6696  -21.0259   22.4654 H   0  0  0  0  0  0
  -30.5502  -21.1258   18.6209 H   0  0  0  0  0  0
  -28.4297  -18.0975   21.3809 H   0  0  0  0  0  0
  -29.5973  -18.3519   22.7212 H   0  0  0  0  0  0
  -31.1393  -19.5513   21.2709 H   0  0  0  0  0  0
  -31.4182  -17.2150   21.4681 H   0  0  0  0  0  0
  -29.4688  -18.0168   19.1500 H   0  0  0  0  0  0
  -27.8379  -23.0245   23.4446 H   0  0  0  0  0  0
  -26.5951  -23.4529   22.2685 H   0  0  0  0  0  0
  -27.9157  -24.5768   22.6215 H   0  0  0  0  0  0
  -30.7737  -23.1581   17.4402 H   0  0  0  0  0  0
  -30.1657  -24.6807   18.0722 H   0  0  0  0  0  0
  -29.0798  -23.5863   17.2016 H   0  0  0  0  0  0
  -26.9558  -24.7274   20.2370 H   0  0  0  0  0  0
  -27.7931  -24.9379   18.7391 H   0  0  0  0  0  0
  -28.9555  -15.6113   21.0635 H   0  0  0  0  0  0
  -32.3985  -18.4192   19.5412 H   0  0  0  0  0  0
  -31.5354  -18.9665   18.2750 H   0  0  0  0  0  0
  -31.7429  -17.3749   18.4887 H   0  0  0  0  0  0
  1 25  1  0  0  0
  1 30  2  0  0  0
  1 84  1  0  0  0
  2  3  1  0  0  0
  2 25  1  0  0  0
  2 86  1  0  0  0
  2 87  1  0  0  0
  3  4  1  0  0  0
  3 88  1  0  0  0
  3 89  1  0  0  0
  4  5  1  0  0  0
  4 90  1  0  0  0
  4 91  1  0  0  0
  5  6  1  0  0  0
  5 26  1  0  0  0
  5 92  1  0  0  0
  6 25  1  0  0  0
  6 93  1  0  0  0
  6 94  1  0  0  0
  7  8  2  0  0  0
  7 26  1  0  0  0
  7 29  1  0  0  0
  8  9  1  0  0  0
  8 22  1  0  0  0
  9 10  1  0  0  0
  9 27  2  0  0  0
 10 11  2  0  0  0
 10 15  1  0  0  0
 11 12  1  0  0  0
 11 95  1  0  0  0
 12 13  2  0  0  0
 12 96  1  0  0  0
 13 14  1  0  0  0
 13 31  1  0  0  0
 14 15  2  0  0  0
 14 97  1  0  0  0
 15 98  1  0  0  0
 16 17  2  0  0  0
 16 21  1  0  0  0
 16 31  1  0  0  0
 17 18  1  0  0  0
 17 99  1  0  0  0
 18 19  2  0  0  0
 18100  1  0  0  0
 19 20  1  0  0  0
 19 24  1  0  0  0
 20 21  2  0  0  0
 20101  1  0  0  0
 21 23  1  0  0  0
 22 28  1  0  0  0
 22 32  2  0  0  0
 26 27  1  0  0  0
 28102  1  0  0  0
 28103  1  0  0  0
 29104  1  0  0  0
 29105  1  0  0  0
 33 34  1  0  0  0
 33 66  1  0  0  0
 33 70  2  0  0  0
 34 36  1  0  0  0
 34 59  1  0  0  0
 34106  1  0  0  0
 35 44  2  0  0  0
 35 45  1  0  0  0
 35 68  1  0  0  0
 36 56  1  0  0  0
 36107  1  0  0  0
 37 39  1  0  0  0
 37 47  1  0  0  0
 37 66  1  0  0  0
 37108  1  0  0  0
 38 43  2  0  0  0
 38 46  1  0  0  0
 38 47  1  0  0  0
 39 64  1  0  0  0
 39 67  2  0  0  0
 40 52  1  0  0  0
 40 53  2  0  0  0
 40 58  1  0  0  0
 41109  1  0  0  0
 41110  1  0  0  0
 41111  1  0  0  0
 41 48  1  0  0  0
 42 43  1  0  0  0
 42 66  1  0  0  0
 42112  1  0  0  0
 42113  1  0  0  0
 43 44  1  0  0  0
 44114  1  0  0  0
 45 46  2  0  0  0
 45115  1  0  0  0
 46116  1  0  0  0
 47117  1  0  0  0
 47118  1  0  0  0
 48 56  1  0  0  0
 48 65  1  0  0  0
 48119  1  0  0  0
 49 50  1  0  0  0
 49 53  1  0  0  0
 49 64  1  0  0  0
 49120  1  0  0  0
 50 51  1  0  0  0
 50121  1  0  0  0
 50122  1  0  0  0
 51 52  1  0  0  0
 51123  1  0  0  0
 51124  1  0  0  0
 52125  1  0  0  0
 52126  1  0  0  0
 53 54  1  0  0  0
 54 55  2  0  0  0
 54127  1  0  0  0
 55 57  1  0  0  0
 55128  1  0  0  0
 56 69  2  0  0  0
 57 58  2  0  0  0
 57129  1  0  0  0
 58130  1  0  0  0
 59 60  1  0  0  0
 59 61  1  0  0  0
 59 62  1  0  0  0
 60131  1  0  0  0
 60132  1  0  0  0
 60133  1  0  0  0
 61134  1  0  0  0
 61135  1  0  0  0
 61136  1  0  0  0
 62137  1  0  0  0
 62138  1  0  0  0
 62139  1  0  0  0
 63 65  1  0  0  0
 63140  1  0  0  0
 63141  1  0  0  0
 63142  1  0  0  0
 64143  1  0  0  0
 65144  1  0  0  0
 68 83  1  0  0  0
 71 73  2  0  0  0
 71 74  1  0  0  0
 71145  1  0  0  0
 72 73  1  0  0  0
 72 75  2  0  0  0
 72146  1  0  0  0
 73 78  1  0  0  0
 74 76  2  0  0  0
 74 81  1  0  0  0
 75 76  1  0  0  0
 75 82  1  0  0  0
 76 83  1  0  0  0
 77 78  1  0  0  0
 77 79  1  0  0  0
 77147  1  0  0  0
 77148  1  0  0  0
 78 80  1  0  0  0
 78149  1  0  0  0
 79 80  1  0  0  0
 79 84  1  0  0  0
 79150  1  0  0  0
 80 85  1  0  0  0
 80151  1  0  0  0
 81152  1  0  0  0
 81153  1  0  0  0
 81154  1  0  0  0
 82155  1  0  0  0
 82156  1  0  0  0
 82157  1  0  0  0
 83158  1  0  0  0
 83159  1  0  0  0
 84160  1  0  0  0
 85161  1  0  0  0
 85162  1  0  0  0
 85163  1  0  0  0
M  CHG  1  85   1
M  ISO  4   1 100  68 101  83 101  84 100
M  END
> <chiral flag>
0

> <version>
0

> <s_m_source_file>
/data/baiqing/PycharmProjects/Reinvent-master-3.2/result/LINK_invent/BTK/process_docking_weight1_custom_sum_contain_oxygen_bond_distance_aromatic_linkinvent_7_9_3/rearranged_h_0167.sdf

> <i_m_source_file_index>
87

> <r_mmod_Potential_Energy-OPLS-2005>
-99.3660049438477

> <r_mmod_Stretch_Energy-OPLS-2005>
92.9503860473633

> <r_mmod_Bend_Energy-OPLS-2005>
183.383041381836

> <r_mmod_Torsional_Energy-OPLS-2005>
277.74853515625

> <r_mmod_Improper_Torsional_Energy-OPLS-2005>
7.405442237854

> <r_mmod_Van_der_Waal_Energy-OPLS-2005>
154.298156738281

> <r_mmod_Electrostatic_Energy-OPLS-2005>
-387.179534912109

> <r_mmod_Solvation_Energy-OPLS-2005>
-494.134338378906

> <b_mmod_Minimization_Converged-OPLS-2005>
0

> <r_mmod_RMS_Derivative-OPLS-2005>
0.74397212266922

$$$$
87
                    3D
 Structure written by MMmdl.
164173  0  0  1  0            999 V2000
  -30.5920  -14.7951   20.4595 C   0  0  0  0  0  0
  -30.4395  -12.4915   19.4707 C   0  0  0  0  0  0
  -29.5114  -12.5093   18.2358 C   0  0  0  0  0  0
  -28.0404  -12.3217   18.6557 C   0  0  0  0  0  0
  -27.6392  -13.2326   19.8462 C   0  0  2  0  0  0
  -28.6865  -13.1879   20.9792 C   0  0  0  0  0  0
  -25.2506  -13.8192   20.5697 C   0  0  0  0  0  0
  -24.1802  -13.0435   20.9215 C   0  0  0  0  0  0
  -24.6396  -11.6915   20.8755 C   0  0  0  0  0  0
  -23.9073  -10.4292   21.0413 C   0  0  0  0  0  0
  -24.3622   -9.4205   21.9191 C   0  0  0  0  0  0
  -23.6294   -8.2242   22.0759 C   0  0  0  0  0  0
  -22.4279   -8.0282   21.3545 C   0  0  0  0  0  0
  -21.9917   -9.0256   20.4647 C   0  0  0  0  0  0
  -22.7246  -10.2134   20.3060 C   0  0  0  0  0  0
  -21.6851   -6.0738   22.5279 C   0  0  0  0  0  0
  -21.4011   -6.5640   23.8212 C   0  0  0  0  0  0
  -21.3657   -5.6794   24.9175 C   0  0  0  0  0  0
  -21.6045   -4.3056   24.7226 C   0  0  0  0  0  0
  -21.8819   -3.8148   23.4347 C   0  0  0  0  0  0
  -21.9192   -4.6966   22.3403 C   0  0  0  0  0  0
  -22.7823  -13.5218   21.1874 C   0  0  0  0  0  0
  -22.1663   -4.2151   21.0982 F   0  0  0  0  0  0
  -21.5629   -3.4541   25.7740 F   0  0  0  0  0  0
  -29.9781  -13.5603   20.3881 N   0  0  0  0  0  0
  -26.2931  -12.9399   20.3275 N   0  0  0  0  0  0
  -25.9326  -11.6542   20.5756 N   0  0  0  0  0  0
  -22.0469  -12.8206   22.0428 N   0  0  0  0  0  0
  -25.4178  -15.1918   20.4098 N   0  0  0  0  0  0
  -31.7903  -14.8934   20.1828 O   0  0  0  0  0  0
  -21.6639   -6.8881   21.4241 O   0  0  0  0  0  0
  -22.3508  -14.5524   20.6722 O   0  0  0  0  0  0
  -24.6363  -31.8521   23.1962 C   0  0  0  0  0  0
  -25.9168  -32.4736   23.8322 C   0  0  1  0  0  0
  -27.2154  -27.2162   20.1325 C   0  0  0  0  0  0
  -25.5945  -33.8540   24.2242 N   0  0  0  0  0  0
  -23.4347  -30.4761   21.5408 C   0  0  2  0  0  0
  -24.8818  -28.9200   20.1115 C   0  0  0  0  0  0
  -22.7530  -29.4590   22.4891 C   0  0  0  0  0  0
  -18.0298  -28.1392   22.8488 C   0  0  0  0  0  0
  -24.1479  -36.7259   23.2645 C   0  0  0  0  0  0
  -25.9867  -30.7520   21.3832 C   0  0  0  0  0  0
  -26.0581  -29.3719   20.7224 C   0  0  0  0  0  0
  -27.2279  -28.5354   20.7179 C   0  0  0  0  0  0
  -26.0087  -26.8471   19.4931 C   0  0  0  0  0  0
  -24.8654  -27.6674   19.4850 C   0  0  0  0  0  0
  -23.6560  -29.8130   20.1571 C   0  0  0  0  0  0
  -25.4111  -36.3053   24.0328 C   0  0  1  0  0  0
  -20.5910  -28.3707   23.1252 C   0  0  2  0  0  0
  -20.6783  -26.9419   22.5401 C   0  0  0  0  0  0
  -19.5750  -26.6384   21.5214 C   0  0  0  0  0  0
  -18.1932  -26.7931   22.1627 C   0  0  0  0  0  0
  -19.1556  -28.8866   23.2861 C   0  0  0  0  0  0
  -18.9478  -30.1466   23.8876 C   0  0  0  0  0  0
  -17.6478  -30.6590   24.0564 C   0  0  0  0  0  0
  -25.9062  -34.9428   23.5088 C   0  0  0  0  0  0
  -16.5366  -29.9084   23.6340 C   0  0  0  0  0  0
  -16.7287  -28.6505   23.0358 C   0  0  0  0  0  0
  -26.4520  -31.6578   25.0729 C   0  0  0  0  0  0
  -25.3730  -31.3721   26.1438 C   0  0  0  0  0  0
  -27.0405  -30.2998   24.6253 C   0  0  0  0  0  0
  -27.6055  -32.4344   25.7508 C   0  0  0  0  0  0
  -27.5567  -37.1784   24.8471 C   0  0  0  0  0  0
  -21.4233  -29.3047   22.3633 N   0  0  0  0  0  0
  -26.4278  -37.3762   23.9419 N   0  0  0  0  0  0
  -24.7054  -31.0450   22.0959 N   0  0  0  0  0  0
  -23.4213  -28.8127   23.3003 O   0  0  0  0  0  0
  -28.2950  -26.2859   20.1890 O   0  0  0  0  0  0
  -26.5639  -34.8910   22.4660 O   0  0  0  0  0  0
  -23.5500  -32.1369   23.7226 O   0  0  0  0  0  0
  -31.4485  -22.8848   19.6007 C   0  0  0  0  0  0
  -30.4643  -23.9123   19.5793 C   0  0  0  0  0  0
  -31.0856  -21.5527   19.9516 C   0  0  0  0  0  0
  -29.1536  -23.6356   20.0407 C   0  0  0  0  0  0
  -29.7389  -21.2479   20.2832 C   0  0  0  0  0  0
  -29.5559  -17.9785   22.1624 C   0  0  0  0  0  0
  -29.5133  -19.5286   22.0396 C   0  0  0  0  0  0
  -29.6371  -18.5958   19.8787 C   0  0  0  0  0  0
  -30.1539  -17.4220   20.8573 C   0  0  2  0  0  0
  -32.9082  -23.1896   19.2502 C   0  0  0  0  0  0
  -30.8004  -25.3013   19.0332 C   0  0  0  0  0  0
  -32.1681  -20.4667   19.9697 C   0  0  0  0  0  0
  -28.0185  -24.7891   20.0393 C   0  0  0  0  0  0
  -28.8310  -22.3061   20.3612 N   0  0  0  0  0  0
  -29.3402  -19.8819   20.6312 N   0  0  0  0  0  0
  -29.8028  -15.9303   20.6495 N   0  0  0  0  0  0
  -31.4761  -12.6349   19.1615 H   0  0  0  0  0  0
  -30.4060  -11.5208   19.9679 H   0  0  0  0  0  0
  -29.8020  -11.7272   17.5330 H   0  0  0  0  0  0
  -29.6231  -13.4558   17.7044 H   0  0  0  0  0  0
  -27.9118  -11.2751   18.9353 H   0  0  0  0  0  0
  -27.3774  -12.4924   17.8064 H   0  0  0  0  0  0
  -27.6253  -14.2490   19.4522 H   0  0  0  0  0  0
  -28.7384  -12.1933   21.4243 H   0  0  0  0  0  0
  -28.4141  -13.8708   21.7857 H   0  0  0  0  0  0
  -25.2766   -9.5680   22.4767 H   0  0  0  0  0  0
  -24.0002   -7.4633   22.7478 H   0  0  0  0  0  0
  -21.0850   -8.8776   19.8950 H   0  0  0  0  0  0
  -22.3709  -10.9675   19.6171 H   0  0  0  0  0  0
  -21.2000   -7.6147   23.9715 H   0  0  0  0  0  0
  -21.1478   -6.0525   25.9077 H   0  0  0  0  0  0
  -22.0599   -2.7611   23.2848 H   0  0  0  0  0  0
  -22.4089  -11.9868   22.4813 H   0  0  0  0  0  0
  -21.1088  -13.1228   22.2640 H   0  0  0  0  0  0
  -24.6438  -15.8395   20.5108 H   0  0  0  0  0  0
  -26.2566  -15.6329   20.0561 H   0  0  0  0  0  0
  -26.7235  -32.5371   23.1060 H   0  0  0  0  0  0
  -25.0081  -33.9673   25.0381 H   0  0  0  0  0  0
  -22.7332  -31.2999   21.3930 H   0  0  0  0  0  0
  -23.3751  -35.9578   23.3304 H   0  0  0  0  0  0
  -24.3562  -36.8893   22.2060 H   0  0  0  0  0  0
  -23.7223  -37.6450   23.6683 H   0  0  0  0  0  0
  -26.1335  -31.5125   20.6148 H   0  0  0  0  0  0
  -26.8607  -30.7987   22.0210 H   0  0  0  0  0  0
  -28.1268  -28.8777   21.2111 H   0  0  0  0  0  0
  -25.8987  -25.8956   18.9993 H   0  0  0  0  0  0
  -23.9649  -27.3161   19.0002 H   0  0  0  0  0  0
  -23.7872  -30.5905   19.4036 H   0  0  0  0  0  0
  -22.7724  -29.2523   19.8473 H   0  0  0  0  0  0
  -25.1291  -36.1888   25.0819 H   0  0  0  0  0  0
  -21.0008  -28.3290   24.1370 H   0  0  0  0  0  0
  -20.5687  -26.2318   23.3611 H   0  0  0  0  0  0
  -21.6647  -26.7430   22.1191 H   0  0  0  0  0  0
  -19.6906  -25.6294   21.1245 H   0  0  0  0  0  0
  -19.6681  -27.3190   20.6741 H   0  0  0  0  0  0
  -17.4202  -26.6689   21.4028 H   0  0  0  0  0  0
  -18.0321  -26.0071   22.9019 H   0  0  0  0  0  0
  -19.7957  -30.7290   24.2229 H   0  0  0  0  0  0
  -17.5033  -31.6266   24.5171 H   0  0  0  0  0  0
  -15.5368  -30.2981   23.7676 H   0  0  0  0  0  0
  -15.8687  -28.0822   22.7078 H   0  0  0  0  0  0
  -24.5913  -30.7070   25.7750 H   0  0  0  0  0  0
  -24.8914  -32.2888   26.4853 H   0  0  0  0  0  0
  -25.8037  -30.8899   27.0223 H   0  0  0  0  0  0
  -26.3025  -29.6705   24.1269 H   0  0  0  0  0  0
  -27.4084  -29.7294   25.4792 H   0  0  0  0  0  0
  -27.8890  -30.4280   23.9527 H   0  0  0  0  0  0
  -27.2655  -33.3665   26.2031 H   0  0  0  0  0  0
  -28.3888  -32.6877   25.0350 H   0  0  0  0  0  0
  -28.0699  -31.8510   26.5468 H   0  0  0  0  0  0
  -28.2581  -38.0083   24.7529 H   0  0  0  0  0  0
  -28.1071  -36.2618   24.6293 H   0  0  0  0  0  0
  -27.2284  -37.1424   25.8873 H   0  0  0  0  0  0
  -20.9426  -29.8782   21.6842 H   0  0  0  0  0  0
  -26.0146  -38.2826   24.1442 H   0  0  0  0  0  0
  -28.5342  -17.6140   22.2780 H   0  0  0  0  0  0
  -30.1115  -17.6572   23.0445 H   0  0  0  0  0  0
  -30.4427  -19.9606   22.4136 H   0  0  0  0  0  0
  -28.7043  -19.9481   22.6390 H   0  0  0  0  0  0
  -28.7042  -18.2828   19.4095 H   0  0  0  0  0  0
  -30.3362  -18.7624   19.0599 H   0  0  0  0  0  0
  -31.2401  -17.4963   20.9265 H   0  0  0  0  0  0
  -33.1335  -24.2337   19.0551 H   0  0  0  0  0  0
  -33.2174  -22.6184   18.3746 H   0  0  0  0  0  0
  -33.5612  -22.9273   20.0816 H   0  0  0  0  0  0
  -31.5368  -25.2720   18.2326 H   0  0  0  0  0  0
  -31.1640  -25.9555   19.8263 H   0  0  0  0  0  0
  -29.9432  -25.7723   18.5570 H   0  0  0  0  0  0
  -33.1468  -20.8361   20.2655 H   0  0  0  0  0  0
  -32.2693  -20.0143   18.9833 H   0  0  0  0  0  0
  -31.9580  -19.6824   20.6908 H   0  0  0  0  0  0
  -27.2757  -24.5159   20.7898 H   0  0  0  0  0  0
  -27.5430  -24.6387   19.0717 H   0  0  0  0  0  0
  -28.8236  -15.7160   20.7609 H   0  0  0  0  0  0
  1 25  1  0  0  0
  1 30  2  0  0  0
  1 86  1  0  0  0
  2  3  1  0  0  0
  2 25  1  0  0  0
  2 87  1  0  0  0
  2 88  1  0  0  0
  3  4  1  0  0  0
  3 89  1  0  0  0
  3 90  1  0  0  0
  4  5  1  0  0  0
  4 91  1  0  0  0
  4 92  1  0  0  0
  5  6  1  0  0  0
  5 26  1  0  0  0
  5 93  1  0  0  0
  6 25  1  0  0  0
  6 94  1  0  0  0
  6 95  1  0  0  0
  7  8  2  0  0  0
  7 26  1  0  0  0
  7 29  1  0  0  0
  8  9  1  0  0  0
  8 22  1  0  0  0
  9 10  1  0  0  0
  9 27  2  0  0  0
 10 11  2  0  0  0
 10 15  1  0  0  0
 11 12  1  0  0  0
 11 96  1  0  0  0
 12 13  2  0  0  0
 12 97  1  0  0  0
 13 14  1  0  0  0
 13 31  1  0  0  0
 14 15  2  0  0  0
 14 98  1  0  0  0
 15 99  1  0  0  0
 16 17  2  0  0  0
 16 21  1  0  0  0
 16 31  1  0  0  0
 17 18  1  0  0  0
 17100  1  0  0  0
 18 19  2  0  0  0
 18101  1  0  0  0
 19 20  1  0  0  0
 19 24  1  0  0  0
 20 21  2  0  0  0
 20102  1  0  0  0
 21 23  1  0  0  0
 22 28  1  0  0  0
 22 32  2  0  0  0
 26 27  1  0  0  0
 28103  1  0  0  0
 28104  1  0  0  0
 29105  1  0  0  0
 29106  1  0  0  0
 33 34  1  0  0  0
 33 66  1  0  0  0
 33 70  2  0  0  0
 34 36  1  0  0  0
 34 59  1  0  0  0
 34107  1  0  0  0
 35 44  2  0  0  0
 35 45  1  0  0  0
 35 68  1  0  0  0
 36 56  1  0  0  0
 36108  1  0  0  0
 37 39  1  0  0  0
 37 47  1  0  0  0
 37 66  1  0  0  0
 37109  1  0  0  0
 38 43  2  0  0  0
 38 46  1  0  0  0
 38 47  1  0  0  0
 39 64  1  0  0  0
 39 67  2  0  0  0
 40 52  1  0  0  0
 40 53  2  0  0  0
 40 58  1  0  0  0
 41110  1  0  0  0
 41111  1  0  0  0
 41112  1  0  0  0
 41 48  1  0  0  0
 42 43  1  0  0  0
 42 66  1  0  0  0
 42113  1  0  0  0
 42114  1  0  0  0
 43 44  1  0  0  0
 44115  1  0  0  0
 45 46  2  0  0  0
 45116  1  0  0  0
 46117  1  0  0  0
 47118  1  0  0  0
 47119  1  0  0  0
 48 56  1  0  0  0
 48 65  1  0  0  0
 48120  1  0  0  0
 49 50  1  0  0  0
 49 53  1  0  0  0
 49 64  1  0  0  0
 49121  1  0  0  0
 50 51  1  0  0  0
 50122  1  0  0  0
 50123  1  0  0  0
 51 52  1  0  0  0
 51124  1  0  0  0
 51125  1  0  0  0
 52126  1  0  0  0
 52127  1  0  0  0
 53 54  1  0  0  0
 54 55  2  0  0  0
 54128  1  0  0  0
 55 57  1  0  0  0
 55129  1  0  0  0
 56 69  2  0  0  0
 57 58  2  0  0  0
 57130  1  0  0  0
 58131  1  0  0  0
 59 60  1  0  0  0
 59 61  1  0  0  0
 59 62  1  0  0  0
 60132  1  0  0  0
 60133  1  0  0  0
 60134  1  0  0  0
 61135  1  0  0  0
 61136  1  0  0  0
 61137  1  0  0  0
 62138  1  0  0  0
 62139  1  0  0  0
 62140  1  0  0  0
 63 65  1  0  0  0
 63141  1  0  0  0
 63142  1  0  0  0
 63143  1  0  0  0
 64144  1  0  0  0
 65145  1  0  0  0
 68 83  1  0  0  0
 71 72  2  0  0  0
 71 73  1  0  0  0
 71 80  1  0  0  0
 72 74  1  0  0  0
 72 81  1  0  0  0
 73 75  2  0  0  0
 73 82  1  0  0  0
 74 83  1  0  0  0
 74 84  2  0  0  0
 75 84  1  0  0  0
 75 85  1  0  0  0
 76 77  1  0  0  0
 76 79  1  0  0  0
 76146  1  0  0  0
 76147  1  0  0  0
 77 85  1  0  0  0
 77148  1  0  0  0
 77149  1  0  0  0
 78 79  1  0  0  0
 78 85  1  0  0  0
 78150  1  0  0  0
 78151  1  0  0  0
 79 86  1  0  0  0
 79152  1  0  0  0
 80153  1  0  0  0
 80154  1  0  0  0
 80155  1  0  0  0
 81156  1  0  0  0
 81157  1  0  0  0
 81158  1  0  0  0
 82159  1  0  0  0
 82160  1  0  0  0
 82161  1  0  0  0
 83162  1  0  0  0
 83163  1  0  0  0
 86164  1  0  0  0
M  ISO  4   1 100  68 101  83 101  86 100
M  END
> <chiral flag>
0

> <version>
0

> <s_m_source_file>
/data/baiqing/PycharmProjects/Reinvent-master-3.2/result/LINK_invent/BTK/process_docking_weight1_custom_sum_contain_oxygen_bond_distance_aromatic_linkinvent_7_9_3/rearranged_h_0167.sdf

> <i_m_source_file_index>
88

> <r_mmod_Potential_Energy-OPLS-2005>
90.1443557739258

> <r_mmod_Stretch_Energy-OPLS-2005>
152.791915893555

> <r_mmod_Bend_Energy-OPLS-2005>
216.820938110352

> <r_mmod_Torsional_Energy-OPLS-2005>
284.119506835938

> <r_mmod_Improper_Torsional_Energy-OPLS-2005>
9.04523658752441

> <r_mmod_Van_der_Waal_Energy-OPLS-2005>
157.563812255859

> <r_mmod_Electrostatic_Energy-OPLS-2005>
-591.698059082031

> <r_mmod_Solvation_Energy-OPLS-2005>
-251.248886108398

> <b_mmod_Minimization_Converged-OPLS-2005>
0

> <r_mmod_RMS_Derivative-OPLS-2005>
0.632049679756165

$$$$
88
                    3D
 Structure written by MMmdl.
169178  0  0  1  0            999 V2000
  -30.4951  -15.0586   20.4919 C   0  0  0  0  0  0
  -30.4438  -12.6842   19.4940 C   0  0  0  0  0  0
  -29.5110  -12.5701   18.2584 C   0  0  0  0  0  0
  -28.0483  -12.3251   18.6735 C   0  0  0  0  0  0
  -27.6282  -13.2323   19.8545 C   0  0  2  0  0  0
  -28.6897  -13.1759   20.9760 C   0  0  0  0  0  0
  -25.2406  -13.8150   20.5652 C   0  0  0  0  0  0
  -24.1745  -13.0418   20.9232 C   0  0  0  0  0  0
  -24.6332  -11.6904   20.8800 C   0  0  0  0  0  0
  -23.9019  -10.4278   21.0466 C   0  0  0  0  0  0
  -24.3596   -9.4200   21.9241 C   0  0  0  0  0  0
  -23.6309   -8.2198   22.0765 C   0  0  0  0  0  0
  -22.4265   -8.0257   21.3582 C   0  0  0  0  0  0
  -21.9900   -9.0214   20.4666 C   0  0  0  0  0  0
  -22.7203  -10.2126   20.3078 C   0  0  0  0  0  0
  -21.6841   -6.0744   22.5315 C   0  0  0  0  0  0
  -21.4045   -6.5660   23.8275 C   0  0  0  0  0  0
  -21.3641   -5.6799   24.9201 C   0  0  0  0  0  0
  -21.5983   -4.3060   24.7256 C   0  0  0  0  0  0
  -21.8839   -3.8175   23.4389 C   0  0  0  0  0  0
  -21.9209   -4.6969   22.3446 C   0  0  0  0  0  0
  -22.7754  -13.5221   21.1878 C   0  0  0  0  0  0
  -22.1677   -4.2165   21.1024 F   0  0  0  0  0  0
  -21.5570   -3.4541   25.7785 F   0  0  0  0  0  0
  -29.9178  -13.7635   20.4005 N   0  0  0  0  0  0
  -26.2865  -12.9345   20.3365 N   0  0  0  0  0  0
  -25.9276  -11.6505   20.5861 N   0  0  0  0  0  0
  -22.0412  -12.8173   22.0389 N   0  0  0  0  0  0
  -25.3928  -15.1864   20.3945 N   0  0  0  0  0  0
  -31.6814  -15.0849   20.1300 O   0  0  0  0  0  0
  -21.6609   -6.8860   21.4284 O   0  0  0  0  0  0
  -22.3432  -14.5520   20.6774 O   0  0  0  0  0  0
  -24.6451  -31.8369   23.1784 C   0  0  0  0  0  0
  -25.9200  -32.4644   23.8228 C   0  0  1  0  0  0
  -27.2519  -27.0824   20.1746 C   0  0  0  0  0  0
  -25.5932  -33.8480   24.2119 N   0  0  0  0  0  0
  -23.4595  -30.4450   21.5199 C   0  0  2  0  0  0
  -24.9204  -28.8613   20.1084 C   0  0  0  0  0  0
  -22.7596  -29.4475   22.4807 C   0  0  0  0  0  0
  -18.0314  -28.1399   22.8516 C   0  0  0  0  0  0
  -24.1490  -36.7235   23.2644 C   0  0  0  0  0  0
  -26.0169  -30.6963   21.3906 C   0  0  0  0  0  0
  -26.0910  -29.2998   20.7364 C   0  0  0  0  0  0
  -27.2509  -28.4268   20.7558 C   0  0  0  0  0  0
  -26.0539  -26.7639   19.4914 C   0  0  0  0  0  0
  -24.9142  -27.6058   19.4751 C   0  0  0  0  0  0
  -23.6975  -29.7645   20.1432 C   0  0  0  0  0  0
  -25.4122  -36.2995   24.0289 C   0  0  1  0  0  0
  -20.5940  -28.3703   23.1248 C   0  0  2  0  0  0
  -20.6809  -26.9402   22.5411 C   0  0  0  0  0  0
  -19.5758  -26.6371   21.5244 C   0  0  0  0  0  0
  -18.1938  -26.7943   22.1650 C   0  0  0  0  0  0
  -19.1583  -28.8868   23.2873 C   0  0  0  0  0  0
  -18.9494  -30.1483   23.8843 C   0  0  0  0  0  0
  -17.6490  -30.6584   24.0566 C   0  0  0  0  0  0
  -25.9081  -34.9367   23.5001 C   0  0  0  0  0  0
  -16.5372  -29.9082   23.6358 C   0  0  0  0  0  0
  -16.7287  -28.6512   23.0346 C   0  0  0  0  0  0
  -26.4520  -31.6545   25.0687 C   0  0  0  0  0  0
  -25.3711  -31.3795   26.1383 C   0  0  0  0  0  0
  -27.0418  -30.2911   24.6382 C   0  0  0  0  0  0
  -27.5997  -32.4356   25.7506 C   0  0  0  0  0  0
  -27.5566  -37.1759   24.8460 C   0  0  0  0  0  0
  -21.4291  -29.3021   22.3603 N   0  0  0  0  0  0
  -26.4271  -37.3717   23.9419 N   0  0  0  0  0  0
  -24.7257  -31.0172   22.0836 N   0  0  0  0  0  0
  -23.4200  -28.8048   23.3000 O   0  0  0  0  0  0
  -28.3200  -26.0950   20.3175 O   0  0  0  0  0  0
  -26.5687  -34.8880   22.4595 O   0  0  0  0  0  0
  -23.5539  -32.1279   23.6916 O   0  0  0  0  0  0
  -32.2476  -18.0724   22.9015 C   0  0  0  0  0  0
  -31.1551  -17.3308   22.4460 C   0  0  0  0  0  0
  -32.6242  -19.2371   22.2266 C   0  0  0  0  0  0
  -31.7381  -19.8090   21.2705 C   0  0  0  0  0  0
  -30.5062  -19.1569   20.8965 C   0  0  0  0  0  0
  -30.5060  -17.6452   21.2150 C   0  0  0  0  0  0
  -30.5787  -16.2162   23.3411 C   0  0  0  0  0  0
  -29.0398  -16.0573   23.1194 C   0  0  0  0  0  0
  -28.5842  -16.2594   21.6351 C   0  0  1  0  0  0
  -33.9194  -19.9184   22.6672 C   0  0  0  0  0  0
  -32.1336  -21.1768   20.7165 C   0  0  0  0  0  0
  -27.6496  -17.4843   21.5189 C   0  0  0  0  0  0
  -29.2779  -20.2451   20.5084 C   0  0  0  0  0  0
  -28.7814  -23.1251   20.7038 C   0  0  0  0  0  0
  -28.3812  -24.5735   19.8527 C   0  0  0  0  0  0
  -29.8005  -16.3312   20.7983 N   0  0  0  0  0  0
  -29.3625  -21.7837   20.0192 N   0  3  0  0  0  0
  -31.4648  -12.8827   19.1658 H   0  0  0  0  0  0
  -30.5076  -11.7286   20.0160 H   0  0  0  0  0  0
  -29.8466  -11.7665   17.6053 H   0  0  0  0  0  0
  -29.5683  -13.4894   17.6710 H   0  0  0  0  0  0
  -27.9528  -11.2811   18.9758 H   0  0  0  0  0  0
  -27.3770  -12.4522   17.8240 H   0  0  0  0  0  0
  -27.6024  -14.2469   19.4592 H   0  0  0  0  0  0
  -28.8387  -12.1385   21.2799 H   0  0  0  0  0  0
  -28.3851  -13.6371   21.9072 H   0  0  0  0  0  0
  -25.2756   -9.5671   22.4814 H   0  0  0  0  0  0
  -24.0052   -7.4512   22.7376 H   0  0  0  0  0  0
  -21.0856   -8.8673   19.8924 H   0  0  0  0  0  0
  -22.3638  -10.9631   19.6172 H   0  0  0  0  0  0
  -21.2089   -7.6187   23.9811 H   0  0  0  0  0  0
  -21.1396   -6.0518   25.9103 H   0  0  0  0  0  0
  -22.0648   -2.7632   23.2909 H   0  0  0  0  0  0
  -22.4013  -11.9904   22.4877 H   0  0  0  0  0  0
  -21.1043  -13.1182   22.2577 H   0  0  0  0  0  0
  -24.6365  -15.8413   20.5527 H   0  0  0  0  0  0
  -26.2407  -15.6465   20.0964 H   0  0  0  0  0  0
  -26.7285  -32.5251   23.0988 H   0  0  0  0  0  0
  -25.0083  -33.9640   25.0256 H   0  0  0  0  0  0
  -22.7624  -31.2670   21.3485 H   0  0  0  0  0  0
  -23.3751  -35.9578   23.3277 H   0  0  0  0  0  0
  -24.3578  -36.8902   22.2068 H   0  0  0  0  0  0
  -23.7260  -37.6406   23.6740 H   0  0  0  0  0  0
  -26.1875  -31.4531   20.6195 H   0  0  0  0  0  0
  -26.8788  -30.7431   22.0449 H   0  0  0  0  0  0
  -28.1353  -28.7611   21.2804 H   0  0  0  0  0  0
  -25.9562  -25.8134   18.9892 H   0  0  0  0  0  0
  -24.0177  -27.2654   18.9774 H   0  0  0  0  0  0
  -23.8398  -30.5337   19.3818 H   0  0  0  0  0  0
  -22.8203  -29.1971   19.8358 H   0  0  0  0  0  0
  -25.1326  -36.1778   25.0782 H   0  0  0  0  0  0
  -21.0040  -28.3276   24.1368 H   0  0  0  0  0  0
  -20.5735  -26.2304   23.3632 H   0  0  0  0  0  0
  -21.6676  -26.7419   22.1186 H   0  0  0  0  0  0
  -19.6914  -25.6281   21.1267 H   0  0  0  0  0  0
  -19.6695  -27.3219   20.6803 H   0  0  0  0  0  0
  -17.4227  -26.6728   21.4022 H   0  0  0  0  0  0
  -18.0280  -26.0083   22.9028 H   0  0  0  0  0  0
  -19.7962  -30.7358   24.2137 H   0  0  0  0  0  0
  -17.5016  -31.6251   24.5200 H   0  0  0  0  0  0
  -15.5365  -30.2932   23.7702 H   0  0  0  0  0  0
  -15.8715  -28.0804   22.7029 H   0  0  0  0  0  0
  -24.5885  -30.7140   25.7758 H   0  0  0  0  0  0
  -24.8921  -32.2998   26.4706 H   0  0  0  0  0  0
  -25.7971  -30.9049   27.0230 H   0  0  0  0  0  0
  -26.3077  -29.6587   24.1382 H   0  0  0  0  0  0
  -27.3963  -29.7270   25.5033 H   0  0  0  0  0  0
  -27.9013  -30.4097   23.9791 H   0  0  0  0  0  0
  -27.2536  -33.3704   26.1953 H   0  0  0  0  0  0
  -28.3896  -32.6845   25.0405 H   0  0  0  0  0  0
  -28.0591  -31.8574   26.5535 H   0  0  0  0  0  0
  -28.2528  -38.0103   24.7507 H   0  0  0  0  0  0
  -28.1080  -36.2600   24.6254 H   0  0  0  0  0  0
  -27.2276  -37.1381   25.8861 H   0  0  0  0  0  0
  -20.9453  -29.8703   21.6798 H   0  0  0  0  0  0
  -26.0082  -38.2762   24.1432 H   0  0  0  0  0  0
  -32.8119  -17.7349   23.7627 H   0  0  0  0  0  0
  -30.7647  -16.4215   24.3964 H   0  0  0  0  0  0
  -31.0978  -15.2784   23.1319 H   0  0  0  0  0  0
  -28.5446  -16.8100   23.7331 H   0  0  0  0  0  0
  -28.6859  -15.1090   23.5193 H   0  0  0  0  0  0
  -27.9241  -15.4896   21.2763 H   0  0  0  0  0  0
  -34.4304  -19.3493   23.4487 H   0  0  0  0  0  0
  -33.7122  -20.9131   23.0688 H   0  0  0  0  0  0
  -34.6166  -20.0143   21.8317 H   0  0  0  0  0  0
  -31.7218  -21.9902   21.3210 H   0  0  0  0  0  0
  -31.8241  -21.2850   19.6802 H   0  0  0  0  0  0
  -33.2119  -21.3140   20.6783 H   0  0  0  0  0  0
  -28.0386  -18.3406   22.0582 H   0  0  0  0  0  0
  -26.6816  -17.2684   21.9751 H   0  0  0  0  0  0
  -27.4581  -17.7726   20.4850 H   0  0  0  0  0  0
  -28.6260  -20.2867   21.3779 H   0  0  0  0  0  0
  -28.6962  -19.7390   19.7403 H   0  0  0  0  0  0
  -27.8986  -22.8271   21.2702 H   0  0  0  0  0  0
  -29.5166  -23.4019   21.4618 H   0  0  0  0  0  0
  -27.4718  -24.3494   19.3010 H   0  0  0  0  0  0
  -29.1406  -24.6280   19.0712 H   0  0  0  0  0  0
  -28.8965  -21.7477   19.1259 H   0  0  0  0  0  0
  -30.3319  -21.9508   19.8004 H   0  0  0  0  0  0
  1 25  1  0  0  0
  1 30  2  0  0  0
  1 86  1  0  0  0
  2  3  1  0  0  0
  2 25  1  0  0  0
  2 88  1  0  0  0
  2 89  1  0  0  0
  3  4  1  0  0  0
  3 90  1  0  0  0
  3 91  1  0  0  0
  4  5  1  0  0  0
  4 92  1  0  0  0
  4 93  1  0  0  0
  5  6  1  0  0  0
  5 26  1  0  0  0
  5 94  1  0  0  0
  6 25  1  0  0  0
  6 95  1  0  0  0
  6 96  1  0  0  0
  7  8  2  0  0  0
  7 26  1  0  0  0
  7 29  1  0  0  0
  8  9  1  0  0  0
  8 22  1  0  0  0
  9 10  1  0  0  0
  9 27  2  0  0  0
 10 11  2  0  0  0
 10 15  1  0  0  0
 11 12  1  0  0  0
 11 97  1  0  0  0
 12 13  2  0  0  0
 12 98  1  0  0  0
 13 14  1  0  0  0
 13 31  1  0  0  0
 14 15  2  0  0  0
 14 99  1  0  0  0
 15100  1  0  0  0
 16 17  2  0  0  0
 16 21  1  0  0  0
 16 31  1  0  0  0
 17 18  1  0  0  0
 17101  1  0  0  0
 18 19  2  0  0  0
 18102  1  0  0  0
 19 20  1  0  0  0
 19 24  1  0  0  0
 20 21  2  0  0  0
 20103  1  0  0  0
 21 23  1  0  0  0
 22 28  1  0  0  0
 22 32  2  0  0  0
 26 27  1  0  0  0
 28104  1  0  0  0
 28105  1  0  0  0
 29106  1  0  0  0
 29107  1  0  0  0
 33 34  1  0  0  0
 33 66  1  0  0  0
 33 70  2  0  0  0
 34 36  1  0  0  0
 34 59  1  0  0  0
 34108  1  0  0  0
 35 44  2  0  0  0
 35 45  1  0  0  0
 35 68  1  0  0  0
 36 56  1  0  0  0
 36109  1  0  0  0
 37 39  1  0  0  0
 37 47  1  0  0  0
 37 66  1  0  0  0
 37110  1  0  0  0
 38 43  2  0  0  0
 38 46  1  0  0  0
 38 47  1  0  0  0
 39 64  1  0  0  0
 39 67  2  0  0  0
 40 52  1  0  0  0
 40 53  2  0  0  0
 40 58  1  0  0  0
 41111  1  0  0  0
 41112  1  0  0  0
 41113  1  0  0  0
 41 48  1  0  0  0
 42 43  1  0  0  0
 42 66  1  0  0  0
 42114  1  0  0  0
 42115  1  0  0  0
 43 44  1  0  0  0
 44116  1  0  0  0
 45 46  2  0  0  0
 45117  1  0  0  0
 46118  1  0  0  0
 47119  1  0  0  0
 47120  1  0  0  0
 48 56  1  0  0  0
 48 65  1  0  0  0
 48121  1  0  0  0
 49 50  1  0  0  0
 49 53  1  0  0  0
 49 64  1  0  0  0
 49122  1  0  0  0
 50 51  1  0  0  0
 50123  1  0  0  0
 50124  1  0  0  0
 51 52  1  0  0  0
 51125  1  0  0  0
 51126  1  0  0  0
 52127  1  0  0  0
 52128  1  0  0  0
 53 54  1  0  0  0
 54 55  2  0  0  0
 54129  1  0  0  0
 55 57  1  0  0  0
 55130  1  0  0  0
 56 69  2  0  0  0
 57 58  2  0  0  0
 57131  1  0  0  0
 58132  1  0  0  0
 59 60  1  0  0  0
 59 61  1  0  0  0
 59 62  1  0  0  0
 60133  1  0  0  0
 60134  1  0  0  0
 60135  1  0  0  0
 61136  1  0  0  0
 61137  1  0  0  0
 61138  1  0  0  0
 62139  1  0  0  0
 62140  1  0  0  0
 62141  1  0  0  0
 63 65  1  0  0  0
 63142  1  0  0  0
 63143  1  0  0  0
 63144  1  0  0  0
 64145  1  0  0  0
 65146  1  0  0  0
 68 85  1  0  0  0
 71 72  2  0  0  0
 71 73  1  0  0  0
 71147  1  0  0  0
 72 76  1  0  0  0
 72 77  1  0  0  0
 73 74  2  0  0  0
 73 80  1  0  0  0
 74 75  1  0  0  0
 74 81  1  0  0  0
 75 76  2  0  0  0
 75 83  1  0  0  0
 76 86  1  0  0  0
 77 78  1  0  0  0
 77148  1  0  0  0
 77149  1  0  0  0
 78 79  1  0  0  0
 78150  1  0  0  0
 78151  1  0  0  0
 79 82  1  0  0  0
 79 86  1  0  0  0
 79152  1  0  0  0
 80153  1  0  0  0
 80154  1  0  0  0
 80155  1  0  0  0
 81156  1  0  0  0
 81157  1  0  0  0
 81158  1  0  0  0
 82159  1  0  0  0
 82160  1  0  0  0
 82161  1  0  0  0
 83 87  1  0  0  0
 83162  1  0  0  0
 83163  1  0  0  0
 84 85  1  0  0  0
 84 87  1  0  0  0
 84164  1  0  0  0
 84165  1  0  0  0
 85166  1  0  0  0
 85167  1  0  0  0
 87168  1  0  0  0
 87169  1  0  0  0
M  CHG  1  87   1
M  ISO  4   1 100  68 101  85 101  86 100
M  END
> <chiral flag>
0

> <version>
0

> <s_m_source_file>
/data/baiqing/PycharmProjects/Reinvent-master-3.2/result/LINK_invent/BTK/process_docking_weight1_custom_sum_contain_oxygen_bond_distance_aromatic_linkinvent_7_9_3/rearranged_h_0167.sdf

> <i_m_source_file_index>
89

> <r_mmod_Potential_Energy-OPLS-2005>
1095.50720214844

> <r_mmod_Stretch_Energy-OPLS-2005>
408.196350097656

> <r_mmod_Bend_Energy-OPLS-2005>
444.308044433594

> <r_mmod_Torsional_Energy-OPLS-2005>
430.301300048828

> <r_mmod_Improper_Torsional_Energy-OPLS-2005>
12.6564970016479

> <r_mmod_Van_der_Waal_Energy-OPLS-2005>
187.915954589844

> <r_mmod_Electrostatic_Energy-OPLS-2005>
-186.653869628906

> <r_mmod_Solvation_Energy-OPLS-2005>
-448.174896240234

> <b_mmod_Minimization_Converged-OPLS-2005>
0

> <r_mmod_RMS_Derivative-OPLS-2005>
6.48993396759033

$$$$
89
                    3D
 Structure written by MMmdl.
176186  0  0  1  0            999 V2000
  -30.6814  -14.6788   20.4984 C   0  0  0  0  0  0
  -30.4116  -12.4311   19.4602 C   0  0  0  0  0  0
  -29.4942  -12.4895   18.2222 C   0  0  0  0  0  0
  -28.0228  -12.3186   18.6441 C   0  0  0  0  0  0
  -27.6351  -13.2225   19.8444 C   0  0  2  0  0  0
  -28.6813  -13.1482   20.9767 C   0  0  0  0  0  0
  -25.2463  -13.8157   20.5648 C   0  0  0  0  0  0
  -24.1760  -13.0431   20.9229 C   0  0  0  0  0  0
  -24.6350  -11.6910   20.8775 C   0  0  0  0  0  0
  -23.9041  -10.4280   21.0423 C   0  0  0  0  0  0
  -24.3611   -9.4199   21.9187 C   0  0  0  0  0  0
  -23.6294   -8.2230   22.0752 C   0  0  0  0  0  0
  -22.4265   -8.0262   21.3539 C   0  0  0  0  0  0
  -21.9891   -9.0244   20.4656 C   0  0  0  0  0  0
  -22.7211  -10.2120   20.3076 C   0  0  0  0  0  0
  -21.6838   -6.0718   22.5265 C   0  0  0  0  0  0
  -21.4008   -6.5623   23.8197 C   0  0  0  0  0  0
  -21.3669   -5.6787   24.9162 C   0  0  0  0  0  0
  -21.6047   -4.3048   24.7221 C   0  0  0  0  0  0
  -21.8823   -3.8130   23.4343 C   0  0  0  0  0  0
  -21.9192   -4.6943   22.3392 C   0  0  0  0  0  0
  -22.7790  -13.5242   21.1878 C   0  0  0  0  0  0
  -22.1669   -4.2135   21.0977 F   0  0  0  0  0  0
  -21.5636   -3.4540   25.7739 F   0  0  0  0  0  0
  -29.9735  -13.5051   20.3826 N   0  0  0  0  0  0
  -26.2875  -12.9367   20.3247 N   0  0  0  0  0  0
  -25.9267  -11.6522   20.5776 N   0  0  0  0  0  0
  -22.0437  -12.8251   22.0440 N   0  0  0  0  0  0
  -25.4107  -15.1861   20.3906 N   0  0  0  0  0  0
  -31.8849  -14.6588   20.2173 O   0  0  0  0  0  0
  -21.6642   -6.8850   21.4224 O   0  0  0  0  0  0
  -22.3505  -14.5564   20.6725 O   0  0  0  0  0  0
  -24.6258  -31.8595   23.2025 C   0  0  0  0  0  0
  -25.9101  -32.4777   23.8342 C   0  0  1  0  0  0
  -27.2145  -27.3155   20.1383 C   0  0  0  0  0  0
  -25.5921  -33.8577   24.2277 N   0  0  0  0  0  0
  -23.4193  -30.4809   21.5454 C   0  0  2  0  0  0
  -24.8664  -28.9281   20.1196 C   0  0  0  0  0  0
  -22.7466  -29.4614   22.4953 C   0  0  0  0  0  0
  -18.0285  -28.1382   22.8486 C   0  0  0  0  0  0
  -24.1484  -36.7280   23.2638 C   0  0  0  0  0  0
  -25.9585  -30.7906   21.3724 C   0  0  0  0  0  0
  -26.0338  -29.4124   20.7266 C   0  0  0  0  0  0
  -27.2170  -28.6161   20.7265 C   0  0  0  0  0  0
  -26.0332  -26.8744   19.5157 C   0  0  0  0  0  0
  -24.8671  -27.6636   19.5069 C   0  0  0  0  0  0
  -23.6353  -29.8102   20.1626 C   0  0  0  0  0  0
  -25.4109  -36.3075   24.0331 C   0  0  1  0  0  0
  -20.5883  -28.3674   23.1297 C   0  0  2  0  0  0
  -20.6766  -26.9399   22.5419 C   0  0  0  0  0  0
  -19.5749  -26.6390   21.5207 C   0  0  0  0  0  0
  -18.1922  -26.7933   22.1614 C   0  0  0  0  0  0
  -19.1534  -28.8849   23.2890 C   0  0  0  0  0  0
  -18.9460  -30.1449   23.8903 C   0  0  0  0  0  0
  -17.6456  -30.6583   24.0568 C   0  0  0  0  0  0
  -25.9045  -34.9448   23.5104 C   0  0  0  0  0  0
  -16.5349  -29.9076   23.6336 C   0  0  0  0  0  0
  -16.7269  -28.6502   23.0348 C   0  0  0  0  0  0
  -26.4501  -31.6583   25.0702 C   0  0  0  0  0  0
  -25.3747  -31.3726   26.1443 C   0  0  0  0  0  0
  -27.0336  -30.3008   24.6147 C   0  0  0  0  0  0
  -27.6078  -32.4317   25.7455 C   0  0  0  0  0  0
  -27.5578  -37.1781   24.8466 C   0  0  0  0  0  0
  -21.4185  -29.3029   22.3697 N   0  0  0  0  0  0
  -26.4285  -37.3773   23.9418 N   0  0  0  0  0  0
  -24.6862  -31.0608   22.0968 N   0  0  0  0  0  0
  -23.4191  -28.8162   23.3042 O   0  0  0  0  0  0
  -28.3217  -26.4696   20.0741 O   0  0  0  0  0  0
  -26.5616  -34.8919   22.4670 O   0  0  0  0  0  0
  -23.5420  -32.1394   23.7349 O   0  0  0  0  0  0
  -26.4863  -20.9263   19.0417 C   0  0  0  0  0  0
  -27.8414  -20.3770   18.6004 C   0  0  0  0  0  0
  -26.6536  -20.0690   20.2951 C   0  0  0  0  0  0
  -30.5335  -23.2010   20.6583 C   0  0  0  0  0  0
  -29.9978  -25.5183   21.4605 C   0  0  0  0  0  0
  -28.0639  -23.9024   20.9539 C   0  0  0  0  0  0
  -28.9240  -16.3811   21.3777 C   0  0  0  0  0  0
  -30.8026  -17.1038   19.9860 C   0  0  0  0  0  0
  -28.7247  -17.9510   21.5325 C   0  0  0  0  0  0
  -29.9896  -18.3424   19.4650 C   0  0  0  0  0  0
  -30.8401  -24.6966   20.4713 C   0  0  1  0  0  0
  -29.0664  -22.7835   20.3869 C   0  0  2  0  0  0
  -28.5069  -25.4442   21.1121 C   0  0  2  0  0  0
  -28.1902  -20.0996   20.0878 C   0  0  0  0  0  0
  -32.3405  -24.9761   20.6534 C   0  0  0  0  0  0
  -28.9406  -21.2463   20.9048 C   0  0  0  0  0  0
  -30.0412  -15.9238   20.5010 N   0  0  0  0  0  0
  -28.7505  -18.6666   20.2226 N   0  3  0  0  0  0
  -31.4542  -12.5256   19.1532 H   0  0  0  0  0  0
  -30.3390  -11.4571   19.9473 H   0  0  0  0  0  0
  -29.7730  -11.7127   17.5077 H   0  0  0  0  0  0
  -29.6239  -13.4425   17.7042 H   0  0  0  0  0  0
  -27.8817  -11.2707   18.9143 H   0  0  0  0  0  0
  -27.3616  -12.5044   17.7968 H   0  0  0  0  0  0
  -27.6348  -14.2408   19.4570 H   0  0  0  0  0  0
  -28.7180  -12.1428   21.4005 H   0  0  0  0  0  0
  -28.4176  -13.8002   21.8070 H   0  0  0  0  0  0
  -25.2759   -9.5693   22.4768 H   0  0  0  0  0  0
  -24.0004   -7.4624   22.7471 H   0  0  0  0  0  0
  -21.0814   -8.8780   19.8972 H   0  0  0  0  0  0
  -22.3670  -10.9673   19.6211 H   0  0  0  0  0  0
  -21.1999   -7.6131   23.9695 H   0  0  0  0  0  0
  -21.1493   -6.0517   25.9073 H   0  0  0  0  0  0
  -22.0597   -2.7591   23.2850 H   0  0  0  0  0  0
  -22.4086  -11.9950   22.4881 H   0  0  0  0  0  0
  -21.1056  -13.1270   22.2655 H   0  0  0  0  0  0
  -24.6059  -15.8018   20.4343 H   0  0  0  0  0  0
  -26.1790  -15.5737   19.8632 H   0  0  0  0  0  0
  -26.7166  -32.5458   23.1087 H   0  0  0  0  0  0
  -25.0064  -33.9722   25.0420 H   0  0  0  0  0  0
  -22.7122  -31.3003   21.3997 H   0  0  0  0  0  0
  -23.3756  -35.9601   23.3293 H   0  0  0  0  0  0
  -24.3576  -36.8907   22.2053 H   0  0  0  0  0  0
  -23.7227  -37.6475   23.6666 H   0  0  0  0  0  0
  -26.0842  -31.5487   20.5981 H   0  0  0  0  0  0
  -26.8418  -30.8474   21.9968 H   0  0  0  0  0  0
  -28.1216  -28.9873   21.1876 H   0  0  0  0  0  0
  -26.0148  -25.9038   19.0401 H   0  0  0  0  0  0
  -23.9723  -27.2883   19.0295 H   0  0  0  0  0  0
  -23.7545  -30.5828   19.4027 H   0  0  0  0  0  0
  -22.7559  -29.2374   19.8634 H   0  0  0  0  0  0
  -25.1286  -36.1916   25.0824 H   0  0  0  0  0  0
  -20.9972  -28.3239   24.1419 H   0  0  0  0  0  0
  -20.5649  -26.2275   23.3608 H   0  0  0  0  0  0
  -21.6635  -26.7416   22.1223 H   0  0  0  0  0  0
  -19.6902  -25.6304   21.1224 H   0  0  0  0  0  0
  -19.6693  -27.3212   20.6745 H   0  0  0  0  0  0
  -17.4195  -26.6691   21.4013 H   0  0  0  0  0  0
  -18.0315  -26.0070   22.9006 H   0  0  0  0  0  0
  -19.7929  -30.7270   24.2274 H   0  0  0  0  0  0
  -17.5004  -31.6258   24.5175 H   0  0  0  0  0  0
  -15.5346  -30.2972   23.7666 H   0  0  0  0  0  0
  -15.8669  -28.0818   22.7057 H   0  0  0  0  0  0
  -24.5925  -30.7068   25.7780 H   0  0  0  0  0  0
  -24.8933  -32.2893   26.4862 H   0  0  0  0  0  0
  -25.8083  -30.8913   27.0216 H   0  0  0  0  0  0
  -26.2885  -29.6747   24.1227 H   0  0  0  0  0  0
  -27.4099  -29.7284   25.4632 H   0  0  0  0  0  0
  -27.8730  -30.4295   23.9312 H   0  0  0  0  0  0
  -27.2709  -33.3624   26.2035 H   0  0  0  0  0  0
  -28.3874  -32.6868   25.0262 H   0  0  0  0  0  0
  -28.0766  -31.8440   26.5360 H   0  0  0  0  0  0
  -28.2602  -38.0071   24.7513 H   0  0  0  0  0  0
  -28.1063  -36.2606   24.6281 H   0  0  0  0  0  0
  -27.2300  -37.1424   25.8870 H   0  0  0  0  0  0
  -20.9358  -29.8735   21.6893 H   0  0  0  0  0  0
  -26.0164  -38.2841   24.1444 H   0  0  0  0  0  0
  -25.6462  -20.6427   18.4043 H   0  0  0  0  0  0
  -26.4938  -21.9961   19.2453 H   0  0  0  0  0  0
  -28.4809  -21.0880   18.0799 H   0  0  0  0  0  0
  -27.7196  -19.4782   17.9927 H   0  0  0  0  0  0
  -26.1983  -19.0820   20.1804 H   0  0  0  0  0  0
  -26.2976  -20.5495   21.2077 H   0  0  0  0  0  0
  -30.8113  -22.9203   21.6763 H   0  0  0  0  0  0
  -31.1827  -22.6181   20.0019 H   0  0  0  0  0  0
  -30.3218  -26.5599   21.4698 H   0  0  0  0  0  0
  -30.1566  -25.1480   22.4745 H   0  0  0  0  0  0
  -27.8262  -23.5776   21.9676 H   0  0  0  0  0  0
  -27.1091  -23.8573   20.4319 H   0  0  0  0  0  0
  -28.0001  -15.9687   20.9792 H   0  0  0  0  0  0
  -29.0468  -15.9457   22.3705 H   0  0  0  0  0  0
  -31.4574  -17.4367   20.7951 H   0  0  0  0  0  0
  -31.4759  -16.8162   19.1775 H   0  0  0  0  0  0
  -29.4974  -18.3734   22.1766 H   0  0  0  0  0  0
  -27.7785  -18.1485   22.0361 H   0  0  0  0  0  0
  -29.7006  -18.1672   18.4290 H   0  0  0  0  0  0
  -30.6463  -19.2137   19.4478 H   0  0  0  0  0  0
  -30.5707  -24.9855   19.4530 H   0  0  0  0  0  0
  -28.9574  -22.8143   19.3055 H   0  0  0  0  0  0
  -27.9654  -25.8215   21.9823 H   0  0  0  0  0  0
  -32.6723  -24.7421   21.6654 H   0  0  0  0  0  0
  -32.5713  -26.0252   20.4626 H   0  0  0  0  0  0
  -32.9412  -24.3824   19.9623 H   0  0  0  0  0  0
  -28.5336  -21.2768   21.9169 H   0  0  0  0  0  0
  -29.9535  -20.8791   21.0677 H   0  0  0  0  0  0
  -28.0616  -18.1369   19.7109 H   0  0  0  0  0  0
  1 25  1  0  0  0
  1 30  2  0  0  0
  1 87  1  0  0  0
  2  3  1  0  0  0
  2 25  1  0  0  0
  2 89  1  0  0  0
  2 90  1  0  0  0
  3  4  1  0  0  0
  3 91  1  0  0  0
  3 92  1  0  0  0
  4  5  1  0  0  0
  4 93  1  0  0  0
  4 94  1  0  0  0
  5  6  1  0  0  0
  5 26  1  0  0  0
  5 95  1  0  0  0
  6 25  1  0  0  0
  6 96  1  0  0  0
  6 97  1  0  0  0
  7  8  2  0  0  0
  7 26  1  0  0  0
  7 29  1  0  0  0
  8  9  1  0  0  0
  8 22  1  0  0  0
  9 10  1  0  0  0
  9 27  2  0  0  0
 10 11  2  0  0  0
 10 15  1  0  0  0
 11 12  1  0  0  0
 11 98  1  0  0  0
 12 13  2  0  0  0
 12 99  1  0  0  0
 13 14  1  0  0  0
 13 31  1  0  0  0
 14 15  2  0  0  0
 14100  1  0  0  0
 15101  1  0  0  0
 16 17  2  0  0  0
 16 21  1  0  0  0
 16 31  1  0  0  0
 17 18  1  0  0  0
 17102  1  0  0  0
 18 19  2  0  0  0
 18103  1  0  0  0
 19 20  1  0  0  0
 19 24  1  0  0  0
 20 21  2  0  0  0
 20104  1  0  0  0
 21 23  1  0  0  0
 22 28  1  0  0  0
 22 32  2  0  0  0
 26 27  1  0  0  0
 28105  1  0  0  0
 28106  1  0  0  0
 29107  1  0  0  0
 29108  1  0  0  0
 33 34  1  0  0  0
 33 66  1  0  0  0
 33 70  2  0  0  0
 34 36  1  0  0  0
 34 59  1  0  0  0
 34109  1  0  0  0
 35 44  2  0  0  0
 35 45  1  0  0  0
 35 68  1  0  0  0
 36 56  1  0  0  0
 36110  1  0  0  0
 37 39  1  0  0  0
 37 47  1  0  0  0
 37 66  1  0  0  0
 37111  1  0  0  0
 38 43  2  0  0  0
 38 46  1  0  0  0
 38 47  1  0  0  0
 39 64  1  0  0  0
 39 67  2  0  0  0
 40 52  1  0  0  0
 40 53  2  0  0  0
 40 58  1  0  0  0
 41112  1  0  0  0
 41113  1  0  0  0
 41114  1  0  0  0
 41 48  1  0  0  0
 42 43  1  0  0  0
 42 66  1  0  0  0
 42115  1  0  0  0
 42116  1  0  0  0
 43 44  1  0  0  0
 44117  1  0  0  0
 45 46  2  0  0  0
 45118  1  0  0  0
 46119  1  0  0  0
 47120  1  0  0  0
 47121  1  0  0  0
 48 56  1  0  0  0
 48 65  1  0  0  0
 48122  1  0  0  0
 49 50  1  0  0  0
 49 53  1  0  0  0
 49 64  1  0  0  0
 49123  1  0  0  0
 50 51  1  0  0  0
 50124  1  0  0  0
 50125  1  0  0  0
 51 52  1  0  0  0
 51126  1  0  0  0
 51127  1  0  0  0
 52128  1  0  0  0
 52129  1  0  0  0
 53 54  1  0  0  0
 54 55  2  0  0  0
 54130  1  0  0  0
 55 57  1  0  0  0
 55131  1  0  0  0
 56 69  2  0  0  0
 57 58  2  0  0  0
 57132  1  0  0  0
 58133  1  0  0  0
 59 60  1  0  0  0
 59 61  1  0  0  0
 59 62  1  0  0  0
 60134  1  0  0  0
 60135  1  0  0  0
 60136  1  0  0  0
 61137  1  0  0  0
 61138  1  0  0  0
 61139  1  0  0  0
 62140  1  0  0  0
 62141  1  0  0  0
 62142  1  0  0  0
 63 65  1  0  0  0
 63143  1  0  0  0
 63144  1  0  0  0
 63145  1  0  0  0
 64146  1  0  0  0
 65147  1  0  0  0
 68 83  1  0  0  0
 71 72  1  0  0  0
 71 73  1  0  0  0
 71148  1  0  0  0
 71149  1  0  0  0
 72 84  1  0  0  0
 72150  1  0  0  0
 72151  1  0  0  0
 73 84  1  0  0  0
 73152  1  0  0  0
 73153  1  0  0  0
 74 81  1  0  0  0
 74 82  1  0  0  0
 74154  1  0  0  0
 74155  1  0  0  0
 75 81  1  0  0  0
 75 83  1  0  0  0
 75156  1  0  0  0
 75157  1  0  0  0
 76 82  1  0  0  0
 76 83  1  0  0  0
 76158  1  0  0  0
 76159  1  0  0  0
 77 79  1  0  0  0
 77 87  1  0  0  0
 77160  1  0  0  0
 77161  1  0  0  0
 78 80  1  0  0  0
 78 87  1  0  0  0
 78162  1  0  0  0
 78163  1  0  0  0
 79164  1  0  0  0
 79165  1  0  0  0
 79 88  1  0  0  0
 80 88  1  0  0  0
 80166  1  0  0  0
 80167  1  0  0  0
 81 85  1  0  0  0
 81168  1  0  0  0
 82 86  1  0  0  0
 82169  1  0  0  0
 83170  1  0  0  0
 84 86  1  0  0  0
 84 88  1  0  0  0
 85171  1  0  0  0
 85172  1  0  0  0
 85173  1  0  0  0
 86174  1  0  0  0
 86175  1  0  0  0
 88176  1  0  0  0
M  CHG  1  88   1
M  ISO  4   1 100  68 101  83 101  87 100
M  END
> <chiral flag>
0

> <version>
0

> <s_m_source_file>
/data/baiqing/PycharmProjects/Reinvent-master-3.2/result/LINK_invent/BTK/process_docking_weight1_custom_sum_contain_oxygen_bond_distance_aromatic_linkinvent_7_9_3/rearranged_h_0167.sdf

> <i_m_source_file_index>
90

> <r_mmod_Potential_Energy-OPLS-2005>
430.640441894531

> <r_mmod_Stretch_Energy-OPLS-2005>
104.475700378418

> <r_mmod_Bend_Energy-OPLS-2005>
225.628402709961

> <r_mmod_Torsional_Energy-OPLS-2005>
487.097747802734

> <r_mmod_Improper_Torsional_Energy-OPLS-2005>
15.1705436706543

> <r_mmod_Van_der_Waal_Energy-OPLS-2005>
132.521530151367

> <r_mmod_Electrostatic_Energy-OPLS-2005>
-169.715087890625

> <r_mmod_Solvation_Energy-OPLS-2005>
-424.8544921875

> <b_mmod_Minimization_Converged-OPLS-2005>
0

> <r_mmod_RMS_Derivative-OPLS-2005>
2.41547536849976

$$$$
90
                    3D
 Structure written by MMmdl.
167177  0  0  1  0            999 V2000
  -30.6560  -14.6309   20.4758 C   0  0  0  0  0  0
  -30.4265  -12.3870   19.4423 C   0  0  0  0  0  0
  -29.4922  -12.4599   18.2157 C   0  0  0  0  0  0
  -28.0212  -12.3098   18.6461 C   0  0  0  0  0  0
  -27.6415  -13.2165   19.8446 C   0  0  2  0  0  0
  -28.6897  -13.1229   20.9739 C   0  0  0  0  0  0
  -25.2558  -13.8192   20.5740 C   0  0  0  0  0  0
  -24.1813  -13.0470   20.9234 C   0  0  0  0  0  0
  -24.6337  -11.6932   20.8775 C   0  0  0  0  0  0
  -23.9003  -10.4319   21.0416 C   0  0  0  0  0  0
  -24.3557   -9.4226   21.9184 C   0  0  0  0  0  0
  -23.6252   -8.2248   22.0739 C   0  0  0  0  0  0
  -22.4240   -8.0280   21.3510 C   0  0  0  0  0  0
  -21.9855   -9.0257   20.4644 C   0  0  0  0  0  0
  -22.7179  -10.2140   20.3075 C   0  0  0  0  0  0
  -21.6855   -6.0721   22.5251 C   0  0  0  0  0  0
  -21.4028   -6.5630   23.8188 C   0  0  0  0  0  0
  -21.3665   -5.6786   24.9156 C   0  0  0  0  0  0
  -21.6031   -4.3042   24.7209 C   0  0  0  0  0  0
  -21.8824   -3.8136   23.4346 C   0  0  0  0  0  0
  -21.9207   -4.6953   22.3399 C   0  0  0  0  0  0
  -22.7842  -13.5290   21.1869 C   0  0  0  0  0  0
  -22.1678   -4.2150   21.0979 F   0  0  0  0  0  0
  -21.5608   -3.4522   25.7718 F   0  0  0  0  0  0
  -29.9964  -13.4373   20.3826 N   0  0  0  0  0  0
  -26.2927  -12.9355   20.3275 N   0  0  0  0  0  0
  -25.9257  -11.6513   20.5750 N   0  0  0  0  0  0
  -22.0465  -12.8304   22.0423 N   0  0  0  0  0  0
  -25.4359  -15.1878   20.4194 N   0  0  0  0  0  0
  -31.8477  -14.7278   20.1839 O   0  0  0  0  0  0
  -21.6638   -6.8849   21.4205 O   0  0  0  0  0  0
  -22.3567  -14.5606   20.6704 O   0  0  0  0  0  0
  -24.6280  -31.8603   23.2021 C   0  0  0  0  0  0
  -25.9130  -32.4783   23.8349 C   0  0  1  0  0  0
  -27.2211  -27.3139   20.0807 C   0  0  0  0  0  0
  -25.5946  -33.8572   24.2272 N   0  0  0  0  0  0
  -23.4199  -30.4865   21.5471 C   0  0  2  0  0  0
  -24.8608  -28.9410   20.1104 C   0  0  0  0  0  0
  -22.7483  -29.4625   22.4935 C   0  0  0  0  0  0
  -18.0296  -28.1385   22.8466 C   0  0  0  0  0  0
  -24.1484  -36.7286   23.2619 C   0  0  0  0  0  0
  -25.9644  -30.7831   21.3757 C   0  0  0  0  0  0
  -26.0335  -29.4118   20.7113 C   0  0  0  0  0  0
  -27.2160  -28.6089   20.6903 C   0  0  0  0  0  0
  -26.0148  -26.8959   19.4711 C   0  0  0  0  0  0
  -24.8514  -27.6854   19.4866 C   0  0  0  0  0  0
  -23.6325  -29.8265   20.1613 C   0  0  0  0  0  0
  -25.4104  -36.3076   24.0319 C   0  0  1  0  0  0
  -20.5893  -28.3690   23.1272 C   0  0  2  0  0  0
  -20.6787  -26.9410   22.5407 C   0  0  0  0  0  0
  -19.5771  -26.6379   21.5201 C   0  0  0  0  0  0
  -18.1947  -26.7928   22.1600 C   0  0  0  0  0  0
  -19.1545  -28.8852   23.2867 C   0  0  0  0  0  0
  -18.9474  -30.1455   23.8891 C   0  0  0  0  0  0
  -17.6471  -30.6585   24.0566 C   0  0  0  0  0  0
  -25.9057  -34.9458   23.5091 C   0  0  0  0  0  0
  -16.5361  -29.9079   23.6330 C   0  0  0  0  0  0
  -16.7285  -28.6495   23.0340 C   0  0  0  0  0  0
  -26.4520  -31.6595   25.0717 C   0  0  0  0  0  0
  -25.3767  -31.3774   26.1474 C   0  0  0  0  0  0
  -27.0326  -30.3003   24.6172 C   0  0  0  0  0  0
  -27.6104  -32.4335   25.7448 C   0  0  0  0  0  0
  -27.5605  -37.1738   24.8434 C   0  0  0  0  0  0
  -21.4206  -29.3037   22.3666 N   0  0  0  0  0  0
  -26.4264  -37.3798   23.9455 N   0  0  0  0  0  0
  -24.6902  -31.0607   22.0982 N   0  0  0  0  0  0
  -23.4209  -28.8169   23.3023 O   0  0  0  0  0  0
  -28.3492  -26.4704   20.0997 O   0  0  0  0  0  0
  -26.5623  -34.8927   22.4663 O   0  0  0  0  0  0
  -23.5449  -32.1414   23.7351 O   0  0  0  0  0  0
  -30.6179  -19.0606   19.5057 C   0  0  0  0  0  0
  -28.6895  -20.6185   20.8627 C   0  0  0  0  0  0
  -30.3517  -20.4098   19.1417 C   0  0  0  0  0  0
  -29.4243  -21.2152   19.8114 C   0  0  0  0  0  0
  -28.9345  -19.2573   21.2447 C   0  0  0  0  0  0
  -29.9326  -18.4556   20.5963 C   0  0  0  0  0  0
  -30.9725  -21.1586   17.9890 C   0  0  0  0  0  0
  -30.6940  -24.6026   19.4127 C   0  0  0  0  0  0
  -29.2609  -22.6146   19.1322 C   0  0  1  0  0  0
  -29.3662  -24.0040   19.9163 C   0  0  2  0  0  0
  -30.4562  -22.6227   18.1350 C   0  0  1  0  0  0
  -28.1110  -18.6868   22.3877 C   0  0  0  0  0  0
  -32.5271  -24.0067   17.8573 C   0  0  0  0  0  0
  -30.4345  -17.0788   21.1765 C   0  0  0  0  0  0
  -28.1926  -25.0563   19.6775 C   0  0  0  0  0  0
  -29.9073  -15.7491   20.7301 N   0  0  0  0  0  0
  -31.4566  -23.5168   18.7626 N   0  3  1  0  0  0
  -31.4657  -12.5057   19.1320 H   0  0  0  0  0  0
  -30.3676  -11.4103   19.9220 H   0  0  0  0  0  0
  -29.7473  -11.6742   17.5035 H   0  0  0  0  0  0
  -29.6282  -13.4065   17.6902 H   0  0  0  0  0  0
  -27.8676  -11.2639   18.9205 H   0  0  0  0  0  0
  -27.3581  -12.5018   17.8024 H   0  0  0  0  0  0
  -27.6464  -14.2389   19.4622 H   0  0  0  0  0  0
  -28.7019  -12.1259   21.4182 H   0  0  0  0  0  0
  -28.4419  -13.8118   21.7828 H   0  0  0  0  0  0
  -25.2686   -9.5717   22.4777 H   0  0  0  0  0  0
  -23.9977   -7.4651   22.7439 H   0  0  0  0  0  0
  -21.0785   -8.8773   19.8953 H   0  0  0  0  0  0
  -22.3611  -10.9683   19.6213 H   0  0  0  0  0  0
  -21.2019   -7.6133   23.9673 H   0  0  0  0  0  0
  -21.1475   -6.0521   25.9049 H   0  0  0  0  0  0
  -22.0597   -2.7593   23.2835 H   0  0  0  0  0  0
  -22.4118  -11.9992   22.4839 H   0  0  0  0  0  0
  -21.1086  -13.1336   22.2611 H   0  0  0  0  0  0
  -24.6738  -15.8492   20.5251 H   0  0  0  0  0  0
  -26.2733  -15.6071   20.0359 H   0  0  0  0  0  0
  -26.7180  -32.5435   23.1076 H   0  0  0  0  0  0
  -25.0113  -33.9728   25.0430 H   0  0  0  0  0  0
  -22.7137  -31.3078   21.4084 H   0  0  0  0  0  0
  -23.3783  -35.9573   23.3189 H   0  0  0  0  0  0
  -24.3622  -36.9009   22.2058 H   0  0  0  0  0  0
  -23.7169  -37.6428   23.6705 H   0  0  0  0  0  0
  -26.1021  -31.5482   20.6101 H   0  0  0  0  0  0
  -26.8437  -30.8257   22.0072 H   0  0  0  0  0  0
  -28.1187  -28.9675   21.1623 H   0  0  0  0  0  0
  -25.9257  -25.9431   18.9723 H   0  0  0  0  0  0
  -23.9486  -27.3181   19.0194 H   0  0  0  0  0  0
  -23.7578  -30.6070   19.4096 H   0  0  0  0  0  0
  -22.7482  -29.2648   19.8557 H   0  0  0  0  0  0
  -25.1257  -36.1907   25.0800 H   0  0  0  0  0  0
  -20.9984  -28.3273   24.1393 H   0  0  0  0  0  0
  -20.5683  -26.2303   23.3609 H   0  0  0  0  0  0
  -21.6662  -26.7446   22.1213 H   0  0  0  0  0  0
  -19.6943  -25.6287   21.1238 H   0  0  0  0  0  0
  -19.6722  -27.3182   20.6728 H   0  0  0  0  0  0
  -17.4224  -26.6682   21.3995 H   0  0  0  0  0  0
  -18.0347  -26.0074   22.8996 H   0  0  0  0  0  0
  -19.7955  -30.7272   24.2256 H   0  0  0  0  0  0
  -17.5032  -31.6262   24.5176 H   0  0  0  0  0  0
  -15.5368  -30.2979   23.7667 H   0  0  0  0  0  0
  -15.8682  -28.0825   22.7051 H   0  0  0  0  0  0
  -24.5878  -30.7188   25.7825 H   0  0  0  0  0  0
  -24.9040  -32.2964   26.4949 H   0  0  0  0  0  0
  -25.8101  -30.8906   27.0220 H   0  0  0  0  0  0
  -26.2858  -29.6757   24.1247 H   0  0  0  0  0  0
  -27.4066  -29.7278   25.4672 H   0  0  0  0  0  0
  -27.8738  -30.4280   23.9353 H   0  0  0  0  0  0
  -27.2716  -33.3599   26.2108 H   0  0  0  0  0  0
  -28.3838  -32.6969   25.0212 H   0  0  0  0  0  0
  -28.0868  -31.8422   26.5283 H   0  0  0  0  0  0
  -28.2514  -38.0142   24.7672 H   0  0  0  0  0  0
  -28.1202  -36.2699   24.5989 H   0  0  0  0  0  0
  -27.2379  -37.1072   25.8839 H   0  0  0  0  0  0
  -20.9385  -29.8746   21.6856 H   0  0  0  0  0  0
  -26.0136  -38.2831   24.1615 H   0  0  0  0  0  0
  -31.3722  -18.4996   18.9703 H   0  0  0  0  0  0
  -27.9303  -21.1992   21.3694 H   0  0  0  0  0  0
  -30.6015  -20.7230   17.0599 H   0  0  0  0  0  0
  -32.0591  -21.0668   17.9822 H   0  0  0  0  0  0
  -31.2659  -25.0829   20.2078 H   0  0  0  0  0  0
  -30.4812  -25.3697   18.6644 H   0  0  0  0  0  0
  -28.3272  -22.5721   18.5704 H   0  0  0  0  0  0
  -29.4479  -23.7979   20.9823 H   0  0  0  0  0  0
  -30.1616  -23.0433   17.1710 H   0  0  0  0  0  0
  -27.1337  -19.1649   22.4375 H   0  0  0  0  0  0
  -28.6153  -18.8564   23.3388 H   0  0  0  0  0  0
  -27.9343  -17.6177   22.2736 H   0  0  0  0  0  0
  -33.3414  -24.4448   18.4372 H   0  0  0  0  0  0
  -32.1629  -24.7698   17.1668 H   0  0  0  0  0  0
  -32.9521  -23.2002   17.2590 H   0  0  0  0  0  0
  -30.2634  -17.0979   22.2534 H   0  0  0  0  0  0
  -31.5224  -17.0818   21.0941 H   0  0  0  0  0  0
  -27.3059  -24.6368   20.1557 H   0  0  0  0  0  0
  -27.9835  -25.0671   18.6061 H   0  0  0  0  0  0
  -28.9105  -15.6135   20.8026 H   0  0  0  0  0  0
  -31.8983  -22.9875   19.5023 H   0  0  0  0  0  0
  1 25  1  0  0  0
  1 30  2  0  0  0
  1 86  1  0  0  0
  2  3  1  0  0  0
  2 25  1  0  0  0
  2 88  1  0  0  0
  2 89  1  0  0  0
  3  4  1  0  0  0
  3 90  1  0  0  0
  3 91  1  0  0  0
  4  5  1  0  0  0
  4 92  1  0  0  0
  4 93  1  0  0  0
  5  6  1  0  0  0
  5 26  1  0  0  0
  5 94  1  0  0  0
  6 25  1  0  0  0
  6 95  1  0  0  0
  6 96  1  0  0  0
  7  8  2  0  0  0
  7 26  1  0  0  0
  7 29  1  0  0  0
  8  9  1  0  0  0
  8 22  1  0  0  0
  9 10  1  0  0  0
  9 27  2  0  0  0
 10 11  2  0  0  0
 10 15  1  0  0  0
 11 12  1  0  0  0
 11 97  1  0  0  0
 12 13  2  0  0  0
 12 98  1  0  0  0
 13 14  1  0  0  0
 13 31  1  0  0  0
 14 15  2  0  0  0
 14 99  1  0  0  0
 15100  1  0  0  0
 16 17  2  0  0  0
 16 21  1  0  0  0
 16 31  1  0  0  0
 17 18  1  0  0  0
 17101  1  0  0  0
 18 19  2  0  0  0
 18102  1  0  0  0
 19 20  1  0  0  0
 19 24  1  0  0  0
 20 21  2  0  0  0
 20103  1  0  0  0
 21 23  1  0  0  0
 22 28  1  0  0  0
 22 32  2  0  0  0
 26 27  1  0  0  0
 28104  1  0  0  0
 28105  1  0  0  0
 29106  1  0  0  0
 29107  1  0  0  0
 33 34  1  0  0  0
 33 66  1  0  0  0
 33 70  2  0  0  0
 34 36  1  0  0  0
 34 59  1  0  0  0
 34108  1  0  0  0
 35 44  2  0  0  0
 35 45  1  0  0  0
 35 68  1  0  0  0
 36 56  1  0  0  0
 36109  1  0  0  0
 37 39  1  0  0  0
 37 47  1  0  0  0
 37 66  1  0  0  0
 37110  1  0  0  0
 38 43  2  0  0  0
 38 46  1  0  0  0
 38 47  1  0  0  0
 39 64  1  0  0  0
 39 67  2  0  0  0
 40 52  1  0  0  0
 40 53  2  0  0  0
 40 58  1  0  0  0
 41111  1  0  0  0
 41112  1  0  0  0
 41113  1  0  0  0
 41 48  1  0  0  0
 42 43  1  0  0  0
 42 66  1  0  0  0
 42114  1  0  0  0
 42115  1  0  0  0
 43 44  1  0  0  0
 44116  1  0  0  0
 45 46  2  0  0  0
 45117  1  0  0  0
 46118  1  0  0  0
 47119  1  0  0  0
 47120  1  0  0  0
 48 56  1  0  0  0
 48 65  1  0  0  0
 48121  1  0  0  0
 49 50  1  0  0  0
 49 53  1  0  0  0
 49 64  1  0  0  0
 49122  1  0  0  0
 50 51  1  0  0  0
 50123  1  0  0  0
 50124  1  0  0  0
 51 52  1  0  0  0
 51125  1  0  0  0
 51126  1  0  0  0
 52127  1  0  0  0
 52128  1  0  0  0
 53 54  1  0  0  0
 54 55  2  0  0  0
 54129  1  0  0  0
 55 57  1  0  0  0
 55130  1  0  0  0
 56 69  2  0  0  0
 57 58  2  0  0  0
 57131  1  0  0  0
 58132  1  0  0  0
 59 60  1  0  0  0
 59 61  1  0  0  0
 59 62  1  0  0  0
 60133  1  0  0  0
 60134  1  0  0  0
 60135  1  0  0  0
 61136  1  0  0  0
 61137  1  0  0  0
 61138  1  0  0  0
 62139  1  0  0  0
 62140  1  0  0  0
 62141  1  0  0  0
 63 65  1  0  0  0
 63142  1  0  0  0
 63143  1  0  0  0
 63144  1  0  0  0
 64145  1  0  0  0
 65146  1  0  0  0
 68 85  1  0  0  0
 71 73  2  0  0  0
 71 76  1  0  0  0
 71147  1  0  0  0
 72 74  2  0  0  0
 72 75  1  0  0  0
 72148  1  0  0  0
 73 74  1  0  0  0
 73 77  1  0  0  0
 74 79  1  0  0  0
 75 76  2  0  0  0
 75 82  1  0  0  0
 76 84  1  0  0  0
 77149  1  0  0  0
 77150  1  0  0  0
 77 81  1  0  0  0
 78 80  1  0  0  0
 78 87  1  0  0  0
 78151  1  0  0  0
 78152  1  0  0  0
 79 80  1  0  0  0
 79 81  1  0  0  0
 79153  1  0  0  0
 80 85  1  0  0  0
 80154  1  0  0  0
 81 87  1  0  0  0
 81155  1  0  0  0
 82156  1  0  0  0
 82157  1  0  0  0
 82158  1  0  0  0
 83159  1  0  0  0
 83160  1  0  0  0
 83161  1  0  0  0
 83 87  1  0  0  0
 84 86  1  0  0  0
 84162  1  0  0  0
 84163  1  0  0  0
 85164  1  0  0  0
 85165  1  0  0  0
 86166  1  0  0  0
 87167  1  0  0  0
M  CHG  1  87   1
M  ISO  4   1 100  68 101  85 101  86 100
M  END
> <chiral flag>
0

> <version>
0

> <s_m_source_file>
/data/baiqing/PycharmProjects/Reinvent-master-3.2/result/LINK_invent/BTK/process_docking_weight1_custom_sum_contain_oxygen_bond_distance_aromatic_linkinvent_7_9_3/rearranged_h_0167.sdf

> <i_m_source_file_index>
91

> <r_mmod_Potential_Energy-OPLS-2005>
-2.49948668479919

> <r_mmod_Stretch_Energy-OPLS-2005>
80.649040222168

> <r_mmod_Bend_Energy-OPLS-2005>
201.248352050781

> <r_mmod_Torsional_Energy-OPLS-2005>
316.214447021484

> <r_mmod_Improper_Torsional_Energy-OPLS-2005>
5.93372964859009

> <r_mmod_Van_der_Waal_Energy-OPLS-2005>
138.90657043457

> <r_mmod_Electrostatic_Energy-OPLS-2005>
-360.367614746094

> <r_mmod_Solvation_Energy-OPLS-2005>
-437.756103515625

> <b_mmod_Minimization_Converged-OPLS-2005>
0

> <r_mmod_RMS_Derivative-OPLS-2005>
4.01780843734741

$$$$
91
                    3D
 Structure written by MMmdl.
189199  0  0  1  0            999 V2000
  -30.8031  -14.2426   20.7628 C   0  0  0  0  0  0
  -30.4323  -12.2608   19.3424 C   0  0  0  0  0  0
  -29.4786  -12.5518   18.1706 C   0  0  0  0  0  0
  -28.0008  -12.4239   18.5907 C   0  0  0  0  0  0
  -27.6830  -13.1922   19.8972 C   0  0  2  0  0  0
  -28.7265  -12.8328   20.9790 C   0  0  0  0  0  0
  -25.2677  -13.8120   20.5649 C   0  0  0  0  0  0
  -24.1902  -13.0453   20.9177 C   0  0  0  0  0  0
  -24.6411  -11.6903   20.8750 C   0  0  0  0  0  0
  -23.9047  -10.4315   21.0416 C   0  0  0  0  0  0
  -24.3601   -9.4225   21.9188 C   0  0  0  0  0  0
  -23.6285   -8.2257   22.0760 C   0  0  0  0  0  0
  -22.4261   -8.0294   21.3549 C   0  0  0  0  0  0
  -21.9906   -9.0269   20.4649 C   0  0  0  0  0  0
  -22.7239  -10.2143   20.3047 C   0  0  0  0  0  0
  -21.6839   -6.0751   22.5268 C   0  0  0  0  0  0
  -21.4001   -6.5654   23.8201 C   0  0  0  0  0  0
  -21.3662   -5.6801   24.9161 C   0  0  0  0  0  0
  -21.6053   -4.3066   24.7213 C   0  0  0  0  0  0
  -21.8821   -3.8160   23.4334 C   0  0  0  0  0  0
  -21.9195   -4.6985   22.3397 C   0  0  0  0  0  0
  -22.7928  -13.5276   21.1837 C   0  0  0  0  0  0
  -22.1664   -4.2158   21.0971 F   0  0  0  0  0  0
  -21.5636   -3.4557   25.7731 F   0  0  0  0  0  0
  -30.0808  -13.1356   20.4652 N   0  0  0  0  0  0
  -26.3149  -12.9281   20.3487 N   0  0  0  0  0  0
  -25.9344  -11.6448   20.5813 N   0  0  0  0  0  0
  -22.0523  -12.8262   22.0356 N   0  0  0  0  0  0
  -25.4490  -15.1813   20.3897 N   0  0  0  0  0  0
  -31.7327  -14.6679   20.0612 O   0  0  0  0  0  0
  -21.6639   -6.8884   21.4229 O   0  0  0  0  0  0
  -22.3645  -14.5607   20.6720 O   0  0  0  0  0  0
  -24.6054  -31.8762   23.2181 C   0  0  0  0  0  0
  -25.8983  -32.4870   23.8448 C   0  0  1  0  0  0
  -27.2501  -27.5301   20.0787 C   0  0  0  0  0  0
  -25.5875  -33.8667   24.2388 N   0  0  0  0  0  0
  -23.3897  -30.4993   21.5565 C   0  0  2  0  0  0
  -24.8400  -28.9713   20.1288 C   0  0  0  0  0  0
  -22.7361  -29.4706   22.5044 C   0  0  0  0  0  0
  -18.0263  -28.1370   22.8497 C   0  0  0  0  0  0
  -24.1480  -36.7339   23.2637 C   0  0  0  0  0  0
  -25.9085  -30.8687   21.3594 C   0  0  0  0  0  0
  -25.9931  -29.5031   20.7224 C   0  0  0  0  0  0
  -27.2030  -28.7849   20.7131 C   0  0  0  0  0  0
  -26.0861  -26.9903   19.4981 C   0  0  0  0  0  0
  -24.8746  -27.7032   19.5228 C   0  0  0  0  0  0
  -23.5966  -29.8272   20.1723 C   0  0  0  0  0  0
  -25.4099  -36.3150   24.0349 C   0  0  1  0  0  0
  -20.5849  -28.3644   23.1346 C   0  0  2  0  0  0
  -20.6756  -26.9395   22.5420 C   0  0  0  0  0  0
  -19.5743  -26.6395   21.5209 C   0  0  0  0  0  0
  -18.1915  -26.7927   22.1613 C   0  0  0  0  0  0
  -19.1514  -28.8822   23.2922 C   0  0  0  0  0  0
  -18.9441  -30.1432   23.8934 C   0  0  0  0  0  0
  -17.6444  -30.6579   24.0569 C   0  0  0  0  0  0
  -25.9015  -34.9505   23.5165 C   0  0  0  0  0  0
  -16.5340  -29.9084   23.6318 C   0  0  0  0  0  0
  -16.7253  -28.6500   23.0340 C   0  0  0  0  0  0
  -26.4446  -31.6601   25.0720 C   0  0  0  0  0  0
  -25.3746  -31.3645   26.1482 C   0  0  0  0  0  0
  -27.0274  -30.3066   24.6014 C   0  0  0  0  0  0
  -27.6039  -32.4289   25.7487 C   0  0  0  0  0  0
  -27.5583  -37.1830   24.8463 C   0  0  0  0  0  0
  -21.4102  -29.3033   22.3769 N   0  0  0  0  0  0
  -26.4294  -37.3822   23.9410 N   0  0  0  0  0  0
  -24.6522  -31.0929   22.1052 N   0  0  0  0  0  0
  -23.4162  -28.8261   23.3072 O   0  0  0  0  0  0
  -28.3913  -26.8036   19.9166 O   0  0  0  0  0  0
  -26.5574  -34.8941   22.4726 O   0  0  0  0  0  0
  -23.5271  -32.1487   23.7618 O   0  0  0  0  0  0
  -29.3676  -23.2844   21.2261 C   0  0  0  0  0  0
  -30.6878  -25.1265   19.5897 C   0  0  0  0  0  0
  -28.6778  -16.1212   22.4764 C   0  0  0  0  0  0
  -29.7601  -22.8958   19.9214 C   0  0  0  0  0  0
  -29.4919  -24.6112   21.6581 C   0  0  0  0  0  0
  -30.5366  -23.7980   19.1424 C   0  0  0  0  0  0
  -30.0507  -25.5520   20.7722 C   0  0  0  0  0  0
  -28.0393  -17.3668   22.4246 C   0  0  0  0  0  0
  -28.8119  -18.4894   22.0484 C   0  0  0  0  0  0
  -30.2158  -18.3201   21.8975 C   0  0  0  0  0  0
  -30.0372  -16.0179   22.1367 C   0  0  0  0  0  0
  -29.2807  -21.5864   19.3906 C   0  0  0  0  0  0
  -24.7500  -21.7958   19.7687 C   0  0  0  0  0  0
  -24.4035  -22.1001   18.3406 C   0  0  2  0  0  0
  -25.4440  -21.0293   18.6547 C   0  0  2  0  0  0
  -28.8408  -25.0237   22.9701 C   0  0  0  0  0  0
  -31.0833  -23.4369   17.7675 C   0  0  0  0  0  0
  -26.5496  -17.4469   22.7210 C   0  0  0  0  0  0
  -31.1890  -19.4540   21.6131 C   0  0  0  0  0  0
  -25.0478  -19.5838   18.3873 C   0  0  0  0  0  0
  -28.1310  -19.8104   21.7370 C   0  0  0  0  0  0
  -29.5099  -26.9551   20.7764 C   0  0  0  0  0  0
  -26.9439  -21.2595   18.4100 C   0  0  0  0  0  0
  -27.8114  -21.2226   19.6960 C   0  0  1  0  0  0
  -30.7986  -17.1084   21.9252 N   0  0  0  0  0  0
  -30.5316  -14.7221   21.9789 N   0  0  0  0  0  0
  -27.8498  -19.8740   20.2837 N   0  3  0  0  0  0
  -29.9871  -20.8237   18.7260 O   0  0  0  0  0  0
  -24.8656  -23.6636   17.6911 Cl  0  0  0  0  0  0
  -31.4693  -12.3945   19.0272 H   0  0  0  0  0  0
  -30.3501  -11.2165   19.6507 H   0  0  0  0  0  0
  -29.6851  -11.8748   17.3402 H   0  0  0  0  0  0
  -29.6650  -13.5601   17.7974 H   0  0  0  0  0  0
  -27.7724  -11.3652   18.7182 H   0  0  0  0  0  0
  -27.3522  -12.7812   17.7892 H   0  0  0  0  0  0
  -27.7710  -14.2588   19.6892 H   0  0  0  0  0  0
  -28.6717  -11.7645   21.1941 H   0  0  0  0  0  0
  -28.4832  -13.3065   21.9256 H   0  0  0  0  0  0
  -25.2752   -9.5711   22.4749 H   0  0  0  0  0  0
  -24.0013   -7.4646   22.7455 H   0  0  0  0  0  0
  -21.0847   -8.8783   19.8933 H   0  0  0  0  0  0
  -22.3715  -10.9676   19.6141 H   0  0  0  0  0  0
  -21.1961   -7.6155   23.9706 H   0  0  0  0  0  0
  -21.1486   -6.0535   25.9069 H   0  0  0  0  0  0
  -22.0591   -2.7622   23.2820 H   0  0  0  0  0  0
  -22.4102  -11.9902   22.4723 H   0  0  0  0  0  0
  -21.1129  -13.1292   22.2528 H   0  0  0  0  0  0
  -24.6854  -15.8448   20.4443 H   0  0  0  0  0  0
  -26.3087  -15.5820   20.0386 H   0  0  0  0  0  0
  -26.7071  -32.5633   23.1246 H   0  0  0  0  0  0
  -25.0024  -33.9837   25.0529 H   0  0  0  0  0  0
  -22.6755  -31.3134   21.4184 H   0  0  0  0  0  0
  -23.3738  -35.9674   23.3313 H   0  0  0  0  0  0
  -24.3585  -36.8932   22.2050 H   0  0  0  0  0  0
  -23.7226  -37.6553   23.6625 H   0  0  0  0  0  0
  -25.9980  -31.6308   20.5838 H   0  0  0  0  0  0
  -26.8042  -30.9380   21.9637 H   0  0  0  0  0  0
  -28.0915  -29.2191   21.1496 H   0  0  0  0  0  0
  -26.1263  -26.0251   19.0116 H   0  0  0  0  0  0
  -23.9893  -27.2832   19.0656 H   0  0  0  0  0  0
  -23.6967  -30.5995   19.4085 H   0  0  0  0  0  0
  -22.7245  -29.2379   19.8813 H   0  0  0  0  0  0
  -25.1274  -36.2039   25.0843 H   0  0  0  0  0  0
  -20.9932  -28.3198   24.1467 H   0  0  0  0  0  0
  -20.5667  -26.2253   23.3590 H   0  0  0  0  0  0
  -21.6627  -26.7462   22.1200 H   0  0  0  0  0  0
  -19.6902  -25.6314   21.1209 H   0  0  0  0  0  0
  -19.6683  -27.3229   20.6756 H   0  0  0  0  0  0
  -17.4191  -26.6690   21.3999 H   0  0  0  0  0  0
  -18.0309  -26.0052   22.8990 H   0  0  0  0  0  0
  -19.7916  -30.7238   24.2316 H   0  0  0  0  0  0
  -17.5000  -31.6256   24.5160 H   0  0  0  0  0  0
  -15.5338  -30.2999   23.7621 H   0  0  0  0  0  0
  -15.8650  -28.0833   22.7035 H   0  0  0  0  0  0
  -24.5933  -30.6977   25.7813 H   0  0  0  0  0  0
  -24.8910  -32.2773   26.4979 H   0  0  0  0  0  0
  -25.8130  -30.8788   27.0211 H   0  0  0  0  0  0
  -26.2801  -29.6841   24.1075 H   0  0  0  0  0  0
  -27.4105  -29.7266   25.4424 H   0  0  0  0  0  0
  -27.8604  -30.4424   23.9107 H   0  0  0  0  0  0
  -27.2673  -33.3564   26.2132 H   0  0  0  0  0  0
  -28.3826  -32.6885   25.0299 H   0  0  0  0  0  0
  -28.0735  -31.8363   26.5352 H   0  0  0  0  0  0
  -28.2605  -38.0123   24.7516 H   0  0  0  0  0  0
  -28.1075  -36.2661   24.6279 H   0  0  0  0  0  0
  -27.2300  -37.1465   25.8863 H   0  0  0  0  0  0
  -20.9246  -29.8755   21.6998 H   0  0  0  0  0  0
  -26.0199  -38.2908   24.1406 H   0  0  0  0  0  0
  -28.8318  -22.6227   21.8823 H   0  0  0  0  0  0
  -31.1092  -25.8665   18.9229 H   0  0  0  0  0  0
  -28.0849  -15.2473   22.6979 H   0  0  0  0  0  0
  -24.0193  -21.2499   20.3642 H   0  0  0  0  0  0
  -25.2985  -22.5664   20.3062 H   0  0  0  0  0  0
  -23.4186  -21.7973   17.9878 H   0  0  0  0  0  0
  -28.6548  -24.1652   23.6159 H   0  0  0  0  0  0
  -27.8829  -25.5095   22.7793 H   0  0  0  0  0  0
  -29.4777  -25.7152   23.5230 H   0  0  0  0  0  0
  -31.5988  -24.2793   17.3048 H   0  0  0  0  0  0
  -30.2803  -23.1357   17.0940 H   0  0  0  0  0  0
  -31.8012  -22.6191   17.8394 H   0  0  0  0  0  0
  -26.1533  -16.4704   23.0053 H   0  0  0  0  0  0
  -25.9880  -17.7854   21.8510 H   0  0  0  0  0  0
  -26.3593  -18.1248   23.5527 H   0  0  0  0  0  0
  -30.9127  -20.3910   22.0923 H   0  0  0  0  0  0
  -31.2840  -19.6164   20.5411 H   0  0  0  0  0  0
  -32.1843  -19.2052   21.9826 H   0  0  0  0  0  0
  -23.9894  -19.4315   18.6047 H   0  0  0  0  0  0
  -25.6163  -18.8894   19.0039 H   0  0  0  0  0  0
  -25.2088  -19.3343   17.3374 H   0  0  0  0  0  0
  -28.7822  -20.6008   22.0824 H   0  0  0  0  0  0
  -27.2071  -19.9501   22.2993 H   0  0  0  0  0  0
  -30.2296  -27.6594   20.3588 H   0  0  0  0  0  0
  -29.2413  -27.2950   21.7769 H   0  0  0  0  0  0
  -27.0830  -22.2259   17.9253 H   0  0  0  0  0  0
  -27.3075  -20.5346   17.6775 H   0  0  0  0  0  0
  -27.3871  -21.9231   20.4126 H   0  0  0  0  0  0
  -30.0152  -14.0459   22.5172 H   0  0  0  0  0  0
  -26.9751  -19.4123   20.0984 H   0  0  0  0  0  0
  -28.5759  -19.3892   19.7776 H   0  0  0  0  0  0
  1 25  1  0  0  0
  1 30  2  0  0  0
  1 96  1  0  0  0
  2  3  1  0  0  0
  2 25  1  0  0  0
  2100  1  0  0  0
  2101  1  0  0  0
  3  4  1  0  0  0
  3102  1  0  0  0
  3103  1  0  0  0
  4  5  1  0  0  0
  4104  1  0  0  0
  4105  1  0  0  0
  5  6  1  0  0  0
  5 26  1  0  0  0
  5106  1  0  0  0
  6 25  1  0  0  0
  6107  1  0  0  0
  6108  1  0  0  0
  7  8  2  0  0  0
  7 26  1  0  0  0
  7 29  1  0  0  0
  8  9  1  0  0  0
  8 22  1  0  0  0
  9 10  1  0  0  0
  9 27  2  0  0  0
 10 11  2  0  0  0
 10 15  1  0  0  0
 11 12  1  0  0  0
 11109  1  0  0  0
 12 13  2  0  0  0
 12110  1  0  0  0
 13 14  1  0  0  0
 13 31  1  0  0  0
 14 15  2  0  0  0
 14111  1  0  0  0
 15112  1  0  0  0
 16 17  2  0  0  0
 16 21  1  0  0  0
 16 31  1  0  0  0
 17 18  1  0  0  0
 17113  1  0  0  0
 18 19  2  0  0  0
 18114  1  0  0  0
 19 20  1  0  0  0
 19 24  1  0  0  0
 20 21  2  0  0  0
 20115  1  0  0  0
 21 23  1  0  0  0
 22 28  1  0  0  0
 22 32  2  0  0  0
 26 27  1  0  0  0
 28116  1  0  0  0
 28117  1  0  0  0
 29118  1  0  0  0
 29119  1  0  0  0
 33 34  1  0  0  0
 33 66  1  0  0  0
 33 70  2  0  0  0
 34 36  1  0  0  0
 34 59  1  0  0  0
 34120  1  0  0  0
 35 44  2  0  0  0
 35 45  1  0  0  0
 35 68  1  0  0  0
 36 56  1  0  0  0
 36121  1  0  0  0
 37 39  1  0  0  0
 37 47  1  0  0  0
 37 66  1  0  0  0
 37122  1  0  0  0
 38 43  2  0  0  0
 38 46  1  0  0  0
 38 47  1  0  0  0
 39 64  1  0  0  0
 39 67  2  0  0  0
 40 52  1  0  0  0
 40 53  2  0  0  0
 40 58  1  0  0  0
 41123  1  0  0  0
 41124  1  0  0  0
 41125  1  0  0  0
 41 48  1  0  0  0
 42 43  1  0  0  0
 42 66  1  0  0  0
 42126  1  0  0  0
 42127  1  0  0  0
 43 44  1  0  0  0
 44128  1  0  0  0
 45 46  2  0  0  0
 45129  1  0  0  0
 46130  1  0  0  0
 47131  1  0  0  0
 47132  1  0  0  0
 48 56  1  0  0  0
 48 65  1  0  0  0
 48133  1  0  0  0
 49 50  1  0  0  0
 49 53  1  0  0  0
 49 64  1  0  0  0
 49134  1  0  0  0
 50 51  1  0  0  0
 50135  1  0  0  0
 50136  1  0  0  0
 51 52  1  0  0  0
 51137  1  0  0  0
 51138  1  0  0  0
 52139  1  0  0  0
 52140  1  0  0  0
 53 54  1  0  0  0
 54 55  2  0  0  0
 54141  1  0  0  0
 55 57  1  0  0  0
 55142  1  0  0  0
 56 69  2  0  0  0
 57 58  2  0  0  0
 57143  1  0  0  0
 58144  1  0  0  0
 59 60  1  0  0  0
 59 61  1  0  0  0
 59 62  1  0  0  0
 60145  1  0  0  0
 60146  1  0  0  0
 60147  1  0  0  0
 61148  1  0  0  0
 61149  1  0  0  0
 61150  1  0  0  0
 62151  1  0  0  0
 62152  1  0  0  0
 62153  1  0  0  0
 63 65  1  0  0  0
 63154  1  0  0  0
 63155  1  0  0  0
 63156  1  0  0  0
 64157  1  0  0  0
 65158  1  0  0  0
 68 92  1  0  0  0
 71 74  2  0  0  0
 71 75  1  0  0  0
 71159  1  0  0  0
 72 76  2  0  0  0
 72 77  1  0  0  0
 72160  1  0  0  0
 73 78  2  0  0  0
 73 81  1  0  0  0
 73161  1  0  0  0
 74 76  1  0  0  0
 74 82  1  0  0  0
 75 77  2  0  0  0
 75 86  1  0  0  0
 76 87  1  0  0  0
 77 92  1  0  0  0
 78 79  1  0  0  0
 78 88  1  0  0  0
 79 80  2  0  0  0
 79 91  1  0  0  0
 80 89  1  0  0  0
 80 95  1  0  0  0
 81 95  2  0  0  0
 81 96  1  0  0  0
 82 94  1  0  0  0
 82 98  2  0  0  0
 83 84  1  0  0  0
 83 85  1  0  0  0
 83162  1  0  0  0
 83163  1  0  0  0
 84 85  1  0  0  0
 84 99  1  0  0  0
 84164  1  0  0  0
 85 90  1  0  0  0
 85 93  1  0  0  0
 86165  1  0  0  0
 86166  1  0  0  0
 86167  1  0  0  0
 87168  1  0  0  0
 87169  1  0  0  0
 87170  1  0  0  0
 88171  1  0  0  0
 88172  1  0  0  0
 88173  1  0  0  0
 89174  1  0  0  0
 89175  1  0  0  0
 89176  1  0  0  0
 90177  1  0  0  0
 90178  1  0  0  0
 90179  1  0  0  0
 91 97  1  0  0  0
 91180  1  0  0  0
 91181  1  0  0  0
 92182  1  0  0  0
 92183  1  0  0  0
 93184  1  0  0  0
 93185  1  0  0  0
 93 94  1  0  0  0
 94 97  1  0  0  0
 94186  1  0  0  0
 96187  1  0  0  0
 97188  1  0  0  0
 97189  1  0  0  0
M  CHG  1  97   1
M  ISO  4   1 100  68 101  92 101  96 100
M  END
> <chiral flag>
0

> <version>
0

> <s_m_source_file>
/data/baiqing/PycharmProjects/Reinvent-master-3.2/result/LINK_invent/BTK/process_docking_weight1_custom_sum_contain_oxygen_bond_distance_aromatic_linkinvent_7_9_3/rearranged_h_0167.sdf

> <i_m_source_file_index>
92

> <r_mmod_Potential_Energy-OPLS-2005>
-126.574089050293

> <r_mmod_Stretch_Energy-OPLS-2005>
35.7318153381348

> <r_mmod_Bend_Energy-OPLS-2005>
133.388595581055

> <r_mmod_Torsional_Energy-OPLS-2005>
406.377227783203

> <r_mmod_Improper_Torsional_Energy-OPLS-2005>
16.4169006347656

> <r_mmod_Van_der_Waal_Energy-OPLS-2005>
165.617446899414

> <r_mmod_Electrostatic_Energy-OPLS-2005>
-425.480072021484

> <r_mmod_Solvation_Energy-OPLS-2005>
-470.782897949219

> <b_mmod_Minimization_Converged-OPLS-2005>
0

> <r_mmod_RMS_Derivative-OPLS-2005>
2.33954119682312

$$$$
92
                    3D
 Structure written by MMmdl.
207219  0  0  1  0            999 V2000
  -30.8092  -14.3434   20.6780 C   0  0  0  0  0  0
  -30.4741  -12.2724   19.3912 C   0  0  0  0  0  0
  -29.5852  -12.5674   18.1677 C   0  0  0  0  0  0
  -28.0986  -12.5209   18.5372 C   0  0  0  0  0  0
  -27.7793  -13.3448   19.8210 C   0  0  2  0  0  0
  -28.7429  -12.9217   20.9516 C   0  0  0  0  0  0
  -25.3338  -14.0437   20.3600 C   0  0  0  0  0  0
  -24.2336  -13.2933   20.5927 C   0  0  0  0  0  0
  -24.7256  -12.0258   20.2557 C   0  0  0  0  0  0
  -24.1682  -10.8454   20.5179 C   0  0  0  0  0  0
  -24.1208  -10.4353   21.6497 C   0  0  0  0  0  0
  -23.0151   -8.8631   22.6507 C   0  0  0  0  0  0
  -22.2006   -8.0472   21.8219 C   0  0  0  0  0  0
  -22.2955   -8.6686   20.6609 C   0  0  0  0  0  0
  -23.3153  -10.0542   20.0615 C   0  0  0  0  0  0
  -21.6209   -6.0217   22.7518 C   0  0  0  0  0  0
  -21.3427   -6.4652   24.0449 C   0  0  0  0  0  0
  -21.3595   -5.5433   25.0845 C   0  0  0  0  0  0
  -21.6209   -4.1934   24.8004 C   0  0  0  0  0  0
  -21.8967   -3.7528   23.4902 C   0  0  0  0  0  0
  -21.9031   -4.6802   22.4401 C   0  0  0  0  0  0
  -22.8394  -13.7531   20.9675 C   0  0  0  0  0  0
  -22.1437   -4.2823   21.1625 F   0  0  0  0  0  0
  -21.5983   -3.3096   25.8158 F   0  0  0  0  0  0
  -30.1105  -13.1961   20.4715 N   0  0  0  0  0  0
  -26.3995  -13.1648   20.1835 N   0  0  0  0  0  0
  -26.0160  -11.9097   20.2337 N   0  0  0  0  0  0
  -22.1619  -13.2043   21.9615 N   0  0  0  0  0  0
  -25.4793  -15.3984   20.2377 N   0  0  0  0  0  0
  -31.8064  -14.6713   20.0297 O   0  0  0  0  0  0
  -21.4684   -6.9111   21.7904 O   0  0  0  0  0  0
  -22.3436  -14.7192   20.4124 O   0  0  0  0  0  0
  -24.6574  -31.8271   23.1732 C   0  0  0  0  0  0
  -25.9298  -32.4546   23.8182 C   0  0  1  0  0  0
  -26.9004  -26.7634   20.4142 C   0  0  0  0  0  0
  -25.6006  -33.8377   24.2111 N   0  0  0  0  0  0
  -23.4636  -30.4534   21.5218 C   0  0  2  0  0  0
  -24.8805  -28.8444   20.0902 C   0  0  0  0  0  0
  -22.7607  -29.4481   22.4728 C   0  0  0  0  0  0
  -18.0336  -28.1393   22.8496 C   0  0  0  0  0  0
  -24.1530  -36.7188   23.2646 C   0  0  0  0  0  0
  -26.0291  -30.5912   21.4257 C   0  0  0  0  0  0
  -26.0481  -29.1737   20.7859 C   0  0  0  0  0  0
  -27.0801  -28.1454   20.9167 C   0  0  0  0  0  0
  -25.8143  -26.6369   19.5399 C   0  0  0  0  0  0
  -24.8088  -27.6174   19.4154 C   0  0  0  0  0  0
  -23.6950  -29.8012   20.1310 C   0  0  0  0  0  0
  -25.4167  -36.2934   24.0299 C   0  0  1  0  0  0
  -20.5949  -28.3757   23.1196 C   0  0  2  0  0  0
  -20.6808  -26.9446   22.5405 C   0  0  0  0  0  0
  -19.5773  -26.6376   21.5225 C   0  0  0  0  0  0
  -18.1959  -26.7930   22.1644 C   0  0  0  0  0  0
  -19.1589  -28.8889   23.2853 C   0  0  0  0  0  0
  -18.9496  -30.1486   23.8873 C   0  0  0  0  0  0
  -17.6486  -30.6592   24.0563 C   0  0  0  0  0  0
  -25.9131  -34.9316   23.5030 C   0  0  0  0  0  0
  -16.5384  -29.9077   23.6339 C   0  0  0  0  0  0
  -16.7320  -28.6493   23.0371 C   0  0  0  0  0  0
  -26.4559  -31.6472   25.0702 C   0  0  0  0  0  0
  -25.3687  -31.3710   26.1355 C   0  0  0  0  0  0
  -27.0446  -30.2808   24.6500 C   0  0  0  0  0  0
  -27.6075  -32.4289   25.7455 C   0  0  0  0  0  0
  -27.5596  -37.1747   24.8466 C   0  0  0  0  0  0
  -21.4280  -29.3057   22.3506 N   0  0  0  0  0  0
  -26.4315  -37.3670   23.9389 N   0  0  0  0  0  0
  -24.7395  -30.9884   22.0916 N   0  0  0  0  0  0
  -23.4180  -28.8078   23.2982 O   0  0  0  0  0  0
  -27.5876  -25.5059   20.8015 O   0  0  0  0  0  0
  -26.5734  -34.8846   22.4617 O   0  0  0  0  0  0
  -23.5663  -32.1358   23.6794 O   0  0  0  0  0  0
  -26.6132  -18.0389   21.3924 C   0  0  0  0  0  0
  -25.8098  -11.9661   24.1873 C   0  0  0  0  0  0
  -26.2643  -10.5090   23.6279 C   0  0  0  0  0  0
  -23.8759   -8.0392   19.0777 C   0  0  0  0  0  0
  -30.0592  -16.6371   21.4797 C   0  0  0  0  0  0
  -25.6762  -19.0030   22.1858 C   0  0  1  0  0  0
  -24.5643   -8.3825   21.1889 C   0  0  1  0  0  0
  -21.9554  -10.5999   21.8565 C   0  0  1  0  0  0
  -22.0506   -9.0884   18.3549 C   0  0  2  0  0  0
  -29.2549  -16.4216   22.7704 C   0  0  2  0  0  0
  -21.0654  -10.4723   19.8011 C   0  0  2  0  0  0
  -24.3799  -12.6408   23.8679 C   0  0  2  0  0  0
  -30.1888  -15.2184   22.9956 C   0  0  2  0  0  0
  -25.0753   -9.4715   23.4117 C   0  0  2  0  0  0
  -23.4009  -11.0573   23.6596 C   0  0  2  0  0  0
  -25.6664  -17.4579   23.1810 C   0  0  1  0  0  0
  -21.0440   -8.1407   17.6770 C   0  0  0  0  0  0
  -20.7560  -11.8303   19.1651 C   0  0  0  0  0  0
  -31.5827  -15.3324   23.6249 C   0  0  0  0  0  0
  -25.2926   -8.4474   24.5472 C   0  0  0  0  0  0
  -22.6412  -10.9586   24.9888 C   0  0  0  0  0  0
  -26.0701  -17.8135   24.6166 C   0  0  0  0  0  0
  -23.2537  -16.1747   23.3245 C   0  0  0  0  0  0
  -26.6107  -20.6254   21.9249 C   0  0  0  0  0  0
  -27.7716  -16.0518   22.6310 C   0  0  0  0  0  0
  -26.3353  -22.4582   21.6842 C   0  0  0  0  0  0
  -27.1453  -23.8581   20.7478 C   0  0  0  0  0  0
  -24.7290  -15.8225   23.4454 C   0  0  1  0  0  0
  -26.8757  -17.1742   22.4495 N   0  0  0  0  0  0
  -30.2278  -15.1906   21.5318 N   0  0  0  0  0  0
  -27.0753  -18.0292   20.2705 O   0  0  0  0  0  0
  -24.7841  -14.1450   23.1523 O   0  0  0  0  0  0
  -31.5256  -12.3613   19.1152 H   0  0  0  0  0  0
  -30.3417  -11.2417   19.7227 H   0  0  0  0  0  0
  -29.7991  -11.8490   17.3750 H   0  0  0  0  0  0
  -29.8310  -13.5518   17.7645 H   0  0  0  0  0  0
  -27.8502  -11.4678   18.6682 H   0  0  0  0  0  0
  -27.4916  -12.8776   17.7045 H   0  0  0  0  0  0
  -27.9193  -14.4042   19.6096 H   0  0  0  0  0  0
  -28.6425  -11.8561   21.1630 H   0  0  0  0  0  0
  -28.4910  -13.4017   21.8919 H   0  0  0  0  0  0
  -24.8139  -11.1276   22.0789 H   0  0  0  0  0  0
  -22.9703   -8.6019   23.6976 H   0  0  0  0  0  0
  -21.5371   -8.0996   20.1460 H   0  0  0  0  0  0
  -23.3520  -10.5674   19.1045 H   0  0  0  0  0  0
  -21.0827   -7.4953   24.2428 H   0  0  0  0  0  0
  -21.1512   -5.8613   26.0972 H   0  0  0  0  0  0
  -22.0947   -2.7082   23.2992 H   0  0  0  0  0  0
  -22.5101  -12.3671   22.4116 H   0  0  0  0  0  0
  -21.2604  -13.5697   22.2211 H   0  0  0  0  0  0
  -24.6661  -15.9999   20.2609 H   0  0  0  0  0  0
  -26.3213  -15.8756   19.9413 H   0  0  0  0  0  0
  -26.7343  -32.5037   23.0864 H   0  0  0  0  0  0
  -25.0013  -33.9473   25.0169 H   0  0  0  0  0  0
  -22.7841  -31.2946   21.3725 H   0  0  0  0  0  0
  -23.3794  -35.9518   23.3249 H   0  0  0  0  0  0
  -24.3630  -36.8874   22.2074 H   0  0  0  0  0  0
  -23.7302  -37.6367   23.6741 H   0  0  0  0  0  0
  -26.2273  -31.3156   20.6353 H   0  0  0  0  0  0
  -26.8843  -30.6377   22.0854 H   0  0  0  0  0  0
  -27.9302  -28.3424   21.5536 H   0  0  0  0  0  0
  -25.6364  -25.6813   19.0661 H   0  0  0  0  0  0
  -23.9264  -27.3754   18.8376 H   0  0  0  0  0  0
  -23.8689  -30.5829   19.3915 H   0  0  0  0  0  0
  -22.7920  -29.2858   19.8005 H   0  0  0  0  0  0
  -25.1380  -36.1725   25.0796 H   0  0  0  0  0  0
  -21.0099  -28.3321   24.1299 H   0  0  0  0  0  0
  -20.5674  -26.2387   23.3649 H   0  0  0  0  0  0
  -21.6670  -26.7401   22.1225 H   0  0  0  0  0  0
  -19.6923  -25.6276   21.1279 H   0  0  0  0  0  0
  -19.6656  -27.3159   20.6727 H   0  0  0  0  0  0
  -17.4232  -26.6707   21.4042 H   0  0  0  0  0  0
  -18.0328  -26.0072   22.9036 H   0  0  0  0  0  0
  -19.7968  -30.7329   24.2200 H   0  0  0  0  0  0
  -17.5030  -31.6254   24.5183 H   0  0  0  0  0  0
  -15.5380  -30.2968   23.7655 H   0  0  0  0  0  0
  -15.8729  -28.0794   22.7103 H   0  0  0  0  0  0
  -24.5927  -30.7002   25.7644 H   0  0  0  0  0  0
  -24.8799  -32.2881   26.4648 H   0  0  0  0  0  0
  -25.7904  -30.8959   27.0222 H   0  0  0  0  0  0
  -26.3085  -29.6455   24.1542 H   0  0  0  0  0  0
  -27.3964  -29.7229   25.5200 H   0  0  0  0  0  0
  -27.9068  -30.3938   23.9919 H   0  0  0  0  0  0
  -27.2689  -33.3684   26.1854 H   0  0  0  0  0  0
  -28.3915  -32.6689   25.0251 H   0  0  0  0  0  0
  -28.0714  -31.8527   26.5484 H   0  0  0  0  0  0
  -28.2568  -38.0081   24.7509 H   0  0  0  0  0  0
  -28.1136  -36.2598   24.6302 H   0  0  0  0  0  0
  -27.2291  -37.1379   25.8861 H   0  0  0  0  0  0
  -20.9516  -29.8743   21.6643 H   0  0  0  0  0  0
  -26.0144  -38.2722   24.1376 H   0  0  0  0  0  0
  -26.6008  -12.6759   23.9466 H   0  0  0  0  0  0
  -25.8608  -11.8846   25.2743 H   0  0  0  0  0  0
  -27.0475  -10.1255   24.2820 H   0  0  0  0  0  0
  -26.7813  -10.6493   22.6762 H   0  0  0  0  0  0
  -23.7264   -6.9699   18.9362 H   0  0  0  0  0  0
  -24.6959   -8.2869   18.4056 H   0  0  0  0  0  0
  -30.9808  -17.2121   21.5932 H   0  0  0  0  0  0
  -29.4638  -16.9981   20.6398 H   0  0  0  0  0  0
  -24.6908  -19.0862   21.7270 H   0  0  0  0  0  0
  -25.5923   -8.6318   20.8968 H   0  0  0  0  0  0
  -21.0947  -10.2904   22.4672 H   0  0  0  0  0  0
  -22.3691   -9.7039   17.5091 H   0  0  0  0  0  0
  -29.4306  -17.2042   23.5118 H   0  0  0  0  0  0
  -20.0727  -10.0423   19.9582 H   0  0  0  0  0  0
  -24.0358  -13.0484   24.8177 H   0  0  0  0  0  0
  -29.6409  -14.3826   23.4288 H   0  0  0  0  0  0
  -20.6501   -7.3894   18.3609 H   0  0  0  0  0  0
  -21.5009   -7.6192   16.8347 H   0  0  0  0  0  0
  -20.1935   -8.6980   17.2868 H   0  0  0  0  0  0
  -21.6619  -12.3509   18.8573 H   0  0  0  0  0  0
  -20.2079  -12.4762   19.8522 H   0  0  0  0  0  0
  -20.1342  -11.7004   18.2820 H   0  0  0  0  0  0
  -32.1550  -16.1823   23.2562 H   0  0  0  0  0  0
  -32.1739  -14.4357   23.4350 H   0  0  0  0  0  0
  -31.5085  -15.4394   24.7073 H   0  0  0  0  0  0
  -26.3018   -8.0309   24.5296 H   0  0  0  0  0  0
  -24.6346   -7.5845   24.4662 H   0  0  0  0  0  0
  -25.1236   -8.8945   25.5277 H   0  0  0  0  0  0
  -21.9971  -11.8246   25.1351 H   0  0  0  0  0  0
  -23.3136  -10.9203   25.8471 H   0  0  0  0  0  0
  -21.9957  -10.0804   25.0391 H   0  0  0  0  0  0
  -25.1916  -17.9714   25.2414 H   0  0  0  0  0  0
  -26.6566  -18.7306   24.6590 H   0  0  0  0  0  0
  -26.6662  -17.0336   25.0947 H   0  0  0  0  0  0
  -23.0422  -17.1032   23.8533 H   0  0  0  0  0  0
  -22.6253  -15.3954   23.7552 H   0  0  0  0  0  0
  -22.9761  -16.3336   22.2854 H   0  0  0  0  0  0
  -27.1499  -20.4579   20.9918 H   0  0  0  0  0  0
  -27.4128  -20.5902   22.6610 H   0  0  0  0  0  0
  -27.4623  -15.4775   23.5036 H   0  0  0  0  0  0
  -27.6156  -15.3956   21.7832 H   0  0  0  0  0  0
  -26.3070  -22.8312   22.7076 H   0  0  0  0  0  0
  -25.2928  -22.5354   21.3745 H   0  0  0  0  0  0
  -26.7212  -23.7596   19.7481 H   0  0  0  0  0  0
  -28.1450  -23.4438   20.6057 H   0  0  0  0  0  0
  -24.8531  -15.6868   24.5201 H   0  0  0  0  0  0
  1 25  1  0  0  0
  1 30  2  0  0  0
  1100  1  0  0  0
  2  3  1  0  0  0
  2 25  1  0  0  0
  2103  1  0  0  0
  2104  1  0  0  0
  3  4  1  0  0  0
  3105  1  0  0  0
  3106  1  0  0  0
  4  5  1  0  0  0
  4107  1  0  0  0
  4108  1  0  0  0
  5  6  1  0  0  0
  5 26  1  0  0  0
  5109  1  0  0  0
  6 25  1  0  0  0
  6110  1  0  0  0
  6111  1  0  0  0
  7  8  2  0  0  0
  7 26  1  0  0  0
  7 29  1  0  0  0
  8  9  1  0  0  0
  8 22  1  0  0  0
  9 10  1  0  0  0
  9 27  2  0  0  0
 10 11  2  0  0  0
 10 15  1  0  0  0
 11 12  1  0  0  0
 11112  1  0  0  0
 12 13  2  0  0  0
 12113  1  0  0  0
 13 14  1  0  0  0
 13 31  1  0  0  0
 14 15  2  0  0  0
 14114  1  0  0  0
 15115  1  0  0  0
 16 17  2  0  0  0
 16 21  1  0  0  0
 16 31  1  0  0  0
 17 18  1  0  0  0
 17116  1  0  0  0
 18 19  2  0  0  0
 18117  1  0  0  0
 19 20  1  0  0  0
 19 24  1  0  0  0
 20 21  2  0  0  0
 20118  1  0  0  0
 21 23  1  0  0  0
 22 28  1  0  0  0
 22 32  2  0  0  0
 26 27  1  0  0  0
 28119  1  0  0  0
 28120  1  0  0  0
 29121  1  0  0  0
 29122  1  0  0  0
 33 34  1  0  0  0
 33 66  1  0  0  0
 33 70  2  0  0  0
 34 36  1  0  0  0
 34 59  1  0  0  0
 34123  1  0  0  0
 35 44  2  0  0  0
 35 45  1  0  0  0
 35 68  1  0  0  0
 36 56  1  0  0  0
 36124  1  0  0  0
 37 39  1  0  0  0
 37 47  1  0  0  0
 37 66  1  0  0  0
 37125  1  0  0  0
 38 43  2  0  0  0
 38 46  1  0  0  0
 38 47  1  0  0  0
 39 64  1  0  0  0
 39 67  2  0  0  0
 40 52  1  0  0  0
 40 53  2  0  0  0
 40 58  1  0  0  0
 41126  1  0  0  0
 41127  1  0  0  0
 41128  1  0  0  0
 41 48  1  0  0  0
 42 43  1  0  0  0
 42 66  1  0  0  0
 42129  1  0  0  0
 42130  1  0  0  0
 43 44  1  0  0  0
 44131  1  0  0  0
 45 46  2  0  0  0
 45132  1  0  0  0
 46133  1  0  0  0
 47134  1  0  0  0
 47135  1  0  0  0
 48 56  1  0  0  0
 48 65  1  0  0  0
 48136  1  0  0  0
 49 50  1  0  0  0
 49 53  1  0  0  0
 49 64  1  0  0  0
 49137  1  0  0  0
 50 51  1  0  0  0
 50138  1  0  0  0
 50139  1  0  0  0
 51 52  1  0  0  0
 51140  1  0  0  0
 51141  1  0  0  0
 52142  1  0  0  0
 52143  1  0  0  0
 53 54  1  0  0  0
 54 55  2  0  0  0
 54144  1  0  0  0
 55 57  1  0  0  0
 55145  1  0  0  0
 56 69  2  0  0  0
 57 58  2  0  0  0
 57146  1  0  0  0
 58147  1  0  0  0
 59 60  1  0  0  0
 59 61  1  0  0  0
 59 62  1  0  0  0
 60148  1  0  0  0
 60149  1  0  0  0
 60150  1  0  0  0
 61151  1  0  0  0
 61152  1  0  0  0
 61153  1  0  0  0
 62154  1  0  0  0
 62155  1  0  0  0
 62156  1  0  0  0
 63 65  1  0  0  0
 63157  1  0  0  0
 63158  1  0  0  0
 63159  1  0  0  0
 64160  1  0  0  0
 65161  1  0  0  0
 68 97  1  0  0  0
 71 76  1  0  0  0
 71 99  1  0  0  0
 71101  2  0  0  0
 72 73  1  0  0  0
 72 82  1  0  0  0
 72162  1  0  0  0
 72163  1  0  0  0
 73 84  1  0  0  0
 73164  1  0  0  0
 73165  1  0  0  0
 74 79  1  0  0  0
 74166  1  0  0  0
 74167  1  0  0  0
 74 77  1  0  0  0
 75 80  1  0  0  0
 75100  1  0  0  0
 75168  1  0  0  0
 75169  1  0  0  0
 76 86  1  0  0  0
 76 94  1  0  0  0
 76170  1  0  0  0
 77 78  1  0  0  0
 77 84  1  0  0  0
 77171  1  0  0  0
 78 81  1  0  0  0
 78 85  1  0  0  0
 78172  1  0  0  0
 79 81  1  0  0  0
 79 87  1  0  0  0
 79173  1  0  0  0
 80 83  1  0  0  0
 80 95  1  0  0  0
 80174  1  0  0  0
 81 88  1  0  0  0
 81175  1  0  0  0
 82 85  1  0  0  0
 82102  1  0  0  0
 82176  1  0  0  0
 83 89  1  0  0  0
 83100  1  0  0  0
 83177  1  0  0  0
 84 85  1  0  0  0
 84 90  1  0  0  0
 85 91  1  0  0  0
 86 92  1  0  0  0
 86 98  1  0  0  0
 86 99  1  0  0  0
 87178  1  0  0  0
 87179  1  0  0  0
 87180  1  0  0  0
 88181  1  0  0  0
 88182  1  0  0  0
 88183  1  0  0  0
 89184  1  0  0  0
 89185  1  0  0  0
 89186  1  0  0  0
 90187  1  0  0  0
 90188  1  0  0  0
 90189  1  0  0  0
 91190  1  0  0  0
 91191  1  0  0  0
 91192  1  0  0  0
 92193  1  0  0  0
 92194  1  0  0  0
 92195  1  0  0  0
 93196  1  0  0  0
 93197  1  0  0  0
 93198  1  0  0  0
 93 98  1  0  0  0
 94 96  1  0  0  0
 94199  1  0  0  0
 94200  1  0  0  0
 95 99  1  0  0  0
 95201  1  0  0  0
 95202  1  0  0  0
 96 97  1  0  0  0
 96203  1  0  0  0
 96204  1  0  0  0
 97205  1  0  0  0
 97206  1  0  0  0
 98102  1  0  0  0
 98207  1  0  0  0
M  ISO  4   1 100  68 101  97 101 100 100
M  END
> <chiral flag>
0

> <version>
0

> <s_m_source_file>
/data/baiqing/PycharmProjects/Reinvent-master-3.2/result/LINK_invent/BTK/process_docking_weight1_custom_sum_contain_oxygen_bond_distance_aromatic_linkinvent_7_9_3/rearranged_h_0167.sdf

> <i_m_source_file_index>
93

> <r_mmod_Potential_Energy-OPLS-2005>
19381.916015625

> <r_mmod_Stretch_Energy-OPLS-2005>
12083.65234375

> <r_mmod_Bend_Energy-OPLS-2005>
1943.23107910156

> <r_mmod_Torsional_Energy-OPLS-2005>
583.173217773438

> <r_mmod_Improper_Torsional_Energy-OPLS-2005>
23.5238800048828

> <r_mmod_Van_der_Waal_Energy-OPLS-2005>
4311.61083984375

> <r_mmod_Electrostatic_Energy-OPLS-2005>
-425.157562255859

> <r_mmod_Solvation_Energy-OPLS-2005>
-164.927871704102

> <b_mmod_Minimization_Converged-OPLS-2005>
0

> <r_mmod_RMS_Derivative-OPLS-2005>
6.73155164718628

$$$$
93
                    3D
 Structure written by MMmdl.
179189  0  0  1  0            999 V2000
  -30.6818  -14.5361   20.5515 C   0  0  0  0  0  0
  -30.4274  -12.3432   19.4333 C   0  0  0  0  0  0
  -29.4983  -12.5068   18.2123 C   0  0  0  0  0  0
  -28.0205  -12.3580   18.6255 C   0  0  0  0  0  0
  -27.6575  -13.2130   19.8691 C   0  0  2  0  0  0
  -28.7016  -13.0307   20.9939 C   0  0  0  0  0  0
  -25.2573  -13.8169   20.5681 C   0  0  0  0  0  0
  -24.1836  -13.0438   20.9184 C   0  0  0  0  0  0
  -24.6399  -11.6909   20.8741 C   0  0  0  0  0  0
  -23.9069  -10.4293   21.0411 C   0  0  0  0  0  0
  -24.3620   -9.4208   21.9189 C   0  0  0  0  0  0
  -23.6295   -8.2243   22.0758 C   0  0  0  0  0  0
  -22.4277   -8.0283   21.3546 C   0  0  0  0  0  0
  -21.9916   -9.0257   20.4646 C   0  0  0  0  0  0
  -22.7244  -10.2137   20.3057 C   0  0  0  0  0  0
  -21.6852   -6.0741   22.5284 C   0  0  0  0  0  0
  -21.4013   -6.5645   23.8218 C   0  0  0  0  0  0
  -21.3658   -5.6797   24.9178 C   0  0  0  0  0  0
  -21.6046   -4.3058   24.7227 C   0  0  0  0  0  0
  -21.8817   -3.8150   23.4348 C   0  0  0  0  0  0
  -21.9192   -4.6967   22.3407 C   0  0  0  0  0  0
  -22.7858  -13.5235   21.1849 C   0  0  0  0  0  0
  -22.1660   -4.2152   21.0983 F   0  0  0  0  0  0
  -21.5630   -3.4541   25.7737 F   0  0  0  0  0  0
  -30.0245  -13.3467   20.4328 N   0  0  0  0  0  0
  -26.3008  -12.9350   20.3344 N   0  0  0  0  0  0
  -25.9328  -11.6506   20.5766 N   0  0  0  0  0  0
  -22.0503  -12.8217   22.0403 N   0  0  0  0  0  0
  -25.4286  -15.1886   20.4087 N   0  0  0  0  0  0
  -31.8302  -14.7011   20.1318 O   0  0  0  0  0  0
  -21.6639   -6.8882   21.4246 O   0  0  0  0  0  0
  -22.3539  -14.5541   20.6702 O   0  0  0  0  0  0
  -24.6207  -31.8652   23.2091 C   0  0  0  0  0  0
  -25.9081  -32.4809   23.8394 C   0  0  1  0  0  0
  -27.2204  -27.3752   20.1063 C   0  0  0  0  0  0
  -25.5923  -33.8609   24.2321 N   0  0  0  0  0  0
  -23.4110  -30.4911   21.5514 C   0  0  2  0  0  0
  -24.8555  -28.9580   20.1129 C   0  0  0  0  0  0
  -22.7446  -29.4645   22.4970 C   0  0  0  0  0  0
  -18.0281  -28.1380   22.8485 C   0  0  0  0  0  0
  -24.1490  -36.7304   23.2641 C   0  0  0  0  0  0
  -25.9478  -30.8128   21.3728 C   0  0  0  0  0  0
  -26.0224  -29.4452   20.7158 C   0  0  0  0  0  0
  -27.2100  -28.6640   20.7064 C   0  0  0  0  0  0
  -26.0373  -26.9392   19.4674 C   0  0  0  0  0  0
  -24.8614  -27.7065   19.4818 C   0  0  0  0  0  0
  -23.6216  -29.8309   20.1645 C   0  0  0  0  0  0
  -25.4113  -36.3105   24.0336 C   0  0  1  0  0  0
  -20.5876  -28.3673   23.1299 C   0  0  2  0  0  0
  -20.6767  -26.9401   22.5418 C   0  0  0  0  0  0
  -19.5753  -26.6384   21.5209 C   0  0  0  0  0  0
  -18.1927  -26.7929   22.1612 C   0  0  0  0  0  0
  -19.1531  -28.8843   23.2889 C   0  0  0  0  0  0
  -18.9457  -30.1445   23.8902 C   0  0  0  0  0  0
  -17.6458  -30.6583   24.0564 C   0  0  0  0  0  0
  -25.9044  -34.9471   23.5125 C   0  0  0  0  0  0
  -16.5349  -29.9083   23.6324 C   0  0  0  0  0  0
  -16.7269  -28.6502   23.0343 C   0  0  0  0  0  0
  -26.4485  -31.6600   25.0740 C   0  0  0  0  0  0
  -25.3730  -31.3700   26.1466 C   0  0  0  0  0  0
  -27.0337  -30.3042   24.6151 C   0  0  0  0  0  0
  -27.6047  -32.4330   25.7512 C   0  0  0  0  0  0
  -27.5583  -37.1813   24.8465 C   0  0  0  0  0  0
  -21.4166  -29.3035   22.3703 N   0  0  0  0  0  0
  -26.4295  -37.3794   23.9412 N   0  0  0  0  0  0
  -24.6785  -31.0710   22.1021 N   0  0  0  0  0  0
  -23.4194  -28.8178   23.3025 O   0  0  0  0  0  0
  -28.3484  -26.5587   20.1287 O   0  0  0  0  0  0
  -26.5601  -34.8926   22.4683 O   0  0  0  0  0  0
  -23.5385  -32.1424   23.7451 O   0  0  0  0  0  0
  -29.3170  -21.6113   20.3453 C   0  0  0  0  0  0
  -28.9720  -20.2217   20.1376 C   0  0  0  0  0  0
  -28.6147  -22.6682   19.7143 C   0  0  0  0  0  0
  -27.8065  -19.9655   19.3446 C   0  0  0  0  0  0
  -27.5302  -22.3757   18.8484 C   0  0  0  0  0  0
  -27.0976  -21.0311   18.7178 C   0  0  0  0  0  0
  -29.3138  -17.9581   21.7144 C   0  0  0  0  0  0
  -30.4362  -17.8630   19.9053 C   0  0  0  0  0  0
  -30.1876  -23.7378   21.1668 C   0  0  0  0  0  0
  -29.8219  -19.0387   20.7221 C   0  0  1  0  0  0
  -30.3994  -16.9856   21.1828 C   0  0  2  0  0  0
  -30.4369  -22.1978   21.2158 C   0  0  0  0  0  0
  -29.1926  -24.0760   20.0244 C   0  0  1  0  0  0
  -27.2481  -18.5562   19.1260 C   0  0  0  0  0  0
  -26.8179  -23.4602   18.0426 C   0  0  0  0  0  0
  -25.8608  -20.7189   17.8650 C   0  0  0  0  0  0
  -31.8396  -21.9179   20.6292 C   0  0  0  0  0  0
  -30.3483  -21.7497   22.6952 C   0  0  0  0  0  0
  -30.0036  -24.6026   18.8166 C   0  0  0  0  0  0
  -28.1292  -25.1572   20.5016 C   0  0  0  0  0  0
  -29.9506  -15.5794   21.0129 N   0  0  0  0  0  0
  -31.4706  -12.4508   19.1309 H   0  0  0  0  0  0
  -30.3399  -11.3397   19.8526 H   0  0  0  0  0  0
  -29.7473  -11.7714   17.4461 H   0  0  0  0  0  0
  -29.6550  -13.4867   17.7583 H   0  0  0  0  0  0
  -27.8418  -11.3031   18.8377 H   0  0  0  0  0  0
  -27.3678  -12.6139   17.7902 H   0  0  0  0  0  0
  -27.6893  -14.2554   19.5506 H   0  0  0  0  0  0
  -28.6927  -12.0031   21.3606 H   0  0  0  0  0  0
  -28.4589  -13.6530   21.8565 H   0  0  0  0  0  0
  -25.2771   -9.5679   22.4761 H   0  0  0  0  0  0
  -24.0003   -7.4634   22.7480 H   0  0  0  0  0  0
  -21.0849   -8.8779   19.8949 H   0  0  0  0  0  0
  -22.3712  -10.9677   19.6162 H   0  0  0  0  0  0
  -21.2007   -7.6152   23.9720 H   0  0  0  0  0  0
  -21.1482   -6.0528   25.9082 H   0  0  0  0  0  0
  -22.0598   -2.7613   23.2848 H   0  0  0  0  0  0
  -22.4117  -11.9866   22.4767 H   0  0  0  0  0  0
  -21.1126  -13.1245   22.2623 H   0  0  0  0  0  0
  -24.6596  -15.8413   20.5137 H   0  0  0  0  0  0
  -26.2775  -15.6256   20.0750 H   0  0  0  0  0  0
  -26.7151  -32.5497   23.1152 H   0  0  0  0  0  0
  -25.0089  -33.9765   25.0477 H   0  0  0  0  0  0
  -22.7021  -31.3100   21.4142 H   0  0  0  0  0  0
  -23.3759  -35.9629   23.3300 H   0  0  0  0  0  0
  -24.3581  -36.8925   22.2056 H   0  0  0  0  0  0
  -23.7233  -37.6502   23.6659 H   0  0  0  0  0  0
  -26.0712  -31.5785   20.6055 H   0  0  0  0  0  0
  -26.8315  -30.8609   21.9974 H   0  0  0  0  0  0
  -28.1068  -29.0325   21.1845 H   0  0  0  0  0  0
  -25.9985  -26.0005   18.9401 H   0  0  0  0  0  0
  -23.9708  -27.3315   18.9966 H   0  0  0  0  0  0
  -23.7356  -30.6091   19.4090 H   0  0  0  0  0  0
  -22.7429  -29.2569   19.8648 H   0  0  0  0  0  0
  -25.1290  -36.1966   25.0829 H   0  0  0  0  0  0
  -20.9968  -28.3243   24.1423 H   0  0  0  0  0  0
  -20.5657  -26.2281   23.3612 H   0  0  0  0  0  0
  -21.6639  -26.7432   22.1224 H   0  0  0  0  0  0
  -19.6912  -25.6298   21.1232 H   0  0  0  0  0  0
  -19.6698  -27.3193   20.6738 H   0  0  0  0  0  0
  -17.4205  -26.6689   21.4004 H   0  0  0  0  0  0
  -18.0314  -26.0062   22.8999 H   0  0  0  0  0  0
  -19.7934  -30.7257   24.2277 H   0  0  0  0  0  0
  -17.5016  -31.6259   24.5177 H   0  0  0  0  0  0
  -15.5349  -30.2987   23.7647 H   0  0  0  0  0  0
  -15.8671  -28.0824   22.7048 H   0  0  0  0  0  0
  -24.5964  -30.6971   25.7806 H   0  0  0  0  0  0
  -24.8840  -32.2840   26.4846 H   0  0  0  0  0  0
  -25.8082  -30.8946   27.0266 H   0  0  0  0  0  0
  -26.2906  -29.6794   24.1182 H   0  0  0  0  0  0
  -27.4073  -29.7287   25.4631 H   0  0  0  0  0  0
  -27.8755  -30.4359   23.9347 H   0  0  0  0  0  0
  -27.2660  -33.3628   26.2095 H   0  0  0  0  0  0
  -28.3859  -32.6892   25.0344 H   0  0  0  0  0  0
  -28.0715  -31.8452   26.5427 H   0  0  0  0  0  0
  -28.2605  -38.0108   24.7515 H   0  0  0  0  0  0
  -28.1078  -36.2640   24.6294 H   0  0  0  0  0  0
  -27.2299  -37.1462   25.8868 H   0  0  0  0  0  0
  -20.9333  -29.8774   21.6934 H   0  0  0  0  0  0
  -26.0182  -38.2871   24.1413 H   0  0  0  0  0  0
  -28.2951  -17.6168   21.5401 H   0  0  0  0  0  0
  -29.4331  -18.2402   22.7609 H   0  0  0  0  0  0
  -31.4422  -18.0710   19.5384 H   0  0  0  0  0  0
  -29.8303  -17.4741   19.0909 H   0  0  0  0  0  0
  -31.1086  -24.3206   21.1105 H   0  0  0  0  0  0
  -29.7481  -24.0361   22.1182 H   0  0  0  0  0  0
  -30.6802  -19.4852   21.2014 H   0  0  0  0  0  0
  -31.3256  -17.0793   21.7542 H   0  0  0  0  0  0
  -27.8375  -17.7337   19.4958 H   0  0  0  0  0  0
  -27.1082  -18.3613   18.0621 H   0  0  0  0  0  0
  -26.2814  -18.4633   19.6217 H   0  0  0  0  0  0
  -27.3451  -24.4057   18.0023 H   0  0  0  0  0  0
  -25.8302  -23.6550   18.4609 H   0  0  0  0  0  0
  -26.6952  -23.1493   17.0047 H   0  0  0  0  0  0
  -25.2447  -19.9326   18.2978 H   0  0  0  0  0  0
  -26.1626  -20.4040   16.8657 H   0  0  0  0  0  0
  -25.1812  -21.5619   17.7579 H   0  0  0  0  0  0
  -31.9238  -22.2858   19.6074 H   0  0  0  0  0  0
  -32.1073  -20.8654   20.6008 H   0  0  0  0  0  0
  -32.6113  -22.4173   21.2159 H   0  0  0  0  0  0
  -29.3543  -21.9389   23.1028 H   0  0  0  0  0  0
  -31.0592  -22.3046   23.3087 H   0  0  0  0  0  0
  -30.5614  -20.6987   22.8653 H   0  0  0  0  0  0
  -30.7508  -23.8801   18.4916 H   0  0  0  0  0  0
  -30.5335  -25.5199   19.0739 H   0  0  0  0  0  0
  -29.3921  -24.8317   17.9485 H   0  0  0  0  0  0
  -28.0325  -25.1430   21.5867 H   0  0  0  0  0  0
  -27.1469  -24.8085   20.2083 H   0  0  0  0  0  0
  -29.0108  -15.3584   21.3055 H   0  0  0  0  0  0
  1 25  1  0  0  0
  1 30  2  0  0  0
  1 91  1  0  0  0
  2  3  1  0  0  0
  2 25  1  0  0  0
  2 92  1  0  0  0
  2 93  1  0  0  0
  3  4  1  0  0  0
  3 94  1  0  0  0
  3 95  1  0  0  0
  4  5  1  0  0  0
  4 96  1  0  0  0
  4 97  1  0  0  0
  5  6  1  0  0  0
  5 26  1  0  0  0
  5 98  1  0  0  0
  6 25  1  0  0  0
  6 99  1  0  0  0
  6100  1  0  0  0
  7  8  2  0  0  0
  7 26  1  0  0  0
  7 29  1  0  0  0
  8  9  1  0  0  0
  8 22  1  0  0  0
  9 10  1  0  0  0
  9 27  2  0  0  0
 10 11  2  0  0  0
 10 15  1  0  0  0
 11 12  1  0  0  0
 11101  1  0  0  0
 12 13  2  0  0  0
 12102  1  0  0  0
 13 14  1  0  0  0
 13 31  1  0  0  0
 14 15  2  0  0  0
 14103  1  0  0  0
 15104  1  0  0  0
 16 17  2  0  0  0
 16 21  1  0  0  0
 16 31  1  0  0  0
 17 18  1  0  0  0
 17105  1  0  0  0
 18 19  2  0  0  0
 18106  1  0  0  0
 19 20  1  0  0  0
 19 24  1  0  0  0
 20 21  2  0  0  0
 20107  1  0  0  0
 21 23  1  0  0  0
 22 28  1  0  0  0
 22 32  2  0  0  0
 26 27  1  0  0  0
 28108  1  0  0  0
 28109  1  0  0  0
 29110  1  0  0  0
 29111  1  0  0  0
 33 34  1  0  0  0
 33 66  1  0  0  0
 33 70  2  0  0  0
 34 36  1  0  0  0
 34 59  1  0  0  0
 34112  1  0  0  0
 35 44  2  0  0  0
 35 45  1  0  0  0
 35 68  1  0  0  0
 36 56  1  0  0  0
 36113  1  0  0  0
 37 39  1  0  0  0
 37 47  1  0  0  0
 37 66  1  0  0  0
 37114  1  0  0  0
 38 43  2  0  0  0
 38 46  1  0  0  0
 38 47  1  0  0  0
 39 64  1  0  0  0
 39 67  2  0  0  0
 40 52  1  0  0  0
 40 53  2  0  0  0
 40 58  1  0  0  0
 41115  1  0  0  0
 41116  1  0  0  0
 41117  1  0  0  0
 41 48  1  0  0  0
 42 43  1  0  0  0
 42 66  1  0  0  0
 42118  1  0  0  0
 42119  1  0  0  0
 43 44  1  0  0  0
 44120  1  0  0  0
 45 46  2  0  0  0
 45121  1  0  0  0
 46122  1  0  0  0
 47123  1  0  0  0
 47124  1  0  0  0
 48 56  1  0  0  0
 48 65  1  0  0  0
 48125  1  0  0  0
 49 50  1  0  0  0
 49 53  1  0  0  0
 49 64  1  0  0  0
 49126  1  0  0  0
 50 51  1  0  0  0
 50127  1  0  0  0
 50128  1  0  0  0
 51 52  1  0  0  0
 51129  1  0  0  0
 51130  1  0  0  0
 52131  1  0  0  0
 52132  1  0  0  0
 53 54  1  0  0  0
 54 55  2  0  0  0
 54133  1  0  0  0
 55 57  1  0  0  0
 55134  1  0  0  0
 56 69  2  0  0  0
 57 58  2  0  0  0
 57135  1  0  0  0
 58136  1  0  0  0
 59 60  1  0  0  0
 59 61  1  0  0  0
 59 62  1  0  0  0
 60137  1  0  0  0
 60138  1  0  0  0
 60139  1  0  0  0
 61140  1  0  0  0
 61141  1  0  0  0
 61142  1  0  0  0
 62143  1  0  0  0
 62144  1  0  0  0
 62145  1  0  0  0
 63 65  1  0  0  0
 63146  1  0  0  0
 63147  1  0  0  0
 63148  1  0  0  0
 64149  1  0  0  0
 65150  1  0  0  0
 68 90  1  0  0  0
 71 72  1  0  0  0
 71 73  2  0  0  0
 71 82  1  0  0  0
 72 74  2  0  0  0
 72 80  1  0  0  0
 73 75  1  0  0  0
 73 83  1  0  0  0
 74 76  1  0  0  0
 74 84  1  0  0  0
 75 76  2  0  0  0
 75 85  1  0  0  0
 76 86  1  0  0  0
 77 80  1  0  0  0
 77 81  1  0  0  0
 77151  1  0  0  0
 77152  1  0  0  0
 78 80  1  0  0  0
 78 81  1  0  0  0
 78153  1  0  0  0
 78154  1  0  0  0
 79 82  1  0  0  0
 79 83  1  0  0  0
 79155  1  0  0  0
 79156  1  0  0  0
 80157  1  0  0  0
 81 91  1  0  0  0
 81158  1  0  0  0
 82 87  1  0  0  0
 82 88  1  0  0  0
 83 89  1  0  0  0
 83 90  1  0  0  0
 84159  1  0  0  0
 84160  1  0  0  0
 84161  1  0  0  0
 85162  1  0  0  0
 85163  1  0  0  0
 85164  1  0  0  0
 86165  1  0  0  0
 86166  1  0  0  0
 86167  1  0  0  0
 87168  1  0  0  0
 87169  1  0  0  0
 87170  1  0  0  0
 88171  1  0  0  0
 88172  1  0  0  0
 88173  1  0  0  0
 89174  1  0  0  0
 89175  1  0  0  0
 89176  1  0  0  0
 90177  1  0  0  0
 90178  1  0  0  0
 91179  1  0  0  0
M  ISO  4   1 100  68 101  90 101  91 100
M  END
> <chiral flag>
0

> <version>
0

> <s_m_source_file>
/data/baiqing/PycharmProjects/Reinvent-master-3.2/result/LINK_invent/BTK/process_docking_weight1_custom_sum_contain_oxygen_bond_distance_aromatic_linkinvent_7_9_3/rearranged_h_0167.sdf

> <i_m_source_file_index>
94

> <r_mmod_Potential_Energy-OPLS-2005>
108.734405517578

> <r_mmod_Stretch_Energy-OPLS-2005>
69.0468444824219

> <r_mmod_Bend_Energy-OPLS-2005>
184.100128173828

> <r_mmod_Torsional_Energy-OPLS-2005>
276.838317871094

> <r_mmod_Improper_Torsional_Energy-OPLS-2005>
3.45158171653748

> <r_mmod_Van_der_Waal_Energy-OPLS-2005>
177.303985595703

> <r_mmod_Electrostatic_Energy-OPLS-2005>
-428.506988525391

> <r_mmod_Solvation_Energy-OPLS-2005>
-198.738403320312

> <b_mmod_Minimization_Converged-OPLS-2005>
0

> <r_mmod_RMS_Derivative-OPLS-2005>
0.625954985618591

$$$$
94
                    3D
 Structure written by MMmdl.
169178  0  0  1  0            999 V2000
  -30.6652  -14.6630   20.4525 C   0  0  0  0  0  0
  -30.4170  -12.4003   19.4553 C   0  0  0  0  0  0
  -29.4988  -12.4838   18.2195 C   0  0  0  0  0  0
  -28.0228  -12.3324   18.6362 C   0  0  0  0  0  0
  -27.6415  -13.2301   19.8461 C   0  0  2  0  0  0
  -28.6890  -13.1514   20.9765 C   0  0  0  0  0  0
  -25.2534  -13.8203   20.5705 C   0  0  0  0  0  0
  -24.1816  -13.0440   20.9210 C   0  0  0  0  0  0
  -24.6400  -11.6917   20.8739 C   0  0  0  0  0  0
  -23.9072  -10.4284   21.0390 C   0  0  0  0  0  0
  -24.3625   -9.4201   21.9166 C   0  0  0  0  0  0
  -23.6311   -8.2228   22.0737 C   0  0  0  0  0  0
  -22.4292   -8.0265   21.3526 C   0  0  0  0  0  0
  -21.9920   -9.0231   20.4629 C   0  0  0  0  0  0
  -22.7239  -10.2118   20.3038 C   0  0  0  0  0  0
  -21.6860   -6.0736   22.5285 C   0  0  0  0  0  0
  -21.4014   -6.5640   23.8218 C   0  0  0  0  0  0
  -21.3666   -5.6787   24.9179 C   0  0  0  0  0  0
  -21.6049   -4.3050   24.7229 C   0  0  0  0  0  0
  -21.8826   -3.8148   23.4350 C   0  0  0  0  0  0
  -21.9199   -4.6964   22.3406 C   0  0  0  0  0  0
  -22.7837  -13.5205   21.1868 C   0  0  0  0  0  0
  -22.1662   -4.2150   21.0983 F   0  0  0  0  0  0
  -21.5630   -3.4533   25.7740 F   0  0  0  0  0  0
  -29.9923  -13.4695   20.3842 N   0  0  0  0  0  0
  -26.2952  -12.9401   20.3291 N   0  0  0  0  0  0
  -25.9332  -11.6543   20.5758 N   0  0  0  0  0  0
  -22.0494  -12.8178   22.0425 N   0  0  0  0  0  0
  -25.4254  -15.1923   20.4149 N   0  0  0  0  0  0
  -31.8661  -14.7100   20.1689 O   0  0  0  0  0  0
  -21.6645   -6.8871   21.4241 O   0  0  0  0  0  0
  -22.3498  -14.5491   20.6701 O   0  0  0  0  0  0
  -24.6278  -31.8580   23.2020 C   0  0  0  0  0  0
  -25.9117  -32.4770   23.8359 C   0  0  1  0  0  0
  -27.2143  -27.2955   20.1304 C   0  0  0  0  0  0
  -25.5917  -33.8574   24.2279 N   0  0  0  0  0  0
  -23.4213  -30.4821   21.5455 C   0  0  2  0  0  0
  -24.8662  -28.9311   20.1136 C   0  0  0  0  0  0
  -22.7477  -29.4618   22.4936 C   0  0  0  0  0  0
  -18.0289  -28.1365   22.8501 C   0  0  0  0  0  0
  -24.1477  -36.7298   23.2641 C   0  0  0  0  0  0
  -25.9640  -30.7830   21.3735 C   0  0  0  0  0  0
  -26.0378  -29.4081   20.7161 C   0  0  0  0  0  0
  -27.2194  -28.6048   20.7078 C   0  0  0  0  0  0
  -26.0262  -26.8768   19.4956 C   0  0  0  0  0  0
  -24.8637  -27.6721   19.4911 C   0  0  0  0  0  0
  -23.6359  -29.8163   20.1614 C   0  0  0  0  0  0
  -25.4104  -36.3085   24.0331 C   0  0  1  0  0  0
  -20.5889  -28.3679   23.1271 C   0  0  2  0  0  0
  -20.6765  -26.9393   22.5411 C   0  0  0  0  0  0
  -19.5744  -26.6362   21.5211 C   0  0  0  0  0  0
  -18.1926  -26.7909   22.1628 C   0  0  0  0  0  0
  -19.1543  -28.8839   23.2881 C   0  0  0  0  0  0
  -18.9469  -30.1437   23.8896 C   0  0  0  0  0  0
  -17.6473  -30.6576   24.0556 C   0  0  0  0  0  0
  -25.9051  -34.9450   23.5111 C   0  0  0  0  0  0
  -16.5362  -29.9073   23.6328 C   0  0  0  0  0  0
  -16.7278  -28.6481   23.0369 C   0  0  0  0  0  0
  -26.4486  -31.6601   25.0750 C   0  0  0  0  0  0
  -25.3717  -31.3763   26.1488 C   0  0  0  0  0  0
  -27.0332  -30.3019   24.6220 C   0  0  0  0  0  0
  -27.6032  -32.4345   25.7532 C   0  0  0  0  0  0
  -27.5575  -37.1809   24.8463 C   0  0  0  0  0  0
  -21.4190  -29.3044   22.3675 N   0  0  0  0  0  0
  -26.4280  -37.3785   23.9414 N   0  0  0  0  0  0
  -24.6901  -31.0584   22.0965 N   0  0  0  0  0  0
  -23.4193  -28.8150   23.3014 O   0  0  0  0  0  0
  -28.3090  -26.4141   20.1570 O   0  0  0  0  0  0
  -26.5628  -34.8918   22.4687 O   0  0  0  0  0  0
  -23.5446  -32.1373   23.7351 O   0  0  0  0  0  0
  -31.3177  -21.1680   21.5190 C   0  0  0  0  0  0
  -29.9003  -22.9541   20.5950 C   0  0  0  0  0  0
  -30.1324  -21.5138   20.8304 C   0  0  0  0  0  0
  -32.2485  -22.1315   21.8995 C   0  0  0  0  0  0
  -30.9912  -23.8151   20.9437 C   0  0  0  0  0  0
  -30.1453  -16.7253   21.7008 C   0  0  0  0  0  0
  -29.8994  -16.6576   19.2475 C   0  0  0  0  0  0
  -29.5358  -18.1786   21.6583 C   0  0  0  0  0  0
  -29.3584  -18.1395   19.3013 C   0  0  0  0  0  0
  -33.5156  -21.7517   22.6349 C   0  0  0  0  0  0
  -31.0805  -25.2867   20.5653 C   0  0  0  0  0  0
  -27.4840  -22.7202   19.6813 C   0  0  0  0  0  0
  -28.0821  -25.0316   20.6820 C   0  0  0  0  0  0
  -28.6449  -23.6914   19.9556 C   0  0  1  0  0  0
  -32.1001  -23.4220   21.5963 N   0  0  0  0  0  0
  -29.9424  -15.8475   20.5100 N   0  0  0  0  0  0
  -29.8940  -18.9198   20.4321 N   0  0  0  0  0  0
  -29.3809  -20.3415   20.4542 N   0  0  0  0  0  0
  -31.4616  -12.4946   19.1550 H   0  0  0  0  0  0
  -30.3313  -11.4228   19.9333 H   0  0  0  0  0  0
  -29.7625  -11.7065   17.5004 H   0  0  0  0  0  0
  -29.6464  -13.4371   17.7092 H   0  0  0  0  0  0
  -27.8609  -11.2834   18.8880 H   0  0  0  0  0  0
  -27.3684  -12.5400   17.7894 H   0  0  0  0  0  0
  -27.6402  -14.2558   19.4778 H   0  0  0  0  0  0
  -28.7061  -12.1545   21.4185 H   0  0  0  0  0  0
  -28.4455  -13.8482   21.7800 H   0  0  0  0  0  0
  -25.2773   -9.5683   22.4740 H   0  0  0  0  0  0
  -24.0037   -7.4619   22.7441 H   0  0  0  0  0  0
  -21.0858   -8.8736   19.8925 H   0  0  0  0  0  0
  -22.3689  -10.9650   19.6148 H   0  0  0  0  0  0
  -21.1993   -7.6145   23.9725 H   0  0  0  0  0  0
  -21.1488   -6.0510   25.9079 H   0  0  0  0  0  0
  -22.0605   -2.7611   23.2851 H   0  0  0  0  0  0
  -22.4137  -11.9867   22.4850 H   0  0  0  0  0  0
  -21.1086  -13.1149   22.2588 H   0  0  0  0  0  0
  -24.6677  -15.8545   20.5384 H   0  0  0  0  0  0
  -26.2933  -15.6301   20.1323 H   0  0  0  0  0  0
  -26.7192  -32.5420   23.1114 H   0  0  0  0  0  0
  -25.0038  -33.9708   25.0405 H   0  0  0  0  0  0
  -22.7159  -31.3031   21.4041 H   0  0  0  0  0  0
  -23.3735  -35.9636   23.3306 H   0  0  0  0  0  0
  -24.3567  -36.8920   22.2055 H   0  0  0  0  0  0
  -23.7226  -37.6500   23.6665 H   0  0  0  0  0  0
  -26.0999  -31.5433   20.6030 H   0  0  0  0  0  0
  -26.8433  -30.8314   22.0045 H   0  0  0  0  0  0
  -28.1204  -28.9699   21.1801 H   0  0  0  0  0  0
  -25.9873  -25.9108   19.0118 H   0  0  0  0  0  0
  -23.9674  -27.3022   19.0125 H   0  0  0  0  0  0
  -23.7585  -30.5940   19.4068 H   0  0  0  0  0  0
  -22.7536  -29.2506   19.8581 H   0  0  0  0  0  0
  -25.1282  -36.1941   25.0824 H   0  0  0  0  0  0
  -20.9997  -28.3255   24.1383 H   0  0  0  0  0  0
  -20.5627  -26.2300   23.3623 H   0  0  0  0  0  0
  -21.6633  -26.7383   22.1223 H   0  0  0  0  0  0
  -19.6890  -25.6268   21.1244 H   0  0  0  0  0  0
  -19.6667  -27.3167   20.6735 H   0  0  0  0  0  0
  -17.4188  -26.6664   21.4030 H   0  0  0  0  0  0
  -18.0323  -26.0033   22.9008 H   0  0  0  0  0  0
  -19.7948  -30.7247   24.2262 H   0  0  0  0  0  0
  -17.5032  -31.6257   24.5150 H   0  0  0  0  0  0
  -15.5365  -30.2980   23.7638 H   0  0  0  0  0  0
  -15.8678  -28.0785   22.7109 H   0  0  0  0  0  0
  -24.5869  -30.7126   25.7844 H   0  0  0  0  0  0
  -24.8934  -32.2946   26.4912 H   0  0  0  0  0  0
  -25.8037  -30.8953   27.0273 H   0  0  0  0  0  0
  -26.2924  -29.6789   24.1191 H   0  0  0  0  0  0
  -27.3968  -29.7257   25.4741 H   0  0  0  0  0  0
  -27.8818  -30.4310   23.9495 H   0  0  0  0  0  0
  -27.2617  -33.3635   26.2112 H   0  0  0  0  0  0
  -28.3847  -32.6927   25.0375 H   0  0  0  0  0  0
  -28.0694  -31.8477   26.5455 H   0  0  0  0  0  0
  -28.2596  -38.0104   24.7517 H   0  0  0  0  0  0
  -28.1068  -36.2639   24.6278 H   0  0  0  0  0  0
  -27.2303  -37.1449   25.8870 H   0  0  0  0  0  0
  -20.9359  -29.8817   21.6935 H   0  0  0  0  0  0
  -26.0160  -38.2859   24.1426 H   0  0  0  0  0  0
  -31.5533  -20.1427   21.7599 H   0  0  0  0  0  0
  -29.7605  -16.2065   22.5788 H   0  0  0  0  0  0
  -31.2204  -16.8204   21.8649 H   0  0  0  0  0  0
  -30.9094  -16.7049   18.8340 H   0  0  0  0  0  0
  -29.3120  -16.1021   18.5143 H   0  0  0  0  0  0
  -29.8786  -18.7353   22.5310 H   0  0  0  0  0  0
  -28.4492  -18.1178   21.7364 H   0  0  0  0  0  0
  -28.2692  -18.1220   19.3595 H   0  0  0  0  0  0
  -29.6113  -18.6431   18.3668 H   0  0  0  0  0  0
  -33.4021  -20.7974   23.1495 H   0  0  0  0  0  0
  -33.7766  -22.5039   23.3791 H   0  0  0  0  0  0
  -34.3431  -21.6614   21.9319 H   0  0  0  0  0  0
  -30.6452  -25.4896   19.5883 H   0  0  0  0  0  0
  -32.1201  -25.6120   20.5019 H   0  0  0  0  0  0
  -30.6001  -25.9134   21.3157 H   0  0  0  0  0  0
  -27.7779  -21.9441   18.9755 H   0  0  0  0  0  0
  -26.6310  -23.2344   19.2373 H   0  0  0  0  0  0
  -27.1370  -22.2440   20.5984 H   0  0  0  0  0  0
  -28.4507  -25.0326   21.7078 H   0  0  0  0  0  0
  -27.0123  -24.8948   20.8379 H   0  0  0  0  0  0
  -28.9742  -24.0126   18.9674 H   0  0  0  0  0  0
  -28.5048  -20.5272   19.9752 H   0  0  0  0  0  0
  1 25  1  0  0  0
  1 30  2  0  0  0
  1 86  1  0  0  0
  2  3  1  0  0  0
  2 25  1  0  0  0
  2 89  1  0  0  0
  2 90  1  0  0  0
  3  4  1  0  0  0
  3 91  1  0  0  0
  3 92  1  0  0  0
  4  5  1  0  0  0
  4 93  1  0  0  0
  4 94  1  0  0  0
  5  6  1  0  0  0
  5 26  1  0  0  0
  5 95  1  0  0  0
  6 25  1  0  0  0
  6 96  1  0  0  0
  6 97  1  0  0  0
  7  8  2  0  0  0
  7 26  1  0  0  0
  7 29  1  0  0  0
  8  9  1  0  0  0
  8 22  1  0  0  0
  9 10  1  0  0  0
  9 27  2  0  0  0
 10 11  2  0  0  0
 10 15  1  0  0  0
 11 12  1  0  0  0
 11 98  1  0  0  0
 12 13  2  0  0  0
 12 99  1  0  0  0
 13 14  1  0  0  0
 13 31  1  0  0  0
 14 15  2  0  0  0
 14100  1  0  0  0
 15101  1  0  0  0
 16 17  2  0  0  0
 16 21  1  0  0  0
 16 31  1  0  0  0
 17 18  1  0  0  0
 17102  1  0  0  0
 18 19  2  0  0  0
 18103  1  0  0  0
 19 20  1  0  0  0
 19 24  1  0  0  0
 20 21  2  0  0  0
 20104  1  0  0  0
 21 23  1  0  0  0
 22 28  1  0  0  0
 22 32  2  0  0  0
 26 27  1  0  0  0
 28105  1  0  0  0
 28106  1  0  0  0
 29107  1  0  0  0
 29108  1  0  0  0
 33 34  1  0  0  0
 33 66  1  0  0  0
 33 70  2  0  0  0
 34 36  1  0  0  0
 34 59  1  0  0  0
 34109  1  0  0  0
 35 44  2  0  0  0
 35 45  1  0  0  0
 35 68  1  0  0  0
 36 56  1  0  0  0
 36110  1  0  0  0
 37 39  1  0  0  0
 37 47  1  0  0  0
 37 66  1  0  0  0
 37111  1  0  0  0
 38 43  2  0  0  0
 38 46  1  0  0  0
 38 47  1  0  0  0
 39 64  1  0  0  0
 39 67  2  0  0  0
 40 52  1  0  0  0
 40 53  2  0  0  0
 40 58  1  0  0  0
 41112  1  0  0  0
 41113  1  0  0  0
 41114  1  0  0  0
 41 48  1  0  0  0
 42 43  1  0  0  0
 42 66  1  0  0  0
 42115  1  0  0  0
 42116  1  0  0  0
 43 44  1  0  0  0
 44117  1  0  0  0
 45 46  2  0  0  0
 45118  1  0  0  0
 46119  1  0  0  0
 47120  1  0  0  0
 47121  1  0  0  0
 48 56  1  0  0  0
 48 65  1  0  0  0
 48122  1  0  0  0
 49 50  1  0  0  0
 49 53  1  0  0  0
 49 64  1  0  0  0
 49123  1  0  0  0
 50 51  1  0  0  0
 50124  1  0  0  0
 50125  1  0  0  0
 51 52  1  0  0  0
 51126  1  0  0  0
 51127  1  0  0  0
 52128  1  0  0  0
 52129  1  0  0  0
 53 54  1  0  0  0
 54 55  2  0  0  0
 54130  1  0  0  0
 55 57  1  0  0  0
 55131  1  0  0  0
 56 69  2  0  0  0
 57 58  2  0  0  0
 57132  1  0  0  0
 58133  1  0  0  0
 59 60  1  0  0  0
 59 61  1  0  0  0
 59 62  1  0  0  0
 60134  1  0  0  0
 60135  1  0  0  0
 60136  1  0  0  0
 61137  1  0  0  0
 61138  1  0  0  0
 61139  1  0  0  0
 62140  1  0  0  0
 62141  1  0  0  0
 62142  1  0  0  0
 63 65  1  0  0  0
 63143  1  0  0  0
 63144  1  0  0  0
 63145  1  0  0  0
 64146  1  0  0  0
 65147  1  0  0  0
 68 83  1  0  0  0
 71 73  2  0  0  0
 71 74  1  0  0  0
 71148  1  0  0  0
 72 73  1  0  0  0
 72 75  2  0  0  0
 72 84  1  0  0  0
 73 88  1  0  0  0
 74 80  1  0  0  0
 74 85  2  0  0  0
 75 81  1  0  0  0
 75 85  1  0  0  0
 76 78  1  0  0  0
 76 86  1  0  0  0
 76149  1  0  0  0
 76150  1  0  0  0
 77 79  1  0  0  0
 77 86  1  0  0  0
 77151  1  0  0  0
 77152  1  0  0  0
 78 87  1  0  0  0
 78153  1  0  0  0
 78154  1  0  0  0
 79 87  1  0  0  0
 79155  1  0  0  0
 79156  1  0  0  0
 80157  1  0  0  0
 80158  1  0  0  0
 80159  1  0  0  0
 81160  1  0  0  0
 81161  1  0  0  0
 81162  1  0  0  0
 82163  1  0  0  0
 82164  1  0  0  0
 82165  1  0  0  0
 82 84  1  0  0  0
 83 84  1  0  0  0
 83166  1  0  0  0
 83167  1  0  0  0
 84168  1  0  0  0
 87 88  1  0  0  0
 88169  1  0  0  0
M  ISO  4   1 100  68 101  83 101  86 100
M  END
> <chiral flag>
0

> <version>
0

> <s_m_source_file>
/data/baiqing/PycharmProjects/Reinvent-master-3.2/result/LINK_invent/BTK/process_docking_weight1_custom_sum_contain_oxygen_bond_distance_aromatic_linkinvent_7_9_3/rearranged_h_0167.sdf

> <i_m_source_file_index>
95

> <r_mmod_Potential_Energy-OPLS-2005>
229.711059570312

> <r_mmod_Stretch_Energy-OPLS-2005>
119.357406616211

> <r_mmod_Bend_Energy-OPLS-2005>
197.580032348633

> <r_mmod_Torsional_Energy-OPLS-2005>
399.770477294922

> <r_mmod_Improper_Torsional_Energy-OPLS-2005>
12.9297103881836

> <r_mmod_Van_der_Waal_Energy-OPLS-2005>
161.362731933594

> <r_mmod_Electrostatic_Energy-OPLS-2005>
-510.563262939453

> <r_mmod_Solvation_Energy-OPLS-2005>
-213.897766113281

> <b_mmod_Minimization_Converged-OPLS-2005>
0

> <r_mmod_RMS_Derivative-OPLS-2005>
1.82035183906555

$$$$
