0
                    3D
 Structure written by MMmdl.
169177  0  0  1  0            999 V2000
  -30.7616  -14.3605   20.6747 C   0  0  0  0  0  0
  -30.4171  -12.2855   19.3888 C   0  0  0  0  0  0
  -29.4791  -12.5259   18.1900 C   0  0  0  0  0  0
  -28.0043  -12.3870   18.6075 C   0  0  0  0  0  0
  -27.6661  -13.2005   19.8834 C   0  0  2  0  0  0
  -28.7065  -12.9289   20.9928 C   0  0  0  0  0  0
  -25.2597  -13.8165   20.5695 C   0  0  0  0  0  0
  -24.1831  -13.0444   20.9177 C   0  0  0  0  0  0
  -24.6368  -11.6908   20.8738 C   0  0  0  0  0  0
  -23.9032  -10.4292   21.0395 C   0  0  0  0  0  0
  -24.3590   -9.4217   21.9173 C   0  0  0  0  0  0
  -23.6276   -8.2253   22.0752 C   0  0  0  0  0  0
  -22.4258   -8.0285   21.3546 C   0  0  0  0  0  0
  -21.9874   -9.0258   20.4657 C   0  0  0  0  0  0
  -22.7201  -10.2138   20.3053 C   0  0  0  0  0  0
  -21.6851   -6.0719   22.5269 C   0  0  0  0  0  0
  -21.4027   -6.5629   23.8203 C   0  0  0  0  0  0
  -21.3663   -5.6783   24.9168 C   0  0  0  0  0  0
  -21.6040   -4.3044   24.7214 C   0  0  0  0  0  0
  -21.8826   -3.8135   23.4340 C   0  0  0  0  0  0
  -21.9199   -4.6948   22.3397 C   0  0  0  0  0  0
  -22.7853  -13.5254   21.1817 C   0  0  0  0  0  0
  -22.1660   -4.2130   21.0970 F   0  0  0  0  0  0
  -21.5629   -3.4538   25.7733 F   0  0  0  0  0  0
  -30.0484  -13.2267   20.4551 N   0  0  0  0  0  0
  -26.3029  -12.9319   20.3403 N   0  0  0  0  0  0
  -25.9295  -11.6478   20.5778 N   0  0  0  0  0  0
  -22.0471  -12.8279   22.0381 N   0  0  0  0  0  0
  -25.4338  -15.1877   20.4109 N   0  0  0  0  0  0
  -31.8007  -14.6425   20.0683 O   0  0  0  0  0  0
  -21.6644   -6.8866   21.4231 O   0  0  0  0  0  0
  -22.3535  -14.5546   20.6652 O   0  0  0  0  0  0
  -24.6115  -31.8715   23.2098 C   0  0  0  0  0  0
  -25.9011  -32.4856   23.8403 C   0  0  1  0  0  0
  -27.2373  -27.4621   20.0751 C   0  0  0  0  0  0
  -25.5879  -33.8653   24.2352 N   0  0  0  0  0  0
  -23.4000  -30.4923   21.5519 C   0  0  2  0  0  0
  -24.8445  -28.9597   20.1179 C   0  0  0  0  0  0
  -22.7422  -29.4655   22.5016 C   0  0  0  0  0  0
  -18.0285  -28.1356   22.8498 C   0  0  0  0  0  0
  -24.1488  -36.7319   23.2638 C   0  0  0  0  0  0
  -25.9248  -30.8440   21.3574 C   0  0  0  0  0  0
  -26.0038  -29.4790   20.7065 C   0  0  0  0  0  0
  -27.2048  -28.7369   20.6816 C   0  0  0  0  0  0
  -26.0559  -26.9477   19.4961 C   0  0  0  0  0  0
  -24.8627  -27.6913   19.5139 C   0  0  0  0  0  0
  -23.6076  -29.8248   20.1668 C   0  0  0  0  0  0
  -25.4105  -36.3140   24.0352 C   0  0  1  0  0  0
  -20.5875  -28.3629   23.1336 C   0  0  2  0  0  0
  -20.6764  -26.9369   22.5417 C   0  0  0  0  0  0
  -19.5747  -26.6373   21.5208 C   0  0  0  0  0  0
  -18.1929  -26.7903   22.1625 C   0  0  0  0  0  0
  -19.1532  -28.8814   23.2910 C   0  0  0  0  0  0
  -18.9452  -30.1420   23.8913 C   0  0  0  0  0  0
  -17.6452  -30.6562   24.0559 C   0  0  0  0  0  0
  -25.9021  -34.9505   23.5152 C   0  0  0  0  0  0
  -16.5347  -29.9062   23.6316 C   0  0  0  0  0  0
  -16.7268  -28.6479   23.0339 C   0  0  0  0  0  0
  -26.4439  -31.6612   25.0715 C   0  0  0  0  0  0
  -25.3711  -31.3703   26.1474 C   0  0  0  0  0  0
  -27.0248  -30.3069   24.6013 C   0  0  0  0  0  0
  -27.6034  -32.4297   25.7468 C   0  0  0  0  0  0
  -27.5588  -37.1823   24.8469 C   0  0  0  0  0  0
  -21.4150  -29.3009   22.3752 N   0  0  0  0  0  0
  -26.4302  -37.3818   23.9417 N   0  0  0  0  0  0
  -24.6641  -31.0837   22.0982 N   0  0  0  0  0  0
  -23.4206  -28.8197   23.3045 O   0  0  0  0  0  0
  -28.4228  -26.7621   20.0476 O   0  0  0  0  0  0
  -26.5574  -34.8950   22.4711 O   0  0  0  0  0  0
  -23.5303  -32.1440   23.7508 O   0  0  0  0  0  0
  -29.6357  -20.2448   19.7002 C   0  0  0  0  0  0
  -30.9091  -19.9553   20.2451 C   0  0  0  0  0  0
  -31.8268  -21.6664   18.9969 C   0  0  0  0  0  0
  -30.5388  -21.9843   18.4855 C   0  0  0  0  0  0
  -33.0656  -22.4690   18.6484 C   0  0  0  0  0  0
  -31.2019  -20.8862   23.1227 C   0  0  0  0  0  0
  -30.2727  -23.2264   17.6415 C   0  0  0  0  0  0
  -30.5648  -19.5423   22.7230 C   0  0  0  0  0  0
  -29.9402  -24.4647   18.5058 C   0  0  0  0  0  0
  -28.5129  -24.4701   19.0903 C   0  0  0  0  0  0
  -30.4562  -17.5828   21.0413 C   0  0  0  0  0  0
  -30.8288  -16.4529   22.0221 C   0  0  0  0  0  0
  -28.3472  -25.3654   20.3329 C   0  0  0  0  0  0
  -31.0816  -18.9536   21.3844 C   0  0  2  0  0  0
  -29.4497  -21.2484   18.8126 N   0  0  0  0  0  0
  -32.0138  -20.6439   19.8661 N   0  0  0  0  0  0
  -30.2623  -15.1719   21.6109 N   0  0  0  0  0  0
  -31.4577  -12.3942   19.0777 H   0  0  0  0  0  0
  -30.3257  -11.2603   19.7530 H   0  0  0  0  0  0
  -29.7091  -11.8254   17.3872 H   0  0  0  0  0  0
  -29.6491  -13.5242   17.7851 H   0  0  0  0  0  0
  -27.8035  -11.3291   18.7771 H   0  0  0  0  0  0
  -27.3526  -12.6898   17.7866 H   0  0  0  0  0  0
  -27.7277  -14.2563   19.6201 H   0  0  0  0  0  0
  -28.6708  -11.8793   21.2902 H   0  0  0  0  0  0
  -28.4577  -13.4901   21.8922 H   0  0  0  0  0  0
  -25.2731   -9.5716   22.4746 H   0  0  0  0  0  0
  -24.0001   -7.4645   22.7470 H   0  0  0  0  0  0
  -21.0806   -8.8783   19.8956 H   0  0  0  0  0  0
  -22.3655  -10.9687   19.6173 H   0  0  0  0  0  0
  -21.2032   -7.6135   23.9711 H   0  0  0  0  0  0
  -21.1468   -6.0502   25.9070 H   0  0  0  0  0  0
  -22.0601   -2.7594   23.2845 H   0  0  0  0  0  0
  -22.4073  -11.9963   22.4829 H   0  0  0  0  0  0
  -21.1093  -13.1354   22.2552 H   0  0  0  0  0  0
  -24.6732  -15.8494   20.5270 H   0  0  0  0  0  0
  -26.2952  -15.6250   20.1075 H   0  0  0  0  0  0
  -26.7091  -32.5587   23.1185 H   0  0  0  0  0  0
  -25.0072  -33.9812   25.0521 H   0  0  0  0  0  0
  -22.6847  -31.3057   21.4121 H   0  0  0  0  0  0
  -23.3767  -35.9637   23.3309 H   0  0  0  0  0  0
  -24.3573  -36.8904   22.2046 H   0  0  0  0  0  0
  -23.7216  -37.6525   23.6622 H   0  0  0  0  0  0
  -26.0252  -31.6071   20.5851 H   0  0  0  0  0  0
  -26.8166  -30.9042   21.9700 H   0  0  0  0  0  0
  -28.1046  -29.1351   21.1283 H   0  0  0  0  0  0
  -26.0496  -25.9817   19.0159 H   0  0  0  0  0  0
  -23.9700  -27.2844   19.0601 H   0  0  0  0  0  0
  -23.7175  -30.5970   19.4038 H   0  0  0  0  0  0
  -22.7342  -29.2424   19.8731 H   0  0  0  0  0  0
  -25.1279  -36.2019   25.0844 H   0  0  0  0  0  0
  -20.9960  -28.3168   24.1463 H   0  0  0  0  0  0
  -20.5654  -26.2229   23.3587 H   0  0  0  0  0  0
  -21.6631  -26.7398   22.1217 H   0  0  0  0  0  0
  -19.6886  -25.6297   21.1203 H   0  0  0  0  0  0
  -19.6682  -27.3220   20.6769 H   0  0  0  0  0  0
  -17.4196  -26.6673   21.4026 H   0  0  0  0  0  0
  -18.0311  -26.0032   22.9009 H   0  0  0  0  0  0
  -19.7925  -30.7236   24.2289 H   0  0  0  0  0  0
  -17.5002  -31.6244   24.5150 H   0  0  0  0  0  0
  -15.5343  -30.2960   23.7610 H   0  0  0  0  0  0
  -15.8682  -28.0795   22.7031 H   0  0  0  0  0  0
  -24.5884  -30.7049   25.7821 H   0  0  0  0  0  0
  -24.8906  -32.2856   26.4945 H   0  0  0  0  0  0
  -25.8075  -30.8865   27.0222 H   0  0  0  0  0  0
  -26.2777  -29.6891   24.1016 H   0  0  0  0  0  0
  -27.4010  -29.7234   25.4424 H   0  0  0  0  0  0
  -27.8615  -30.4432   23.9159 H   0  0  0  0  0  0
  -27.2682  -33.3594   26.2079 H   0  0  0  0  0  0
  -28.3832  -32.6848   25.0278 H   0  0  0  0  0  0
  -28.0711  -31.8383   26.5354 H   0  0  0  0  0  0
  -28.2624  -38.0108   24.7522 H   0  0  0  0  0  0
  -28.1072  -36.2641   24.6299 H   0  0  0  0  0  0
  -27.2302  -37.1477   25.8873 H   0  0  0  0  0  0
  -20.9292  -29.8770   21.7022 H   0  0  0  0  0  0
  -26.0205  -38.2905   24.1414 H   0  0  0  0  0  0
  -28.7545  -19.7088   20.0197 H   0  0  0  0  0  0
  -33.9168  -22.1901   19.2716 H   0  0  0  0  0  0
  -32.8894  -23.5329   18.7972 H   0  0  0  0  0  0
  -33.3375  -22.3064   17.6048 H   0  0  0  0  0  0
  -30.7973  -21.2358   24.0742 H   0  0  0  0  0  0
  -31.0055  -21.6646   22.3847 H   0  0  0  0  0  0
  -32.2839  -20.7946   23.2335 H   0  0  0  0  0  0
  -29.4605  -23.0318   16.9383 H   0  0  0  0  0  0
  -31.1488  -23.4366   17.0257 H   0  0  0  0  0  0
  -29.4854  -19.6757   22.6560 H   0  0  0  0  0  0
  -30.7285  -18.8392   23.5399 H   0  0  0  0  0  0
  -30.0645  -25.3655   17.9041 H   0  0  0  0  0  0
  -30.6750  -24.5382   19.3081 H   0  0  0  0  0  0
  -28.2472  -23.4632   19.4073 H   0  0  0  0  0  0
  -27.7927  -24.7263   18.3131 H   0  0  0  0  0  0
  -30.7955  -17.3009   20.0430 H   0  0  0  0  0  0
  -29.3724  -17.6686   20.9749 H   0  0  0  0  0  0
  -30.4405  -16.6694   23.0172 H   0  0  0  0  0  0
  -31.9134  -16.3689   22.1259 H   0  0  0  0  0  0
  -29.1374  -25.1334   21.0470 H   0  0  0  0  0  0
  -27.4216  -25.1171   20.8551 H   0  0  0  0  0  0
  -32.1541  -18.7859   21.4896 H   0  0  0  0  0  0
  -29.4185  -14.8658   22.0729 H   0  0  0  0  0  0
  1 25  1  0  0  0
  1 30  2  0  0  0
  1 87  1  0  0  0
  2  3  1  0  0  0
  2 25  1  0  0  0
  2 88  1  0  0  0
  2 89  1  0  0  0
  3  4  1  0  0  0
  3 90  1  0  0  0
  3 91  1  0  0  0
  4  5  1  0  0  0
  4 92  1  0  0  0
  4 93  1  0  0  0
  5  6  1  0  0  0
  5 26  1  0  0  0
  5 94  1  0  0  0
  6 25  1  0  0  0
  6 95  1  0  0  0
  6 96  1  0  0  0
  7  8  2  0  0  0
  7 26  1  0  0  0
  7 29  1  0  0  0
  8  9  1  0  0  0
  8 22  1  0  0  0
  9 10  1  0  0  0
  9 27  2  0  0  0
 10 11  2  0  0  0
 10 15  1  0  0  0
 11 12  1  0  0  0
 11 97  1  0  0  0
 12 13  2  0  0  0
 12 98  1  0  0  0
 13 14  1  0  0  0
 13 31  1  0  0  0
 14 15  2  0  0  0
 14 99  1  0  0  0
 15100  1  0  0  0
 16 17  2  0  0  0
 16 21  1  0  0  0
 16 31  1  0  0  0
 17 18  1  0  0  0
 17101  1  0  0  0
 18 19  2  0  0  0
 18102  1  0  0  0
 19 20  1  0  0  0
 19 24  1  0  0  0
 20 21  2  0  0  0
 20103  1  0  0  0
 21 23  1  0  0  0
 22 28  1  0  0  0
 22 32  2  0  0  0
 26 27  1  0  0  0
 28104  1  0  0  0
 28105  1  0  0  0
 29106  1  0  0  0
 29107  1  0  0  0
 33 34  1  0  0  0
 33 66  1  0  0  0
 33 70  2  0  0  0
 34 36  1  0  0  0
 34 59  1  0  0  0
 34108  1  0  0  0
 35 44  2  0  0  0
 35 45  1  0  0  0
 35 68  1  0  0  0
 36 56  1  0  0  0
 36109  1  0  0  0
 37 39  1  0  0  0
 37 47  1  0  0  0
 37 66  1  0  0  0
 37110  1  0  0  0
 38 43  2  0  0  0
 38 46  1  0  0  0
 38 47  1  0  0  0
 39 64  1  0  0  0
 39 67  2  0  0  0
 40 52  1  0  0  0
 40 53  2  0  0  0
 40 58  1  0  0  0
 41111  1  0  0  0
 41112  1  0  0  0
 41113  1  0  0  0
 41 48  1  0  0  0
 42 43  1  0  0  0
 42 66  1  0  0  0
 42114  1  0  0  0
 42115  1  0  0  0
 43 44  1  0  0  0
 44116  1  0  0  0
 45 46  2  0  0  0
 45117  1  0  0  0
 46118  1  0  0  0
 47119  1  0  0  0
 47120  1  0  0  0
 48 56  1  0  0  0
 48 65  1  0  0  0
 48121  1  0  0  0
 49 50  1  0  0  0
 49 53  1  0  0  0
 49 64  1  0  0  0
 49122  1  0  0  0
 50 51  1  0  0  0
 50123  1  0  0  0
 50124  1  0  0  0
 51 52  1  0  0  0
 51125  1  0  0  0
 51126  1  0  0  0
 52127  1  0  0  0
 52128  1  0  0  0
 53 54  1  0  0  0
 54 55  2  0  0  0
 54129  1  0  0  0
 55 57  1  0  0  0
 55130  1  0  0  0
 56 69  2  0  0  0
 57 58  2  0  0  0
 57131  1  0  0  0
 58132  1  0  0  0
 59 60  1  0  0  0
 59 61  1  0  0  0
 59 62  1  0  0  0
 60133  1  0  0  0
 60134  1  0  0  0
 60135  1  0  0  0
 61136  1  0  0  0
 61137  1  0  0  0
 61138  1  0  0  0
 62139  1  0  0  0
 62140  1  0  0  0
 62141  1  0  0  0
 63 65  1  0  0  0
 63142  1  0  0  0
 63143  1  0  0  0
 63144  1  0  0  0
 64145  1  0  0  0
 65146  1  0  0  0
 68 83  1  0  0  0
 71 72  2  0  0  0
 71 85  1  0  0  0
 71147  1  0  0  0
 72 84  1  0  0  0
 72 86  1  0  0  0
 73 74  1  0  0  0
 73 75  1  0  0  0
 73 86  2  0  0  0
 74 77  1  0  0  0
 74 85  2  0  0  0
 75148  1  0  0  0
 75149  1  0  0  0
 75150  1  0  0  0
 76 78  1  0  0  0
 76151  1  0  0  0
 76152  1  0  0  0
 76153  1  0  0  0
 77 79  1  0  0  0
 77154  1  0  0  0
 77155  1  0  0  0
 78156  1  0  0  0
 78157  1  0  0  0
 78 84  1  0  0  0
 79 80  1  0  0  0
 79158  1  0  0  0
 79159  1  0  0  0
 80 83  1  0  0  0
 80160  1  0  0  0
 80161  1  0  0  0
 81 82  1  0  0  0
 81 84  1  0  0  0
 81162  1  0  0  0
 81163  1  0  0  0
 82 87  1  0  0  0
 82164  1  0  0  0
 82165  1  0  0  0
 83166  1  0  0  0
 83167  1  0  0  0
 84168  1  0  0  0
 87169  1  0  0  0
M  ISO  4   1 100  68 101  83 101  87 100
M  END
> <chiral flag>
0

> <version>
0

> <s_m_source_file>
/data/baiqing/PycharmProjects/Reinvent-master-3.2/result/LINK_invent/BTK/process_docking_weight1_custom_sum_contain_oxygen_bond_distance_aromatic_linkinvent_7_9_3/rearranged_h_0043.sdf

> <i_m_source_file_index>
1

> <r_mmod_Potential_Energy-OPLS-2005>
-29.6076049804688

> <r_mmod_Stretch_Energy-OPLS-2005>
35.2481727600098

> <r_mmod_Bend_Energy-OPLS-2005>
94.2114105224609

> <r_mmod_Torsional_Energy-OPLS-2005>
200.617553710938

> <r_mmod_Improper_Torsional_Energy-OPLS-2005>
2.33824157714844

> <r_mmod_Van_der_Waal_Energy-OPLS-2005>
160.062973022461

> <r_mmod_Electrostatic_Energy-OPLS-2005>
-311.395385742188

> <r_mmod_Solvation_Energy-OPLS-2005>
-217.821807861328

> <b_mmod_Minimization_Converged-OPLS-2005>
0

> <r_mmod_RMS_Derivative-OPLS-2005>
2.61083459854126

$$$$
1
                    3D
 Structure written by MMmdl.
154162  0  0  1  0            999 V2000
  -30.6147  -14.7273   20.4757 C   0  0  0  0  0  0
  -30.4364  -12.4472   19.4598 C   0  0  0  0  0  0
  -29.5086  -12.4884   18.2272 C   0  0  0  0  0  0
  -28.0366  -12.3055   18.6439 C   0  0  0  0  0  0
  -27.6355  -13.2212   19.8311 C   0  0  2  0  0  0
  -28.6804  -13.1637   20.9665 C   0  0  0  0  0  0
  -25.2474  -13.8188   20.5619 C   0  0  0  0  0  0
  -24.1759  -13.0453   20.9202 C   0  0  0  0  0  0
  -24.6327  -11.6922   20.8731 C   0  0  0  0  0  0
  -23.9002  -10.4303   21.0430 C   0  0  0  0  0  0
  -24.3590   -9.4222   21.9203 C   0  0  0  0  0  0
  -23.6308   -8.2231   22.0767 C   0  0  0  0  0  0
  -22.4288   -8.0245   21.3543 C   0  0  0  0  0  0
  -21.9900   -9.0213   20.4643 C   0  0  0  0  0  0
  -22.7196  -10.2102   20.3065 C   0  0  0  0  0  0
  -21.6843   -6.0725   22.5294 C   0  0  0  0  0  0
  -21.4004   -6.5654   23.8221 C   0  0  0  0  0  0
  -21.3645   -5.6806   24.9192 C   0  0  0  0  0  0
  -21.6055   -4.3070   24.7231 C   0  0  0  0  0  0
  -21.8825   -3.8141   23.4356 C   0  0  0  0  0  0
  -21.9181   -4.6956   22.3400 C   0  0  0  0  0  0
  -22.7775  -13.5235   21.1871 C   0  0  0  0  0  0
  -22.1651   -4.2153   21.0973 F   0  0  0  0  0  0
  -21.5623   -3.4543   25.7734 F   0  0  0  0  0  0
  -29.9824  -13.5089   20.3825 N   0  0  0  0  0  0
  -26.2880  -12.9366   20.3166 N   0  0  0  0  0  0
  -25.9249  -11.6528   20.5726 N   0  0  0  0  0  0
  -22.0371  -12.8250   22.0419 N   0  0  0  0  0  0
  -25.4149  -15.1926   20.3998 N   0  0  0  0  0  0
  -31.8181  -14.8273   20.2253 O   0  0  0  0  0  0
  -21.6630   -6.8860   21.4249 O   0  0  0  0  0  0
  -22.3447  -14.5523   20.6686 O   0  0  0  0  0  0
  -24.6380  -31.8513   23.1912 C   0  0  0  0  0  0
  -25.9252  -32.4671   23.8247 C   0  0  1  0  0  0
  -27.2161  -27.2532   20.1211 C   0  0  0  0  0  0
  -25.6085  -33.8468   24.2211 N   0  0  0  0  0  0
  -23.4286  -30.4813   21.5305 C   0  0  2  0  0  0
  -24.8708  -28.9284   20.0976 C   0  0  0  0  0  0
  -22.7467  -29.4682   22.4822 C   0  0  0  0  0  0
  -18.0302  -28.1399   22.8463 C   0  0  0  0  0  0
  -24.1542  -36.7230   23.2621 C   0  0  0  0  0  0
  -25.9753  -30.7635   21.3719 C   0  0  0  0  0  0
  -26.0417  -29.3892   20.7086 C   0  0  0  0  0  0
  -27.2149  -28.5659   20.7079 C   0  0  0  0  0  0
  -26.0170  -26.8699   19.4743 C   0  0  0  0  0  0
  -24.8662  -27.6761   19.4660 C   0  0  0  0  0  0
  -23.6404  -29.8101   20.1491 C   0  0  0  0  0  0
  -25.4165  -36.2980   24.0303 C   0  0  1  0  0  0
  -20.5905  -28.3734   23.1187 C   0  0  2  0  0  0
  -20.6827  -26.9441   22.5352 C   0  0  0  0  0  0
  -19.5819  -26.6401   21.5160 C   0  0  0  0  0  0
  -18.1978  -26.7963   22.1548 C   0  0  0  0  0  0
  -19.1548  -28.8881   23.2825 C   0  0  0  0  0  0
  -18.9471  -30.1481   23.8849 C   0  0  0  0  0  0
  -17.6472  -30.6569   24.0576 C   0  0  0  0  0  0
  -25.9121  -34.9374   23.5022 C   0  0  0  0  0  0
  -16.5361  -29.9066   23.6375 C   0  0  0  0  0  0
  -16.7290  -28.6493   23.0380 C   0  0  0  0  0  0
  -26.4643  -31.6466   25.0613 C   0  0  0  0  0  0
  -25.3887  -31.3618   26.1335 C   0  0  0  0  0  0
  -27.0537  -30.2872   24.6164 C   0  0  0  0  0  0
  -27.6209  -32.4192   25.7373 C   0  0  0  0  0  0
  -27.5590  -37.1746   24.8441 C   0  0  0  0  0  0
  -21.4183  -29.3079   22.3545 N   0  0  0  0  0  0
  -26.4299  -37.3714   23.9384 N   0  0  0  0  0  0
  -24.6989  -31.0528   22.0856 N   0  0  0  0  0  0
  -23.4159  -28.8314   23.3000 O   0  0  0  0  0  0
  -28.3241  -26.3728   20.2288 O   0  0  0  0  0  0
  -26.5602  -34.8860   22.4528 O   0  0  0  0  0  0
  -23.5551  -32.1348   23.7225 O   0  0  0  0  0  0
  -28.6758  -22.3303   20.0231 C   0  0  0  0  0  0
  -29.0030  -21.2114   20.8676 C   0  0  0  0  0  0
  -28.6844  -23.6768   20.5413 C   0  0  0  0  0  0
  -29.2892  -22.7582   22.5704 C   0  0  0  0  0  0
  -29.5280  -22.9938   24.0478 C   0  0  0  0  0  0
  -28.7554  -19.6672   20.5296 C   0  0  0  0  0  0
  -28.3454  -24.9712   19.6701 C   0  0  0  0  0  0
  -29.8977  -18.5778   20.1795 C   0  0  0  0  0  0
  -30.2034  -17.2715   21.0902 C   0  0  0  0  0  0
  -29.3223  -21.4874   22.1479 N   0  0  0  0  0  0
  -28.9961  -23.8402   21.8446 N   0  0  0  0  0  0
  -29.8300  -15.8516   20.6637 N   0  0  0  0  0  0
  -31.4742  -12.5852   19.1521 H   0  0  0  0  0  0
  -30.3926  -11.4700   19.9468 H   0  0  0  0  0  0
  -29.8003  -11.7160   17.5154 H   0  0  0  0  0  0
  -29.6232  -13.4388   17.7066 H   0  0  0  0  0  0
  -27.9089  -11.2615   18.9316 H   0  0  0  0  0  0
  -27.3745  -12.4603   17.7917 H   0  0  0  0  0  0
  -27.6309  -14.2353   19.4313 H   0  0  0  0  0  0
  -28.7123  -12.1712   21.4226 H   0  0  0  0  0  0
  -28.4102  -13.8540   21.7655 H   0  0  0  0  0  0
  -25.2740   -9.5726   22.4764 H   0  0  0  0  0  0
  -24.0027   -7.4644   22.7504 H   0  0  0  0  0  0
  -21.0834   -8.8711   19.8972 H   0  0  0  0  0  0
  -22.3664  -10.9618   19.6153 H   0  0  0  0  0  0
  -21.1994   -7.6168   23.9732 H   0  0  0  0  0  0
  -21.1463   -6.0530   25.9102 H   0  0  0  0  0  0
  -22.0603   -2.7610   23.2836 H   0  0  0  0  0  0
  -22.3939  -11.9943   22.4896 H   0  0  0  0  0  0
  -21.0962  -13.1270   22.2499 H   0  0  0  0  0  0
  -24.6457  -15.8452   20.5186 H   0  0  0  0  0  0
  -26.2558  -15.6361   20.0532 H   0  0  0  0  0  0
  -26.7316  -32.5325   23.0981 H   0  0  0  0  0  0
  -25.0529  -33.9605   25.0567 H   0  0  0  0  0  0
  -22.7278  -31.3052   21.3807 H   0  0  0  0  0  0
  -23.3795  -35.9563   23.3204 H   0  0  0  0  0  0
  -24.3690  -36.8935   22.2057 H   0  0  0  0  0  0
  -23.7285  -37.6402   23.6705 H   0  0  0  0  0  0
  -26.1222  -31.5356   20.6154 H   0  0  0  0  0  0
  -26.8497  -30.7921   22.0109 H   0  0  0  0  0  0
  -28.1094  -28.9209   21.1962 H   0  0  0  0  0  0
  -25.8992  -25.9206   18.9796 H   0  0  0  0  0  0
  -23.9704  -27.3132   18.9753 H   0  0  0  0  0  0
  -23.7400  -30.5748   19.3785 H   0  0  0  0  0  0
  -22.7620  -29.2299   19.8632 H   0  0  0  0  0  0
  -25.1331  -36.1798   25.0795 H   0  0  0  0  0  0
  -21.0015  -28.3349   24.1307 H   0  0  0  0  0  0
  -20.5730  -26.2349   23.3572 H   0  0  0  0  0  0
  -21.6710  -26.7514   22.1162 H   0  0  0  0  0  0
  -19.6984  -25.6300   21.1222 H   0  0  0  0  0  0
  -19.6786  -27.3187   20.6674 H   0  0  0  0  0  0
  -17.4289  -26.6739   21.3904 H   0  0  0  0  0  0
  -18.0343  -26.0058   22.8886 H   0  0  0  0  0  0
  -19.7949  -30.7311   24.2157 H   0  0  0  0  0  0
  -17.5039  -31.6247   24.5166 H   0  0  0  0  0  0
  -15.5358  -30.2957   23.7722 H   0  0  0  0  0  0
  -15.8710  -28.0802   22.7112 H   0  0  0  0  0  0
  -24.6129  -30.6880   25.7668 H   0  0  0  0  0  0
  -24.9029  -32.2792   26.4639 H   0  0  0  0  0  0
  -25.8253  -30.8892   27.0144 H   0  0  0  0  0  0
  -26.3137  -29.6452   24.1380 H   0  0  0  0  0  0
  -27.4407  -29.7269   25.4681 H   0  0  0  0  0  0
  -27.8916  -30.4049   23.9295 H   0  0  0  0  0  0
  -27.2883  -33.3573   26.1801 H   0  0  0  0  0  0
  -28.4118  -32.6578   25.0250 H   0  0  0  0  0  0
  -28.0776  -31.8386   26.5399 H   0  0  0  0  0  0
  -28.2526  -38.0116   24.7584 H   0  0  0  0  0  0
  -28.1168  -36.2652   24.6163 H   0  0  0  0  0  0
  -27.2321  -37.1248   25.8841 H   0  0  0  0  0  0
  -20.9329  -29.8700   21.6691 H   0  0  0  0  0  0
  -26.0137  -38.2747   24.1463 H   0  0  0  0  0  0
  -28.3779  -22.1707   18.9950 H   0  0  0  0  0  0
  -29.9634  -22.1211   24.5388 H   0  0  0  0  0  0
  -28.5864  -23.2179   24.5482 H   0  0  0  0  0  0
  -30.1981  -23.8415   24.1988 H   0  0  0  0  0  0
  -28.0741  -19.6829   19.6803 H   0  0  0  0  0  0
  -28.1460  -19.2514   21.3306 H   0  0  0  0  0  0
  -27.4677  -24.7092   19.0895 H   0  0  0  0  0  0
  -29.1458  -24.9881   18.9271 H   0  0  0  0  0  0
  -30.8305  -19.1273   20.0525 H   0  0  0  0  0  0
  -29.6852  -18.2068   19.1765 H   0  0  0  0  0  0
  -29.7508  -17.4244   22.0705 H   0  0  0  0  0  0
  -31.2786  -17.2654   21.2942 H   0  0  0  0  0  0
  -28.8417  -15.6527   20.6800 H   0  0  0  0  0  0
  1 25  1  0  0  0
  1 30  2  0  0  0
  1 82  1  0  0  0
  2  3  1  0  0  0
  2 25  1  0  0  0
  2 83  1  0  0  0
  2 84  1  0  0  0
  3  4  1  0  0  0
  3 85  1  0  0  0
  3 86  1  0  0  0
  4  5  1  0  0  0
  4 87  1  0  0  0
  4 88  1  0  0  0
  5  6  1  0  0  0
  5 26  1  0  0  0
  5 89  1  0  0  0
  6 25  1  0  0  0
  6 90  1  0  0  0
  6 91  1  0  0  0
  7  8  2  0  0  0
  7 26  1  0  0  0
  7 29  1  0  0  0
  8  9  1  0  0  0
  8 22  1  0  0  0
  9 10  1  0  0  0
  9 27  2  0  0  0
 10 11  2  0  0  0
 10 15  1  0  0  0
 11 12  1  0  0  0
 11 92  1  0  0  0
 12 13  2  0  0  0
 12 93  1  0  0  0
 13 14  1  0  0  0
 13 31  1  0  0  0
 14 15  2  0  0  0
 14 94  1  0  0  0
 15 95  1  0  0  0
 16 17  2  0  0  0
 16 21  1  0  0  0
 16 31  1  0  0  0
 17 18  1  0  0  0
 17 96  1  0  0  0
 18 19  2  0  0  0
 18 97  1  0  0  0
 19 20  1  0  0  0
 19 24  1  0  0  0
 20 21  2  0  0  0
 20 98  1  0  0  0
 21 23  1  0  0  0
 22 28  1  0  0  0
 22 32  2  0  0  0
 26 27  1  0  0  0
 28 99  1  0  0  0
 28100  1  0  0  0
 29101  1  0  0  0
 29102  1  0  0  0
 33 34  1  0  0  0
 33 66  1  0  0  0
 33 70  2  0  0  0
 34 36  1  0  0  0
 34 59  1  0  0  0
 34103  1  0  0  0
 35 44  2  0  0  0
 35 45  1  0  0  0
 35 68  1  0  0  0
 36 56  1  0  0  0
 36104  1  0  0  0
 37 39  1  0  0  0
 37 47  1  0  0  0
 37 66  1  0  0  0
 37105  1  0  0  0
 38 43  2  0  0  0
 38 46  1  0  0  0
 38 47  1  0  0  0
 39 64  1  0  0  0
 39 67  2  0  0  0
 40 52  1  0  0  0
 40 53  2  0  0  0
 40 58  1  0  0  0
 41106  1  0  0  0
 41107  1  0  0  0
 41108  1  0  0  0
 41 48  1  0  0  0
 42 43  1  0  0  0
 42 66  1  0  0  0
 42109  1  0  0  0
 42110  1  0  0  0
 43 44  1  0  0  0
 44111  1  0  0  0
 45 46  2  0  0  0
 45112  1  0  0  0
 46113  1  0  0  0
 47114  1  0  0  0
 47115  1  0  0  0
 48 56  1  0  0  0
 48 65  1  0  0  0
 48116  1  0  0  0
 49 50  1  0  0  0
 49 53  1  0  0  0
 49 64  1  0  0  0
 49117  1  0  0  0
 50 51  1  0  0  0
 50118  1  0  0  0
 50119  1  0  0  0
 51 52  1  0  0  0
 51120  1  0  0  0
 51121  1  0  0  0
 52122  1  0  0  0
 52123  1  0  0  0
 53 54  1  0  0  0
 54 55  2  0  0  0
 54124  1  0  0  0
 55 57  1  0  0  0
 55125  1  0  0  0
 56 69  2  0  0  0
 57 58  2  0  0  0
 57126  1  0  0  0
 58127  1  0  0  0
 59 60  1  0  0  0
 59 61  1  0  0  0
 59 62  1  0  0  0
 60128  1  0  0  0
 60129  1  0  0  0
 60130  1  0  0  0
 61131  1  0  0  0
 61132  1  0  0  0
 61133  1  0  0  0
 62134  1  0  0  0
 62135  1  0  0  0
 62136  1  0  0  0
 63 65  1  0  0  0
 63137  1  0  0  0
 63138  1  0  0  0
 63139  1  0  0  0
 64140  1  0  0  0
 65141  1  0  0  0
 68 77  1  0  0  0
 71 72  2  0  0  0
 71 73  1  0  0  0
 71142  1  0  0  0
 72 76  1  0  0  0
 72 80  1  0  0  0
 73 77  1  0  0  0
 73 81  2  0  0  0
 74 75  1  0  0  0
 74 80  2  0  0  0
 74 81  1  0  0  0
 75143  1  0  0  0
 75144  1  0  0  0
 75145  1  0  0  0
 76 78  1  0  0  0
 76146  1  0  0  0
 76147  1  0  0  0
 77148  1  0  0  0
 77149  1  0  0  0
 78 79  1  0  0  0
 78150  1  0  0  0
 78151  1  0  0  0
 79 82  1  0  0  0
 79152  1  0  0  0
 79153  1  0  0  0
 82154  1  0  0  0
M  ISO  4   1 100  68 101  77 101  82 100
M  END
> <chiral flag>
0

> <version>
0

> <s_m_source_file>
/data/baiqing/PycharmProjects/Reinvent-master-3.2/result/LINK_invent/BTK/process_docking_weight1_custom_sum_contain_oxygen_bond_distance_aromatic_linkinvent_7_9_3/rearranged_h_0043.sdf

> <i_m_source_file_index>
2

> <r_mmod_Potential_Energy-OPLS-2005>
-236.02848815918

> <r_mmod_Stretch_Energy-OPLS-2005>
117.47119140625

> <r_mmod_Bend_Energy-OPLS-2005>
195.022109985352

> <r_mmod_Torsional_Energy-OPLS-2005>
229.389007568359

> <r_mmod_Improper_Torsional_Energy-OPLS-2005>
5.73525142669678

> <r_mmod_Van_der_Waal_Energy-OPLS-2005>
145.755386352539

> <r_mmod_Electrostatic_Energy-OPLS-2005>
-768.122985839844

> <r_mmod_Solvation_Energy-OPLS-2005>
-249.380844116211

> <b_mmod_Minimization_Converged-OPLS-2005>
0

> <r_mmod_RMS_Derivative-OPLS-2005>
5.36236190795898

$$$$
2
                    3D
 Structure written by MMmdl.
160168  0  0  1  0            999 V2000
  -30.6514  -14.5244   20.5821 C   0  0  0  0  0  0
  -30.4435  -12.3449   19.4251 C   0  0  0  0  0  0
  -29.5075  -12.5254   18.2111 C   0  0  0  0  0  0
  -28.0249  -12.3786   18.6142 C   0  0  0  0  0  0
  -27.6636  -13.2088   19.8749 C   0  0  2  0  0  0
  -28.7055  -12.9759   20.9908 C   0  0  0  0  0  0
  -25.2602  -13.8166   20.5644 C   0  0  0  0  0  0
  -24.1844  -13.0449   20.9145 C   0  0  0  0  0  0
  -24.6409  -11.6918   20.8713 C   0  0  0  0  0  0
  -23.9060  -10.4301   21.0395 C   0  0  0  0  0  0
  -24.3617   -9.4216   21.9168 C   0  0  0  0  0  0
  -23.6294   -8.2247   22.0741 C   0  0  0  0  0  0
  -22.4271   -8.0283   21.3545 C   0  0  0  0  0  0
  -21.9909   -9.0255   20.4633 C   0  0  0  0  0  0
  -22.7231  -10.2135   20.3039 C   0  0  0  0  0  0
  -21.6856   -6.0730   22.5277 C   0  0  0  0  0  0
  -21.4007   -6.5632   23.8210 C   0  0  0  0  0  0
  -21.3658   -5.6786   24.9172 C   0  0  0  0  0  0
  -21.6049   -4.3051   24.7223 C   0  0  0  0  0  0
  -21.8829   -3.8137   23.4344 C   0  0  0  0  0  0
  -21.9194   -4.6957   22.3400 C   0  0  0  0  0  0
  -22.7859  -13.5236   21.1792 C   0  0  0  0  0  0
  -22.1659   -4.2132   21.0975 F   0  0  0  0  0  0
  -21.5634   -3.4540   25.7735 F   0  0  0  0  0  0
  -30.0307  -13.3190   20.4488 N   0  0  0  0  0  0
  -26.3035  -12.9329   20.3340 N   0  0  0  0  0  0
  -25.9342  -11.6487   20.5738 N   0  0  0  0  0  0
  -22.0485  -12.8260   22.0372 N   0  0  0  0  0  0
  -25.4358  -15.1889   20.4043 N   0  0  0  0  0  0
  -31.7767  -14.7468   20.1257 O   0  0  0  0  0  0
  -21.6639   -6.8882   21.4241 O   0  0  0  0  0  0
  -22.3522  -14.5526   20.6615 O   0  0  0  0  0  0
  -24.6211  -31.8670   23.2036 C   0  0  0  0  0  0
  -25.9096  -32.4804   23.8352 C   0  0  1  0  0  0
  -27.2236  -27.3867   20.1291 C   0  0  0  0  0  0
  -25.5949  -33.8607   24.2275 N   0  0  0  0  0  0
  -23.4070  -30.4920   21.5450 C   0  0  2  0  0  0
  -24.8539  -28.9536   20.1099 C   0  0  0  0  0  0
  -22.7448  -29.4651   22.4936 C   0  0  0  0  0  0
  -18.0269  -28.1403   22.8463 C   0  0  0  0  0  0
  -24.1497  -36.7313   23.2630 C   0  0  0  0  0  0
  -25.9408  -30.8225   21.3602 C   0  0  0  0  0  0
  -26.0172  -29.4521   20.7135 C   0  0  0  0  0  0
  -27.2073  -28.6799   20.7153 C   0  0  0  0  0  0
  -26.0429  -26.9145   19.5190 C   0  0  0  0  0  0
  -24.8653  -27.6868   19.5042 C   0  0  0  0  0  0
  -23.6195  -29.8323   20.1571 C   0  0  0  0  0  0
  -25.4114  -36.3087   24.0314 C   0  0  1  0  0  0
  -20.5876  -28.3699   23.1315 C   0  0  2  0  0  0
  -20.6785  -26.9435   22.5437 C   0  0  0  0  0  0
  -19.5756  -26.6406   21.5239 C   0  0  0  0  0  0
  -18.1922  -26.7943   22.1617 C   0  0  0  0  0  0
  -19.1529  -28.8867   23.2884 C   0  0  0  0  0  0
  -18.9457  -30.1471   23.8887 C   0  0  0  0  0  0
  -17.6466  -30.6601   24.0573 C   0  0  0  0  0  0
  -25.9067  -34.9474   23.5074 C   0  0  0  0  0  0
  -16.5347  -29.9109   23.6326 C   0  0  0  0  0  0
  -16.7266  -28.6543   23.0307 C   0  0  0  0  0  0
  -26.4509  -31.6580   25.0685 C   0  0  0  0  0  0
  -25.3756  -31.3721   26.1413 C   0  0  0  0  0  0
  -27.0309  -30.2985   24.6095 C   0  0  0  0  0  0
  -27.6062  -32.4299   25.7477 C   0  0  0  0  0  0
  -27.5560  -37.1811   24.8448 C   0  0  0  0  0  0
  -21.4166  -29.3048   22.3701 N   0  0  0  0  0  0
  -26.4276  -37.3805   23.9405 N   0  0  0  0  0  0
  -24.6737  -31.0794   22.0923 N   0  0  0  0  0  0
  -23.4219  -28.8187   23.2974 O   0  0  0  0  0  0
  -28.3503  -26.5768   20.1369 O   0  0  0  0  0  0
  -26.5641  -34.8938   22.4645 O   0  0  0  0  0  0
  -23.5406  -32.1396   23.7468 O   0  0  0  0  0  0
  -29.1371  -22.8824   21.0707 C   0  0  0  0  0  0
  -28.6076  -24.0111   20.3533 C   0  0  0  0  0  0
  -29.2546  -21.7874   20.2463 C   0  0  0  0  0  0
  -28.4338  -23.5622   19.0691 C   0  0  0  0  0  0
  -27.9642  -24.2937   17.8481 C   0  0  0  0  0  0
  -28.5264  -21.3441   17.8462 C   0  0  0  0  0  0
  -28.2475  -25.3859   20.9684 C   0  0  0  0  0  0
  -29.8211  -20.3809   20.5001 C   0  0  0  0  0  0
  -28.8617  -19.3327   21.1343 C   0  0  0  0  0  0
  -28.9738  -17.8316   20.6899 C   0  0  0  0  0  0
  -30.1485  -16.9604   21.2375 C   0  0  0  0  0  0
  -28.7420  -22.1967   19.0166 N   0  0  0  0  0  0
  -29.8845  -15.5048   21.1177 N   0  0  0  0  0  0
  -31.4829  -12.4774   19.1199 H   0  0  0  0  0  0
  -30.3791  -11.3304   19.8199 H   0  0  0  0  0  0
  -29.7616  -11.8078   17.4301 H   0  0  0  0  0  0
  -29.6683  -13.5132   17.7776 H   0  0  0  0  0  0
  -27.8315  -11.3216   18.7987 H   0  0  0  0  0  0
  -27.3837  -12.6626   17.7781 H   0  0  0  0  0  0
  -27.7093  -14.2585   19.5882 H   0  0  0  0  0  0
  -28.6986  -11.9281   21.2924 H   0  0  0  0  0  0
  -28.4620  -13.5381   21.8927 H   0  0  0  0  0  0
  -25.2778   -9.5683   22.4729 H   0  0  0  0  0  0
  -23.9995   -7.4644   22.7487 H   0  0  0  0  0  0
  -21.0826   -8.8790   19.8957 H   0  0  0  0  0  0
  -22.3701  -10.9673   19.6140 H   0  0  0  0  0  0
  -21.1992   -7.6133   23.9707 H   0  0  0  0  0  0
  -21.1468   -6.0506   25.9071 H   0  0  0  0  0  0
  -22.0609   -2.7594   23.2852 H   0  0  0  0  0  0
  -22.4062  -11.9935   22.4820 H   0  0  0  0  0  0
  -21.1094  -13.1300   22.2526 H   0  0  0  0  0  0
  -24.6816  -15.8576   20.5174 H   0  0  0  0  0  0
  -26.2943  -15.6161   20.0803 H   0  0  0  0  0  0
  -26.7190  -32.5507   23.1138 H   0  0  0  0  0  0
  -25.0125  -33.9783   25.0431 H   0  0  0  0  0  0
  -22.6929  -31.3073   21.4120 H   0  0  0  0  0  0
  -23.3734  -35.9670   23.3300 H   0  0  0  0  0  0
  -24.3566  -36.8927   22.2040 H   0  0  0  0  0  0
  -23.7288  -37.6527   23.6659 H   0  0  0  0  0  0
  -26.0713  -31.5834   20.5901 H   0  0  0  0  0  0
  -26.8222  -30.8734   21.9870 H   0  0  0  0  0  0
  -28.0998  -29.0533   21.1964 H   0  0  0  0  0  0
  -26.0253  -25.9344   19.0668 H   0  0  0  0  0  0
  -23.9742  -27.2972   19.0330 H   0  0  0  0  0  0
  -23.7443  -30.6135   19.4064 H   0  0  0  0  0  0
  -22.7331  -29.2762   19.8457 H   0  0  0  0  0  0
  -25.1313  -36.1915   25.0809 H   0  0  0  0  0  0
  -20.9984  -28.3315   24.1435 H   0  0  0  0  0  0
  -20.5737  -26.2319   23.3636 H   0  0  0  0  0  0
  -21.6650  -26.7499   22.1208 H   0  0  0  0  0  0
  -19.6930  -25.6335   21.1242 H   0  0  0  0  0  0
  -19.6694  -27.3243   20.6789 H   0  0  0  0  0  0
  -17.4210  -26.6692   21.4000 H   0  0  0  0  0  0
  -18.0283  -26.0097   22.9022 H   0  0  0  0  0  0
  -19.7951  -30.7291   24.2237 H   0  0  0  0  0  0
  -17.5027  -31.6264   24.5216 H   0  0  0  0  0  0
  -15.5354  -30.3014   23.7679 H   0  0  0  0  0  0
  -15.8652  -28.0905   22.6968 H   0  0  0  0  0  0
  -24.5996  -30.6979   25.7768 H   0  0  0  0  0  0
  -24.8889  -32.2898   26.4731 H   0  0  0  0  0  0
  -25.8120  -30.9013   27.0231 H   0  0  0  0  0  0
  -26.2841  -29.6751   24.1160 H   0  0  0  0  0  0
  -27.4033  -29.7226   25.4578 H   0  0  0  0  0  0
  -27.8717  -30.4214   23.9257 H   0  0  0  0  0  0
  -27.2657  -33.3612   26.2014 H   0  0  0  0  0  0
  -28.3925  -32.6823   25.0349 H   0  0  0  0  0  0
  -28.0664  -31.8435   26.5435 H   0  0  0  0  0  0
  -28.2600  -38.0097   24.7497 H   0  0  0  0  0  0
  -28.1050  -36.2628   24.6281 H   0  0  0  0  0  0
  -27.2288  -37.1470   25.8859 H   0  0  0  0  0  0
  -20.9325  -29.8753   21.6911 H   0  0  0  0  0  0
  -26.0132  -38.2874   24.1399 H   0  0  0  0  0  0
  -29.4042  -22.8724   22.1188 H   0  0  0  0  0  0
  -26.9594  -23.9860   17.5625 H   0  0  0  0  0  0
  -28.6363  -24.1152   17.0110 H   0  0  0  0  0  0
  -27.9593  -25.3720   17.9927 H   0  0  0  0  0  0
  -29.0823  -20.4115   17.8914 H   0  0  0  0  0  0
  -28.8196  -21.8539   16.9298 H   0  0  0  0  0  0
  -27.4691  -21.0868   17.7768 H   0  0  0  0  0  0
  -28.9010  -25.5272   21.8302 H   0  0  0  0  0  0
  -27.2442  -25.2896   21.3872 H   0  0  0  0  0  0
  -30.6965  -20.4678   21.1458 H   0  0  0  0  0  0
  -30.2363  -19.9748   19.5802 H   0  0  0  0  0  0
  -27.8497  -19.6427   20.8721 H   0  0  0  0  0  0
  -28.9062  -19.4050   22.2215 H   0  0  0  0  0  0
  -28.9579  -17.7784   19.6012 H   0  0  0  0  0  0
  -28.0453  -17.3551   21.0084 H   0  0  0  0  0  0
  -30.3043  -17.1795   22.2961 H   0  0  0  0  0  0
  -31.0709  -17.2338   20.7266 H   0  0  0  0  0  0
  -28.9914  -15.1907   21.4639 H   0  0  0  0  0  0
  1 25  1  0  0  0
  1 30  2  0  0  0
  1 83  1  0  0  0
  2  3  1  0  0  0
  2 25  1  0  0  0
  2 84  1  0  0  0
  2 85  1  0  0  0
  3  4  1  0  0  0
  3 86  1  0  0  0
  3 87  1  0  0  0
  4  5  1  0  0  0
  4 88  1  0  0  0
  4 89  1  0  0  0
  5  6  1  0  0  0
  5 26  1  0  0  0
  5 90  1  0  0  0
  6 25  1  0  0  0
  6 91  1  0  0  0
  6 92  1  0  0  0
  7  8  2  0  0  0
  7 26  1  0  0  0
  7 29  1  0  0  0
  8  9  1  0  0  0
  8 22  1  0  0  0
  9 10  1  0  0  0
  9 27  2  0  0  0
 10 11  2  0  0  0
 10 15  1  0  0  0
 11 12  1  0  0  0
 11 93  1  0  0  0
 12 13  2  0  0  0
 12 94  1  0  0  0
 13 14  1  0  0  0
 13 31  1  0  0  0
 14 15  2  0  0  0
 14 95  1  0  0  0
 15 96  1  0  0  0
 16 17  2  0  0  0
 16 21  1  0  0  0
 16 31  1  0  0  0
 17 18  1  0  0  0
 17 97  1  0  0  0
 18 19  2  0  0  0
 18 98  1  0  0  0
 19 20  1  0  0  0
 19 24  1  0  0  0
 20 21  2  0  0  0
 20 99  1  0  0  0
 21 23  1  0  0  0
 22 28  1  0  0  0
 22 32  2  0  0  0
 26 27  1  0  0  0
 28100  1  0  0  0
 28101  1  0  0  0
 29102  1  0  0  0
 29103  1  0  0  0
 33 34  1  0  0  0
 33 66  1  0  0  0
 33 70  2  0  0  0
 34 36  1  0  0  0
 34 59  1  0  0  0
 34104  1  0  0  0
 35 44  2  0  0  0
 35 45  1  0  0  0
 35 68  1  0  0  0
 36 56  1  0  0  0
 36105  1  0  0  0
 37 39  1  0  0  0
 37 47  1  0  0  0
 37 66  1  0  0  0
 37106  1  0  0  0
 38 43  2  0  0  0
 38 46  1  0  0  0
 38 47  1  0  0  0
 39 64  1  0  0  0
 39 67  2  0  0  0
 40 52  1  0  0  0
 40 53  2  0  0  0
 40 58  1  0  0  0
 41107  1  0  0  0
 41108  1  0  0  0
 41109  1  0  0  0
 41 48  1  0  0  0
 42 43  1  0  0  0
 42 66  1  0  0  0
 42110  1  0  0  0
 42111  1  0  0  0
 43 44  1  0  0  0
 44112  1  0  0  0
 45 46  2  0  0  0
 45113  1  0  0  0
 46114  1  0  0  0
 47115  1  0  0  0
 47116  1  0  0  0
 48 56  1  0  0  0
 48 65  1  0  0  0
 48117  1  0  0  0
 49 50  1  0  0  0
 49 53  1  0  0  0
 49 64  1  0  0  0
 49118  1  0  0  0
 50 51  1  0  0  0
 50119  1  0  0  0
 50120  1  0  0  0
 51 52  1  0  0  0
 51121  1  0  0  0
 51122  1  0  0  0
 52123  1  0  0  0
 52124  1  0  0  0
 53 54  1  0  0  0
 54 55  2  0  0  0
 54125  1  0  0  0
 55 57  1  0  0  0
 55126  1  0  0  0
 56 69  2  0  0  0
 57 58  2  0  0  0
 57127  1  0  0  0
 58128  1  0  0  0
 59 60  1  0  0  0
 59 61  1  0  0  0
 59 62  1  0  0  0
 60129  1  0  0  0
 60130  1  0  0  0
 60131  1  0  0  0
 61132  1  0  0  0
 61133  1  0  0  0
 61134  1  0  0  0
 62135  1  0  0  0
 62136  1  0  0  0
 62137  1  0  0  0
 63 65  1  0  0  0
 63138  1  0  0  0
 63139  1  0  0  0
 63140  1  0  0  0
 64141  1  0  0  0
 65142  1  0  0  0
 68 77  1  0  0  0
 71 72  1  0  0  0
 71 73  2  0  0  0
 71143  1  0  0  0
 72 74  2  0  0  0
 72 77  1  0  0  0
 73 78  1  0  0  0
 73 82  1  0  0  0
 74 75  1  0  0  0
 74 82  1  0  0  0
 75144  1  0  0  0
 75145  1  0  0  0
 75146  1  0  0  0
 76 82  1  0  0  0
 76147  1  0  0  0
 76148  1  0  0  0
 76149  1  0  0  0
 77150  1  0  0  0
 77151  1  0  0  0
 78 79  1  0  0  0
 78152  1  0  0  0
 78153  1  0  0  0
 79 80  1  0  0  0
 79154  1  0  0  0
 79155  1  0  0  0
 80 81  1  0  0  0
 80156  1  0  0  0
 80157  1  0  0  0
 81 83  1  0  0  0
 81158  1  0  0  0
 81159  1  0  0  0
 83160  1  0  0  0
M  ISO  4   1 100  68 101  77 101  83 100
M  END
> <chiral flag>
0

> <version>
0

> <s_m_source_file>
/data/baiqing/PycharmProjects/Reinvent-master-3.2/result/LINK_invent/BTK/process_docking_weight1_custom_sum_contain_oxygen_bond_distance_aromatic_linkinvent_7_9_3/rearranged_h_0043.sdf

> <i_m_source_file_index>
3

> <r_mmod_Potential_Energy-OPLS-2005>
-34.7862548828125

> <r_mmod_Stretch_Energy-OPLS-2005>
48.9434509277344

> <r_mmod_Bend_Energy-OPLS-2005>
114.02352142334

> <r_mmod_Torsional_Energy-OPLS-2005>
246.935653686523

> <r_mmod_Improper_Torsional_Energy-OPLS-2005>
3.53557300567627

> <r_mmod_Van_der_Waal_Energy-OPLS-2005>
122.00496673584

> <r_mmod_Electrostatic_Energy-OPLS-2005>
-379.004913330078

> <r_mmod_Solvation_Energy-OPLS-2005>
-213.34001159668

> <b_mmod_Minimization_Converged-OPLS-2005>
0

> <r_mmod_RMS_Derivative-OPLS-2005>
3.26878762245178

$$$$
3
                    3D
 Structure written by MMmdl.
160168  0  0  1  0            999 V2000
  -30.6924  -14.4910   20.5826 C   0  0  0  0  0  0
  -30.4229  -12.3224   19.4235 C   0  0  0  0  0  0
  -29.4978  -12.5023   18.2029 C   0  0  0  0  0  0
  -28.0160  -12.3672   18.6114 C   0  0  0  0  0  0
  -27.6586  -13.2092   19.8660 C   0  0  2  0  0  0
  -28.6976  -13.0011   20.9889 C   0  0  0  0  0  0
  -25.2587  -13.8170   20.5658 C   0  0  0  0  0  0
  -24.1837  -13.0445   20.9159 C   0  0  0  0  0  0
  -24.6388  -11.6912   20.8709 C   0  0  0  0  0  0
  -23.9052  -10.4298   21.0383 C   0  0  0  0  0  0
  -24.3613   -9.4219   21.9159 C   0  0  0  0  0  0
  -23.6304   -8.2246   22.0740 C   0  0  0  0  0  0
  -22.4283   -8.0277   21.3534 C   0  0  0  0  0  0
  -21.9904   -9.0245   20.4639 C   0  0  0  0  0  0
  -22.7218  -10.2131   20.3048 C   0  0  0  0  0  0
  -21.6860   -6.0736   22.5271 C   0  0  0  0  0  0
  -21.4016   -6.5641   23.8200 C   0  0  0  0  0  0
  -21.3665   -5.6795   24.9163 C   0  0  0  0  0  0
  -21.6048   -4.3056   24.7218 C   0  0  0  0  0  0
  -21.8824   -3.8149   23.4340 C   0  0  0  0  0  0
  -21.9194   -4.6965   22.3397 C   0  0  0  0  0  0
  -22.7864  -13.5244   21.1834 C   0  0  0  0  0  0
  -22.1670   -4.2155   21.0975 F   0  0  0  0  0  0
  -21.5628   -3.4540   25.7730 F   0  0  0  0  0  0
  -30.0242  -13.3142   20.4339 N   0  0  0  0  0  0
  -26.3008  -12.9337   20.3299 N   0  0  0  0  0  0
  -25.9312  -11.6495   20.5716 N   0  0  0  0  0  0
  -22.0509  -12.8238   22.0400 N   0  0  0  0  0  0
  -25.4345  -15.1883   20.4081 N   0  0  0  0  0  0
  -31.8245  -14.6769   20.1285 O   0  0  0  0  0  0
  -21.6648   -6.8873   21.4232 O   0  0  0  0  0  0
  -22.3551  -14.5547   20.6683 O   0  0  0  0  0  0
  -24.6167  -31.8670   23.2087 C   0  0  0  0  0  0
  -25.9054  -32.4817   23.8387 C   0  0  1  0  0  0
  -27.2333  -27.4078   20.1030 C   0  0  0  0  0  0
  -25.5898  -33.8613   24.2309 N   0  0  0  0  0  0
  -23.4072  -30.4914   21.5484 C   0  0  2  0  0  0
  -24.8530  -28.9583   20.1116 C   0  0  0  0  0  0
  -22.7423  -29.4661   22.4956 C   0  0  0  0  0  0
  -18.0278  -28.1384   22.8486 C   0  0  0  0  0  0
  -24.1486  -36.7322   23.2637 C   0  0  0  0  0  0
  -25.9397  -30.8227   21.3702 C   0  0  0  0  0  0
  -26.0150  -29.4587   20.7114 C   0  0  0  0  0  0
  -27.2066  -28.6927   20.7008 C   0  0  0  0  0  0
  -26.0500  -26.9364   19.4844 C   0  0  0  0  0  0
  -24.8667  -27.6969   19.4948 C   0  0  0  0  0  0
  -23.6168  -29.8279   20.1621 C   0  0  0  0  0  0
  -25.4109  -36.3109   24.0333 C   0  0  1  0  0  0
  -20.5870  -28.3679   23.1297 C   0  0  2  0  0  0
  -20.6762  -26.9407   22.5407 C   0  0  0  0  0  0
  -19.5746  -26.6389   21.5198 C   0  0  0  0  0  0
  -18.1923  -26.7933   22.1610 C   0  0  0  0  0  0
  -19.1528  -28.8845   23.2891 C   0  0  0  0  0  0
  -18.9463  -30.1448   23.8915 C   0  0  0  0  0  0
  -17.6469  -30.6588   24.0565 C   0  0  0  0  0  0
  -25.9042  -34.9478   23.5116 C   0  0  0  0  0  0
  -16.5356  -29.9098   23.6323 C   0  0  0  0  0  0
  -16.7270  -28.6508   23.0349 C   0  0  0  0  0  0
  -26.4484  -31.6617   25.0726 C   0  0  0  0  0  0
  -25.3762  -31.3743   26.1485 C   0  0  0  0  0  0
  -27.0345  -30.3049   24.6142 C   0  0  0  0  0  0
  -27.6040  -32.4374   25.7487 C   0  0  0  0  0  0
  -27.5592  -37.1804   24.8454 C   0  0  0  0  0  0
  -21.4149  -29.3040   22.3695 N   0  0  0  0  0  0
  -26.4301  -37.3800   23.9408 N   0  0  0  0  0  0
  -24.6724  -31.0759   22.0995 N   0  0  0  0  0  0
  -23.4184  -28.8201   23.3009 O   0  0  0  0  0  0
  -28.3919  -26.6436   20.1503 O   0  0  0  0  0  0
  -26.5614  -34.8940   22.4688 O   0  0  0  0  0  0
  -23.5352  -32.1430   23.7461 O   0  0  0  0  0  0
  -28.6526  -20.8262   19.9114 C   0  0  0  0  0  0
  -29.6119  -20.6499   20.8782 C   0  0  0  0  0  0
  -29.2919  -22.8685   20.5538 C   0  0  0  0  0  0
  -32.3994  -22.4566   21.6493 C   0  0  0  0  0  0
  -30.2105  -19.3949   21.4893 C   0  0  0  0  0  0
  -29.4163  -24.3901   20.6310 C   0  0  0  0  0  0
  -29.7550  -18.0315   20.8888 C   0  0  0  0  0  0
  -31.0037  -22.2757   22.2614 C   0  0  0  0  0  0
  -30.4961  -16.8266   21.5424 C   0  0  0  0  0  0
  -28.2512  -25.2085   20.0102 C   0  0  0  0  0  0
  -29.9851  -21.9352   21.2510 N   0  0  0  0  0  0
  -28.4928  -22.1758   19.7314 N   0  3  0  0  0  0
  -29.9948  -15.4899   21.1629 N   0  0  0  0  0  0
  -31.4682  -12.4248   19.1267 H   0  0  0  0  0  0
  -30.3286  -11.3158   19.8326 H   0  0  0  0  0  0
  -29.7424  -11.7673   17.4343 H   0  0  0  0  0  0
  -29.6691  -13.4807   17.7529 H   0  0  0  0  0  0
  -27.8157  -11.3128   18.8033 H   0  0  0  0  0  0
  -27.3720  -12.6487   17.7774 H   0  0  0  0  0  0
  -27.6990  -14.2557   19.5624 H   0  0  0  0  0  0
  -28.6817  -11.9676   21.3361 H   0  0  0  0  0  0
  -28.4513  -13.6054   21.8625 H   0  0  0  0  0  0
  -25.2764   -9.5708   22.4717 H   0  0  0  0  0  0
  -24.0030   -7.4646   22.7462 H   0  0  0  0  0  0
  -21.0833   -8.8756   19.8954 H   0  0  0  0  0  0
  -22.3663  -10.9666   19.6161 H   0  0  0  0  0  0
  -21.2008   -7.6147   23.9704 H   0  0  0  0  0  0
  -21.1485   -6.0520   25.9064 H   0  0  0  0  0  0
  -22.0600   -2.7615   23.2833 H   0  0  0  0  0  0
  -22.4158  -11.9928   22.4811 H   0  0  0  0  0  0
  -21.1109  -13.1230   22.2584 H   0  0  0  0  0  0
  -24.6743  -15.8507   20.5170 H   0  0  0  0  0  0
  -26.2911  -15.6200   20.0837 H   0  0  0  0  0  0
  -26.7116  -32.5531   23.1142 H   0  0  0  0  0  0
  -25.0017  -33.9758   25.0431 H   0  0  0  0  0  0
  -22.6977  -31.3097   21.4087 H   0  0  0  0  0  0
  -23.3748  -35.9653   23.3303 H   0  0  0  0  0  0
  -24.3573  -36.8939   22.2048 H   0  0  0  0  0  0
  -23.7244  -37.6532   23.6654 H   0  0  0  0  0  0
  -26.0695  -31.5940   20.6096 H   0  0  0  0  0  0
  -26.8210  -30.8644   21.9991 H   0  0  0  0  0  0
  -28.1016  -29.0746   21.1712 H   0  0  0  0  0  0
  -26.0173  -25.9763   18.9903 H   0  0  0  0  0  0
  -23.9738  -27.3063   19.0257 H   0  0  0  0  0  0
  -23.7290  -30.6049   19.4056 H   0  0  0  0  0  0
  -22.7402  -29.2516   19.8623 H   0  0  0  0  0  0
  -25.1280  -36.1965   25.0823 H   0  0  0  0  0  0
  -20.9966  -28.3245   24.1414 H   0  0  0  0  0  0
  -20.5652  -26.2288   23.3603 H   0  0  0  0  0  0
  -21.6637  -26.7437   22.1205 H   0  0  0  0  0  0
  -19.6911  -25.6301   21.1222 H   0  0  0  0  0  0
  -19.6687  -27.3195   20.6724 H   0  0  0  0  0  0
  -17.4188  -26.6675   21.4013 H   0  0  0  0  0  0
  -18.0331  -26.0070   22.9010 H   0  0  0  0  0  0
  -19.7945  -30.7241   24.2296 H   0  0  0  0  0  0
  -17.5036  -31.6272   24.5170 H   0  0  0  0  0  0
  -15.5363  -30.3015   23.7644 H   0  0  0  0  0  0
  -15.8661  -28.0837   22.7071 H   0  0  0  0  0  0
  -24.5833  -30.7228   25.7804 H   0  0  0  0  0  0
  -24.9090  -32.2923   26.5062 H   0  0  0  0  0  0
  -25.8098  -30.8762   27.0162 H   0  0  0  0  0  0
  -26.2935  -29.6819   24.1120 H   0  0  0  0  0  0
  -27.4023  -29.7277   25.4636 H   0  0  0  0  0  0
  -27.8808  -30.4367   23.9394 H   0  0  0  0  0  0
  -27.2613  -33.3661   26.2063 H   0  0  0  0  0  0
  -28.3837  -32.6978   25.0320 H   0  0  0  0  0  0
  -28.0730  -31.8521   26.5402 H   0  0  0  0  0  0
  -28.2613  -38.0100   24.7504 H   0  0  0  0  0  0
  -28.1087  -36.2636   24.6269 H   0  0  0  0  0  0
  -27.2309  -37.1442   25.8857 H   0  0  0  0  0  0
  -20.9314  -29.8777   21.6926 H   0  0  0  0  0  0
  -26.0189  -38.2879   24.1419 H   0  0  0  0  0  0
  -28.0858  -20.1027   19.3427 H   0  0  0  0  0  0
  -33.1415  -22.6356   22.4277 H   0  0  0  0  0  0
  -32.4286  -23.3039   20.9636 H   0  0  0  0  0  0
  -32.7099  -21.5673   21.0992 H   0  0  0  0  0  0
  -29.9762  -19.3990   22.5546 H   0  0  0  0  0  0
  -31.2958  -19.4667   21.4159 H   0  0  0  0  0  0
  -30.3614  -24.6500   20.1546 H   0  0  0  0  0  0
  -29.4984  -24.6504   21.6853 H   0  0  0  0  0  0
  -29.9414  -18.0256   19.8137 H   0  0  0  0  0  0
  -28.6775  -17.9240   21.0185 H   0  0  0  0  0  0
  -30.6943  -23.1699   22.8006 H   0  0  0  0  0  0
  -31.0254  -21.4809   23.0071 H   0  0  0  0  0  0
  -30.3993  -16.8975   22.6268 H   0  0  0  0  0  0
  -31.5657  -16.9088   21.3384 H   0  0  0  0  0  0
  -27.3348  -24.8741   20.5004 H   0  0  0  0  0  0
  -28.1612  -24.9710   18.9494 H   0  0  0  0  0  0
  -27.8555  -22.5816   19.0572 H   0  0  0  0  0  0
  -29.0554  -15.2565   21.4500 H   0  0  0  0  0  0
  1 25  1  0  0  0
  1 30  2  0  0  0
  1 83  1  0  0  0
  2  3  1  0  0  0
  2 25  1  0  0  0
  2 84  1  0  0  0
  2 85  1  0  0  0
  3  4  1  0  0  0
  3 86  1  0  0  0
  3 87  1  0  0  0
  4  5  1  0  0  0
  4 88  1  0  0  0
  4 89  1  0  0  0
  5  6  1  0  0  0
  5 26  1  0  0  0
  5 90  1  0  0  0
  6 25  1  0  0  0
  6 91  1  0  0  0
  6 92  1  0  0  0
  7  8  2  0  0  0
  7 26  1  0  0  0
  7 29  1  0  0  0
  8  9  1  0  0  0
  8 22  1  0  0  0
  9 10  1  0  0  0
  9 27  2  0  0  0
 10 11  2  0  0  0
 10 15  1  0  0  0
 11 12  1  0  0  0
 11 93  1  0  0  0
 12 13  2  0  0  0
 12 94  1  0  0  0
 13 14  1  0  0  0
 13 31  1  0  0  0
 14 15  2  0  0  0
 14 95  1  0  0  0
 15 96  1  0  0  0
 16 17  2  0  0  0
 16 21  1  0  0  0
 16 31  1  0  0  0
 17 18  1  0  0  0
 17 97  1  0  0  0
 18 19  2  0  0  0
 18 98  1  0  0  0
 19 20  1  0  0  0
 19 24  1  0  0  0
 20 21  2  0  0  0
 20 99  1  0  0  0
 21 23  1  0  0  0
 22 28  1  0  0  0
 22 32  2  0  0  0
 26 27  1  0  0  0
 28100  1  0  0  0
 28101  1  0  0  0
 29102  1  0  0  0
 29103  1  0  0  0
 33 34  1  0  0  0
 33 66  1  0  0  0
 33 70  2  0  0  0
 34 36  1  0  0  0
 34 59  1  0  0  0
 34104  1  0  0  0
 35 44  2  0  0  0
 35 45  1  0  0  0
 35 68  1  0  0  0
 36 56  1  0  0  0
 36105  1  0  0  0
 37 39  1  0  0  0
 37 47  1  0  0  0
 37 66  1  0  0  0
 37106  1  0  0  0
 38 43  2  0  0  0
 38 46  1  0  0  0
 38 47  1  0  0  0
 39 64  1  0  0  0
 39 67  2  0  0  0
 40 52  1  0  0  0
 40 53  2  0  0  0
 40 58  1  0  0  0
 41107  1  0  0  0
 41108  1  0  0  0
 41109  1  0  0  0
 41 48  1  0  0  0
 42 43  1  0  0  0
 42 66  1  0  0  0
 42110  1  0  0  0
 42111  1  0  0  0
 43 44  1  0  0  0
 44112  1  0  0  0
 45 46  2  0  0  0
 45113  1  0  0  0
 46114  1  0  0  0
 47115  1  0  0  0
 47116  1  0  0  0
 48 56  1  0  0  0
 48 65  1  0  0  0
 48117  1  0  0  0
 49 50  1  0  0  0
 49 53  1  0  0  0
 49 64  1  0  0  0
 49118  1  0  0  0
 50 51  1  0  0  0
 50119  1  0  0  0
 50120  1  0  0  0
 51 52  1  0  0  0
 51121  1  0  0  0
 51122  1  0  0  0
 52123  1  0  0  0
 52124  1  0  0  0
 53 54  1  0  0  0
 54 55  2  0  0  0
 54125  1  0  0  0
 55 57  1  0  0  0
 55126  1  0  0  0
 56 69  2  0  0  0
 57 58  2  0  0  0
 57127  1  0  0  0
 58128  1  0  0  0
 59 60  1  0  0  0
 59 61  1  0  0  0
 59 62  1  0  0  0
 60129  1  0  0  0
 60130  1  0  0  0
 60131  1  0  0  0
 61132  1  0  0  0
 61133  1  0  0  0
 61134  1  0  0  0
 62135  1  0  0  0
 62136  1  0  0  0
 62137  1  0  0  0
 63 65  1  0  0  0
 63138  1  0  0  0
 63139  1  0  0  0
 63140  1  0  0  0
 64141  1  0  0  0
 65142  1  0  0  0
 68 80  1  0  0  0
 71 72  2  0  0  0
 71 82  1  0  0  0
 71143  1  0  0  0
 72 75  1  0  0  0
 72 81  1  0  0  0
 73 76  1  0  0  0
 73 81  1  0  0  0
 73 82  2  0  0  0
 74 78  1  0  0  0
 74144  1  0  0  0
 74145  1  0  0  0
 74146  1  0  0  0
 75 77  1  0  0  0
 75147  1  0  0  0
 75148  1  0  0  0
 76 80  1  0  0  0
 76149  1  0  0  0
 76150  1  0  0  0
 77 79  1  0  0  0
 77151  1  0  0  0
 77152  1  0  0  0
 78 81  1  0  0  0
 78153  1  0  0  0
 78154  1  0  0  0
 79 83  1  0  0  0
 79155  1  0  0  0
 79156  1  0  0  0
 80157  1  0  0  0
 80158  1  0  0  0
 82159  1  0  0  0
 83160  1  0  0  0
M  CHG  1  82   1
M  ISO  4   1 100  68 101  80 101  83 100
M  END
> <chiral flag>
0

> <version>
0

> <s_m_source_file>
/data/baiqing/PycharmProjects/Reinvent-master-3.2/result/LINK_invent/BTK/process_docking_weight1_custom_sum_contain_oxygen_bond_distance_aromatic_linkinvent_7_9_3/rearranged_h_0043.sdf

> <i_m_source_file_index>
4

> <r_mmod_Potential_Energy-OPLS-2005>
-146.024765014648

> <r_mmod_Stretch_Energy-OPLS-2005>
42.1072273254395

> <r_mmod_Bend_Energy-OPLS-2005>
97.4685440063477

> <r_mmod_Torsional_Energy-OPLS-2005>
209.476608276367

> <r_mmod_Improper_Torsional_Energy-OPLS-2005>
2.6715829372406

> <r_mmod_Van_der_Waal_Energy-OPLS-2005>
130.276092529297

> <r_mmod_Electrostatic_Energy-OPLS-2005>
-216.329895019531

> <r_mmod_Solvation_Energy-OPLS-2005>
-428.86669921875

> <b_mmod_Minimization_Converged-OPLS-2005>
0

> <r_mmod_RMS_Derivative-OPLS-2005>
1.66898632049561

$$$$
4
                    3D
 Structure written by MMmdl.
159167  0  0  1  0            999 V2000
  -30.6352  -14.7480   20.4698 C   0  0  0  0  0  0
  -30.4294  -12.4653   19.4699 C   0  0  0  0  0  0
  -29.5036  -12.5037   18.2347 C   0  0  0  0  0  0
  -28.0317  -12.3288   18.6535 C   0  0  0  0  0  0
  -27.6381  -13.2371   19.8487 C   0  0  2  0  0  0
  -28.6857  -13.1843   20.9818 C   0  0  0  0  0  0
  -25.2479  -13.8217   20.5712 C   0  0  0  0  0  0
  -24.1777  -13.0450   20.9230 C   0  0  0  0  0  0
  -24.6377  -11.6932   20.8766 C   0  0  0  0  0  0
  -23.9063  -10.4300   21.0410 C   0  0  0  0  0  0
  -24.3616   -9.4204   21.9183 C   0  0  0  0  0  0
  -23.6295   -8.2239   22.0740 C   0  0  0  0  0  0
  -22.4274   -8.0278   21.3531 C   0  0  0  0  0  0
  -21.9917   -9.0253   20.4635 C   0  0  0  0  0  0
  -22.7248  -10.2132   20.3049 C   0  0  0  0  0  0
  -21.6850   -6.0732   22.5274 C   0  0  0  0  0  0
  -21.4014   -6.5637   23.8211 C   0  0  0  0  0  0
  -21.3657   -5.6788   24.9173 C   0  0  0  0  0  0
  -21.6042   -4.3051   24.7225 C   0  0  0  0  0  0
  -21.8821   -3.8142   23.4349 C   0  0  0  0  0  0
  -21.9197   -4.6959   22.3402 C   0  0  0  0  0  0
  -22.7792  -13.5210   21.1898 C   0  0  0  0  0  0
  -22.1659   -4.2142   21.0981 F   0  0  0  0  0  0
  -21.5632   -3.4533   25.7742 F   0  0  0  0  0  0
  -29.9856  -13.5354   20.3953 N   0  0  0  0  0  0
  -26.2913  -12.9435   20.3300 N   0  0  0  0  0  0
  -25.9308  -11.6574   20.5772 N   0  0  0  0  0  0
  -22.0450  -12.8179   22.0446 N   0  0  0  0  0  0
  -25.4180  -15.1942   20.4116 N   0  0  0  0  0  0
  -31.8272  -14.8176   20.1613 O   0  0  0  0  0  0
  -21.6637   -6.8871   21.4234 O   0  0  0  0  0  0
  -22.3465  -14.5512   20.6751 O   0  0  0  0  0  0
  -24.6370  -31.8536   23.1995 C   0  0  0  0  0  0
  -25.9187  -32.4747   23.8340 C   0  0  1  0  0  0
  -27.2134  -27.2418   20.1222 C   0  0  0  0  0  0
  -25.5982  -33.8551   24.2272 N   0  0  0  0  0  0
  -23.4350  -30.4797   21.5415 C   0  0  2  0  0  0
  -24.8799  -28.9341   20.1046 C   0  0  0  0  0  0
  -22.7537  -29.4607   22.4878 C   0  0  0  0  0  0
  -18.0301  -28.1403   22.8482 C   0  0  0  0  0  0
  -24.1481  -36.7246   23.2639 C   0  0  0  0  0  0
  -25.9842  -30.7600   21.3835 C   0  0  0  0  0  0
  -26.0547  -29.3840   20.7208 C   0  0  0  0  0  0
  -27.2243  -28.5501   20.7206 C   0  0  0  0  0  0
  -26.0140  -26.8833   19.4576 C   0  0  0  0  0  0
  -24.8678  -27.6929   19.4596 C   0  0  0  0  0  0
  -23.6538  -29.8214   20.1549 C   0  0  0  0  0  0
  -25.4108  -36.3061   24.0334 C   0  0  1  0  0  0
  -20.5912  -28.3724   23.1235 C   0  0  2  0  0  0
  -20.6788  -26.9436   22.5396 C   0  0  0  0  0  0
  -19.5762  -26.6398   21.5200 C   0  0  0  0  0  0
  -18.1938  -26.7947   22.1611 C   0  0  0  0  0  0
  -19.1557  -28.8880   23.2851 C   0  0  0  0  0  0
  -18.9477  -30.1471   23.8886 C   0  0  0  0  0  0
  -17.6481  -30.6600   24.0567 C   0  0  0  0  0  0
  -25.9065  -34.9437   23.5097 C   0  0  0  0  0  0
  -16.5364  -29.9103   23.6334 C   0  0  0  0  0  0
  -16.7286  -28.6521   23.0366 C   0  0  0  0  0  0
  -26.4548  -31.6569   25.0728 C   0  0  0  0  0  0
  -25.3789  -31.3692   26.1459 C   0  0  0  0  0  0
  -27.0385  -30.2983   24.6212 C   0  0  0  0  0  0
  -27.6102  -32.4297   25.7510 C   0  0  0  0  0  0
  -27.5559  -37.1782   24.8479 C   0  0  0  0  0  0
  -21.4240  -29.3063   22.3623 N   0  0  0  0  0  0
  -26.4273  -37.3773   23.9424 N   0  0  0  0  0  0
  -24.7047  -31.0488   22.0976 N   0  0  0  0  0  0
  -23.4215  -28.8137   23.2989 O   0  0  0  0  0  0
  -28.2731  -26.2921   20.2054 O   0  0  0  0  0  0
  -26.5608  -34.8921   22.4649 O   0  0  0  0  0  0
  -23.5505  -32.1353   23.7282 O   0  0  0  0  0  0
  -30.1367  -23.7924   20.7289 C   0  0  0  0  0  0
  -29.7807  -21.5992   20.6609 C   0  0  0  0  0  0
  -28.6173  -22.3087   20.3057 C   0  0  0  0  0  0
  -25.8356  -20.9700   17.9416 C   0  0  0  0  0  0
  -30.2996  -20.0945   20.7968 C   0  0  0  0  0  0
  -27.2983  -21.7320   19.9005 C   0  0  0  0  0  0
  -27.1961  -21.5191   18.3841 C   0  0  0  0  0  0
  -29.5169  -18.6886   20.5962 C   0  0  0  0  0  0
  -30.4509  -17.3513   20.7072 C   0  0  0  0  0  0
  -27.9105  -24.8745   19.9571 C   0  0  0  0  0  0
  -30.7242  -22.6032   20.9321 N   0  0  0  0  0  0
  -28.8590  -23.7360   20.3337 N   0  0  0  0  0  0
  -29.9104  -15.9149   20.6902 N   0  0  0  0  0  0
  -31.4673  -12.5914   19.1574 H   0  0  0  0  0  0
  -30.3832  -11.4934   19.9635 H   0  0  0  0  0  0
  -29.7851  -11.7221   17.5275 H   0  0  0  0  0  0
  -29.6259  -13.4527   17.7105 H   0  0  0  0  0  0
  -27.8906  -11.2821   18.9252 H   0  0  0  0  0  0
  -27.3716  -12.5129   17.8043 H   0  0  0  0  0  0
  -27.6280  -14.2557   19.4610 H   0  0  0  0  0  0
  -28.7245  -12.1899   21.4288 H   0  0  0  0  0  0
  -28.4214  -13.8731   21.7854 H   0  0  0  0  0  0
  -25.2757   -9.5679   22.4766 H   0  0  0  0  0  0
  -24.0008   -7.4615   22.7441 H   0  0  0  0  0  0
  -21.0860   -8.8770   19.8928 H   0  0  0  0  0  0
  -22.3710  -10.9669   19.6153 H   0  0  0  0  0  0
  -21.1999   -7.6144   23.9712 H   0  0  0  0  0  0
  -21.1476   -6.0517   25.9075 H   0  0  0  0  0  0
  -22.0604   -2.7605   23.2851 H   0  0  0  0  0  0
  -22.4072  -11.9839   22.4825 H   0  0  0  0  0  0
  -21.1053  -13.1164   22.2649 H   0  0  0  0  0  0
  -24.6556  -15.8535   20.5244 H   0  0  0  0  0  0
  -26.2666  -15.6293   20.0732 H   0  0  0  0  0  0
  -26.7256  -32.5391   23.1078 H   0  0  0  0  0  0
  -25.0242  -33.9697   25.0492 H   0  0  0  0  0  0
  -22.7332  -31.3027   21.3961 H   0  0  0  0  0  0
  -23.3751  -35.9569   23.3331 H   0  0  0  0  0  0
  -24.3582  -36.8840   22.2053 H   0  0  0  0  0  0
  -23.7225  -37.6450   23.6636 H   0  0  0  0  0  0
  -26.1300  -31.5217   20.6160 H   0  0  0  0  0  0
  -26.8599  -30.8040   22.0192 H   0  0  0  0  0  0
  -28.1177  -28.8849   21.2280 H   0  0  0  0  0  0
  -25.9133  -25.9423   18.9384 H   0  0  0  0  0  0
  -23.9745  -27.3456   18.9585 H   0  0  0  0  0  0
  -23.7855  -30.6008   19.4042 H   0  0  0  0  0  0
  -22.7705  -29.2610   19.8421 H   0  0  0  0  0  0
  -25.1289  -36.1893   25.0825 H   0  0  0  0  0  0
  -21.0000  -28.3298   24.1354 H   0  0  0  0  0  0
  -20.5666  -26.2341   23.3617 H   0  0  0  0  0  0
  -21.6658  -26.7455   22.1192 H   0  0  0  0  0  0
  -19.6934  -25.6306   21.1238 H   0  0  0  0  0  0
  -19.6690  -27.3199   20.6722 H   0  0  0  0  0  0
  -17.4212  -26.6698   21.4009 H   0  0  0  0  0  0
  -18.0328  -26.0081   22.9000 H   0  0  0  0  0  0
  -19.7960  -30.7284   24.2227 H   0  0  0  0  0  0
  -17.5049  -31.6272   24.5182 H   0  0  0  0  0  0
  -15.5365  -30.3005   23.7684 H   0  0  0  0  0  0
  -15.8690  -28.0842   22.7081 H   0  0  0  0  0  0
  -24.6010  -30.6981   25.7808 H   0  0  0  0  0  0
  -24.8921  -32.2836   26.4852 H   0  0  0  0  0  0
  -25.8147  -30.8927   27.0253 H   0  0  0  0  0  0
  -26.2961  -29.6733   24.1230 H   0  0  0  0  0  0
  -27.4065  -29.7248   25.4727 H   0  0  0  0  0  0
  -27.8860  -30.4258   23.9471 H   0  0  0  0  0  0
  -27.2720  -33.3622   26.2043 H   0  0  0  0  0  0
  -28.3939  -32.6804   25.0347 H   0  0  0  0  0  0
  -28.0735  -31.8440   26.5464 H   0  0  0  0  0  0
  -28.2590  -38.0065   24.7513 H   0  0  0  0  0  0
  -28.1032  -36.2595   24.6302 H   0  0  0  0  0  0
  -27.2287  -37.1446   25.8889 H   0  0  0  0  0  0
  -20.9429  -29.8792   21.6831 H   0  0  0  0  0  0
  -26.0133  -38.2837   24.1437 H   0  0  0  0  0  0
  -30.6591  -24.7311   20.8522 H   0  0  0  0  0  0
  -25.7840  -20.8953   16.8549 H   0  0  0  0  0  0
  -25.0220  -21.6203   18.2636 H   0  0  0  0  0  0
  -25.6534  -19.9745   18.3470 H   0  0  0  0  0  0
  -30.7394  -20.0191   21.7916 H   0  0  0  0  0  0
  -31.1657  -20.0186   20.1400 H   0  0  0  0  0  0
  -26.4882  -22.3755   20.2451 H   0  0  0  0  0  0
  -27.1482  -20.7815   20.4143 H   0  0  0  0  0  0
  -27.3798  -22.4635   17.8720 H   0  0  0  0  0  0
  -27.9845  -20.8359   18.0623 H   0  0  0  0  0  0
  -29.0319  -18.6977   19.6202 H   0  0  0  0  0  0
  -28.7144  -18.6309   21.3317 H   0  0  0  0  0  0
  -31.0309  -17.4346   21.6283 H   0  0  0  0  0  0
  -31.1931  -17.4190   19.9102 H   0  0  0  0  0  0
  -26.9847  -24.6579   20.4907 H   0  0  0  0  0  0
  -27.7315  -24.7579   18.8869 H   0  0  0  0  0  0
  -28.9255  -15.7954   20.8746 H   0  0  0  0  0  0
  1 25  1  0  0  0
  1 30  2  0  0  0
  1 83  1  0  0  0
  2  3  1  0  0  0
  2 25  1  0  0  0
  2 84  1  0  0  0
  2 85  1  0  0  0
  3  4  1  0  0  0
  3 86  1  0  0  0
  3 87  1  0  0  0
  4  5  1  0  0  0
  4 88  1  0  0  0
  4 89  1  0  0  0
  5  6  1  0  0  0
  5 26  1  0  0  0
  5 90  1  0  0  0
  6 25  1  0  0  0
  6 91  1  0  0  0
  6 92  1  0  0  0
  7  8  2  0  0  0
  7 26  1  0  0  0
  7 29  1  0  0  0
  8  9  1  0  0  0
  8 22  1  0  0  0
  9 10  1  0  0  0
  9 27  2  0  0  0
 10 11  2  0  0  0
 10 15  1  0  0  0
 11 12  1  0  0  0
 11 93  1  0  0  0
 12 13  2  0  0  0
 12 94  1  0  0  0
 13 14  1  0  0  0
 13 31  1  0  0  0
 14 15  2  0  0  0
 14 95  1  0  0  0
 15 96  1  0  0  0
 16 17  2  0  0  0
 16 21  1  0  0  0
 16 31  1  0  0  0
 17 18  1  0  0  0
 17 97  1  0  0  0
 18 19  2  0  0  0
 18 98  1  0  0  0
 19 20  1  0  0  0
 19 24  1  0  0  0
 20 21  2  0  0  0
 20 99  1  0  0  0
 21 23  1  0  0  0
 22 28  1  0  0  0
 22 32  2  0  0  0
 26 27  1  0  0  0
 28100  1  0  0  0
 28101  1  0  0  0
 29102  1  0  0  0
 29103  1  0  0  0
 33 34  1  0  0  0
 33 66  1  0  0  0
 33 70  2  0  0  0
 34 36  1  0  0  0
 34 59  1  0  0  0
 34104  1  0  0  0
 35 44  2  0  0  0
 35 45  1  0  0  0
 35 68  1  0  0  0
 36 56  1  0  0  0
 36105  1  0  0  0
 37 39  1  0  0  0
 37 47  1  0  0  0
 37 66  1  0  0  0
 37106  1  0  0  0
 38 43  2  0  0  0
 38 46  1  0  0  0
 38 47  1  0  0  0
 39 64  1  0  0  0
 39 67  2  0  0  0
 40 52  1  0  0  0
 40 53  2  0  0  0
 40 58  1  0  0  0
 41107  1  0  0  0
 41108  1  0  0  0
 41109  1  0  0  0
 41 48  1  0  0  0
 42 43  1  0  0  0
 42 66  1  0  0  0
 42110  1  0  0  0
 42111  1  0  0  0
 43 44  1  0  0  0
 44112  1  0  0  0
 45 46  2  0  0  0
 45113  1  0  0  0
 46114  1  0  0  0
 47115  1  0  0  0
 47116  1  0  0  0
 48 56  1  0  0  0
 48 65  1  0  0  0
 48117  1  0  0  0
 49 50  1  0  0  0
 49 53  1  0  0  0
 49 64  1  0  0  0
 49118  1  0  0  0
 50 51  1  0  0  0
 50119  1  0  0  0
 50120  1  0  0  0
 51 52  1  0  0  0
 51121  1  0  0  0
 51122  1  0  0  0
 52123  1  0  0  0
 52124  1  0  0  0
 53 54  1  0  0  0
 54 55  2  0  0  0
 54125  1  0  0  0
 55 57  1  0  0  0
 55126  1  0  0  0
 56 69  2  0  0  0
 57 58  2  0  0  0
 57127  1  0  0  0
 58128  1  0  0  0
 59 60  1  0  0  0
 59 61  1  0  0  0
 59 62  1  0  0  0
 60129  1  0  0  0
 60130  1  0  0  0
 60131  1  0  0  0
 61132  1  0  0  0
 61133  1  0  0  0
 61134  1  0  0  0
 62135  1  0  0  0
 62136  1  0  0  0
 62137  1  0  0  0
 63 65  1  0  0  0
 63138  1  0  0  0
 63139  1  0  0  0
 63140  1  0  0  0
 64141  1  0  0  0
 65142  1  0  0  0
 68 80  1  0  0  0
 71 81  2  0  0  0
 71 82  1  0  0  0
 71143  1  0  0  0
 72 73  2  0  0  0
 72 75  1  0  0  0
 72 81  1  0  0  0
 73 76  1  0  0  0
 73 82  1  0  0  0
 74 77  1  0  0  0
 74144  1  0  0  0
 74145  1  0  0  0
 74146  1  0  0  0
 75 78  1  0  0  0
 75147  1  0  0  0
 75148  1  0  0  0
 76 77  1  0  0  0
 76149  1  0  0  0
 76150  1  0  0  0
 77151  1  0  0  0
 77152  1  0  0  0
 78 79  1  0  0  0
 78153  1  0  0  0
 78154  1  0  0  0
 79 83  1  0  0  0
 79155  1  0  0  0
 79156  1  0  0  0
 80 82  1  0  0  0
 80157  1  0  0  0
 80158  1  0  0  0
 83159  1  0  0  0
M  ISO  4   1 100  68 101  80 101  83 100
M  END
> <chiral flag>
0

> <version>
0

> <s_m_source_file>
/data/baiqing/PycharmProjects/Reinvent-master-3.2/result/LINK_invent/BTK/process_docking_weight1_custom_sum_contain_oxygen_bond_distance_aromatic_linkinvent_7_9_3/rearranged_h_0043.sdf

> <i_m_source_file_index>
5

> <r_mmod_Potential_Energy-OPLS-2005>
177.200805664062

> <r_mmod_Stretch_Energy-OPLS-2005>
134.659896850586

> <r_mmod_Bend_Energy-OPLS-2005>
209.241714477539

> <r_mmod_Torsional_Energy-OPLS-2005>
202.501373291016

> <r_mmod_Improper_Torsional_Energy-OPLS-2005>
4.35894393920898

> <r_mmod_Van_der_Waal_Energy-OPLS-2005>
116.720909118652

> <r_mmod_Electrostatic_Energy-OPLS-2005>
-362.196350097656

> <r_mmod_Solvation_Energy-OPLS-2005>
-225.885314941406

> <b_mmod_Minimization_Converged-OPLS-2005>
0

> <r_mmod_RMS_Derivative-OPLS-2005>
2.15763688087463

$$$$
5
                    3D
 Structure written by MMmdl.
156164  0  0  1  0            999 V2000
  -30.5947  -14.7214   20.4705 C   0  0  0  0  0  0
  -30.4391  -12.4437   19.4629 C   0  0  0  0  0  0
  -29.5134  -12.5081   18.2290 C   0  0  0  0  0  0
  -28.0350  -12.3396   18.6338 C   0  0  0  0  0  0
  -27.6415  -13.2264   19.8458 C   0  0  2  0  0  0
  -28.6846  -13.1351   20.9792 C   0  0  0  0  0  0
  -25.2513  -13.8181   20.5669 C   0  0  0  0  0  0
  -24.1809  -13.0423   20.9183 C   0  0  0  0  0  0
  -24.6394  -11.6901   20.8711 C   0  0  0  0  0  0
  -23.9064  -10.4278   21.0372 C   0  0  0  0  0  0
  -24.3626   -9.4202   21.9153 C   0  0  0  0  0  0
  -23.6312   -8.2235   22.0727 C   0  0  0  0  0  0
  -22.4287   -8.0261   21.3533 C   0  0  0  0  0  0
  -21.9918   -9.0225   20.4627 C   0  0  0  0  0  0
  -22.7232  -10.2106   20.3023 C   0  0  0  0  0  0
  -21.6875   -6.0715   22.5273 C   0  0  0  0  0  0
  -21.4029   -6.5628   23.8197 C   0  0  0  0  0  0
  -21.3663   -5.6781   24.9168 C   0  0  0  0  0  0
  -21.6056   -4.3040   24.7230 C   0  0  0  0  0  0
  -21.8828   -3.8127   23.4354 C   0  0  0  0  0  0
  -21.9210   -4.6945   22.3403 C   0  0  0  0  0  0
  -22.7825  -13.5188   21.1860 C   0  0  0  0  0  0
  -22.1667   -4.2129   21.0980 F   0  0  0  0  0  0
  -21.5631   -3.4527   25.7746 F   0  0  0  0  0  0
  -29.9879  -13.4886   20.4060 N   0  0  0  0  0  0
  -26.2925  -12.9375   20.3223 N   0  0  0  0  0  0
  -25.9317  -11.6525   20.5708 N   0  0  0  0  0  0
  -22.0509  -12.8164   22.0441 N   0  0  0  0  0  0
  -25.4206  -15.1917   20.4120 N   0  0  0  0  0  0
  -31.7839  -14.8481   20.1704 O   0  0  0  0  0  0
  -21.6663   -6.8851   21.4224 O   0  0  0  0  0  0
  -22.3482  -14.5465   20.6682 O   0  0  0  0  0  0
  -24.6299  -31.8512   23.1937 C   0  0  0  0  0  0
  -25.9127  -32.4723   23.8273 C   0  0  1  0  0  0
  -27.2292  -27.2761   20.0990 C   0  0  0  0  0  0
  -25.5937  -33.8534   24.2206 N   0  0  0  0  0  0
  -23.4263  -30.4728   21.5375 C   0  0  2  0  0  0
  -24.8720  -28.9164   20.1052 C   0  0  0  0  0  0
  -22.7494  -29.4568   22.4893 C   0  0  0  0  0  0
  -18.0294  -28.1368   22.8474 C   0  0  0  0  0  0
  -24.1518  -36.7279   23.2643 C   0  0  0  0  0  0
  -25.9724  -30.7622   21.3773 C   0  0  0  0  0  0
  -26.0414  -29.3884   20.7131 C   0  0  0  0  0  0
  -27.2175  -28.5779   20.6998 C   0  0  0  0  0  0
  -26.0300  -26.8550   19.4821 C   0  0  0  0  0  0
  -24.8698  -27.6567   19.4838 C   0  0  0  0  0  0
  -23.6434  -29.8042   20.1542 C   0  0  0  0  0  0
  -25.4145  -36.3055   24.0316 C   0  0  1  0  0  0
  -20.5898  -28.3675   23.1263 C   0  0  2  0  0  0
  -20.6787  -26.9391   22.5401 C   0  0  0  0  0  0
  -19.5770  -26.6359   21.5202 C   0  0  0  0  0  0
  -18.1941  -26.7911   22.1600 C   0  0  0  0  0  0
  -19.1544  -28.8838   23.2864 C   0  0  0  0  0  0
  -18.9466  -30.1450   23.8872 C   0  0  0  0  0  0
  -17.6463  -30.6568   24.0560 C   0  0  0  0  0  0
  -25.9067  -34.9423   23.5062 C   0  0  0  0  0  0
  -16.5353  -29.9056   23.6336 C   0  0  0  0  0  0
  -16.7276  -28.6481   23.0341 C   0  0  0  0  0  0
  -26.4499  -31.6559   25.0668 C   0  0  0  0  0  0
  -25.3721  -31.3681   26.1381 C   0  0  0  0  0  0
  -27.0372  -30.2989   24.6168 C   0  0  0  0  0  0
  -27.6047  -32.4326   25.7418 C   0  0  0  0  0  0
  -27.5601  -37.1795   24.8454 C   0  0  0  0  0  0
  -21.4200  -29.3017   22.3646 N   0  0  0  0  0  0
  -26.4320  -37.3754   23.9381 N   0  0  0  0  0  0
  -24.6940  -31.0484   22.0906 N   0  0  0  0  0  0
  -23.4197  -28.8103   23.2980 O   0  0  0  0  0  0
  -28.3618  -26.4404   20.1722 O   0  0  0  0  0  0
  -26.5650  -34.8902   22.4639 O   0  0  0  0  0  0
  -23.5452  -32.1329   23.7239 O   0  0  0  0  0  0
  -30.6007  -22.8538   18.9096 C   0  0  0  0  0  0
  -29.5431  -22.5550   19.7350 C   0  0  0  0  0  0
  -29.7172  -21.0862   19.9238 C   0  0  0  0  0  0
  -32.6251  -21.6057   18.0190 C   0  0  0  0  0  0
  -28.5879  -23.7009   20.2893 C   0  0  0  0  0  0
  -29.0389  -19.9493   20.7569 C   0  0  0  0  0  0
  -29.0514  -18.4007   20.2538 C   0  0  0  0  0  0
  -30.1363  -17.3121   20.7472 C   0  0  0  0  0  0
  -28.5010  -25.1160   19.4918 C   0  0  0  0  0  0
  -30.8268  -20.6666   19.3263 N   0  0  0  0  0  0
  -31.3614  -21.7320   18.7153 N   0  0  0  0  0  0
  -29.7873  -15.8260   20.6760 N   0  0  0  0  0  0
  -31.4744  -12.5944   19.1531 H   0  0  0  0  0  0
  -30.4028  -11.4578   19.9310 H   0  0  0  0  0  0
  -29.7936  -11.7428   17.5044 H   0  0  0  0  0  0
  -29.6462  -13.4672   17.7259 H   0  0  0  0  0  0
  -27.8772  -11.2873   18.8741 H   0  0  0  0  0  0
  -27.3884  -12.5519   17.7807 H   0  0  0  0  0  0
  -27.6378  -14.2529   19.4786 H   0  0  0  0  0  0
  -28.7138  -12.1267   21.3951 H   0  0  0  0  0  0
  -28.4181  -13.7979   21.8037 H   0  0  0  0  0  0
  -25.2787   -9.5690   22.4707 H   0  0  0  0  0  0
  -24.0043   -7.4629   22.7434 H   0  0  0  0  0  0
  -21.0850   -8.8714   19.8943 H   0  0  0  0  0  0
  -22.3666  -10.9628   19.6116 H   0  0  0  0  0  0
  -21.2001   -7.6133   23.9692 H   0  0  0  0  0  0
  -21.1490   -6.0516   25.9068 H   0  0  0  0  0  0
  -22.0609   -2.7591   23.2870 H   0  0  0  0  0  0
  -22.4193  -11.9871   22.4855 H   0  0  0  0  0  0
  -21.1081  -13.1077   22.2575 H   0  0  0  0  0  0
  -24.6525  -15.8447   20.5283 H   0  0  0  0  0  0
  -26.2638  -15.6380   20.0766 H   0  0  0  0  0  0
  -26.7173  -32.5354   23.0985 H   0  0  0  0  0  0
  -25.0096  -33.9653   25.0363 H   0  0  0  0  0  0
  -22.7236  -31.2949   21.3885 H   0  0  0  0  0  0
  -23.3779  -35.9612   23.3288 H   0  0  0  0  0  0
  -24.3603  -36.8922   22.2057 H   0  0  0  0  0  0
  -23.7269  -37.6474   23.6682 H   0  0  0  0  0  0
  -26.1312  -31.5253   20.6137 H   0  0  0  0  0  0
  -26.8434  -30.7934   22.0204 H   0  0  0  0  0  0
  -28.1168  -28.9350   21.1805 H   0  0  0  0  0  0
  -25.9493  -25.8876   19.0126 H   0  0  0  0  0  0
  -23.9694  -27.2838   19.0129 H   0  0  0  0  0  0
  -23.7715  -30.5779   19.3959 H   0  0  0  0  0  0
  -22.7620  -29.2373   19.8489 H   0  0  0  0  0  0
  -25.1343  -36.1900   25.0812 H   0  0  0  0  0  0
  -21.0006  -28.3251   24.1378 H   0  0  0  0  0  0
  -20.5681  -26.2275   23.3592 H   0  0  0  0  0  0
  -21.6651  -26.7400   22.1199 H   0  0  0  0  0  0
  -19.6924  -25.6265   21.1233 H   0  0  0  0  0  0
  -19.6727  -27.3174   20.6735 H   0  0  0  0  0  0
  -17.4223  -26.6678   21.3988 H   0  0  0  0  0  0
  -18.0329  -26.0040   22.8981 H   0  0  0  0  0  0
  -19.7939  -30.7291   24.2207 H   0  0  0  0  0  0
  -17.5001  -31.6244   24.5170 H   0  0  0  0  0  0
  -15.5352  -30.2948   23.7651 H   0  0  0  0  0  0
  -15.8679  -28.0791   22.7047 H   0  0  0  0  0  0
  -24.5877  -30.7079   25.7655 H   0  0  0  0  0  0
  -24.8940  -32.2839   26.4861 H   0  0  0  0  0  0
  -25.8026  -30.8766   27.0113 H   0  0  0  0  0  0
  -26.2942  -29.6682   24.1277 H   0  0  0  0  0  0
  -27.4151  -29.7308   25.4670 H   0  0  0  0  0  0
  -27.8774  -30.4254   23.9341 H   0  0  0  0  0  0
  -27.2637  -33.3605   26.2012 H   0  0  0  0  0  0
  -28.3817  -32.6938   25.0222 H   0  0  0  0  0  0
  -28.0770  -31.8464   26.5300 H   0  0  0  0  0  0
  -28.2610  -38.0112   24.7539 H   0  0  0  0  0  0
  -28.1128  -36.2641   24.6264 H   0  0  0  0  0  0
  -27.2313  -37.1412   25.8861 H   0  0  0  0  0  0
  -20.9374  -29.8753   21.6877 H   0  0  0  0  0  0
  -26.0202  -38.2834   24.1382 H   0  0  0  0  0  0
  -30.9291  -23.7889   18.4778 H   0  0  0  0  0  0
  -32.7106  -22.3803   17.2559 H   0  0  0  0  0  0
  -32.7056  -20.6284   17.5429 H   0  0  0  0  0  0
  -33.4438  -21.7246   18.7306 H   0  0  0  0  0  0
  -28.9024  -23.9399   21.3052 H   0  0  0  0  0  0
  -27.5719  -23.3203   20.4002 H   0  0  0  0  0  0
  -27.9865  -20.2284   20.8372 H   0  0  0  0  0  0
  -29.3990  -19.9903   21.7845 H   0  0  0  0  0  0
  -28.9699  -18.3787   19.1666 H   0  0  0  0  0  0
  -28.0986  -17.9975   20.5957 H   0  0  0  0  0  0
  -30.3559  -17.5179   21.7941 H   0  0  0  0  0  0
  -31.0713  -17.4882   20.2133 H   0  0  0  0  0  0
  -27.8304  -25.0101   18.6401 H   0  0  0  0  0  0
  -29.4633  -25.2613   19.0091 H   0  0  0  0  0  0
  -28.8204  -15.6015   20.8516 H   0  0  0  0  0  0
  1 25  1  0  0  0
  1 30  2  0  0  0
  1 82  1  0  0  0
  2  3  1  0  0  0
  2 25  1  0  0  0
  2 83  1  0  0  0
  2 84  1  0  0  0
  3  4  1  0  0  0
  3 85  1  0  0  0
  3 86  1  0  0  0
  4  5  1  0  0  0
  4 87  1  0  0  0
  4 88  1  0  0  0
  5  6  1  0  0  0
  5 26  1  0  0  0
  5 89  1  0  0  0
  6 25  1  0  0  0
  6 90  1  0  0  0
  6 91  1  0  0  0
  7  8  2  0  0  0
  7 26  1  0  0  0
  7 29  1  0  0  0
  8  9  1  0  0  0
  8 22  1  0  0  0
  9 10  1  0  0  0
  9 27  2  0  0  0
 10 11  2  0  0  0
 10 15  1  0  0  0
 11 12  1  0  0  0
 11 92  1  0  0  0
 12 13  2  0  0  0
 12 93  1  0  0  0
 13 14  1  0  0  0
 13 31  1  0  0  0
 14 15  2  0  0  0
 14 94  1  0  0  0
 15 95  1  0  0  0
 16 17  2  0  0  0
 16 21  1  0  0  0
 16 31  1  0  0  0
 17 18  1  0  0  0
 17 96  1  0  0  0
 18 19  2  0  0  0
 18 97  1  0  0  0
 19 20  1  0  0  0
 19 24  1  0  0  0
 20 21  2  0  0  0
 20 98  1  0  0  0
 21 23  1  0  0  0
 22 28  1  0  0  0
 22 32  2  0  0  0
 26 27  1  0  0  0
 28 99  1  0  0  0
 28100  1  0  0  0
 29101  1  0  0  0
 29102  1  0  0  0
 33 34  1  0  0  0
 33 66  1  0  0  0
 33 70  2  0  0  0
 34 36  1  0  0  0
 34 59  1  0  0  0
 34103  1  0  0  0
 35 44  2  0  0  0
 35 45  1  0  0  0
 35 68  1  0  0  0
 36 56  1  0  0  0
 36104  1  0  0  0
 37 39  1  0  0  0
 37 47  1  0  0  0
 37 66  1  0  0  0
 37105  1  0  0  0
 38 43  2  0  0  0
 38 46  1  0  0  0
 38 47  1  0  0  0
 39 64  1  0  0  0
 39 67  2  0  0  0
 40 52  1  0  0  0
 40 53  2  0  0  0
 40 58  1  0  0  0
 41106  1  0  0  0
 41107  1  0  0  0
 41108  1  0  0  0
 41 48  1  0  0  0
 42 43  1  0  0  0
 42 66  1  0  0  0
 42109  1  0  0  0
 42110  1  0  0  0
 43 44  1  0  0  0
 44111  1  0  0  0
 45 46  2  0  0  0
 45112  1  0  0  0
 46113  1  0  0  0
 47114  1  0  0  0
 47115  1  0  0  0
 48 56  1  0  0  0
 48 65  1  0  0  0
 48116  1  0  0  0
 49 50  1  0  0  0
 49 53  1  0  0  0
 49 64  1  0  0  0
 49117  1  0  0  0
 50 51  1  0  0  0
 50118  1  0  0  0
 50119  1  0  0  0
 51 52  1  0  0  0
 51120  1  0  0  0
 51121  1  0  0  0
 52122  1  0  0  0
 52123  1  0  0  0
 53 54  1  0  0  0
 54 55  2  0  0  0
 54124  1  0  0  0
 55 57  1  0  0  0
 55125  1  0  0  0
 56 69  2  0  0  0
 57 58  2  0  0  0
 57126  1  0  0  0
 58127  1  0  0  0
 59 60  1  0  0  0
 59 61  1  0  0  0
 59 62  1  0  0  0
 60128  1  0  0  0
 60129  1  0  0  0
 60130  1  0  0  0
 61131  1  0  0  0
 61132  1  0  0  0
 61133  1  0  0  0
 62134  1  0  0  0
 62135  1  0  0  0
 62136  1  0  0  0
 63 65  1  0  0  0
 63137  1  0  0  0
 63138  1  0  0  0
 63139  1  0  0  0
 64140  1  0  0  0
 65141  1  0  0  0
 68 79  1  0  0  0
 71 72  2  0  0  0
 71 81  1  0  0  0
 71142  1  0  0  0
 72 73  1  0  0  0
 72 75  1  0  0  0
 73 76  1  0  0  0
 73 80  2  0  0  0
 74 81  1  0  0  0
 74143  1  0  0  0
 74144  1  0  0  0
 74145  1  0  0  0
 75 79  1  0  0  0
 75146  1  0  0  0
 75147  1  0  0  0
 76 77  1  0  0  0
 76148  1  0  0  0
 76149  1  0  0  0
 77 78  1  0  0  0
 77150  1  0  0  0
 77151  1  0  0  0
 78 82  1  0  0  0
 78152  1  0  0  0
 78153  1  0  0  0
 79154  1  0  0  0
 79155  1  0  0  0
 80 81  1  0  0  0
 82156  1  0  0  0
M  ISO  4   1 100  68 101  79 101  82 100
M  END
> <chiral flag>
0

> <version>
0

> <s_m_source_file>
/data/baiqing/PycharmProjects/Reinvent-master-3.2/result/LINK_invent/BTK/process_docking_weight1_custom_sum_contain_oxygen_bond_distance_aromatic_linkinvent_7_9_3/rearranged_h_0043.sdf

> <i_m_source_file_index>
6

> <r_mmod_Potential_Energy-OPLS-2005>
94.9153137207031

> <r_mmod_Stretch_Energy-OPLS-2005>
119.356437683105

> <r_mmod_Bend_Energy-OPLS-2005>
192.143447875977

> <r_mmod_Torsional_Energy-OPLS-2005>
214.02864074707

> <r_mmod_Improper_Torsional_Energy-OPLS-2005>
5.32690811157227

> <r_mmod_Van_der_Waal_Energy-OPLS-2005>
116.63981628418

> <r_mmod_Electrostatic_Energy-OPLS-2005>
-396.533233642578

> <r_mmod_Solvation_Energy-OPLS-2005>
-230.569290161133

> <b_mmod_Minimization_Converged-OPLS-2005>
0

> <r_mmod_RMS_Derivative-OPLS-2005>
2.78286576271057

$$$$
6
                    3D
 Structure written by MMmdl.
157165  0  0  1  0            999 V2000
  -30.6794  -14.5444   20.5449 C   0  0  0  0  0  0
  -30.4267  -12.3472   19.4315 C   0  0  0  0  0  0
  -29.4959  -12.4994   18.2106 C   0  0  0  0  0  0
  -28.0194  -12.3502   18.6269 C   0  0  0  0  0  0
  -27.6553  -13.2119   19.8654 C   0  0  2  0  0  0
  -28.6999  -13.0400   20.9904 C   0  0  0  0  0  0
  -25.2577  -13.8174   20.5692 C   0  0  0  0  0  0
  -24.1835  -13.0442   20.9190 C   0  0  0  0  0  0
  -24.6401  -11.6911   20.8751 C   0  0  0  0  0  0
  -23.9070  -10.4296   21.0414 C   0  0  0  0  0  0
  -24.3620   -9.4210   21.9188 C   0  0  0  0  0  0
  -23.6296   -8.2245   22.0758 C   0  0  0  0  0  0
  -22.4276   -8.0288   21.3549 C   0  0  0  0  0  0
  -21.9916   -9.0260   20.4646 C   0  0  0  0  0  0
  -22.7248  -10.2139   20.3057 C   0  0  0  0  0  0
  -21.6853   -6.0745   22.5281 C   0  0  0  0  0  0
  -21.4013   -6.5646   23.8217 C   0  0  0  0  0  0
  -21.3654   -5.6796   24.9178 C   0  0  0  0  0  0
  -21.6044   -4.3059   24.7225 C   0  0  0  0  0  0
  -21.8818   -3.8153   23.4347 C   0  0  0  0  0  0
  -21.9192   -4.6972   22.3405 C   0  0  0  0  0  0
  -22.7855  -13.5236   21.1852 C   0  0  0  0  0  0
  -22.1662   -4.2161   21.0980 F   0  0  0  0  0  0
  -21.5622   -3.4539   25.7735 F   0  0  0  0  0  0
  -30.0197  -13.3569   20.4236 N   0  0  0  0  0  0
  -26.3002  -12.9346   20.3343 N   0  0  0  0  0  0
  -25.9326  -11.6505   20.5769 N   0  0  0  0  0  0
  -22.0495  -12.8222   22.0401 N   0  0  0  0  0  0
  -25.4301  -15.1897   20.4108 N   0  0  0  0  0  0
  -31.8327  -14.7009   20.1368 O   0  0  0  0  0  0
  -21.6637   -6.8891   21.4244 O   0  0  0  0  0  0
  -22.3546  -14.5549   20.6708 O   0  0  0  0  0  0
  -24.6194  -31.8645   23.2067 C   0  0  0  0  0  0
  -25.9070  -32.4811   23.8383 C   0  0  1  0  0  0
  -27.2281  -27.3872   20.1107 C   0  0  0  0  0  0
  -25.5912  -33.8604   24.2319 N   0  0  0  0  0  0
  -23.4101  -30.4868   21.5483 C   0  0  2  0  0  0
  -24.8568  -28.9459   20.1138 C   0  0  0  0  0  0
  -22.7443  -29.4635   22.4973 C   0  0  0  0  0  0
  -18.0277  -28.1363   22.8485 C   0  0  0  0  0  0
  -24.1488  -36.7300   23.2640 C   0  0  0  0  0  0
  -25.9421  -30.8161   21.3672 C   0  0  0  0  0  0
  -26.0206  -29.4467   20.7139 C   0  0  0  0  0  0
  -27.2119  -28.6770   20.7034 C   0  0  0  0  0  0
  -26.0490  -26.9143   19.4966 C   0  0  0  0  0  0
  -24.8692  -27.6819   19.4987 C   0  0  0  0  0  0
  -23.6221  -29.8190   20.1624 C   0  0  0  0  0  0
  -25.4110  -36.3102   24.0332 C   0  0  1  0  0  0
  -20.5871  -28.3667   23.1297 C   0  0  2  0  0  0
  -20.6770  -26.9399   22.5408 C   0  0  0  0  0  0
  -19.5752  -26.6377   21.5195 C   0  0  0  0  0  0
  -18.1932  -26.7913   22.1606 C   0  0  0  0  0  0
  -19.1526  -28.8829   23.2891 C   0  0  0  0  0  0
  -18.9461  -30.1437   23.8900 C   0  0  0  0  0  0
  -17.6462  -30.6579   24.0559 C   0  0  0  0  0  0
  -25.9030  -34.9467   23.5120 C   0  0  0  0  0  0
  -16.5353  -29.9078   23.6328 C   0  0  0  0  0  0
  -16.7265  -28.6489   23.0348 C   0  0  0  0  0  0
  -26.4493  -31.6592   25.0719 C   0  0  0  0  0  0
  -25.3761  -31.3682   26.1471 C   0  0  0  0  0  0
  -27.0337  -30.3043   24.6090 C   0  0  0  0  0  0
  -27.6072  -32.4317   25.7481 C   0  0  0  0  0  0
  -27.5586  -37.1807   24.8467 C   0  0  0  0  0  0
  -21.4164  -29.3026   22.3703 N   0  0  0  0  0  0
  -26.4302  -37.3783   23.9403 N   0  0  0  0  0  0
  -24.6759  -31.0710   22.0987 N   0  0  0  0  0  0
  -23.4204  -28.8191   23.3033 O   0  0  0  0  0  0
  -28.3688  -26.5987   20.1087 O   0  0  0  0  0  0
  -26.5595  -34.8931   22.4688 O   0  0  0  0  0  0
  -23.5368  -32.1411   23.7434 O   0  0  0  0  0  0
  -28.9920  -21.1169   22.0807 C   0  0  0  0  0  0
  -28.9529  -20.4572   20.8757 C   0  0  0  0  0  0
  -28.8949  -22.7033   20.5112 C   0  0  0  0  0  0
  -28.9510  -21.3122   18.4681 C   0  0  0  0  0  0
  -28.8360  -18.9516   20.6054 C   0  0  0  0  0  0
  -28.8442  -24.0887   19.8475 C   0  0  0  0  0  0
  -30.1583  -18.1406   20.3910 C   0  0  0  0  0  0
  -30.4564  -16.9469   21.3698 C   0  0  0  0  0  0
  -28.2422  -25.2672   20.6879 C   0  0  0  0  0  0
  -28.9435  -21.4772   19.9259 N   0  0  0  0  0  0
  -28.9610  -22.4641   21.8256 N   0  3  0  0  0  0
  -29.9547  -15.5934   21.0098 N   0  0  0  0  0  0
  -31.4694  -12.4562   19.1278 H   0  0  0  0  0  0
  -30.3433  -11.3461   19.8574 H   0  0  0  0  0  0
  -29.7465  -11.7579   17.4510 H   0  0  0  0  0  0
  -29.6500  -13.4757   17.7479 H   0  0  0  0  0  0
  -27.8448  -11.2961   18.8467 H   0  0  0  0  0  0
  -27.3645  -12.5969   17.7914 H   0  0  0  0  0  0
  -27.6854  -14.2519   19.5398 H   0  0  0  0  0  0
  -28.6953  -12.0160   21.3665 H   0  0  0  0  0  0
  -28.4581  -13.6695   21.8476 H   0  0  0  0  0  0
  -25.2768   -9.5682   22.4763 H   0  0  0  0  0  0
  -24.0005   -7.4637   22.7479 H   0  0  0  0  0  0
  -21.0850   -8.8784   19.8950 H   0  0  0  0  0  0
  -22.3716  -10.9679   19.6166 H   0  0  0  0  0  0
  -21.2009   -7.6154   23.9728 H   0  0  0  0  0  0
  -21.1472   -6.0522   25.9084 H   0  0  0  0  0  0
  -22.0603   -2.7616   23.2841 H   0  0  0  0  0  0
  -22.4098  -11.9868   22.4757 H   0  0  0  0  0  0
  -21.1118  -13.1250   22.2613 H   0  0  0  0  0  0
  -24.6644  -15.8458   20.5221 H   0  0  0  0  0  0
  -26.2818  -15.6276   20.0816 H   0  0  0  0  0  0
  -26.7143  -32.5510   23.1139 H   0  0  0  0  0  0
  -25.0107  -33.9757   25.0501 H   0  0  0  0  0  0
  -22.6996  -31.3040   21.4070 H   0  0  0  0  0  0
  -23.3752  -35.9636   23.3309 H   0  0  0  0  0  0
  -24.3587  -36.8911   22.2056 H   0  0  0  0  0  0
  -23.7239  -37.6506   23.6653 H   0  0  0  0  0  0
  -26.0595  -31.5815   20.6001 H   0  0  0  0  0  0
  -26.8271  -30.8694   21.9894 H   0  0  0  0  0  0
  -28.1102  -29.0553   21.1719 H   0  0  0  0  0  0
  -26.0408  -25.9458   19.0156 H   0  0  0  0  0  0
  -23.9775  -27.2943   19.0251 H   0  0  0  0  0  0
  -23.7384  -30.5949   19.4042 H   0  0  0  0  0  0
  -22.7445  -29.2429   19.8635 H   0  0  0  0  0  0
  -25.1292  -36.1971   25.0823 H   0  0  0  0  0  0
  -20.9949  -28.3236   24.1420 H   0  0  0  0  0  0
  -20.5655  -26.2274   23.3600 H   0  0  0  0  0  0
  -21.6648  -26.7436   22.1209 H   0  0  0  0  0  0
  -19.6918  -25.6285   21.1226 H   0  0  0  0  0  0
  -19.6696  -27.3188   20.6723 H   0  0  0  0  0  0
  -17.4199  -26.6662   21.4005 H   0  0  0  0  0  0
  -18.0339  -26.0045   22.8986 H   0  0  0  0  0  0
  -19.7942  -30.7246   24.2276 H   0  0  0  0  0  0
  -17.5021  -31.6260   24.5166 H   0  0  0  0  0  0
  -15.5350  -30.2982   23.7642 H   0  0  0  0  0  0
  -15.8665  -28.0812   22.7053 H   0  0  0  0  0  0
  -24.5959  -30.6992   25.7816 H   0  0  0  0  0  0
  -24.8912  -32.2813   26.4927 H   0  0  0  0  0  0
  -25.8127  -30.8871   27.0227 H   0  0  0  0  0  0
  -26.2867  -29.6781   24.1189 H   0  0  0  0  0  0
  -27.4171  -29.7311   25.4542 H   0  0  0  0  0  0
  -27.8679  -30.4380   23.9199 H   0  0  0  0  0  0
  -27.2707  -33.3625   26.2061 H   0  0  0  0  0  0
  -28.3879  -32.6854   25.0294 H   0  0  0  0  0  0
  -28.0738  -31.8428   26.5390 H   0  0  0  0  0  0
  -28.2608  -38.0106   24.7524 H   0  0  0  0  0  0
  -28.1079  -36.2635   24.6283 H   0  0  0  0  0  0
  -27.2300  -37.1444   25.8871 H   0  0  0  0  0  0
  -20.9331  -29.8774   21.6950 H   0  0  0  0  0  0
  -26.0192  -38.2860   24.1413 H   0  0  0  0  0  0
  -29.0069  -20.7318   23.0912 H   0  0  0  0  0  0
  -29.2965  -20.3117   18.2087 H   0  0  0  0  0  0
  -29.6274  -22.0403   18.0197 H   0  0  0  0  0  0
  -27.9424  -21.4590   18.0838 H   0  0  0  0  0  0
  -28.1905  -18.8105   19.7379 H   0  0  0  0  0  0
  -28.2790  -18.5110   21.4331 H   0  0  0  0  0  0
  -28.2737  -23.9767   18.9249 H   0  0  0  0  0  0
  -29.8702  -24.3212   19.5635 H   0  0  0  0  0  0
  -30.9900  -18.8417   20.4725 H   0  0  0  0  0  0
  -30.2035  -17.7850   19.3609 H   0  0  0  0  0  0
  -30.0815  -17.1924   22.3639 H   0  0  0  0  0  0
  -31.5391  -16.8811   21.4964 H   0  0  0  0  0  0
  -28.7639  -25.3127   21.6445 H   0  0  0  0  0  0
  -27.2074  -25.0298   20.9399 H   0  0  0  0  0  0
  -28.9778  -23.1747   22.5465 H   0  0  0  0  0  0
  -28.9995  -15.3839   21.2593 H   0  0  0  0  0  0
  1 25  1  0  0  0
  1 30  2  0  0  0
  1 82  1  0  0  0
  2  3  1  0  0  0
  2 25  1  0  0  0
  2 83  1  0  0  0
  2 84  1  0  0  0
  3  4  1  0  0  0
  3 85  1  0  0  0
  3 86  1  0  0  0
  4  5  1  0  0  0
  4 87  1  0  0  0
  4 88  1  0  0  0
  5  6  1  0  0  0
  5 26  1  0  0  0
  5 89  1  0  0  0
  6 25  1  0  0  0
  6 90  1  0  0  0
  6 91  1  0  0  0
  7  8  2  0  0  0
  7 26  1  0  0  0
  7 29  1  0  0  0
  8  9  1  0  0  0
  8 22  1  0  0  0
  9 10  1  0  0  0
  9 27  2  0  0  0
 10 11  2  0  0  0
 10 15  1  0  0  0
 11 12  1  0  0  0
 11 92  1  0  0  0
 12 13  2  0  0  0
 12 93  1  0  0  0
 13 14  1  0  0  0
 13 31  1  0  0  0
 14 15  2  0  0  0
 14 94  1  0  0  0
 15 95  1  0  0  0
 16 17  2  0  0  0
 16 21  1  0  0  0
 16 31  1  0  0  0
 17 18  1  0  0  0
 17 96  1  0  0  0
 18 19  2  0  0  0
 18 97  1  0  0  0
 19 20  1  0  0  0
 19 24  1  0  0  0
 20 21  2  0  0  0
 20 98  1  0  0  0
 21 23  1  0  0  0
 22 28  1  0  0  0
 22 32  2  0  0  0
 26 27  1  0  0  0
 28 99  1  0  0  0
 28100  1  0  0  0
 29101  1  0  0  0
 29102  1  0  0  0
 33 34  1  0  0  0
 33 66  1  0  0  0
 33 70  2  0  0  0
 34 36  1  0  0  0
 34 59  1  0  0  0
 34103  1  0  0  0
 35 44  2  0  0  0
 35 45  1  0  0  0
 35 68  1  0  0  0
 36 56  1  0  0  0
 36104  1  0  0  0
 37 39  1  0  0  0
 37 47  1  0  0  0
 37 66  1  0  0  0
 37105  1  0  0  0
 38 43  2  0  0  0
 38 46  1  0  0  0
 38 47  1  0  0  0
 39 64  1  0  0  0
 39 67  2  0  0  0
 40 52  1  0  0  0
 40 53  2  0  0  0
 40 58  1  0  0  0
 41106  1  0  0  0
 41107  1  0  0  0
 41108  1  0  0  0
 41 48  1  0  0  0
 42 43  1  0  0  0
 42 66  1  0  0  0
 42109  1  0  0  0
 42110  1  0  0  0
 43 44  1  0  0  0
 44111  1  0  0  0
 45 46  2  0  0  0
 45112  1  0  0  0
 46113  1  0  0  0
 47114  1  0  0  0
 47115  1  0  0  0
 48 56  1  0  0  0
 48 65  1  0  0  0
 48116  1  0  0  0
 49 50  1  0  0  0
 49 53  1  0  0  0
 49 64  1  0  0  0
 49117  1  0  0  0
 50 51  1  0  0  0
 50118  1  0  0  0
 50119  1  0  0  0
 51 52  1  0  0  0
 51120  1  0  0  0
 51121  1  0  0  0
 52122  1  0  0  0
 52123  1  0  0  0
 53 54  1  0  0  0
 54 55  2  0  0  0
 54124  1  0  0  0
 55 57  1  0  0  0
 55125  1  0  0  0
 56 69  2  0  0  0
 57 58  2  0  0  0
 57126  1  0  0  0
 58127  1  0  0  0
 59 60  1  0  0  0
 59 61  1  0  0  0
 59 62  1  0  0  0
 60128  1  0  0  0
 60129  1  0  0  0
 60130  1  0  0  0
 61131  1  0  0  0
 61132  1  0  0  0
 61133  1  0  0  0
 62134  1  0  0  0
 62135  1  0  0  0
 62136  1  0  0  0
 63 65  1  0  0  0
 63137  1  0  0  0
 63138  1  0  0  0
 63139  1  0  0  0
 64140  1  0  0  0
 65141  1  0  0  0
 68 79  1  0  0  0
 71 72  2  0  0  0
 71 81  1  0  0  0
 71142  1  0  0  0
 72 75  1  0  0  0
 72 80  1  0  0  0
 73 76  1  0  0  0
 73 80  1  0  0  0
 73 81  2  0  0  0
 74 80  1  0  0  0
 74143  1  0  0  0
 74144  1  0  0  0
 74145  1  0  0  0
 75 77  1  0  0  0
 75146  1  0  0  0
 75147  1  0  0  0
 76 79  1  0  0  0
 76148  1  0  0  0
 76149  1  0  0  0
 77 78  1  0  0  0
 77150  1  0  0  0
 77151  1  0  0  0
 78 82  1  0  0  0
 78152  1  0  0  0
 78153  1  0  0  0
 79154  1  0  0  0
 79155  1  0  0  0
 81156  1  0  0  0
 82157  1  0  0  0
M  CHG  1  81   1
M  ISO  4   1 100  68 101  79 101  82 100
M  END
> <chiral flag>
0

> <version>
0

> <s_m_source_file>
/data/baiqing/PycharmProjects/Reinvent-master-3.2/result/LINK_invent/BTK/process_docking_weight1_custom_sum_contain_oxygen_bond_distance_aromatic_linkinvent_7_9_3/rearranged_h_0043.sdf

> <i_m_source_file_index>
7

> <r_mmod_Potential_Energy-OPLS-2005>
-107.193756103516

> <r_mmod_Stretch_Energy-OPLS-2005>
50.8760147094727

> <r_mmod_Bend_Energy-OPLS-2005>
111.31014251709

> <r_mmod_Torsional_Energy-OPLS-2005>
246.532470703125

> <r_mmod_Improper_Torsional_Energy-OPLS-2005>
3.46211576461792

> <r_mmod_Van_der_Waal_Energy-OPLS-2005>
121.71460723877

> <r_mmod_Electrostatic_Energy-OPLS-2005>
-231.090744018555

> <r_mmod_Solvation_Energy-OPLS-2005>
-433.611267089844

> <b_mmod_Minimization_Converged-OPLS-2005>
0

> <r_mmod_RMS_Derivative-OPLS-2005>
1.60971999168396

$$$$
7
                    3D
 Structure written by MMmdl.
160168  0  0  1  0            999 V2000
  -30.6251  -14.7546   20.4779 C   0  0  0  0  0  0
  -30.4396  -12.4675   19.4717 C   0  0  0  0  0  0
  -29.5102  -12.5003   18.2388 C   0  0  0  0  0  0
  -28.0391  -12.3183   18.6603 C   0  0  0  0  0  0
  -27.6431  -13.2311   19.8496 C   0  0  2  0  0  0
  -28.6919  -13.1806   20.9827 C   0  0  0  0  0  0
  -25.2523  -13.8210   20.5693 C   0  0  0  0  0  0
  -24.1808  -13.0449   20.9200 C   0  0  0  0  0  0
  -24.6399  -11.6925   20.8764 C   0  0  0  0  0  0
  -23.9070  -10.4303   21.0424 C   0  0  0  0  0  0
  -24.3609   -9.4207   21.9203 C   0  0  0  0  0  0
  -23.6279   -8.2249   22.0773 C   0  0  0  0  0  0
  -22.4262   -8.0290   21.3565 C   0  0  0  0  0  0
  -21.9907   -9.0259   20.4658 C   0  0  0  0  0  0
  -22.7242  -10.2137   20.3067 C   0  0  0  0  0  0
  -21.6850   -6.0723   22.5284 C   0  0  0  0  0  0
  -21.3992   -6.5631   23.8205 C   0  0  0  0  0  0
  -21.3665   -5.6799   24.9175 C   0  0  0  0  0  0
  -21.6048   -4.3058   24.7245 C   0  0  0  0  0  0
  -21.8811   -3.8131   23.4366 C   0  0  0  0  0  0
  -21.9180   -4.6947   22.3412 C   0  0  0  0  0  0
  -22.7814  -13.5232   21.1877 C   0  0  0  0  0  0
  -22.1651   -4.2117   21.0996 F   0  0  0  0  0  0
  -21.5654   -3.4545   25.7763 F   0  0  0  0  0  0
  -29.9897  -13.5367   20.3925 N   0  0  0  0  0  0
  -26.2947  -12.9411   20.3318 N   0  0  0  0  0  0
  -25.9344  -11.6555   20.5804 N   0  0  0  0  0  0
  -22.0449  -12.8213   22.0418 N   0  0  0  0  0  0
  -25.4238  -15.1937   20.4107 N   0  0  0  0  0  0
  -31.8189  -14.8481   20.1822 O   0  0  0  0  0  0
  -21.6645   -6.8866   21.4247 O   0  0  0  0  0  0
  -22.3490  -14.5546   20.6741 O   0  0  0  0  0  0
  -24.6358  -31.8538   23.2001 C   0  0  0  0  0  0
  -25.9163  -32.4741   23.8347 C   0  0  1  0  0  0
  -27.2269  -27.2618   20.1247 C   0  0  0  0  0  0
  -25.5944  -33.8549   24.2243 N   0  0  0  0  0  0
  -23.4336  -30.4809   21.5392 C   0  0  2  0  0  0
  -24.8828  -28.9375   20.1067 C   0  0  0  0  0  0
  -22.7558  -29.4581   22.4871 C   0  0  0  0  0  0
  -18.0312  -28.1392   22.8475 C   0  0  0  0  0  0
  -24.1484  -36.7280   23.2650 C   0  0  0  0  0  0
  -25.9838  -30.7671   21.3816 C   0  0  0  0  0  0
  -26.0545  -29.3909   20.7231 C   0  0  0  0  0  0
  -27.2260  -28.5659   20.7264 C   0  0  0  0  0  0
  -26.0269  -26.8877   19.4693 C   0  0  0  0  0  0
  -24.8756  -27.6916   19.4691 C   0  0  0  0  0  0
  -23.6536  -29.8220   20.1541 C   0  0  0  0  0  0
  -25.4090  -36.3054   24.0340 C   0  0  1  0  0  0
  -20.5929  -28.3699   23.1250 C   0  0  2  0  0  0
  -20.6788  -26.9399   22.5400 C   0  0  0  0  0  0
  -19.5754  -26.6382   21.5218 C   0  0  0  0  0  0
  -18.1936  -26.7943   22.1620 C   0  0  0  0  0  0
  -19.1570  -28.8864   23.2866 C   0  0  0  0  0  0
  -18.9490  -30.1468   23.8884 C   0  0  0  0  0  0
  -17.6491  -30.6582   24.0575 C   0  0  0  0  0  0
  -25.9047  -34.9429   23.5094 C   0  0  0  0  0  0
  -16.5380  -29.9088   23.6340 C   0  0  0  0  0  0
  -16.7287  -28.6523   23.0335 C   0  0  0  0  0  0
  -26.4507  -31.6578   25.0750 C   0  0  0  0  0  0
  -25.3717  -31.3783   26.1472 C   0  0  0  0  0  0
  -27.0332  -30.2983   24.6223 C   0  0  0  0  0  0
  -27.6051  -32.4340   25.7512 C   0  0  0  0  0  0
  -27.5558  -37.1788   24.8458 C   0  0  0  0  0  0
  -21.4246  -29.3059   22.3644 N   0  0  0  0  0  0
  -26.4254  -37.3749   23.9431 N   0  0  0  0  0  0
  -24.7040  -31.0518   22.0968 N   0  0  0  0  0  0
  -23.4257  -28.8082   23.2930 O   0  0  0  0  0  0
  -28.3054  -26.3410   20.2015 O   0  0  0  0  0  0
  -26.5613  -34.8929   22.4657 O   0  0  0  0  0  0
  -23.5494  -32.1328   23.7283 O   0  0  0  0  0  0
  -30.5754  -22.3539   20.9605 C   0  0  0  0  0  0
  -29.5304  -21.4727   20.7575 C   0  0  0  0  0  0
  -28.8725  -23.6534   20.2888 C   0  0  0  0  0  0
  -24.7195  -21.6473   20.3572 C   0  0  0  0  0  0
  -29.4342  -19.9626   21.2205 C   0  0  0  0  0  0
  -27.9769  -24.8993   19.9243 C   0  0  0  0  0  0
  -26.1486  -21.7873   20.8992 C   0  0  0  0  0  0
  -29.6495  -18.6446   20.3127 C   0  0  0  0  0  0
  -27.1994  -21.8861   19.7815 C   0  0  0  0  0  0
  -30.2781  -17.3282   21.0416 C   0  0  0  0  0  0
  -28.5186  -22.3196   20.2639 N   0  0  0  0  0  0
  -30.1483  -23.6400   20.6828 N   0  3  0  0  0  0
  -29.8611  -15.8910   20.7141 N   0  0  0  0  0  0
  -31.4789  -12.5969   19.1645 H   0  0  0  0  0  0
  -30.3947  -11.4965   19.9675 H   0  0  0  0  0  0
  -29.7971  -11.7225   17.5297 H   0  0  0  0  0  0
  -29.6270  -13.4504   17.7161 H   0  0  0  0  0  0
  -27.9070  -11.2733   18.9424 H   0  0  0  0  0  0
  -27.3748  -12.4887   17.8141 H   0  0  0  0  0  0
  -27.6367  -14.2471   19.4546 H   0  0  0  0  0  0
  -28.7395  -12.1874   21.4319 H   0  0  0  0  0  0
  -28.4288  -13.8671   21.7896 H   0  0  0  0  0  0
  -25.2741   -9.5681   22.4792 H   0  0  0  0  0  0
  -23.9974   -7.4642   22.7507 H   0  0  0  0  0  0
  -21.0832   -8.8770   19.8965 H   0  0  0  0  0  0
  -22.3694  -10.9674   19.6177 H   0  0  0  0  0  0
  -21.1958   -7.6136   23.9696 H   0  0  0  0  0  0
  -21.1508   -6.0536   25.9082 H   0  0  0  0  0  0
  -22.0583   -2.7587   23.2887 H   0  0  0  0  0  0
  -22.4030  -11.9813   22.4706 H   0  0  0  0  0  0
  -21.1094  -13.1275   22.2714 H   0  0  0  0  0  0
  -24.6565  -15.8481   20.5120 H   0  0  0  0  0  0
  -26.2727  -15.6323   20.0763 H   0  0  0  0  0  0
  -26.7206  -32.5354   23.1064 H   0  0  0  0  0  0
  -25.0153  -33.9664   25.0438 H   0  0  0  0  0  0
  -22.7305  -31.3023   21.3887 H   0  0  0  0  0  0
  -23.3768  -35.9602   23.3280 H   0  0  0  0  0  0
  -24.3589  -36.8930   22.2080 H   0  0  0  0  0  0
  -23.7229  -37.6478   23.6671 H   0  0  0  0  0  0
  -26.1220  -31.5244   20.6092 H   0  0  0  0  0  0
  -26.8667  -30.8146   22.0070 H   0  0  0  0  0  0
  -28.1159  -28.9097   21.2338 H   0  0  0  0  0  0
  -25.9281  -25.9466   18.9529 H   0  0  0  0  0  0
  -23.9863  -27.3368   18.9690 H   0  0  0  0  0  0
  -23.7771  -30.6023   19.4020 H   0  0  0  0  0  0
  -22.7745  -29.2543   19.8447 H   0  0  0  0  0  0
  -25.1247  -36.1900   25.0828 H   0  0  0  0  0  0
  -21.0005  -28.3251   24.1374 H   0  0  0  0  0  0
  -20.5719  -26.2277   23.3602 H   0  0  0  0  0  0
  -21.6631  -26.7399   22.1147 H   0  0  0  0  0  0
  -19.6925  -25.6316   21.1199 H   0  0  0  0  0  0
  -19.6704  -27.3237   20.6803 H   0  0  0  0  0  0
  -17.4201  -26.6732   21.4017 H   0  0  0  0  0  0
  -18.0279  -26.0063   22.8992 H   0  0  0  0  0  0
  -19.7972  -30.7292   24.2206 H   0  0  0  0  0  0
  -17.5042  -31.6252   24.5212 H   0  0  0  0  0  0
  -15.5371  -30.2995   23.7686 H   0  0  0  0  0  0
  -15.8681  -28.0866   22.7012 H   0  0  0  0  0  0
  -24.5994  -30.6931   25.7919 H   0  0  0  0  0  0
  -24.8776  -32.2965   26.4660 H   0  0  0  0  0  0
  -25.8061  -30.9242   27.0391 H   0  0  0  0  0  0
  -26.2924  -29.6746   24.1200 H   0  0  0  0  0  0
  -27.3996  -29.7180   25.4709 H   0  0  0  0  0  0
  -27.8773  -30.4258   23.9451 H   0  0  0  0  0  0
  -27.2648  -33.3725   26.1896 H   0  0  0  0  0  0
  -28.3940  -32.6767   25.0374 H   0  0  0  0  0  0
  -28.0575  -31.8581   26.5589 H   0  0  0  0  0  0
  -28.2534  -38.0127   24.7504 H   0  0  0  0  0  0
  -28.1092  -36.2656   24.6227 H   0  0  0  0  0  0
  -27.2292  -37.1339   25.8868 H   0  0  0  0  0  0
  -20.9442  -29.8869   21.6924 H   0  0  0  0  0  0
  -26.0144  -38.2820   24.1489 H   0  0  0  0  0  0
  -31.5669  -22.1669   21.3504 H   0  0  0  0  0  0
  -24.0041  -21.5435   21.1736 H   0  0  0  0  0  0
  -24.6185  -20.7655   19.7245 H   0  0  0  0  0  0
  -24.4261  -22.5190   19.7673 H   0  0  0  0  0  0
  -28.4820  -19.8484   21.7368 H   0  0  0  0  0  0
  -30.1674  -19.8784   22.0236 H   0  0  0  0  0  0
  -27.0405  -24.6760   20.4328 H   0  0  0  0  0  0
  -27.8050  -24.7989   18.8533 H   0  0  0  0  0  0
  -26.3798  -20.9295   21.5311 H   0  0  0  0  0  0
  -26.2010  -22.6674   21.5409 H   0  0  0  0  0  0
  -30.3125  -18.9123   19.4886 H   0  0  0  0  0  0
  -28.6925  -18.4001   19.8493 H   0  0  0  0  0  0
  -26.8750  -22.5775   19.0015 H   0  0  0  0  0  0
  -27.3213  -20.9211   19.2855 H   0  0  0  0  0  0
  -30.0666  -17.4332   22.1053 H   0  0  0  0  0  0
  -31.3662  -17.3980   20.9841 H   0  0  0  0  0  0
  -30.7193  -24.4711   20.7871 H   0  0  0  0  0  0
  -28.8807  -15.6984   20.8606 H   0  0  0  0  0  0
  1 25  1  0  0  0
  1 30  2  0  0  0
  1 83  1  0  0  0
  2  3  1  0  0  0
  2 25  1  0  0  0
  2 84  1  0  0  0
  2 85  1  0  0  0
  3  4  1  0  0  0
  3 86  1  0  0  0
  3 87  1  0  0  0
  4  5  1  0  0  0
  4 88  1  0  0  0
  4 89  1  0  0  0
  5  6  1  0  0  0
  5 26  1  0  0  0
  5 90  1  0  0  0
  6 25  1  0  0  0
  6 91  1  0  0  0
  6 92  1  0  0  0
  7  8  2  0  0  0
  7 26  1  0  0  0
  7 29  1  0  0  0
  8  9  1  0  0  0
  8 22  1  0  0  0
  9 10  1  0  0  0
  9 27  2  0  0  0
 10 11  2  0  0  0
 10 15  1  0  0  0
 11 12  1  0  0  0
 11 93  1  0  0  0
 12 13  2  0  0  0
 12 94  1  0  0  0
 13 14  1  0  0  0
 13 31  1  0  0  0
 14 15  2  0  0  0
 14 95  1  0  0  0
 15 96  1  0  0  0
 16 17  2  0  0  0
 16 21  1  0  0  0
 16 31  1  0  0  0
 17 18  1  0  0  0
 17 97  1  0  0  0
 18 19  2  0  0  0
 18 98  1  0  0  0
 19 20  1  0  0  0
 19 24  1  0  0  0
 20 21  2  0  0  0
 20 99  1  0  0  0
 21 23  1  0  0  0
 22 28  1  0  0  0
 22 32  2  0  0  0
 26 27  1  0  0  0
 28100  1  0  0  0
 28101  1  0  0  0
 29102  1  0  0  0
 29103  1  0  0  0
 33 34  1  0  0  0
 33 66  1  0  0  0
 33 70  2  0  0  0
 34 36  1  0  0  0
 34 59  1  0  0  0
 34104  1  0  0  0
 35 44  2  0  0  0
 35 45  1  0  0  0
 35 68  1  0  0  0
 36 56  1  0  0  0
 36105  1  0  0  0
 37 39  1  0  0  0
 37 47  1  0  0  0
 37 66  1  0  0  0
 37106  1  0  0  0
 38 43  2  0  0  0
 38 46  1  0  0  0
 38 47  1  0  0  0
 39 64  1  0  0  0
 39 67  2  0  0  0
 40 52  1  0  0  0
 40 53  2  0  0  0
 40 58  1  0  0  0
 41107  1  0  0  0
 41108  1  0  0  0
 41109  1  0  0  0
 41 48  1  0  0  0
 42 43  1  0  0  0
 42 66  1  0  0  0
 42110  1  0  0  0
 42111  1  0  0  0
 43 44  1  0  0  0
 44112  1  0  0  0
 45 46  2  0  0  0
 45113  1  0  0  0
 46114  1  0  0  0
 47115  1  0  0  0
 47116  1  0  0  0
 48 56  1  0  0  0
 48 65  1  0  0  0
 48117  1  0  0  0
 49 50  1  0  0  0
 49 53  1  0  0  0
 49 64  1  0  0  0
 49118  1  0  0  0
 50 51  1  0  0  0
 50119  1  0  0  0
 50120  1  0  0  0
 51 52  1  0  0  0
 51121  1  0  0  0
 51122  1  0  0  0
 52123  1  0  0  0
 52124  1  0  0  0
 53 54  1  0  0  0
 54 55  2  0  0  0
 54125  1  0  0  0
 55 57  1  0  0  0
 55126  1  0  0  0
 56 69  2  0  0  0
 57 58  2  0  0  0
 57127  1  0  0  0
 58128  1  0  0  0
 59 60  1  0  0  0
 59 61  1  0  0  0
 59 62  1  0  0  0
 60129  1  0  0  0
 60130  1  0  0  0
 60131  1  0  0  0
 61132  1  0  0  0
 61133  1  0  0  0
 61134  1  0  0  0
 62135  1  0  0  0
 62136  1  0  0  0
 62137  1  0  0  0
 63 65  1  0  0  0
 63138  1  0  0  0
 63139  1  0  0  0
 63140  1  0  0  0
 64141  1  0  0  0
 65142  1  0  0  0
 68 76  1  0  0  0
 71 72  2  0  0  0
 71 82  1  0  0  0
 71143  1  0  0  0
 72 75  1  0  0  0
 72 81  1  0  0  0
 73 76  1  0  0  0
 73 81  1  0  0  0
 73 82  2  0  0  0
 74 77  1  0  0  0
 74144  1  0  0  0
 74145  1  0  0  0
 74146  1  0  0  0
 75 78  1  0  0  0
 75147  1  0  0  0
 75148  1  0  0  0
 76149  1  0  0  0
 76150  1  0  0  0
 77 79  1  0  0  0
 77151  1  0  0  0
 77152  1  0  0  0
 78 80  1  0  0  0
 78153  1  0  0  0
 78154  1  0  0  0
 79 81  1  0  0  0
 79155  1  0  0  0
 79156  1  0  0  0
 80 83  1  0  0  0
 80157  1  0  0  0
 80158  1  0  0  0
 82159  1  0  0  0
 83160  1  0  0  0
M  CHG  1  82   1
M  ISO  4   1 100  68 101  76 101  83 100
M  END
> <chiral flag>
0

> <version>
0

> <s_m_source_file>
/data/baiqing/PycharmProjects/Reinvent-master-3.2/result/LINK_invent/BTK/process_docking_weight1_custom_sum_contain_oxygen_bond_distance_aromatic_linkinvent_7_9_3/rearranged_h_0043.sdf

> <i_m_source_file_index>
8

> <r_mmod_Potential_Energy-OPLS-2005>
114.31568145752

> <r_mmod_Stretch_Energy-OPLS-2005>
120.595039367676

> <r_mmod_Bend_Energy-OPLS-2005>
183.972564697266

> <r_mmod_Torsional_Energy-OPLS-2005>
239.545516967773

> <r_mmod_Improper_Torsional_Energy-OPLS-2005>
5.38218927383423

> <r_mmod_Van_der_Waal_Energy-OPLS-2005>
117.966674804688

> <r_mmod_Electrostatic_Energy-OPLS-2005>
-223.851745605469

> <r_mmod_Solvation_Energy-OPLS-2005>
-421.815124511719

> <b_mmod_Minimization_Converged-OPLS-2005>
0

> <r_mmod_RMS_Derivative-OPLS-2005>
4.08707141876221

$$$$
8
                    3D
 Structure written by MMmdl.
160168  0  0  1  0            999 V2000
  -30.7285  -14.5516   20.5700 C   0  0  0  0  0  0
  -30.4124  -12.3622   19.4527 C   0  0  0  0  0  0
  -29.4929  -12.5110   18.2252 C   0  0  0  0  0  0
  -28.0195  -12.3548   18.6409 C   0  0  0  0  0  0
  -27.6514  -13.2258   19.8704 C   0  0  2  0  0  0
  -28.6940  -13.0932   21.0041 C   0  0  0  0  0  0
  -25.2494  -13.8187   20.5620 C   0  0  0  0  0  0
  -24.1790  -13.0453   20.9156 C   0  0  0  0  0  0
  -24.6382  -11.6929   20.8772 C   0  0  0  0  0  0
  -23.9049  -10.4303   21.0425 C   0  0  0  0  0  0
  -24.3618   -9.4216   21.9173 C   0  0  0  0  0  0
  -23.6310   -8.2240   22.0739 C   0  0  0  0  0  0
  -22.4286   -8.0269   21.3537 C   0  0  0  0  0  0
  -21.9906   -9.0247   20.4654 C   0  0  0  0  0  0
  -22.7221  -10.2140   20.3067 C   0  0  0  0  0  0
  -21.6845   -6.0732   22.5277 C   0  0  0  0  0  0
  -21.4024   -6.5632   23.8212 C   0  0  0  0  0  0
  -21.3663   -5.6776   24.9171 C   0  0  0  0  0  0
  -21.6054   -4.3040   24.7213 C   0  0  0  0  0  0
  -21.8830   -3.8153   23.4326 C   0  0  0  0  0  0
  -21.9196   -4.6968   22.3388 C   0  0  0  0  0  0
  -22.7814  -13.5242   21.1846 C   0  0  0  0  0  0
  -22.1675   -4.2168   21.0963 F   0  0  0  0  0  0
  -21.5633   -3.4519   25.7722 F   0  0  0  0  0  0
  -30.0176  -13.3907   20.4368 N   0  0  0  0  0  0
  -26.2977  -12.9415   20.3384 N   0  0  0  0  0  0
  -25.9324  -11.6552   20.5823 N   0  0  0  0  0  0
  -22.0482  -12.8226   22.0410 N   0  0  0  0  0  0
  -25.4117  -15.1889   20.3913 N   0  0  0  0  0  0
  -31.8495  -14.6839   20.0803 O   0  0  0  0  0  0
  -21.6634   -6.8875   21.4244 O   0  0  0  0  0  0
  -22.3498  -14.5555   20.6689 O   0  0  0  0  0  0
  -24.6237  -31.8631   23.2084 C   0  0  0  0  0  0
  -25.9108  -32.4785   23.8386 C   0  0  1  0  0  0
  -27.2111  -27.3462   20.0893 C   0  0  0  0  0  0
  -25.5932  -33.8586   24.2304 N   0  0  0  0  0  0
  -23.4138  -30.4936   21.5513 C   0  0  2  0  0  0
  -24.8527  -28.9603   20.1131 C   0  0  0  0  0  0
  -22.7457  -29.4655   22.4943 C   0  0  0  0  0  0
  -18.0284  -28.1390   22.8494 C   0  0  0  0  0  0
  -24.1486  -36.7302   23.2636 C   0  0  0  0  0  0
  -25.9547  -30.8007   21.3777 C   0  0  0  0  0  0
  -26.0224  -29.4325   20.7184 C   0  0  0  0  0  0
  -27.2001  -28.6322   20.7077 C   0  0  0  0  0  0
  -26.0096  -26.9293   19.4623 C   0  0  0  0  0  0
  -24.8457  -27.7120   19.4834 C   0  0  0  0  0  0
  -23.6236  -29.8386   20.1640 C   0  0  0  0  0  0
  -25.4106  -36.3081   24.0327 C   0  0  1  0  0  0
  -20.5876  -28.3698   23.1282 C   0  0  2  0  0  0
  -20.6762  -26.9418   22.5410 C   0  0  0  0  0  0
  -19.5741  -26.6387   21.5218 C   0  0  0  0  0  0
  -18.1921  -26.7931   22.1637 C   0  0  0  0  0  0
  -19.1530  -28.8865   23.2886 C   0  0  0  0  0  0
  -18.9454  -30.1461   23.8911 C   0  0  0  0  0  0
  -17.6451  -30.6589   24.0570 C   0  0  0  0  0  0
  -25.9050  -34.9455   23.5113 C   0  0  0  0  0  0
  -16.5345  -29.9089   23.6321 C   0  0  0  0  0  0
  -16.7271  -28.6504   23.0349 C   0  0  0  0  0  0
  -26.4510  -31.6577   25.0742 C   0  0  0  0  0  0
  -25.3739  -31.3709   26.1466 C   0  0  0  0  0  0
  -27.0357  -30.2995   24.6192 C   0  0  0  0  0  0
  -27.6085  -32.4302   25.7509 C   0  0  0  0  0  0
  -27.5575  -37.1799   24.8464 C   0  0  0  0  0  0
  -21.4176  -29.3047   22.3682 N   0  0  0  0  0  0
  -26.4288  -37.3771   23.9407 N   0  0  0  0  0  0
  -24.6833  -31.0668   22.1030 N   0  0  0  0  0  0
  -23.4194  -28.8182   23.3000 O   0  0  0  0  0  0
  -28.3550  -26.5384   20.1446 O   0  0  0  0  0  0
  -26.5616  -34.8920   22.4675 O   0  0  0  0  0  0
  -23.5407  -32.1444   23.7419 O   0  0  0  0  0  0
  -26.3434  -20.5990   21.2735 C   0  0  0  0  0  0
  -27.6991  -20.2142   21.1429 C   0  0  0  0  0  0
  -27.9522  -18.8270   21.4500 C   0  0  0  0  0  0
  -25.7455  -18.5777   22.1003 C   0  0  0  0  0  0
  -24.6935  -17.7108   22.7582 C   0  0  0  0  0  0
  -28.7400  -21.3140   20.7566 C   0  0  0  0  0  0
  -29.2892  -18.0315   21.4130 C   0  0  0  0  0  0
  -28.1399  -22.7654   20.5025 C   0  0  0  0  0  0
  -29.0777  -23.9985   20.2285 C   0  0  0  0  0  0
  -29.1973  -16.5612   20.8041 C   0  0  0  0  0  0
  -28.3868  -25.2188   19.5002 C   0  0  0  0  0  0
  -25.3825  -19.7952   21.7476 N   0  0  0  0  0  0
  -26.9598  -18.0730   21.9650 N   0  0  0  0  0  0
  -30.2132  -15.5809   21.2864 N   0  0  0  0  0  0
  -31.4598  -12.4415   19.1555 H   0  0  0  0  0  0
  -30.3070  -11.3675   19.8893 H   0  0  0  0  0  0
  -29.7463  -11.7666   17.4698 H   0  0  0  0  0  0
  -29.6482  -13.4867   17.7619 H   0  0  0  0  0  0
  -27.8533  -11.3015   18.8705 H   0  0  0  0  0  0
  -27.3624  -12.5878   17.8027 H   0  0  0  0  0  0
  -27.6692  -14.2605   19.5267 H   0  0  0  0  0  0
  -28.6852  -12.0864   21.4259 H   0  0  0  0  0  0
  -28.4467  -13.7651   21.8279 H   0  0  0  0  0  0
  -25.2772   -9.5694   22.4719 H   0  0  0  0  0  0
  -24.0048   -7.4638   22.7452 H   0  0  0  0  0  0
  -21.0838   -8.8752   19.8974 H   0  0  0  0  0  0
  -22.3657  -10.9671   19.6184 H   0  0  0  0  0  0
  -21.2018   -7.6145   23.9717 H   0  0  0  0  0  0
  -21.1487   -6.0512   25.9063 H   0  0  0  0  0  0
  -22.0611   -2.7616   23.2818 H   0  0  0  0  0  0
  -22.4145  -11.9954   22.4893 H   0  0  0  0  0  0
  -21.1092  -13.1238   22.2596 H   0  0  0  0  0  0
  -24.6299  -15.8293   20.4537 H   0  0  0  0  0  0
  -26.2807  -15.6436   20.1446 H   0  0  0  0  0  0
  -26.7175  -32.5473   23.1143 H   0  0  0  0  0  0
  -25.0051  -33.9724   25.0432 H   0  0  0  0  0  0
  -22.7075  -31.3148   21.4139 H   0  0  0  0  0  0
  -23.3735  -35.9648   23.3305 H   0  0  0  0  0  0
  -24.3585  -36.8917   22.2050 H   0  0  0  0  0  0
  -23.7257  -37.6512   23.6662 H   0  0  0  0  0  0
  -26.0842  -31.5669   20.6118 H   0  0  0  0  0  0
  -26.8382  -30.8463   22.0034 H   0  0  0  0  0  0
  -28.0994  -28.9874   21.1911 H   0  0  0  0  0  0
  -25.8901  -25.9981   18.9390 H   0  0  0  0  0  0
  -23.9469  -27.3449   19.0053 H   0  0  0  0  0  0
  -23.7433  -30.6197   19.4120 H   0  0  0  0  0  0
  -22.7428  -29.2694   19.8596 H   0  0  0  0  0  0
  -25.1280  -36.1940   25.0816 H   0  0  0  0  0  0
  -20.9980  -28.3270   24.1402 H   0  0  0  0  0  0
  -20.5655  -26.2314   23.3612 H   0  0  0  0  0  0
  -21.6629  -26.7428   22.1210 H   0  0  0  0  0  0
  -19.6894  -25.6302   21.1244 H   0  0  0  0  0  0
  -19.6665  -27.3204   20.6752 H   0  0  0  0  0  0
  -17.4174  -26.6684   21.4045 H   0  0  0  0  0  0
  -18.0321  -26.0074   22.9041 H   0  0  0  0  0  0
  -19.7929  -30.7271   24.2285 H   0  0  0  0  0  0
  -17.5004  -31.6271   24.5177 H   0  0  0  0  0  0
  -15.5348  -30.2996   23.7631 H   0  0  0  0  0  0
  -15.8672  -28.0827   22.7050 H   0  0  0  0  0  0
  -24.5920  -30.7060   25.7785 H   0  0  0  0  0  0
  -24.8935  -32.2873   26.4896 H   0  0  0  0  0  0
  -25.8055  -30.8879   27.0240 H   0  0  0  0  0  0
  -26.2936  -29.6737   24.1221 H   0  0  0  0  0  0
  -27.4054  -29.7258   25.4702 H   0  0  0  0  0  0
  -27.8812  -30.4276   23.9429 H   0  0  0  0  0  0
  -27.2707  -33.3593   26.2113 H   0  0  0  0  0  0
  -28.3888  -32.6861   25.0329 H   0  0  0  0  0  0
  -28.0773  -31.8410   26.5401 H   0  0  0  0  0  0
  -28.2583  -38.0100   24.7489 H   0  0  0  0  0  0
  -28.1073  -36.2624   24.6307 H   0  0  0  0  0  0
  -27.2294  -37.1470   25.8867 H   0  0  0  0  0  0
  -20.9342  -29.8796   21.6926 H   0  0  0  0  0  0
  -26.0168  -38.2847   24.1409 H   0  0  0  0  0  0
  -25.9836  -21.5879   21.0378 H   0  0  0  0  0  0
  -23.7430  -17.7807   22.2301 H   0  0  0  0  0  0
  -24.5341  -18.0383   23.7858 H   0  0  0  0  0  0
  -24.9902  -16.6619   22.7832 H   0  0  0  0  0  0
  -29.2800  -20.9867   19.8680 H   0  0  0  0  0  0
  -29.4789  -21.3725   21.5572 H   0  0  0  0  0  0
  -29.6270  -17.9634   22.4479 H   0  0  0  0  0  0
  -30.0529  -18.6102   20.8912 H   0  0  0  0  0  0
  -27.5297  -23.0583   21.3574 H   0  0  0  0  0  0
  -27.4563  -22.6763   19.6568 H   0  0  0  0  0  0
  -29.8933  -23.6540   19.5920 H   0  0  0  0  0  0
  -29.5511  -24.3268   21.1542 H   0  0  0  0  0  0
  -29.2078  -16.6192   19.7137 H   0  0  0  0  0  0
  -28.2389  -16.1175   21.0682 H   0  0  0  0  0  0
  -27.4202  -24.8438   19.1971 H   0  0  0  0  0  0
  -28.9037  -25.3785   18.5524 H   0  0  0  0  0  0
  -30.9707  -16.0711   21.7404 H   0  0  0  0  0  0
  1 25  1  0  0  0
  1 30  2  0  0  0
  1 84  1  0  0  0
  2  3  1  0  0  0
  2 25  1  0  0  0
  2 85  1  0  0  0
  2 86  1  0  0  0
  3  4  1  0  0  0
  3 87  1  0  0  0
  3 88  1  0  0  0
  4  5  1  0  0  0
  4 89  1  0  0  0
  4 90  1  0  0  0
  5  6  1  0  0  0
  5 26  1  0  0  0
  5 91  1  0  0  0
  6 25  1  0  0  0
  6 92  1  0  0  0
  6 93  1  0  0  0
  7  8  2  0  0  0
  7 26  1  0  0  0
  7 29  1  0  0  0
  8  9  1  0  0  0
  8 22  1  0  0  0
  9 10  1  0  0  0
  9 27  2  0  0  0
 10 11  2  0  0  0
 10 15  1  0  0  0
 11 12  1  0  0  0
 11 94  1  0  0  0
 12 13  2  0  0  0
 12 95  1  0  0  0
 13 14  1  0  0  0
 13 31  1  0  0  0
 14 15  2  0  0  0
 14 96  1  0  0  0
 15 97  1  0  0  0
 16 17  2  0  0  0
 16 21  1  0  0  0
 16 31  1  0  0  0
 17 18  1  0  0  0
 17 98  1  0  0  0
 18 19  2  0  0  0
 18 99  1  0  0  0
 19 20  1  0  0  0
 19 24  1  0  0  0
 20 21  2  0  0  0
 20100  1  0  0  0
 21 23  1  0  0  0
 22 28  1  0  0  0
 22 32  2  0  0  0
 26 27  1  0  0  0
 28101  1  0  0  0
 28102  1  0  0  0
 29103  1  0  0  0
 29104  1  0  0  0
 33 34  1  0  0  0
 33 66  1  0  0  0
 33 70  2  0  0  0
 34 36  1  0  0  0
 34 59  1  0  0  0
 34105  1  0  0  0
 35 44  2  0  0  0
 35 45  1  0  0  0
 35 68  1  0  0  0
 36 56  1  0  0  0
 36106  1  0  0  0
 37 39  1  0  0  0
 37 47  1  0  0  0
 37 66  1  0  0  0
 37107  1  0  0  0
 38 43  2  0  0  0
 38 46  1  0  0  0
 38 47  1  0  0  0
 39 64  1  0  0  0
 39 67  2  0  0  0
 40 52  1  0  0  0
 40 53  2  0  0  0
 40 58  1  0  0  0
 41108  1  0  0  0
 41109  1  0  0  0
 41110  1  0  0  0
 41 48  1  0  0  0
 42 43  1  0  0  0
 42 66  1  0  0  0
 42111  1  0  0  0
 42112  1  0  0  0
 43 44  1  0  0  0
 44113  1  0  0  0
 45 46  2  0  0  0
 45114  1  0  0  0
 46115  1  0  0  0
 47116  1  0  0  0
 47117  1  0  0  0
 48 56  1  0  0  0
 48 65  1  0  0  0
 48118  1  0  0  0
 49 50  1  0  0  0
 49 53  1  0  0  0
 49 64  1  0  0  0
 49119  1  0  0  0
 50 51  1  0  0  0
 50120  1  0  0  0
 50121  1  0  0  0
 51 52  1  0  0  0
 51122  1  0  0  0
 51123  1  0  0  0
 52124  1  0  0  0
 52125  1  0  0  0
 53 54  1  0  0  0
 54 55  2  0  0  0
 54126  1  0  0  0
 55 57  1  0  0  0
 55127  1  0  0  0
 56 69  2  0  0  0
 57 58  2  0  0  0
 57128  1  0  0  0
 58129  1  0  0  0
 59 60  1  0  0  0
 59 61  1  0  0  0
 59 62  1  0  0  0
 60130  1  0  0  0
 60131  1  0  0  0
 60132  1  0  0  0
 61133  1  0  0  0
 61134  1  0  0  0
 61135  1  0  0  0
 62136  1  0  0  0
 62137  1  0  0  0
 62138  1  0  0  0
 63 65  1  0  0  0
 63139  1  0  0  0
 63140  1  0  0  0
 63141  1  0  0  0
 64142  1  0  0  0
 65143  1  0  0  0
 68 81  1  0  0  0
 71 72  2  0  0  0
 71 82  1  0  0  0
 71144  1  0  0  0
 72 73  1  0  0  0
 72 76  1  0  0  0
 73 77  1  0  0  0
 73 83  2  0  0  0
 74 75  1  0  0  0
 74 82  2  0  0  0
 74 83  1  0  0  0
 75145  1  0  0  0
 75146  1  0  0  0
 75147  1  0  0  0
 76 78  1  0  0  0
 76148  1  0  0  0
 76149  1  0  0  0
 77 80  1  0  0  0
 77150  1  0  0  0
 77151  1  0  0  0
 78 79  1  0  0  0
 78152  1  0  0  0
 78153  1  0  0  0
 79 81  1  0  0  0
 79154  1  0  0  0
 79155  1  0  0  0
 80 84  1  0  0  0
 80156  1  0  0  0
 80157  1  0  0  0
 81158  1  0  0  0
 81159  1  0  0  0
 84160  1  0  0  0
M  ISO  4   1 100  68 101  81 101  84 100
M  END
> <chiral flag>
0

> <version>
0

> <s_m_source_file>
/data/baiqing/PycharmProjects/Reinvent-master-3.2/result/LINK_invent/BTK/process_docking_weight1_custom_sum_contain_oxygen_bond_distance_aromatic_linkinvent_7_9_3/rearranged_h_0043.sdf

> <i_m_source_file_index>
9

> <r_mmod_Potential_Energy-OPLS-2005>
-267.958343505859

> <r_mmod_Stretch_Energy-OPLS-2005>
68.5321426391602

> <r_mmod_Bend_Energy-OPLS-2005>
163.693588256836

> <r_mmod_Torsional_Energy-OPLS-2005>
267.935913085938

> <r_mmod_Improper_Torsional_Energy-OPLS-2005>
6.49401521682739

> <r_mmod_Van_der_Waal_Energy-OPLS-2005>
160.302139282227

> <r_mmod_Electrostatic_Energy-OPLS-2005>
-743.957702636719

> <r_mmod_Solvation_Energy-OPLS-2005>
-223.214569091797

> <b_mmod_Minimization_Converged-OPLS-2005>
0

> <r_mmod_RMS_Derivative-OPLS-2005>
2.43157768249512

$$$$
9
                    3D
 Structure written by MMmdl.
159167  0  0  1  0            999 V2000
  -30.7280  -14.3755   20.5555 C   0  0  0  0  0  0
  -30.4182  -12.2400   19.4081 C   0  0  0  0  0  0
  -29.4926  -12.4901   18.1999 C   0  0  0  0  0  0
  -28.0107  -12.3741   18.6109 C   0  0  0  0  0  0
  -27.6708  -13.1950   19.8838 C   0  0  2  0  0  0
  -28.7117  -12.9356   20.9993 C   0  0  0  0  0  0
  -25.2634  -13.8144   20.5660 C   0  0  0  0  0  0
  -24.1874  -13.0440   20.9162 C   0  0  0  0  0  0
  -24.6407  -11.6898   20.8758 C   0  0  0  0  0  0
  -23.9073  -10.4285   21.0415 C   0  0  0  0  0  0
  -24.3618   -9.4198   21.9188 C   0  0  0  0  0  0
  -23.6285   -8.2242   22.0767 C   0  0  0  0  0  0
  -22.4269   -8.0286   21.3547 C   0  0  0  0  0  0
  -21.9911   -9.0267   20.4650 C   0  0  0  0  0  0
  -22.7253  -10.2137   20.3050 C   0  0  0  0  0  0
  -21.6850   -6.0735   22.5272 C   0  0  0  0  0  0
  -21.4016   -6.5633   23.8213 C   0  0  0  0  0  0
  -21.3659   -5.6787   24.9171 C   0  0  0  0  0  0
  -21.6042   -4.3050   24.7226 C   0  0  0  0  0  0
  -21.8822   -3.8143   23.4344 C   0  0  0  0  0  0
  -21.9198   -4.6962   22.3404 C   0  0  0  0  0  0
  -22.7886  -13.5247   21.1818 C   0  0  0  0  0  0
  -22.1661   -4.2147   21.0982 F   0  0  0  0  0  0
  -21.5632   -3.4536   25.7740 F   0  0  0  0  0  0
  -30.0507  -13.2074   20.4482 N   0  0  0  0  0  0
  -26.3079  -12.9285   20.3401 N   0  0  0  0  0  0
  -25.9329  -11.6454   20.5784 N   0  0  0  0  0  0
  -22.0537  -12.8239   22.0372 N   0  0  0  0  0  0
  -25.4365  -15.1861   20.4006 N   0  0  0  0  0  0
  -31.8585  -14.5637   20.0975 O   0  0  0  0  0  0
  -21.6632   -6.8879   21.4236 O   0  0  0  0  0  0
  -22.3577  -14.5572   20.6690 O   0  0  0  0  0  0
  -24.6078  -31.8728   23.2142 C   0  0  0  0  0  0
  -25.9000  -32.4848   23.8425 C   0  0  1  0  0  0
  -27.2433  -27.4952   20.0851 C   0  0  0  0  0  0
  -25.5882  -33.8642   24.2367 N   0  0  0  0  0  0
  -23.3944  -30.4961   21.5515 C   0  0  2  0  0  0
  -24.8439  -28.9656   20.1175 C   0  0  0  0  0  0
  -22.7372  -29.4700   22.5008 C   0  0  0  0  0  0
  -18.0289  -28.1353   22.8521 C   0  0  0  0  0  0
  -24.1488  -36.7329   23.2637 C   0  0  0  0  0  0
  -25.9152  -30.8550   21.3601 C   0  0  0  0  0  0
  -25.9973  -29.4910   20.7143 C   0  0  0  0  0  0
  -27.2001  -28.7591   20.7036 C   0  0  0  0  0  0
  -26.0819  -26.9699   19.4825 C   0  0  0  0  0  0
  -24.8774  -27.6989   19.5042 C   0  0  0  0  0  0
  -23.6019  -29.8245   20.1670 C   0  0  0  0  0  0
  -25.4103  -36.3132   24.0342 C   0  0  1  0  0  0
  -20.5863  -28.3668   23.1324 C   0  0  2  0  0  0
  -20.6776  -26.9425   22.5387 C   0  0  0  0  0  0
  -19.5734  -26.6371   21.5216 C   0  0  0  0  0  0
  -18.1947  -26.7883   22.1696 C   0  0  0  0  0  0
  -19.1530  -28.8827   23.2916 C   0  0  0  0  0  0
  -18.9451  -30.1435   23.8914 C   0  0  0  0  0  0
  -17.6456  -30.6577   24.0549 C   0  0  0  0  0  0
  -25.9014  -34.9490   23.5147 C   0  0  0  0  0  0
  -16.5352  -29.9076   23.6306 C   0  0  0  0  0  0
  -16.7277  -28.6480   23.0358 C   0  0  0  0  0  0
  -26.4454  -31.6608   25.0726 C   0  0  0  0  0  0
  -25.3742  -31.3690   26.1487 C   0  0  0  0  0  0
  -27.0283  -30.3064   24.6058 C   0  0  0  0  0  0
  -27.6046  -32.4311   25.7486 C   0  0  0  0  0  0
  -27.5583  -37.1817   24.8464 C   0  0  0  0  0  0
  -21.4105  -29.3072   22.3759 N   0  0  0  0  0  0
  -26.4303  -37.3804   23.9397 N   0  0  0  0  0  0
  -24.6568  -31.0876   22.1017 N   0  0  0  0  0  0
  -23.4164  -28.8236   23.3028 O   0  0  0  0  0  0
  -28.4168  -26.7921   20.0612 O   0  0  0  0  0  0
  -26.5573  -34.8929   22.4710 O   0  0  0  0  0  0
  -23.5280  -32.1459   23.7565 O   0  0  0  0  0  0
  -29.2139  -21.2236   21.0536 C   0  0  0  0  0  0
  -28.1682  -22.1304   21.3602 C   0  0  0  0  0  0
  -28.5872  -20.1764   20.4470 C   0  0  0  0  0  0
  -26.1408  -19.7140   19.8554 C   0  0  0  0  0  0
  -28.3068  -23.5117   21.9210 C   0  0  0  0  0  0
  -29.1905  -18.9430   19.8718 C   0  0  0  0  0  0
  -28.2260  -24.5328   20.7830 C   0  0  0  0  0  0
  -29.1128  -17.7250   20.8012 C   0  0  0  0  0  0
  -30.2580  -16.7547   20.4969 C   0  0  0  0  0  0
  -28.5974  -25.9557   21.1961 C   0  0  0  0  0  0
  -26.9809  -21.6681   20.9971 N   0  0  0  0  0  0
  -27.2366  -20.4704   20.4264 N   0  0  0  0  0  0
  -29.9827  -15.4045   20.9622 N   0  0  0  0  0  0
  -31.4640  -12.3225   19.1067 H   0  0  0  0  0  0
  -30.2978  -11.2217   19.7822 H   0  0  0  0  0  0
  -29.7140  -11.7788   17.4045 H   0  0  0  0  0  0
  -29.6815  -13.4804   17.7835 H   0  0  0  0  0  0
  -27.7961  -11.3186   18.7812 H   0  0  0  0  0  0
  -27.3682  -12.6833   17.7864 H   0  0  0  0  0  0
  -27.7284  -14.2475   19.6085 H   0  0  0  0  0  0
  -28.6620  -11.8965   21.3274 H   0  0  0  0  0  0
  -28.4971  -13.5291   21.8895 H   0  0  0  0  0  0
  -25.2767   -9.5669   22.4751 H   0  0  0  0  0  0
  -24.0000   -7.4630   22.7474 H   0  0  0  0  0  0
  -21.0849   -8.8786   19.8947 H   0  0  0  0  0  0
  -22.3727  -10.9673   19.6151 H   0  0  0  0  0  0
  -21.2002   -7.6141   23.9712 H   0  0  0  0  0  0
  -21.1475   -6.0519   25.9075 H   0  0  0  0  0  0
  -22.0606   -2.7604   23.2852 H   0  0  0  0  0  0
  -22.4145  -11.9892   22.4755 H   0  0  0  0  0  0
  -21.1156  -13.1266   22.2559 H   0  0  0  0  0  0
  -24.6688  -15.8414   20.4966 H   0  0  0  0  0  0
  -26.2833  -15.6179   20.0546 H   0  0  0  0  0  0
  -26.7084  -32.5598   23.1212 H   0  0  0  0  0  0
  -25.0067  -33.9820   25.0534 H   0  0  0  0  0  0
  -22.6808  -31.3112   21.4132 H   0  0  0  0  0  0
  -23.3741  -35.9673   23.3316 H   0  0  0  0  0  0
  -24.3590  -36.8922   22.2050 H   0  0  0  0  0  0
  -23.7251  -37.6544   23.6636 H   0  0  0  0  0  0
  -26.0168  -31.6202   20.5898 H   0  0  0  0  0  0
  -26.8055  -30.9130   21.9741 H   0  0  0  0  0  0
  -28.0933  -29.1649   21.1583 H   0  0  0  0  0  0
  -26.1122  -26.0071   18.9929 H   0  0  0  0  0  0
  -23.9903  -27.2894   19.0418 H   0  0  0  0  0  0
  -23.7047  -30.5966   19.4033 H   0  0  0  0  0  0
  -22.7277  -29.2392   19.8779 H   0  0  0  0  0  0
  -25.1282  -36.2009   25.0836 H   0  0  0  0  0  0
  -20.9961  -28.3221   24.1440 H   0  0  0  0  0  0
  -20.5719  -26.2287   23.3577 H   0  0  0  0  0  0
  -21.6643  -26.7515   22.1147 H   0  0  0  0  0  0
  -19.6879  -25.6291   21.1215 H   0  0  0  0  0  0
  -19.6623  -27.3204   20.6749 H   0  0  0  0  0  0
  -17.4174  -26.6580   21.4157 H   0  0  0  0  0  0
  -18.0439  -26.0042   22.9137 H   0  0  0  0  0  0
  -19.7919  -30.7248   24.2301 H   0  0  0  0  0  0
  -17.5003  -31.6249   24.5148 H   0  0  0  0  0  0
  -15.5351  -30.2977   23.7627 H   0  0  0  0  0  0
  -15.8667  -28.0812   22.7080 H   0  0  0  0  0  0
  -24.5907  -30.7046   25.7824 H   0  0  0  0  0  0
  -24.8947  -32.2840   26.4975 H   0  0  0  0  0  0
  -25.8110  -30.8834   27.0224 H   0  0  0  0  0  0
  -26.2811  -29.6827   24.1134 H   0  0  0  0  0  0
  -27.4109  -29.7288   25.4484 H   0  0  0  0  0  0
  -27.8622  -30.4411   23.9160 H   0  0  0  0  0  0
  -27.2675  -33.3586   26.2126 H   0  0  0  0  0  0
  -28.3826  -32.6905   25.0294 H   0  0  0  0  0  0
  -28.0752  -31.8398   26.5355 H   0  0  0  0  0  0
  -28.2610  -38.0104   24.7500 H   0  0  0  0  0  0
  -28.1064  -36.2632   24.6304 H   0  0  0  0  0  0
  -27.2294  -37.1496   25.8867 H   0  0  0  0  0  0
  -20.9232  -29.8816   21.7020 H   0  0  0  0  0  0
  -26.0193  -38.2884   24.1392 H   0  0  0  0  0  0
  -30.2762  -21.3435   21.2157 H   0  0  0  0  0  0
  -25.9798  -20.0337   18.8260 H   0  0  0  0  0  0
  -25.2267  -19.8774   20.4252 H   0  0  0  0  0  0
  -26.3674  -18.6491   19.8606 H   0  0  0  0  0  0
  -29.2615  -23.6049   22.4388 H   0  0  0  0  0  0
  -27.5327  -23.7086   22.6629 H   0  0  0  0  0  0
  -30.2349  -19.1589   19.6437 H   0  0  0  0  0  0
  -28.7339  -18.7046   18.9098 H   0  0  0  0  0  0
  -27.2178  -24.5066   20.3688 H   0  0  0  0  0  0
  -28.8991  -24.2316   19.9789 H   0  0  0  0  0  0
  -29.1910  -18.0379   21.8431 H   0  0  0  0  0  0
  -28.1355  -17.2554   20.6916 H   0  0  0  0  0  0
  -30.4078  -16.7126   19.4146 H   0  0  0  0  0  0
  -31.1949  -17.1134   20.9272 H   0  0  0  0  0  0
  -29.6427  -25.9967   21.5056 H   0  0  0  0  0  0
  -28.0018  -26.2807   22.0520 H   0  0  0  0  0  0
  -29.0631  -15.1988   21.3209 H   0  0  0  0  0  0
  1 25  1  0  0  0
  1 30  2  0  0  0
  1 83  1  0  0  0
  2  3  1  0  0  0
  2 25  1  0  0  0
  2 84  1  0  0  0
  2 85  1  0  0  0
  3  4  1  0  0  0
  3 86  1  0  0  0
  3 87  1  0  0  0
  4  5  1  0  0  0
  4 88  1  0  0  0
  4 89  1  0  0  0
  5  6  1  0  0  0
  5 26  1  0  0  0
  5 90  1  0  0  0
  6 25  1  0  0  0
  6 91  1  0  0  0
  6 92  1  0  0  0
  7  8  2  0  0  0
  7 26  1  0  0  0
  7 29  1  0  0  0
  8  9  1  0  0  0
  8 22  1  0  0  0
  9 10  1  0  0  0
  9 27  2  0  0  0
 10 11  2  0  0  0
 10 15  1  0  0  0
 11 12  1  0  0  0
 11 93  1  0  0  0
 12 13  2  0  0  0
 12 94  1  0  0  0
 13 14  1  0  0  0
 13 31  1  0  0  0
 14 15  2  0  0  0
 14 95  1  0  0  0
 15 96  1  0  0  0
 16 17  2  0  0  0
 16 21  1  0  0  0
 16 31  1  0  0  0
 17 18  1  0  0  0
 17 97  1  0  0  0
 18 19  2  0  0  0
 18 98  1  0  0  0
 19 20  1  0  0  0
 19 24  1  0  0  0
 20 21  2  0  0  0
 20 99  1  0  0  0
 21 23  1  0  0  0
 22 28  1  0  0  0
 22 32  2  0  0  0
 26 27  1  0  0  0
 28100  1  0  0  0
 28101  1  0  0  0
 29102  1  0  0  0
 29103  1  0  0  0
 33 34  1  0  0  0
 33 66  1  0  0  0
 33 70  2  0  0  0
 34 36  1  0  0  0
 34 59  1  0  0  0
 34104  1  0  0  0
 35 44  2  0  0  0
 35 45  1  0  0  0
 35 68  1  0  0  0
 36 56  1  0  0  0
 36105  1  0  0  0
 37 39  1  0  0  0
 37 47  1  0  0  0
 37 66  1  0  0  0
 37106  1  0  0  0
 38 43  2  0  0  0
 38 46  1  0  0  0
 38 47  1  0  0  0
 39 64  1  0  0  0
 39 67  2  0  0  0
 40 52  1  0  0  0
 40 53  2  0  0  0
 40 58  1  0  0  0
 41107  1  0  0  0
 41108  1  0  0  0
 41109  1  0  0  0
 41 48  1  0  0  0
 42 43  1  0  0  0
 42 66  1  0  0  0
 42110  1  0  0  0
 42111  1  0  0  0
 43 44  1  0  0  0
 44112  1  0  0  0
 45 46  2  0  0  0
 45113  1  0  0  0
 46114  1  0  0  0
 47115  1  0  0  0
 47116  1  0  0  0
 48 56  1  0  0  0
 48 65  1  0  0  0
 48117  1  0  0  0
 49 50  1  0  0  0
 49 53  1  0  0  0
 49 64  1  0  0  0
 49118  1  0  0  0
 50 51  1  0  0  0
 50119  1  0  0  0
 50120  1  0  0  0
 51 52  1  0  0  0
 51121  1  0  0  0
 51122  1  0  0  0
 52123  1  0  0  0
 52124  1  0  0  0
 53 54  1  0  0  0
 54 55  2  0  0  0
 54125  1  0  0  0
 55 57  1  0  0  0
 55126  1  0  0  0
 56 69  2  0  0  0
 57 58  2  0  0  0
 57127  1  0  0  0
 58128  1  0  0  0
 59 60  1  0  0  0
 59 61  1  0  0  0
 59 62  1  0  0  0
 60129  1  0  0  0
 60130  1  0  0  0
 60131  1  0  0  0
 61132  1  0  0  0
 61133  1  0  0  0
 61134  1  0  0  0
 62135  1  0  0  0
 62136  1  0  0  0
 62137  1  0  0  0
 63 65  1  0  0  0
 63138  1  0  0  0
 63139  1  0  0  0
 63140  1  0  0  0
 64141  1  0  0  0
 65142  1  0  0  0
 68 80  1  0  0  0
 71 72  1  0  0  0
 71 73  2  0  0  0
 71143  1  0  0  0
 72 75  1  0  0  0
 72 81  2  0  0  0
 73 76  1  0  0  0
 73 82  1  0  0  0
 74 82  1  0  0  0
 74144  1  0  0  0
 74145  1  0  0  0
 74146  1  0  0  0
 75 77  1  0  0  0
 75147  1  0  0  0
 75148  1  0  0  0
 76 78  1  0  0  0
 76149  1  0  0  0
 76150  1  0  0  0
 77 80  1  0  0  0
 77151  1  0  0  0
 77152  1  0  0  0
 78 79  1  0  0  0
 78153  1  0  0  0
 78154  1  0  0  0
 79 83  1  0  0  0
 79155  1  0  0  0
 79156  1  0  0  0
 80157  1  0  0  0
 80158  1  0  0  0
 81 82  1  0  0  0
 83159  1  0  0  0
M  ISO  4   1 100  68 101  80 101  83 100
M  END
> <chiral flag>
0

> <version>
0

> <s_m_source_file>
/data/baiqing/PycharmProjects/Reinvent-master-3.2/result/LINK_invent/BTK/process_docking_weight1_custom_sum_contain_oxygen_bond_distance_aromatic_linkinvent_7_9_3/rearranged_h_0043.sdf

> <i_m_source_file_index>
10

> <r_mmod_Potential_Energy-OPLS-2005>
-161.480987548828

> <r_mmod_Stretch_Energy-OPLS-2005>
27.7963409423828

> <r_mmod_Bend_Energy-OPLS-2005>
83.848503112793

> <r_mmod_Torsional_Energy-OPLS-2005>
232.602325439453

> <r_mmod_Improper_Torsional_Energy-OPLS-2005>
7.58270740509033

> <r_mmod_Van_der_Waal_Energy-OPLS-2005>
127.674499511719

> <r_mmod_Electrostatic_Energy-OPLS-2005>
-428.070251464844

> <r_mmod_Solvation_Energy-OPLS-2005>
-222.454208374023

> <b_mmod_Minimization_Converged-OPLS-2005>
0

> <r_mmod_RMS_Derivative-OPLS-2005>
2.21323537826538

$$$$
10
                    3D
 Structure written by MMmdl.
154162  0  0  1  0            999 V2000
  -30.4906  -14.9537   20.4328 C   0  0  0  0  0  0
  -30.4399  -12.5886   19.5253 C   0  0  0  0  0  0
  -29.5287  -12.5526   18.2761 C   0  0  0  0  0  0
  -28.0568  -12.3332   18.6752 C   0  0  0  0  0  0
  -27.6343  -13.2448   19.8597 C   0  0  2  0  0  0
  -28.6668  -13.2357   21.0066 C   0  0  0  0  0  0
  -25.2475  -13.8214   20.5814 C   0  0  0  0  0  0
  -24.1773  -13.0430   20.9256 C   0  0  0  0  0  0
  -24.6366  -11.6912   20.8747 C   0  0  0  0  0  0
  -23.9048  -10.4288   21.0371 C   0  0  0  0  0  0
  -24.3604   -9.4208   21.9139 C   0  0  0  0  0  0
  -23.6287   -8.2240   22.0724 C   0  0  0  0  0  0
  -22.4251   -8.0272   21.3532 C   0  0  0  0  0  0
  -21.9882   -9.0235   20.4609 C   0  0  0  0  0  0
  -22.7211  -10.2113   20.3018 C   0  0  0  0  0  0
  -21.6843   -6.0711   22.5278 C   0  0  0  0  0  0
  -21.4017   -6.5623   23.8219 C   0  0  0  0  0  0
  -21.3673   -5.6780   24.9180 C   0  0  0  0  0  0
  -21.6055   -4.3043   24.7234 C   0  0  0  0  0  0
  -21.8823   -3.8123   23.4348 C   0  0  0  0  0  0
  -21.9201   -4.6945   22.3407 C   0  0  0  0  0  0
  -22.7778  -13.5186   21.1886 C   0  0  0  0  0  0
  -22.1653   -4.2142   21.0970 F   0  0  0  0  0  0
  -21.5653   -3.4524   25.7736 F   0  0  0  0  0  0
  -29.9502  -13.6666   20.4352 N   0  0  0  0  0  0
  -26.2884  -12.9438   20.3314 N   0  0  0  0  0  0
  -25.9305  -11.6560   20.5740 N   0  0  0  0  0  0
  -22.0409  -12.8210   22.0426 N   0  0  0  0  0  0
  -25.4238  -15.1969   20.4439 N   0  0  0  0  0  0
  -31.6476  -15.0713   20.0148 O   0  0  0  0  0  0
  -21.6619   -6.8853   21.4239 O   0  0  0  0  0  0
  -22.3459  -14.5472   20.6687 O   0  0  0  0  0  0
  -24.6419  -31.8445   23.1824 C   0  0  0  0  0  0
  -25.9198  -32.4687   23.8212 C   0  0  1  0  0  0
  -27.2121  -27.1309   20.1597 C   0  0  0  0  0  0
  -25.5955  -33.8488   24.2156 N   0  0  0  0  0  0
  -23.4416  -30.4638   21.5277 C   0  0  2  0  0  0
  -24.8904  -28.8810   20.1045 C   0  0  0  0  0  0
  -22.7539  -29.4566   22.4838 C   0  0  0  0  0  0
  -18.0296  -28.1378   22.8508 C   0  0  0  0  0  0
  -24.1494  -36.7267   23.2635 C   0  0  0  0  0  0
  -25.9935  -30.7201   21.3730 C   0  0  0  0  0  0
  -26.0636  -29.3249   20.7270 C   0  0  0  0  0  0
  -27.2210  -28.4641   20.7391 C   0  0  0  0  0  0
  -26.0185  -26.7861   19.4908 C   0  0  0  0  0  0
  -24.8813  -27.6263   19.4696 C   0  0  0  0  0  0
  -23.6659  -29.7847   20.1479 C   0  0  0  0  0  0
  -25.4112  -36.3028   24.0327 C   0  0  1  0  0  0
  -20.5917  -28.3707   23.1247 C   0  0  2  0  0  0
  -20.6789  -26.9427   22.5397 C   0  0  0  0  0  0
  -19.5740  -26.6380   21.5210 C   0  0  0  0  0  0
  -18.1928  -26.7922   22.1632 C   0  0  0  0  0  0
  -19.1562  -28.8858   23.2878 C   0  0  0  0  0  0
  -18.9480  -30.1473   23.8890 C   0  0  0  0  0  0
  -17.6480  -30.6590   24.0569 C   0  0  0  0  0  0
  -25.9070  -34.9414   23.5054 C   0  0  0  0  0  0
  -16.5374  -29.9093   23.6319 C   0  0  0  0  0  0
  -16.7287  -28.6495   23.0363 C   0  0  0  0  0  0
  -26.4511  -31.6518   25.0639 C   0  0  0  0  0  0
  -25.3713  -31.3706   26.1348 C   0  0  0  0  0  0
  -27.0339  -30.2920   24.6158 C   0  0  0  0  0  0
  -27.6040  -32.4264   25.7458 C   0  0  0  0  0  0
  -27.5578  -37.1787   24.8455 C   0  0  0  0  0  0
  -21.4236  -29.3047   22.3608 N   0  0  0  0  0  0
  -26.4254  -37.3759   23.9433 N   0  0  0  0  0  0
  -24.7134  -31.0311   22.0844 N   0  0  0  0  0  0
  -23.4195  -28.8129   23.2990 O   0  0  0  0  0  0
  -28.2816  -26.1767   20.2886 O   0  0  0  0  0  0
  -26.5657  -34.8918   22.4639 O   0  0  0  0  0  0
  -23.5553  -32.1305   23.7078 O   0  0  0  0  0  0
  -27.2088  -21.5798   19.2216 C   0  0  0  0  0  0
  -28.2849  -21.9104   20.0668 C   0  0  0  0  0  0
  -28.0942  -23.3178   20.5729 C   0  0  0  0  0  0
  -25.8589  -23.0185   20.3868 C   0  0  0  0  0  0
  -24.4572  -23.4823   20.7426 C   0  0  0  0  0  0
  -28.7660  -20.5573   20.8983 C   0  0  0  0  0  0
  -28.3695  -24.7172   19.7437 C   0  0  0  0  0  0
  -29.5494  -19.1103   20.4134 C   0  0  0  0  0  0
  -29.3355  -17.4592   20.0059 C   0  0  0  0  0  0
  -25.9909  -22.1416   19.3944 N   0  0  0  0  0  0
  -26.8655  -23.5365   21.0812 N   0  0  0  0  0  0
  -29.6874  -16.0907   20.7411 N   0  0  0  0  0  0
  -31.4712  -12.7571   19.2120 H   0  0  0  0  0  0
  -30.4366  -11.6259   20.0375 H   0  0  0  0  0  0
  -29.8519  -11.7679   17.5942 H   0  0  0  0  0  0
  -29.6254  -13.4941   17.7345 H   0  0  0  0  0  0
  -27.9401  -11.2842   18.9518 H   0  0  0  0  0  0
  -27.3999  -12.4982   17.8217 H   0  0  0  0  0  0
  -27.6097  -14.2559   19.4568 H   0  0  0  0  0  0
  -28.7398  -12.2398   21.4459 H   0  0  0  0  0  0
  -28.3492  -13.9063   21.8067 H   0  0  0  0  0  0
  -25.2739   -9.5698   22.4730 H   0  0  0  0  0  0
  -24.0006   -7.4621   22.7442 H   0  0  0  0  0  0
  -21.0806   -8.8704   19.8911 H   0  0  0  0  0  0
  -22.3622  -10.9638   19.6136 H   0  0  0  0  0  0
  -21.1988   -7.6119   23.9730 H   0  0  0  0  0  0
  -21.1497   -6.0485   25.9097 H   0  0  0  0  0  0
  -22.0591   -2.7585   23.2843 H   0  0  0  0  0  0
  -22.4000  -11.9914   22.4899 H   0  0  0  0  0  0
  -21.1021  -13.1234   22.2603 H   0  0  0  0  0  0
  -24.6827  -15.8589   20.6484 H   0  0  0  0  0  0
  -26.3063  -15.6405   20.2337 H   0  0  0  0  0  0
  -26.7276  -32.5310   23.0946 H   0  0  0  0  0  0
  -25.0080  -33.9554   25.0293 H   0  0  0  0  0  0
  -22.7432  -31.2894   21.3713 H   0  0  0  0  0  0
  -23.3739  -35.9616   23.3264 H   0  0  0  0  0  0
  -24.3574  -36.8923   22.2054 H   0  0  0  0  0  0
  -23.7274  -37.6476   23.6676 H   0  0  0  0  0  0
  -26.1322  -31.4631   20.5874 H   0  0  0  0  0  0
  -26.8714  -30.7828   22.0048 H   0  0  0  0  0  0
  -28.1117  -28.7947   21.2537 H   0  0  0  0  0  0
  -25.9283  -25.8211   19.0143 H   0  0  0  0  0  0
  -23.9876  -27.2821   18.9665 H   0  0  0  0  0  0
  -23.8045  -30.5546   19.3872 H   0  0  0  0  0  0
  -22.7780  -29.2310   19.8366 H   0  0  0  0  0  0
  -25.1303  -36.1828   25.0819 H   0  0  0  0  0  0
  -21.0043  -28.3320   24.1347 H   0  0  0  0  0  0
  -20.5647  -26.2350   23.3620 H   0  0  0  0  0  0
  -21.6657  -26.7402   22.1224 H   0  0  0  0  0  0
  -19.6895  -25.6279   21.1253 H   0  0  0  0  0  0
  -19.6673  -27.3183   20.6744 H   0  0  0  0  0  0
  -17.4212  -26.6698   21.4035 H   0  0  0  0  0  0
  -18.0346  -26.0033   22.8998 H   0  0  0  0  0  0
  -19.7966  -30.7304   24.2248 H   0  0  0  0  0  0
  -17.5027  -31.6252   24.5193 H   0  0  0  0  0  0
  -15.5373  -30.2999   23.7604 H   0  0  0  0  0  0
  -15.8687  -28.0790   22.7089 H   0  0  0  0  0  0
  -24.5943  -30.6978   25.7713 H   0  0  0  0  0  0
  -24.8827  -32.2878   26.4658 H   0  0  0  0  0  0
  -25.8023  -30.9005   27.0196 H   0  0  0  0  0  0
  -26.2918  -29.6683   24.1169 H   0  0  0  0  0  0
  -27.3988  -29.7174   25.4678 H   0  0  0  0  0  0
  -27.8813  -30.4150   23.9407 H   0  0  0  0  0  0
  -27.2612  -33.3566   26.2000 H   0  0  0  0  0  0
  -28.3887  -32.6818   25.0322 H   0  0  0  0  0  0
  -28.0655  -31.8399   26.5407 H   0  0  0  0  0  0
  -28.2562  -38.0125   24.7555 H   0  0  0  0  0  0
  -28.1107  -36.2659   24.6191 H   0  0  0  0  0  0
  -27.2304  -37.1346   25.8858 H   0  0  0  0  0  0
  -20.9425  -29.8784   21.6828 H   0  0  0  0  0  0
  -26.0108  -38.2821   24.1453 H   0  0  0  0  0  0
  -27.1652  -20.6199   18.7263 H   0  0  0  0  0  0
  -23.8003  -23.4662   19.8710 H   0  0  0  0  0  0
  -24.4642  -24.5019   21.1258 H   0  0  0  0  0  0
  -24.0255  -22.8406   21.5131 H   0  0  0  0  0  0
  -27.8570  -20.2516   21.4266 H   0  0  0  0  0  0
  -29.3917  -20.9682   21.6910 H   0  0  0  0  0  0
  -29.4029  -24.6165   19.4091 H   0  0  0  0  0  0
  -27.7969  -24.6662   18.8165 H   0  0  0  0  0  0
  -28.8611  -19.2385   19.5779 H   0  0  0  0  0  0
  -29.2973  -18.7642   21.4159 H   0  0  0  0  0  0
  -28.2648  -17.3310   19.8186 H   0  0  0  0  0  0
  -29.7829  -17.3454   19.0173 H   0  0  0  0  0  0
  -28.9138  -15.7945   21.3202 H   0  0  0  0  0  0
  1 25  1  0  0  0
  1 30  2  0  0  0
  1 82  1  0  0  0
  2  3  1  0  0  0
  2 25  1  0  0  0
  2 83  1  0  0  0
  2 84  1  0  0  0
  3  4  1  0  0  0
  3 85  1  0  0  0
  3 86  1  0  0  0
  4  5  1  0  0  0
  4 87  1  0  0  0
  4 88  1  0  0  0
  5  6  1  0  0  0
  5 26  1  0  0  0
  5 89  1  0  0  0
  6 25  1  0  0  0
  6 90  1  0  0  0
  6 91  1  0  0  0
  7  8  2  0  0  0
  7 26  1  0  0  0
  7 29  1  0  0  0
  8  9  1  0  0  0
  8 22  1  0  0  0
  9 10  1  0  0  0
  9 27  2  0  0  0
 10 11  2  0  0  0
 10 15  1  0  0  0
 11 12  1  0  0  0
 11 92  1  0  0  0
 12 13  2  0  0  0
 12 93  1  0  0  0
 13 14  1  0  0  0
 13 31  1  0  0  0
 14 15  2  0  0  0
 14 94  1  0  0  0
 15 95  1  0  0  0
 16 17  2  0  0  0
 16 21  1  0  0  0
 16 31  1  0  0  0
 17 18  1  0  0  0
 17 96  1  0  0  0
 18 19  2  0  0  0
 18 97  1  0  0  0
 19 20  1  0  0  0
 19 24  1  0  0  0
 20 21  2  0  0  0
 20 98  1  0  0  0
 21 23  1  0  0  0
 22 28  1  0  0  0
 22 32  2  0  0  0
 26 27  1  0  0  0
 28 99  1  0  0  0
 28100  1  0  0  0
 29101  1  0  0  0
 29102  1  0  0  0
 33 34  1  0  0  0
 33 66  1  0  0  0
 33 70  2  0  0  0
 34 36  1  0  0  0
 34 59  1  0  0  0
 34103  1  0  0  0
 35 44  2  0  0  0
 35 45  1  0  0  0
 35 68  1  0  0  0
 36 56  1  0  0  0
 36104  1  0  0  0
 37 39  1  0  0  0
 37 47  1  0  0  0
 37 66  1  0  0  0
 37105  1  0  0  0
 38 43  2  0  0  0
 38 46  1  0  0  0
 38 47  1  0  0  0
 39 64  1  0  0  0
 39 67  2  0  0  0
 40 52  1  0  0  0
 40 53  2  0  0  0
 40 58  1  0  0  0
 41106  1  0  0  0
 41107  1  0  0  0
 41108  1  0  0  0
 41 48  1  0  0  0
 42 43  1  0  0  0
 42 66  1  0  0  0
 42109  1  0  0  0
 42110  1  0  0  0
 43 44  1  0  0  0
 44111  1  0  0  0
 45 46  2  0  0  0
 45112  1  0  0  0
 46113  1  0  0  0
 47114  1  0  0  0
 47115  1  0  0  0
 48 56  1  0  0  0
 48 65  1  0  0  0
 48116  1  0  0  0
 49 50  1  0  0  0
 49 53  1  0  0  0
 49 64  1  0  0  0
 49117  1  0  0  0
 50 51  1  0  0  0
 50118  1  0  0  0
 50119  1  0  0  0
 51 52  1  0  0  0
 51120  1  0  0  0
 51121  1  0  0  0
 52122  1  0  0  0
 52123  1  0  0  0
 53 54  1  0  0  0
 54 55  2  0  0  0
 54124  1  0  0  0
 55 57  1  0  0  0
 55125  1  0  0  0
 56 69  2  0  0  0
 57 58  2  0  0  0
 57126  1  0  0  0
 58127  1  0  0  0
 59 60  1  0  0  0
 59 61  1  0  0  0
 59 62  1  0  0  0
 60128  1  0  0  0
 60129  1  0  0  0
 60130  1  0  0  0
 61131  1  0  0  0
 61132  1  0  0  0
 61133  1  0  0  0
 62134  1  0  0  0
 62135  1  0  0  0
 62136  1  0  0  0
 63 65  1  0  0  0
 63137  1  0  0  0
 63138  1  0  0  0
 63139  1  0  0  0
 64140  1  0  0  0
 65141  1  0  0  0
 68 77  1  0  0  0
 71 72  2  0  0  0
 71 80  1  0  0  0
 71142  1  0  0  0
 72 73  1  0  0  0
 72 76  1  0  0  0
 73 77  1  0  0  0
 73 81  2  0  0  0
 74 75  1  0  0  0
 74 80  2  0  0  0
 74 81  1  0  0  0
 75143  1  0  0  0
 75144  1  0  0  0
 75145  1  0  0  0
 76 78  1  0  0  0
 76146  1  0  0  0
 76147  1  0  0  0
 77148  1  0  0  0
 77149  1  0  0  0
 78 79  1  0  0  0
 78150  1  0  0  0
 78151  1  0  0  0
 79 82  1  0  0  0
 79152  1  0  0  0
 79153  1  0  0  0
 82154  1  0  0  0
M  ISO  4   1 100  68 101  77 101  82 100
M  END
> <chiral flag>
0

> <version>
0

> <s_m_source_file>
/data/baiqing/PycharmProjects/Reinvent-master-3.2/result/LINK_invent/BTK/process_docking_weight1_custom_sum_contain_oxygen_bond_distance_aromatic_linkinvent_7_9_3/rearranged_h_0043.sdf

> <i_m_source_file_index>
11

> <r_mmod_Potential_Energy-OPLS-2005>
702.453674316406

> <r_mmod_Stretch_Energy-OPLS-2005>
294.285491943359

> <r_mmod_Bend_Energy-OPLS-2005>
595.961853027344

> <r_mmod_Torsional_Energy-OPLS-2005>
416.610687255859

> <r_mmod_Improper_Torsional_Energy-OPLS-2005>
37.5796775817871

> <r_mmod_Van_der_Waal_Energy-OPLS-2005>
141.336242675781

> <r_mmod_Electrostatic_Energy-OPLS-2005>
-734.362915039062

> <r_mmod_Solvation_Energy-OPLS-2005>
-246.166168212891

> <b_mmod_Minimization_Converged-OPLS-2005>
0

> <r_mmod_RMS_Derivative-OPLS-2005>
4.29059743881226

$$$$
11
                    3D
 Structure written by MMmdl.
168175  0  0  1  0            999 V2000
  -30.7595  -14.4118   20.6485 C   0  0  0  0  0  0
  -30.4162  -12.3032   19.4072 C   0  0  0  0  0  0
  -29.4869  -12.5167   18.1983 C   0  0  0  0  0  0
  -28.0114  -12.3731   18.6163 C   0  0  0  0  0  0
  -27.6623  -13.2089   19.8763 C   0  0  2  0  0  0
  -28.7037  -12.9798   20.9942 C   0  0  0  0  0  0
  -25.2581  -13.8165   20.5684 C   0  0  0  0  0  0
  -24.1832  -13.0435   20.9167 C   0  0  0  0  0  0
  -24.6387  -11.6908   20.8722 C   0  0  0  0  0  0
  -23.9051  -10.4291   21.0390 C   0  0  0  0  0  0
  -24.3603   -9.4215   21.9176 C   0  0  0  0  0  0
  -23.6287   -8.2249   22.0754 C   0  0  0  0  0  0
  -22.4270   -8.0272   21.3545 C   0  0  0  0  0  0
  -21.9896   -9.0244   20.4647 C   0  0  0  0  0  0
  -22.7221  -10.2126   20.3050 C   0  0  0  0  0  0
  -21.6846   -6.0728   22.5277 C   0  0  0  0  0  0
  -21.4011   -6.5633   23.8209 C   0  0  0  0  0  0
  -21.3670   -5.6790   24.9177 C   0  0  0  0  0  0
  -21.6043   -4.3052   24.7231 C   0  0  0  0  0  0
  -21.8822   -3.8141   23.4351 C   0  0  0  0  0  0
  -21.9197   -4.6955   22.3407 C   0  0  0  0  0  0
  -22.7851  -13.5225   21.1847 C   0  0  0  0  0  0
  -22.1659   -4.2137   21.0986 F   0  0  0  0  0  0
  -21.5640   -3.4545   25.7749 F   0  0  0  0  0  0
  -30.0409  -13.2744   20.4473 N   0  0  0  0  0  0
  -26.3025  -12.9341   20.3373 N   0  0  0  0  0  0
  -25.9317  -11.6491   20.5752 N   0  0  0  0  0  0
  -22.0504  -12.8216   22.0409 N   0  0  0  0  0  0
  -25.4305  -15.1882   20.4121 N   0  0  0  0  0  0
  -31.8258  -14.6443   20.0725 O   0  0  0  0  0  0
  -21.6636   -6.8868   21.4236 O   0  0  0  0  0  0
  -22.3536  -14.5542   20.6711 O   0  0  0  0  0  0
  -24.6118  -31.8714   23.2108 C   0  0  0  0  0  0
  -25.9009  -32.4841   23.8406 C   0  0  1  0  0  0
  -27.2243  -27.4325   20.0940 C   0  0  0  0  0  0
  -25.5869  -33.8640   24.2316 N   0  0  0  0  0  0
  -23.3989  -30.4959   21.5549 C   0  0  2  0  0  0
  -24.8411  -28.9661   20.1187 C   0  0  0  0  0  0
  -22.7393  -29.4669   22.5014 C   0  0  0  0  0  0
  -18.0264  -28.1379   22.8483 C   0  0  0  0  0  0
  -24.1474  -36.7333   23.2637 C   0  0  0  0  0  0
  -25.9286  -30.8363   21.3638 C   0  0  0  0  0  0
  -26.0043  -29.4711   20.7111 C   0  0  0  0  0  0
  -27.1998  -28.7147   20.6920 C   0  0  0  0  0  0
  -26.0369  -26.9485   19.4922 C   0  0  0  0  0  0
  -24.8527  -27.7035   19.5082 C   0  0  0  0  0  0
  -23.6036  -29.8321   20.1688 C   0  0  0  0  0  0
  -25.4103  -36.3130   24.0330 C   0  0  1  0  0  0
  -20.5849  -28.3665   23.1331 C   0  0  2  0  0  0
  -20.6764  -26.9407   22.5422 C   0  0  0  0  0  0
  -19.5740  -26.6392   21.5211 C   0  0  0  0  0  0
  -18.1916  -26.7929   22.1612 C   0  0  0  0  0  0
  -19.1512  -28.8834   23.2903 C   0  0  0  0  0  0
  -18.9455  -30.1450   23.8895 C   0  0  0  0  0  0
  -17.6462  -30.6585   24.0562 C   0  0  0  0  0  0
  -25.9035  -34.9496   23.5132 C   0  0  0  0  0  0
  -16.5352  -29.9084   23.6327 C   0  0  0  0  0  0
  -16.7260  -28.6512   23.0330 C   0  0  0  0  0  0
  -26.4422  -31.6628   25.0743 C   0  0  0  0  0  0
  -25.3666  -31.3727   26.1484 C   0  0  0  0  0  0
  -27.0259  -30.3073   24.6130 C   0  0  0  0  0  0
  -27.6017  -32.4346   25.7490 C   0  0  0  0  0  0
  -27.5579  -37.1814   24.8458 C   0  0  0  0  0  0
  -21.4125  -29.3045   22.3752 N   0  0  0  0  0  0
  -26.4287  -37.3824   23.9411 N   0  0  0  0  0  0
  -24.6655  -31.0804   22.1021 N   0  0  0  0  0  0
  -23.4173  -28.8210   23.3051 O   0  0  0  0  0  0
  -28.4037  -26.7130   20.0955 O   0  0  0  0  0  0
  -26.5611  -34.8933   22.4703 O   0  0  0  0  0  0
  -23.5318  -32.1490   23.7484 O   0  0  0  0  0  0
  -31.5344  -23.8355   18.3492 C   0  0  0  0  0  0
  -29.2346  -24.1099   17.3925 C   0  0  0  0  0  0
  -30.5781  -26.1184   18.0812 C   0  0  0  0  0  0
  -29.9695  -18.8507   21.7834 C   0  0  0  0  0  0
  -30.2388  -20.2540   21.1882 C   0  0  0  0  0  0
  -30.8671  -17.7358   21.1995 C   0  0  0  0  0  0
  -29.3641  -21.3550   21.8270 C   0  0  0  0  0  0
  -30.9417  -16.4578   22.0735 C   0  0  0  0  0  0
  -29.8037  -22.8027   21.5250 C   0  0  0  0  0  0
  -28.3113  -25.2793   20.1284 C   0  0  0  0  0  0
  -29.6669  -24.5605   19.8909 C   0  0  2  0  0  0
  -30.2314  -24.6588   18.4378 C   0  0  0  0  0  0
  -30.2436  -15.2888   21.5244 N   0  0  0  0  0  0
  -29.4877  -23.1683   20.1863 O   0  0  0  0  0  0
  -31.4605  -12.3957   19.1036 H   0  0  0  0  0  0
  -30.3109  -11.2883   19.7945 H   0  0  0  0  0  0
  -29.7219  -11.8000   17.4101 H   0  0  0  0  0  0
  -29.6561  -13.5073   17.7731 H   0  0  0  0  0  0
  -27.8247  -11.3162   18.8118 H   0  0  0  0  0  0
  -27.3568  -12.6486   17.7882 H   0  0  0  0  0  0
  -27.7110  -14.2589   19.5863 H   0  0  0  0  0  0
  -28.6741  -11.9419   21.3290 H   0  0  0  0  0  0
  -28.4555  -13.5734   21.8743 H   0  0  0  0  0  0
  -25.2744   -9.5697   22.4749 H   0  0  0  0  0  0
  -23.9997   -7.4641   22.7478 H   0  0  0  0  0  0
  -21.0822   -8.8759   19.8955 H   0  0  0  0  0  0
  -22.3670  -10.9661   19.6158 H   0  0  0  0  0  0
  -21.1993   -7.6141   23.9707 H   0  0  0  0  0  0
  -21.1490   -6.0527   25.9078 H   0  0  0  0  0  0
  -22.0594   -2.7604   23.2865 H   0  0  0  0  0  0
  -22.4122  -11.9865   22.4777 H   0  0  0  0  0  0
  -21.1127  -13.1239   22.2639 H   0  0  0  0  0  0
  -24.6683  -15.8480   20.5259 H   0  0  0  0  0  0
  -26.2946  -15.6281   20.1197 H   0  0  0  0  0  0
  -26.7091  -32.5527   23.1183 H   0  0  0  0  0  0
  -24.9943  -33.9832   25.0407 H   0  0  0  0  0  0
  -22.6882  -31.3129   21.4185 H   0  0  0  0  0  0
  -23.3745  -35.9653   23.3313 H   0  0  0  0  0  0
  -24.3552  -36.8958   22.2050 H   0  0  0  0  0  0
  -23.7235  -37.6544   23.6647 H   0  0  0  0  0  0
  -26.0351  -31.5999   20.5922 H   0  0  0  0  0  0
  -26.8199  -30.8921   21.9769 H   0  0  0  0  0  0
  -28.1011  -29.1072   21.1423 H   0  0  0  0  0  0
  -25.9859  -26.0005   18.9823 H   0  0  0  0  0  0
  -23.9581  -27.3099   19.0441 H   0  0  0  0  0  0
  -23.7092  -30.6088   19.4107 H   0  0  0  0  0  0
  -22.7277  -29.2511   19.8727 H   0  0  0  0  0  0
  -25.1275  -36.2007   25.0821 H   0  0  0  0  0  0
  -20.9902  -28.3256   24.1466 H   0  0  0  0  0  0
  -20.5685  -26.2274   23.3611 H   0  0  0  0  0  0
  -21.6638  -26.7473   22.1206 H   0  0  0  0  0  0
  -19.6887  -25.6307   21.1231 H   0  0  0  0  0  0
  -19.6665  -27.3212   20.6751 H   0  0  0  0  0  0
  -17.4186  -26.6664   21.4017 H   0  0  0  0  0  0
  -18.0330  -26.0079   22.9016 H   0  0  0  0  0  0
  -19.7948  -30.7257   24.2258 H   0  0  0  0  0  0
  -17.5033  -31.6264   24.5168 H   0  0  0  0  0  0
  -15.5360  -30.2975   23.7681 H   0  0  0  0  0  0
  -15.8666  -28.0845   22.7005 H   0  0  0  0  0  0
  -24.5840  -30.7075   25.7817 H   0  0  0  0  0  0
  -24.8813  -32.2860   26.4934 H   0  0  0  0  0  0
  -25.7991  -30.8897   27.0253 H   0  0  0  0  0  0
  -26.2819  -29.6854   24.1139 H   0  0  0  0  0  0
  -27.3998  -29.7291   25.4597 H   0  0  0  0  0  0
  -27.8647  -30.4421   23.9298 H   0  0  0  0  0  0
  -27.2674  -33.3659   26.2074 H   0  0  0  0  0  0
  -28.3800  -32.6913   25.0286 H   0  0  0  0  0  0
  -28.0693  -31.8463   26.5401 H   0  0  0  0  0  0
  -28.2606  -38.0107   24.7544 H   0  0  0  0  0  0
  -28.1079  -36.2658   24.6247 H   0  0  0  0  0  0
  -27.2289  -37.1426   25.8857 H   0  0  0  0  0  0
  -20.9278  -29.8773   21.6981 H   0  0  0  0  0  0
  -26.0191  -38.2897   24.1443 H   0  0  0  0  0  0
  -32.0043  -23.9358   17.3701 H   0  0  0  0  0  0
  -31.3512  -22.7725   18.5109 H   0  0  0  0  0  0
  -32.2616  -24.1590   19.0951 H   0  0  0  0  0  0
  -29.6849  -24.0645   16.4003 H   0  0  0  0  0  0
  -28.3432  -24.7316   17.3054 H   0  0  0  0  0  0
  -28.9048  -23.1019   17.6453 H   0  0  0  0  0  0
  -31.0887  -26.1855   17.1205 H   0  0  0  0  0  0
  -31.2349  -26.5647   18.8292 H   0  0  0  0  0  0
  -29.6881  -26.7437   18.0060 H   0  0  0  0  0  0
  -28.9201  -18.5801   21.6526 H   0  0  0  0  0  0
  -30.1337  -18.9075   22.8611 H   0  0  0  0  0  0
  -30.0861  -20.2418   20.1080 H   0  0  0  0  0  0
  -31.2890  -20.5049   21.3457 H   0  0  0  0  0  0
  -31.8806  -18.1329   21.1211 H   0  0  0  0  0  0
  -30.5711  -17.5008   20.1759 H   0  0  0  0  0  0
  -29.3896  -21.2285   22.9098 H   0  0  0  0  0  0
  -28.3212  -21.2179   21.5381 H   0  0  0  0  0  0
  -30.5509  -16.6514   23.0733 H   0  0  0  0  0  0
  -31.9914  -16.1984   22.2278 H   0  0  0  0  0  0
  -30.8738  -22.9236   21.7024 H   0  0  0  0  0  0
  -29.2923  -23.4748   22.2154 H   0  0  0  0  0  0
  -27.9235  -25.0165   21.1131 H   0  0  0  0  0  0
  -27.6046  -24.8694   19.4150 H   0  0  0  0  0  0
  -30.4100  -24.9849   20.5693 H   0  0  0  0  0  0
  -29.3528  -15.0471   21.9328 H   0  0  0  0  0  0
  1 25  1  0  0  0
  1 30  2  0  0  0
  1 83  1  0  0  0
  2  3  1  0  0  0
  2 25  1  0  0  0
  2 85  1  0  0  0
  2 86  1  0  0  0
  3  4  1  0  0  0
  3 87  1  0  0  0
  3 88  1  0  0  0
  4  5  1  0  0  0
  4 89  1  0  0  0
  4 90  1  0  0  0
  5  6  1  0  0  0
  5 26  1  0  0  0
  5 91  1  0  0  0
  6 25  1  0  0  0
  6 92  1  0  0  0
  6 93  1  0  0  0
  7  8  2  0  0  0
  7 26  1  0  0  0
  7 29  1  0  0  0
  8  9  1  0  0  0
  8 22  1  0  0  0
  9 10  1  0  0  0
  9 27  2  0  0  0
 10 11  2  0  0  0
 10 15  1  0  0  0
 11 12  1  0  0  0
 11 94  1  0  0  0
 12 13  2  0  0  0
 12 95  1  0  0  0
 13 14  1  0  0  0
 13 31  1  0  0  0
 14 15  2  0  0  0
 14 96  1  0  0  0
 15 97  1  0  0  0
 16 17  2  0  0  0
 16 21  1  0  0  0
 16 31  1  0  0  0
 17 18  1  0  0  0
 17 98  1  0  0  0
 18 19  2  0  0  0
 18 99  1  0  0  0
 19 20  1  0  0  0
 19 24  1  0  0  0
 20 21  2  0  0  0
 20100  1  0  0  0
 21 23  1  0  0  0
 22 28  1  0  0  0
 22 32  2  0  0  0
 26 27  1  0  0  0
 28101  1  0  0  0
 28102  1  0  0  0
 29103  1  0  0  0
 29104  1  0  0  0
 33 34  1  0  0  0
 33 66  1  0  0  0
 33 70  2  0  0  0
 34 36  1  0  0  0
 34 59  1  0  0  0
 34105  1  0  0  0
 35 44  2  0  0  0
 35 45  1  0  0  0
 35 68  1  0  0  0
 36 56  1  0  0  0
 36106  1  0  0  0
 37 39  1  0  0  0
 37 47  1  0  0  0
 37 66  1  0  0  0
 37107  1  0  0  0
 38 43  2  0  0  0
 38 46  1  0  0  0
 38 47  1  0  0  0
 39 64  1  0  0  0
 39 67  2  0  0  0
 40 52  1  0  0  0
 40 53  2  0  0  0
 40 58  1  0  0  0
 41108  1  0  0  0
 41109  1  0  0  0
 41110  1  0  0  0
 41 48  1  0  0  0
 42 43  1  0  0  0
 42 66  1  0  0  0
 42111  1  0  0  0
 42112  1  0  0  0
 43 44  1  0  0  0
 44113  1  0  0  0
 45 46  2  0  0  0
 45114  1  0  0  0
 46115  1  0  0  0
 47116  1  0  0  0
 47117  1  0  0  0
 48 56  1  0  0  0
 48 65  1  0  0  0
 48118  1  0  0  0
 49 50  1  0  0  0
 49 53  1  0  0  0
 49 64  1  0  0  0
 49119  1  0  0  0
 50 51  1  0  0  0
 50120  1  0  0  0
 50121  1  0  0  0
 51 52  1  0  0  0
 51122  1  0  0  0
 51123  1  0  0  0
 52124  1  0  0  0
 52125  1  0  0  0
 53 54  1  0  0  0
 54 55  2  0  0  0
 54126  1  0  0  0
 55 57  1  0  0  0
 55127  1  0  0  0
 56 69  2  0  0  0
 57 58  2  0  0  0
 57128  1  0  0  0
 58129  1  0  0  0
 59 60  1  0  0  0
 59 61  1  0  0  0
 59 62  1  0  0  0
 60130  1  0  0  0
 60131  1  0  0  0
 60132  1  0  0  0
 61133  1  0  0  0
 61134  1  0  0  0
 61135  1  0  0  0
 62136  1  0  0  0
 62137  1  0  0  0
 62138  1  0  0  0
 63 65  1  0  0  0
 63139  1  0  0  0
 63140  1  0  0  0
 63141  1  0  0  0
 64142  1  0  0  0
 65143  1  0  0  0
 68 80  1  0  0  0
 71144  1  0  0  0
 71145  1  0  0  0
 71146  1  0  0  0
 71 82  1  0  0  0
 72 82  1  0  0  0
 72147  1  0  0  0
 72148  1  0  0  0
 72149  1  0  0  0
 73 82  1  0  0  0
 73150  1  0  0  0
 73151  1  0  0  0
 73152  1  0  0  0
 74 75  1  0  0  0
 74 76  1  0  0  0
 74153  1  0  0  0
 74154  1  0  0  0
 75 77  1  0  0  0
 75155  1  0  0  0
 75156  1  0  0  0
 76 78  1  0  0  0
 76157  1  0  0  0
 76158  1  0  0  0
 77 79  1  0  0  0
 77159  1  0  0  0
 77160  1  0  0  0
 78 83  1  0  0  0
 78161  1  0  0  0
 78162  1  0  0  0
 79 84  1  0  0  0
 79163  1  0  0  0
 79164  1  0  0  0
 80165  1  0  0  0
 80166  1  0  0  0
 80 81  1  0  0  0
 81 82  1  0  0  0
 81 84  1  0  0  0
 81167  1  0  0  0
 83168  1  0  0  0
M  ISO  4   1 100  68 101  80 101  83 100
M  END
> <chiral flag>
0

> <version>
0

> <s_m_source_file>
/data/baiqing/PycharmProjects/Reinvent-master-3.2/result/LINK_invent/BTK/process_docking_weight1_custom_sum_contain_oxygen_bond_distance_aromatic_linkinvent_7_9_3/rearranged_h_0043.sdf

> <i_m_source_file_index>
12

> <r_mmod_Potential_Energy-OPLS-2005>
-30.6447830200195

> <r_mmod_Stretch_Energy-OPLS-2005>
36.5682983398438

> <r_mmod_Bend_Energy-OPLS-2005>
104.391830444336

> <r_mmod_Torsional_Energy-OPLS-2005>
227.566543579102

> <r_mmod_Improper_Torsional_Energy-OPLS-2005>
1.7779895067215

> <r_mmod_Van_der_Waal_Energy-OPLS-2005>
141.150146484375

> <r_mmod_Electrostatic_Energy-OPLS-2005>
-359.066192626953

> <r_mmod_Solvation_Energy-OPLS-2005>
-192.772720336914

> <b_mmod_Minimization_Converged-OPLS-2005>
0

> <r_mmod_RMS_Derivative-OPLS-2005>
1.98733854293823

$$$$
12
                    3D
 Structure written by MMmdl.
158166  0  0  1  0            999 V2000
  -30.7174  -14.3912   20.6342 C   0  0  0  0  0  0
  -30.4263  -12.2785   19.3992 C   0  0  0  0  0  0
  -29.4926  -12.5223   18.1962 C   0  0  0  0  0  0
  -28.0123  -12.3903   18.6071 C   0  0  0  0  0  0
  -27.6718  -13.1982   19.8874 C   0  0  2  0  0  0
  -28.7089  -12.9139   20.9975 C   0  0  0  0  0  0
  -25.2628  -13.8152   20.5682 C   0  0  0  0  0  0
  -24.1866  -13.0442   20.9167 C   0  0  0  0  0  0
  -24.6408  -11.6903   20.8728 C   0  0  0  0  0  0
  -23.9067  -10.4298   21.0406 C   0  0  0  0  0  0
  -24.3621   -9.4209   21.9181 C   0  0  0  0  0  0
  -23.6299   -8.2246   22.0750 C   0  0  0  0  0  0
  -22.4273   -8.0288   21.3546 C   0  0  0  0  0  0
  -21.9912   -9.0261   20.4640 C   0  0  0  0  0  0
  -22.7244  -10.2143   20.3050 C   0  0  0  0  0  0
  -21.6847   -6.0745   22.5280 C   0  0  0  0  0  0
  -21.4012   -6.5646   23.8217 C   0  0  0  0  0  0
  -21.3661   -5.6794   24.9176 C   0  0  0  0  0  0
  -21.6045   -4.3058   24.7221 C   0  0  0  0  0  0
  -21.8818   -3.8155   23.4341 C   0  0  0  0  0  0
  -21.9196   -4.6975   22.3401 C   0  0  0  0  0  0
  -22.7888  -13.5242   21.1840 C   0  0  0  0  0  0
  -22.1662   -4.2165   21.0978 F   0  0  0  0  0  0
  -21.5632   -3.4537   25.7733 F   0  0  0  0  0  0
  -30.0509  -13.2205   20.4635 N   0  0  0  0  0  0
  -26.3073  -12.9309   20.3405 N   0  0  0  0  0  0
  -25.9333  -11.6473   20.5755 N   0  0  0  0  0  0
  -22.0521  -12.8240   22.0389 N   0  0  0  0  0  0
  -25.4379  -15.1870   20.4111 N   0  0  0  0  0  0
  -31.7787  -14.6669   20.0651 O   0  0  0  0  0  0
  -21.6633   -6.8890   21.4245 O   0  0  0  0  0  0
  -22.3578  -14.5555   20.6694 O   0  0  0  0  0  0
  -24.6124  -31.8688   23.2096 C   0  0  0  0  0  0
  -25.9025  -32.4831   23.8399 C   0  0  1  0  0  0
  -27.2423  -27.4617   20.0903 C   0  0  0  0  0  0
  -25.5883  -33.8624   24.2337 N   0  0  0  0  0  0
  -23.3986  -30.4894   21.5513 C   0  0  2  0  0  0
  -24.8451  -28.9532   20.1188 C   0  0  0  0  0  0
  -22.7392  -29.4649   22.5019 C   0  0  0  0  0  0
  -18.0254  -28.1346   22.8483 C   0  0  0  0  0  0
  -24.1483  -36.7325   23.2643 C   0  0  0  0  0  0
  -25.9221  -30.8448   21.3529 C   0  0  0  0  0  0
  -26.0029  -29.4788   20.7051 C   0  0  0  0  0  0
  -27.2054  -28.7418   20.6817 C   0  0  0  0  0  0
  -26.0662  -26.9361   19.5105 C   0  0  0  0  0  0
  -24.8701  -27.6798   19.5199 C   0  0  0  0  0  0
  -23.6041  -29.8163   20.1673 C   0  0  0  0  0  0
  -25.4099  -36.3116   24.0349 C   0  0  1  0  0  0
  -20.5842  -28.3625   23.1322 C   0  0  2  0  0  0
  -20.6736  -26.9364   22.5409 C   0  0  0  0  0  0
  -19.5725  -26.6357   21.5191 C   0  0  0  0  0  0
  -18.1906  -26.7894   22.1610 C   0  0  0  0  0  0
  -19.1507  -28.8800   23.2896 C   0  0  0  0  0  0
  -18.9446  -30.1412   23.8899 C   0  0  0  0  0  0
  -17.6452  -30.6562   24.0543 C   0  0  0  0  0  0
  -25.9019  -34.9481   23.5139 C   0  0  0  0  0  0
  -16.5337  -29.9068   23.6309 C   0  0  0  0  0  0
  -16.7248  -28.6478   23.0336 C   0  0  0  0  0  0
  -26.4461  -31.6605   25.0719 C   0  0  0  0  0  0
  -25.3745  -31.3692   26.1492 C   0  0  0  0  0  0
  -27.0283  -30.3057   24.6041 C   0  0  0  0  0  0
  -27.6045  -32.4322   25.7474 C   0  0  0  0  0  0
  -27.5577  -37.1814   24.8465 C   0  0  0  0  0  0
  -21.4119  -29.3014   22.3762 N   0  0  0  0  0  0
  -26.4285  -37.3794   23.9422 N   0  0  0  0  0  0
  -24.6634  -31.0812   22.0977 N   0  0  0  0  0  0
  -23.4175  -28.8184   23.3045 O   0  0  0  0  0  0
  -28.4347  -26.7785   20.0679 O   0  0  0  0  0  0
  -26.5585  -34.8935   22.4700 O   0  0  0  0  0  0
  -23.5319  -32.1425   23.7508 O   0  0  0  0  0  0
  -29.8073  -23.3394   22.7945 C   0  0  0  0  0  0
  -29.8943  -23.6180   21.4510 C   0  0  0  0  0  0
  -30.2017  -21.2352   22.0114 C   0  0  0  0  0  0
  -29.5769  -24.3172   23.9052 C   0  0  0  0  0  0
  -29.8100  -24.9657   20.7999 C   0  0  0  0  0  0
  -30.4421  -19.7610   22.0726 C   0  0  0  0  0  0
  -29.1444  -18.9370   22.0454 C   0  0  0  0  0  0
  -29.3390  -17.4371   22.3348 C   0  0  0  0  0  0
  -30.2967  -16.7252   21.3619 C   0  0  0  0  0  0
  -28.3896  -25.3924   20.3974 C   0  0  0  0  0  0
  -29.9788  -21.9850   23.0941 N   0  0  0  0  0  0
  -30.0750  -15.2860   21.3923 N   0  0  0  0  0  0
  -30.1441  -22.1626   20.5154 S   0  0  0  0  0  0
  -31.4697  -12.3880   19.0971 H   0  0  0  0  0  0
  -30.3283  -11.2522   19.7564 H   0  0  0  0  0  0
  -29.7205  -11.8200   17.3936 H   0  0  0  0  0  0
  -29.6719  -13.5189   17.7894 H   0  0  0  0  0  0
  -27.8054  -11.3322   18.7709 H   0  0  0  0  0  0
  -27.3658  -12.7031   17.7861 H   0  0  0  0  0  0
  -27.7366  -14.2558   19.6307 H   0  0  0  0  0  0
  -28.6707  -11.8625   21.2853 H   0  0  0  0  0  0
  -28.4652  -13.4628   21.9075 H   0  0  0  0  0  0
  -25.2770   -9.5686   22.4747 H   0  0  0  0  0  0
  -24.0011   -7.4635   22.7464 H   0  0  0  0  0  0
  -21.0844   -8.8786   19.8938 H   0  0  0  0  0  0
  -22.3709  -10.9687   19.6153 H   0  0  0  0  0  0
  -21.1994   -7.6151   23.9728 H   0  0  0  0  0  0
  -21.1484   -6.0519   25.9084 H   0  0  0  0  0  0
  -22.0597   -2.7618   23.2832 H   0  0  0  0  0  0
  -22.4126  -11.9888   22.4769 H   0  0  0  0  0  0
  -21.1138  -13.1272   22.2586 H   0  0  0  0  0  0
  -24.6764  -15.8469   20.5248 H   0  0  0  0  0  0
  -26.2992  -15.6251   20.1088 H   0  0  0  0  0  0
  -26.7104  -32.5548   23.1177 H   0  0  0  0  0  0
  -25.0050  -33.9780   25.0495 H   0  0  0  0  0  0
  -22.6859  -31.3042   21.4113 H   0  0  0  0  0  0
  -23.3732  -35.9672   23.3314 H   0  0  0  0  0  0
  -24.3568  -36.8926   22.2052 H   0  0  0  0  0  0
  -23.7253  -37.6544   23.6643 H   0  0  0  0  0  0
  -26.0193  -31.6083   20.5807 H   0  0  0  0  0  0
  -26.8154  -30.9057   21.9632 H   0  0  0  0  0  0
  -28.1051  -29.1491   21.1217 H   0  0  0  0  0  0
  -26.0720  -25.9649   19.0366 H   0  0  0  0  0  0
  -23.9790  -27.2694   19.0644 H   0  0  0  0  0  0
  -23.7057  -30.5884   19.4042 H   0  0  0  0  0  0
  -22.7290  -29.2322   19.8764 H   0  0  0  0  0  0
  -25.1266  -36.1985   25.0840 H   0  0  0  0  0  0
  -20.9914  -28.3177   24.1450 H   0  0  0  0  0  0
  -20.5589  -26.2239   23.3596 H   0  0  0  0  0  0
  -21.6617  -26.7379   22.1237 H   0  0  0  0  0  0
  -19.6882  -25.6270   21.1212 H   0  0  0  0  0  0
  -19.6669  -27.3177   20.6731 H   0  0  0  0  0  0
  -17.4168  -26.6626   21.4019 H   0  0  0  0  0  0
  -18.0314  -26.0023   22.8993 H   0  0  0  0  0  0
  -19.7931  -30.7199   24.2291 H   0  0  0  0  0  0
  -17.5018  -31.6248   24.5138 H   0  0  0  0  0  0
  -15.5338  -30.2971   23.7632 H   0  0  0  0  0  0
  -15.8644  -28.0801   22.7048 H   0  0  0  0  0  0
  -24.5920  -30.7021   25.7858 H   0  0  0  0  0  0
  -24.8927  -32.2834   26.4957 H   0  0  0  0  0  0
  -25.8125  -30.8869   27.0240 H   0  0  0  0  0  0
  -26.2794  -29.6826   24.1132 H   0  0  0  0  0  0
  -27.4124  -29.7278   25.4457 H   0  0  0  0  0  0
  -27.8596  -30.4402   23.9121 H   0  0  0  0  0  0
  -27.2665  -33.3608   26.2083 H   0  0  0  0  0  0
  -28.3835  -32.6904   25.0293 H   0  0  0  0  0  0
  -28.0740  -31.8429   26.5365 H   0  0  0  0  0  0
  -28.2604  -38.0098   24.7493 H   0  0  0  0  0  0
  -28.1056  -36.2627   24.6299 H   0  0  0  0  0  0
  -27.2290  -37.1486   25.8866 H   0  0  0  0  0  0
  -20.9271  -29.8784   21.7034 H   0  0  0  0  0  0
  -26.0176  -38.2877   24.1411 H   0  0  0  0  0  0
  -30.4464  -24.9578   24.0507 H   0  0  0  0  0  0
  -29.3779  -23.8150   24.8525 H   0  0  0  0  0  0
  -28.7248  -24.9624   23.6922 H   0  0  0  0  0  0
  -30.4564  -24.9903   19.9216 H   0  0  0  0  0  0
  -30.2203  -25.7124   21.4813 H   0  0  0  0  0  0
  -31.0056  -19.5420   22.9805 H   0  0  0  0  0  0
  -31.0822  -19.4840   21.2347 H   0  0  0  0  0  0
  -28.6480  -19.0671   21.0827 H   0  0  0  0  0  0
  -28.4569  -19.3363   22.7931 H   0  0  0  0  0  0
  -28.3571  -16.9629   22.2941 H   0  0  0  0  0  0
  -29.6938  -17.3010   23.3582 H   0  0  0  0  0  0
  -31.3354  -16.9529   21.6080 H   0  0  0  0  0  0
  -30.1257  -17.0751   20.3414 H   0  0  0  0  0  0
  -28.0334  -24.7929   19.5593 H   0  0  0  0  0  0
  -27.7097  -25.2308   21.2373 H   0  0  0  0  0  0
  -29.2413  -14.9562   21.8553 H   0  0  0  0  0  0
  1 25  1  0  0  0
  1 30  2  0  0  0
  1 82  1  0  0  0
  2  3  1  0  0  0
  2 25  1  0  0  0
  2 84  1  0  0  0
  2 85  1  0  0  0
  3  4  1  0  0  0
  3 86  1  0  0  0
  3 87  1  0  0  0
  4  5  1  0  0  0
  4 88  1  0  0  0
  4 89  1  0  0  0
  5  6  1  0  0  0
  5 26  1  0  0  0
  5 90  1  0  0  0
  6 25  1  0  0  0
  6 91  1  0  0  0
  6 92  1  0  0  0
  7  8  2  0  0  0
  7 26  1  0  0  0
  7 29  1  0  0  0
  8  9  1  0  0  0
  8 22  1  0  0  0
  9 10  1  0  0  0
  9 27  2  0  0  0
 10 11  2  0  0  0
 10 15  1  0  0  0
 11 12  1  0  0  0
 11 93  1  0  0  0
 12 13  2  0  0  0
 12 94  1  0  0  0
 13 14  1  0  0  0
 13 31  1  0  0  0
 14 15  2  0  0  0
 14 95  1  0  0  0
 15 96  1  0  0  0
 16 17  2  0  0  0
 16 21  1  0  0  0
 16 31  1  0  0  0
 17 18  1  0  0  0
 17 97  1  0  0  0
 18 19  2  0  0  0
 18 98  1  0  0  0
 19 20  1  0  0  0
 19 24  1  0  0  0
 20 21  2  0  0  0
 20 99  1  0  0  0
 21 23  1  0  0  0
 22 28  1  0  0  0
 22 32  2  0  0  0
 26 27  1  0  0  0
 28100  1  0  0  0
 28101  1  0  0  0
 29102  1  0  0  0
 29103  1  0  0  0
 33 34  1  0  0  0
 33 66  1  0  0  0
 33 70  2  0  0  0
 34 36  1  0  0  0
 34 59  1  0  0  0
 34104  1  0  0  0
 35 44  2  0  0  0
 35 45  1  0  0  0
 35 68  1  0  0  0
 36 56  1  0  0  0
 36105  1  0  0  0
 37 39  1  0  0  0
 37 47  1  0  0  0
 37 66  1  0  0  0
 37106  1  0  0  0
 38 43  2  0  0  0
 38 46  1  0  0  0
 38 47  1  0  0  0
 39 64  1  0  0  0
 39 67  2  0  0  0
 40 52  1  0  0  0
 40 53  2  0  0  0
 40 58  1  0  0  0
 41107  1  0  0  0
 41108  1  0  0  0
 41109  1  0  0  0
 41 48  1  0  0  0
 42 43  1  0  0  0
 42 66  1  0  0  0
 42110  1  0  0  0
 42111  1  0  0  0
 43 44  1  0  0  0
 44112  1  0  0  0
 45 46  2  0  0  0
 45113  1  0  0  0
 46114  1  0  0  0
 47115  1  0  0  0
 47116  1  0  0  0
 48 56  1  0  0  0
 48 65  1  0  0  0
 48117  1  0  0  0
 49 50  1  0  0  0
 49 53  1  0  0  0
 49 64  1  0  0  0
 49118  1  0  0  0
 50 51  1  0  0  0
 50119  1  0  0  0
 50120  1  0  0  0
 51 52  1  0  0  0
 51121  1  0  0  0
 51122  1  0  0  0
 52123  1  0  0  0
 52124  1  0  0  0
 53 54  1  0  0  0
 54 55  2  0  0  0
 54125  1  0  0  0
 55 57  1  0  0  0
 55126  1  0  0  0
 56 69  2  0  0  0
 57 58  2  0  0  0
 57127  1  0  0  0
 58128  1  0  0  0
 59 60  1  0  0  0
 59 61  1  0  0  0
 59 62  1  0  0  0
 60129  1  0  0  0
 60130  1  0  0  0
 60131  1  0  0  0
 61132  1  0  0  0
 61133  1  0  0  0
 61134  1  0  0  0
 62135  1  0  0  0
 62136  1  0  0  0
 62137  1  0  0  0
 63 65  1  0  0  0
 63138  1  0  0  0
 63139  1  0  0  0
 63140  1  0  0  0
 64141  1  0  0  0
 65142  1  0  0  0
 68 80  1  0  0  0
 71 72  2  0  0  0
 71 74  1  0  0  0
 71 81  1  0  0  0
 72 75  1  0  0  0
 72 83  1  0  0  0
 73 76  1  0  0  0
 73 81  2  0  0  0
 73 83  1  0  0  0
 74143  1  0  0  0
 74144  1  0  0  0
 74145  1  0  0  0
 75 80  1  0  0  0
 75146  1  0  0  0
 75147  1  0  0  0
 76 77  1  0  0  0
 76148  1  0  0  0
 76149  1  0  0  0
 77 78  1  0  0  0
 77150  1  0  0  0
 77151  1  0  0  0
 78 79  1  0  0  0
 78152  1  0  0  0
 78153  1  0  0  0
 79 82  1  0  0  0
 79154  1  0  0  0
 79155  1  0  0  0
 80156  1  0  0  0
 80157  1  0  0  0
 82158  1  0  0  0
M  ISO  4   1 100  68 101  80 101  82 100
M  END
> <chiral flag>
0

> <version>
0

> <s_m_source_file>
/data/baiqing/PycharmProjects/Reinvent-master-3.2/result/LINK_invent/BTK/process_docking_weight1_custom_sum_contain_oxygen_bond_distance_aromatic_linkinvent_7_9_3/rearranged_h_0043.sdf

> <i_m_source_file_index>
13

> <r_mmod_Potential_Energy-OPLS-2005>
-169.390899658203

> <r_mmod_Stretch_Energy-OPLS-2005>
30.2611541748047

> <r_mmod_Bend_Energy-OPLS-2005>
88.0342559814453

> <r_mmod_Torsional_Energy-OPLS-2005>
183.252746582031

> <r_mmod_Improper_Torsional_Energy-OPLS-2005>
3.26516008377075

> <r_mmod_Van_der_Waal_Energy-OPLS-2005>
122.856483459473

> <r_mmod_Electrostatic_Energy-OPLS-2005>
-392.342651367188

> <r_mmod_Solvation_Energy-OPLS-2005>
-212.193084716797

> <b_mmod_Minimization_Converged-OPLS-2005>
0

> <r_mmod_RMS_Derivative-OPLS-2005>
1.53918921947479

$$$$
13
                    3D
 Structure written by MMmdl.
154162  0  0  1  0            999 V2000
  -30.7257  -14.5389   20.5350 C   0  0  0  0  0  0
  -30.4324  -12.3492   19.4016 C   0  0  0  0  0  0
  -29.4869  -12.4953   18.1916 C   0  0  0  0  0  0
  -28.0201  -12.3363   18.6291 C   0  0  0  0  0  0
  -27.6649  -13.2110   19.8622 C   0  0  2  0  0  0
  -28.7274  -13.0483   20.9779 C   0  0  0  0  0  0
  -25.2620  -13.8124   20.5659 C   0  0  0  0  0  0
  -24.1884  -13.0406   20.9148 C   0  0  0  0  0  0
  -24.6473  -11.6876   20.8744 C   0  0  0  0  0  0
  -23.9124  -10.4264   21.0409 C   0  0  0  0  0  0
  -24.3657   -9.4186   21.9203 C   0  0  0  0  0  0
  -23.6309   -8.2236   22.0790 C   0  0  0  0  0  0
  -22.4300   -8.0286   21.3550 C   0  0  0  0  0  0
  -21.9937   -9.0269   20.4657 C   0  0  0  0  0  0
  -22.7285  -10.2143   20.3055 C   0  0  0  0  0  0
  -21.6874   -6.0735   22.5264 C   0  0  0  0  0  0
  -21.4032   -6.5645   23.8183 C   0  0  0  0  0  0
  -21.3636   -5.6818   24.9147 C   0  0  0  0  0  0
  -21.6025   -4.3066   24.7240 C   0  0  0  0  0  0
  -21.8818   -3.8150   23.4350 C   0  0  0  0  0  0
  -21.9195   -4.6960   22.3407 C   0  0  0  0  0  0
  -22.7897  -13.5208   21.1782 C   0  0  0  0  0  0
  -22.1665   -4.2117   21.0986 F   0  0  0  0  0  0
  -21.5613   -3.4554   25.7750 F   0  0  0  0  0  0
  -30.0464  -13.3582   20.4027 N   0  0  0  0  0  0
  -26.3062  -12.9333   20.3295 N   0  0  0  0  0  0
  -25.9392  -11.6489   20.5769 N   0  0  0  0  0  0
  -22.0576  -12.8225   22.0357 N   0  0  0  0  0  0
  -25.4339  -15.1878   20.4236 N   0  0  0  0  0  0
  -31.8639  -14.7100   20.0998 O   0  0  0  0  0  0
  -21.6650   -6.8895   21.4249 O   0  0  0  0  0  0
  -22.3571  -14.5505   20.6627 O   0  0  0  0  0  0
  -24.6186  -31.8680   23.2055 C   0  0  0  0  0  0
  -25.9056  -32.4800   23.8392 C   0  0  1  0  0  0
  -27.2463  -27.4044   20.1332 C   0  0  0  0  0  0
  -25.5885  -33.8609   24.2302 N   0  0  0  0  0  0
  -23.4107  -30.4882   21.5457 C   0  0  2  0  0  0
  -24.8638  -28.9489   20.1104 C   0  0  0  0  0  0
  -22.7434  -29.4614   22.4951 C   0  0  0  0  0  0
  -18.0318  -28.1402   22.8483 C   0  0  0  0  0  0
  -24.1496  -36.7315   23.2646 C   0  0  0  0  0  0
  -25.9437  -30.8255   21.3628 C   0  0  0  0  0  0
  -26.0227  -29.4575   20.7120 C   0  0  0  0  0  0
  -27.2171  -28.6982   20.7125 C   0  0  0  0  0  0
  -26.0706  -26.9245   19.5107 C   0  0  0  0  0  0
  -24.8867  -27.6869   19.4991 C   0  0  0  0  0  0
  -23.6219  -29.8147   20.1612 C   0  0  0  0  0  0
  -25.4119  -36.3102   24.0338 C   0  0  1  0  0  0
  -20.5892  -28.3689   23.1299 C   0  0  2  0  0  0
  -20.6803  -26.9433   22.5356 C   0  0  0  0  0  0
  -19.5760  -26.6463   21.5171 C   0  0  0  0  0  0
  -18.1952  -26.7978   22.1586 C   0  0  0  0  0  0
  -19.1563  -28.8835   23.2915 C   0  0  0  0  0  0
  -18.9479  -30.1463   23.8936 C   0  0  0  0  0  0
  -17.6489  -30.6569   24.0604 C   0  0  0  0  0  0
  -25.9044  -34.9465   23.5118 C   0  0  0  0  0  0
  -16.5365  -29.9068   23.6335 C   0  0  0  0  0  0
  -16.7278  -28.6524   23.0333 C   0  0  0  0  0  0
  -26.4475  -31.6589   25.0745 C   0  0  0  0  0  0
  -25.3706  -31.3702   26.1467 C   0  0  0  0  0  0
  -27.0312  -30.3015   24.6137 C   0  0  0  0  0  0
  -27.6044  -32.4337   25.7486 C   0  0  0  0  0  0
  -27.5580  -37.1820   24.8469 C   0  0  0  0  0  0
  -21.4144  -29.3068   22.3668 N   0  0  0  0  0  0
  -26.4315  -37.3768   23.9381 N   0  0  0  0  0  0
  -24.6763  -31.0739   22.0957 N   0  0  0  0  0  0
  -23.4202  -28.8237   23.3042 O   0  0  0  0  0  0
  -28.3947  -26.6227   20.1904 O   0  0  0  0  0  0
  -26.5612  -34.8916   22.4687 O   0  0  0  0  0  0
  -23.5349  -32.1402   23.7439 O   0  0  0  0  0  0
  -29.2759  -22.9907   20.6424 C   0  0  0  0  0  0
  -31.6443  -24.0160   21.2675 C   0  0  0  0  0  0
  -30.4213  -22.1693   20.6958 C   0  0  0  0  0  0
  -29.4170  -24.3757   20.8737 C   0  0  0  0  0  0
  -30.3992  -20.7066   20.1741 C   0  0  0  0  0  0
  -28.2032  -25.3314   20.8289 C   0  0  0  0  0  0
  -30.6809  -19.5192   21.1566 C   0  0  0  0  0  0
  -30.4761  -18.0903   20.5212 C   0  0  0  0  0  0
  -30.4672  -16.9034   21.5463 C   0  0  0  0  0  0
  -31.6108  -22.7075   21.0154 N   0  0  0  0  0  0
  -30.6265  -24.8739   21.2074 N   0  0  0  0  0  0
  -30.0239  -15.5615   21.0761 N   0  0  0  0  0  0
  -31.4697  -12.4505   19.0797 H   0  0  0  0  0  0
  -30.3560  -11.3467   19.8312 H   0  0  0  0  0  0
  -29.7264  -11.7479   17.4345 H   0  0  0  0  0  0
  -29.6325  -13.4663   17.7230 H   0  0  0  0  0  0
  -27.8682  -11.2832   18.8715 H   0  0  0  0  0  0
  -27.3477  -12.5587   17.7971 H   0  0  0  0  0  0
  -27.6935  -14.2465   19.5234 H   0  0  0  0  0  0
  -28.7252  -12.0251   21.3675 H   0  0  0  0  0  0
  -28.4932  -13.6880   21.8309 H   0  0  0  0  0  0
  -25.2822   -9.5626   22.4757 H   0  0  0  0  0  0
  -23.9970   -7.4650   22.7561 H   0  0  0  0  0  0
  -21.0804   -8.8808   19.9017 H   0  0  0  0  0  0
  -22.3737  -10.9691   19.6134 H   0  0  0  0  0  0
  -21.2057   -7.6148   23.9671 H   0  0  0  0  0  0
  -21.1446   -6.0550   25.9036 H   0  0  0  0  0  0
  -22.0634   -2.7606   23.2875 H   0  0  0  0  0  0
  -22.4238  -11.9844   22.4636 H   0  0  0  0  0  0
  -21.1216  -13.1237   22.2638 H   0  0  0  0  0  0
  -24.6716  -15.8420   20.5766 H   0  0  0  0  0  0
  -26.2842  -15.6495   20.1298 H   0  0  0  0  0  0
  -26.7131  -32.5488   23.1169 H   0  0  0  0  0  0
  -25.0009  -33.9757   25.0419 H   0  0  0  0  0  0
  -22.7001  -31.3073   21.4009 H   0  0  0  0  0  0
  -23.3733  -35.9668   23.3330 H   0  0  0  0  0  0
  -24.3587  -36.8908   22.2051 H   0  0  0  0  0  0
  -23.7278  -37.6545   23.6645 H   0  0  0  0  0  0
  -26.0593  -31.5910   20.5961 H   0  0  0  0  0  0
  -26.8271  -30.8775   21.9857 H   0  0  0  0  0  0
  -28.1093  -29.0839   21.1856 H   0  0  0  0  0  0
  -26.0537  -25.9498   19.0431 H   0  0  0  0  0  0
  -24.0011  -27.2993   19.0140 H   0  0  0  0  0  0
  -23.7145  -30.5858   19.3942 H   0  0  0  0  0  0
  -22.7498  -29.2255   19.8708 H   0  0  0  0  0  0
  -25.1297  -36.1969   25.0829 H   0  0  0  0  0  0
  -20.9978  -28.3296   24.1430 H   0  0  0  0  0  0
  -20.5773  -26.2272   23.3517 H   0  0  0  0  0  0
  -21.6684  -26.7534   22.1101 H   0  0  0  0  0  0
  -19.6998  -25.6422   21.1134 H   0  0  0  0  0  0
  -19.6731  -27.3350   20.6767 H   0  0  0  0  0  0
  -17.4271  -26.6800   21.3942 H   0  0  0  0  0  0
  -18.0329  -26.0076   22.8915 H   0  0  0  0  0  0
  -19.7986  -30.7240   24.2315 H   0  0  0  0  0  0
  -17.5026  -31.6236   24.5254 H   0  0  0  0  0  0
  -15.5377  -30.2997   23.7658 H   0  0  0  0  0  0
  -15.8664  -28.0895   22.6990 H   0  0  0  0  0  0
  -24.5865  -30.7082   25.7758 H   0  0  0  0  0  0
  -24.8934  -32.2877   26.4932 H   0  0  0  0  0  0
  -25.8050  -30.8824   27.0201 H   0  0  0  0  0  0
  -26.2862  -29.6785   24.1164 H   0  0  0  0  0  0
  -27.4021  -29.7258   25.4630 H   0  0  0  0  0  0
  -27.8730  -30.4323   23.9328 H   0  0  0  0  0  0
  -27.2629  -33.3609   26.2096 H   0  0  0  0  0  0
  -28.3809  -32.6942   25.0282 H   0  0  0  0  0  0
  -28.0745  -31.8446   26.5365 H   0  0  0  0  0  0
  -28.2627  -38.0087   24.7454 H   0  0  0  0  0  0
  -28.1051  -36.2615   24.6370 H   0  0  0  0  0  0
  -27.2292  -37.1553   25.8876 H   0  0  0  0  0  0
  -20.9331  -29.8715   21.6797 H   0  0  0  0  0  0
  -26.0209  -38.2857   24.1325 H   0  0  0  0  0  0
  -28.3148  -22.5781   20.3733 H   0  0  0  0  0  0
  -32.5988  -24.4360   21.5378 H   0  0  0  0  0  0
  -31.1081  -20.6509   19.3448 H   0  0  0  0  0  0
  -29.4167  -20.5489   19.7293 H   0  0  0  0  0  0
  -27.8954  -25.5099   21.8617 H   0  0  0  0  0  0
  -27.3841  -24.7839   20.3613 H   0  0  0  0  0  0
  -31.6994  -19.6178   21.5423 H   0  0  0  0  0  0
  -30.0284  -19.6293   22.0230 H   0  0  0  0  0  0
  -29.5220  -18.0813   19.9885 H   0  0  0  0  0  0
  -31.2471  -17.9248   19.7649 H   0  0  0  0  0  0
  -31.4420  -16.8192   22.0230 H   0  0  0  0  0  0
  -29.7738  -17.1675   22.3538 H   0  0  0  0  0  0
  -29.0747  -15.3068   21.3129 H   0  0  0  0  0  0
  1 25  1  0  0  0
  1 30  2  0  0  0
  1 82  1  0  0  0
  2  3  1  0  0  0
  2 25  1  0  0  0
  2 83  1  0  0  0
  2 84  1  0  0  0
  3  4  1  0  0  0
  3 85  1  0  0  0
  3 86  1  0  0  0
  4  5  1  0  0  0
  4 87  1  0  0  0
  4 88  1  0  0  0
  5  6  1  0  0  0
  5 26  1  0  0  0
  5 89  1  0  0  0
  6 25  1  0  0  0
  6 90  1  0  0  0
  6 91  1  0  0  0
  7  8  2  0  0  0
  7 26  1  0  0  0
  7 29  1  0  0  0
  8  9  1  0  0  0
  8 22  1  0  0  0
  9 10  1  0  0  0
  9 27  2  0  0  0
 10 11  2  0  0  0
 10 15  1  0  0  0
 11 12  1  0  0  0
 11 92  1  0  0  0
 12 13  2  0  0  0
 12 93  1  0  0  0
 13 14  1  0  0  0
 13 31  1  0  0  0
 14 15  2  0  0  0
 14 94  1  0  0  0
 15 95  1  0  0  0
 16 17  2  0  0  0
 16 21  1  0  0  0
 16 31  1  0  0  0
 17 18  1  0  0  0
 17 96  1  0  0  0
 18 19  2  0  0  0
 18 97  1  0  0  0
 19 20  1  0  0  0
 19 24  1  0  0  0
 20 21  2  0  0  0
 20 98  1  0  0  0
 21 23  1  0  0  0
 22 28  1  0  0  0
 22 32  2  0  0  0
 26 27  1  0  0  0
 28 99  1  0  0  0
 28100  1  0  0  0
 29101  1  0  0  0
 29102  1  0  0  0
 33 34  1  0  0  0
 33 66  1  0  0  0
 33 70  2  0  0  0
 34 36  1  0  0  0
 34 59  1  0  0  0
 34103  1  0  0  0
 35 44  2  0  0  0
 35 45  1  0  0  0
 35 68  1  0  0  0
 36 56  1  0  0  0
 36104  1  0  0  0
 37 39  1  0  0  0
 37 47  1  0  0  0
 37 66  1  0  0  0
 37105  1  0  0  0
 38 43  2  0  0  0
 38 46  1  0  0  0
 38 47  1  0  0  0
 39 64  1  0  0  0
 39 67  2  0  0  0
 40 52  1  0  0  0
 40 53  2  0  0  0
 40 58  1  0  0  0
 41106  1  0  0  0
 41107  1  0  0  0
 41108  1  0  0  0
 41 48  1  0  0  0
 42 43  1  0  0  0
 42 66  1  0  0  0
 42109  1  0  0  0
 42110  1  0  0  0
 43 44  1  0  0  0
 44111  1  0  0  0
 45 46  2  0  0  0
 45112  1  0  0  0
 46113  1  0  0  0
 47114  1  0  0  0
 47115  1  0  0  0
 48 56  1  0  0  0
 48 65  1  0  0  0
 48116  1  0  0  0
 49 50  1  0  0  0
 49 53  1  0  0  0
 49 64  1  0  0  0
 49117  1  0  0  0
 50 51  1  0  0  0
 50118  1  0  0  0
 50119  1  0  0  0
 51 52  1  0  0  0
 51120  1  0  0  0
 51121  1  0  0  0
 52122  1  0  0  0
 52123  1  0  0  0
 53 54  1  0  0  0
 54 55  2  0  0  0
 54124  1  0  0  0
 55 57  1  0  0  0
 55125  1  0  0  0
 56 69  2  0  0  0
 57 58  2  0  0  0
 57126  1  0  0  0
 58127  1  0  0  0
 59 60  1  0  0  0
 59 61  1  0  0  0
 59 62  1  0  0  0
 60128  1  0  0  0
 60129  1  0  0  0
 60130  1  0  0  0
 61131  1  0  0  0
 61132  1  0  0  0
 61133  1  0  0  0
 62134  1  0  0  0
 62135  1  0  0  0
 62136  1  0  0  0
 63 65  1  0  0  0
 63137  1  0  0  0
 63138  1  0  0  0
 63139  1  0  0  0
 64140  1  0  0  0
 65141  1  0  0  0
 68 76  1  0  0  0
 71 73  2  0  0  0
 71 74  1  0  0  0
 71142  1  0  0  0
 72 80  2  0  0  0
 72 81  1  0  0  0
 72143  1  0  0  0
 73 75  1  0  0  0
 73 80  1  0  0  0
 74 76  1  0  0  0
 74 81  2  0  0  0
 75 77  1  0  0  0
 75144  1  0  0  0
 75145  1  0  0  0
 76146  1  0  0  0
 76147  1  0  0  0
 77 78  1  0  0  0
 77148  1  0  0  0
 77149  1  0  0  0
 78 79  1  0  0  0
 78150  1  0  0  0
 78151  1  0  0  0
 79 82  1  0  0  0
 79152  1  0  0  0
 79153  1  0  0  0
 82154  1  0  0  0
M  ISO  4   1 100  68 101  76 101  82 100
M  END
> <chiral flag>
0

> <version>
0

> <s_m_source_file>
/data/baiqing/PycharmProjects/Reinvent-master-3.2/result/LINK_invent/BTK/process_docking_weight1_custom_sum_contain_oxygen_bond_distance_aromatic_linkinvent_7_9_3/rearranged_h_0043.sdf

> <i_m_source_file_index>
14

> <r_mmod_Potential_Energy-OPLS-2005>
-434.090301513672

> <r_mmod_Stretch_Energy-OPLS-2005>
50.3655548095703

> <r_mmod_Bend_Energy-OPLS-2005>
111.395431518555

> <r_mmod_Torsional_Energy-OPLS-2005>
210.182495117188

> <r_mmod_Improper_Torsional_Energy-OPLS-2005>
3.72303628921509

> <r_mmod_Van_der_Waal_Energy-OPLS-2005>
152.280532836914

> <r_mmod_Electrostatic_Energy-OPLS-2005>
-743.028503417969

> <r_mmod_Solvation_Energy-OPLS-2005>
-243.007171630859

> <b_mmod_Minimization_Converged-OPLS-2005>
0

> <r_mmod_RMS_Derivative-OPLS-2005>
9.23115062713623

$$$$
14
                    3D
 Structure written by MMmdl.
165173  0  0  1  0            999 V2000
  -30.8208  -14.3022   20.6817 C   0  0  0  0  0  0
  -30.4209  -12.2510   19.3805 C   0  0  0  0  0  0
  -29.4945  -12.5397   18.1901 C   0  0  0  0  0  0
  -28.0260  -12.4004   18.6232 C   0  0  0  0  0  0
  -27.6909  -13.2146   19.9043 C   0  0  2  0  0  0
  -28.7340  -12.9188   21.0138 C   0  0  0  0  0  0
  -25.2683  -13.8306   20.5652 C   0  0  0  0  0  0
  -24.1938  -13.0665   20.9297 C   0  0  0  0  0  0
  -24.6538  -11.7122   20.8770 C   0  0  0  0  0  0
  -23.9187  -10.4554   21.0313 C   0  0  0  0  0  0
  -24.3775   -9.4386   21.8903 C   0  0  0  0  0  0
  -23.6324   -8.2555   22.0623 C   0  0  0  0  0  0
  -22.4254   -8.0598   21.3536 C   0  0  0  0  0  0
  -21.9948   -9.0625   20.4601 C   0  0  0  0  0  0
  -22.7282  -10.2507   20.3065 C   0  0  0  0  0  0
  -21.6993   -6.0782   22.5291 C   0  0  0  0  0  0
  -21.4032   -6.5619   23.8211 C   0  0  0  0  0  0
  -21.3646   -5.6748   24.9166 C   0  0  0  0  0  0
  -21.6111   -4.3048   24.7232 C   0  0  0  0  0  0
  -21.8806   -3.8109   23.4423 C   0  0  0  0  0  0
  -21.9276   -4.6976   22.3429 C   0  0  0  0  0  0
  -22.7869  -13.5364   21.2067 C   0  0  0  0  0  0
  -22.1766   -4.2097   21.1024 F   0  0  0  0  0  0
  -21.5872   -3.4614   25.7821 F   0  0  0  0  0  0
  -30.0941  -13.1683   20.4832 N   0  0  0  0  0  0
  -26.3226  -12.9472   20.3538 N   0  0  0  0  0  0
  -25.9488  -11.6654   20.5981 N   0  0  0  0  0  0
  -22.0665  -12.8479   22.0891 N   0  0  0  0  0  0
  -25.4439  -15.2019   20.3811 N   0  0  0  0  0  0
  -31.7901  -14.6286   19.9934 O   0  0  0  0  0  0
  -21.6857   -6.8991   21.4168 O   0  0  0  0  0  0
  -22.3388  -14.5538   20.6741 O   0  0  0  0  0  0
  -24.6169  -31.8710   23.2148 C   0  0  0  0  0  0
  -25.9069  -32.4845   23.8400 C   0  0  1  0  0  0
  -27.2137  -27.4220   20.1087 C   0  0  0  0  0  0
  -25.5877  -33.8619   24.2333 N   0  0  0  0  0  0
  -23.3976  -30.5070   21.5558 C   0  0  2  0  0  0
  -24.8315  -28.9664   20.1128 C   0  0  0  0  0  0
  -22.7401  -29.4713   22.4993 C   0  0  0  0  0  0
  -18.0307  -28.1365   22.8535 C   0  0  0  0  0  0
  -24.1492  -36.7331   23.2661 C   0  0  0  0  0  0
  -25.9258  -30.8320   21.3617 C   0  0  0  0  0  0
  -25.9911  -29.4581   20.7285 C   0  0  0  0  0  0
  -27.1812  -28.6877   20.7333 C   0  0  0  0  0  0
  -26.0412  -26.9572   19.4605 C   0  0  0  0  0  0
  -24.8492  -27.7125   19.4830 C   0  0  0  0  0  0
  -23.5956  -29.8485   20.1636 C   0  0  0  0  0  0
  -25.4107  -36.3105   24.0362 C   0  0  1  0  0  0
  -20.5903  -28.3614   23.1354 C   0  0  2  0  0  0
  -20.6759  -26.9369   22.5423 C   0  0  0  0  0  0
  -19.5687  -26.6372   21.5259 C   0  0  0  0  0  0
  -18.1900  -26.7924   22.1682 C   0  0  0  0  0  0
  -19.1561  -28.8812   23.2955 C   0  0  0  0  0  0
  -18.9455  -30.1446   23.8914 C   0  0  0  0  0  0
  -17.6442  -30.6564   24.0580 C   0  0  0  0  0  0
  -25.9019  -34.9480   23.5174 C   0  0  0  0  0  0
  -16.5345  -29.9048   23.6332 C   0  0  0  0  0  0
  -16.7299  -28.6486   23.0328 C   0  0  0  0  0  0
  -26.4469  -31.6586   25.0713 C   0  0  0  0  0  0
  -25.3739  -31.3679   26.1459 C   0  0  0  0  0  0
  -27.0313  -30.3058   24.6051 C   0  0  0  0  0  0
  -27.6044  -32.4320   25.7440 C   0  0  0  0  0  0
  -27.5598  -37.1838   24.8482 C   0  0  0  0  0  0
  -21.4152  -29.3020   22.3747 N   0  0  0  0  0  0
  -26.4289  -37.3803   23.9430 N   0  0  0  0  0  0
  -24.6660  -31.0842   22.1035 N   0  0  0  0  0  0
  -23.4202  -28.8266   23.3023 O   0  0  0  0  0  0
  -28.3620  -26.6440   20.1702 O   0  0  0  0  0  0
  -26.5592  -34.8945   22.4757 O   0  0  0  0  0  0
  -23.5367  -32.1417   23.7585 O   0  0  0  0  0  0
  -28.0052  -21.4022   23.1606 C   0  0  0  0  0  0
  -27.2418  -20.3595   22.5617 C   0  0  0  0  0  0
  -27.5464  -22.5630   22.5639 C   0  0  0  0  0  0
  -29.0528  -21.1413   24.2166 C   0  0  0  0  0  0
  -25.6224  -22.8814   20.8085 C   0  0  0  0  0  0
  -27.3028  -18.8671   22.7805 C   0  0  0  0  0  0
  -27.9307  -24.0051   22.8496 C   0  0  0  0  0  0
  -28.0946  -18.1346   21.6766 C   0  0  0  0  0  0
  -28.8241  -24.7864   21.8395 C   0  0  0  0  0  0
  -28.7253  -16.8192   22.1663 C   0  0  0  0  0  0
  -30.0392  -16.4919   21.4425 C   0  0  0  0  0  0
  -28.1461  -25.2552   20.5353 C   0  0  0  0  0  0
  -26.3787  -20.8265   21.6927 N   0  0  0  0  0  0
  -26.5383  -22.1599   21.6805 N   0  0  0  0  0  0
  -30.4062  -15.1002   21.6710 N   0  0  0  0  0  0
  -31.4691  -12.3043   19.0757 H   0  0  0  0  0  0
  -30.2425  -11.2303   19.7078 H   0  0  0  0  0  0
  -29.6876  -11.8507   17.3630 H   0  0  0  0  0  0
  -29.7008  -13.5315   17.7844 H   0  0  0  0  0  0
  -27.8474  -11.3428   18.7994 H   0  0  0  0  0  0
  -27.3754  -12.6795   17.7959 H   0  0  0  0  0  0
  -27.7433  -14.2696   19.6392 H   0  0  0  0  0  0
  -28.6529  -11.8745   21.3140 H   0  0  0  0  0  0
  -28.5039  -13.4797   21.9176 H   0  0  0  0  0  0
  -25.3075   -9.5959   22.4053 H   0  0  0  0  0  0
  -24.0238   -7.4934   22.7164 H   0  0  0  0  0  0
  -21.0973   -8.9291   19.8679 H   0  0  0  0  0  0
  -22.3863  -11.0122   19.6204 H   0  0  0  0  0  0
  -21.1968   -7.6104   23.9740 H   0  0  0  0  0  0
  -21.1391   -6.0422   25.9067 H   0  0  0  0  0  0
  -22.0513   -2.7551   23.3019 H   0  0  0  0  0  0
  -22.4893  -12.0916   22.6026 H   0  0  0  0  0  0
  -21.1265  -13.1039   22.3557 H   0  0  0  0  0  0
  -24.6883  -15.8782   20.4318 H   0  0  0  0  0  0
  -26.3160  -15.6004   20.0658 H   0  0  0  0  0  0
  -26.7198  -32.5547   23.1190 H   0  0  0  0  0  0
  -24.9948  -33.9708   25.0418 H   0  0  0  0  0  0
  -22.6899  -31.3296   21.4413 H   0  0  0  0  0  0
  -23.3729  -35.9693   23.3301 H   0  0  0  0  0  0
  -24.3653  -36.8926   22.2091 H   0  0  0  0  0  0
  -23.7224  -37.6551   23.6649 H   0  0  0  0  0  0
  -26.0379  -31.5854   20.5754 H   0  0  0  0  0  0
  -26.8147  -30.8914   21.9746 H   0  0  0  0  0  0
  -28.0608  -29.0395   21.2500 H   0  0  0  0  0  0
  -26.0199  -26.0034   18.9565 H   0  0  0  0  0  0
  -23.9621  -27.3496   18.9777 H   0  0  0  0  0  0
  -23.6941  -30.6294   19.4090 H   0  0  0  0  0  0
  -22.7107  -29.2781   19.8776 H   0  0  0  0  0  0
  -25.1294  -36.2014   25.0854 H   0  0  0  0  0  0
  -21.0079  -28.3194   24.1434 H   0  0  0  0  0  0
  -20.5691  -26.2256   23.3611 H   0  0  0  0  0  0
  -21.6624  -26.7383   22.1225 H   0  0  0  0  0  0
  -19.6818  -25.6304   21.1219 H   0  0  0  0  0  0
  -19.6602  -27.3233   20.6836 H   0  0  0  0  0  0
  -17.4193  -26.6752   21.4072 H   0  0  0  0  0  0
  -18.0262  -26.0055   22.9047 H   0  0  0  0  0  0
  -19.7911  -30.7322   24.2243 H   0  0  0  0  0  0
  -17.4946  -31.6224   24.5175 H   0  0  0  0  0  0
  -15.5326  -30.2895   23.7609 H   0  0  0  0  0  0
  -15.8731  -28.0784   22.6949 H   0  0  0  0  0  0
  -24.5860  -30.7086   25.7825 H   0  0  0  0  0  0
  -24.8955  -32.2804   26.5026 H   0  0  0  0  0  0
  -25.8025  -30.8758   27.0173 H   0  0  0  0  0  0
  -26.2850  -29.6806   24.1134 H   0  0  0  0  0  0
  -27.4199  -29.7322   25.4471 H   0  0  0  0  0  0
  -27.8612  -30.4479   23.9122 H   0  0  0  0  0  0
  -27.2664  -33.3600   26.2076 H   0  0  0  0  0  0
  -28.3742  -32.6941   25.0168 H   0  0  0  0  0  0
  -28.0828  -31.8411   26.5260 H   0  0  0  0  0  0
  -28.2641  -38.0115   24.7526 H   0  0  0  0  0  0
  -28.1012  -36.2647   24.6252 H   0  0  0  0  0  0
  -27.2326  -37.1468   25.8882 H   0  0  0  0  0  0
  -20.9289  -29.8775   21.7026 H   0  0  0  0  0  0
  -26.0173  -38.2905   24.1339 H   0  0  0  0  0  0
  -28.6431  -20.5989   25.0693 H   0  0  0  0  0  0
  -29.5416  -22.0305   24.6091 H   0  0  0  0  0  0
  -29.8417  -20.5013   23.8311 H   0  0  0  0  0  0
  -24.9826  -23.5498   21.3956 H   0  0  0  0  0  0
  -24.9657  -22.1608   20.3029 H   0  0  0  0  0  0
  -26.1632  -23.4212   20.0306 H   0  0  0  0  0  0
  -26.2953  -18.4371   22.8423 H   0  0  0  0  0  0
  -27.7500  -18.6810   23.7526 H   0  0  0  0  0  0
  -28.5220  -24.0029   23.7673 H   0  0  0  0  0  0
  -27.0360  -24.5829   23.0983 H   0  0  0  0  0  0
  -28.8833  -18.7897   21.2989 H   0  0  0  0  0  0
  -27.4448  -17.9387   20.8233 H   0  0  0  0  0  0
  -29.7351  -24.2138   21.6301 H   0  0  0  0  0  0
  -29.1146  -25.7004   22.3618 H   0  0  0  0  0  0
  -28.0060  -15.9937   22.0963 H   0  0  0  0  0  0
  -28.9831  -16.9202   23.2185 H   0  0  0  0  0  0
  -29.9450  -16.6711   20.3675 H   0  0  0  0  0  0
  -30.8211  -17.1614   21.8016 H   0  0  0  0  0  0
  -27.0963  -25.1322   20.7509 H   0  0  0  0  0  0
  -28.4026  -24.5678   19.7281 H   0  0  0  0  0  0
  -30.2820  -14.7075   22.6075 H   0  0  0  0  0  0
  1 25  1  0  0  0
  1 30  2  0  0  0
  1 85  1  0  0  0
  2  3  1  0  0  0
  2 25  1  0  0  0
  2 86  1  0  0  0
  2 87  1  0  0  0
  3  4  1  0  0  0
  3 88  1  0  0  0
  3 89  1  0  0  0
  4  5  1  0  0  0
  4 90  1  0  0  0
  4 91  1  0  0  0
  5  6  1  0  0  0
  5 26  1  0  0  0
  5 92  1  0  0  0
  6 25  1  0  0  0
  6 93  1  0  0  0
  6 94  1  0  0  0
  7  8  2  0  0  0
  7 26  1  0  0  0
  7 29  1  0  0  0
  8  9  1  0  0  0
  8 22  1  0  0  0
  9 10  1  0  0  0
  9 27  2  0  0  0
 10 11  2  0  0  0
 10 15  1  0  0  0
 11 12  1  0  0  0
 11 95  1  0  0  0
 12 13  2  0  0  0
 12 96  1  0  0  0
 13 14  1  0  0  0
 13 31  1  0  0  0
 14 15  2  0  0  0
 14 97  1  0  0  0
 15 98  1  0  0  0
 16 17  2  0  0  0
 16 21  1  0  0  0
 16 31  1  0  0  0
 17 18  1  0  0  0
 17 99  1  0  0  0
 18 19  2  0  0  0
 18100  1  0  0  0
 19 20  1  0  0  0
 19 24  1  0  0  0
 20 21  2  0  0  0
 20101  1  0  0  0
 21 23  1  0  0  0
 22 28  1  0  0  0
 22 32  2  0  0  0
 26 27  1  0  0  0
 28102  1  0  0  0
 28103  1  0  0  0
 29104  1  0  0  0
 29105  1  0  0  0
 33 34  1  0  0  0
 33 66  1  0  0  0
 33 70  2  0  0  0
 34 36  1  0  0  0
 34 59  1  0  0  0
 34106  1  0  0  0
 35 44  2  0  0  0
 35 45  1  0  0  0
 35 68  1  0  0  0
 36 56  1  0  0  0
 36107  1  0  0  0
 37 39  1  0  0  0
 37 47  1  0  0  0
 37 66  1  0  0  0
 37108  1  0  0  0
 38 43  2  0  0  0
 38 46  1  0  0  0
 38 47  1  0  0  0
 39 64  1  0  0  0
 39 67  2  0  0  0
 40 52  1  0  0  0
 40 53  2  0  0  0
 40 58  1  0  0  0
 41109  1  0  0  0
 41110  1  0  0  0
 41111  1  0  0  0
 41 48  1  0  0  0
 42 43  1  0  0  0
 42 66  1  0  0  0
 42112  1  0  0  0
 42113  1  0  0  0
 43 44  1  0  0  0
 44114  1  0  0  0
 45 46  2  0  0  0
 45115  1  0  0  0
 46116  1  0  0  0
 47117  1  0  0  0
 47118  1  0  0  0
 48 56  1  0  0  0
 48 65  1  0  0  0
 48119  1  0  0  0
 49 50  1  0  0  0
 49 53  1  0  0  0
 49 64  1  0  0  0
 49120  1  0  0  0
 50 51  1  0  0  0
 50121  1  0  0  0
 50122  1  0  0  0
 51 52  1  0  0  0
 51123  1  0  0  0
 51124  1  0  0  0
 52125  1  0  0  0
 52126  1  0  0  0
 53 54  1  0  0  0
 54 55  2  0  0  0
 54127  1  0  0  0
 55 57  1  0  0  0
 55128  1  0  0  0
 56 69  2  0  0  0
 57 58  2  0  0  0
 57129  1  0  0  0
 58130  1  0  0  0
 59 60  1  0  0  0
 59 61  1  0  0  0
 59 62  1  0  0  0
 60131  1  0  0  0
 60132  1  0  0  0
 60133  1  0  0  0
 61134  1  0  0  0
 61135  1  0  0  0
 61136  1  0  0  0
 62137  1  0  0  0
 62138  1  0  0  0
 62139  1  0  0  0
 63 65  1  0  0  0
 63140  1  0  0  0
 63141  1  0  0  0
 63142  1  0  0  0
 64143  1  0  0  0
 65144  1  0  0  0
 68 82  1  0  0  0
 71 72  1  0  0  0
 71 73  2  0  0  0
 71 74  1  0  0  0
 72 76  1  0  0  0
 72 83  2  0  0  0
 73 77  1  0  0  0
 73 84  1  0  0  0
 74145  1  0  0  0
 74146  1  0  0  0
 74147  1  0  0  0
 75 84  1  0  0  0
 75148  1  0  0  0
 75149  1  0  0  0
 75150  1  0  0  0
 76 78  1  0  0  0
 76151  1  0  0  0
 76152  1  0  0  0
 77 79  1  0  0  0
 77153  1  0  0  0
 77154  1  0  0  0
 78 80  1  0  0  0
 78155  1  0  0  0
 78156  1  0  0  0
 79 82  1  0  0  0
 79157  1  0  0  0
 79158  1  0  0  0
 80 81  1  0  0  0
 80159  1  0  0  0
 80160  1  0  0  0
 81 85  1  0  0  0
 81161  1  0  0  0
 81162  1  0  0  0
 82163  1  0  0  0
 82164  1  0  0  0
 83 84  1  0  0  0
 85165  1  0  0  0
M  ISO  4   1 100  68 101  82 101  85 100
M  END
> <chiral flag>
0

> <version>
0

> <s_m_source_file>
/data/baiqing/PycharmProjects/Reinvent-master-3.2/result/LINK_invent/BTK/process_docking_weight1_custom_sum_contain_oxygen_bond_distance_aromatic_linkinvent_7_9_3/rearranged_h_0043.sdf

> <i_m_source_file_index>
15

> <r_mmod_Potential_Energy-OPLS-2005>
-57.2377624511719

> <r_mmod_Stretch_Energy-OPLS-2005>
40.9285774230957

> <r_mmod_Bend_Energy-OPLS-2005>
114.747383117676

> <r_mmod_Torsional_Energy-OPLS-2005>
280.273681640625

> <r_mmod_Improper_Torsional_Energy-OPLS-2005>
3.02232313156128

> <r_mmod_Van_der_Waal_Energy-OPLS-2005>
126.158599853516

> <r_mmod_Electrostatic_Energy-OPLS-2005>
-417.46142578125

> <r_mmod_Solvation_Energy-OPLS-2005>
-221.486953735352

> <b_mmod_Minimization_Converged-OPLS-2005>
0

> <r_mmod_RMS_Derivative-OPLS-2005>
14.4795198440552

$$$$
15
                    3D
 Structure written by MMmdl.
160168  0  0  1  0            999 V2000
  -30.6953  -14.4073   20.6047 C   0  0  0  0  0  0
  -30.4297  -12.2869   19.3832 C   0  0  0  0  0  0
  -29.4832  -12.5120   18.1863 C   0  0  0  0  0  0
  -28.0029  -12.3897   18.6030 C   0  0  0  0  0  0
  -27.6692  -13.1925   19.8888 C   0  0  2  0  0  0
  -28.7140  -12.9059   20.9919 C   0  0  0  0  0  0
  -25.2636  -13.8118   20.5710 C   0  0  0  0  0  0
  -24.1859  -13.0425   20.9189 C   0  0  0  0  0  0
  -24.6383  -11.6874   20.8746 C   0  0  0  0  0  0
  -23.9034  -10.4270   21.0419 C   0  0  0  0  0  0
  -24.3585   -9.4180   21.9197 C   0  0  0  0  0  0
  -23.6269   -8.2207   22.0752 C   0  0  0  0  0  0
  -22.4255   -8.0249   21.3538 C   0  0  0  0  0  0
  -21.9882   -9.0228   20.4648 C   0  0  0  0  0  0
  -22.7203  -10.2116   20.3074 C   0  0  0  0  0  0
  -21.6831   -6.0705   22.5270 C   0  0  0  0  0  0
  -21.4002   -6.5621   23.8204 C   0  0  0  0  0  0
  -21.3673   -5.6786   24.9181 C   0  0  0  0  0  0
  -21.6056   -4.3049   24.7233 C   0  0  0  0  0  0
  -21.8814   -3.8126   23.4361 C   0  0  0  0  0  0
  -21.9185   -4.6932   22.3410 C   0  0  0  0  0  0
  -22.7888  -13.5238   21.1843 C   0  0  0  0  0  0
  -22.1649   -4.2109   21.0988 F   0  0  0  0  0  0
  -21.5646   -3.4543   25.7757 F   0  0  0  0  0  0
  -30.0476  -13.2248   20.4487 N   0  0  0  0  0  0
  -26.3063  -12.9260   20.3442 N   0  0  0  0  0  0
  -25.9313  -11.6430   20.5806 N   0  0  0  0  0  0
  -22.0512  -12.8259   22.0416 N   0  0  0  0  0  0
  -25.4404  -15.1827   20.4116 N   0  0  0  0  0  0
  -31.7886  -14.6618   20.0922 O   0  0  0  0  0  0
  -21.6633   -6.8837   21.4225 O   0  0  0  0  0  0
  -22.3589  -14.5555   20.6698 O   0  0  0  0  0  0
  -24.6170  -31.8684   23.2133 C   0  0  0  0  0  0
  -25.9078  -32.4814   23.8408 C   0  0  1  0  0  0
  -27.2227  -27.4509   20.0822 C   0  0  0  0  0  0
  -25.5950  -33.8616   24.2351 N   0  0  0  0  0  0
  -23.3987  -30.4984   21.5544 C   0  0  2  0  0  0
  -24.8359  -28.9678   20.1131 C   0  0  0  0  0  0
  -22.7395  -29.4681   22.4990 C   0  0  0  0  0  0
  -18.0296  -28.1400   22.8492 C   0  0  0  0  0  0
  -24.1489  -36.7319   23.2639 C   0  0  0  0  0  0
  -25.9271  -30.8396   21.3611 C   0  0  0  0  0  0
  -25.9983  -29.4773   20.7054 C   0  0  0  0  0  0
  -27.1936  -28.7282   20.6835 C   0  0  0  0  0  0
  -26.0387  -26.9520   19.4869 C   0  0  0  0  0  0
  -24.8497  -27.7023   19.5035 C   0  0  0  0  0  0
  -23.6023  -29.8395   20.1650 C   0  0  0  0  0  0
  -25.4110  -36.3115   24.0345 C   0  0  1  0  0  0
  -20.5866  -28.3712   23.1348 C   0  0  2  0  0  0
  -20.6818  -26.9441   22.5463 C   0  0  0  0  0  0
  -19.5830  -26.6429   21.5228 C   0  0  0  0  0  0
  -18.1988  -26.7958   22.1596 C   0  0  0  0  0  0
  -19.1528  -28.8870   23.2917 C   0  0  0  0  0  0
  -18.9447  -30.1473   23.8920 C   0  0  0  0  0  0
  -17.6441  -30.6595   24.0581 C   0  0  0  0  0  0
  -25.9050  -34.9481   23.5142 C   0  0  0  0  0  0
  -16.5344  -29.9089   23.6319 C   0  0  0  0  0  0
  -16.7281  -28.6520   23.0320 C   0  0  0  0  0  0
  -26.4502  -31.6586   25.0734 C   0  0  0  0  0  0
  -25.3786  -31.3681   26.1503 C   0  0  0  0  0  0
  -27.0343  -30.3044   24.6099 C   0  0  0  0  0  0
  -27.6093  -32.4290   25.7483 C   0  0  0  0  0  0
  -27.5580  -37.1818   24.8470 C   0  0  0  0  0  0
  -21.4128  -29.3065   22.3734 N   0  0  0  0  0  0
  -26.4299  -37.3793   23.9414 N   0  0  0  0  0  0
  -24.6663  -31.0819   22.1019 N   0  0  0  0  0  0
  -23.4170  -28.8221   23.3028 O   0  0  0  0  0  0
  -28.4105  -26.7500   20.0985 O   0  0  0  0  0  0
  -26.5583  -34.8922   22.4684 O   0  0  0  0  0  0
  -23.5369  -32.1439   23.7536 O   0  0  0  0  0  0
  -26.6861  -20.2019   20.6421 C   0  0  0  0  0  0
  -26.9946  -20.8045   21.9807 C   0  0  0  0  0  0
  -26.9272  -22.3461   22.0129 C   0  0  0  0  0  0
  -27.7344  -23.0618   20.9102 C   0  0  0  0  0  0
  -27.7113  -24.5930   21.0680 C   0  0  0  0  0  0
  -28.7721  -17.3817   20.6130 C   0  0  0  0  0  0
  -28.8382  -18.8679   20.2221 C   0  0  0  0  0  0
  -30.1152  -16.7911   21.0764 C   0  0  0  0  0  0
  -28.3906  -25.3338   19.8958 C   0  0  0  0  0  0
  -25.5308  -20.3508   19.9988 N   0  0  0  0  0  0
  -25.6929  -19.6205   18.8419 N   0  0  0  0  0  0
  -26.8599  -19.0488   18.8064 N   0  0  0  0  0  0
  -27.5093  -19.3971   19.9485 N   0  0  0  0  0  0
  -29.9680  -15.3452   21.2257 N   0  0  0  0  0  0
  -31.4644  -12.4204   19.0619 H   0  0  0  0  0  0
  -30.3591  -11.2596   19.7408 H   0  0  0  0  0  0
  -29.7023  -11.7920   17.3951 H   0  0  0  0  0  0
  -29.6650  -13.4996   17.7595 H   0  0  0  0  0  0
  -27.7825  -11.3332   18.7582 H   0  0  0  0  0  0
  -27.3570  -12.7160   17.7857 H   0  0  0  0  0  0
  -27.7325  -14.2503   19.6352 H   0  0  0  0  0  0
  -28.6861  -11.8509   21.2679 H   0  0  0  0  0  0
  -28.4777  -13.4451   21.9108 H   0  0  0  0  0  0
  -25.2720   -9.5651   22.4791 H   0  0  0  0  0  0
  -23.9970   -7.4587   22.7467 H   0  0  0  0  0  0
  -21.0811   -8.8737   19.8958 H   0  0  0  0  0  0
  -22.3638  -10.9662   19.6201 H   0  0  0  0  0  0
  -21.1972   -7.6124   23.9687 H   0  0  0  0  0  0
  -21.1524   -6.0530   25.9082 H   0  0  0  0  0  0
  -22.0589   -2.7583   23.2881 H   0  0  0  0  0  0
  -22.4085  -11.9913   22.4830 H   0  0  0  0  0  0
  -21.1138  -13.1314   22.2603 H   0  0  0  0  0  0
  -24.6791  -15.8416   20.5244 H   0  0  0  0  0  0
  -26.2878  -15.6126   20.0649 H   0  0  0  0  0  0
  -26.7145  -32.5516   23.1162 H   0  0  0  0  0  0
  -25.0167  -33.9784   25.0541 H   0  0  0  0  0  0
  -22.6905  -31.3193   21.4214 H   0  0  0  0  0  0
  -23.3744  -35.9655   23.3309 H   0  0  0  0  0  0
  -24.3584  -36.8925   22.2053 H   0  0  0  0  0  0
  -23.7250  -37.6540   23.6627 H   0  0  0  0  0  0
  -26.0409  -31.6063   20.5928 H   0  0  0  0  0  0
  -26.8163  -30.8838   21.9788 H   0  0  0  0  0  0
  -28.0935  -29.1225   21.1339 H   0  0  0  0  0  0
  -26.0066  -25.9862   19.0064 H   0  0  0  0  0  0
  -23.9531  -27.3050   19.0447 H   0  0  0  0  0  0
  -23.7202  -30.6240   19.4155 H   0  0  0  0  0  0
  -22.7206  -29.2741   19.8615 H   0  0  0  0  0  0
  -25.1265  -36.1993   25.0831 H   0  0  0  0  0  0
  -20.9943  -28.3327   24.1478 H   0  0  0  0  0  0
  -20.5721  -26.2319   23.3658 H   0  0  0  0  0  0
  -21.6707  -26.7527   22.1277 H   0  0  0  0  0  0
  -19.7018  -25.6349   21.1258 H   0  0  0  0  0  0
  -19.6826  -27.3253   20.6771 H   0  0  0  0  0  0
  -17.4278  -26.6719   21.3969 H   0  0  0  0  0  0
  -18.0391  -26.0084   22.8973 H   0  0  0  0  0  0
  -19.7911  -30.7312   24.2287 H   0  0  0  0  0  0
  -17.4985  -31.6267   24.5199 H   0  0  0  0  0  0
  -15.5340  -30.2995   23.7636 H   0  0  0  0  0  0
  -15.8693  -28.0858   22.6985 H   0  0  0  0  0  0
  -24.5964  -30.7014   25.7859 H   0  0  0  0  0  0
  -24.8970  -32.2825   26.4974 H   0  0  0  0  0  0
  -25.8173  -30.8858   27.0245 H   0  0  0  0  0  0
  -26.2879  -29.6784   24.1205 H   0  0  0  0  0  0
  -27.4196  -29.7304   25.4534 H   0  0  0  0  0  0
  -27.8659  -30.4394   23.9183 H   0  0  0  0  0  0
  -27.2746  -33.3573   26.2119 H   0  0  0  0  0  0
  -28.3877  -32.6882   25.0293 H   0  0  0  0  0  0
  -28.0799  -31.8385   26.5365 H   0  0  0  0  0  0
  -28.2609  -38.0101   24.7493 H   0  0  0  0  0  0
  -28.1064  -36.2641   24.6302 H   0  0  0  0  0  0
  -27.2300  -37.1476   25.8873 H   0  0  0  0  0  0
  -20.9276  -29.8813   21.6991 H   0  0  0  0  0  0
  -26.0197  -38.2871   24.1406 H   0  0  0  0  0  0
  -27.9793  -20.4856   22.3152 H   0  0  0  0  0  0
  -26.2948  -20.3899   22.7074 H   0  0  0  0  0  0
  -27.2589  -22.6876   22.9950 H   0  0  0  0  0  0
  -25.8827  -22.6481   21.9276 H   0  0  0  0  0  0
  -27.3254  -22.8021   19.9317 H   0  0  0  0  0  0
  -28.7677  -22.7126   20.9160 H   0  0  0  0  0  0
  -28.2116  -24.8629   21.9972 H   0  0  0  0  0  0
  -26.6774  -24.9226   21.1764 H   0  0  0  0  0  0
  -28.4028  -16.8186   19.7546 H   0  0  0  0  0  0
  -28.0331  -17.2505   21.4056 H   0  0  0  0  0  0
  -29.4455  -19.0000   19.3266 H   0  0  0  0  0  0
  -29.3189  -19.4544   21.0035 H   0  0  0  0  0  0
  -30.4119  -17.2290   22.0297 H   0  0  0  0  0  0
  -30.8999  -17.0384   20.3587 H   0  0  0  0  0  0
  -29.4299  -25.0081   19.8309 H   0  0  0  0  0  0
  -27.9492  -25.0711   18.9348 H   0  0  0  0  0  0
  -29.1029  -15.0211   21.6296 H   0  0  0  0  0  0
  1 25  1  0  0  0
  1 30  2  0  0  0
  1 84  1  0  0  0
  2  3  1  0  0  0
  2 25  1  0  0  0
  2 85  1  0  0  0
  2 86  1  0  0  0
  3  4  1  0  0  0
  3 87  1  0  0  0
  3 88  1  0  0  0
  4  5  1  0  0  0
  4 89  1  0  0  0
  4 90  1  0  0  0
  5  6  1  0  0  0
  5 26  1  0  0  0
  5 91  1  0  0  0
  6 25  1  0  0  0
  6 92  1  0  0  0
  6 93  1  0  0  0
  7  8  2  0  0  0
  7 26  1  0  0  0
  7 29  1  0  0  0
  8  9  1  0  0  0
  8 22  1  0  0  0
  9 10  1  0  0  0
  9 27  2  0  0  0
 10 11  2  0  0  0
 10 15  1  0  0  0
 11 12  1  0  0  0
 11 94  1  0  0  0
 12 13  2  0  0  0
 12 95  1  0  0  0
 13 14  1  0  0  0
 13 31  1  0  0  0
 14 15  2  0  0  0
 14 96  1  0  0  0
 15 97  1  0  0  0
 16 17  2  0  0  0
 16 21  1  0  0  0
 16 31  1  0  0  0
 17 18  1  0  0  0
 17 98  1  0  0  0
 18 19  2  0  0  0
 18 99  1  0  0  0
 19 20  1  0  0  0
 19 24  1  0  0  0
 20 21  2  0  0  0
 20100  1  0  0  0
 21 23  1  0  0  0
 22 28  1  0  0  0
 22 32  2  0  0  0
 26 27  1  0  0  0
 28101  1  0  0  0
 28102  1  0  0  0
 29103  1  0  0  0
 29104  1  0  0  0
 33 34  1  0  0  0
 33 66  1  0  0  0
 33 70  2  0  0  0
 34 36  1  0  0  0
 34 59  1  0  0  0
 34105  1  0  0  0
 35 44  2  0  0  0
 35 45  1  0  0  0
 35 68  1  0  0  0
 36 56  1  0  0  0
 36106  1  0  0  0
 37 39  1  0  0  0
 37 47  1  0  0  0
 37 66  1  0  0  0
 37107  1  0  0  0
 38 43  2  0  0  0
 38 46  1  0  0  0
 38 47  1  0  0  0
 39 64  1  0  0  0
 39 67  2  0  0  0
 40 52  1  0  0  0
 40 53  2  0  0  0
 40 58  1  0  0  0
 41108  1  0  0  0
 41109  1  0  0  0
 41110  1  0  0  0
 41 48  1  0  0  0
 42 43  1  0  0  0
 42 66  1  0  0  0
 42111  1  0  0  0
 42112  1  0  0  0
 43 44  1  0  0  0
 44113  1  0  0  0
 45 46  2  0  0  0
 45114  1  0  0  0
 46115  1  0  0  0
 47116  1  0  0  0
 47117  1  0  0  0
 48 56  1  0  0  0
 48 65  1  0  0  0
 48118  1  0  0  0
 49 50  1  0  0  0
 49 53  1  0  0  0
 49 64  1  0  0  0
 49119  1  0  0  0
 50 51  1  0  0  0
 50120  1  0  0  0
 50121  1  0  0  0
 51 52  1  0  0  0
 51122  1  0  0  0
 51123  1  0  0  0
 52124  1  0  0  0
 52125  1  0  0  0
 53 54  1  0  0  0
 54 55  2  0  0  0
 54126  1  0  0  0
 55 57  1  0  0  0
 55127  1  0  0  0
 56 69  2  0  0  0
 57 58  2  0  0  0
 57128  1  0  0  0
 58129  1  0  0  0
 59 60  1  0  0  0
 59 61  1  0  0  0
 59 62  1  0  0  0
 60130  1  0  0  0
 60131  1  0  0  0
 60132  1  0  0  0
 61133  1  0  0  0
 61134  1  0  0  0
 61135  1  0  0  0
 62136  1  0  0  0
 62137  1  0  0  0
 62138  1  0  0  0
 63 65  1  0  0  0
 63139  1  0  0  0
 63140  1  0  0  0
 63141  1  0  0  0
 64142  1  0  0  0
 65143  1  0  0  0
 68 79  1  0  0  0
 71 72  1  0  0  0
 71 80  2  0  0  0
 71 83  1  0  0  0
 72 73  1  0  0  0
 72144  1  0  0  0
 72145  1  0  0  0
 73 74  1  0  0  0
 73146  1  0  0  0
 73147  1  0  0  0
 74 75  1  0  0  0
 74148  1  0  0  0
 74149  1  0  0  0
 75 79  1  0  0  0
 75150  1  0  0  0
 75151  1  0  0  0
 76 77  1  0  0  0
 76 78  1  0  0  0
 76152  1  0  0  0
 76153  1  0  0  0
 77 83  1  0  0  0
 77154  1  0  0  0
 77155  1  0  0  0
 78 84  1  0  0  0
 78156  1  0  0  0
 78157  1  0  0  0
 79158  1  0  0  0
 79159  1  0  0  0
 80 81  1  0  0  0
 81 82  2  0  0  0
 82 83  1  0  0  0
 84160  1  0  0  0
M  ISO  4   1 100  68 101  79 101  84 100
M  END
> <chiral flag>
0

> <version>
0

> <s_m_source_file>
/data/baiqing/PycharmProjects/Reinvent-master-3.2/result/LINK_invent/BTK/process_docking_weight1_custom_sum_contain_oxygen_bond_distance_aromatic_linkinvent_7_9_3/rearranged_h_0043.sdf

> <i_m_source_file_index>
16

> <r_mmod_Potential_Energy-OPLS-2005>
-113.89624786377

> <r_mmod_Stretch_Energy-OPLS-2005>
31.4790439605713

> <r_mmod_Bend_Energy-OPLS-2005>
105.335563659668

> <r_mmod_Torsional_Energy-OPLS-2005>
201.157455444336

> <r_mmod_Improper_Torsional_Energy-OPLS-2005>
4.58978986740112

> <r_mmod_Van_der_Waal_Energy-OPLS-2005>
126.727424621582

> <r_mmod_Electrostatic_Energy-OPLS-2005>
-354.69580078125

> <r_mmod_Solvation_Energy-OPLS-2005>
-238.323318481445

> <b_mmod_Minimization_Converged-OPLS-2005>
0

> <r_mmod_RMS_Derivative-OPLS-2005>
2.71754264831543

$$$$
16
                    3D
 Structure written by MMmdl.
163171  0  0  1  0            999 V2000
  -30.7024  -14.4406   20.6159 C   0  0  0  0  0  0
  -30.4284  -12.3021   19.4027 C   0  0  0  0  0  0
  -29.4903  -12.5144   18.1967 C   0  0  0  0  0  0
  -28.0117  -12.3763   18.6136 C   0  0  0  0  0  0
  -27.6683  -13.2003   19.8838 C   0  0  2  0  0  0
  -28.7137  -12.9413   20.9929 C   0  0  0  0  0  0
  -25.2626  -13.8150   20.5693 C   0  0  0  0  0  0
  -24.1857  -13.0436   20.9171 C   0  0  0  0  0  0
  -24.6400  -11.6901   20.8736 C   0  0  0  0  0  0
  -23.9058  -10.4290   21.0404 C   0  0  0  0  0  0
  -24.3611   -9.4207   21.9183 C   0  0  0  0  0  0
  -23.6288   -8.2242   22.0754 C   0  0  0  0  0  0
  -22.4271   -8.0281   21.3544 C   0  0  0  0  0  0
  -21.9906   -9.0255   20.4646 C   0  0  0  0  0  0
  -22.7232  -10.2134   20.3055 C   0  0  0  0  0  0
  -21.6848   -6.0735   22.5279 C   0  0  0  0  0  0
  -21.4011   -6.5641   23.8214 C   0  0  0  0  0  0
  -21.3660   -5.6793   24.9175 C   0  0  0  0  0  0
  -21.6043   -4.3056   24.7226 C   0  0  0  0  0  0
  -21.8820   -3.8148   23.4348 C   0  0  0  0  0  0
  -21.9195   -4.6963   22.3403 C   0  0  0  0  0  0
  -22.7880  -13.5243   21.1833 C   0  0  0  0  0  0
  -22.1662   -4.2150   21.0980 F   0  0  0  0  0  0
  -21.5631   -3.4540   25.7740 F   0  0  0  0  0  0
  -30.0405  -13.2636   20.4457 N   0  0  0  0  0  0
  -26.3066  -12.9307   20.3421 N   0  0  0  0  0  0
  -25.9330  -11.6470   20.5785 N   0  0  0  0  0  0
  -22.0515  -12.8238   22.0390 N   0  0  0  0  0  0
  -25.4370  -15.1863   20.4099 N   0  0  0  0  0  0
  -31.7976  -14.6546   20.0858 O   0  0  0  0  0  0
  -21.6638   -6.8878   21.4240 O   0  0  0  0  0  0
  -22.3569  -14.5552   20.6688 O   0  0  0  0  0  0
  -24.6124  -31.8698   23.2120 C   0  0  0  0  0  0
  -25.9031  -32.4831   23.8410 C   0  0  1  0  0  0
  -27.2445  -27.4573   20.1023 C   0  0  0  0  0  0
  -25.5894  -33.8628   24.2346 N   0  0  0  0  0  0
  -23.4005  -30.4919   21.5509 C   0  0  2  0  0  0
  -24.8511  -28.9594   20.1169 C   0  0  0  0  0  0
  -22.7406  -29.4658   22.4997 C   0  0  0  0  0  0
  -18.0272  -28.1376   22.8486 C   0  0  0  0  0  0
  -24.1487  -36.7318   23.2638 C   0  0  0  0  0  0
  -25.9255  -30.8430   21.3626 C   0  0  0  0  0  0
  -26.0062  -29.4763   20.7176 C   0  0  0  0  0  0
  -27.2059  -28.7323   20.7140 C   0  0  0  0  0  0
  -26.0797  -26.9562   19.4883 C   0  0  0  0  0  0
  -24.8806  -27.6953   19.5006 C   0  0  0  0  0  0
  -23.6103  -29.8229   20.1652 C   0  0  0  0  0  0
  -25.4103  -36.3115   24.0343 C   0  0  1  0  0  0
  -20.5860  -28.3660   23.1319 C   0  0  2  0  0  0
  -20.6767  -26.9398   22.5416 C   0  0  0  0  0  0
  -19.5747  -26.6382   21.5208 C   0  0  0  0  0  0
  -18.1923  -26.7921   22.1616 C   0  0  0  0  0  0
  -19.1519  -28.8831   23.2906 C   0  0  0  0  0  0
  -18.9451  -30.1438   23.8917 C   0  0  0  0  0  0
  -17.6456  -30.6585   24.0561 C   0  0  0  0  0  0
  -25.9024  -34.9481   23.5140 C   0  0  0  0  0  0
  -16.5347  -29.9090   23.6315 C   0  0  0  0  0  0
  -16.7261  -28.6505   23.0337 C   0  0  0  0  0  0
  -26.4467  -31.6598   25.0726 C   0  0  0  0  0  0
  -25.3739  -31.3694   26.1478 C   0  0  0  0  0  0
  -27.0290  -30.3048   24.6066 C   0  0  0  0  0  0
  -27.6053  -32.4307   25.7479 C   0  0  0  0  0  0
  -27.5580  -37.1813   24.8465 C   0  0  0  0  0  0
  -21.4137  -29.3026   22.3732 N   0  0  0  0  0  0
  -26.4292  -37.3797   23.9410 N   0  0  0  0  0  0
  -24.6641  -31.0828   22.1006 N   0  0  0  0  0  0
  -23.4185  -28.8201   23.3036 O   0  0  0  0  0  0
  -28.3801  -26.6816   20.0484 O   0  0  0  0  0  0
  -26.5588  -34.8924   22.4700 O   0  0  0  0  0  0
  -23.5324  -32.1427   23.7537 O   0  0  0  0  0  0
  -28.0604  -22.8723   22.3112 C   0  0  0  0  0  0
  -30.3255  -22.7535   21.1867 C   0  0  0  0  0  0
  -27.8858  -24.3157   21.8055 C   0  0  0  0  0  0
  -30.1374  -24.2066   20.6911 C   0  0  0  0  0  0
  -28.9804  -22.0221   21.4048 C   0  0  1  0  0  0
  -29.2443  -25.0222   21.6477 C   0  0  1  0  0  0
  -30.0523  -15.5891   21.4230 C   0  0  0  0  0  0
  -29.1450  -20.6062   22.0130 C   0  0  0  0  0  0
  -29.1055  -26.5168   21.2680 C   0  0  0  0  0  0
  -30.3913  -17.0108   20.9018 C   0  0  0  0  0  0
  -29.8368  -19.5476   21.1253 C   0  0  0  0  0  0
  -29.6899  -18.1243   21.7107 C   0  0  0  0  0  0
  -31.4698  -12.4122   19.0954 H   0  0  0  0  0  0
  -30.3397  -11.2830   19.7820 H   0  0  0  0  0  0
  -29.7238  -11.7983   17.4077 H   0  0  0  0  0  0
  -29.6596  -13.5047   17.7708 H   0  0  0  0  0  0
  -27.8157  -11.3187   18.7949 H   0  0  0  0  0  0
  -27.3596  -12.6673   17.7892 H   0  0  0  0  0  0
  -27.7243  -14.2533   19.6081 H   0  0  0  0  0  0
  -28.6914  -11.8910   21.2871 H   0  0  0  0  0  0
  -28.4811  -13.4889   21.9054 H   0  0  0  0  0  0
  -25.2757   -9.5684   22.4757 H   0  0  0  0  0  0
  -24.0002   -7.4633   22.7471 H   0  0  0  0  0  0
  -21.0839   -8.8770   19.8952 H   0  0  0  0  0  0
  -22.3691  -10.9672   19.6164 H   0  0  0  0  0  0
  -21.1997   -7.6149   23.9715 H   0  0  0  0  0  0
  -21.1481   -6.0525   25.9079 H   0  0  0  0  0  0
  -22.0600   -2.7611   23.2847 H   0  0  0  0  0  0
  -22.4123  -11.9894   22.4775 H   0  0  0  0  0  0
  -21.1137  -13.1271   22.2597 H   0  0  0  0  0  0
  -24.6761  -15.8476   20.5208 H   0  0  0  0  0  0
  -26.3006  -15.6227   20.1109 H   0  0  0  0  0  0
  -26.7112  -32.5558   23.1192 H   0  0  0  0  0  0
  -25.0070  -33.9792   25.0509 H   0  0  0  0  0  0
  -22.6874  -31.3074   21.4124 H   0  0  0  0  0  0
  -23.3742  -35.9656   23.3310 H   0  0  0  0  0  0
  -24.3592  -36.8916   22.2052 H   0  0  0  0  0  0
  -23.7244  -37.6530   23.6641 H   0  0  0  0  0  0
  -26.0318  -31.6073   20.5910 H   0  0  0  0  0  0
  -26.8154  -30.9022   21.9770 H   0  0  0  0  0  0
  -28.0975  -29.1414   21.1690 H   0  0  0  0  0  0
  -26.1009  -25.9868   19.0103 H   0  0  0  0  0  0
  -23.9946  -27.2909   19.0311 H   0  0  0  0  0  0
  -23.7187  -30.5981   19.4054 H   0  0  0  0  0  0
  -22.7358  -29.2413   19.8685 H   0  0  0  0  0  0
  -25.1278  -36.1986   25.0836 H   0  0  0  0  0  0
  -20.9957  -28.3228   24.1438 H   0  0  0  0  0  0
  -20.5674  -26.2268   23.3603 H   0  0  0  0  0  0
  -21.6641  -26.7447   22.1209 H   0  0  0  0  0  0
  -19.6911  -25.6296   21.1227 H   0  0  0  0  0  0
  -19.6691  -27.3205   20.6747 H   0  0  0  0  0  0
  -17.4197  -26.6666   21.4016 H   0  0  0  0  0  0
  -18.0326  -26.0058   22.9008 H   0  0  0  0  0  0
  -19.7929  -30.7239   24.2307 H   0  0  0  0  0  0
  -17.5013  -31.6265   24.5163 H   0  0  0  0  0  0
  -15.5351  -30.3002   23.7625 H   0  0  0  0  0  0
  -15.8658  -28.0839   22.7033 H   0  0  0  0  0  0
  -24.5925  -30.7021   25.7821 H   0  0  0  0  0  0
  -24.8913  -32.2845   26.4923 H   0  0  0  0  0  0
  -25.8103  -30.8876   27.0237 H   0  0  0  0  0  0
  -26.2822  -29.6821   24.1128 H   0  0  0  0  0  0
  -27.4089  -29.7269   25.4501 H   0  0  0  0  0  0
  -27.8642  -30.4382   23.9184 H   0  0  0  0  0  0
  -27.2687  -33.3601   26.2087 H   0  0  0  0  0  0
  -28.3847  -32.6877   25.0290 H   0  0  0  0  0  0
  -28.0737  -31.8408   26.5368 H   0  0  0  0  0  0
  -28.2606  -38.0103   24.7518 H   0  0  0  0  0  0
  -28.1068  -36.2642   24.6283 H   0  0  0  0  0  0
  -27.2307  -37.1457   25.8869 H   0  0  0  0  0  0
  -20.9301  -29.8756   21.6962 H   0  0  0  0  0  0
  -26.0182  -38.2873   24.1417 H   0  0  0  0  0  0
  -27.0793  -22.4012   22.3910 H   0  0  0  0  0  0
  -28.4672  -22.8978   23.3237 H   0  0  0  0  0  0
  -30.8909  -22.7637   22.1198 H   0  0  0  0  0  0
  -30.9372  -22.2043   20.4697 H   0  0  0  0  0  0
  -27.2541  -24.8726   22.4988 H   0  0  0  0  0  0
  -27.3580  -24.3094   20.8503 H   0  0  0  0  0  0
  -29.6994  -24.2025   19.6916 H   0  0  0  0  0  0
  -31.1116  -24.6875   20.5961 H   0  0  0  0  0  0
  -28.4883  -21.9210   20.4360 H   0  0  0  0  0  0
  -29.7322  -25.0098   22.6240 H   0  0  0  0  0  0
  -28.9681  -15.5025   21.4019 H   0  0  0  0  0  0
  -30.3573  -15.4857   22.4644 H   0  0  0  0  0  0
  -28.1506  -20.2327   22.2624 H   0  0  0  0  0  0
  -29.6761  -20.6789   22.9635 H   0  0  0  0  0  0
  -30.0903  -26.9697   21.1501 H   0  0  0  0  0  0
  -28.6328  -27.0338   22.1047 H   0  0  0  0  0  0
  -30.0939  -17.0838   19.8545 H   0  0  0  0  0  0
  -31.4698  -17.1733   20.9259 H   0  0  0  0  0  0
  -30.8930  -19.7952   21.0113 H   0  0  0  0  0  0
  -29.4041  -19.5705   20.1237 H   0  0  0  0  0  0
  -30.0699  -18.1120   22.7332 H   0  0  0  0  0  0
  -28.6267  -17.8896   21.7839 H   0  0  0  0  0  0
  1 25  1  0  0  0
  1 30  2  0  0  0
  1 77  1  0  0  0
  2  3  1  0  0  0
  2 25  1  0  0  0
  2 83  1  0  0  0
  2 84  1  0  0  0
  3  4  1  0  0  0
  3 85  1  0  0  0
  3 86  1  0  0  0
  4  5  1  0  0  0
  4 87  1  0  0  0
  4 88  1  0  0  0
  5  6  1  0  0  0
  5 26  1  0  0  0
  5 89  1  0  0  0
  6 25  1  0  0  0
  6 90  1  0  0  0
  6 91  1  0  0  0
  7  8  2  0  0  0
  7 26  1  0  0  0
  7 29  1  0  0  0
  8  9  1  0  0  0
  8 22  1  0  0  0
  9 10  1  0  0  0
  9 27  2  0  0  0
 10 11  2  0  0  0
 10 15  1  0  0  0
 11 12  1  0  0  0
 11 92  1  0  0  0
 12 13  2  0  0  0
 12 93  1  0  0  0
 13 14  1  0  0  0
 13 31  1  0  0  0
 14 15  2  0  0  0
 14 94  1  0  0  0
 15 95  1  0  0  0
 16 17  2  0  0  0
 16 21  1  0  0  0
 16 31  1  0  0  0
 17 18  1  0  0  0
 17 96  1  0  0  0
 18 19  2  0  0  0
 18 97  1  0  0  0
 19 20  1  0  0  0
 19 24  1  0  0  0
 20 21  2  0  0  0
 20 98  1  0  0  0
 21 23  1  0  0  0
 22 28  1  0  0  0
 22 32  2  0  0  0
 26 27  1  0  0  0
 28 99  1  0  0  0
 28100  1  0  0  0
 29101  1  0  0  0
 29102  1  0  0  0
 33 34  1  0  0  0
 33 66  1  0  0  0
 33 70  2  0  0  0
 34 36  1  0  0  0
 34 59  1  0  0  0
 34103  1  0  0  0
 35 44  2  0  0  0
 35 45  1  0  0  0
 35 68  1  0  0  0
 36 56  1  0  0  0
 36104  1  0  0  0
 37 39  1  0  0  0
 37 47  1  0  0  0
 37 66  1  0  0  0
 37105  1  0  0  0
 38 43  2  0  0  0
 38 46  1  0  0  0
 38 47  1  0  0  0
 39 64  1  0  0  0
 39 67  2  0  0  0
 40 52  1  0  0  0
 40 53  2  0  0  0
 40 58  1  0  0  0
 41106  1  0  0  0
 41107  1  0  0  0
 41108  1  0  0  0
 41 48  1  0  0  0
 42 43  1  0  0  0
 42 66  1  0  0  0
 42109  1  0  0  0
 42110  1  0  0  0
 43 44  1  0  0  0
 44111  1  0  0  0
 45 46  2  0  0  0
 45112  1  0  0  0
 46113  1  0  0  0
 47114  1  0  0  0
 47115  1  0  0  0
 48 56  1  0  0  0
 48 65  1  0  0  0
 48116  1  0  0  0
 49 50  1  0  0  0
 49 53  1  0  0  0
 49 64  1  0  0  0
 49117  1  0  0  0
 50 51  1  0  0  0
 50118  1  0  0  0
 50119  1  0  0  0
 51 52  1  0  0  0
 51120  1  0  0  0
 51121  1  0  0  0
 52122  1  0  0  0
 52123  1  0  0  0
 53 54  1  0  0  0
 54 55  2  0  0  0
 54124  1  0  0  0
 55 57  1  0  0  0
 55125  1  0  0  0
 56 69  2  0  0  0
 57 58  2  0  0  0
 57126  1  0  0  0
 58127  1  0  0  0
 59 60  1  0  0  0
 59 61  1  0  0  0
 59 62  1  0  0  0
 60128  1  0  0  0
 60129  1  0  0  0
 60130  1  0  0  0
 61131  1  0  0  0
 61132  1  0  0  0
 61133  1  0  0  0
 62134  1  0  0  0
 62135  1  0  0  0
 62136  1  0  0  0
 63 65  1  0  0  0
 63137  1  0  0  0
 63138  1  0  0  0
 63139  1  0  0  0
 64140  1  0  0  0
 65141  1  0  0  0
 68 79  1  0  0  0
 71 73  1  0  0  0
 71 75  1  0  0  0
 71142  1  0  0  0
 71143  1  0  0  0
 72 74  1  0  0  0
 72 75  1  0  0  0
 72144  1  0  0  0
 72145  1  0  0  0
 73 76  1  0  0  0
 73146  1  0  0  0
 73147  1  0  0  0
 74 76  1  0  0  0
 74148  1  0  0  0
 74149  1  0  0  0
 75 78  1  0  0  0
 75150  1  0  0  0
 76 79  1  0  0  0
 76151  1  0  0  0
 77 80  1  0  0  0
 77152  1  0  0  0
 77153  1  0  0  0
 78 81  1  0  0  0
 78154  1  0  0  0
 78155  1  0  0  0
 79156  1  0  0  0
 79157  1  0  0  0
 80 82  1  0  0  0
 80158  1  0  0  0
 80159  1  0  0  0
 81 82  1  0  0  0
 81160  1  0  0  0
 81161  1  0  0  0
 82162  1  0  0  0
 82163  1  0  0  0
M  ISO  4   1 100  68 101  77 100  79 101
M  END
> <chiral flag>
0

> <version>
0

> <s_m_source_file>
/data/baiqing/PycharmProjects/Reinvent-master-3.2/result/LINK_invent/BTK/process_docking_weight1_custom_sum_contain_oxygen_bond_distance_aromatic_linkinvent_7_9_3/rearranged_h_0043.sdf

> <i_m_source_file_index>
17

> <r_mmod_Potential_Energy-OPLS-2005>
-3.01854586601257

> <r_mmod_Stretch_Energy-OPLS-2005>
34.2056732177734

> <r_mmod_Bend_Energy-OPLS-2005>
96.1328125

> <r_mmod_Torsional_Energy-OPLS-2005>
205.777908325195

> <r_mmod_Improper_Torsional_Energy-OPLS-2005>
2.10220122337341

> <r_mmod_Van_der_Waal_Energy-OPLS-2005>
130.606979370117

> <r_mmod_Electrostatic_Energy-OPLS-2005>
-304.183624267578

> <r_mmod_Solvation_Energy-OPLS-2005>
-176.169189453125

> <b_mmod_Minimization_Converged-OPLS-2005>
0

> <r_mmod_RMS_Derivative-OPLS-2005>
0.804645299911499

$$$$
17
                    3D
 Structure written by MMmdl.
160168  0  0  1  0            999 V2000
  -30.6556  -14.5530   20.5513 C   0  0  0  0  0  0
  -30.4278  -12.3550   19.4298 C   0  0  0  0  0  0
  -29.4945  -12.5040   18.2087 C   0  0  0  0  0  0
  -28.0176  -12.3493   18.6241 C   0  0  0  0  0  0
  -27.6522  -13.2085   19.8642 C   0  0  2  0  0  0
  -28.6950  -13.0254   20.9889 C   0  0  0  0  0  0
  -25.2548  -13.8162   20.5683 C   0  0  0  0  0  0
  -24.1803  -13.0439   20.9187 C   0  0  0  0  0  0
  -24.6358  -11.6900   20.8748 C   0  0  0  0  0  0
  -23.9031  -10.4280   21.0412 C   0  0  0  0  0  0
  -24.3584   -9.4203   21.9191 C   0  0  0  0  0  0
  -23.6266   -8.2235   22.0760 C   0  0  0  0  0  0
  -22.4254   -8.0266   21.3537 C   0  0  0  0  0  0
  -21.9883   -9.0253   20.4654 C   0  0  0  0  0  0
  -22.7208  -10.2130   20.3061 C   0  0  0  0  0  0
  -21.6856   -6.0717   22.5276 C   0  0  0  0  0  0
  -21.4025   -6.5629   23.8208 C   0  0  0  0  0  0
  -21.3654   -5.6781   24.9174 C   0  0  0  0  0  0
  -21.6050   -4.3046   24.7234 C   0  0  0  0  0  0
  -21.8816   -3.8131   23.4360 C   0  0  0  0  0  0
  -21.9196   -4.6942   22.3408 C   0  0  0  0  0  0
  -22.7823  -13.5247   21.1848 C   0  0  0  0  0  0
  -22.1656   -4.2123   21.0987 F   0  0  0  0  0  0
  -21.5628   -3.4530   25.7750 F   0  0  0  0  0  0
  -30.0147  -13.3561   20.4287 N   0  0  0  0  0  0
  -26.2963  -12.9325   20.3315 N   0  0  0  0  0  0
  -25.9285  -11.6488   20.5753 N   0  0  0  0  0  0
  -22.0459  -12.8265   22.0419 N   0  0  0  0  0  0
  -25.4322  -15.1879   20.4107 N   0  0  0  0  0  0
  -31.8099  -14.7241   20.1455 O   0  0  0  0  0  0
  -21.6628   -6.8856   21.4230 O   0  0  0  0  0  0
  -22.3527  -14.5561   20.6705 O   0  0  0  0  0  0
  -24.6211  -31.8633   23.2037 C   0  0  0  0  0  0
  -25.9086  -32.4787   23.8352 C   0  0  1  0  0  0
  -27.2281  -27.3805   20.1111 C   0  0  0  0  0  0
  -25.5933  -33.8587   24.2301 N   0  0  0  0  0  0
  -23.4108  -30.4868   21.5444 C   0  0  2  0  0  0
  -24.8574  -28.9412   20.1144 C   0  0  0  0  0  0
  -22.7434  -29.4661   22.4956 C   0  0  0  0  0  0
  -18.0288  -28.1377   22.8465 C   0  0  0  0  0  0
  -24.1483  -36.7308   23.2634 C   0  0  0  0  0  0
  -25.9435  -30.8142   21.3620 C   0  0  0  0  0  0
  -26.0212  -29.4433   20.7125 C   0  0  0  0  0  0
  -27.2136  -28.6720   20.7015 C   0  0  0  0  0  0
  -26.0493  -26.9066   19.5036 C   0  0  0  0  0  0
  -24.8685  -27.6742   19.5062 C   0  0  0  0  0  0
  -23.6228  -29.8156   20.1611 C   0  0  0  0  0  0
  -25.4104  -36.3101   24.0336 C   0  0  1  0  0  0
  -20.5875  -28.3688   23.1297 C   0  0  2  0  0  0
  -20.6767  -26.9399   22.5470 C   0  0  0  0  0  0
  -19.5783  -26.6364   21.5242 C   0  0  0  0  0  0
  -18.1941  -26.7919   22.1607 C   0  0  0  0  0  0
  -19.1532  -28.8848   23.2879 C   0  0  0  0  0  0
  -18.9445  -30.1450   23.8895 C   0  0  0  0  0  0
  -17.6446  -30.6571   24.0556 C   0  0  0  0  0  0
  -25.9043  -34.9467   23.5121 C   0  0  0  0  0  0
  -16.5345  -29.9066   23.6311 C   0  0  0  0  0  0
  -16.7277  -28.6491   23.0316 C   0  0  0  0  0  0
  -26.4487  -31.6585   25.0701 C   0  0  0  0  0  0
  -25.3745  -31.3725   26.1451 C   0  0  0  0  0  0
  -27.0322  -30.3021   24.6105 C   0  0  0  0  0  0
  -27.6049  -32.4307   25.7472 C   0  0  0  0  0  0
  -27.5576  -37.1804   24.8463 C   0  0  0  0  0  0
  -21.4156  -29.3047   22.3686 N   0  0  0  0  0  0
  -26.4287  -37.3790   23.9418 N   0  0  0  0  0  0
  -24.6769  -31.0708   22.0947 N   0  0  0  0  0  0
  -23.4176  -28.8220   23.3038 O   0  0  0  0  0  0
  -28.3584  -26.5767   20.1183 O   0  0  0  0  0  0
  -26.5594  -34.8933   22.4678 O   0  0  0  0  0  0
  -23.5396  -32.1421   23.7411 O   0  0  0  0  0  0
  -26.3196  -23.0614   21.6353 C   0  0  0  0  0  0
  -27.5072  -22.7963   20.9240 C   0  0  0  0  0  0
  -27.9462  -21.4294   20.9726 C   0  0  0  0  0  0
  -26.1512  -20.9033   22.3209 C   0  0  0  0  0  0
  -25.3968  -19.8507   23.1051 C   0  0  0  0  0  0
  -28.1174  -23.9742   20.1089 C   0  0  0  0  0  0
  -29.1197  -20.7974   20.1960 C   0  0  0  0  0  0
  -29.8682  -19.5871   20.8863 C   0  0  0  0  0  0
  -29.4144  -18.1104   20.5740 C   0  0  0  0  0  0
  -30.3175  -17.0004   21.2248 C   0  0  0  0  0  0
  -28.2572  -25.3435   20.8870 C   0  0  0  0  0  0
  -25.6584  -22.1286   22.3379 N   0  0  0  0  0  0
  -27.2348  -20.5180   21.6669 N   0  0  0  0  0  0
  -29.9011  -15.5891   21.0001 N   0  0  0  0  0  0
  -31.4688  -12.4763   19.1256 H   0  0  0  0  0  0
  -30.3590  -11.3517   19.8522 H   0  0  0  0  0  0
  -29.7447  -11.7623   17.4488 H   0  0  0  0  0  0
  -29.6448  -13.4807   17.7449 H   0  0  0  0  0  0
  -27.8487  -11.2951   18.8438 H   0  0  0  0  0  0
  -27.3615  -12.5938   17.7872 H   0  0  0  0  0  0
  -27.6845  -14.2482   19.5410 H   0  0  0  0  0  0
  -28.6935  -11.9947   21.3455 H   0  0  0  0  0  0
  -28.4470  -13.6379   21.8575 H   0  0  0  0  0  0
  -25.2724   -9.5687   22.4774 H   0  0  0  0  0  0
  -23.9980   -7.4625   22.7484 H   0  0  0  0  0  0
  -21.0816   -8.8776   19.8963 H   0  0  0  0  0  0
  -22.3667  -10.9676   19.6171 H   0  0  0  0  0  0
  -21.2018   -7.6134   23.9714 H   0  0  0  0  0  0
  -21.1478   -6.0508   25.9079 H   0  0  0  0  0  0
  -22.0602   -2.7592   23.2876 H   0  0  0  0  0  0
  -22.4039  -11.9910   22.4795 H   0  0  0  0  0  0
  -21.1088  -13.1333   22.2623 H   0  0  0  0  0  0
  -24.6739  -15.8515   20.5216 H   0  0  0  0  0  0
  -26.2861  -15.6189   20.0793 H   0  0  0  0  0  0
  -26.7153  -32.5488   23.1108 H   0  0  0  0  0  0
  -25.0104  -33.9725   25.0461 H   0  0  0  0  0  0
  -22.7010  -31.3040   21.4012 H   0  0  0  0  0  0
  -23.3734  -35.9650   23.3302 H   0  0  0  0  0  0
  -24.3580  -36.8921   22.2048 H   0  0  0  0  0  0
  -23.7243  -37.6514   23.6646 H   0  0  0  0  0  0
  -26.0611  -31.5753   20.5901 H   0  0  0  0  0  0
  -26.8264  -30.8693   21.9852 H   0  0  0  0  0  0
  -28.1135  -29.0523   21.1652 H   0  0  0  0  0  0
  -26.0403  -25.9378   19.0280 H   0  0  0  0  0  0
  -23.9746  -27.2798   19.0419 H   0  0  0  0  0  0
  -23.7411  -30.5869   19.3997 H   0  0  0  0  0  0
  -22.7431  -29.2422   19.8603 H   0  0  0  0  0  0
  -25.1273  -36.1950   25.0823 H   0  0  0  0  0  0
  -20.9954  -28.3269   24.1422 H   0  0  0  0  0  0
  -20.5603  -26.2337   23.3707 H   0  0  0  0  0  0
  -21.6648  -26.7372   22.1333 H   0  0  0  0  0  0
  -19.6959  -25.6266   21.1303 H   0  0  0  0  0  0
  -19.6763  -27.3161   20.6765 H   0  0  0  0  0  0
  -17.4240  -26.6679   21.3978 H   0  0  0  0  0  0
  -18.0311  -26.0044   22.8986 H   0  0  0  0  0  0
  -19.7924  -30.7255   24.2272 H   0  0  0  0  0  0
  -17.4997  -31.6247   24.5157 H   0  0  0  0  0  0
  -15.5339  -30.2953   23.7624 H   0  0  0  0  0  0
  -15.8700  -28.0811   22.6995 H   0  0  0  0  0  0
  -24.5888  -30.7099   25.7799 H   0  0  0  0  0  0
  -24.8968  -32.2896   26.4903 H   0  0  0  0  0  0
  -25.8092  -30.8885   27.0207 H   0  0  0  0  0  0
  -26.2886  -29.6765   24.1148 H   0  0  0  0  0  0
  -27.4067  -29.7272   25.4582 H   0  0  0  0  0  0
  -27.8730  -30.4312   23.9289 H   0  0  0  0  0  0
  -27.2646  -33.3587   26.2077 H   0  0  0  0  0  0
  -28.3846  -32.6898   25.0298 H   0  0  0  0  0  0
  -28.0724  -31.8413   26.5367 H   0  0  0  0  0  0
  -28.2592  -38.0098   24.7506 H   0  0  0  0  0  0
  -28.1069  -36.2633   24.6282 H   0  0  0  0  0  0
  -27.2305  -37.1459   25.8866 H   0  0  0  0  0  0
  -20.9326  -29.8788   21.6922 H   0  0  0  0  0  0
  -26.0174  -38.2871   24.1399 H   0  0  0  0  0  0
  -25.8588  -24.0367   21.6235 H   0  0  0  0  0  0
  -24.3431  -19.8474   22.8256 H   0  0  0  0  0  0
  -25.4622  -20.0543   24.1738 H   0  0  0  0  0  0
  -25.7947  -18.8510   22.9258 H   0  0  0  0  0  0
  -27.4574  -24.1256   19.2549 H   0  0  0  0  0  0
  -29.0809  -23.6934   19.6847 H   0  0  0  0  0  0
  -29.8553  -21.5875   20.0499 H   0  0  0  0  0  0
  -28.7834  -20.5177   19.1970 H   0  0  0  0  0  0
  -29.8974  -19.7502   21.9639 H   0  0  0  0  0  0
  -30.9094  -19.6516   20.5663 H   0  0  0  0  0  0
  -29.3988  -17.9629   19.4934 H   0  0  0  0  0  0
  -28.3845  -17.9794   20.9072 H   0  0  0  0  0  0
  -30.3294  -17.1554   22.3054 H   0  0  0  0  0  0
  -31.3491  -17.1421   20.8992 H   0  0  0  0  0  0
  -29.1466  -25.2772   21.5129 H   0  0  0  0  0  0
  -27.4463  -25.4707   21.6025 H   0  0  0  0  0  0
  -28.9593  -15.3491   21.2726 H   0  0  0  0  0  0
  1 25  1  0  0  0
  1 30  2  0  0  0
  1 84  1  0  0  0
  2  3  1  0  0  0
  2 25  1  0  0  0
  2 85  1  0  0  0
  2 86  1  0  0  0
  3  4  1  0  0  0
  3 87  1  0  0  0
  3 88  1  0  0  0
  4  5  1  0  0  0
  4 89  1  0  0  0
  4 90  1  0  0  0
  5  6  1  0  0  0
  5 26  1  0  0  0
  5 91  1  0  0  0
  6 25  1  0  0  0
  6 92  1  0  0  0
  6 93  1  0  0  0
  7  8  2  0  0  0
  7 26  1  0  0  0
  7 29  1  0  0  0
  8  9  1  0  0  0
  8 22  1  0  0  0
  9 10  1  0  0  0
  9 27  2  0  0  0
 10 11  2  0  0  0
 10 15  1  0  0  0
 11 12  1  0  0  0
 11 94  1  0  0  0
 12 13  2  0  0  0
 12 95  1  0  0  0
 13 14  1  0  0  0
 13 31  1  0  0  0
 14 15  2  0  0  0
 14 96  1  0  0  0
 15 97  1  0  0  0
 16 17  2  0  0  0
 16 21  1  0  0  0
 16 31  1  0  0  0
 17 18  1  0  0  0
 17 98  1  0  0  0
 18 19  2  0  0  0
 18 99  1  0  0  0
 19 20  1  0  0  0
 19 24  1  0  0  0
 20 21  2  0  0  0
 20100  1  0  0  0
 21 23  1  0  0  0
 22 28  1  0  0  0
 22 32  2  0  0  0
 26 27  1  0  0  0
 28101  1  0  0  0
 28102  1  0  0  0
 29103  1  0  0  0
 29104  1  0  0  0
 33 34  1  0  0  0
 33 66  1  0  0  0
 33 70  2  0  0  0
 34 36  1  0  0  0
 34 59  1  0  0  0
 34105  1  0  0  0
 35 44  2  0  0  0
 35 45  1  0  0  0
 35 68  1  0  0  0
 36 56  1  0  0  0
 36106  1  0  0  0
 37 39  1  0  0  0
 37 47  1  0  0  0
 37 66  1  0  0  0
 37107  1  0  0  0
 38 43  2  0  0  0
 38 46  1  0  0  0
 38 47  1  0  0  0
 39 64  1  0  0  0
 39 67  2  0  0  0
 40 52  1  0  0  0
 40 53  2  0  0  0
 40 58  1  0  0  0
 41108  1  0  0  0
 41109  1  0  0  0
 41110  1  0  0  0
 41 48  1  0  0  0
 42 43  1  0  0  0
 42 66  1  0  0  0
 42111  1  0  0  0
 42112  1  0  0  0
 43 44  1  0  0  0
 44113  1  0  0  0
 45 46  2  0  0  0
 45114  1  0  0  0
 46115  1  0  0  0
 47116  1  0  0  0
 47117  1  0  0  0
 48 56  1  0  0  0
 48 65  1  0  0  0
 48118  1  0  0  0
 49 50  1  0  0  0
 49 53  1  0  0  0
 49 64  1  0  0  0
 49119  1  0  0  0
 50 51  1  0  0  0
 50120  1  0  0  0
 50121  1  0  0  0
 51 52  1  0  0  0
 51122  1  0  0  0
 51123  1  0  0  0
 52124  1  0  0  0
 52125  1  0  0  0
 53 54  1  0  0  0
 54 55  2  0  0  0
 54126  1  0  0  0
 55 57  1  0  0  0
 55127  1  0  0  0
 56 69  2  0  0  0
 57 58  2  0  0  0
 57128  1  0  0  0
 58129  1  0  0  0
 59 60  1  0  0  0
 59 61  1  0  0  0
 59 62  1  0  0  0
 60130  1  0  0  0
 60131  1  0  0  0
 60132  1  0  0  0
 61133  1  0  0  0
 61134  1  0  0  0
 61135  1  0  0  0
 62136  1  0  0  0
 62137  1  0  0  0
 62138  1  0  0  0
 63 65  1  0  0  0
 63139  1  0  0  0
 63140  1  0  0  0
 63141  1  0  0  0
 64142  1  0  0  0
 65143  1  0  0  0
 68 81  1  0  0  0
 71 72  2  0  0  0
 71 82  1  0  0  0
 71144  1  0  0  0
 72 73  1  0  0  0
 72 76  1  0  0  0
 73 77  1  0  0  0
 73 83  2  0  0  0
 74 75  1  0  0  0
 74 82  2  0  0  0
 74 83  1  0  0  0
 75145  1  0  0  0
 75146  1  0  0  0
 75147  1  0  0  0
 76 81  1  0  0  0
 76148  1  0  0  0
 76149  1  0  0  0
 77 78  1  0  0  0
 77150  1  0  0  0
 77151  1  0  0  0
 78 79  1  0  0  0
 78152  1  0  0  0
 78153  1  0  0  0
 79 80  1  0  0  0
 79154  1  0  0  0
 79155  1  0  0  0
 80 84  1  0  0  0
 80156  1  0  0  0
 80157  1  0  0  0
 81158  1  0  0  0
 81159  1  0  0  0
 84160  1  0  0  0
M  ISO  4   1 100  68 101  81 101  84 100
M  END
> <chiral flag>
0

> <version>
0

> <s_m_source_file>
/data/baiqing/PycharmProjects/Reinvent-master-3.2/result/LINK_invent/BTK/process_docking_weight1_custom_sum_contain_oxygen_bond_distance_aromatic_linkinvent_7_9_3/rearranged_h_0043.sdf

> <i_m_source_file_index>
18

> <r_mmod_Potential_Energy-OPLS-2005>
-429.519866943359

> <r_mmod_Stretch_Energy-OPLS-2005>
56.0239143371582

> <r_mmod_Bend_Energy-OPLS-2005>
125.115669250488

> <r_mmod_Torsional_Energy-OPLS-2005>
226.621459960938

> <r_mmod_Improper_Torsional_Energy-OPLS-2005>
3.92539691925049

> <r_mmod_Van_der_Waal_Energy-OPLS-2005>
150.931823730469

> <r_mmod_Electrostatic_Energy-OPLS-2005>
-791.056945800781

> <r_mmod_Solvation_Energy-OPLS-2005>
-227.047439575195

> <b_mmod_Minimization_Converged-OPLS-2005>
0

> <r_mmod_RMS_Derivative-OPLS-2005>
2.33188128471375

$$$$
18
                    3D
 Structure written by MMmdl.
164172  0  0  1  0            999 V2000
  -30.7266  -14.4329   20.6169 C   0  0  0  0  0  0
  -30.4207  -12.3025   19.4074 C   0  0  0  0  0  0
  -29.4888  -12.5083   18.1971 C   0  0  0  0  0  0
  -28.0114  -12.3689   18.6136 C   0  0  0  0  0  0
  -27.6625  -13.2043   19.8745 C   0  0  2  0  0  0
  -28.7037  -12.9710   20.9912 C   0  0  0  0  0  0
  -25.2596  -13.8153   20.5680 C   0  0  0  0  0  0
  -24.1841  -13.0439   20.9171 C   0  0  0  0  0  0
  -24.6390  -11.6906   20.8730 C   0  0  0  0  0  0
  -23.9056  -10.4293   21.0402 C   0  0  0  0  0  0
  -24.3608   -9.4210   21.9182 C   0  0  0  0  0  0
  -23.6286   -8.2244   22.0754 C   0  0  0  0  0  0
  -22.4269   -8.0278   21.3542 C   0  0  0  0  0  0
  -21.9903   -9.0253   20.4644 C   0  0  0  0  0  0
  -22.7229  -10.2134   20.3053 C   0  0  0  0  0  0
  -21.6854   -6.0733   22.5278 C   0  0  0  0  0  0
  -21.4013   -6.5639   23.8211 C   0  0  0  0  0  0
  -21.3659   -5.6790   24.9174 C   0  0  0  0  0  0
  -21.6045   -4.3054   24.7225 C   0  0  0  0  0  0
  -21.8820   -3.8147   23.4347 C   0  0  0  0  0  0
  -21.9193   -4.6961   22.3402 C   0  0  0  0  0  0
  -22.7867  -13.5239   21.1837 C   0  0  0  0  0  0
  -22.1662   -4.2146   21.0980 F   0  0  0  0  0  0
  -21.5630   -3.4538   25.7740 F   0  0  0  0  0  0
  -30.0354  -13.2759   20.4395 N   0  0  0  0  0  0
  -26.3030  -12.9322   20.3361 N   0  0  0  0  0  0
  -25.9315  -11.6483   20.5757 N   0  0  0  0  0  0
  -22.0505  -12.8234   22.0392 N   0  0  0  0  0  0
  -25.4335  -15.1870   20.4105 N   0  0  0  0  0  0
  -31.8363  -14.6371   20.1179 O   0  0  0  0  0  0
  -21.6637   -6.8874   21.4240 O   0  0  0  0  0  0
  -22.3559  -14.5551   20.6695 O   0  0  0  0  0  0
  -24.6139  -31.8701   23.2121 C   0  0  0  0  0  0
  -25.9032  -32.4831   23.8412 C   0  0  1  0  0  0
  -27.2296  -27.4332   20.0896 C   0  0  0  0  0  0
  -25.5882  -33.8627   24.2339 N   0  0  0  0  0  0
  -23.4007  -30.4951   21.5548 C   0  0  2  0  0  0
  -24.8435  -28.9610   20.1197 C   0  0  0  0  0  0
  -22.7403  -29.4664   22.5015 C   0  0  0  0  0  0
  -18.0264  -28.1372   22.8492 C   0  0  0  0  0  0
  -24.1490  -36.7328   23.2640 C   0  0  0  0  0  0
  -25.9311  -30.8321   21.3684 C   0  0  0  0  0  0
  -26.0048  -29.4664   20.7157 C   0  0  0  0  0  0
  -27.1993  -28.7101   20.6971 C   0  0  0  0  0  0
  -26.0467  -26.9477   19.4823 C   0  0  0  0  0  0
  -24.8586  -27.7000   19.5025 C   0  0  0  0  0  0
  -23.6081  -29.8305   20.1689 C   0  0  0  0  0  0
  -25.4106  -36.3122   24.0339 C   0  0  1  0  0  0
  -20.5852  -28.3657   23.1329 C   0  0  2  0  0  0
  -20.6758  -26.9395   22.5428 C   0  0  0  0  0  0
  -19.5744  -26.6383   21.5215 C   0  0  0  0  0  0
  -18.1914  -26.7919   22.1616 C   0  0  0  0  0  0
  -19.1513  -28.8833   23.2903 C   0  0  0  0  0  0
  -18.9447  -30.1439   23.8913 C   0  0  0  0  0  0
  -17.6454  -30.6582   24.0570 C   0  0  0  0  0  0
  -25.9034  -34.9480   23.5144 C   0  0  0  0  0  0
  -16.5343  -29.9086   23.6330 C   0  0  0  0  0  0
  -16.7256  -28.6501   23.0348 C   0  0  0  0  0  0
  -26.4457  -31.6604   25.0740 C   0  0  0  0  0  0
  -25.3719  -31.3711   26.1490 C   0  0  0  0  0  0
  -27.0287  -30.3045   24.6112 C   0  0  0  0  0  0
  -27.6039  -32.4325   25.7494 C   0  0  0  0  0  0
  -27.5578  -37.1816   24.8458 C   0  0  0  0  0  0
  -21.4135  -29.3030   22.3742 N   0  0  0  0  0  0
  -26.4297  -37.3798   23.9397 N   0  0  0  0  0  0
  -24.6665  -31.0802   22.1028 N   0  0  0  0  0  0
  -23.4182  -28.8205   23.3050 O   0  0  0  0  0  0
  -28.4222  -26.7349   20.0679 O   0  0  0  0  0  0
  -26.5608  -34.8931   22.4712 O   0  0  0  0  0  0
  -23.5329  -32.1468   23.7509 O   0  0  0  0  0  0
  -29.5041  -22.0695   20.6196 C   0  0  0  0  0  0
  -29.9503  -20.8151   20.1653 C   0  0  0  0  0  0
  -28.3085  -22.1455   21.3668 C   0  0  0  0  0  0
  -29.2093  -19.6645   20.4862 C   0  0  0  0  0  0
  -27.6374  -20.9270   21.6512 C   0  0  0  0  0  0
  -26.6113  -20.7077   23.9698 C   0  0  0  0  0  0
  -27.7427  -23.4820   21.8738 C   0  0  0  0  0  0
  -29.6202  -18.2938   19.9577 C   0  0  0  0  0  0
  -26.3508  -20.8700   22.4662 C   0  0  0  0  0  0
  -28.5039  -24.7943   21.5627 C   0  0  0  0  0  0
  -30.8814  -17.7033   20.6237 C   0  0  0  0  0  0
  -30.6375  -16.6763   21.7546 C   0  0  0  0  0  0
  -28.3997  -25.2980   20.1083 C   0  0  0  0  0  0
  -28.0924  -19.7220   21.2388 N   0  0  0  0  0  0
  -30.0882  -15.3858   21.3163 N   0  0  0  0  0  0
  -31.4640  -12.4037   19.1036 H   0  0  0  0  0  0
  -30.3230  -11.2884   19.7980 H   0  0  0  0  0  0
  -29.7248  -11.7866   17.4140 H   0  0  0  0  0  0
  -29.6580  -13.4954   17.7644 H   0  0  0  0  0  0
  -27.8212  -11.3123   18.8067 H   0  0  0  0  0  0
  -27.3590  -12.6479   17.7856 H   0  0  0  0  0  0
  -27.7120  -14.2543   19.5853 H   0  0  0  0  0  0
  -28.6781  -11.9313   21.3209 H   0  0  0  0  0  0
  -28.4608  -13.5582   21.8775 H   0  0  0  0  0  0
  -25.2752   -9.5691   22.4753 H   0  0  0  0  0  0
  -23.9998   -7.4639   22.7475 H   0  0  0  0  0  0
  -21.0835   -8.8767   19.8950 H   0  0  0  0  0  0
  -22.3684  -10.9671   19.6161 H   0  0  0  0  0  0
  -21.2004   -7.6147   23.9713 H   0  0  0  0  0  0
  -21.1481   -6.0522   25.9075 H   0  0  0  0  0  0
  -22.0600   -2.7608   23.2849 H   0  0  0  0  0  0
  -22.4113  -11.9888   22.4774 H   0  0  0  0  0  0
  -21.1122  -13.1265   22.2592 H   0  0  0  0  0  0
  -24.6732  -15.8473   20.5299 H   0  0  0  0  0  0
  -26.2942  -15.6262   20.1086 H   0  0  0  0  0  0
  -26.7103  -32.5556   23.1177 H   0  0  0  0  0  0
  -25.0002  -33.9782   25.0461 H   0  0  0  0  0  0
  -22.6891  -31.3119   21.4178 H   0  0  0  0  0  0
  -23.3746  -35.9667   23.3316 H   0  0  0  0  0  0
  -24.3587  -36.8930   22.2053 H   0  0  0  0  0  0
  -23.7246  -37.6537   23.6652 H   0  0  0  0  0  0
  -26.0461  -31.5983   20.6004 H   0  0  0  0  0  0
  -26.8172  -30.8843   21.9888 H   0  0  0  0  0  0
  -28.0983  -29.0999   21.1543 H   0  0  0  0  0  0
  -26.0135  -26.0078   18.9547 H   0  0  0  0  0  0
  -23.9690  -27.3092   19.0286 H   0  0  0  0  0  0
  -23.7169  -30.6072   19.4116 H   0  0  0  0  0  0
  -22.7314  -29.2522   19.8731 H   0  0  0  0  0  0
  -25.1280  -36.2005   25.0833 H   0  0  0  0  0  0
  -20.9936  -28.3228   24.1453 H   0  0  0  0  0  0
  -20.5685  -26.2259   23.3612 H   0  0  0  0  0  0
  -21.6628  -26.7468   22.1202 H   0  0  0  0  0  0
  -19.6923  -25.6303   21.1223 H   0  0  0  0  0  0
  -19.6682  -27.3214   20.6761 H   0  0  0  0  0  0
  -17.4189  -26.6667   21.4014 H   0  0  0  0  0  0
  -18.0311  -26.0059   22.9015 H   0  0  0  0  0  0
  -19.7936  -30.7234   24.2292 H   0  0  0  0  0  0
  -17.5023  -31.6268   24.5161 H   0  0  0  0  0  0
  -15.5347  -30.2996   23.7655 H   0  0  0  0  0  0
  -15.8649  -28.0835   22.7053 H   0  0  0  0  0  0
  -24.5883  -30.7072   25.7824 H   0  0  0  0  0  0
  -24.8916  -32.2869   26.4958 H   0  0  0  0  0  0
  -25.8061  -30.8867   27.0244 H   0  0  0  0  0  0
  -26.2839  -29.6815   24.1148 H   0  0  0  0  0  0
  -27.4041  -29.7272   25.4569 H   0  0  0  0  0  0
  -27.8682  -30.4360   23.9277 H   0  0  0  0  0  0
  -27.2655  -33.3611   26.2106 H   0  0  0  0  0  0
  -28.3816  -32.6906   25.0295 H   0  0  0  0  0  0
  -28.0742  -31.8434   26.5376 H   0  0  0  0  0  0
  -28.2603  -38.0110   24.7500 H   0  0  0  0  0  0
  -28.1069  -36.2640   24.6292 H   0  0  0  0  0  0
  -27.2298  -37.1470   25.8863 H   0  0  0  0  0  0
  -20.9300  -29.8759   21.6966 H   0  0  0  0  0  0
  -26.0202  -38.2885   24.1395 H   0  0  0  0  0  0
  -30.0792  -22.9501   20.3793 H   0  0  0  0  0  0
  -30.8494  -20.7421   19.5682 H   0  0  0  0  0  0
  -25.6732  -20.6751   24.5233 H   0  0  0  0  0  0
  -27.1991  -21.5373   24.3611 H   0  0  0  0  0  0
  -27.1558  -19.7863   24.1750 H   0  0  0  0  0  0
  -27.6606  -23.4033   22.9583 H   0  0  0  0  0  0
  -26.7221  -23.5889   21.5060 H   0  0  0  0  0  0
  -29.8118  -18.4146   18.8912 H   0  0  0  0  0  0
  -28.7882  -17.5913   20.0225 H   0  0  0  0  0  0
  -25.7479  -20.0306   22.1168 H   0  0  0  0  0  0
  -25.7357  -21.7494   22.2846 H   0  0  0  0  0  0
  -29.5462  -24.7361   21.8774 H   0  0  0  0  0  0
  -28.0581  -25.5594   22.2005 H   0  0  0  0  0  0
  -31.5063  -18.5164   20.9945 H   0  0  0  0  0  0
  -31.4832  -17.2287   19.8487 H   0  0  0  0  0  0
  -29.9680  -17.1061   22.5009 H   0  0  0  0  0  0
  -31.5798  -16.4854   22.2714 H   0  0  0  0  0  0
  -27.5461  -24.8445   19.6118 H   0  0  0  0  0  0
  -29.2621  -24.9442   19.5449 H   0  0  0  0  0  0
  -29.1663  -15.1459   21.6507 H   0  0  0  0  0  0
  1 25  1  0  0  0
  1 30  2  0  0  0
  1 85  1  0  0  0
  2  3  1  0  0  0
  2 25  1  0  0  0
  2 86  1  0  0  0
  2 87  1  0  0  0
  3  4  1  0  0  0
  3 88  1  0  0  0
  3 89  1  0  0  0
  4  5  1  0  0  0
  4 90  1  0  0  0
  4 91  1  0  0  0
  5  6  1  0  0  0
  5 26  1  0  0  0
  5 92  1  0  0  0
  6 25  1  0  0  0
  6 93  1  0  0  0
  6 94  1  0  0  0
  7  8  2  0  0  0
  7 26  1  0  0  0
  7 29  1  0  0  0
  8  9  1  0  0  0
  8 22  1  0  0  0
  9 10  1  0  0  0
  9 27  2  0  0  0
 10 11  2  0  0  0
 10 15  1  0  0  0
 11 12  1  0  0  0
 11 95  1  0  0  0
 12 13  2  0  0  0
 12 96  1  0  0  0
 13 14  1  0  0  0
 13 31  1  0  0  0
 14 15  2  0  0  0
 14 97  1  0  0  0
 15 98  1  0  0  0
 16 17  2  0  0  0
 16 21  1  0  0  0
 16 31  1  0  0  0
 17 18  1  0  0  0
 17 99  1  0  0  0
 18 19  2  0  0  0
 18100  1  0  0  0
 19 20  1  0  0  0
 19 24  1  0  0  0
 20 21  2  0  0  0
 20101  1  0  0  0
 21 23  1  0  0  0
 22 28  1  0  0  0
 22 32  2  0  0  0
 26 27  1  0  0  0
 28102  1  0  0  0
 28103  1  0  0  0
 29104  1  0  0  0
 29105  1  0  0  0
 33 34  1  0  0  0
 33 66  1  0  0  0
 33 70  2  0  0  0
 34 36  1  0  0  0
 34 59  1  0  0  0
 34106  1  0  0  0
 35 44  2  0  0  0
 35 45  1  0  0  0
 35 68  1  0  0  0
 36 56  1  0  0  0
 36107  1  0  0  0
 37 39  1  0  0  0
 37 47  1  0  0  0
 37 66  1  0  0  0
 37108  1  0  0  0
 38 43  2  0  0  0
 38 46  1  0  0  0
 38 47  1  0  0  0
 39 64  1  0  0  0
 39 67  2  0  0  0
 40 52  1  0  0  0
 40 53  2  0  0  0
 40 58  1  0  0  0
 41109  1  0  0  0
 41110  1  0  0  0
 41111  1  0  0  0
 41 48  1  0  0  0
 42 43  1  0  0  0
 42 66  1  0  0  0
 42112  1  0  0  0
 42113  1  0  0  0
 43 44  1  0  0  0
 44114  1  0  0  0
 45 46  2  0  0  0
 45115  1  0  0  0
 46116  1  0  0  0
 47117  1  0  0  0
 47118  1  0  0  0
 48 56  1  0  0  0
 48 65  1  0  0  0
 48119  1  0  0  0
 49 50  1  0  0  0
 49 53  1  0  0  0
 49 64  1  0  0  0
 49120  1  0  0  0
 50 51  1  0  0  0
 50121  1  0  0  0
 50122  1  0  0  0
 51 52  1  0  0  0
 51123  1  0  0  0
 51124  1  0  0  0
 52125  1  0  0  0
 52126  1  0  0  0
 53 54  1  0  0  0
 54 55  2  0  0  0
 54127  1  0  0  0
 55 57  1  0  0  0
 55128  1  0  0  0
 56 69  2  0  0  0
 57 58  2  0  0  0
 57129  1  0  0  0
 58130  1  0  0  0
 59 60  1  0  0  0
 59 61  1  0  0  0
 59 62  1  0  0  0
 60131  1  0  0  0
 60132  1  0  0  0
 60133  1  0  0  0
 61134  1  0  0  0
 61135  1  0  0  0
 61136  1  0  0  0
 62137  1  0  0  0
 62138  1  0  0  0
 62139  1  0  0  0
 63 65  1  0  0  0
 63140  1  0  0  0
 63141  1  0  0  0
 63142  1  0  0  0
 64143  1  0  0  0
 65144  1  0  0  0
 68 83  1  0  0  0
 71 72  2  0  0  0
 71 73  1  0  0  0
 71145  1  0  0  0
 72 74  1  0  0  0
 72146  1  0  0  0
 73 75  2  0  0  0
 73 77  1  0  0  0
 74 78  1  0  0  0
 74 84  2  0  0  0
 75 79  1  0  0  0
 75 84  1  0  0  0
 76 79  1  0  0  0
 76147  1  0  0  0
 76148  1  0  0  0
 76149  1  0  0  0
 77 80  1  0  0  0
 77150  1  0  0  0
 77151  1  0  0  0
 78 81  1  0  0  0
 78152  1  0  0  0
 78153  1  0  0  0
 79154  1  0  0  0
 79155  1  0  0  0
 80 83  1  0  0  0
 80156  1  0  0  0
 80157  1  0  0  0
 81 82  1  0  0  0
 81158  1  0  0  0
 81159  1  0  0  0
 82 85  1  0  0  0
 82160  1  0  0  0
 82161  1  0  0  0
 83162  1  0  0  0
 83163  1  0  0  0
 85164  1  0  0  0
M  ISO  4   1 100  68 101  83 101  85 100
M  END
> <chiral flag>
0

> <version>
0

> <s_m_source_file>
/data/baiqing/PycharmProjects/Reinvent-master-3.2/result/LINK_invent/BTK/process_docking_weight1_custom_sum_contain_oxygen_bond_distance_aromatic_linkinvent_7_9_3/rearranged_h_0043.sdf

> <i_m_source_file_index>
19

> <r_mmod_Potential_Energy-OPLS-2005>
-242.636611938477

> <r_mmod_Stretch_Energy-OPLS-2005>
35.7725677490234

> <r_mmod_Bend_Energy-OPLS-2005>
106.49356842041

> <r_mmod_Torsional_Energy-OPLS-2005>
206.209991455078

> <r_mmod_Improper_Torsional_Energy-OPLS-2005>
2.21257472038269

> <r_mmod_Van_der_Waal_Energy-OPLS-2005>
155.205505371094

> <r_mmod_Electrostatic_Energy-OPLS-2005>
-548.409851074219

> <r_mmod_Solvation_Energy-OPLS-2005>
-210.512237548828

> <b_mmod_Minimization_Converged-OPLS-2005>
0

> <r_mmod_RMS_Derivative-OPLS-2005>
1.17641568183899

$$$$
19
                    3D
 Structure written by MMmdl.
169177  0  0  1  0            999 V2000
  -30.6322  -14.5588   20.5193 C   0  0  0  0  0  0
  -30.4384  -12.3501   19.4224 C   0  0  0  0  0  0
  -29.5001  -12.5003   18.2039 C   0  0  0  0  0  0
  -28.0201  -12.3516   18.6170 C   0  0  0  0  0  0
  -27.6552  -13.2048   19.8609 C   0  0  2  0  0  0
  -28.7004  -13.0106   20.9823 C   0  0  0  0  0  0
  -25.2574  -13.8140   20.5662 C   0  0  0  0  0  0
  -24.1830  -13.0417   20.9163 C   0  0  0  0  0  0
  -24.6379  -11.6885   20.8706 C   0  0  0  0  0  0
  -23.9046  -10.4284   21.0384 C   0  0  0  0  0  0
  -24.3608   -9.4200   21.9166 C   0  0  0  0  0  0
  -23.6287   -8.2236   22.0748 C   0  0  0  0  0  0
  -22.4268   -8.0265   21.3543 C   0  0  0  0  0  0
  -21.9891   -9.0232   20.4647 C   0  0  0  0  0  0
  -22.7211  -10.2115   20.3044 C   0  0  0  0  0  0
  -21.6850   -6.0718   22.5278 C   0  0  0  0  0  0
  -21.4011   -6.5632   23.8207 C   0  0  0  0  0  0
  -21.3656   -5.6787   24.9170 C   0  0  0  0  0  0
  -21.6047   -4.3047   24.7228 C   0  0  0  0  0  0
  -21.8819   -3.8141   23.4348 C   0  0  0  0  0  0
  -21.9196   -4.6952   22.3405 C   0  0  0  0  0  0
  -22.7858  -13.5221   21.1844 C   0  0  0  0  0  0
  -22.1662   -4.2137   21.0981 F   0  0  0  0  0  0
  -21.5631   -3.4545   25.7738 F   0  0  0  0  0  0
  -30.0207  -13.3448   20.4233 N   0  0  0  0  0  0
  -26.2987  -12.9306   20.3297 N   0  0  0  0  0  0
  -25.9304  -11.6468   20.5718 N   0  0  0  0  0  0
  -22.0519  -12.8208   22.0408 N   0  0  0  0  0  0
  -25.4286  -15.1862   20.4086 N   0  0  0  0  0  0
  -31.7885  -14.7582   20.1372 O   0  0  0  0  0  0
  -21.6635   -6.8860   21.4234 O   0  0  0  0  0  0
  -22.3538  -14.5523   20.6688 O   0  0  0  0  0  0
  -24.6172  -31.8611   23.2006 C   0  0  0  0  0  0
  -25.9035  -32.4764   23.8327 C   0  0  1  0  0  0
  -27.2346  -27.3817   20.0953 C   0  0  0  0  0  0
  -25.5840  -33.8564   24.2223 N   0  0  0  0  0  0
  -23.4087  -30.4833   21.5397 C   0  0  2  0  0  0
  -24.8546  -28.9366   20.1133 C   0  0  0  0  0  0
  -22.7423  -29.4621   22.4916 C   0  0  0  0  0  0
  -18.0270  -28.1404   22.8467 C   0  0  0  0  0  0
  -24.1484  -36.7351   23.2629 C   0  0  0  0  0  0
  -25.9443  -30.8057   21.3669 C   0  0  0  0  0  0
  -26.0156  -29.4370   20.7135 C   0  0  0  0  0  0
  -27.2035  -28.6657   20.7006 C   0  0  0  0  0  0
  -26.0469  -26.8987   19.4996 C   0  0  0  0  0  0
  -24.8671  -27.6676   19.5096 C   0  0  0  0  0  0
  -23.6215  -29.8124   20.1558 C   0  0  0  0  0  0
  -25.4098  -36.3077   24.0303 C   0  0  1  0  0  0
  -20.5864  -28.3697   23.1318 C   0  0  2  0  0  0
  -20.6765  -26.9424   22.5439 C   0  0  0  0  0  0
  -19.5755  -26.6403   21.5211 C   0  0  0  0  0  0
  -18.1917  -26.7940   22.1599 C   0  0  0  0  0  0
  -19.1523  -28.8862   23.2888 C   0  0  0  0  0  0
  -18.9462  -30.1456   23.8914 C   0  0  0  0  0  0
  -17.6477  -30.6603   24.0579 C   0  0  0  0  0  0
  -25.9040  -34.9443   23.5084 C   0  0  0  0  0  0
  -16.5359  -29.9123   23.6331 C   0  0  0  0  0  0
  -16.7265  -28.6551   23.0327 C   0  0  0  0  0  0
  -26.4429  -31.6570   25.0707 C   0  0  0  0  0  0
  -25.3680  -31.3829   26.1492 C   0  0  0  0  0  0
  -27.0175  -30.2927   24.6196 C   0  0  0  0  0  0
  -27.6018  -32.4294   25.7442 C   0  0  0  0  0  0
  -27.5584  -37.1789   24.8424 C   0  0  0  0  0  0
  -21.4136  -29.3050   22.3691 N   0  0  0  0  0  0
  -26.4276  -37.3775   23.9410 N   0  0  0  0  0  0
  -24.6744  -31.0675   22.0926 N   0  0  0  0  0  0
  -23.4166  -28.8172   23.2984 O   0  0  0  0  0  0
  -28.4211  -26.6613   20.1196 O   0  0  0  0  0  0
  -26.5654  -34.8915   22.4682 O   0  0  0  0  0  0
  -23.5347  -32.1395   23.7378 O   0  0  0  0  0  0
  -28.5906  -20.4234   19.3022 C   0  0  0  0  0  0
  -28.6805  -21.8200   19.3164 C   0  0  0  0  0  0
  -27.8721  -21.2182   17.3262 C   0  0  0  0  0  0
  -24.8477  -21.3276   16.2370 C   0  0  0  0  0  0
  -27.4376  -18.8205   17.6578 C   0  0  0  0  0  0
  -28.9816  -19.3794   20.3653 C   0  0  0  0  0  0
  -29.1244  -22.8418   20.3468 C   0  0  0  0  0  0
  -27.4021  -21.3671   15.9046 C   0  0  0  0  0  0
  -26.0681  -22.1211   15.7503 C   0  0  0  0  0  0
  -29.4459  -17.9387   19.9079 C   0  0  0  0  0  0
  -28.2427  -24.1418   20.4840 C   0  0  0  0  0  0
  -30.0575  -17.0317   21.0337 C   0  0  0  0  0  0
  -28.5520  -25.3422   19.5286 C   0  0  0  0  0  0
  -27.9625  -20.1209   18.0990 N   0  0  0  0  0  0
  -28.2936  -22.2350   18.0719 N   0  3  0  0  0  0
  -29.8116  -15.5734   20.8894 N   0  0  0  0  0  0
  -31.4785  -12.4846   19.1167 H   0  0  0  0  0  0
  -30.3754  -11.3454   19.8405 H   0  0  0  0  0  0
  -29.7512  -11.7564   17.4459 H   0  0  0  0  0  0
  -29.6531  -13.4752   17.7372 H   0  0  0  0  0  0
  -27.8419  -11.2961   18.8265 H   0  0  0  0  0  0
  -27.3696  -12.6089   17.7807 H   0  0  0  0  0  0
  -27.6853  -14.2467   19.5424 H   0  0  0  0  0  0
  -28.6975  -11.9759   21.3275 H   0  0  0  0  0  0
  -28.4565  -13.6143   21.8580 H   0  0  0  0  0  0
  -25.2759   -9.5677   22.4726 H   0  0  0  0  0  0
  -23.9999   -7.4626   22.7467 H   0  0  0  0  0  0
  -21.0823   -8.8737   19.8957 H   0  0  0  0  0  0
  -22.3664  -10.9643   19.6152 H   0  0  0  0  0  0
  -21.1997   -7.6137   23.9701 H   0  0  0  0  0  0
  -21.1479   -6.0523   25.9068 H   0  0  0  0  0  0
  -22.0604   -2.7600   23.2855 H   0  0  0  0  0  0
  -22.4159  -11.9885   22.4802 H   0  0  0  0  0  0
  -21.1127  -13.1204   22.2616 H   0  0  0  0  0  0
  -24.6586  -15.8379   20.5140 H   0  0  0  0  0  0
  -26.2781  -15.6284   20.0826 H   0  0  0  0  0  0
  -26.7114  -32.5429   23.1086 H   0  0  0  0  0  0
  -24.9805  -33.9705   25.0236 H   0  0  0  0  0  0
  -22.7024  -31.3027   21.3910 H   0  0  0  0  0  0
  -23.3710  -35.9704   23.3225 H   0  0  0  0  0  0
  -24.3600  -36.9092   22.2065 H   0  0  0  0  0  0
  -23.7276  -37.6544   23.6726 H   0  0  0  0  0  0
  -26.0774  -31.5688   20.5991 H   0  0  0  0  0  0
  -26.8249  -30.8492   21.9965 H   0  0  0  0  0  0
  -28.1025  -29.0488   21.1645 H   0  0  0  0  0  0
  -26.0078  -25.9261   19.0339 H   0  0  0  0  0  0
  -23.9698  -27.2736   19.0533 H   0  0  0  0  0  0
  -23.7392  -30.5866   19.3972 H   0  0  0  0  0  0
  -22.7409  -29.2422   19.8506 H   0  0  0  0  0  0
  -25.1258  -36.1901   25.0787 H   0  0  0  0  0  0
  -20.9974  -28.3303   24.1431 H   0  0  0  0  0  0
  -20.5685  -26.2296   23.3634 H   0  0  0  0  0  0
  -21.6635  -26.7464   22.1218 H   0  0  0  0  0  0
  -19.6954  -25.6318   21.1244 H   0  0  0  0  0  0
  -19.6724  -27.3213   20.6743 H   0  0  0  0  0  0
  -17.4188  -26.6676   21.4009 H   0  0  0  0  0  0
  -18.0328  -26.0082   22.9007 H   0  0  0  0  0  0
  -19.7941  -30.7248   24.2294 H   0  0  0  0  0  0
  -17.5033  -31.6268   24.5192 H   0  0  0  0  0  0
  -15.5373  -30.3041   23.7658 H   0  0  0  0  0  0
  -15.8646  -28.0905   22.7022 H   0  0  0  0  0  0
  -24.5752  -30.7252   25.7924 H   0  0  0  0  0  0
  -24.8973  -32.3058   26.4894 H   0  0  0  0  0  0
  -25.8004  -30.9044   27.0285 H   0  0  0  0  0  0
  -26.2712  -29.6780   24.1151 H   0  0  0  0  0  0
  -27.3710  -29.7118   25.4724 H   0  0  0  0  0  0
  -27.8679  -30.4087   23.9472 H   0  0  0  0  0  0
  -27.2614  -33.3597   26.1998 H   0  0  0  0  0  0
  -28.3821  -32.6872   25.0266 H   0  0  0  0  0  0
  -28.0643  -31.8408   26.5376 H   0  0  0  0  0  0
  -28.2546  -38.0134   24.7502 H   0  0  0  0  0  0
  -28.1143  -36.2678   24.6160 H   0  0  0  0  0  0
  -27.2342  -37.1353   25.8835 H   0  0  0  0  0  0
  -20.9275  -29.8805   21.6960 H   0  0  0  0  0  0
  -26.0162  -38.2852   24.1433 H   0  0  0  0  0  0
  -23.9336  -21.9064   16.0987 H   0  0  0  0  0  0
  -24.9228  -21.0764   17.2954 H   0  0  0  0  0  0
  -24.7383  -20.3994   15.6754 H   0  0  0  0  0  0
  -26.9389  -18.3368   18.4958 H   0  0  0  0  0  0
  -28.2521  -18.2031   17.2799 H   0  0  0  0  0  0
  -26.6827  -18.9458   16.8839 H   0  0  0  0  0  0
  -28.1411  -19.2740   21.0510 H   0  0  0  0  0  0
  -29.7860  -19.8171   20.9582 H   0  0  0  0  0  0
  -30.1651  -23.1079   20.1611 H   0  0  0  0  0  0
  -29.1228  -22.3346   21.3112 H   0  0  0  0  0  0
  -27.3672  -20.3896   15.4280 H   0  0  0  0  0  0
  -28.1918  -21.9199   15.3946 H   0  0  0  0  0  0
  -26.1181  -23.0843   16.2592 H   0  0  0  0  0  0
  -25.9220  -22.3525   14.6947 H   0  0  0  0  0  0
  -30.1760  -18.0260   19.1010 H   0  0  0  0  0  0
  -28.6027  -17.3954   19.4920 H   0  0  0  0  0  0
  -28.4216  -24.5152   21.4924 H   0  0  0  0  0  0
  -27.1825  -23.8931   20.4640 H   0  0  0  0  0  0
  -29.5907  -17.3116   21.9793 H   0  0  0  0  0  0
  -31.1220  -17.2372   21.1589 H   0  0  0  0  0  0
  -28.0033  -25.2538   18.5908 H   0  0  0  0  0  0
  -29.5988  -25.2765   19.2341 H   0  0  0  0  0  0
  -28.3184  -23.1904   17.7396 H   0  0  0  0  0  0
  -28.8862  -15.2680   21.1525 H   0  0  0  0  0  0
  1 25  1  0  0  0
  1 30  2  0  0  0
  1 86  1  0  0  0
  2  3  1  0  0  0
  2 25  1  0  0  0
  2 87  1  0  0  0
  2 88  1  0  0  0
  3  4  1  0  0  0
  3 89  1  0  0  0
  3 90  1  0  0  0
  4  5  1  0  0  0
  4 91  1  0  0  0
  4 92  1  0  0  0
  5  6  1  0  0  0
  5 26  1  0  0  0
  5 93  1  0  0  0
  6 25  1  0  0  0
  6 94  1  0  0  0
  6 95  1  0  0  0
  7  8  2  0  0  0
  7 26  1  0  0  0
  7 29  1  0  0  0
  8  9  1  0  0  0
  8 22  1  0  0  0
  9 10  1  0  0  0
  9 27  2  0  0  0
 10 11  2  0  0  0
 10 15  1  0  0  0
 11 12  1  0  0  0
 11 96  1  0  0  0
 12 13  2  0  0  0
 12 97  1  0  0  0
 13 14  1  0  0  0
 13 31  1  0  0  0
 14 15  2  0  0  0
 14 98  1  0  0  0
 15 99  1  0  0  0
 16 17  2  0  0  0
 16 21  1  0  0  0
 16 31  1  0  0  0
 17 18  1  0  0  0
 17100  1  0  0  0
 18 19  2  0  0  0
 18101  1  0  0  0
 19 20  1  0  0  0
 19 24  1  0  0  0
 20 21  2  0  0  0
 20102  1  0  0  0
 21 23  1  0  0  0
 22 28  1  0  0  0
 22 32  2  0  0  0
 26 27  1  0  0  0
 28103  1  0  0  0
 28104  1  0  0  0
 29105  1  0  0  0
 29106  1  0  0  0
 33 34  1  0  0  0
 33 66  1  0  0  0
 33 70  2  0  0  0
 34 36  1  0  0  0
 34 59  1  0  0  0
 34107  1  0  0  0
 35 44  2  0  0  0
 35 45  1  0  0  0
 35 68  1  0  0  0
 36 56  1  0  0  0
 36108  1  0  0  0
 37 39  1  0  0  0
 37 47  1  0  0  0
 37 66  1  0  0  0
 37109  1  0  0  0
 38 43  2  0  0  0
 38 46  1  0  0  0
 38 47  1  0  0  0
 39 64  1  0  0  0
 39 67  2  0  0  0
 40 52  1  0  0  0
 40 53  2  0  0  0
 40 58  1  0  0  0
 41110  1  0  0  0
 41111  1  0  0  0
 41112  1  0  0  0
 41 48  1  0  0  0
 42 43  1  0  0  0
 42 66  1  0  0  0
 42113  1  0  0  0
 42114  1  0  0  0
 43 44  1  0  0  0
 44115  1  0  0  0
 45 46  2  0  0  0
 45116  1  0  0  0
 46117  1  0  0  0
 47118  1  0  0  0
 47119  1  0  0  0
 48 56  1  0  0  0
 48 65  1  0  0  0
 48120  1  0  0  0
 49 50  1  0  0  0
 49 53  1  0  0  0
 49 64  1  0  0  0
 49121  1  0  0  0
 50 51  1  0  0  0
 50122  1  0  0  0
 50123  1  0  0  0
 51 52  1  0  0  0
 51124  1  0  0  0
 51125  1  0  0  0
 52126  1  0  0  0
 52127  1  0  0  0
 53 54  1  0  0  0
 54 55  2  0  0  0
 54128  1  0  0  0
 55 57  1  0  0  0
 55129  1  0  0  0
 56 69  2  0  0  0
 57 58  2  0  0  0
 57130  1  0  0  0
 58131  1  0  0  0
 59 60  1  0  0  0
 59 61  1  0  0  0
 59 62  1  0  0  0
 60132  1  0  0  0
 60133  1  0  0  0
 60134  1  0  0  0
 61135  1  0  0  0
 61136  1  0  0  0
 61137  1  0  0  0
 62138  1  0  0  0
 62139  1  0  0  0
 62140  1  0  0  0
 63 65  1  0  0  0
 63141  1  0  0  0
 63142  1  0  0  0
 63143  1  0  0  0
 64144  1  0  0  0
 65145  1  0  0  0
 68 83  1  0  0  0
 71 72  2  0  0  0
 71 76  1  0  0  0
 71 84  1  0  0  0
 72 77  1  0  0  0
 72 85  1  0  0  0
 73 78  1  0  0  0
 73 84  1  0  0  0
 73 85  2  0  0  0
 74 79  1  0  0  0
 74146  1  0  0  0
 74147  1  0  0  0
 74148  1  0  0  0
 75 84  1  0  0  0
 75149  1  0  0  0
 75150  1  0  0  0
 75151  1  0  0  0
 76 80  1  0  0  0
 76152  1  0  0  0
 76153  1  0  0  0
 77 81  1  0  0  0
 77154  1  0  0  0
 77155  1  0  0  0
 78 79  1  0  0  0
 78156  1  0  0  0
 78157  1  0  0  0
 79158  1  0  0  0
 79159  1  0  0  0
 80 82  1  0  0  0
 80160  1  0  0  0
 80161  1  0  0  0
 81 83  1  0  0  0
 81162  1  0  0  0
 81163  1  0  0  0
 82 86  1  0  0  0
 82164  1  0  0  0
 82165  1  0  0  0
 83166  1  0  0  0
 83167  1  0  0  0
 85168  1  0  0  0
 86169  1  0  0  0
M  CHG  1  85   1
M  ISO  4   1 100  68 101  83 101  86 100
M  END
> <chiral flag>
0

> <version>
0

> <s_m_source_file>
/data/baiqing/PycharmProjects/Reinvent-master-3.2/result/LINK_invent/BTK/process_docking_weight1_custom_sum_contain_oxygen_bond_distance_aromatic_linkinvent_7_9_3/rearranged_h_0043.sdf

> <i_m_source_file_index>
20

> <r_mmod_Potential_Energy-OPLS-2005>
-55.5242118835449

> <r_mmod_Stretch_Energy-OPLS-2005>
54.4428672790527

> <r_mmod_Bend_Energy-OPLS-2005>
132.927017211914

> <r_mmod_Torsional_Energy-OPLS-2005>
228.468215942383

> <r_mmod_Improper_Torsional_Energy-OPLS-2005>
4.27172470092773

> <r_mmod_Van_der_Waal_Energy-OPLS-2005>
118.113243103027

> <r_mmod_Electrostatic_Energy-OPLS-2005>
-207.887023925781

> <r_mmod_Solvation_Energy-OPLS-2005>
-411.796569824219

> <b_mmod_Minimization_Converged-OPLS-2005>
0

> <r_mmod_RMS_Derivative-OPLS-2005>
2.94296383857727

$$$$
20
                    3D
 Structure written by MMmdl.
162171  0  0  1  0            999 V2000
  -30.7247  -14.3816   20.6535 C   0  0  0  0  0  0
  -30.4145  -12.2762   19.4058 C   0  0  0  0  0  0
  -29.4894  -12.5109   18.1966 C   0  0  0  0  0  0
  -28.0096  -12.3702   18.6074 C   0  0  0  0  0  0
  -27.6627  -13.1969   19.8744 C   0  0  2  0  0  0
  -28.6941  -12.9301   20.9914 C   0  0  0  0  0  0
  -25.2580  -13.8191   20.5657 C   0  0  0  0  0  0
  -24.1827  -13.0491   20.9163 C   0  0  0  0  0  0
  -24.6343  -11.6933   20.8705 C   0  0  0  0  0  0
  -23.9009  -10.4325   21.0371 C   0  0  0  0  0  0
  -24.3598   -9.4268   21.9153 C   0  0  0  0  0  0
  -23.6289   -8.2306   22.0764 C   0  0  0  0  0  0
  -22.4279   -8.0302   21.3551 C   0  0  0  0  0  0
  -21.9885   -9.0266   20.4657 C   0  0  0  0  0  0
  -22.7185  -10.2146   20.3021 C   0  0  0  0  0  0
  -21.6867   -6.0750   22.5267 C   0  0  0  0  0  0
  -21.4040   -6.5649   23.8195 C   0  0  0  0  0  0
  -21.3641   -5.6799   24.9153 C   0  0  0  0  0  0
  -21.6032   -4.3060   24.7209 C   0  0  0  0  0  0
  -21.8817   -3.8155   23.4321 C   0  0  0  0  0  0
  -21.9197   -4.6979   22.3383 C   0  0  0  0  0  0
  -22.7855  -13.5288   21.1856 C   0  0  0  0  0  0
  -22.1658   -4.2165   21.0963 F   0  0  0  0  0  0
  -21.5601   -3.4536   25.7718 F   0  0  0  0  0  0
  -30.0325  -13.2320   20.4552 N   0  0  0  0  0  0
  -26.2984  -12.9323   20.3308 N   0  0  0  0  0  0
  -25.9249  -11.6479   20.5694 N   0  0  0  0  0  0
  -22.0514  -12.8258   22.0397 N   0  0  0  0  0  0
  -25.4350  -15.1924   20.4098 N   0  0  0  0  0  0
  -31.7933  -14.6303   20.0855 O   0  0  0  0  0  0
  -21.6640   -6.8907   21.4238 O   0  0  0  0  0  0
  -22.3530  -14.5623   20.6751 O   0  0  0  0  0  0
  -24.6157  -31.8719   23.2110 C   0  0  0  0  0  0
  -25.9063  -32.4850   23.8409 C   0  0  1  0  0  0
  -27.2182  -27.4428   20.0756 C   0  0  0  0  0  0
  -25.5915  -33.8643   24.2361 N   0  0  0  0  0  0
  -23.3981  -30.5014   21.5529 C   0  0  2  0  0  0
  -24.8378  -28.9672   20.1162 C   0  0  0  0  0  0
  -22.7367  -29.4717   22.4960 C   0  0  0  0  0  0
  -18.0275  -28.1366   22.8513 C   0  0  0  0  0  0
  -24.1485  -36.7318   23.2640 C   0  0  0  0  0  0
  -25.9305  -30.8365   21.3659 C   0  0  0  0  0  0
  -26.0006  -29.4739   20.7088 C   0  0  0  0  0  0
  -27.1929  -28.7171   20.6848 C   0  0  0  0  0  0
  -26.0295  -26.9492   19.4846 C   0  0  0  0  0  0
  -24.8435  -27.7021   19.5113 C   0  0  0  0  0  0
  -23.6040  -29.8367   20.1679 C   0  0  0  0  0  0
  -25.4109  -36.3136   24.0345 C   0  0  1  0  0  0
  -20.5849  -28.3676   23.1287 C   0  0  2  0  0  0
  -20.6768  -26.9389   22.5413 C   0  0  0  0  0  0
  -19.5712  -26.6359   21.5223 C   0  0  0  0  0  0
  -18.1903  -26.7882   22.1656 C   0  0  0  0  0  0
  -19.1532  -28.8840   23.2893 C   0  0  0  0  0  0
  -18.9452  -30.1433   23.8914 C   0  0  0  0  0  0
  -17.6462  -30.6582   24.0604 C   0  0  0  0  0  0
  -25.9045  -34.9492   23.5158 C   0  0  0  0  0  0
  -16.5342  -29.9135   23.6297 C   0  0  0  0  0  0
  -16.7290  -28.6547   23.0328 C   0  0  0  0  0  0
  -26.4493  -31.6625   25.0735 C   0  0  0  0  0  0
  -25.3758  -31.3693   26.1472 C   0  0  0  0  0  0
  -27.0313  -30.3069   24.6102 C   0  0  0  0  0  0
  -27.6087  -32.4302   25.7505 C   0  0  0  0  0  0
  -27.5586  -37.1817   24.8468 C   0  0  0  0  0  0
  -21.4091  -29.3069   22.3703 N   0  0  0  0  0  0
  -26.4305  -37.3812   23.9407 N   0  0  0  0  0  0
  -24.6664  -31.0835   22.1012 N   0  0  0  0  0  0
  -23.4131  -28.8265   23.3007 O   0  0  0  0  0  0
  -28.4065  -26.7394   20.0829 O   0  0  0  0  0  0
  -26.5584  -34.8928   22.4712 O   0  0  0  0  0  0
  -23.5351  -32.1466   23.7521 O   0  0  0  0  0  0
  -29.3925  -18.2535   20.5356 C   0  0  0  0  0  0
  -28.5521  -19.3864   20.4702 C   0  0  0  0  0  0
  -29.1078  -18.1796   22.9639 C   0  0  0  0  0  0
  -29.6997  -17.6720   21.7865 C   0  0  0  0  0  0
  -28.2677  -19.3140   22.9215 C   0  0  0  0  0  0
  -28.0235  -19.9280   21.6592 C   0  0  0  0  0  0
  -27.0480  -21.0061   23.2991 C   0  0  0  0  0  0
  -26.2386  -22.0386   24.0177 C   0  0  0  0  0  0
  -30.7097  -16.5412   21.8836 C   0  0  0  0  0  0
  -27.8748  -22.9498   20.4310 C   0  0  0  0  0  0
  -27.7245  -24.4513   20.7533 C   0  0  0  0  0  0
  -26.7596  -22.0455   21.0043 C   0  0  0  0  0  0
  -28.4104  -25.3587   19.7064 C   0  0  0  0  0  0
  -27.6272  -19.9911   23.9434 N   0  0  0  0  0  0
  -27.2496  -21.0510   21.9558 N   0  0  0  0  0  0
  -30.1592  -15.2473   21.5038 N   0  0  0  0  0  0
  -31.4621  -12.3754   19.1142 H   0  0  0  0  0  0
  -30.3066  -11.2542   19.7753 H   0  0  0  0  0  0
  -29.7215  -11.8040   17.4005 H   0  0  0  0  0  0
  -29.6654  -13.5088   17.7906 H   0  0  0  0  0  0
  -27.8149  -11.3113   18.7909 H   0  0  0  0  0  0
  -27.3595  -12.6573   17.7800 H   0  0  0  0  0  0
  -27.7320  -14.2506   19.6003 H   0  0  0  0  0  0
  -28.6632  -11.8802   21.2864 H   0  0  0  0  0  0
  -28.4445  -13.4872   21.8947 H   0  0  0  0  0  0
  -25.2780   -9.5771   22.4667 H   0  0  0  0  0  0
  -23.9994   -7.4741   22.7523 H   0  0  0  0  0  0
  -21.0788   -8.8748   19.9030 H   0  0  0  0  0  0
  -22.3619  -10.9629   19.6083 H   0  0  0  0  0  0
  -21.2077   -7.6165   23.9679 H   0  0  0  0  0  0
  -21.1437   -6.0549   25.9038 H   0  0  0  0  0  0
  -22.0622   -2.7619   23.2806 H   0  0  0  0  0  0
  -22.4105  -11.9863   22.4706 H   0  0  0  0  0  0
  -21.1122  -13.1257   22.2601 H   0  0  0  0  0  0
  -24.6930  -15.8641   20.5778 H   0  0  0  0  0  0
  -26.3027  -15.6188   20.1105 H   0  0  0  0  0  0
  -26.7141  -32.5564   23.1178 H   0  0  0  0  0  0
  -25.0053  -33.9798   25.0495 H   0  0  0  0  0  0
  -22.6898  -31.3224   21.4184 H   0  0  0  0  0  0
  -23.3748  -35.9653   23.3322 H   0  0  0  0  0  0
  -24.3583  -36.8904   22.2052 H   0  0  0  0  0  0
  -23.7229  -37.6526   23.6635 H   0  0  0  0  0  0
  -26.0482  -31.6052   20.6012 H   0  0  0  0  0  0
  -26.8168  -30.8832   21.9872 H   0  0  0  0  0  0
  -28.0953  -29.1029   21.1358 H   0  0  0  0  0  0
  -25.9848  -25.9855   19.0004 H   0  0  0  0  0  0
  -23.9397  -27.3091   19.0677 H   0  0  0  0  0  0
  -23.7149  -30.6139   19.4108 H   0  0  0  0  0  0
  -22.7233  -29.2629   19.8701 H   0  0  0  0  0  0
  -25.1283  -36.2014   25.0834 H   0  0  0  0  0  0
  -20.9969  -28.3241   24.1394 H   0  0  0  0  0  0
  -20.5669  -26.2280   23.3631 H   0  0  0  0  0  0
  -21.6646  -26.7412   22.1235 H   0  0  0  0  0  0
  -19.6866  -25.6297   21.1172 H   0  0  0  0  0  0
  -19.6616  -27.3285   20.6840 H   0  0  0  0  0  0
  -17.4179  -26.6606   21.4060 H   0  0  0  0  0  0
  -18.0215  -26.0013   22.9018 H   0  0  0  0  0  0
  -19.7974  -30.7210   24.2281 H   0  0  0  0  0  0
  -17.4964  -31.6238   24.5246 H   0  0  0  0  0  0
  -15.5331  -30.3069   23.7501 H   0  0  0  0  0  0
  -15.8701  -28.0907   22.6942 H   0  0  0  0  0  0
  -24.5943  -30.7050   25.7775 H   0  0  0  0  0  0
  -24.8937  -32.2825   26.4954 H   0  0  0  0  0  0
  -25.8102  -30.8821   27.0211 H   0  0  0  0  0  0
  -26.2844  -29.6835   24.1177 H   0  0  0  0  0  0
  -27.4109  -29.7302   25.4548 H   0  0  0  0  0  0
  -27.8674  -30.4380   23.9232 H   0  0  0  0  0  0
  -27.2750  -33.3581   26.2150 H   0  0  0  0  0  0
  -28.3884  -32.6887   25.0335 H   0  0  0  0  0  0
  -28.0784  -31.8380   26.5367 H   0  0  0  0  0  0
  -28.2629  -38.0092   24.7512 H   0  0  0  0  0  0
  -28.1064  -36.2629   24.6312 H   0  0  0  0  0  0
  -27.2299  -37.1477   25.8871 H   0  0  0  0  0  0
  -20.9203  -29.8825   21.6985 H   0  0  0  0  0  0
  -26.0205  -38.2901   24.1388 H   0  0  0  0  0  0
  -29.8356  -17.8537   19.6285 H   0  0  0  0  0  0
  -28.3317  -19.8547   19.5224 H   0  0  0  0  0  0
  -29.3244  -17.7301   23.9235 H   0  0  0  0  0  0
  -26.5298  -23.0386   23.6966 H   0  0  0  0  0  0
  -26.3959  -21.9676   25.0952 H   0  0  0  0  0  0
  -25.1747  -21.9030   23.8192 H   0  0  0  0  0  0
  -31.0738  -16.4751   22.9082 H   0  0  0  0  0  0
  -31.5780  -16.8107   21.2797 H   0  0  0  0  0  0
  -28.8618  -22.6149   20.7499 H   0  0  0  0  0  0
  -27.8695  -22.8224   19.3488 H   0  0  0  0  0  0
  -26.6696  -24.7073   20.8141 H   0  0  0  0  0  0
  -28.1341  -24.6544   21.7416 H   0  0  0  0  0  0
  -26.2763  -21.5150   20.1841 H   0  0  0  0  0  0
  -25.9657  -22.6365   21.4583 H   0  0  0  0  0  0
  -29.4525  -25.0597   19.6014 H   0  0  0  0  0  0
  -27.9802  -25.2189   18.7153 H   0  0  0  0  0  0
  -29.2820  -14.9788   21.9249 H   0  0  0  0  0  0
  1 25  1  0  0  0
  1 30  2  0  0  0
  1 86  1  0  0  0
  2  3  1  0  0  0
  2 25  1  0  0  0
  2 87  1  0  0  0
  2 88  1  0  0  0
  3  4  1  0  0  0
  3 89  1  0  0  0
  3 90  1  0  0  0
  4  5  1  0  0  0
  4 91  1  0  0  0
  4 92  1  0  0  0
  5  6  1  0  0  0
  5 26  1  0  0  0
  5 93  1  0  0  0
  6 25  1  0  0  0
  6 94  1  0  0  0
  6 95  1  0  0  0
  7  8  2  0  0  0
  7 26  1  0  0  0
  7 29  1  0  0  0
  8  9  1  0  0  0
  8 22  1  0  0  0
  9 10  1  0  0  0
  9 27  2  0  0  0
 10 11  2  0  0  0
 10 15  1  0  0  0
 11 12  1  0  0  0
 11 96  1  0  0  0
 12 13  2  0  0  0
 12 97  1  0  0  0
 13 14  1  0  0  0
 13 31  1  0  0  0
 14 15  2  0  0  0
 14 98  1  0  0  0
 15 99  1  0  0  0
 16 17  2  0  0  0
 16 21  1  0  0  0
 16 31  1  0  0  0
 17 18  1  0  0  0
 17100  1  0  0  0
 18 19  2  0  0  0
 18101  1  0  0  0
 19 20  1  0  0  0
 19 24  1  0  0  0
 20 21  2  0  0  0
 20102  1  0  0  0
 21 23  1  0  0  0
 22 28  1  0  0  0
 22 32  2  0  0  0
 26 27  1  0  0  0
 28103  1  0  0  0
 28104  1  0  0  0
 29105  1  0  0  0
 29106  1  0  0  0
 33 34  1  0  0  0
 33 66  1  0  0  0
 33 70  2  0  0  0
 34 36  1  0  0  0
 34 59  1  0  0  0
 34107  1  0  0  0
 35 44  2  0  0  0
 35 45  1  0  0  0
 35 68  1  0  0  0
 36 56  1  0  0  0
 36108  1  0  0  0
 37 39  1  0  0  0
 37 47  1  0  0  0
 37 66  1  0  0  0
 37109  1  0  0  0
 38 43  2  0  0  0
 38 46  1  0  0  0
 38 47  1  0  0  0
 39 64  1  0  0  0
 39 67  2  0  0  0
 40 52  1  0  0  0
 40 53  2  0  0  0
 40 58  1  0  0  0
 41110  1  0  0  0
 41111  1  0  0  0
 41112  1  0  0  0
 41 48  1  0  0  0
 42 43  1  0  0  0
 42 66  1  0  0  0
 42113  1  0  0  0
 42114  1  0  0  0
 43 44  1  0  0  0
 44115  1  0  0  0
 45 46  2  0  0  0
 45116  1  0  0  0
 46117  1  0  0  0
 47118  1  0  0  0
 47119  1  0  0  0
 48 56  1  0  0  0
 48 65  1  0  0  0
 48120  1  0  0  0
 49 50  1  0  0  0
 49 53  1  0  0  0
 49 64  1  0  0  0
 49121  1  0  0  0
 50 51  1  0  0  0
 50122  1  0  0  0
 50123  1  0  0  0
 51 52  1  0  0  0
 51124  1  0  0  0
 51125  1  0  0  0
 52126  1  0  0  0
 52127  1  0  0  0
 53 54  1  0  0  0
 54 55  2  0  0  0
 54128  1  0  0  0
 55 57  1  0  0  0
 55129  1  0  0  0
 56 69  2  0  0  0
 57 58  2  0  0  0
 57130  1  0  0  0
 58131  1  0  0  0
 59 60  1  0  0  0
 59 61  1  0  0  0
 59 62  1  0  0  0
 60132  1  0  0  0
 60133  1  0  0  0
 60134  1  0  0  0
 61135  1  0  0  0
 61136  1  0  0  0
 61137  1  0  0  0
 62138  1  0  0  0
 62139  1  0  0  0
 62140  1  0  0  0
 63 65  1  0  0  0
 63141  1  0  0  0
 63142  1  0  0  0
 63143  1  0  0  0
 64144  1  0  0  0
 65145  1  0  0  0
 68 83  1  0  0  0
 71 72  2  0  0  0
 71 74  1  0  0  0
 71146  1  0  0  0
 72 76  1  0  0  0
 72147  1  0  0  0
 73 74  2  0  0  0
 73 75  1  0  0  0
 73148  1  0  0  0
 74 79  1  0  0  0
 75 76  2  0  0  0
 75 84  1  0  0  0
 76 85  1  0  0  0
 77 78  1  0  0  0
 77 84  2  0  0  0
 77 85  1  0  0  0
 78149  1  0  0  0
 78150  1  0  0  0
 78151  1  0  0  0
 79 86  1  0  0  0
 79152  1  0  0  0
 79153  1  0  0  0
 80 81  1  0  0  0
 80 82  1  0  0  0
 80154  1  0  0  0
 80155  1  0  0  0
 81 83  1  0  0  0
 81156  1  0  0  0
 81157  1  0  0  0
 82 85  1  0  0  0
 82158  1  0  0  0
 82159  1  0  0  0
 83160  1  0  0  0
 83161  1  0  0  0
 86162  1  0  0  0
M  ISO  4   1 100  68 101  83 101  86 100
M  END
> <chiral flag>
0

> <version>
0

> <s_m_source_file>
/data/baiqing/PycharmProjects/Reinvent-master-3.2/result/LINK_invent/BTK/process_docking_weight1_custom_sum_contain_oxygen_bond_distance_aromatic_linkinvent_7_9_3/rearranged_h_0043.sdf

> <i_m_source_file_index>
21

> <r_mmod_Potential_Energy-OPLS-2005>
-155.30012512207

> <r_mmod_Stretch_Energy-OPLS-2005>
33.6327514648438

> <r_mmod_Bend_Energy-OPLS-2005>
98.3016662597656

> <r_mmod_Torsional_Energy-OPLS-2005>
213.429458618164

> <r_mmod_Improper_Torsional_Energy-OPLS-2005>
1.80985641479492

> <r_mmod_Van_der_Waal_Energy-OPLS-2005>
151.028015136719

> <r_mmod_Electrostatic_Energy-OPLS-2005>
-445.927490234375

> <r_mmod_Solvation_Energy-OPLS-2005>
-216.685104370117

> <b_mmod_Minimization_Converged-OPLS-2005>
0

> <r_mmod_RMS_Derivative-OPLS-2005>
4.46177244186401

$$$$
21
                    3D
 Structure written by MMmdl.
180188  0  0  1  0            999 V2000
  -30.7188  -14.4381   20.5897 C   0  0  0  0  0  0
  -30.4181  -12.2939   19.3948 C   0  0  0  0  0  0
  -29.4867  -12.5178   18.1861 C   0  0  0  0  0  0
  -28.0082  -12.4030   18.6099 C   0  0  0  0  0  0
  -27.6677  -13.2177   19.8882 C   0  0  2  0  0  0
  -28.7183  -12.9552   20.9896 C   0  0  0  0  0  0
  -25.2598  -13.8148   20.5719 C   0  0  0  0  0  0
  -24.1846  -13.0419   20.9220 C   0  0  0  0  0  0
  -24.6425  -11.6900   20.8752 C   0  0  0  0  0  0
  -23.9075  -10.4296   21.0425 C   0  0  0  0  0  0
  -24.3621   -9.4212   21.9189 C   0  0  0  0  0  0
  -23.6296   -8.2249   22.0774 C   0  0  0  0  0  0
  -22.4297   -8.0274   21.3553 C   0  0  0  0  0  0
  -21.9925   -9.0247   20.4669 C   0  0  0  0  0  0
  -22.7239  -10.2130   20.3071 C   0  0  0  0  0  0
  -21.6834   -6.0736   22.5307 C   0  0  0  0  0  0
  -21.3965   -6.5644   23.8236 C   0  0  0  0  0  0
  -21.3664   -5.6807   24.9224 C   0  0  0  0  0  0
  -21.6080   -4.3068   24.7257 C   0  0  0  0  0  0
  -21.8806   -3.8152   23.4383 C   0  0  0  0  0  0
  -21.9167   -4.6975   22.3423 C   0  0  0  0  0  0
  -22.7862  -13.5233   21.1852 C   0  0  0  0  0  0
  -22.1642   -4.2132   21.1008 F   0  0  0  0  0  0
  -21.5683   -3.4555   25.7786 F   0  0  0  0  0  0
  -30.0458  -13.2677   20.4353 N   0  0  0  0  0  0
  -26.3092  -12.9377   20.3497 N   0  0  0  0  0  0
  -25.9374  -11.6517   20.5796 N   0  0  0  0  0  0
  -22.0465  -12.8237   22.0421 N   0  0  0  0  0  0
  -25.4274  -15.1846   20.4086 N   0  0  0  0  0  0
  -31.8464  -14.6350   20.1246 O   0  0  0  0  0  0
  -21.6652   -6.8881   21.4267 O   0  0  0  0  0  0
  -22.3576  -14.5546   20.6719 O   0  0  0  0  0  0
  -24.6140  -31.8636   23.2090 C   0  0  0  0  0  0
  -25.9032  -32.4804   23.8388 C   0  0  1  0  0  0
  -27.2484  -27.4503   20.0825 C   0  0  0  0  0  0
  -25.5863  -33.8613   24.2306 N   0  0  0  0  0  0
  -23.4030  -30.4869   21.5486 C   0  0  2  0  0  0
  -24.8490  -28.9484   20.1185 C   0  0  0  0  0  0
  -22.7421  -29.4642   22.4994 C   0  0  0  0  0  0
  -18.0273  -28.1399   22.8469 C   0  0  0  0  0  0
  -24.1489  -36.7339   23.2637 C   0  0  0  0  0  0
  -25.9293  -30.8345   21.3568 C   0  0  0  0  0  0
  -26.0104  -29.4694   20.7057 C   0  0  0  0  0  0
  -27.2105  -28.7295   20.6778 C   0  0  0  0  0  0
  -26.0677  -26.9315   19.4992 C   0  0  0  0  0  0
  -24.8727  -27.6765   19.5174 C   0  0  0  0  0  0
  -23.6140  -29.8174   20.1646 C   0  0  0  0  0  0
  -25.4110  -36.3123   24.0338 C   0  0  1  0  0  0
  -20.5863  -28.3684   23.1304 C   0  0  2  0  0  0
  -20.6779  -26.9420   22.5418 C   0  0  0  0  0  0
  -19.5766  -26.6411   21.5205 C   0  0  0  0  0  0
  -18.1931  -26.7929   22.1614 C   0  0  0  0  0  0
  -19.1523  -28.8862   23.2868 C   0  0  0  0  0  0
  -18.9453  -30.1450   23.8891 C   0  0  0  0  0  0
  -17.6456  -30.6589   24.0574 C   0  0  0  0  0  0
  -25.9045  -34.9479   23.5127 C   0  0  0  0  0  0
  -16.5355  -29.9110   23.6339 C   0  0  0  0  0  0
  -16.7263  -28.6534   23.0314 C   0  0  0  0  0  0
  -26.4445  -31.6594   25.0720 C   0  0  0  0  0  0
  -25.3737  -31.3677   26.1499 C   0  0  0  0  0  0
  -27.0243  -30.3046   24.6036 C   0  0  0  0  0  0
  -27.6032  -32.4309   25.7475 C   0  0  0  0  0  0
  -27.5574  -37.1819   24.8450 C   0  0  0  0  0  0
  -21.4150  -29.3037   22.3727 N   0  0  0  0  0  0
  -26.4295  -37.3796   23.9405 N   0  0  0  0  0  0
  -24.6681  -31.0760   22.0976 N   0  0  0  0  0  0
  -23.4185  -28.8186   23.3042 O   0  0  0  0  0  0
  -28.4470  -26.7775   20.0317 O   0  0  0  0  0  0
  -26.5615  -34.8918   22.4700 O   0  0  0  0  0  0
  -23.5342  -32.1387   23.7497 O   0  0  0  0  0  0
  -30.0727  -23.3110   18.2522 C   0  0  0  0  0  0
  -28.9171  -22.7591   17.7387 C   0  0  0  0  0  0
  -30.5331  -21.2742   17.6473 C   0  0  0  0  0  0
  -27.5628  -23.3617   17.5426 C   0  0  0  0  0  0
  -33.7562  -18.1102   17.8239 C   0  0  0  0  0  0
  -30.3332  -24.6703   18.8614 C   0  0  0  0  0  0
  -31.2650  -19.9756   17.4349 C   0  0  0  0  0  0
  -33.3036  -18.7240   16.4916 C   0  0  0  0  0  0
  -29.8507  -24.8081   20.3254 C   0  0  0  0  0  0
  -32.5877  -20.0836   16.6537 C   0  0  0  0  0  0
  -28.2148  -19.6068   19.6269 C   0  0  0  0  0  0
  -28.6218  -18.4541   20.5864 C   0  0  0  0  0  0
  -28.0809  -19.2346   18.1260 C   0  0  0  0  0  0
  -30.0077  -17.8084   20.3084 C   0  0  0  0  0  0
  -28.2366  -20.3829   17.0867 C   0  0  0  0  0  0
  -30.4955  -16.8126   21.3892 C   0  0  0  0  0  0
  -28.4467  -25.4242   20.4836 C   0  0  0  0  0  0
  -31.0884  -22.3624   18.1790 N   0  0  0  0  0  0
  -29.2019  -21.4159   17.4671 N   0  0  0  0  0  0
  -30.0276  -15.4325   21.1789 N   0  0  0  0  0  0
  -31.4621  -12.3841   19.0892 H   0  0  0  0  0  0
  -30.3050  -11.2757   19.7755 H   0  0  0  0  0  0
  -29.7000  -11.7901   17.4008 H   0  0  0  0  0  0
  -29.6769  -13.5008   17.7496 H   0  0  0  0  0  0
  -27.8000  -11.3474   18.7868 H   0  0  0  0  0  0
  -27.3584  -12.7080   17.7891 H   0  0  0  0  0  0
  -27.7198  -14.2758   19.6328 H   0  0  0  0  0  0
  -28.6886  -11.9090   21.2934 H   0  0  0  0  0  0
  -28.4962  -13.5152   21.8985 H   0  0  0  0  0  0
  -25.2746   -9.5710   22.4787 H   0  0  0  0  0  0
  -23.9986   -7.4677   22.7503 H   0  0  0  0  0  0
  -21.0847   -8.8794   19.8993 H   0  0  0  0  0  0
  -22.3683  -10.9699   19.6218 H   0  0  0  0  0  0
  -21.1916   -7.6144   23.9710 H   0  0  0  0  0  0
  -21.1508   -6.0565   25.9110 H   0  0  0  0  0  0
  -22.0569   -2.7602   23.2922 H   0  0  0  0  0  0
  -22.3989  -11.9875   22.4863 H   0  0  0  0  0  0
  -21.1090  -13.1350   22.2547 H   0  0  0  0  0  0
  -24.6498  -15.8299   20.4932 H   0  0  0  0  0  0
  -26.2727  -15.6252   20.0736 H   0  0  0  0  0  0
  -26.7096  -32.5520   23.1152 H   0  0  0  0  0  0
  -24.9991  -33.9764   25.0422 H   0  0  0  0  0  0
  -22.6939  -31.3044   21.4054 H   0  0  0  0  0  0
  -23.3739  -35.9674   23.3301 H   0  0  0  0  0  0
  -24.3593  -36.8973   22.2047 H   0  0  0  0  0  0
  -23.7255  -37.6551   23.6661 H   0  0  0  0  0  0
  -26.0355  -31.5976   20.5831 H   0  0  0  0  0  0
  -26.8201  -30.8901   21.9725 H   0  0  0  0  0  0
  -28.1149  -29.1352   21.1123 H   0  0  0  0  0  0
  -26.0692  -25.9712   19.0021 H   0  0  0  0  0  0
  -23.9778  -27.2748   19.0593 H   0  0  0  0  0  0
  -23.7262  -30.5897   19.4007 H   0  0  0  0  0  0
  -22.7351  -29.2390   19.8712 H   0  0  0  0  0  0
  -25.1279  -36.1982   25.0825 H   0  0  0  0  0  0
  -20.9912  -28.3248   24.1437 H   0  0  0  0  0  0
  -20.5713  -26.2280   23.3602 H   0  0  0  0  0  0
  -21.6643  -26.7495   22.1185 H   0  0  0  0  0  0
  -19.6947  -25.6323   21.1226 H   0  0  0  0  0  0
  -19.6717  -27.3228   20.6730 H   0  0  0  0  0  0
  -17.4206  -26.6662   21.4004 H   0  0  0  0  0  0
  -18.0337  -26.0071   22.9012 H   0  0  0  0  0  0
  -19.7927  -30.7249   24.2271 H   0  0  0  0  0  0
  -17.5027  -31.6261   24.5181 H   0  0  0  0  0  0
  -15.5349  -30.3013   23.7660 H   0  0  0  0  0  0
  -15.8668  -28.0889   22.6991 H   0  0  0  0  0  0
  -24.5903  -30.7011   25.7861 H   0  0  0  0  0  0
  -24.8922  -32.2811   26.4996 H   0  0  0  0  0  0
  -25.8126  -30.8837   27.0231 H   0  0  0  0  0  0
  -26.2731  -29.6855   24.1106 H   0  0  0  0  0  0
  -27.4048  -29.7230   25.4439 H   0  0  0  0  0  0
  -27.8557  -30.4393   23.9123 H   0  0  0  0  0  0
  -27.2651  -33.3609   26.2056 H   0  0  0  0  0  0
  -28.3817  -32.6879   25.0279 H   0  0  0  0  0  0
  -28.0701  -31.8432   26.5379 H   0  0  0  0  0  0
  -28.2582  -38.0120   24.7516 H   0  0  0  0  0  0
  -28.1089  -36.2664   24.6258 H   0  0  0  0  0  0
  -27.2308  -37.1441   25.8854 H   0  0  0  0  0  0
  -20.9341  -29.8759   21.6925 H   0  0  0  0  0  0
  -26.0196  -38.2875   24.1411 H   0  0  0  0  0  0
  -27.6038  -24.4513   17.5545 H   0  0  0  0  0  0
  -26.8719  -23.0249   18.3183 H   0  0  0  0  0  0
  -27.1457  -23.0728   16.5779 H   0  0  0  0  0  0
  -34.4063  -17.2493   17.6652 H   0  0  0  0  0  0
  -32.9058  -17.7631   18.4124 H   0  0  0  0  0  0
  -34.3068  -18.8339   18.4211 H   0  0  0  0  0  0
  -29.9144  -25.4688   18.2465 H   0  0  0  0  0  0
  -31.4111  -24.8461   18.8552 H   0  0  0  0  0  0
  -30.6276  -19.2746   16.8989 H   0  0  0  0  0  0
  -31.4495  -19.5475   18.4169 H   0  0  0  0  0  0
  -32.6593  -18.0144   15.9704 H   0  0  0  0  0  0
  -34.1763  -18.8492   15.8458 H   0  0  0  0  0  0
  -30.5500  -25.4415   20.8776 H   0  0  0  0  0  0
  -29.8906  -23.8384   20.8224 H   0  0  0  0  0  0
  -33.2489  -20.7925   17.1539 H   0  0  0  0  0  0
  -32.3903  -20.5053   15.6680 H   0  0  0  0  0  0
  -28.9221  -20.4230   19.7699 H   0  0  0  0  0  0
  -27.2607  -20.0226   19.9523 H   0  0  0  0  0  0
  -27.8346  -17.7000   20.6173 H   0  0  0  0  0  0
  -28.6605  -18.8845   21.5914 H   0  0  0  0  0  0
  -27.1203  -18.7418   17.9694 H   0  0  0  0  0  0
  -28.8111  -18.4679   17.8804 H   0  0  0  0  0  0
  -30.7528  -18.6068   20.2662 H   0  0  0  0  0  0
  -30.0279  -17.3200   19.3319 H   0  0  0  0  0  0
  -27.2656  -20.8439   16.9268 H   0  0  0  0  0  0
  -28.5333  -19.9842   16.1135 H   0  0  0  0  0  0
  -30.1998  -17.1541   22.3825 H   0  0  0  0  0  0
  -31.5860  -16.8286   21.4089 H   0  0  0  0  0  0
  -28.1772  -25.4248   21.5415 H   0  0  0  0  0  0
  -27.7105  -24.8118   19.9647 H   0  0  0  0  0  0
  -29.0912  -15.2052   21.4746 H   0  0  0  0  0  0
  1 25  1  0  0  0
  1 30  2  0  0  0
  1 90  1  0  0  0
  2  3  1  0  0  0
  2 25  1  0  0  0
  2 91  1  0  0  0
  2 92  1  0  0  0
  3  4  1  0  0  0
  3 93  1  0  0  0
  3 94  1  0  0  0
  4  5  1  0  0  0
  4 95  1  0  0  0
  4 96  1  0  0  0
  5  6  1  0  0  0
  5 26  1  0  0  0
  5 97  1  0  0  0
  6 25  1  0  0  0
  6 98  1  0  0  0
  6 99  1  0  0  0
  7  8  2  0  0  0
  7 26  1  0  0  0
  7 29  1  0  0  0
  8  9  1  0  0  0
  8 22  1  0  0  0
  9 10  1  0  0  0
  9 27  2  0  0  0
 10 11  2  0  0  0
 10 15  1  0  0  0
 11 12  1  0  0  0
 11100  1  0  0  0
 12 13  2  0  0  0
 12101  1  0  0  0
 13 14  1  0  0  0
 13 31  1  0  0  0
 14 15  2  0  0  0
 14102  1  0  0  0
 15103  1  0  0  0
 16 17  2  0  0  0
 16 21  1  0  0  0
 16 31  1  0  0  0
 17 18  1  0  0  0
 17104  1  0  0  0
 18 19  2  0  0  0
 18105  1  0  0  0
 19 20  1  0  0  0
 19 24  1  0  0  0
 20 21  2  0  0  0
 20106  1  0  0  0
 21 23  1  0  0  0
 22 28  1  0  0  0
 22 32  2  0  0  0
 26 27  1  0  0  0
 28107  1  0  0  0
 28108  1  0  0  0
 29109  1  0  0  0
 29110  1  0  0  0
 33 34  1  0  0  0
 33 66  1  0  0  0
 33 70  2  0  0  0
 34 36  1  0  0  0
 34 59  1  0  0  0
 34111  1  0  0  0
 35 44  2  0  0  0
 35 45  1  0  0  0
 35 68  1  0  0  0
 36 56  1  0  0  0
 36112  1  0  0  0
 37 39  1  0  0  0
 37 47  1  0  0  0
 37 66  1  0  0  0
 37113  1  0  0  0
 38 43  2  0  0  0
 38 46  1  0  0  0
 38 47  1  0  0  0
 39 64  1  0  0  0
 39 67  2  0  0  0
 40 52  1  0  0  0
 40 53  2  0  0  0
 40 58  1  0  0  0
 41114  1  0  0  0
 41115  1  0  0  0
 41116  1  0  0  0
 41 48  1  0  0  0
 42 43  1  0  0  0
 42 66  1  0  0  0
 42117  1  0  0  0
 42118  1  0  0  0
 43 44  1  0  0  0
 44119  1  0  0  0
 45 46  2  0  0  0
 45120  1  0  0  0
 46121  1  0  0  0
 47122  1  0  0  0
 47123  1  0  0  0
 48 56  1  0  0  0
 48 65  1  0  0  0
 48124  1  0  0  0
 49 50  1  0  0  0
 49 53  1  0  0  0
 49 64  1  0  0  0
 49125  1  0  0  0
 50 51  1  0  0  0
 50126  1  0  0  0
 50127  1  0  0  0
 51 52  1  0  0  0
 51128  1  0  0  0
 51129  1  0  0  0
 52130  1  0  0  0
 52131  1  0  0  0
 53 54  1  0  0  0
 54 55  2  0  0  0
 54132  1  0  0  0
 55 57  1  0  0  0
 55133  1  0  0  0
 56 69  2  0  0  0
 57 58  2  0  0  0
 57134  1  0  0  0
 58135  1  0  0  0
 59 60  1  0  0  0
 59 61  1  0  0  0
 59 62  1  0  0  0
 60136  1  0  0  0
 60137  1  0  0  0
 60138  1  0  0  0
 61139  1  0  0  0
 61140  1  0  0  0
 61141  1  0  0  0
 62142  1  0  0  0
 62143  1  0  0  0
 62144  1  0  0  0
 63 65  1  0  0  0
 63145  1  0  0  0
 63146  1  0  0  0
 63147  1  0  0  0
 64148  1  0  0  0
 65149  1  0  0  0
 68 87  1  0  0  0
 71 72  2  0  0  0
 71 76  1  0  0  0
 71 88  1  0  0  0
 72 74  1  0  0  0
 72 89  1  0  0  0
 73 77  1  0  0  0
 73 88  2  0  0  0
 73 89  1  0  0  0
 74150  1  0  0  0
 74151  1  0  0  0
 74152  1  0  0  0
 75 78  1  0  0  0
 75153  1  0  0  0
 75154  1  0  0  0
 75155  1  0  0  0
 76 79  1  0  0  0
 76156  1  0  0  0
 76157  1  0  0  0
 77 80  1  0  0  0
 77158  1  0  0  0
 77159  1  0  0  0
 78 80  1  0  0  0
 78160  1  0  0  0
 78161  1  0  0  0
 79 87  1  0  0  0
 79162  1  0  0  0
 79163  1  0  0  0
 80164  1  0  0  0
 80165  1  0  0  0
 81 82  1  0  0  0
 81 83  1  0  0  0
 81166  1  0  0  0
 81167  1  0  0  0
 82 84  1  0  0  0
 82168  1  0  0  0
 82169  1  0  0  0
 83 85  1  0  0  0
 83170  1  0  0  0
 83171  1  0  0  0
 84 86  1  0  0  0
 84172  1  0  0  0
 84173  1  0  0  0
 85 89  1  0  0  0
 85174  1  0  0  0
 85175  1  0  0  0
 86 90  1  0  0  0
 86176  1  0  0  0
 86177  1  0  0  0
 87178  1  0  0  0
 87179  1  0  0  0
 90180  1  0  0  0
M  ISO  4   1 100  68 101  87 101  90 100
M  END
> <chiral flag>
0

> <version>
0

> <s_m_source_file>
/data/baiqing/PycharmProjects/Reinvent-master-3.2/result/LINK_invent/BTK/process_docking_weight1_custom_sum_contain_oxygen_bond_distance_aromatic_linkinvent_7_9_3/rearranged_h_0043.sdf

> <i_m_source_file_index>
22

> <r_mmod_Potential_Energy-OPLS-2005>
-96.5759887695312

> <r_mmod_Stretch_Energy-OPLS-2005>
37.5184440612793

> <r_mmod_Bend_Energy-OPLS-2005>
111.867454528809

> <r_mmod_Torsional_Energy-OPLS-2005>
246.259155273438

> <r_mmod_Improper_Torsional_Energy-OPLS-2005>
3.77077579498291

> <r_mmod_Van_der_Waal_Energy-OPLS-2005>
115.063667297363

> <r_mmod_Electrostatic_Energy-OPLS-2005>
-408.065032958984

> <r_mmod_Solvation_Energy-OPLS-2005>
-213.347915649414

> <b_mmod_Minimization_Converged-OPLS-2005>
0

> <r_mmod_RMS_Derivative-OPLS-2005>
6.41993570327759

$$$$
22
                    3D
 Structure written by MMmdl.
163171  0  0  1  0            999 V2000
  -30.7315  -14.4089   20.6415 C   0  0  0  0  0  0
  -30.4235  -12.2951   19.4037 C   0  0  0  0  0  0
  -29.4893  -12.5085   18.1970 C   0  0  0  0  0  0
  -28.0116  -12.3695   18.6136 C   0  0  0  0  0  0
  -27.6652  -13.2002   19.8774 C   0  0  2  0  0  0
  -28.7038  -12.9499   20.9924 C   0  0  0  0  0  0
  -25.2589  -13.8152   20.5652 C   0  0  0  0  0  0
  -24.1827  -13.0445   20.9157 C   0  0  0  0  0  0
  -24.6364  -11.6908   20.8720 C   0  0  0  0  0  0
  -23.9021  -10.4299   21.0407 C   0  0  0  0  0  0
  -24.3578   -9.4222   21.9194 C   0  0  0  0  0  0
  -23.6271   -8.2248   22.0768 C   0  0  0  0  0  0
  -22.4257   -8.0276   21.3551 C   0  0  0  0  0  0
  -21.9879   -9.0240   20.4654 C   0  0  0  0  0  0
  -22.7191  -10.2130   20.3063 C   0  0  0  0  0  0
  -21.6845   -6.0731   22.5276 C   0  0  0  0  0  0
  -21.4014   -6.5638   23.8207 C   0  0  0  0  0  0
  -21.3666   -5.6788   24.9168 C   0  0  0  0  0  0
  -21.6045   -4.3050   24.7211 C   0  0  0  0  0  0
  -21.8826   -3.8143   23.4332 C   0  0  0  0  0  0
  -21.9189   -4.6961   22.3390 C   0  0  0  0  0  0
  -22.7858  -13.5263   21.1820 C   0  0  0  0  0  0
  -22.1661   -4.2155   21.0966 F   0  0  0  0  0  0
  -21.5611   -3.4533   25.7720 F   0  0  0  0  0  0
  -30.0427  -13.2538   20.4511 N   0  0  0  0  0  0
  -26.3025  -12.9311   20.3360 N   0  0  0  0  0  0
  -25.9291  -11.6476   20.5750 N   0  0  0  0  0  0
  -22.0462  -12.8283   22.0368 N   0  0  0  0  0  0
  -25.4333  -15.1869   20.4059 N   0  0  0  0  0  0
  -31.8041  -14.6595   20.0831 O   0  0  0  0  0  0
  -21.6623   -6.8877   21.4245 O   0  0  0  0  0  0
  -22.3572  -14.5577   20.6668 O   0  0  0  0  0  0
  -24.6130  -31.8692   23.2118 C   0  0  0  0  0  0
  -25.9033  -32.4827   23.8406 C   0  0  1  0  0  0
  -27.2356  -27.4463   20.0834 C   0  0  0  0  0  0
  -25.5903  -33.8627   24.2340 N   0  0  0  0  0  0
  -23.3994  -30.4933   21.5530 C   0  0  2  0  0  0
  -24.8420  -28.9590   20.1182 C   0  0  0  0  0  0
  -22.7401  -29.4664   22.5013 C   0  0  0  0  0  0
  -18.0268  -28.1374   22.8494 C   0  0  0  0  0  0
  -24.1487  -36.7315   23.2635 C   0  0  0  0  0  0
  -25.9277  -30.8361   21.3640 C   0  0  0  0  0  0
  -26.0022  -29.4720   20.7099 C   0  0  0  0  0  0
  -27.1981  -28.7227   20.6885 C   0  0  0  0  0  0
  -26.0490  -26.9388   19.5006 C   0  0  0  0  0  0
  -24.8596  -27.6906   19.5145 C   0  0  0  0  0  0
  -23.6054  -29.8260   20.1672 C   0  0  0  0  0  0
  -25.4106  -36.3115   24.0340 C   0  0  1  0  0  0
  -20.5855  -28.3655   23.1331 C   0  0  2  0  0  0
  -20.6761  -26.9398   22.5415 C   0  0  0  0  0  0
  -19.5741  -26.6393   21.5209 C   0  0  0  0  0  0
  -18.1918  -26.7923   22.1620 C   0  0  0  0  0  0
  -19.1514  -28.8832   23.2907 C   0  0  0  0  0  0
  -18.9445  -30.1440   23.8912 C   0  0  0  0  0  0
  -17.6448  -30.6580   24.0571 C   0  0  0  0  0  0
  -25.9032  -34.9479   23.5134 C   0  0  0  0  0  0
  -16.5339  -29.9086   23.6328 C   0  0  0  0  0  0
  -16.7256  -28.6503   23.0346 C   0  0  0  0  0  0
  -26.4461  -31.6602   25.0732 C   0  0  0  0  0  0
  -25.3734  -31.3724   26.1490 C   0  0  0  0  0  0
  -27.0282  -30.3041   24.6107 C   0  0  0  0  0  0
  -27.6040  -32.4318   25.7487 C   0  0  0  0  0  0
  -27.5588  -37.1806   24.8456 C   0  0  0  0  0  0
  -21.4130  -29.3032   22.3750 N   0  0  0  0  0  0
  -26.4291  -37.3802   23.9417 N   0  0  0  0  0  0
  -24.6649  -31.0805   22.1011 N   0  0  0  0  0  0
  -23.4180  -28.8201   23.3043 O   0  0  0  0  0  0
  -28.4390  -26.7685   20.0760 O   0  0  0  0  0  0
  -26.5590  -34.8927   22.4693 O   0  0  0  0  0  0
  -23.5329  -32.1436   23.7525 O   0  0  0  0  0  0
  -26.8208  -21.1702   19.8775 C   0  0  0  0  0  0
  -29.1232  -22.1693   20.8880 C   0  0  0  0  0  0
  -27.9274  -20.3245   20.1567 C   0  0  0  0  0  0
  -28.0085  -23.0085   20.6220 C   0  0  0  0  0  0
  -25.5116  -20.6343   19.3284 C   0  0  0  0  0  0
  -30.4223  -22.7051   21.4569 C   0  0  0  0  0  0
  -27.8329  -18.8119   19.9329 C   0  0  0  0  0  0
  -28.0008  -24.5043   20.9211 C   0  0  0  0  0  0
  -29.1117  -17.9629   20.1304 C   0  0  0  0  0  0
  -29.4846  -17.6947   21.6038 C   0  0  0  0  0  0
  -30.5986  -16.6428   21.7849 C   0  0  0  0  0  0
  -28.4781  -25.3759   19.7427 C   0  0  0  0  0  0
  -29.0823  -20.8342   20.6545 N   0  0  0  0  0  0
  -26.8632  -22.5051   20.1017 N   0  0  0  0  0  0
  -30.1337  -15.2954   21.4501 N   0  0  0  0  0  0
  -31.4657  -12.4005   19.0964 H   0  0  0  0  0  0
  -30.3295  -11.2760   19.7821 H   0  0  0  0  0  0
  -29.7241  -11.7870   17.4133 H   0  0  0  0  0  0
  -29.6622  -13.4966   17.7667 H   0  0  0  0  0  0
  -27.8200  -11.3129   18.8032 H   0  0  0  0  0  0
  -27.3556  -12.6507   17.7890 H   0  0  0  0  0  0
  -27.7199  -14.2525   19.5960 H   0  0  0  0  0  0
  -28.6746  -11.9065   21.3078 H   0  0  0  0  0  0
  -28.4525  -13.5216   21.8861 H   0  0  0  0  0  0
  -25.2722   -9.5707   22.4766 H   0  0  0  0  0  0
  -23.9994   -7.4647   22.7492 H   0  0  0  0  0  0
  -21.0810   -8.8730   19.8958 H   0  0  0  0  0  0
  -22.3635  -10.9656   19.6164 H   0  0  0  0  0  0
  -21.2014   -7.6148   23.9712 H   0  0  0  0  0  0
  -21.1489   -6.0518   25.9072 H   0  0  0  0  0  0
  -22.0604   -2.7606   23.2819 H   0  0  0  0  0  0
  -22.4009  -11.9931   22.4777 H   0  0  0  0  0  0
  -21.1085  -13.1364   22.2513 H   0  0  0  0  0  0
  -24.6708  -15.8462   20.5175 H   0  0  0  0  0  0
  -26.2900  -15.6197   20.0867 H   0  0  0  0  0  0
  -26.7107  -32.5531   23.1172 H   0  0  0  0  0  0
  -25.0088  -33.9796   25.0507 H   0  0  0  0  0  0
  -22.6873  -31.3098   21.4162 H   0  0  0  0  0  0
  -23.3752  -35.9643   23.3288 H   0  0  0  0  0  0
  -24.3594  -36.8933   22.2052 H   0  0  0  0  0  0
  -23.7225  -37.6514   23.6649 H   0  0  0  0  0  0
  -26.0445  -31.6045   20.5984 H   0  0  0  0  0  0
  -26.8145  -30.8839   21.9844 H   0  0  0  0  0  0
  -28.0968  -29.1217   21.1386 H   0  0  0  0  0  0
  -26.0124  -25.9717   19.0236 H   0  0  0  0  0  0
  -23.9654  -27.2880   19.0581 H   0  0  0  0  0  0
  -23.7151  -30.6006   19.4079 H   0  0  0  0  0  0
  -22.7290  -29.2464   19.8711 H   0  0  0  0  0  0
  -25.1278  -36.1984   25.0832 H   0  0  0  0  0  0
  -20.9943  -28.3210   24.1453 H   0  0  0  0  0  0
  -20.5675  -26.2259   23.3591 H   0  0  0  0  0  0
  -21.6633  -26.7458   22.1199 H   0  0  0  0  0  0
  -19.6908  -25.6316   21.1211 H   0  0  0  0  0  0
  -19.6679  -27.3229   20.6759 H   0  0  0  0  0  0
  -17.4193  -26.6674   21.4018 H   0  0  0  0  0  0
  -18.0318  -26.0058   22.9009 H   0  0  0  0  0  0
  -19.7922  -30.7254   24.2282 H   0  0  0  0  0  0
  -17.5004  -31.6257   24.5178 H   0  0  0  0  0  0
  -15.5340  -30.2995   23.7643 H   0  0  0  0  0  0
  -15.8654  -28.0832   22.7050 H   0  0  0  0  0  0
  -24.5891  -30.7084   25.7842 H   0  0  0  0  0  0
  -24.8949  -32.2892   26.4947 H   0  0  0  0  0  0
  -25.8091  -30.8890   27.0243 H   0  0  0  0  0  0
  -26.2832  -29.6825   24.1130 H   0  0  0  0  0  0
  -27.4015  -29.7256   25.4568 H   0  0  0  0  0  0
  -27.8685  -30.4357   23.9285 H   0  0  0  0  0  0
  -27.2661  -33.3609   26.2090 H   0  0  0  0  0  0
  -28.3832  -32.6891   25.0300 H   0  0  0  0  0  0
  -28.0727  -31.8428   26.5381 H   0  0  0  0  0  0
  -28.2581  -38.0129   24.7545 H   0  0  0  0  0  0
  -28.1105  -36.2663   24.6221 H   0  0  0  0  0  0
  -27.2318  -37.1383   25.8860 H   0  0  0  0  0  0
  -20.9286  -29.8772   21.6992 H   0  0  0  0  0  0
  -26.0177  -38.2876   24.1438 H   0  0  0  0  0  0
  -25.0774  -19.9080   20.0156 H   0  0  0  0  0  0
  -25.6702  -20.1469   18.3667 H   0  0  0  0  0  0
  -24.7827  -21.4314   19.1806 H   0  0  0  0  0  0
  -30.8118  -23.5055   20.8284 H   0  0  0  0  0  0
  -31.1844  -21.9276   21.5169 H   0  0  0  0  0  0
  -30.2653  -23.0984   22.4612 H   0  0  0  0  0  0
  -27.5035  -18.6689   18.9034 H   0  0  0  0  0  0
  -27.0315  -18.4188   20.5595 H   0  0  0  0  0  0
  -28.6109  -24.7056   21.8011 H   0  0  0  0  0  0
  -26.9878  -24.7907   21.2034 H   0  0  0  0  0  0
  -29.9504  -18.4064   19.5915 H   0  0  0  0  0  0
  -28.9319  -16.9990   19.6526 H   0  0  0  0  0  0
  -28.5986  -17.3841   22.1606 H   0  0  0  0  0  0
  -29.8078  -18.6299   22.0629 H   0  0  0  0  0  0
  -30.9181  -16.6334   22.8279 H   0  0  0  0  0  0
  -31.4761  -16.9263   21.2006 H   0  0  0  0  0  0
  -27.9384  -25.1521   18.8232 H   0  0  0  0  0  0
  -29.5169  -25.1306   19.5219 H   0  0  0  0  0  0
  -29.2620  -14.9968   21.8606 H   0  0  0  0  0  0
  1 25  1  0  0  0
  1 30  2  0  0  0
  1 85  1  0  0  0
  2  3  1  0  0  0
  2 25  1  0  0  0
  2 86  1  0  0  0
  2 87  1  0  0  0
  3  4  1  0  0  0
  3 88  1  0  0  0
  3 89  1  0  0  0
  4  5  1  0  0  0
  4 90  1  0  0  0
  4 91  1  0  0  0
  5  6  1  0  0  0
  5 26  1  0  0  0
  5 92  1  0  0  0
  6 25  1  0  0  0
  6 93  1  0  0  0
  6 94  1  0  0  0
  7  8  2  0  0  0
  7 26  1  0  0  0
  7 29  1  0  0  0
  8  9  1  0  0  0
  8 22  1  0  0  0
  9 10  1  0  0  0
  9 27  2  0  0  0
 10 11  2  0  0  0
 10 15  1  0  0  0
 11 12  1  0  0  0
 11 95  1  0  0  0
 12 13  2  0  0  0
 12 96  1  0  0  0
 13 14  1  0  0  0
 13 31  1  0  0  0
 14 15  2  0  0  0
 14 97  1  0  0  0
 15 98  1  0  0  0
 16 17  2  0  0  0
 16 21  1  0  0  0
 16 31  1  0  0  0
 17 18  1  0  0  0
 17 99  1  0  0  0
 18 19  2  0  0  0
 18100  1  0  0  0
 19 20  1  0  0  0
 19 24  1  0  0  0
 20 21  2  0  0  0
 20101  1  0  0  0
 21 23  1  0  0  0
 22 28  1  0  0  0
 22 32  2  0  0  0
 26 27  1  0  0  0
 28102  1  0  0  0
 28103  1  0  0  0
 29104  1  0  0  0
 29105  1  0  0  0
 33 34  1  0  0  0
 33 66  1  0  0  0
 33 70  2  0  0  0
 34 36  1  0  0  0
 34 59  1  0  0  0
 34106  1  0  0  0
 35 44  2  0  0  0
 35 45  1  0  0  0
 35 68  1  0  0  0
 36 56  1  0  0  0
 36107  1  0  0  0
 37 39  1  0  0  0
 37 47  1  0  0  0
 37 66  1  0  0  0
 37108  1  0  0  0
 38 43  2  0  0  0
 38 46  1  0  0  0
 38 47  1  0  0  0
 39 64  1  0  0  0
 39 67  2  0  0  0
 40 52  1  0  0  0
 40 53  2  0  0  0
 40 58  1  0  0  0
 41109  1  0  0  0
 41110  1  0  0  0
 41111  1  0  0  0
 41 48  1  0  0  0
 42 43  1  0  0  0
 42 66  1  0  0  0
 42112  1  0  0  0
 42113  1  0  0  0
 43 44  1  0  0  0
 44114  1  0  0  0
 45 46  2  0  0  0
 45115  1  0  0  0
 46116  1  0  0  0
 47117  1  0  0  0
 47118  1  0  0  0
 48 56  1  0  0  0
 48 65  1  0  0  0
 48119  1  0  0  0
 49 50  1  0  0  0
 49 53  1  0  0  0
 49 64  1  0  0  0
 49120  1  0  0  0
 50 51  1  0  0  0
 50121  1  0  0  0
 50122  1  0  0  0
 51 52  1  0  0  0
 51123  1  0  0  0
 51124  1  0  0  0
 52125  1  0  0  0
 52126  1  0  0  0
 53 54  1  0  0  0
 54 55  2  0  0  0
 54127  1  0  0  0
 55 57  1  0  0  0
 55128  1  0  0  0
 56 69  2  0  0  0
 57 58  2  0  0  0
 57129  1  0  0  0
 58130  1  0  0  0
 59 60  1  0  0  0
 59 61  1  0  0  0
 59 62  1  0  0  0
 60131  1  0  0  0
 60132  1  0  0  0
 60133  1  0  0  0
 61134  1  0  0  0
 61135  1  0  0  0
 61136  1  0  0  0
 62137  1  0  0  0
 62138  1  0  0  0
 62139  1  0  0  0
 63 65  1  0  0  0
 63140  1  0  0  0
 63141  1  0  0  0
 63142  1  0  0  0
 64143  1  0  0  0
 65144  1  0  0  0
 68 82  1  0  0  0
 71 73  2  0  0  0
 71 75  1  0  0  0
 71 84  1  0  0  0
 72 74  1  0  0  0
 72 76  1  0  0  0
 72 83  2  0  0  0
 73 77  1  0  0  0
 73 83  1  0  0  0
 74 78  1  0  0  0
 74 84  2  0  0  0
 75145  1  0  0  0
 75146  1  0  0  0
 75147  1  0  0  0
 76148  1  0  0  0
 76149  1  0  0  0
 76150  1  0  0  0
 77 79  1  0  0  0
 77151  1  0  0  0
 77152  1  0  0  0
 78 82  1  0  0  0
 78153  1  0  0  0
 78154  1  0  0  0
 79 80  1  0  0  0
 79155  1  0  0  0
 79156  1  0  0  0
 80 81  1  0  0  0
 80157  1  0  0  0
 80158  1  0  0  0
 81 85  1  0  0  0
 81159  1  0  0  0
 81160  1  0  0  0
 82161  1  0  0  0
 82162  1  0  0  0
 85163  1  0  0  0
M  ISO  4   1 100  68 101  82 101  85 100
M  END
> <chiral flag>
0

> <version>
0

> <s_m_source_file>
/data/baiqing/PycharmProjects/Reinvent-master-3.2/result/LINK_invent/BTK/process_docking_weight1_custom_sum_contain_oxygen_bond_distance_aromatic_linkinvent_7_9_3/rearranged_h_0043.sdf

> <i_m_source_file_index>
23

> <r_mmod_Potential_Energy-OPLS-2005>
-90.7133941650391

> <r_mmod_Stretch_Energy-OPLS-2005>
36.4146690368652

> <r_mmod_Bend_Energy-OPLS-2005>
103.298141479492

> <r_mmod_Torsional_Energy-OPLS-2005>
191.658050537109

> <r_mmod_Improper_Torsional_Energy-OPLS-2005>
1.94414019584656

> <r_mmod_Van_der_Waal_Energy-OPLS-2005>
156.644180297852

> <r_mmod_Electrostatic_Energy-OPLS-2005>
-371.564331054688

> <r_mmod_Solvation_Energy-OPLS-2005>
-217.848770141602

> <b_mmod_Minimization_Converged-OPLS-2005>
0

> <r_mmod_RMS_Derivative-OPLS-2005>
1.20466375350952

$$$$
23
                    3D
 Structure written by MMmdl.
164172  0  0  1  0            999 V2000
  -29.6033  -15.5260   20.6417 C   0  0  0  0  0  0
  -30.3245  -13.0976   19.6688 C   0  0  0  0  0  0
  -29.5262  -12.6841   18.3864 C   0  0  0  0  0  0
  -28.0864  -12.2733   18.7435 C   0  0  0  0  0  0
  -27.5250  -13.2159   19.8285 C   0  0  2  0  0  0
  -28.4320  -13.3197   21.0500 C   0  0  0  0  0  0
  -25.1970  -13.8067   20.5574 C   0  0  0  0  0  0
  -24.1379  -13.0336   20.9274 C   0  0  0  0  0  0
  -24.5974  -11.6806   20.8760 C   0  0  0  0  0  0
  -23.8773  -10.4213   21.0469 C   0  0  0  0  0  0
  -24.3449   -9.4171   21.9214 C   0  0  0  0  0  0
  -23.6201   -8.2173   22.0755 C   0  0  0  0  0  0
  -22.4199   -8.0182   21.3532 C   0  0  0  0  0  0
  -21.9759   -9.0124   20.4649 C   0  0  0  0  0  0
  -22.6996  -10.2039   20.3082 C   0  0  0  0  0  0
  -21.6823   -6.0668   22.5281 C   0  0  0  0  0  0
  -21.3985   -6.5594   23.8206 C   0  0  0  0  0  0
  -21.3667   -5.6763   24.9181 C   0  0  0  0  0  0
  -21.6049   -4.3025   24.7240 C   0  0  0  0  0  0
  -21.8826   -3.8101   23.4368 C   0  0  0  0  0  0
  -21.9185   -4.6903   22.3416 C   0  0  0  0  0  0
  -22.7500  -13.5198   21.2006 C   0  0  0  0  0  0
  -22.1661   -4.2083   21.0997 F   0  0  0  0  0  0
  -21.5648   -3.4533   25.7769 F   0  0  0  0  0  0
  -29.5242  -14.0892   20.5361 N   0  0  0  0  0  0
  -26.2061  -12.9098   20.2764 N   0  0  0  0  0  0
  -25.8769  -11.6304   20.5468 N   0  0  0  0  0  0
  -22.0175  -12.8192   22.0567 N   0  0  0  0  0  0
  -25.3840  -15.1800   20.4061 N   0  0  0  0  0  0
  -30.7916  -15.8032   20.3073 O   0  0  0  0  0  0
  -21.6603   -6.8772   21.4225 O   0  0  0  0  0  0
  -22.3261  -14.5535   20.6861 O   0  0  0  0  0  0
  -24.6714  -31.9324   23.1973 C   0  0  0  0  0  0
  -25.9498  -32.5062   23.8514 C   0  0  1  0  0  0
  -26.8635  -27.2782   20.3177 C   0  0  0  0  0  0
  -25.6283  -33.8786   24.2504 N   0  0  0  0  0  0
  -23.4928  -30.6354   21.5022 C   0  0  2  0  0  0
  -24.8750  -29.1328   19.9452 C   0  0  0  0  0  0
  -22.9641  -29.6005   22.4782 C   0  0  0  0  0  0
  -18.3647  -27.3598   23.2302 C   0  0  0  0  0  0
  -24.1495  -36.7343   23.2609 C   0  0  0  0  0  0
  -26.0084  -30.8542   21.3725 C   0  0  0  0  0  0
  -26.0118  -29.5052   20.6791 C   0  0  0  0  0  0
  -27.0673  -28.5818   20.8288 C   0  0  0  0  0  0
  -25.9770  -27.0785   19.2562 C   0  0  0  0  0  0
  -24.8893  -27.9621   19.1548 C   0  0  0  0  0  0
  -23.6641  -30.0236   20.0789 C   0  0  0  0  0  0
  -25.4122  -36.3189   24.0324 C   0  0  1  0  0  0
  -21.2368  -28.1543   22.8310 C   0  0  2  0  0  0
  -21.6510  -27.0652   21.0813 C   0  0  0  0  0  0
  -20.0174  -25.7218   20.6568 C   0  0  0  0  0  0
  -18.4762  -25.9346   22.0504 C   0  0  0  0  0  0
  -19.5822  -28.2878   23.5951 C   0  0  0  0  0  0
  -19.2350  -29.6459   24.0077 C   0  0  0  0  0  0
  -17.9298  -30.2073   24.0570 C   0  0  0  0  0  0
  -25.9136  -34.9594   23.5140 C   0  0  0  0  0  0
  -16.8419  -29.4078   23.6911 C   0  0  0  0  0  0
  -17.0695  -28.0503   23.3075 C   0  0  0  0  0  0
  -26.4549  -31.6629   25.0839 C   0  0  0  0  0  0
  -25.3626  -31.3797   26.1425 C   0  0  0  0  0  0
  -27.0286  -30.3019   24.6231 C   0  0  0  0  0  0
  -27.6101  -32.4214   25.7750 C   0  0  0  0  0  0
  -27.5596  -37.1860   24.8461 C   0  0  0  0  0  0
  -21.6691  -29.4456   22.4754 N   0  0  0  0  0  0
  -26.4291  -37.3894   23.9436 N   0  0  0  0  0  0
  -24.7439  -31.1839   22.0615 N   0  0  0  0  0  0
  -23.7083  -28.9531   23.2189 O   0  0  0  0  0  0
  -26.5949  -26.2865   21.2358 O   0  0  0  0  0  0
  -26.5582  -34.9014   22.4628 O   0  0  0  0  0  0
  -23.5837  -32.1993   23.7350 O   0  0  0  0  0  0
  -20.8740  -25.7868   22.7836 C   0  0  0  0  0  0
  -22.5874  -23.6520   22.5531 C   0  0  0  0  0  0
  -18.0135  -29.2482   19.5500 C   0  0  0  0  0  0
  -19.5519  -27.8415   21.2347 C   0  0  0  0  0  0
  -24.0054  -22.3327   22.5367 C   0  0  0  0  0  0
  -18.1937  -27.9227   20.3226 C   0  0  0  0  0  0
  -25.0268  -20.9231   21.5519 C   0  0  0  0  0  0
  -26.2123  -19.3184   21.7913 C   0  0  0  0  0  0
  -23.9300  -25.7488   22.8960 C   0  0  0  0  0  0
  -27.6102  -18.1632   20.9347 C   0  0  0  0  0  0
  -25.1354  -26.4817   21.9071 C   0  0  0  0  0  0
  -20.4419  -24.5337   23.2065 N   0  0  0  0  0  0
  -21.3030  -23.3628   22.8942 N   0  0  0  0  0  0
  -22.4320  -25.1602   22.6721 N   0  0  0  0  0  0
  -28.3852  -16.5046   20.9880 N   0  0  0  0  0  0
  -31.2812  -13.5322   19.3728 H   0  0  0  0  0  0
  -30.5819  -12.2109   20.2515 H   0  0  0  0  0  0
  -30.0354  -11.8786   17.8574 H   0  0  0  0  0  0
  -29.4938  -13.5316   17.6991 H   0  0  0  0  0  0
  -28.1071  -11.2511   19.1244 H   0  0  0  0  0  0
  -27.4484  -12.2641   17.8586 H   0  0  0  0  0  0
  -27.4491  -14.1872   19.3355 H   0  0  0  0  0  0
  -28.7217  -12.3437   21.4437 H   0  0  0  0  0  0
  -27.9475  -13.8551   21.8684 H   0  0  0  0  0  0
  -25.2592   -9.5713   22.4775 H   0  0  0  0  0  0
  -23.9954   -7.4565   22.7450 H   0  0  0  0  0  0
  -21.0705   -8.8581   19.8951 H   0  0  0  0  0  0
  -22.3413  -10.9575   19.6207 H   0  0  0  0  0  0
  -21.1954   -7.6104   23.9677 H   0  0  0  0  0  0
  -21.1496   -6.0514   25.9079 H   0  0  0  0  0  0
  -22.0602   -2.7561   23.2895 H   0  0  0  0  0  0
  -22.3796  -11.9835   22.4910 H   0  0  0  0  0  0
  -21.0811  -13.1228   22.2827 H   0  0  0  0  0  0
  -24.5905  -15.8057   20.4864 H   0  0  0  0  0  0
  -26.1225  -15.5652   19.8324 H   0  0  0  0  0  0
  -26.7681  -32.5691   23.1381 H   0  0  0  0  0  0
  -25.0433  -33.9913   25.0655 H   0  0  0  0  0  0
  -22.7656  -31.4454   21.4224 H   0  0  0  0  0  0
  -23.3790  -35.9646   23.3262 H   0  0  0  0  0  0
  -24.3588  -36.8978   22.2028 H   0  0  0  0  0  0
  -23.7204  -37.6522   23.6634 H   0  0  0  0  0  0
  -26.2051  -31.6235   20.6249 H   0  0  0  0  0  0
  -26.8732  -30.8408   22.0274 H   0  0  0  0  0  0
  -27.8220  -28.7632   21.5804 H   0  0  0  0  0  0
  -25.8619  -26.0992   18.8146 H   0  0  0  0  0  0
  -24.0386  -27.7032   18.5382 H   0  0  0  0  0  0
  -23.7936  -30.8379   19.3650 H   0  0  0  0  0  0
  -22.7585  -29.5218   19.7533 H   0  0  0  0  0  0
  -25.1281  -36.2035   25.0814 H   0  0  0  0  0  0
  -21.8063  -27.7925   23.6939 H   0  0  0  0  0  0
  -22.6184  -26.6150   20.9271 H   0  0  0  0  0  0
  -21.8358  -27.7252   20.2350 H   0  0  0  0  0  0
  -20.3386  -24.6784   20.6015 H   0  0  0  0  0  0
  -19.7035  -25.8360   19.6203 H   0  0  0  0  0  0
  -17.5375  -25.8649   21.5021 H   0  0  0  0  0  0
  -18.2674  -25.0277   22.6148 H   0  0  0  0  0  0
  -20.0481  -30.3295   24.2074 H   0  0  0  0  0  0
  -17.7898  -31.2322   24.3609 H   0  0  0  0  0  0
  -15.8409  -29.8127   23.7094 H   0  0  0  0  0  0
  -16.2037  -27.5025   22.9660 H   0  0  0  0  0  0
  -24.5708  -30.7364   25.7575 H   0  0  0  0  0  0
  -24.8959  -32.3008   26.4931 H   0  0  0  0  0  0
  -25.7753  -30.8768   27.0180 H   0  0  0  0  0  0
  -26.2883  -29.6957   24.1009 H   0  0  0  0  0  0
  -27.3708  -29.7093   25.4726 H   0  0  0  0  0  0
  -27.8904  -30.4274   23.9670 H   0  0  0  0  0  0
  -27.2734  -33.3500   26.2378 H   0  0  0  0  0  0
  -28.3984  -32.6778   25.0654 H   0  0  0  0  0  0
  -28.0671  -31.8241   26.5658 H   0  0  0  0  0  0
  -28.2590  -38.0185   24.7586 H   0  0  0  0  0  0
  -28.1122  -36.2726   24.6188 H   0  0  0  0  0  0
  -27.2335  -37.1404   25.8869 H   0  0  0  0  0  0
  -21.0799  -30.0275   21.8992 H   0  0  0  0  0  0
  -26.0161  -38.2954   24.1493 H   0  0  0  0  0  0
  -17.2717  -29.1296   18.7609 H   0  0  0  0  0  0
  -18.9318  -29.5867   19.0690 H   0  0  0  0  0  0
  -17.6586  -30.0440   20.2064 H   0  0  0  0  0  0
  -19.9510  -28.0702   20.2428 H   0  0  0  0  0  0
  -19.5736  -28.9124   21.4644 H   0  0  0  0  0  0
  -23.6613  -21.7184   23.3674 H   0  0  0  0  0  0
  -24.8241  -22.8904   22.9836 H   0  0  0  0  0  0
  -18.1477  -27.1469   19.5598 H   0  0  0  0  0  0
  -17.2545  -27.8179   20.8576 H   0  0  0  0  0  0
  -25.5941  -21.5249   20.8417 H   0  0  0  0  0  0
  -24.2419  -20.4945   20.9265 H   0  0  0  0  0  0
  -25.4753  -18.5730   22.0904 H   0  0  0  0  0  0
  -26.7009  -19.5652   22.7341 H   0  0  0  0  0  0
  -23.7479  -26.5058   23.6566 H   0  0  0  0  0  0
  -24.4599  -25.0106   23.4935 H   0  0  0  0  0  0
  -28.4893  -18.8072   20.9422 H   0  0  0  0  0  0
  -27.2975  -18.1897   19.8897 H   0  0  0  0  0  0
  -25.5056  -27.1824   22.6541 H   0  0  0  0  0  0
  -24.5224  -27.1339   21.3309 H   0  0  0  0  0  0
  -27.6455  -15.8789   21.2843 H   0  0  0  0  0  0
  1 25  1  0  0  0
  1 30  2  0  0  0
  1 85  1  0  0  0
  2  3  1  0  0  0
  2 25  1  0  0  0
  2 86  1  0  0  0
  2 87  1  0  0  0
  3  4  1  0  0  0
  3 88  1  0  0  0
  3 89  1  0  0  0
  4  5  1  0  0  0
  4 90  1  0  0  0
  4 91  1  0  0  0
  5  6  1  0  0  0
  5 26  1  0  0  0
  5 92  1  0  0  0
  6 25  1  0  0  0
  6 93  1  0  0  0
  6 94  1  0  0  0
  7  8  2  0  0  0
  7 26  1  0  0  0
  7 29  1  0  0  0
  8  9  1  0  0  0
  8 22  1  0  0  0
  9 10  1  0  0  0
  9 27  2  0  0  0
 10 11  2  0  0  0
 10 15  1  0  0  0
 11 12  1  0  0  0
 11 95  1  0  0  0
 12 13  2  0  0  0
 12 96  1  0  0  0
 13 14  1  0  0  0
 13 31  1  0  0  0
 14 15  2  0  0  0
 14 97  1  0  0  0
 15 98  1  0  0  0
 16 17  2  0  0  0
 16 21  1  0  0  0
 16 31  1  0  0  0
 17 18  1  0  0  0
 17 99  1  0  0  0
 18 19  2  0  0  0
 18100  1  0  0  0
 19 20  1  0  0  0
 19 24  1  0  0  0
 20 21  2  0  0  0
 20101  1  0  0  0
 21 23  1  0  0  0
 22 28  1  0  0  0
 22 32  2  0  0  0
 26 27  1  0  0  0
 28102  1  0  0  0
 28103  1  0  0  0
 29104  1  0  0  0
 29105  1  0  0  0
 33 34  1  0  0  0
 33 66  1  0  0  0
 33 70  2  0  0  0
 34 36  1  0  0  0
 34 59  1  0  0  0
 34106  1  0  0  0
 35 44  2  0  0  0
 35 45  1  0  0  0
 35 68  1  0  0  0
 36 56  1  0  0  0
 36107  1  0  0  0
 37 39  1  0  0  0
 37 47  1  0  0  0
 37 66  1  0  0  0
 37108  1  0  0  0
 38 43  2  0  0  0
 38 46  1  0  0  0
 38 47  1  0  0  0
 39 64  1  0  0  0
 39 67  2  0  0  0
 40 52  1  0  0  0
 40 53  2  0  0  0
 40 58  1  0  0  0
 41109  1  0  0  0
 41110  1  0  0  0
 41111  1  0  0  0
 41 48  1  0  0  0
 42 43  1  0  0  0
 42 66  1  0  0  0
 42112  1  0  0  0
 42113  1  0  0  0
 43 44  1  0  0  0
 44114  1  0  0  0
 45 46  2  0  0  0
 45115  1  0  0  0
 46116  1  0  0  0
 47117  1  0  0  0
 47118  1  0  0  0
 48 56  1  0  0  0
 48 65  1  0  0  0
 48119  1  0  0  0
 49 50  1  0  0  0
 49 53  1  0  0  0
 49 64  1  0  0  0
 49120  1  0  0  0
 50 51  1  0  0  0
 50121  1  0  0  0
 50122  1  0  0  0
 51 52  1  0  0  0
 51123  1  0  0  0
 51124  1  0  0  0
 52125  1  0  0  0
 52126  1  0  0  0
 53 54  1  0  0  0
 54 55  2  0  0  0
 54127  1  0  0  0
 55 57  1  0  0  0
 55128  1  0  0  0
 56 69  2  0  0  0
 57 58  2  0  0  0
 57129  1  0  0  0
 58130  1  0  0  0
 59 60  1  0  0  0
 59 61  1  0  0  0
 59 62  1  0  0  0
 60131  1  0  0  0
 60132  1  0  0  0
 60133  1  0  0  0
 61134  1  0  0  0
 61135  1  0  0  0
 61136  1  0  0  0
 62137  1  0  0  0
 62138  1  0  0  0
 62139  1  0  0  0
 63 65  1  0  0  0
 63140  1  0  0  0
 63141  1  0  0  0
 63142  1  0  0  0
 64143  1  0  0  0
 65144  1  0  0  0
 68 81  1  0  0  0
 71 74  1  0  0  0
 71 82  2  0  0  0
 71 84  1  0  0  0
 72 75  1  0  0  0
 72 83  2  0  0  0
 72 84  1  0  0  0
 73 76  1  0  0  0
 73145  1  0  0  0
 73146  1  0  0  0
 73147  1  0  0  0
 74 76  1  0  0  0
 74148  1  0  0  0
 74149  1  0  0  0
 75 77  1  0  0  0
 75150  1  0  0  0
 75151  1  0  0  0
 76152  1  0  0  0
 76153  1  0  0  0
 77 78  1  0  0  0
 77154  1  0  0  0
 77155  1  0  0  0
 78 80  1  0  0  0
 78156  1  0  0  0
 78157  1  0  0  0
 79 81  1  0  0  0
 79 84  1  0  0  0
 79158  1  0  0  0
 79159  1  0  0  0
 80 85  1  0  0  0
 80160  1  0  0  0
 80161  1  0  0  0
 81162  1  0  0  0
 81163  1  0  0  0
 82 83  1  0  0  0
 85164  1  0  0  0
M  ISO  4   1 100  68 101  81 101  85 100
M  END
> <chiral flag>
0

> <version>
0

> <s_m_source_file>
/data/baiqing/PycharmProjects/Reinvent-master-3.2/result/LINK_invent/BTK/process_docking_weight1_custom_sum_contain_oxygen_bond_distance_aromatic_linkinvent_7_9_3/rearranged_h_0043.sdf

> <i_m_source_file_index>
24

> <r_mmod_Potential_Energy-OPLS-2005>
11372.4921875

> <r_mmod_Stretch_Energy-OPLS-2005>
5865.8232421875

> <r_mmod_Bend_Energy-OPLS-2005>
1367.96325683594

> <r_mmod_Torsional_Energy-OPLS-2005>
553.882690429688

> <r_mmod_Improper_Torsional_Energy-OPLS-2005>
54.4397048950195

> <r_mmod_Van_der_Waal_Energy-OPLS-2005>
1896.140625

> <r_mmod_Electrostatic_Energy-OPLS-2005>
-398.517395019531

> <r_mmod_Solvation_Energy-OPLS-2005>
-231.969192504883

> <b_mmod_Minimization_Converged-OPLS-2005>
0

> <r_mmod_RMS_Derivative-OPLS-2005>
4.69186210632324

$$$$
24
                    3D
 Structure written by MMmdl.
160168  0  0  1  0            999 V2000
  -30.6361  -14.5931   20.5357 C   0  0  0  0  0  0
  -30.4365  -12.3768   19.4305 C   0  0  0  0  0  0
  -29.5004  -12.5004   18.2091 C   0  0  0  0  0  0
  -28.0230  -12.3439   18.6251 C   0  0  0  0  0  0
  -27.6516  -13.2095   19.8585 C   0  0  2  0  0  0
  -28.6963  -13.0440   20.9827 C   0  0  0  0  0  0
  -25.2563  -13.8159   20.5667 C   0  0  0  0  0  0
  -24.1826  -13.0434   20.9188 C   0  0  0  0  0  0
  -24.6384  -11.6903   20.8737 C   0  0  0  0  0  0
  -23.9053  -10.4289   21.0407 C   0  0  0  0  0  0
  -24.3611   -9.4206   21.9182 C   0  0  0  0  0  0
  -23.6288   -8.2242   22.0753 C   0  0  0  0  0  0
  -22.4270   -8.0279   21.3544 C   0  0  0  0  0  0
  -21.9902   -9.0251   20.4645 C   0  0  0  0  0  0
  -22.7229  -10.2132   20.3052 C   0  0  0  0  0  0
  -21.6852   -6.0732   22.5278 C   0  0  0  0  0  0
  -21.4014   -6.5637   23.8211 C   0  0  0  0  0  0
  -21.3657   -5.6790   24.9173 C   0  0  0  0  0  0
  -21.6044   -4.3053   24.7224 C   0  0  0  0  0  0
  -21.8821   -3.8144   23.4346 C   0  0  0  0  0  0
  -21.9195   -4.6960   22.3402 C   0  0  0  0  0  0
  -22.7852  -13.5237   21.1851 C   0  0  0  0  0  0
  -22.1664   -4.2147   21.0979 F   0  0  0  0  0  0
  -21.5627   -3.4537   25.7737 F   0  0  0  0  0  0
  -30.0092  -13.3857   20.4149 N   0  0  0  0  0  0
  -26.2974  -12.9323   20.3289 N   0  0  0  0  0  0
  -25.9304  -11.6486   20.5741 N   0  0  0  0  0  0
  -22.0489  -12.8229   22.0404 N   0  0  0  0  0  0
  -25.4290  -15.1878   20.4065 N   0  0  0  0  0  0
  -31.8068  -14.7628   20.1843 O   0  0  0  0  0  0
  -21.6637   -6.8875   21.4239 O   0  0  0  0  0  0
  -22.3543  -14.5546   20.6703 O   0  0  0  0  0  0
  -24.6216  -31.8621   23.2028 C   0  0  0  0  0  0
  -25.9081  -32.4790   23.8348 C   0  0  1  0  0  0
  -27.2319  -27.3582   20.1235 C   0  0  0  0  0  0
  -25.5910  -33.8589   24.2282 N   0  0  0  0  0  0
  -23.4129  -30.4829   21.5452 C   0  0  2  0  0  0
  -24.8592  -28.9295   20.1226 C   0  0  0  0  0  0
  -22.7444  -29.4637   22.4970 C   0  0  0  0  0  0
  -18.0277  -28.1378   22.8489 C   0  0  0  0  0  0
  -24.1487  -36.7304   23.2641 C   0  0  0  0  0  0
  -25.9471  -30.8065   21.3639 C   0  0  0  0  0  0
  -26.0239  -29.4311   20.7177 C   0  0  0  0  0  0
  -27.2151  -28.6572   20.7037 C   0  0  0  0  0  0
  -26.0474  -26.8826   19.5260 C   0  0  0  0  0  0
  -24.8694  -27.6579   19.5218 C   0  0  0  0  0  0
  -23.6261  -29.8080   20.1634 C   0  0  0  0  0  0
  -25.4113  -36.3091   24.0331 C   0  0  1  0  0  0
  -20.5873  -28.3675   23.1304 C   0  0  2  0  0  0
  -20.6767  -26.9404   22.5418 C   0  0  0  0  0  0
  -19.5747  -26.6382   21.5215 C   0  0  0  0  0  0
  -18.1925  -26.7922   22.1623 C   0  0  0  0  0  0
  -19.1528  -28.8843   23.2889 C   0  0  0  0  0  0
  -18.9455  -30.1446   23.8902 C   0  0  0  0  0  0
  -17.6457  -30.6582   24.0565 C   0  0  0  0  0  0
  -25.9048  -34.9459   23.5107 C   0  0  0  0  0  0
  -16.5347  -29.9084   23.6328 C   0  0  0  0  0  0
  -16.7265  -28.6501   23.0349 C   0  0  0  0  0  0
  -26.4485  -31.6592   25.0705 C   0  0  0  0  0  0
  -25.3736  -31.3720   26.1446 C   0  0  0  0  0  0
  -27.0324  -30.3027   24.6120 C   0  0  0  0  0  0
  -27.6044  -32.4326   25.7479 C   0  0  0  0  0  0
  -27.5579  -37.1806   24.8465 C   0  0  0  0  0  0
  -21.4166  -29.3038   22.3708 N   0  0  0  0  0  0
  -26.4291  -37.3783   23.9410 N   0  0  0  0  0  0
  -24.6792  -31.0669   22.0952 N   0  0  0  0  0  0
  -23.4187  -28.8187   23.3041 O   0  0  0  0  0  0
  -28.3989  -26.6078   20.0489 O   0  0  0  0  0  0
  -26.5614  -34.8921   22.4671 O   0  0  0  0  0  0
  -23.5390  -32.1398   23.7388 O   0  0  0  0  0  0
  -29.3225  -22.6095   22.4956 C   0  0  0  0  0  0
  -29.0163  -21.9494   21.3310 C   0  0  0  0  0  0
  -29.3818  -20.4490   22.9648 C   0  0  0  0  0  0
  -29.4772  -19.2242   23.8119 C   0  0  0  0  0  0
  -28.7080  -22.6119   19.9882 C   0  0  0  0  0  0
  -27.9393  -24.0109   19.9499 C   0  0  0  0  0  0
  -29.9738  -18.2689   20.4992 C   0  0  0  0  0  0
  -28.8270  -19.3318   20.8075 C   0  0  0  0  0  0
  -30.2191  -16.9932   21.4134 C   0  0  0  0  0  0
  -28.4938  -25.2917   20.6820 C   0  0  0  0  0  0
  -29.1095  -20.5674   21.6447 N   0  0  0  0  0  0
  -29.5355  -21.6760   23.4575 N   0  3  0  0  0  0
  -29.8442  -15.6343   20.9194 N   0  0  0  0  0  0
  -31.4754  -12.5131   19.1246 H   0  0  0  0  0  0
  -30.3793  -11.3775   19.8642 H   0  0  0  0  0  0
  -29.7584  -11.7497   17.4605 H   0  0  0  0  0  0
  -29.6455  -13.4705   17.7307 H   0  0  0  0  0  0
  -27.8548  -11.2903   18.8512 H   0  0  0  0  0  0
  -27.3675  -12.5814   17.7863 H   0  0  0  0  0  0
  -27.6761  -14.2475   19.5263 H   0  0  0  0  0  0
  -28.7043  -12.0166   21.3499 H   0  0  0  0  0  0
  -28.4467  -13.6637   21.8454 H   0  0  0  0  0  0
  -25.2757   -9.5685   22.4754 H   0  0  0  0  0  0
  -23.9999   -7.4633   22.7471 H   0  0  0  0  0  0
  -21.0836   -8.8767   19.8949 H   0  0  0  0  0  0
  -22.3688  -10.9669   19.6159 H   0  0  0  0  0  0
  -21.2006   -7.6146   23.9715 H   0  0  0  0  0  0
  -21.1475   -6.0519   25.9077 H   0  0  0  0  0  0
  -22.0603   -2.7607   23.2847 H   0  0  0  0  0  0
  -22.4098  -11.9887   22.4793 H   0  0  0  0  0  0
  -21.1101  -13.1252   22.2597 H   0  0  0  0  0  0
  -24.6603  -15.8413   20.5090 H   0  0  0  0  0  0
  -26.2715  -15.6225   20.0523 H   0  0  0  0  0  0
  -26.7150  -32.5480   23.1106 H   0  0  0  0  0  0
  -25.0060  -33.9736   25.0429 H   0  0  0  0  0  0
  -22.7049  -31.3015   21.3993 H   0  0  0  0  0  0
  -23.3744  -35.9642   23.3310 H   0  0  0  0  0  0
  -24.3577  -36.8919   22.2053 H   0  0  0  0  0  0
  -23.7244  -37.6510   23.6657 H   0  0  0  0  0  0
  -26.0651  -31.5664   20.5900 H   0  0  0  0  0  0
  -26.8325  -30.8641   21.9854 H   0  0  0  0  0  0
  -28.1201  -29.0487   21.1468 H   0  0  0  0  0  0
  -26.0367  -25.9149   19.0455 H   0  0  0  0  0  0
  -23.9755  -27.2679   19.0548 H   0  0  0  0  0  0
  -23.7433  -30.5790   19.4009 H   0  0  0  0  0  0
  -22.7472  -29.2341   19.8650 H   0  0  0  0  0  0
  -25.1290  -36.1948   25.0824 H   0  0  0  0  0  0
  -20.9961  -28.3240   24.1429 H   0  0  0  0  0  0
  -20.5678  -26.2280   23.3609 H   0  0  0  0  0  0
  -21.6636  -26.7446   22.1209 H   0  0  0  0  0  0
  -19.6913  -25.6298   21.1235 H   0  0  0  0  0  0
  -19.6686  -27.3202   20.6752 H   0  0  0  0  0  0
  -17.4199  -26.6675   21.4020 H   0  0  0  0  0  0
  -18.0314  -26.0061   22.9013 H   0  0  0  0  0  0
  -19.7933  -30.7254   24.2280 H   0  0  0  0  0  0
  -17.5015  -31.6266   24.5158 H   0  0  0  0  0  0
  -15.5350  -30.2987   23.7649 H   0  0  0  0  0  0
  -15.8665  -28.0823   22.7061 H   0  0  0  0  0  0
  -24.5902  -30.7076   25.7784 H   0  0  0  0  0  0
  -24.8935  -32.2881   26.4891 H   0  0  0  0  0  0
  -25.8072  -30.8886   27.0209 H   0  0  0  0  0  0
  -26.2879  -29.6780   24.1167 H   0  0  0  0  0  0
  -27.4073  -29.7277   25.4598 H   0  0  0  0  0  0
  -27.8722  -30.4336   23.9290 H   0  0  0  0  0  0
  -27.2652  -33.3623   26.2065 H   0  0  0  0  0  0
  -28.3852  -32.6900   25.0309 H   0  0  0  0  0  0
  -28.0716  -31.8450   26.5393 H   0  0  0  0  0  0
  -28.2598  -38.0099   24.7507 H   0  0  0  0  0  0
  -28.1067  -36.2628   24.6295 H   0  0  0  0  0  0
  -27.2292  -37.1466   25.8866 H   0  0  0  0  0  0
  -20.9337  -29.8756   21.6920 H   0  0  0  0  0  0
  -26.0174  -38.2862   24.1405 H   0  0  0  0  0  0
  -29.3971  -23.6629   22.7196 H   0  0  0  0  0  0
  -28.6352  -18.5703   23.5893 H   0  0  0  0  0  0
  -29.4271  -19.5149   24.8611 H   0  0  0  0  0  0
  -30.4350  -18.7429   23.6208 H   0  0  0  0  0  0
  -28.1387  -21.9059   19.3846 H   0  0  0  0  0  0
  -29.6590  -22.7323   19.4689 H   0  0  0  0  0  0
  -26.9148  -23.8522   20.2875 H   0  0  0  0  0  0
  -27.8483  -24.2690   18.8946 H   0  0  0  0  0  0
  -30.9124  -18.8196   20.4248 H   0  0  0  0  0  0
  -29.8079  -17.9004   19.4865 H   0  0  0  0  0  0
  -27.9663  -18.8263   21.2468 H   0  0  0  0  0  0
  -28.4666  -19.7020   19.8490 H   0  0  0  0  0  0
  -29.6724  -17.0910   22.3441 H   0  0  0  0  0  0
  -31.2717  -16.9701   21.7013 H   0  0  0  0  0  0
  -29.5629  -25.1397   20.8310 H   0  0  0  0  0  0
  -28.0671  -25.3531   21.6843 H   0  0  0  0  0  0
  -29.7564  -21.8878   24.4233 H   0  0  0  0  0  0
  -28.8823  -15.3728   21.0773 H   0  0  0  0  0  0
  1 25  1  0  0  0
  1 30  2  0  0  0
  1 83  1  0  0  0
  2  3  1  0  0  0
  2 25  1  0  0  0
  2 84  1  0  0  0
  2 85  1  0  0  0
  3  4  1  0  0  0
  3 86  1  0  0  0
  3 87  1  0  0  0
  4  5  1  0  0  0
  4 88  1  0  0  0
  4 89  1  0  0  0
  5  6  1  0  0  0
  5 26  1  0  0  0
  5 90  1  0  0  0
  6 25  1  0  0  0
  6 91  1  0  0  0
  6 92  1  0  0  0
  7  8  2  0  0  0
  7 26  1  0  0  0
  7 29  1  0  0  0
  8  9  1  0  0  0
  8 22  1  0  0  0
  9 10  1  0  0  0
  9 27  2  0  0  0
 10 11  2  0  0  0
 10 15  1  0  0  0
 11 12  1  0  0  0
 11 93  1  0  0  0
 12 13  2  0  0  0
 12 94  1  0  0  0
 13 14  1  0  0  0
 13 31  1  0  0  0
 14 15  2  0  0  0
 14 95  1  0  0  0
 15 96  1  0  0  0
 16 17  2  0  0  0
 16 21  1  0  0  0
 16 31  1  0  0  0
 17 18  1  0  0  0
 17 97  1  0  0  0
 18 19  2  0  0  0
 18 98  1  0  0  0
 19 20  1  0  0  0
 19 24  1  0  0  0
 20 21  2  0  0  0
 20 99  1  0  0  0
 21 23  1  0  0  0
 22 28  1  0  0  0
 22 32  2  0  0  0
 26 27  1  0  0  0
 28100  1  0  0  0
 28101  1  0  0  0
 29102  1  0  0  0
 29103  1  0  0  0
 33 34  1  0  0  0
 33 66  1  0  0  0
 33 70  2  0  0  0
 34 36  1  0  0  0
 34 59  1  0  0  0
 34104  1  0  0  0
 35 44  2  0  0  0
 35 45  1  0  0  0
 35 68  1  0  0  0
 36 56  1  0  0  0
 36105  1  0  0  0
 37 39  1  0  0  0
 37 47  1  0  0  0
 37 66  1  0  0  0
 37106  1  0  0  0
 38 43  2  0  0  0
 38 46  1  0  0  0
 38 47  1  0  0  0
 39 64  1  0  0  0
 39 67  2  0  0  0
 40 52  1  0  0  0
 40 53  2  0  0  0
 40 58  1  0  0  0
 41107  1  0  0  0
 41108  1  0  0  0
 41109  1  0  0  0
 41 48  1  0  0  0
 42 43  1  0  0  0
 42 66  1  0  0  0
 42110  1  0  0  0
 42111  1  0  0  0
 43 44  1  0  0  0
 44112  1  0  0  0
 45 46  2  0  0  0
 45113  1  0  0  0
 46114  1  0  0  0
 47115  1  0  0  0
 47116  1  0  0  0
 48 56  1  0  0  0
 48 65  1  0  0  0
 48117  1  0  0  0
 49 50  1  0  0  0
 49 53  1  0  0  0
 49 64  1  0  0  0
 49118  1  0  0  0
 50 51  1  0  0  0
 50119  1  0  0  0
 50120  1  0  0  0
 51 52  1  0  0  0
 51121  1  0  0  0
 51122  1  0  0  0
 52123  1  0  0  0
 52124  1  0  0  0
 53 54  1  0  0  0
 54 55  2  0  0  0
 54125  1  0  0  0
 55 57  1  0  0  0
 55126  1  0  0  0
 56 69  2  0  0  0
 57 58  2  0  0  0
 57127  1  0  0  0
 58128  1  0  0  0
 59 60  1  0  0  0
 59 61  1  0  0  0
 59 62  1  0  0  0
 60129  1  0  0  0
 60130  1  0  0  0
 60131  1  0  0  0
 61132  1  0  0  0
 61133  1  0  0  0
 61134  1  0  0  0
 62135  1  0  0  0
 62136  1  0  0  0
 62137  1  0  0  0
 63 65  1  0  0  0
 63138  1  0  0  0
 63139  1  0  0  0
 63140  1  0  0  0
 64141  1  0  0  0
 65142  1  0  0  0
 68 80  1  0  0  0
 71 72  2  0  0  0
 71 82  1  0  0  0
 71143  1  0  0  0
 72 75  1  0  0  0
 72 81  1  0  0  0
 73 74  1  0  0  0
 73 81  1  0  0  0
 73 82  2  0  0  0
 74144  1  0  0  0
 74145  1  0  0  0
 74146  1  0  0  0
 75 76  1  0  0  0
 75147  1  0  0  0
 75148  1  0  0  0
 76 80  1  0  0  0
 76149  1  0  0  0
 76150  1  0  0  0
 77 78  1  0  0  0
 77 79  1  0  0  0
 77151  1  0  0  0
 77152  1  0  0  0
 78 81  1  0  0  0
 78153  1  0  0  0
 78154  1  0  0  0
 79 83  1  0  0  0
 79155  1  0  0  0
 79156  1  0  0  0
 80157  1  0  0  0
 80158  1  0  0  0
 82159  1  0  0  0
 83160  1  0  0  0
M  CHG  1  82   1
M  ISO  4   1 100  68 101  80 101  83 100
M  END
> <chiral flag>
0

> <version>
0

> <s_m_source_file>
/data/baiqing/PycharmProjects/Reinvent-master-3.2/result/LINK_invent/BTK/process_docking_weight1_custom_sum_contain_oxygen_bond_distance_aromatic_linkinvent_7_9_3/rearranged_h_0043.sdf

> <i_m_source_file_index>
25

> <r_mmod_Potential_Energy-OPLS-2005>
-2.1756956577301

> <r_mmod_Stretch_Energy-OPLS-2005>
70.3836364746094

> <r_mmod_Bend_Energy-OPLS-2005>
163.726226806641

> <r_mmod_Torsional_Energy-OPLS-2005>
262.751525878906

> <r_mmod_Improper_Torsional_Energy-OPLS-2005>
4.74536037445068

> <r_mmod_Van_der_Waal_Energy-OPLS-2005>
116.06672668457

> <r_mmod_Electrostatic_Energy-OPLS-2005>
-217.877944946289

> <r_mmod_Solvation_Energy-OPLS-2005>
-433.518371582031

> <b_mmod_Minimization_Converged-OPLS-2005>
0

> <r_mmod_RMS_Derivative-OPLS-2005>
0.5720095038414

$$$$
25
                    3D
 Structure written by MMmdl.
157165  0  0  1  0            999 V2000
  -30.6089  -14.7446   20.4561 C   0  0  0  0  0  0
  -30.4329  -12.4520   19.4899 C   0  0  0  0  0  0
  -29.5121  -12.4944   18.2474 C   0  0  0  0  0  0
  -28.0420  -12.3108   18.6611 C   0  0  0  0  0  0
  -27.6419  -13.2255   19.8492 C   0  0  2  0  0  0
  -28.6809  -13.1736   20.9923 C   0  0  0  0  0  0
  -25.2512  -13.8173   20.5665 C   0  0  0  0  0  0
  -24.1785  -13.0434   20.9206 C   0  0  0  0  0  0
  -24.6346  -11.6907   20.8713 C   0  0  0  0  0  0
  -23.9010  -10.4287   21.0370 C   0  0  0  0  0  0
  -24.3575   -9.4217   21.9155 C   0  0  0  0  0  0
  -23.6263   -8.2250   22.0737 C   0  0  0  0  0  0
  -22.4253   -8.0256   21.3531 C   0  0  0  0  0  0
  -21.9873   -9.0215   20.4635 C   0  0  0  0  0  0
  -22.7175  -10.2114   20.3024 C   0  0  0  0  0  0
  -21.6857   -6.0706   22.5266 C   0  0  0  0  0  0
  -21.4022   -6.5619   23.8194 C   0  0  0  0  0  0
  -21.3659   -5.6784   24.9158 C   0  0  0  0  0  0
  -21.6043   -4.3041   24.7232 C   0  0  0  0  0  0
  -21.8824   -3.8123   23.4353 C   0  0  0  0  0  0
  -21.9203   -4.6935   22.3399 C   0  0  0  0  0  0
  -22.7808  -13.5230   21.1862 C   0  0  0  0  0  0
  -22.1662   -4.2110   21.0990 F   0  0  0  0  0  0
  -21.5635   -3.4530   25.7752 F   0  0  0  0  0  0
  -29.9872  -13.5161   20.4201 N   0  0  0  0  0  0
  -26.2925  -12.9358   20.3254 N   0  0  0  0  0  0
  -25.9288  -11.6504   20.5724 N   0  0  0  0  0  0
  -22.0450  -12.8218   22.0422 N   0  0  0  0  0  0
  -25.4244  -15.1885   20.4059 N   0  0  0  0  0  0
  -31.7885  -14.8413   20.1049 O   0  0  0  0  0  0
  -21.6635   -6.8837   21.4216 O   0  0  0  0  0  0
  -22.3495  -14.5536   20.6705 O   0  0  0  0  0  0
  -24.6321  -31.8573   23.1990 C   0  0  0  0  0  0
  -25.9163  -32.4752   23.8332 C   0  0  1  0  0  0
  -27.2074  -27.2623   20.1394 C   0  0  0  0  0  0
  -25.5948  -33.8554   24.2248 N   0  0  0  0  0  0
  -23.4281  -30.4814   21.5412 C   0  0  2  0  0  0
  -24.8761  -28.9338   20.1063 C   0  0  0  0  0  0
  -22.7503  -29.4620   22.4883 C   0  0  0  0  0  0
  -18.0277  -28.1389   22.8480 C   0  0  0  0  0  0
  -24.1499  -36.7291   23.2636 C   0  0  0  0  0  0
  -25.9757  -30.7692   21.3832 C   0  0  0  0  0  0
  -26.0448  -29.3929   20.7257 C   0  0  0  0  0  0
  -27.2181  -28.5702   20.7319 C   0  0  0  0  0  0
  -26.0260  -26.8859   19.4667 C   0  0  0  0  0  0
  -24.8724  -27.6895   19.4610 C   0  0  0  0  0  0
  -23.6467  -29.8192   20.1556 C   0  0  0  0  0  0
  -25.4122  -36.3060   24.0315 C   0  0  1  0  0  0
  -20.5890  -28.3718   23.1238 C   0  0  2  0  0  0
  -20.6774  -26.9437   22.5390 C   0  0  0  0  0  0
  -19.5756  -26.6383   21.5201 C   0  0  0  0  0  0
  -18.1931  -26.7928   22.1612 C   0  0  0  0  0  0
  -19.1532  -28.8862   23.2864 C   0  0  0  0  0  0
  -18.9475  -30.1453   23.8903 C   0  0  0  0  0  0
  -17.6482  -30.6595   24.0555 C   0  0  0  0  0  0
  -25.9055  -34.9437   23.5073 C   0  0  0  0  0  0
  -16.5363  -29.9099   23.6323 C   0  0  0  0  0  0
  -16.7272  -28.6506   23.0360 C   0  0  0  0  0  0
  -26.4529  -31.6584   25.0730 C   0  0  0  0  0  0
  -25.3751  -31.3755   26.1445 C   0  0  0  0  0  0
  -27.0390  -30.2984   24.6261 C   0  0  0  0  0  0
  -27.6055  -32.4356   25.7517 C   0  0  0  0  0  0
  -27.5577  -37.1799   24.8460 C   0  0  0  0  0  0
  -21.4211  -29.3079   22.3631 N   0  0  0  0  0  0
  -26.4291  -37.3763   23.9391 N   0  0  0  0  0  0
  -24.6968  -31.0546   22.0963 N   0  0  0  0  0  0
  -23.4199  -28.8171   23.2999 O   0  0  0  0  0  0
  -28.2702  -26.3316   20.2002 O   0  0  0  0  0  0
  -26.5635  -34.8915   22.4653 O   0  0  0  0  0  0
  -23.5465  -32.1384   23.7292 O   0  0  0  0  0  0
  -28.9209  -19.7030   19.8747 C   0  0  0  0  0  0
  -29.5985  -18.6361   20.4895 C   0  0  0  0  0  0
  -29.5213  -20.4548   21.8510 C   0  0  0  0  0  0
  -29.7169  -21.2989   23.0694 C   0  0  0  0  0  0
  -26.8331  -21.9415   19.7232 C   0  0  0  0  0  0
  -30.0882  -17.2303   19.9660 C   0  0  0  0  0  0
  -28.7739  -23.5826   20.2791 C   0  0  0  0  0  0
  -27.9268  -24.9249   20.6275 C   0  0  0  0  0  0
  -28.0729  -22.1540   20.6136 C   0  0  2  0  0  0
  -28.8602  -20.8141   20.7320 N   0  0  0  0  0  0
  -29.9459  -19.1773   21.7074 N   0  3  0  0  0  0
  -29.8387  -15.8823   20.6361 N   0  0  0  0  0  0
  -31.4740  -12.5799   19.1838 H   0  0  0  0  0  0
  -30.3842  -11.4765   19.9784 H   0  0  0  0  0  0
  -29.8008  -11.7135   17.5417 H   0  0  0  0  0  0
  -29.6343  -13.4418   17.7220 H   0  0  0  0  0  0
  -27.9174  -11.2659   18.9459 H   0  0  0  0  0  0
  -27.3788  -12.4710   17.8099 H   0  0  0  0  0  0
  -27.6300  -14.2408   19.4524 H   0  0  0  0  0  0
  -28.7102  -12.1826   21.4455 H   0  0  0  0  0  0
  -28.4080  -13.8670   21.7894 H   0  0  0  0  0  0
  -25.2708   -9.5725   22.4725 H   0  0  0  0  0  0
  -23.9979   -7.4653   22.7469 H   0  0  0  0  0  0
  -21.0791   -8.8696   19.8947 H   0  0  0  0  0  0
  -22.3572  -10.9635   19.6138 H   0  0  0  0  0  0
  -21.1994   -7.6121   23.9681 H   0  0  0  0  0  0
  -21.1482   -6.0517   25.9067 H   0  0  0  0  0  0
  -22.0601   -2.7581   23.2870 H   0  0  0  0  0  0
  -22.4090  -11.9914   22.4845 H   0  0  0  0  0  0
  -21.1055  -13.1229   22.2578 H   0  0  0  0  0  0
  -24.6566  -15.8444   20.4981 H   0  0  0  0  0  0
  -26.2647  -15.6166   20.0399 H   0  0  0  0  0  0
  -26.7244  -32.5403   23.1085 H   0  0  0  0  0  0
  -25.0086  -33.9684   25.0382 H   0  0  0  0  0  0
  -22.7258  -31.3061   21.3965 H   0  0  0  0  0  0
  -23.3750  -35.9631   23.3286 H   0  0  0  0  0  0
  -24.3576  -36.8933   22.2048 H   0  0  0  0  0  0
  -23.7267  -37.6490   23.6681 H   0  0  0  0  0  0
  -26.1190  -31.5330   20.6176 H   0  0  0  0  0  0
  -26.8501  -30.8121   22.0205 H   0  0  0  0  0  0
  -28.1101  -28.9141   21.2343 H   0  0  0  0  0  0
  -25.9719  -25.9422   18.9440 H   0  0  0  0  0  0
  -23.9845  -27.3402   18.9520 H   0  0  0  0  0  0
  -23.7709  -30.5977   19.4025 H   0  0  0  0  0  0
  -22.7665  -29.2517   19.8478 H   0  0  0  0  0  0
  -25.1307  -36.1888   25.0804 H   0  0  0  0  0  0
  -20.9986  -28.3326   24.1363 H   0  0  0  0  0  0
  -20.5651  -26.2365   23.3606 H   0  0  0  0  0  0
  -21.6645  -26.7454   22.1211 H   0  0  0  0  0  0
  -19.6923  -25.6292   21.1247 H   0  0  0  0  0  0
  -19.6674  -27.3180   20.6718 H   0  0  0  0  0  0
  -17.4190  -26.6656   21.4017 H   0  0  0  0  0  0
  -18.0356  -26.0068   22.9016 H   0  0  0  0  0  0
  -19.7952  -30.7251   24.2298 H   0  0  0  0  0  0
  -17.5035  -31.6279   24.5166 H   0  0  0  0  0  0
  -15.5360  -30.3012   23.7641 H   0  0  0  0  0  0
  -15.8663  -28.0810   22.7108 H   0  0  0  0  0  0
  -24.5896  -30.7138   25.7783 H   0  0  0  0  0  0
  -24.8977  -32.2933   26.4880 H   0  0  0  0  0  0
  -25.8042  -30.8913   27.0218 H   0  0  0  0  0  0
  -26.2984  -29.6708   24.1275 H   0  0  0  0  0  0
  -27.4046  -29.7268   25.4808 H   0  0  0  0  0  0
  -27.8883  -30.4247   23.9535 H   0  0  0  0  0  0
  -27.2615  -33.3636   26.2100 H   0  0  0  0  0  0
  -28.3853  -32.6959   25.0352 H   0  0  0  0  0  0
  -28.0751  -31.8500   26.5427 H   0  0  0  0  0  0
  -28.2589  -38.0099   24.7476 H   0  0  0  0  0  0
  -28.1068  -36.2614   24.6315 H   0  0  0  0  0  0
  -27.2281  -37.1497   25.8863 H   0  0  0  0  0  0
  -20.9401  -29.8816   21.6840 H   0  0  0  0  0  0
  -26.0161  -38.2832   24.1380 H   0  0  0  0  0  0
  -28.4667  -19.7366   18.8935 H   0  0  0  0  0  0
  -30.5152  -20.8677   23.6712 H   0  0  0  0  0  0
  -28.7849  -21.3191   23.6338 H   0  0  0  0  0  0
  -29.9923  -22.3069   22.7622 H   0  0  0  0  0  0
  -26.0646  -22.6861   19.9305 H   0  0  0  0  0  0
  -26.3709  -20.9701   19.9059 H   0  0  0  0  0  0
  -27.0787  -22.0053   18.6625 H   0  0  0  0  0  0
  -31.1623  -17.3277   19.8050 H   0  0  0  0  0  0
  -29.6791  -17.1267   18.9605 H   0  0  0  0  0  0
  -29.7282  -23.6376   20.8011 H   0  0  0  0  0  0
  -29.0255  -23.5981   19.2178 H   0  0  0  0  0  0
  -26.9024  -24.6954   20.3528 H   0  0  0  0  0  0
  -27.8808  -24.9768   21.7146 H   0  0  0  0  0  0
  -27.6658  -22.2862   21.6176 H   0  0  0  0  0  0
  -30.4770  -18.6800   22.4156 H   0  0  0  0  0  0
  -28.9006  -15.7312   20.9720 H   0  0  0  0  0  0
  1 25  1  0  0  0
  1 30  2  0  0  0
  1 82  1  0  0  0
  2  3  1  0  0  0
  2 25  1  0  0  0
  2 83  1  0  0  0
  2 84  1  0  0  0
  3  4  1  0  0  0
  3 85  1  0  0  0
  3 86  1  0  0  0
  4  5  1  0  0  0
  4 87  1  0  0  0
  4 88  1  0  0  0
  5  6  1  0  0  0
  5 26  1  0  0  0
  5 89  1  0  0  0
  6 25  1  0  0  0
  6 90  1  0  0  0
  6 91  1  0  0  0
  7  8  2  0  0  0
  7 26  1  0  0  0
  7 29  1  0  0  0
  8  9  1  0  0  0
  8 22  1  0  0  0
  9 10  1  0  0  0
  9 27  2  0  0  0
 10 11  2  0  0  0
 10 15  1  0  0  0
 11 12  1  0  0  0
 11 92  1  0  0  0
 12 13  2  0  0  0
 12 93  1  0  0  0
 13 14  1  0  0  0
 13 31  1  0  0  0
 14 15  2  0  0  0
 14 94  1  0  0  0
 15 95  1  0  0  0
 16 17  2  0  0  0
 16 21  1  0  0  0
 16 31  1  0  0  0
 17 18  1  0  0  0
 17 96  1  0  0  0
 18 19  2  0  0  0
 18 97  1  0  0  0
 19 20  1  0  0  0
 19 24  1  0  0  0
 20 21  2  0  0  0
 20 98  1  0  0  0
 21 23  1  0  0  0
 22 28  1  0  0  0
 22 32  2  0  0  0
 26 27  1  0  0  0
 28 99  1  0  0  0
 28100  1  0  0  0
 29101  1  0  0  0
 29102  1  0  0  0
 33 34  1  0  0  0
 33 66  1  0  0  0
 33 70  2  0  0  0
 34 36  1  0  0  0
 34 59  1  0  0  0
 34103  1  0  0  0
 35 44  2  0  0  0
 35 45  1  0  0  0
 35 68  1  0  0  0
 36 56  1  0  0  0
 36104  1  0  0  0
 37 39  1  0  0  0
 37 47  1  0  0  0
 37 66  1  0  0  0
 37105  1  0  0  0
 38 43  2  0  0  0
 38 46  1  0  0  0
 38 47  1  0  0  0
 39 64  1  0  0  0
 39 67  2  0  0  0
 40 52  1  0  0  0
 40 53  2  0  0  0
 40 58  1  0  0  0
 41106  1  0  0  0
 41107  1  0  0  0
 41108  1  0  0  0
 41 48  1  0  0  0
 42 43  1  0  0  0
 42 66  1  0  0  0
 42109  1  0  0  0
 42110  1  0  0  0
 43 44  1  0  0  0
 44111  1  0  0  0
 45 46  2  0  0  0
 45112  1  0  0  0
 46113  1  0  0  0
 47114  1  0  0  0
 47115  1  0  0  0
 48 56  1  0  0  0
 48 65  1  0  0  0
 48116  1  0  0  0
 49 50  1  0  0  0
 49 53  1  0  0  0
 49 64  1  0  0  0
 49117  1  0  0  0
 50 51  1  0  0  0
 50118  1  0  0  0
 50119  1  0  0  0
 51 52  1  0  0  0
 51120  1  0  0  0
 51121  1  0  0  0
 52122  1  0  0  0
 52123  1  0  0  0
 53 54  1  0  0  0
 54 55  2  0  0  0
 54124  1  0  0  0
 55 57  1  0  0  0
 55125  1  0  0  0
 56 69  2  0  0  0
 57 58  2  0  0  0
 57126  1  0  0  0
 58127  1  0  0  0
 59 60  1  0  0  0
 59 61  1  0  0  0
 59 62  1  0  0  0
 60128  1  0  0  0
 60129  1  0  0  0
 60130  1  0  0  0
 61131  1  0  0  0
 61132  1  0  0  0
 61133  1  0  0  0
 62134  1  0  0  0
 62135  1  0  0  0
 62136  1  0  0  0
 63 65  1  0  0  0
 63137  1  0  0  0
 63138  1  0  0  0
 63139  1  0  0  0
 64140  1  0  0  0
 65141  1  0  0  0
 68 78  1  0  0  0
 71 72  2  0  0  0
 71 80  1  0  0  0
 71142  1  0  0  0
 72 76  1  0  0  0
 72 81  1  0  0  0
 73 74  1  0  0  0
 73 80  1  0  0  0
 73 81  2  0  0  0
 74143  1  0  0  0
 74144  1  0  0  0
 74145  1  0  0  0
 75146  1  0  0  0
 75147  1  0  0  0
 75148  1  0  0  0
 75 79  1  0  0  0
 76 82  1  0  0  0
 76149  1  0  0  0
 76150  1  0  0  0
 77 78  1  0  0  0
 77 79  1  0  0  0
 77151  1  0  0  0
 77152  1  0  0  0
 78153  1  0  0  0
 78154  1  0  0  0
 79 80  1  0  0  0
 79155  1  0  0  0
 81156  1  0  0  0
 82157  1  0  0  0
M  CHG  1  81   1
M  ISO  4   1 100  68 101  78 101  82 100
M  END
> <chiral flag>
0

> <version>
0

> <s_m_source_file>
/data/baiqing/PycharmProjects/Reinvent-master-3.2/result/LINK_invent/BTK/process_docking_weight1_custom_sum_contain_oxygen_bond_distance_aromatic_linkinvent_7_9_3/rearranged_h_0043.sdf

> <i_m_source_file_index>
26

> <r_mmod_Potential_Energy-OPLS-2005>
53.1511917114258

> <r_mmod_Stretch_Energy-OPLS-2005>
119.834655761719

> <r_mmod_Bend_Energy-OPLS-2005>
172.167663574219

> <r_mmod_Torsional_Energy-OPLS-2005>
262.545562744141

> <r_mmod_Improper_Torsional_Energy-OPLS-2005>
8.58280658721924

> <r_mmod_Van_der_Waal_Energy-OPLS-2005>
121.828651428223

> <r_mmod_Electrostatic_Energy-OPLS-2005>
-293.938812255859

> <r_mmod_Solvation_Energy-OPLS-2005>
-428.153961181641

> <b_mmod_Minimization_Converged-OPLS-2005>
0

> <r_mmod_RMS_Derivative-OPLS-2005>
3.64780282974243

$$$$
26
                    3D
 Structure written by MMmdl.
171179  0  0  1  0            999 V2000
  -30.7661  -14.3639   20.6973 C   0  0  0  0  0  0
  -30.4157  -12.2938   19.3953 C   0  0  0  0  0  0
  -29.4856  -12.5287   18.1909 C   0  0  0  0  0  0
  -28.0112  -12.3708   18.6094 C   0  0  0  0  0  0
  -27.6636  -13.1996   19.8741 C   0  0  2  0  0  0
  -28.6977  -12.9487   20.9918 C   0  0  0  0  0  0
  -25.2581  -13.8136   20.5659 C   0  0  0  0  0  0
  -24.1830  -13.0420   20.9163 C   0  0  0  0  0  0
  -24.6381  -11.6888   20.8716 C   0  0  0  0  0  0
  -23.9052  -10.4280   21.0402 C   0  0  0  0  0  0
  -24.3602   -9.4200   21.9188 C   0  0  0  0  0  0
  -23.6274   -8.2238   22.0763 C   0  0  0  0  0  0
  -22.4258   -8.0276   21.3549 C   0  0  0  0  0  0
  -21.9888   -9.0252   20.4656 C   0  0  0  0  0  0
  -22.7219  -10.2127   20.3062 C   0  0  0  0  0  0
  -21.6838   -6.0734   22.5296 C   0  0  0  0  0  0
  -21.4018   -6.5646   23.8232 C   0  0  0  0  0  0
  -21.3660   -5.6798   24.9195 C   0  0  0  0  0  0
  -21.6039   -4.3059   24.7232 C   0  0  0  0  0  0
  -21.8807   -3.8149   23.4354 C   0  0  0  0  0  0
  -21.9185   -4.6964   22.3411 C   0  0  0  0  0  0
  -22.7857  -13.5237   21.1840 C   0  0  0  0  0  0
  -22.1647   -4.2153   21.0983 F   0  0  0  0  0  0
  -21.5628   -3.4547   25.7742 F   0  0  0  0  0  0
  -30.0422  -13.2392   20.4579 N   0  0  0  0  0  0
  -26.3016  -12.9297   20.3328 N   0  0  0  0  0  0
  -25.9291  -11.6460   20.5702 N   0  0  0  0  0  0
  -22.0474  -12.8261   22.0406 N   0  0  0  0  0  0
  -25.4321  -15.1854   20.4106 N   0  0  0  0  0  0
  -31.7843  -14.6652   20.0686 O   0  0  0  0  0  0
  -21.6626   -6.8872   21.4251 O   0  0  0  0  0  0
  -22.3563  -14.5554   20.6694 O   0  0  0  0  0  0
  -24.6114  -31.8689   23.2117 C   0  0  0  0  0  0
  -25.9021  -32.4830   23.8406 C   0  0  1  0  0  0
  -27.2367  -27.4644   20.0953 C   0  0  0  0  0  0
  -25.5883  -33.8625   24.2340 N   0  0  0  0  0  0
  -23.3991  -30.4907   21.5505 C   0  0  2  0  0  0
  -24.8481  -28.9563   20.1172 C   0  0  0  0  0  0
  -22.7399  -29.4654   22.5002 C   0  0  0  0  0  0
  -18.0267  -28.1371   22.8497 C   0  0  0  0  0  0
  -24.1482  -36.7324   23.2641 C   0  0  0  0  0  0
  -25.9239  -30.8436   21.3605 C   0  0  0  0  0  0
  -26.0045  -29.4784   20.7125 C   0  0  0  0  0  0
  -27.2052  -28.7372   20.7007 C   0  0  0  0  0  0
  -26.0708  -26.9441   19.5016 C   0  0  0  0  0  0
  -24.8738  -27.6859   19.5124 C   0  0  0  0  0  0
  -23.6079  -29.8197   20.1658 C   0  0  0  0  0  0
  -25.4100  -36.3120   24.0342 C   0  0  1  0  0  0
  -20.5857  -28.3647   23.1331 C   0  0  2  0  0  0
  -20.6755  -26.9388   22.5420 C   0  0  0  0  0  0
  -19.5735  -26.6383   21.5215 C   0  0  0  0  0  0
  -18.1912  -26.7918   22.1624 C   0  0  0  0  0  0
  -19.1514  -28.8826   23.2911 C   0  0  0  0  0  0
  -18.9448  -30.1436   23.8918 C   0  0  0  0  0  0
  -17.6450  -30.6577   24.0566 C   0  0  0  0  0  0
  -25.9026  -34.9482   23.5138 C   0  0  0  0  0  0
  -16.5342  -29.9082   23.6325 C   0  0  0  0  0  0
  -16.7258  -28.6498   23.0350 C   0  0  0  0  0  0
  -26.4465  -31.6598   25.0719 C   0  0  0  0  0  0
  -25.3749  -31.3701   26.1487 C   0  0  0  0  0  0
  -27.0291  -30.3043   24.6071 C   0  0  0  0  0  0
  -27.6056  -32.4306   25.7465 C   0  0  0  0  0  0
  -27.5579  -37.1814   24.8464 C   0  0  0  0  0  0
  -21.4128  -29.3019   22.3745 N   0  0  0  0  0  0
  -26.4294  -37.3796   23.9408 N   0  0  0  0  0  0
  -24.6628  -31.0816   22.0998 N   0  0  0  0  0  0
  -23.4183  -28.8198   23.3038 O   0  0  0  0  0  0
  -28.3950  -26.7338   20.0661 O   0  0  0  0  0  0
  -26.5591  -34.8930   22.4704 O   0  0  0  0  0  0
  -23.5317  -32.1427   23.7529 O   0  0  0  0  0  0
  -32.3104  -20.8860   24.4506 C   0  0  0  0  0  0
  -32.4977  -22.1442   25.0721 C   0  0  0  0  0  0
  -31.3962  -21.1151   23.4556 C   0  0  0  0  0  0
  -34.6565  -23.2167   25.8111 C   0  0  0  0  0  0
  -29.7600  -25.4488   23.9243 C   0  0  0  0  0  0
  -33.3763  -22.4886   26.2424 C   0  0  0  0  0  0
  -30.7893  -20.1363   22.4888 C   0  0  0  0  0  0
  -31.2349  -18.6845   22.7688 C   0  0  0  0  0  0
  -30.5499  -17.5894   21.9328 C   0  0  0  0  0  0
  -30.0037  -25.5410   21.3758 C   0  0  0  0  0  0
  -30.1973  -23.2479   22.6198 C   0  0  0  0  0  0
  -31.0543  -16.1991   22.3660 C   0  0  0  0  0  0
  -28.5065  -25.7967   21.1341 C   0  0  0  0  0  0
  -30.3955  -24.7942   22.6759 C   0  0  2  0  0  0
  -31.7736  -23.0815   24.4924 N   0  0  0  0  0  0
  -31.1014  -22.4733   23.4841 N   0  0  0  0  0  0
  -30.3348  -15.0990   21.7303 N   0  0  0  0  0  0
  -31.4611  -12.3900   19.0952 H   0  0  0  0  0  0
  -30.3048  -11.2713   19.7581 H   0  0  0  0  0  0
  -29.7258  -11.8295   17.3880 H   0  0  0  0  0  0
  -29.6515  -13.5289   17.7879 H   0  0  0  0  0  0
  -27.8363  -11.3125   18.8037 H   0  0  0  0  0  0
  -27.3524  -12.6464   17.7854 H   0  0  0  0  0  0
  -27.7200  -14.2514   19.5946 H   0  0  0  0  0  0
  -28.6581  -11.9078   21.3164 H   0  0  0  0  0  0
  -28.4348  -13.5311   21.8749 H   0  0  0  0  0  0
  -25.2740   -9.5678   22.4775 H   0  0  0  0  0  0
  -23.9986   -7.4622   22.7475 H   0  0  0  0  0  0
  -21.0824   -8.8771   19.8954 H   0  0  0  0  0  0
  -22.3682  -10.9671   19.6184 H   0  0  0  0  0  0
  -21.2029   -7.6156   23.9736 H   0  0  0  0  0  0
  -21.1492   -6.0533   25.9099 H   0  0  0  0  0  0
  -22.0582   -2.7607   23.2857 H   0  0  0  0  0  0
  -22.4048  -11.9941   22.4861 H   0  0  0  0  0  0
  -21.1099  -13.1335   22.2564 H   0  0  0  0  0  0
  -24.6693  -15.8438   20.5272 H   0  0  0  0  0  0
  -26.2941  -15.6255   20.1120 H   0  0  0  0  0  0
  -26.7095  -32.5559   23.1183 H   0  0  0  0  0  0
  -25.0032  -33.9787   25.0483 H   0  0  0  0  0  0
  -22.6860  -31.3058   21.4104 H   0  0  0  0  0  0
  -23.3736  -35.9668   23.3320 H   0  0  0  0  0  0
  -24.3582  -36.8922   22.2054 H   0  0  0  0  0  0
  -23.7246  -37.6539   23.6642 H   0  0  0  0  0  0
  -26.0309  -31.6081   20.5898 H   0  0  0  0  0  0
  -26.8140  -30.9009   21.9754 H   0  0  0  0  0  0
  -28.1017  -29.1357   21.1558 H   0  0  0  0  0  0
  -26.0946  -25.9694   19.0340 H   0  0  0  0  0  0
  -23.9843  -27.2753   19.0539 H   0  0  0  0  0  0
  -23.7152  -30.5929   19.4042 H   0  0  0  0  0  0
  -22.7333  -29.2362   19.8711 H   0  0  0  0  0  0
  -25.1275  -36.1994   25.0835 H   0  0  0  0  0  0
  -20.9945  -28.3210   24.1453 H   0  0  0  0  0  0
  -20.5652  -26.2255   23.3603 H   0  0  0  0  0  0
  -21.6630  -26.7429   22.1218 H   0  0  0  0  0  0
  -19.6894  -25.6302   21.1224 H   0  0  0  0  0  0
  -19.6676  -27.3213   20.6762 H   0  0  0  0  0  0
  -17.4183  -26.6677   21.4024 H   0  0  0  0  0  0
  -18.0307  -26.0054   22.9011 H   0  0  0  0  0  0
  -19.7924  -30.7248   24.2297 H   0  0  0  0  0  0
  -17.5005  -31.6260   24.5161 H   0  0  0  0  0  0
  -15.5342  -30.2990   23.7636 H   0  0  0  0  0  0
  -15.8658  -28.0823   22.7055 H   0  0  0  0  0  0
  -24.5908  -30.7057   25.7837 H   0  0  0  0  0  0
  -24.8959  -32.2857   26.4965 H   0  0  0  0  0  0
  -25.8119  -30.8853   27.0226 H   0  0  0  0  0  0
  -26.2820  -29.6804   24.1150 H   0  0  0  0  0  0
  -27.4102  -29.7277   25.4510 H   0  0  0  0  0  0
  -27.8637  -30.4372   23.9184 H   0  0  0  0  0  0
  -27.2689  -33.3588   26.2092 H   0  0  0  0  0  0
  -28.3835  -32.6892   25.0268 H   0  0  0  0  0  0
  -28.0762  -31.8403   26.5339 H   0  0  0  0  0  0
  -28.2612  -38.0097   24.7501 H   0  0  0  0  0  0
  -28.1060  -36.2633   24.6294 H   0  0  0  0  0  0
  -27.2304  -37.1474   25.8869 H   0  0  0  0  0  0
  -20.9286  -29.8754   21.6983 H   0  0  0  0  0  0
  -26.0189  -38.2878   24.1404 H   0  0  0  0  0  0
  -32.7744  -19.9460   24.7124 H   0  0  0  0  0  0
  -35.2759  -23.4598   26.6743 H   0  0  0  0  0  0
  -34.4277  -24.1494   25.2937 H   0  0  0  0  0  0
  -35.2541  -22.6007   25.1387 H   0  0  0  0  0  0
  -29.8756  -26.5331   23.9041 H   0  0  0  0  0  0
  -30.2195  -25.1011   24.8490 H   0  0  0  0  0  0
  -28.6959  -25.2251   23.9994 H   0  0  0  0  0  0
  -33.6438  -21.5798   26.7816 H   0  0  0  0  0  0
  -32.8263  -23.1050   26.9544 H   0  0  0  0  0  0
  -31.0587  -20.4123   21.4692 H   0  0  0  0  0  0
  -29.7027  -20.2049   22.5501 H   0  0  0  0  0  0
  -31.0430  -18.4661   23.8201 H   0  0  0  0  0  0
  -32.3159  -18.6127   22.6379 H   0  0  0  0  0  0
  -30.7449  -17.7465   20.8707 H   0  0  0  0  0  0
  -29.4699  -17.6501   22.0699 H   0  0  0  0  0  0
  -30.4987  -26.5131   21.3985 H   0  0  0  0  0  0
  -30.4261  -25.0279   20.5112 H   0  0  0  0  0  0
  -30.3571  -22.8968   21.6000 H   0  0  0  0  0  0
  -29.1689  -22.9842   22.8708 H   0  0  0  0  0  0
  -30.9239  -16.0865   23.4419 H   0  0  0  0  0  0
  -32.1285  -16.1119   22.1898 H   0  0  0  0  0  0
  -28.0366  -26.2008   22.0316 H   0  0  0  0  0  0
  -27.9873  -24.8707   20.8833 H   0  0  0  0  0  0
  -31.4715  -24.9606   22.7446 H   0  0  0  0  0  0
  -29.5000  -14.7691   22.1914 H   0  0  0  0  0  0
  1 25  1  0  0  0
  1 30  2  0  0  0
  1 87  1  0  0  0
  2  3  1  0  0  0
  2 25  1  0  0  0
  2 88  1  0  0  0
  2 89  1  0  0  0
  3  4  1  0  0  0
  3 90  1  0  0  0
  3 91  1  0  0  0
  4  5  1  0  0  0
  4 92  1  0  0  0
  4 93  1  0  0  0
  5  6  1  0  0  0
  5 26  1  0  0  0
  5 94  1  0  0  0
  6 25  1  0  0  0
  6 95  1  0  0  0
  6 96  1  0  0  0
  7  8  2  0  0  0
  7 26  1  0  0  0
  7 29  1  0  0  0
  8  9  1  0  0  0
  8 22  1  0  0  0
  9 10  1  0  0  0
  9 27  2  0  0  0
 10 11  2  0  0  0
 10 15  1  0  0  0
 11 12  1  0  0  0
 11 97  1  0  0  0
 12 13  2  0  0  0
 12 98  1  0  0  0
 13 14  1  0  0  0
 13 31  1  0  0  0
 14 15  2  0  0  0
 14 99  1  0  0  0
 15100  1  0  0  0
 16 17  2  0  0  0
 16 21  1  0  0  0
 16 31  1  0  0  0
 17 18  1  0  0  0
 17101  1  0  0  0
 18 19  2  0  0  0
 18102  1  0  0  0
 19 20  1  0  0  0
 19 24  1  0  0  0
 20 21  2  0  0  0
 20103  1  0  0  0
 21 23  1  0  0  0
 22 28  1  0  0  0
 22 32  2  0  0  0
 26 27  1  0  0  0
 28104  1  0  0  0
 28105  1  0  0  0
 29106  1  0  0  0
 29107  1  0  0  0
 33 34  1  0  0  0
 33 66  1  0  0  0
 33 70  2  0  0  0
 34 36  1  0  0  0
 34 59  1  0  0  0
 34108  1  0  0  0
 35 44  2  0  0  0
 35 45  1  0  0  0
 35 68  1  0  0  0
 36 56  1  0  0  0
 36109  1  0  0  0
 37 39  1  0  0  0
 37 47  1  0  0  0
 37 66  1  0  0  0
 37110  1  0  0  0
 38 43  2  0  0  0
 38 46  1  0  0  0
 38 47  1  0  0  0
 39 64  1  0  0  0
 39 67  2  0  0  0
 40 52  1  0  0  0
 40 53  2  0  0  0
 40 58  1  0  0  0
 41111  1  0  0  0
 41112  1  0  0  0
 41113  1  0  0  0
 41 48  1  0  0  0
 42 43  1  0  0  0
 42 66  1  0  0  0
 42114  1  0  0  0
 42115  1  0  0  0
 43 44  1  0  0  0
 44116  1  0  0  0
 45 46  2  0  0  0
 45117  1  0  0  0
 46118  1  0  0  0
 47119  1  0  0  0
 47120  1  0  0  0
 48 56  1  0  0  0
 48 65  1  0  0  0
 48121  1  0  0  0
 49 50  1  0  0  0
 49 53  1  0  0  0
 49 64  1  0  0  0
 49122  1  0  0  0
 50 51  1  0  0  0
 50123  1  0  0  0
 50124  1  0  0  0
 51 52  1  0  0  0
 51125  1  0  0  0
 51126  1  0  0  0
 52127  1  0  0  0
 52128  1  0  0  0
 53 54  1  0  0  0
 54 55  2  0  0  0
 54129  1  0  0  0
 55 57  1  0  0  0
 55130  1  0  0  0
 56 69  2  0  0  0
 57 58  2  0  0  0
 57131  1  0  0  0
 58132  1  0  0  0
 59 60  1  0  0  0
 59 61  1  0  0  0
 59 62  1  0  0  0
 60133  1  0  0  0
 60134  1  0  0  0
 60135  1  0  0  0
 61136  1  0  0  0
 61137  1  0  0  0
 61138  1  0  0  0
 62139  1  0  0  0
 62140  1  0  0  0
 62141  1  0  0  0
 63 65  1  0  0  0
 63142  1  0  0  0
 63143  1  0  0  0
 63144  1  0  0  0
 64145  1  0  0  0
 65146  1  0  0  0
 68 83  1  0  0  0
 71 72  1  0  0  0
 71 73  2  0  0  0
 71147  1  0  0  0
 72 76  1  0  0  0
 72 85  2  0  0  0
 73 77  1  0  0  0
 73 86  1  0  0  0
 74 76  1  0  0  0
 74148  1  0  0  0
 74149  1  0  0  0
 74150  1  0  0  0
 75151  1  0  0  0
 75152  1  0  0  0
 75153  1  0  0  0
 75 84  1  0  0  0
 76154  1  0  0  0
 76155  1  0  0  0
 77 78  1  0  0  0
 77156  1  0  0  0
 77157  1  0  0  0
 78 79  1  0  0  0
 78158  1  0  0  0
 78159  1  0  0  0
 79 82  1  0  0  0
 79160  1  0  0  0
 79161  1  0  0  0
 80 83  1  0  0  0
 80 84  1  0  0  0
 80162  1  0  0  0
 80163  1  0  0  0
 81 84  1  0  0  0
 81 86  1  0  0  0
 81164  1  0  0  0
 81165  1  0  0  0
 82 87  1  0  0  0
 82166  1  0  0  0
 82167  1  0  0  0
 83168  1  0  0  0
 83169  1  0  0  0
 84170  1  0  0  0
 85 86  1  0  0  0
 87171  1  0  0  0
M  ISO  4   1 100  68 101  83 101  87 100
M  END
> <chiral flag>
0

> <version>
0

> <s_m_source_file>
/data/baiqing/PycharmProjects/Reinvent-master-3.2/result/LINK_invent/BTK/process_docking_weight1_custom_sum_contain_oxygen_bond_distance_aromatic_linkinvent_7_9_3/rearranged_h_0043.sdf

> <i_m_source_file_index>
27

> <r_mmod_Potential_Energy-OPLS-2005>
-107.033966064453

> <r_mmod_Stretch_Energy-OPLS-2005>
33.1282539367676

> <r_mmod_Bend_Energy-OPLS-2005>
95.7775268554688

> <r_mmod_Torsional_Energy-OPLS-2005>
229.742904663086

> <r_mmod_Improper_Torsional_Energy-OPLS-2005>
2.14655685424805

> <r_mmod_Van_der_Waal_Energy-OPLS-2005>
131.999435424805

> <r_mmod_Electrostatic_Energy-OPLS-2005>
-395.542755126953

> <r_mmod_Solvation_Energy-OPLS-2005>
-211.001022338867

> <b_mmod_Minimization_Converged-OPLS-2005>
0

> <r_mmod_RMS_Derivative-OPLS-2005>
1.9704293012619

$$$$
27
                    3D
 Structure written by MMmdl.
172180  0  0  1  0            999 V2000
  -30.4468  -15.0030   20.7830 C   0  0  0  0  0  0
  -30.4502  -12.7091   19.5681 C   0  0  0  0  0  0
  -29.5436  -12.6021   18.3120 C   0  0  0  0  0  0
  -28.0785  -12.3342   18.7006 C   0  0  0  0  0  0
  -27.6261  -13.2444   19.8690 C   0  0  2  0  0  0
  -28.6292  -13.2325   21.0388 C   0  0  0  0  0  0
  -25.2393  -13.8178   20.5673 C   0  0  0  0  0  0
  -24.1715  -13.0405   20.9178 C   0  0  0  0  0  0
  -24.6337  -11.6893   20.8721 C   0  0  0  0  0  0
  -23.9034  -10.4272   21.0388 C   0  0  0  0  0  0
  -24.3605   -9.4199   21.9165 C   0  0  0  0  0  0
  -23.6288   -8.2232   22.0743 C   0  0  0  0  0  0
  -22.4266   -8.0267   21.3542 C   0  0  0  0  0  0
  -21.9894   -9.0224   20.4635 C   0  0  0  0  0  0
  -22.7208  -10.2107   20.3039 C   0  0  0  0  0  0
  -21.6856   -6.0724   22.5273 C   0  0  0  0  0  0
  -21.4016   -6.5633   23.8204 C   0  0  0  0  0  0
  -21.3658   -5.6789   24.9170 C   0  0  0  0  0  0
  -21.6045   -4.3050   24.7225 C   0  0  0  0  0  0
  -21.8823   -3.8138   23.4349 C   0  0  0  0  0  0
  -21.9193   -4.6951   22.3402 C   0  0  0  0  0  0
  -22.7756  -13.5193   21.1856 C   0  0  0  0  0  0
  -22.1659   -4.2144   21.0979 F   0  0  0  0  0  0
  -21.5633   -3.4533   25.7737 F   0  0  0  0  0  0
  -29.8969  -13.7396   20.5154 N   0  0  0  0  0  0
  -26.2799  -12.9390   20.3243 N   0  0  0  0  0  0
  -25.9262  -11.6523   20.5709 N   0  0  0  0  0  0
  -22.0433  -12.8179   22.0434 N   0  0  0  0  0  0
  -25.4090  -15.1908   20.4121 N   0  0  0  0  0  0
  -31.6277  -15.1500   20.4295 O   0  0  0  0  0  0
  -21.6636   -6.8864   21.4236 O   0  0  0  0  0  0
  -22.3442  -14.5504   20.6709 O   0  0  0  0  0  0
  -24.6419  -31.7721   23.1622 C   0  0  0  0  0  0
  -25.9947  -32.2227   23.8118 C   0  0  1  0  0  0
  -27.2811  -27.7957   20.0726 C   0  0  0  0  0  0
  -25.6759  -33.6652   24.2085 N   0  0  0  0  0  0
  -23.3238  -30.4609   21.5126 C   0  0  2  0  0  0
  -24.7474  -28.9628   20.0052 C   0  0  0  0  0  0
  -22.6599  -29.4959   22.5151 C   0  0  0  0  0  0
  -18.0156  -28.1295   22.8501 C   0  0  0  0  0  0
  -24.1625  -36.6232   23.2816 C   0  0  0  0  0  0
  -25.7087  -31.0707   20.9992 C   0  0  0  0  0  0
  -25.8634  -29.7164   20.3336 C   0  0  0  0  0  0
  -27.0967  -29.1629   20.1010 C   0  0  0  0  0  0
  -26.1736  -26.9912   19.7031 C   0  0  0  0  0  0
  -24.8967  -27.6127   19.5921 C   0  0  0  0  0  0
  -23.4544  -29.7204   20.1434 C   0  0  0  0  0  0
  -25.4282  -36.1833   24.0431 C   0  0  1  0  0  0
  -20.5606  -28.3531   23.1366 C   0  0  2  0  0  0
  -20.6570  -26.9276   22.5473 C   0  0  0  0  0  0
  -19.5648  -26.6322   21.5154 C   0  0  0  0  0  0
  -18.1825  -26.7873   22.1566 C   0  0  0  0  0  0
  -19.1368  -28.8716   23.2976 C   0  0  0  0  0  0
  -18.9400  -30.1337   23.8969 C   0  0  0  0  0  0
  -17.6433  -30.6537   24.0567 C   0  0  0  0  0  0
  -25.9391  -34.8061   23.5153 C   0  0  0  0  0  0
  -16.5311  -29.9069   23.6282 C   0  0  0  0  0  0
  -16.7175  -28.6456   23.0337 C   0  0  0  0  0  0
  -26.5729  -31.1542   25.0190 C   0  0  0  0  0  0
  -25.3230  -31.0085   25.9981 C   0  0  0  0  0  0
  -28.7686  -28.3545   24.4917 C   0  0  0  0  0  0
  -27.2886  -32.3736   25.8957 C   0  0  0  0  0  0
  -27.5549  -37.1395   24.8530 C   0  0  0  0  0  0
  -21.3518  -29.2927   22.3572 N   0  0  0  0  0  0
  -26.4223  -37.2818   23.9441 N   0  0  0  0  0  0
  -24.5987  -31.0999   21.9779 N   0  0  0  0  0  0
  -23.3003  -28.9065   23.3837 O   0  0  0  0  0  0
  -28.4953  -27.3949   20.5698 O   0  0  0  0  0  0
  -26.5788  -34.7915   22.4619 O   0  0  0  0  0  0
  -23.5915  -32.0717   23.7527 O   0  0  0  0  0  0
  -27.9580  -29.7137   26.0935 C   0  0  0  0  0  0
  -26.7710  -28.7831   25.4433 C   0  0  0  0  0  0
  -27.9366  -30.1466   23.4229 C   0  0  0  0  0  0
  -26.0487  -28.2285   23.0137 C   0  0  0  0  0  0
  -26.5323  -27.1385   25.7772 C   0  0  0  0  0  0
  -28.8392  -29.9087   22.1350 C   0  0  0  0  0  0
  -28.5803  -20.1835   23.1931 C   0  0  0  0  0  0
  -29.1640  -19.0351   22.0146 C   0  0  0  0  0  0
  -28.6042  -21.9287   23.2554 C   0  0  0  0  0  0
  -29.7924  -17.4235   22.2206 C   0  0  0  0  0  0
  -26.6335  -25.6452   24.8264 C   0  0  0  0  0  0
  -27.5553  -23.0343   24.1001 C   0  0  0  0  0  0
  -29.2521  -28.4317   21.4123 C   0  0  0  0  0  0
  -26.7380  -29.1726   23.8626 N   0  0  0  0  0  0
  -28.7130  -30.5524   24.7842 N   0  3  0  0  0  0
  -29.6327  -16.0741   21.3325 N   0  0  0  0  0  0
  -27.8137  -24.5928   24.4879 N   0  3  0  0  0  0
  -31.4639  -12.9692   19.2598 H   0  0  0  0  0  0
  -30.5301  -11.7421   20.0668 H   0  0  0  0  0  0
  -29.9097  -11.8224   17.6426 H   0  0  0  0  0  0
  -29.6007  -13.5363   17.7516 H   0  0  0  0  0  0
  -27.9959  -11.2888   18.9993 H   0  0  0  0  0  0
  -27.4242  -12.4599   17.8371 H   0  0  0  0  0  0
  -27.6029  -14.2571   19.4656 H   0  0  0  0  0  0
  -28.7476  -12.2292   21.4477 H   0  0  0  0  0  0
  -28.2682  -13.8503   21.8633 H   0  0  0  0  0  0
  -25.2750   -9.5696   22.4735 H   0  0  0  0  0  0
  -24.0000   -7.4633   22.7472 H   0  0  0  0  0  0
  -21.0822   -8.8727   19.8954 H   0  0  0  0  0  0
  -22.3639  -10.9640   19.6154 H   0  0  0  0  0  0
  -21.2002   -7.6142   23.9708 H   0  0  0  0  0  0
  -21.1482   -6.0519   25.9076 H   0  0  0  0  0  0
  -22.0604   -2.7602   23.2843 H   0  0  0  0  0  0
  -22.4081  -11.9847   22.4815 H   0  0  0  0  0  0
  -21.1055  -13.1198   22.2672 H   0  0  0  0  0  0
  -24.6383  -15.8410   20.5221 H   0  0  0  0  0  0
  -26.2497  -15.6291   20.0573 H   0  0  0  0  0  0
  -26.7802  -32.3564   23.0796 H   0  0  0  0  0  0
  -25.0981  -33.7661   25.0314 H   0  0  0  0  0  0
  -22.6203  -31.2814   21.3592 H   0  0  0  0  0  0
  -23.3877  -35.8571   23.3342 H   0  0  0  0  0  0
  -24.3671  -36.8049   22.2254 H   0  0  0  0  0  0
  -23.7418  -37.5361   23.7027 H   0  0  0  0  0  0
  -25.4417  -31.7711   20.2054 H   0  0  0  0  0  0
  -26.6636  -31.4317   21.3353 H   0  0  0  0  0  0
  -27.9287  -29.8189   19.9485 H   0  0  0  0  0  0
  -26.2776  -25.9202   19.5991 H   0  0  0  0  0  0
  -24.0350  -27.0189   19.3231 H   0  0  0  0  0  0
  -23.4134  -30.4516   19.3365 H   0  0  0  0  0  0
  -22.6226  -29.0392   19.9577 H   0  0  0  0  0  0
  -25.1518  -36.0598   25.0927 H   0  0  0  0  0  0
  -20.9729  -28.3150   24.1475 H   0  0  0  0  0  0
  -20.5283  -26.2151   23.3640 H   0  0  0  0  0  0
  -21.6503  -26.7285   22.1432 H   0  0  0  0  0  0
  -19.6758  -25.6220   21.1203 H   0  0  0  0  0  0
  -19.6636  -27.3111   20.6665 H   0  0  0  0  0  0
  -17.4075  -26.6651   21.3977 H   0  0  0  0  0  0
  -18.0256  -25.9997   22.8953 H   0  0  0  0  0  0
  -19.7935  -30.7076   24.2336 H   0  0  0  0  0  0
  -17.5049  -31.6215   24.5182 H   0  0  0  0  0  0
  -15.5318  -30.2991   23.7533 H   0  0  0  0  0  0
  -15.8599  -28.0739   22.7039 H   0  0  0  0  0  0
  -25.6101  -30.6884   26.9996 H   0  0  0  0  0  0
  -24.7520  -31.9281   26.1298 H   0  0  0  0  0  0
  -24.6099  -30.2697   25.6264 H   0  0  0  0  0  0
  -28.4626  -27.5483   23.8219 H   0  0  0  0  0  0
  -29.0622  -27.7704   25.3774 H   0  0  0  0  0  0
  -29.7925  -28.5782   24.1592 H   0  0  0  0  0  0
  -26.5999  -33.0894   26.3453 H   0  0  0  0  0  0
  -28.0021  -32.9608   25.3099 H   0  0  0  0  0  0
  -27.8354  -32.0482   26.7806 H   0  0  0  0  0  0
  -28.2375  -37.9817   24.7339 H   0  0  0  0  0  0
  -28.1221  -36.2277   24.6605 H   0  0  0  0  0  0
  -27.2258  -37.1283   25.8932 H   0  0  0  0  0  0
  -20.8625  -29.8072   21.6381 H   0  0  0  0  0  0
  -25.9830  -38.1806   24.1228 H   0  0  0  0  0  0
  -28.4079  -29.6932   27.0755 H   0  0  0  0  0  0
  -25.3634  -27.6410   23.6122 H   0  0  0  0  0  0
  -26.7447  -27.5749   22.5034 H   0  0  0  0  0  0
  -25.3963  -28.7388   22.3676 H   0  0  0  0  0  0
  -25.5054  -27.1194   26.1425 H   0  0  0  0  0  0
  -27.1128  -26.9424   26.6777 H   0  0  0  0  0  0
  -29.8106  -30.2343   22.5099 H   0  0  0  0  0  0
  -28.6685  -30.7456   21.4691 H   0  0  0  0  0  0
  -29.0136  -19.8672   24.1423 H   0  0  0  0  0  0
  -27.5271  -19.9231   23.3108 H   0  0  0  0  0  0
  -29.9526  -19.5621   21.4746 H   0  0  0  0  0  0
  -28.3719  -18.9584   21.2698 H   0  0  0  0  0  0
  -28.5902  -22.2660   22.2182 H   0  0  0  0  0  0
  -29.6101  -22.1811   23.5943 H   0  0  0  0  0  0
  -29.4082  -17.1119   23.1946 H   0  0  0  0  0  0
  -30.8630  -17.5258   22.4025 H   0  0  0  0  0  0
  -26.0627  -25.7234   23.9057 H   0  0  0  0  0  0
  -25.9940  -24.9908   25.4183 H   0  0  0  0  0  0
  -27.2957  -22.5567   25.0445 H   0  0  0  0  0  0
  -26.6177  -23.0350   23.5422 H   0  0  0  0  0  0
  -29.8166  -27.8337   22.1201 H   0  0  0  0  0  0
  -30.0357  -28.7224   20.7101 H   0  0  0  0  0  0
  -29.6054  -31.0275   24.8453 H   0  0  0  0  0  0
  -28.6705  -15.7669   21.3479 H   0  0  0  0  0  0
  -28.4190  -24.5734   25.2931 H   0  0  0  0  0  0
  -28.3558  -24.9950   23.7417 H   0  0  0  0  0  0
  1 25  1  0  0  0
  1 30  2  0  0  0
  1 86  1  0  0  0
  2  3  1  0  0  0
  2 25  1  0  0  0
  2 88  1  0  0  0
  2 89  1  0  0  0
  3  4  1  0  0  0
  3 90  1  0  0  0
  3 91  1  0  0  0
  4  5  1  0  0  0
  4 92  1  0  0  0
  4 93  1  0  0  0
  5  6  1  0  0  0
  5 26  1  0  0  0
  5 94  1  0  0  0
  6 25  1  0  0  0
  6 95  1  0  0  0
  6 96  1  0  0  0
  7  8  2  0  0  0
  7 26  1  0  0  0
  7 29  1  0  0  0
  8  9  1  0  0  0
  8 22  1  0  0  0
  9 10  1  0  0  0
  9 27  2  0  0  0
 10 11  2  0  0  0
 10 15  1  0  0  0
 11 12  1  0  0  0
 11 97  1  0  0  0
 12 13  2  0  0  0
 12 98  1  0  0  0
 13 14  1  0  0  0
 13 31  1  0  0  0
 14 15  2  0  0  0
 14 99  1  0  0  0
 15100  1  0  0  0
 16 17  2  0  0  0
 16 21  1  0  0  0
 16 31  1  0  0  0
 17 18  1  0  0  0
 17101  1  0  0  0
 18 19  2  0  0  0
 18102  1  0  0  0
 19 20  1  0  0  0
 19 24  1  0  0  0
 20 21  2  0  0  0
 20103  1  0  0  0
 21 23  1  0  0  0
 22 28  1  0  0  0
 22 32  2  0  0  0
 26 27  1  0  0  0
 28104  1  0  0  0
 28105  1  0  0  0
 29106  1  0  0  0
 29107  1  0  0  0
 33 34  1  0  0  0
 33 66  1  0  0  0
 33 70  2  0  0  0
 34 36  1  0  0  0
 34 59  1  0  0  0
 34108  1  0  0  0
 35 44  2  0  0  0
 35 45  1  0  0  0
 35 68  1  0  0  0
 36 56  1  0  0  0
 36109  1  0  0  0
 37 39  1  0  0  0
 37 47  1  0  0  0
 37 66  1  0  0  0
 37110  1  0  0  0
 38 43  2  0  0  0
 38 46  1  0  0  0
 38 47  1  0  0  0
 39 64  1  0  0  0
 39 67  2  0  0  0
 40 52  1  0  0  0
 40 53  2  0  0  0
 40 58  1  0  0  0
 41111  1  0  0  0
 41112  1  0  0  0
 41113  1  0  0  0
 41 48  1  0  0  0
 42 43  1  0  0  0
 42 66  1  0  0  0
 42114  1  0  0  0
 42115  1  0  0  0
 43 44  1  0  0  0
 44116  1  0  0  0
 45 46  2  0  0  0
 45117  1  0  0  0
 46118  1  0  0  0
 47119  1  0  0  0
 47120  1  0  0  0
 48 56  1  0  0  0
 48 65  1  0  0  0
 48121  1  0  0  0
 49 50  1  0  0  0
 49 53  1  0  0  0
 49 64  1  0  0  0
 49122  1  0  0  0
 50 51  1  0  0  0
 50123  1  0  0  0
 50124  1  0  0  0
 51 52  1  0  0  0
 51125  1  0  0  0
 51126  1  0  0  0
 52127  1  0  0  0
 52128  1  0  0  0
 53 54  1  0  0  0
 54 55  2  0  0  0
 54129  1  0  0  0
 55 57  1  0  0  0
 55130  1  0  0  0
 56 69  2  0  0  0
 57 58  2  0  0  0
 57131  1  0  0  0
 58132  1  0  0  0
 59 60  1  0  0  0
 59 61  1  0  0  0
 59 62  1  0  0  0
 60133  1  0  0  0
 60134  1  0  0  0
 60135  1  0  0  0
 61136  1  0  0  0
 61137  1  0  0  0
 61138  1  0  0  0
 62139  1  0  0  0
 62140  1  0  0  0
 62141  1  0  0  0
 63 65  1  0  0  0
 63142  1  0  0  0
 63143  1  0  0  0
 63144  1  0  0  0
 64145  1  0  0  0
 65146  1  0  0  0
 68 83  1  0  0  0
 71 72  2  0  0  0
 71 85  1  0  0  0
 71147  1  0  0  0
 72 75  1  0  0  0
 72 84  1  0  0  0
 73 76  1  0  0  0
 73 84  1  0  0  0
 73 85  2  0  0  0
 74 84  1  0  0  0
 74148  1  0  0  0
 74149  1  0  0  0
 74150  1  0  0  0
 75 81  1  0  0  0
 75151  1  0  0  0
 75152  1  0  0  0
 76 83  1  0  0  0
 76153  1  0  0  0
 76154  1  0  0  0
 77 78  1  0  0  0
 77 79  1  0  0  0
 77155  1  0  0  0
 77156  1  0  0  0
 78 80  1  0  0  0
 78157  1  0  0  0
 78158  1  0  0  0
 79 82  1  0  0  0
 79159  1  0  0  0
 79160  1  0  0  0
 80 86  1  0  0  0
 80161  1  0  0  0
 80162  1  0  0  0
 81 87  1  0  0  0
 81163  1  0  0  0
 81164  1  0  0  0
 82 87  1  0  0  0
 82165  1  0  0  0
 82166  1  0  0  0
 83167  1  0  0  0
 83168  1  0  0  0
 85169  1  0  0  0
 86170  1  0  0  0
 87171  1  0  0  0
 87172  1  0  0  0
M  CHG  2  85   1  87   1
M  ISO  4   1 100  68 101  83 101  86 100
M  END
> <chiral flag>
0

> <version>
0

> <s_m_source_file>
/data/baiqing/PycharmProjects/Reinvent-master-3.2/result/LINK_invent/BTK/process_docking_weight1_custom_sum_contain_oxygen_bond_distance_aromatic_linkinvent_7_9_3/rearranged_h_0043.sdf

> <i_m_source_file_index>
28

> <r_mmod_Potential_Energy-OPLS-2005>
10095.0615234375

> <r_mmod_Stretch_Energy-OPLS-2005>
6311.0537109375

> <r_mmod_Bend_Energy-OPLS-2005>
710.053527832031

> <r_mmod_Torsional_Energy-OPLS-2005>
440.801239013672

> <r_mmod_Improper_Torsional_Energy-OPLS-2005>
38.295093536377

> <r_mmod_Van_der_Waal_Energy-OPLS-2005>
2338.24584960938

> <r_mmod_Electrostatic_Energy-OPLS-2005>
26.9367599487305

> <r_mmod_Solvation_Energy-OPLS-2005>
-881.007263183594

> <b_mmod_Minimization_Converged-OPLS-2005>
0

> <r_mmod_RMS_Derivative-OPLS-2005>
4.44237518310547

$$$$
28
                    3D
 Structure written by MMmdl.
165173  0  0  1  0            999 V2000
  -30.6895  -14.5333   20.5264 C   0  0  0  0  0  0
  -30.4207  -12.3270   19.4595 C   0  0  0  0  0  0
  -29.5050  -12.5106   18.2308 C   0  0  0  0  0  0
  -28.0242  -12.3653   18.6336 C   0  0  0  0  0  0
  -27.6586  -13.2170   19.8787 C   0  0  2  0  0  0
  -28.6997  -13.0463   21.0108 C   0  0  0  0  0  0
  -25.2553  -13.8184   20.5674 C   0  0  0  0  0  0
  -24.1806  -13.0472   20.9170 C   0  0  0  0  0  0
  -24.6367  -11.6929   20.8748 C   0  0  0  0  0  0
  -23.9033  -10.4323   21.0421 C   0  0  0  0  0  0
  -24.3595   -9.4236   21.9186 C   0  0  0  0  0  0
  -23.6281   -8.2263   22.0747 C   0  0  0  0  0  0
  -22.4276   -8.0302   21.3543 C   0  0  0  0  0  0
  -21.9910   -9.0260   20.4633 C   0  0  0  0  0  0
  -22.7225  -10.2145   20.3054 C   0  0  0  0  0  0
  -21.6862   -6.0743   22.5274 C   0  0  0  0  0  0
  -21.4005   -6.5626   23.8205 C   0  0  0  0  0  0
  -21.3652   -5.6783   24.9171 C   0  0  0  0  0  0
  -21.6065   -4.3044   24.7217 C   0  0  0  0  0  0
  -21.8825   -3.8145   23.4344 C   0  0  0  0  0  0
  -21.9185   -4.6965   22.3402 C   0  0  0  0  0  0
  -22.7828  -13.5271   21.1811 C   0  0  0  0  0  0
  -22.1666   -4.2155   21.0991 F   0  0  0  0  0  0
  -21.5649   -3.4530   25.7734 F   0  0  0  0  0  0
  -30.0328  -13.3391   20.4589 N   0  0  0  0  0  0
  -26.2999  -12.9360   20.3392 N   0  0  0  0  0  0
  -25.9303  -11.6510   20.5771 N   0  0  0  0  0  0
  -22.0433  -12.8299   22.0358 N   0  0  0  0  0  0
  -25.4285  -15.1900   20.4057 N   0  0  0  0  0  0
  -31.8272  -14.6837   20.0749 O   0  0  0  0  0  0
  -21.6648   -6.8895   21.4242 O   0  0  0  0  0  0
  -22.3531  -14.5586   20.6660 O   0  0  0  0  0  0
  -24.6128  -31.8677   23.2090 C   0  0  0  0  0  0
  -25.9023  -32.4821   23.8383 C   0  0  1  0  0  0
  -27.2400  -27.4267   20.1116 C   0  0  0  0  0  0
  -25.5894  -33.8620   24.2327 N   0  0  0  0  0  0
  -23.4029  -30.4885   21.5503 C   0  0  2  0  0  0
  -24.8533  -28.9512   20.1145 C   0  0  0  0  0  0
  -22.7406  -29.4646   22.4991 C   0  0  0  0  0  0
  -18.0272  -28.1372   22.8480 C   0  0  0  0  0  0
  -24.1497  -36.7326   23.2639 C   0  0  0  0  0  0
  -25.9302  -30.8311   21.3623 C   0  0  0  0  0  0
  -26.0116  -29.4642   20.7123 C   0  0  0  0  0  0
  -27.2098  -28.7122   20.7014 C   0  0  0  0  0  0
  -26.0687  -26.9310   19.5001 C   0  0  0  0  0  0
  -24.8782  -27.6856   19.5011 C   0  0  0  0  0  0
  -23.6127  -29.8171   20.1656 C   0  0  0  0  0  0
  -25.4120  -36.3113   24.0335 C   0  0  1  0  0  0
  -20.5859  -28.3663   23.1333 C   0  0  2  0  0  0
  -20.6771  -26.9402   22.5420 C   0  0  0  0  0  0
  -19.5762  -26.6379   21.5208 C   0  0  0  0  0  0
  -18.1927  -26.7920   22.1602 C   0  0  0  0  0  0
  -19.1514  -28.8826   23.2905 C   0  0  0  0  0  0
  -18.9446  -30.1429   23.8924 C   0  0  0  0  0  0
  -17.6451  -30.6578   24.0563 C   0  0  0  0  0  0
  -25.9037  -34.9477   23.5135 C   0  0  0  0  0  0
  -16.5346  -29.9091   23.6300 C   0  0  0  0  0  0
  -16.7258  -28.6505   23.0322 C   0  0  0  0  0  0
  -26.4474  -31.6586   25.0695 C   0  0  0  0  0  0
  -25.3752  -31.3676   26.1451 C   0  0  0  0  0  0
  -27.0308  -30.3038   24.6032 C   0  0  0  0  0  0
  -27.6060  -32.4298   25.7453 C   0  0  0  0  0  0
  -27.5603  -37.1813   24.8457 C   0  0  0  0  0  0
  -21.4130  -29.3048   22.3747 N   0  0  0  0  0  0
  -26.4314  -37.3793   23.9403 N   0  0  0  0  0  0
  -24.6672  -31.0760   22.0995 N   0  0  0  0  0  0
  -23.4178  -28.8175   23.3024 O   0  0  0  0  0  0
  -28.4063  -26.6881   20.1011 O   0  0  0  0  0  0
  -26.5582  -34.8933   22.4685 O   0  0  0  0  0  0
  -23.5327  -32.1426   23.7495 O   0  0  0  0  0  0
  -30.8628  -21.3184   17.7184 C   0  0  0  0  0  0
  -29.8647  -21.8805   19.5305 C   0  0  0  0  0  0
  -29.7878  -20.4811   19.4423 C   0  0  0  0  0  0
  -31.8506  -18.4569   17.2731 C   0  0  0  0  0  0
  -29.6673  -19.0381   16.0922 C   0  0  0  0  0  0
  -29.2926  -22.9076   20.5021 C   0  0  0  0  0  0
  -29.1093  -19.4588   20.3651 C   0  0  0  0  0  0
  -29.0441  -24.3096   19.8397 C   0  0  0  0  0  0
  -29.8899  -18.2345   20.9973 C   0  0  0  0  0  0
  -29.9873  -16.9106   20.1649 C   0  0  0  0  0  0
  -28.3534  -25.3834   20.7146 C   0  0  0  0  0  0
  -30.3963  -18.9236   17.4429 C   0  0  0  0  0  0
  -30.6333  -22.3696   18.4782 N   0  0  0  0  0  0
  -30.3445  -20.1768   18.1837 N   0  0  0  0  0  0
  -29.9442  -15.6074   20.8809 N   0  0  0  0  0  0
  -31.4703  -12.4074   19.1689 H   0  0  0  0  0  0
  -30.3057  -11.3252   19.8781 H   0  0  0  0  0  0
  -29.7558  -11.7823   17.4599 H   0  0  0  0  0  0
  -29.6734  -13.4935   17.7881 H   0  0  0  0  0  0
  -27.8424  -11.3099   18.8380 H   0  0  0  0  0  0
  -27.3762  -12.6294   17.7959 H   0  0  0  0  0  0
  -27.6860  -14.2583   19.5587 H   0  0  0  0  0  0
  -28.6762  -12.0293   21.4039 H   0  0  0  0  0  0
  -28.4575  -13.6909   21.8566 H   0  0  0  0  0  0
  -25.2746   -9.5721   22.4744 H   0  0  0  0  0  0
  -23.9999   -7.4676   22.7473 H   0  0  0  0  0  0
  -21.0840   -8.8769   19.8944 H   0  0  0  0  0  0
  -22.3686  -10.9670   19.6154 H   0  0  0  0  0  0
  -21.1988   -7.6130   23.9709 H   0  0  0  0  0  0
  -21.1468   -6.0511   25.9071 H   0  0  0  0  0  0
  -22.0601   -2.7598   23.2834 H   0  0  0  0  0  0
  -22.4024  -11.9975   22.4798 H   0  0  0  0  0  0
  -21.1034  -13.1331   22.2503 H   0  0  0  0  0  0
  -24.6607  -15.8477   20.4956 H   0  0  0  0  0  0
  -26.2821  -15.6210   20.0740 H   0  0  0  0  0  0
  -26.7093  -32.5540   23.1152 H   0  0  0  0  0  0
  -25.0086  -33.9791   25.0499 H   0  0  0  0  0  0
  -22.6893  -31.3024   21.4084 H   0  0  0  0  0  0
  -23.3765  -35.9651   23.3286 H   0  0  0  0  0  0
  -24.3595  -36.8955   22.2057 H   0  0  0  0  0  0
  -23.7249  -37.6532   23.6660 H   0  0  0  0  0  0
  -26.0380  -31.5945   20.5909 H   0  0  0  0  0  0
  -26.8196  -30.8905   21.9772 H   0  0  0  0  0  0
  -28.1063  -29.1068   21.1604 H   0  0  0  0  0  0
  -26.0765  -25.9644   19.0167 H   0  0  0  0  0  0
  -23.9911  -27.2889   19.0274 H   0  0  0  0  0  0
  -23.7183  -30.5910   19.4037 H   0  0  0  0  0  0
  -22.7371  -29.2346   19.8714 H   0  0  0  0  0  0
  -25.1298  -36.1998   25.0828 H   0  0  0  0  0  0
  -20.9934  -28.3228   24.1465 H   0  0  0  0  0  0
  -20.5688  -26.2263   23.3601 H   0  0  0  0  0  0
  -21.6644  -26.7468   22.1209 H   0  0  0  0  0  0
  -19.6938  -25.6291   21.1238 H   0  0  0  0  0  0
  -19.6721  -27.3188   20.6740 H   0  0  0  0  0  0
  -17.4208  -26.6661   21.3992 H   0  0  0  0  0  0
  -18.0325  -26.0052   22.8990 H   0  0  0  0  0  0
  -19.7927  -30.7217   24.2318 H   0  0  0  0  0  0
  -17.5021  -31.6266   24.5162 H   0  0  0  0  0  0
  -15.5353  -30.3017   23.7611 H   0  0  0  0  0  0
  -15.8652  -28.0854   22.7016 H   0  0  0  0  0  0
  -24.5889  -30.7076   25.7773 H   0  0  0  0  0  0
  -24.8992  -32.2830   26.4976 H   0  0  0  0  0  0
  -25.8099  -30.8769   27.0166 H   0  0  0  0  0  0
  -26.2817  -29.6775   24.1168 H   0  0  0  0  0  0
  -27.4211  -29.7296   25.4449 H   0  0  0  0  0  0
  -27.8595  -30.4393   23.9074 H   0  0  0  0  0  0
  -27.2686  -33.3589   26.2071 H   0  0  0  0  0  0
  -28.3845  -32.6875   25.0253 H   0  0  0  0  0  0
  -28.0752  -31.8389   26.5337 H   0  0  0  0  0  0
  -28.2605  -38.0129   24.7531 H   0  0  0  0  0  0
  -28.1116  -36.2663   24.6247 H   0  0  0  0  0  0
  -27.2311  -37.1410   25.8855 H   0  0  0  0  0  0
  -20.9260  -29.8827   21.7036 H   0  0  0  0  0  0
  -26.0214  -38.2880   24.1392 H   0  0  0  0  0  0
  -31.3854  -21.3854   16.7735 H   0  0  0  0  0  0
  -31.9057  -17.4946   16.7639 H   0  0  0  0  0  0
  -32.3399  -18.3535   18.2413 H   0  0  0  0  0  0
  -32.4355  -19.1691   16.6896 H   0  0  0  0  0  0
  -29.7152  -18.0963   15.5453 H   0  0  0  0  0  0
  -30.0909  -19.8130   15.4527 H   0  0  0  0  0  0
  -28.6118  -19.2710   16.2380 H   0  0  0  0  0  0
  -29.9626  -23.0303   21.3548 H   0  0  0  0  0  0
  -28.3519  -22.5428   20.9140 H   0  0  0  0  0  0
  -28.2022  -19.0926   19.8848 H   0  0  0  0  0  0
  -28.7455  -20.0295   21.2218 H   0  0  0  0  0  0
  -28.4550  -24.1797   18.9321 H   0  0  0  0  0  0
  -30.0036  -24.7176   19.5188 H   0  0  0  0  0  0
  -29.3420  -17.9772   21.9042 H   0  0  0  0  0  0
  -30.8738  -18.5459   21.3505 H   0  0  0  0  0  0
  -30.8801  -16.9655   19.5401 H   0  0  0  0  0  0
  -29.1286  -16.8582   19.4950 H   0  0  0  0  0  0
  -28.8799  -25.4630   21.6661 H   0  0  0  0  0  0
  -27.3354  -25.0722   20.9528 H   0  0  0  0  0  0
  -29.8465  -18.1789   17.9958 H   0  0  0  0  0  0
  -29.0636  -15.3818   21.3205 H   0  0  0  0  0  0
  1 25  1  0  0  0
  1 30  2  0  0  0
  1 85  1  0  0  0
  2  3  1  0  0  0
  2 25  1  0  0  0
  2 86  1  0  0  0
  2 87  1  0  0  0
  3  4  1  0  0  0
  3 88  1  0  0  0
  3 89  1  0  0  0
  4  5  1  0  0  0
  4 90  1  0  0  0
  4 91  1  0  0  0
  5  6  1  0  0  0
  5 26  1  0  0  0
  5 92  1  0  0  0
  6 25  1  0  0  0
  6 93  1  0  0  0
  6 94  1  0  0  0
  7  8  2  0  0  0
  7 26  1  0  0  0
  7 29  1  0  0  0
  8  9  1  0  0  0
  8 22  1  0  0  0
  9 10  1  0  0  0
  9 27  2  0  0  0
 10 11  2  0  0  0
 10 15  1  0  0  0
 11 12  1  0  0  0
 11 95  1  0  0  0
 12 13  2  0  0  0
 12 96  1  0  0  0
 13 14  1  0  0  0
 13 31  1  0  0  0
 14 15  2  0  0  0
 14 97  1  0  0  0
 15 98  1  0  0  0
 16 17  2  0  0  0
 16 21  1  0  0  0
 16 31  1  0  0  0
 17 18  1  0  0  0
 17 99  1  0  0  0
 18 19  2  0  0  0
 18100  1  0  0  0
 19 20  1  0  0  0
 19 24  1  0  0  0
 20 21  2  0  0  0
 20101  1  0  0  0
 21 23  1  0  0  0
 22 28  1  0  0  0
 22 32  2  0  0  0
 26 27  1  0  0  0
 28102  1  0  0  0
 28103  1  0  0  0
 29104  1  0  0  0
 29105  1  0  0  0
 33 34  1  0  0  0
 33 66  1  0  0  0
 33 70  2  0  0  0
 34 36  1  0  0  0
 34 59  1  0  0  0
 34106  1  0  0  0
 35 44  2  0  0  0
 35 45  1  0  0  0
 35 68  1  0  0  0
 36 56  1  0  0  0
 36107  1  0  0  0
 37 39  1  0  0  0
 37 47  1  0  0  0
 37 66  1  0  0  0
 37108  1  0  0  0
 38 43  2  0  0  0
 38 46  1  0  0  0
 38 47  1  0  0  0
 39 64  1  0  0  0
 39 67  2  0  0  0
 40 52  1  0  0  0
 40 53  2  0  0  0
 40 58  1  0  0  0
 41109  1  0  0  0
 41110  1  0  0  0
 41111  1  0  0  0
 41 48  1  0  0  0
 42 43  1  0  0  0
 42 66  1  0  0  0
 42112  1  0  0  0
 42113  1  0  0  0
 43 44  1  0  0  0
 44114  1  0  0  0
 45 46  2  0  0  0
 45115  1  0  0  0
 46116  1  0  0  0
 47117  1  0  0  0
 47118  1  0  0  0
 48 56  1  0  0  0
 48 65  1  0  0  0
 48119  1  0  0  0
 49 50  1  0  0  0
 49 53  1  0  0  0
 49 64  1  0  0  0
 49120  1  0  0  0
 50 51  1  0  0  0
 50121  1  0  0  0
 50122  1  0  0  0
 51 52  1  0  0  0
 51123  1  0  0  0
 51124  1  0  0  0
 52125  1  0  0  0
 52126  1  0  0  0
 53 54  1  0  0  0
 54 55  2  0  0  0
 54127  1  0  0  0
 55 57  1  0  0  0
 55128  1  0  0  0
 56 69  2  0  0  0
 57 58  2  0  0  0
 57129  1  0  0  0
 58130  1  0  0  0
 59 60  1  0  0  0
 59 61  1  0  0  0
 59 62  1  0  0  0
 60131  1  0  0  0
 60132  1  0  0  0
 60133  1  0  0  0
 61134  1  0  0  0
 61135  1  0  0  0
 61136  1  0  0  0
 62137  1  0  0  0
 62138  1  0  0  0
 62139  1  0  0  0
 63 65  1  0  0  0
 63140  1  0  0  0
 63141  1  0  0  0
 63142  1  0  0  0
 64143  1  0  0  0
 65144  1  0  0  0
 68 81  1  0  0  0
 71 83  2  0  0  0
 71 84  1  0  0  0
 71145  1  0  0  0
 72 73  2  0  0  0
 72 76  1  0  0  0
 72 83  1  0  0  0
 73 77  1  0  0  0
 73 84  1  0  0  0
 74146  1  0  0  0
 74147  1  0  0  0
 74148  1  0  0  0
 74 82  1  0  0  0
 75 82  1  0  0  0
 75149  1  0  0  0
 75150  1  0  0  0
 75151  1  0  0  0
 76 78  1  0  0  0
 76152  1  0  0  0
 76153  1  0  0  0
 77 79  1  0  0  0
 77154  1  0  0  0
 77155  1  0  0  0
 78 81  1  0  0  0
 78156  1  0  0  0
 78157  1  0  0  0
 79 80  1  0  0  0
 79158  1  0  0  0
 79159  1  0  0  0
 80 85  1  0  0  0
 80160  1  0  0  0
 80161  1  0  0  0
 81162  1  0  0  0
 81163  1  0  0  0
 82 84  1  0  0  0
 82164  1  0  0  0
 85165  1  0  0  0
M  ISO  4   1 100  68 101  81 101  85 100
M  END
> <chiral flag>
0

> <version>
0

> <s_m_source_file>
/data/baiqing/PycharmProjects/Reinvent-master-3.2/result/LINK_invent/BTK/process_docking_weight1_custom_sum_contain_oxygen_bond_distance_aromatic_linkinvent_7_9_3/rearranged_h_0043.sdf

> <i_m_source_file_index>
29

> <r_mmod_Potential_Energy-OPLS-2005>
-1.99663543701172

> <r_mmod_Stretch_Energy-OPLS-2005>
51.2866325378418

> <r_mmod_Bend_Energy-OPLS-2005>
127.644187927246

> <r_mmod_Torsional_Energy-OPLS-2005>
279.925140380859

> <r_mmod_Improper_Torsional_Energy-OPLS-2005>
8.46936893463135

> <r_mmod_Van_der_Waal_Energy-OPLS-2005>
125.288932800293

> <r_mmod_Electrostatic_Energy-OPLS-2005>
-387.673126220703

> <r_mmod_Solvation_Energy-OPLS-2005>
-224.886138916016

> <b_mmod_Minimization_Converged-OPLS-2005>
0

> <r_mmod_RMS_Derivative-OPLS-2005>
2.82696485519409

$$$$
29
                    3D
 Structure written by MMmdl.
168176  0  0  1  0            999 V2000
  -31.3572  -14.7434   20.1199 C   0  0  0  0  0  0
  -30.9723  -12.3359   19.6621 C   0  0  0  0  0  0
  -30.4157  -12.5050   18.2761 C   0  0  0  0  0  0
  -29.0519  -12.9594   18.4547 C   0  0  0  0  0  0
  -28.5296  -14.1658   19.5640 C   0  0  2  0  0  0
  -29.4042  -13.6440   20.8542 C   0  0  0  0  0  0
  -24.5205  -14.4495   20.9757 C   0  0  0  0  0  0
  -23.7837  -13.3580   21.3584 C   0  0  0  0  0  0
  -24.3108  -12.1153   20.9290 C   0  0  0  0  0  0
  -23.8160  -10.6654   21.0031 C   0  0  0  0  0  0
  -24.3251   -9.6489   21.8776 C   0  0  0  0  0  0
  -23.6659   -8.3910   22.0468 C   0  0  0  0  0  0
  -22.4718   -8.1059   21.3394 C   0  0  0  0  0  0
  -22.0112   -9.0702   20.4265 C   0  0  0  0  0  0
  -22.6706  -10.3072   20.2573 C   0  0  0  0  0  0
  -21.7347   -6.1105   22.5216 C   0  0  0  0  0  0
  -21.4376   -6.5936   23.8149 C   0  0  0  0  0  0
  -21.3745   -5.7019   24.9076 C   0  0  0  0  0  0
  -21.5971   -4.3256   24.7106 C   0  0  0  0  0  0
  -21.8774   -3.8385   23.4228 C   0  0  0  0  0  0
  -21.9343   -4.7247   22.3321 C   0  0  0  0  0  0
  -22.3575  -13.5643   21.4586 C   0  0  0  0  0  0
  -22.1721   -4.2352   21.0908 F   0  0  0  0  0  0
  -21.5479   -3.4713   25.7601 F   0  0  0  0  0  0
  -30.6851  -13.5937   20.3745 N   0  0  0  0  0  0
  -25.3195  -14.1046   20.0272 N   0  0  0  0  0  0
  -24.7193  -12.6955   19.8315 N   0  0  0  0  0  0
  -21.7004  -12.7310   22.2355 N   0  0  0  0  0  0
  -24.4782  -15.8063   21.0921 N   0  0  0  0  0  0
  -32.5401  -14.6891   19.9217 O   0  0  0  0  0  0
  -21.7419   -6.9327   21.4178 O   0  0  0  0  0  0
  -21.8467  -14.4835   20.8216 O   0  0  0  0  0  0
  -24.7189  -31.7491   23.1278 C   0  0  0  0  0  0
  -25.9616  -32.4183   23.7884 C   0  0  1  0  0  0
  -26.8649  -26.1421   20.2301 C   0  0  0  0  0  0
  -25.6035  -33.8050   24.1696 N   0  0  0  0  0  0
  -23.5448  -30.3617   21.4938 C   0  0  2  0  0  0
  -24.9351  -28.6210   20.0900 C   0  0  0  0  0  0
  -22.7856  -29.4080   22.4589 C   0  0  0  0  0  0
  -18.0359  -28.1435   22.8467 C   0  0  0  0  0  0
  -24.1515  -36.7031   23.2661 C   0  0  0  0  0  0
  -26.1335  -30.2777   21.4731 C   0  0  0  0  0  0
  -26.1189  -28.7990   20.8079 C   0  0  0  0  0  0
  -27.0712  -27.5867   20.8422 C   0  0  0  0  0  0
  -25.7418  -26.3334   19.3930 C   0  0  0  0  0  0
  -24.8257  -27.4341   19.3474 C   0  0  0  0  0  0
  -23.8003  -29.6708   20.1212 C   0  0  0  0  0  0
  -25.4184  -36.2729   24.0241 C   0  0  1  0  0  0
  -20.6005  -28.3791   23.1086 C   0  0  2  0  0  0
  -20.6798  -26.9419   22.5411 C   0  0  0  0  0  0
  -19.5764  -26.6355   21.5236 C   0  0  0  0  0  0
  -18.1960  -26.7963   22.1641 C   0  0  0  0  0  0
  -19.1636  -28.8946   23.2752 C   0  0  0  0  0  0
  -18.9531  -30.1532   23.8795 C   0  0  0  0  0  0
  -17.6512  -30.6607   24.0554 C   0  0  0  0  0  0
  -25.9188  -34.9133   23.4839 C   0  0  0  0  0  0
  -16.5399  -29.9080   23.6359 C   0  0  0  0  0  0
  -16.7337  -28.6508   23.0369 C   0  0  0  0  0  0
  -26.4671  -31.6441   25.0700 C   0  0  0  0  0  0
  -25.3602  -31.3888   26.1207 C   0  0  0  0  0  0
  -27.0651  -30.2716   24.6977 C   0  0  0  0  0  0
  -27.6045  -32.4424   25.7496 C   0  0  0  0  0  0
  -27.5559  -37.1671   24.8453 C   0  0  0  0  0  0
  -21.4482  -29.2974   22.3362 N   0  0  0  0  0  0
  -26.4259  -37.3543   23.9399 N   0  0  0  0  0  0
  -24.8341  -30.8442   22.0810 N   0  0  0  0  0  0
  -23.4152  -28.7698   23.3071 O   0  0  0  0  0  0
  -27.4725  -24.5887   20.3575 O   0  0  0  0  0  0
  -26.5893  -34.8783   22.4503 O   0  0  0  0  0  0
  -23.6144  -32.0869   23.5960 O   0  0  0  0  0  0
  -26.7833  -15.3306   18.5790 C   0  0  0  0  0  0
  -26.7169  -13.4984   18.4929 C   0  0  0  0  0  0
  -26.9650  -16.1359   20.0043 C   0  0  0  0  0  0
  -26.4942  -13.1345   15.9279 C   0  0  0  0  0  0
  -27.0579  -13.5805   23.3758 C   0  0  0  0  0  0
  -27.5794  -16.0620   17.4454 C   0  0  0  0  0  0
  -26.3264  -12.5548   17.3404 C   0  0  0  0  0  0
  -27.2883  -18.2417   20.3191 C   0  0  0  0  0  0
  -29.0062  -16.8287   17.7527 C   0  0  0  0  0  0
  -26.8272  -20.4291   20.1505 C   0  0  0  0  0  0
  -27.1902  -14.9197   22.6358 C   0  0  0  0  0  0
  -30.4656  -16.2572   18.2710 C   0  0  0  0  0  0
  -27.2086  -22.6434   19.9157 C   0  0  0  0  0  0
  -27.0427  -12.8959   20.4000 N   0  0  0  0  0  0
  -27.1117  -14.7625   21.1804 N   0  0  0  0  0  0
  -30.7235  -15.9044   19.7432 N   0  0  0  0  0  0
  -32.0514  -12.1578   19.6180 H   0  0  0  0  0  0
  -30.5444  -11.4599   20.1536 H   0  0  0  0  0  0
  -30.4595  -11.5718   17.7087 H   0  0  0  0  0  0
  -31.0165  -13.2241   17.7144 H   0  0  0  0  0  0
  -28.5797  -11.9995   18.6685 H   0  0  0  0  0  0
  -28.8365  -13.2663   17.4298 H   0  0  0  0  0  0
  -28.8505  -15.0501   19.2340 H   0  0  0  0  0  0
  -29.1804  -12.6661   21.2810 H   0  0  0  0  0  0
  -29.4689  -14.3321   21.6947 H   0  0  0  0  0  0
  -25.2064   -9.8574   22.4688 H   0  0  0  0  0  0
  -24.0717   -7.6688   22.7403 H   0  0  0  0  0  0
  -21.1178   -8.8665   19.8561 H   0  0  0  0  0  0
  -22.2477  -11.0323   19.5772 H   0  0  0  0  0  0
  -21.2581   -7.6486   23.9660 H   0  0  0  0  0  0
  -21.1524   -6.0807   25.8949 H   0  0  0  0  0  0
  -22.0417   -2.7837   23.2676 H   0  0  0  0  0  0
  -22.1791  -11.9980   22.7372 H   0  0  0  0  0  0
  -20.7029  -12.8314   22.3563 H   0  0  0  0  0  0
  -23.6563  -16.2572   21.4729 H   0  0  0  0  0  0
  -24.9413  -16.3720   20.3925 H   0  0  0  0  0  0
  -26.7689  -32.4489   23.0548 H   0  0  0  0  0  0
  -25.0008  -33.9029   24.9731 H   0  0  0  0  0  0
  -22.8968  -31.2209   21.3029 H   0  0  0  0  0  0
  -23.3807  -35.9321   23.3212 H   0  0  0  0  0  0
  -24.3568  -36.8838   22.2096 H   0  0  0  0  0  0
  -23.7256  -37.6150   23.6859 H   0  0  0  0  0  0
  -26.4163  -30.9720   20.6795 H   0  0  0  0  0  0
  -26.9659  -30.3185   22.1626 H   0  0  0  0  0  0
  -27.9407  -27.6909   21.4743 H   0  0  0  0  0  0
  -25.4439  -25.4717   18.8126 H   0  0  0  0  0  0
  -23.9548  -27.3165   18.7153 H   0  0  0  0  0  0
  -24.0336  -30.4390   19.3809 H   0  0  0  0  0  0
  -22.8802  -29.1991   19.7725 H   0  0  0  0  0  0
  -25.1427  -36.1425   25.0728 H   0  0  0  0  0  0
  -21.0078  -28.3447   24.1217 H   0  0  0  0  0  0
  -20.5642  -26.2435   23.3713 H   0  0  0  0  0  0
  -21.6663  -26.7329   22.1252 H   0  0  0  0  0  0
  -19.6891  -25.6238   21.1336 H   0  0  0  0  0  0
  -19.6706  -27.3119   20.6734 H   0  0  0  0  0  0
  -17.4239  -26.6761   21.4031 H   0  0  0  0  0  0
  -18.0293  -26.0125   22.9049 H   0  0  0  0  0  0
  -19.7997  -30.7396   24.2106 H   0  0  0  0  0  0
  -17.5044  -31.6266   24.5182 H   0  0  0  0  0  0
  -15.5389  -30.2926   23.7719 H   0  0  0  0  0  0
  -15.8761  -28.0771   22.7107 H   0  0  0  0  0  0
  -24.5849  -30.7200   25.7449 H   0  0  0  0  0  0
  -24.8730  -32.3139   26.4280 H   0  0  0  0  0  0
  -25.7626  -30.9246   27.0215 H   0  0  0  0  0  0
  -26.3374  -29.6136   24.2214 H   0  0  0  0  0  0
  -27.4078  -29.7423   25.5879 H   0  0  0  0  0  0
  -27.9400  -30.3710   24.0553 H   0  0  0  0  0  0
  -27.2557  -33.3874   26.1670 H   0  0  0  0  0  0
  -28.4013  -32.6743   25.0418 H   0  0  0  0  0  0
  -28.0532  -31.8841   26.5717 H   0  0  0  0  0  0
  -28.2494  -38.0040   24.7522 H   0  0  0  0  0  0
  -28.1140  -36.2551   24.6271 H   0  0  0  0  0  0
  -27.2255  -37.1276   25.8845 H   0  0  0  0  0  0
  -20.9830  -29.8625   21.6385 H   0  0  0  0  0  0
  -26.0042  -38.2560   24.1429 H   0  0  0  0  0  0
  -26.0195  -12.4840   15.1919 H   0  0  0  0  0  0
  -27.5415  -13.2218   15.6429 H   0  0  0  0  0  0
  -26.0208  -14.1137   15.8406 H   0  0  0  0  0  0
  -27.8830  -12.9076   23.1428 H   0  0  0  0  0  0
  -26.1256  -13.0769   23.1188 H   0  0  0  0  0  0
  -27.0537  -13.7360   24.4530 H   0  0  0  0  0  0
  -26.9107  -16.7797   16.9720 H   0  0  0  0  0  0
  -27.8111  -15.3495   16.6590 H   0  0  0  0  0  0
  -25.2760  -12.2859   17.4306 H   0  0  0  0  0  0
  -26.8502  -11.6046   17.4124 H   0  0  0  0  0  0
  -28.3712  -18.3062   20.2153 H   0  0  0  0  0  0
  -27.1778  -18.2187   21.4041 H   0  0  0  0  0  0
  -28.8041  -17.7586   18.2623 H   0  0  0  0  0  0
  -29.2535  -17.1943   16.7556 H   0  0  0  0  0  0
  -25.9652  -20.4639   20.8198 H   0  0  0  0  0  0
  -26.3806  -20.3262   19.1617 H   0  0  0  0  0  0
  -28.1064  -15.4446   22.9046 H   0  0  0  0  0  0
  -26.3894  -15.5826   22.9619 H   0  0  0  0  0  0
  -30.7101  -15.3903   17.6577 H   0  0  0  0  0  0
  -31.2239  -16.9888   17.9948 H   0  0  0  0  0  0
  -26.3385  -22.8435   19.2866 H   0  0  0  0  0  0
  -28.0295  -22.5895   19.1997 H   0  0  0  0  0  0
  -29.9143  -16.0961   20.3178 H   0  0  0  0  0  0
  1 25  1  0  0  0
  1 30  2  0  0  0
  1 86  1  0  0  0
  2  3  1  0  0  0
  2 25  1  0  0  0
  2 87  1  0  0  0
  2 88  1  0  0  0
  3  4  1  0  0  0
  3 89  1  0  0  0
  3 90  1  0  0  0
  4  5  1  0  0  0
  4 91  1  0  0  0
  4 92  1  0  0  0
  5  6  1  0  0  0
  5 26  1  0  0  0
  5 93  1  0  0  0
  6 25  1  0  0  0
  6 94  1  0  0  0
  6 95  1  0  0  0
  7  8  2  0  0  0
  7 26  1  0  0  0
  7 29  1  0  0  0
  8  9  1  0  0  0
  8 22  1  0  0  0
  9 10  1  0  0  0
  9 27  2  0  0  0
 10 11  2  0  0  0
 10 15  1  0  0  0
 11 12  1  0  0  0
 11 96  1  0  0  0
 12 13  2  0  0  0
 12 97  1  0  0  0
 13 14  1  0  0  0
 13 31  1  0  0  0
 14 15  2  0  0  0
 14 98  1  0  0  0
 15 99  1  0  0  0
 16 17  2  0  0  0
 16 21  1  0  0  0
 16 31  1  0  0  0
 17 18  1  0  0  0
 17100  1  0  0  0
 18 19  2  0  0  0
 18101  1  0  0  0
 19 20  1  0  0  0
 19 24  1  0  0  0
 20 21  2  0  0  0
 20102  1  0  0  0
 21 23  1  0  0  0
 22 28  1  0  0  0
 22 32  2  0  0  0
 26 27  1  0  0  0
 28103  1  0  0  0
 28104  1  0  0  0
 29105  1  0  0  0
 29106  1  0  0  0
 33 34  1  0  0  0
 33 66  1  0  0  0
 33 70  2  0  0  0
 34 36  1  0  0  0
 34 59  1  0  0  0
 34107  1  0  0  0
 35 44  2  0  0  0
 35 45  1  0  0  0
 35 68  1  0  0  0
 36 56  1  0  0  0
 36108  1  0  0  0
 37 39  1  0  0  0
 37 47  1  0  0  0
 37 66  1  0  0  0
 37109  1  0  0  0
 38 43  2  0  0  0
 38 46  1  0  0  0
 38 47  1  0  0  0
 39 64  1  0  0  0
 39 67  2  0  0  0
 40 52  1  0  0  0
 40 53  2  0  0  0
 40 58  1  0  0  0
 41110  1  0  0  0
 41111  1  0  0  0
 41112  1  0  0  0
 41 48  1  0  0  0
 42 43  1  0  0  0
 42 66  1  0  0  0
 42113  1  0  0  0
 42114  1  0  0  0
 43 44  1  0  0  0
 44115  1  0  0  0
 45 46  2  0  0  0
 45116  1  0  0  0
 46117  1  0  0  0
 47118  1  0  0  0
 47119  1  0  0  0
 48 56  1  0  0  0
 48 65  1  0  0  0
 48120  1  0  0  0
 49 50  1  0  0  0
 49 53  1  0  0  0
 49 64  1  0  0  0
 49121  1  0  0  0
 50 51  1  0  0  0
 50122  1  0  0  0
 50123  1  0  0  0
 51 52  1  0  0  0
 51124  1  0  0  0
 51125  1  0  0  0
 52126  1  0  0  0
 52127  1  0  0  0
 53 54  1  0  0  0
 54 55  2  0  0  0
 54128  1  0  0  0
 55 57  1  0  0  0
 55129  1  0  0  0
 56 69  2  0  0  0
 57 58  2  0  0  0
 57130  1  0  0  0
 58131  1  0  0  0
 59 60  1  0  0  0
 59 61  1  0  0  0
 59 62  1  0  0  0
 60132  1  0  0  0
 60133  1  0  0  0
 60134  1  0  0  0
 61135  1  0  0  0
 61136  1  0  0  0
 61137  1  0  0  0
 62138  1  0  0  0
 62139  1  0  0  0
 62140  1  0  0  0
 63 65  1  0  0  0
 63141  1  0  0  0
 63142  1  0  0  0
 63143  1  0  0  0
 64144  1  0  0  0
 65145  1  0  0  0
 68 83  1  0  0  0
 71 72  1  0  0  0
 71 73  2  0  0  0
 71 76  1  0  0  0
 72 77  1  0  0  0
 72 84  2  0  0  0
 73 78  1  0  0  0
 73 85  1  0  0  0
 74 77  1  0  0  0
 74146  1  0  0  0
 74147  1  0  0  0
 74148  1  0  0  0
 75 81  1  0  0  0
 75149  1  0  0  0
 75150  1  0  0  0
 75151  1  0  0  0
 76 79  1  0  0  0
 76152  1  0  0  0
 76153  1  0  0  0
 77154  1  0  0  0
 77155  1  0  0  0
 78 80  1  0  0  0
 78156  1  0  0  0
 78157  1  0  0  0
 79 82  1  0  0  0
 79158  1  0  0  0
 79159  1  0  0  0
 80 83  1  0  0  0
 80160  1  0  0  0
 80161  1  0  0  0
 81 85  1  0  0  0
 81162  1  0  0  0
 81163  1  0  0  0
 82 86  1  0  0  0
 82164  1  0  0  0
 82165  1  0  0  0
 83166  1  0  0  0
 83167  1  0  0  0
 84 85  1  0  0  0
 86168  1  0  0  0
M  ISO  4   1 100  68 101  83 101  86 100
M  END
> <chiral flag>
0

> <version>
0

> <s_m_source_file>
/data/baiqing/PycharmProjects/Reinvent-master-3.2/result/LINK_invent/BTK/process_docking_weight1_custom_sum_contain_oxygen_bond_distance_aromatic_linkinvent_7_9_3/rearranged_h_0043.sdf

> <i_m_source_file_index>
30

> <r_mmod_Potential_Energy-OPLS-2005>
16750.802734375

> <r_mmod_Stretch_Energy-OPLS-2005>
9599.4609375

> <r_mmod_Bend_Energy-OPLS-2005>
1270.32006835938

> <r_mmod_Torsional_Energy-OPLS-2005>
555.149841308594

> <r_mmod_Improper_Torsional_Energy-OPLS-2005>
65.4245986938477

> <r_mmod_Van_der_Waal_Energy-OPLS-2005>
3018.560546875

> <r_mmod_Electrostatic_Energy-OPLS-2005>
-385.334625244141

> <r_mmod_Solvation_Energy-OPLS-2005>
-234.725067138672

> <b_mmod_Minimization_Converged-OPLS-2005>
0

> <r_mmod_RMS_Derivative-OPLS-2005>
7.58529996871948

$$$$
30
                    3D
 Structure written by MMmdl.
162170  0  0  1  0            999 V2000
  -30.7194  -14.4149   20.5680 C   0  0  0  0  0  0
  -30.4049  -12.2713   19.4168 C   0  0  0  0  0  0
  -29.4841  -12.5139   18.2049 C   0  0  0  0  0  0
  -28.0009  -12.3929   18.6091 C   0  0  0  0  0  0
  -27.6592  -13.2107   19.8826 C   0  0  2  0  0  0
  -28.6997  -12.9664   21.0009 C   0  0  0  0  0  0
  -25.2561  -13.8163   20.5700 C   0  0  0  0  0  0
  -24.1814  -13.0457   20.9201 C   0  0  0  0  0  0
  -24.6351  -11.6917   20.8727 C   0  0  0  0  0  0
  -23.9002  -10.4315   21.0380 C   0  0  0  0  0  0
  -24.3559   -9.4238   21.9170 C   0  0  0  0  0  0
  -23.6263   -8.2258   22.0716 C   0  0  0  0  0  0
  -22.4255   -8.0278   21.3525 C   0  0  0  0  0  0
  -21.9884   -9.0243   20.4630 C   0  0  0  0  0  0
  -22.7168  -10.2146   20.3035 C   0  0  0  0  0  0
  -21.6867   -6.0727   22.5274 C   0  0  0  0  0  0
  -21.4016   -6.5629   23.8206 C   0  0  0  0  0  0
  -21.3657   -5.6780   24.9170 C   0  0  0  0  0  0
  -21.6034   -4.3037   24.7228 C   0  0  0  0  0  0
  -21.8821   -3.8133   23.4356 C   0  0  0  0  0  0
  -21.9196   -4.6953   22.3402 C   0  0  0  0  0  0
  -22.7849  -13.5262   21.1883 C   0  0  0  0  0  0
  -22.1680   -4.2128   21.0990 F   0  0  0  0  0  0
  -21.5624   -3.4527   25.7750 F   0  0  0  0  0  0
  -30.0369  -13.2478   20.4529 N   0  0  0  0  0  0
  -26.2999  -12.9341   20.3404 N   0  0  0  0  0  0
  -25.9272  -11.6495   20.5744 N   0  0  0  0  0  0
  -22.0451  -12.8253   22.0416 N   0  0  0  0  0  0
  -25.4334  -15.1884   20.4073 N   0  0  0  0  0  0
  -31.8363  -14.5894   20.0729 O   0  0  0  0  0  0
  -21.6644   -6.8868   21.4231 O   0  0  0  0  0  0
  -22.3561  -14.5590   20.6749 O   0  0  0  0  0  0
  -24.6128  -31.8696   23.2137 C   0  0  0  0  0  0
  -25.9044  -32.4840   23.8407 C   0  0  1  0  0  0
  -27.2385  -27.4594   20.0991 C   0  0  0  0  0  0
  -25.5917  -33.8640   24.2356 N   0  0  0  0  0  0
  -23.3987  -30.4936   21.5532 C   0  0  2  0  0  0
  -24.8461  -28.9624   20.1197 C   0  0  0  0  0  0
  -22.7405  -29.4659   22.5008 C   0  0  0  0  0  0
  -18.0292  -28.1355   22.8531 C   0  0  0  0  0  0
  -24.1484  -36.7302   23.2639 C   0  0  0  0  0  0
  -25.9246  -30.8441   21.3623 C   0  0  0  0  0  0
  -26.0044  -29.4797   20.7133 C   0  0  0  0  0  0
  -27.2057  -28.7369   20.6989 C   0  0  0  0  0  0
  -26.0619  -26.9515   19.5063 C   0  0  0  0  0  0
  -24.8675  -27.6942   19.5171 C   0  0  0  0  0  0
  -23.6061  -29.8262   20.1672 C   0  0  0  0  0  0
  -25.4113  -36.3124   24.0339 C   0  0  1  0  0  0
  -20.5881  -28.3636   23.1326 C   0  0  2  0  0  0
  -20.6802  -26.9424   22.5296 C   0  0  0  0  0  0
  -19.5698  -26.6407   21.5186 C   0  0  0  0  0  0
  -18.1946  -26.7881   22.1732 C   0  0  0  0  0  0
  -19.1544  -28.8814   23.2938 C   0  0  0  0  0  0
  -18.9471  -30.1427   23.8941 C   0  0  0  0  0  0
  -17.6469  -30.6568   24.0599 C   0  0  0  0  0  0
  -25.9029  -34.9495   23.5146 C   0  0  0  0  0  0
  -16.5367  -29.9084   23.6335 C   0  0  0  0  0  0
  -16.7287  -28.6504   23.0339 C   0  0  0  0  0  0
  -26.4488  -31.6615   25.0718 C   0  0  0  0  0  0
  -25.3758  -31.3709   26.1467 C   0  0  0  0  0  0
  -27.0312  -30.3059   24.6078 C   0  0  0  0  0  0
  -27.6068  -32.4323   25.7485 C   0  0  0  0  0  0
  -27.5587  -37.1818   24.8475 C   0  0  0  0  0  0
  -21.4139  -29.3039   22.3768 N   0  0  0  0  0  0
  -26.4303  -37.3812   23.9411 N   0  0  0  0  0  0
  -24.6627  -31.0830   22.1014 N   0  0  0  0  0  0
  -23.4186  -28.8176   23.3028 O   0  0  0  0  0  0
  -28.4133  -26.7428   20.0917 O   0  0  0  0  0  0
  -26.5569  -34.8945   22.4689 O   0  0  0  0  0  0
  -23.5329  -32.1443   23.7556 O   0  0  0  0  0  0
  -26.9884  -21.2664   21.3956 C   0  0  0  0  0  0
  -28.2163  -20.9134   20.7647 C   0  0  0  0  0  0
  -26.8607  -22.6097   21.1614 C   0  0  0  0  0  0
  -26.0316  -20.3622   22.1259 C   0  0  0  0  0  0
  -25.7591  -23.5368   21.5673 C   0  0  0  0  0  0
  -28.8604  -19.5547   20.6242 C   0  0  0  0  0  0
  -29.2069  -18.8510   21.9571 C   0  0  0  0  0  0
  -30.3655  -17.8350   21.8477 C   0  0  0  0  0  0
  -28.2490  -24.2934   19.7808 C   0  0  0  0  0  0
  -30.2711  -16.8375   20.6729 C   0  0  0  0  0  0
  -28.3683  -25.4784   20.7644 C   0  0  0  0  0  0
  -28.7984  -21.9652   20.2040 N   0  0  0  0  0  0
  -27.9619  -23.0077   20.4185 N   0  0  0  0  0  0
  -30.0236  -15.4477   21.0711 N   0  0  0  0  0  0
  -31.4510  -12.3452   19.1176 H   0  0  0  0  0  0
  -30.2761  -11.2564   19.7955 H   0  0  0  0  0  0
  -29.7112  -11.8004   17.4123 H   0  0  0  0  0  0
  -29.6739  -13.5024   17.7837 H   0  0  0  0  0  0
  -27.7839  -11.3380   18.7739 H   0  0  0  0  0  0
  -27.3593  -12.7077   17.7857 H   0  0  0  0  0  0
  -27.7053  -14.2642   19.6058 H   0  0  0  0  0  0
  -28.6548  -11.9298   21.3366 H   0  0  0  0  0  0
  -28.4746  -13.5672   21.8827 H   0  0  0  0  0  0
  -25.2696   -9.5743   22.4760 H   0  0  0  0  0  0
  -23.9993   -7.4645   22.7408 H   0  0  0  0  0  0
  -21.0828   -8.8727   19.8933 H   0  0  0  0  0  0
  -22.3581  -10.9682   19.6149 H   0  0  0  0  0  0
  -21.2008   -7.6137   23.9709 H   0  0  0  0  0  0
  -21.1478   -6.0514   25.9076 H   0  0  0  0  0  0
  -22.0604   -2.7592   23.2855 H   0  0  0  0  0  0
  -22.4043  -11.9941   22.4879 H   0  0  0  0  0  0
  -21.1044  -13.1271   22.2559 H   0  0  0  0  0  0
  -24.6723  -15.8527   20.4965 H   0  0  0  0  0  0
  -26.2927  -15.6131   20.0857 H   0  0  0  0  0  0
  -26.7109  -32.5567   23.1167 H   0  0  0  0  0  0
  -25.0167  -33.9824   25.0574 H   0  0  0  0  0  0
  -22.6864  -31.3102   21.4153 H   0  0  0  0  0  0
  -23.3762  -35.9613   23.3323 H   0  0  0  0  0  0
  -24.3577  -36.8890   22.2048 H   0  0  0  0  0  0
  -23.7215  -37.6513   23.6619 H   0  0  0  0  0  0
  -26.0322  -31.6107   20.5946 H   0  0  0  0  0  0
  -26.8127  -30.8994   21.9793 H   0  0  0  0  0  0
  -28.0999  -29.1336   21.1601 H   0  0  0  0  0  0
  -26.0487  -25.9880   19.0271 H   0  0  0  0  0  0
  -23.9761  -27.2877   19.0592 H   0  0  0  0  0  0
  -23.7136  -30.5987   19.4050 H   0  0  0  0  0  0
  -22.7304  -29.2450   19.8724 H   0  0  0  0  0  0
  -25.1291  -36.1991   25.0823 H   0  0  0  0  0  0
  -21.0013  -28.3118   24.1433 H   0  0  0  0  0  0
  -21.6640  -26.7554   22.0952 H   0  0  0  0  0  0
  -20.5853  -26.2221   23.3424 H   0  0  0  0  0  0
  -19.6839  -25.6327   21.1192 H   0  0  0  0  0  0
  -19.6527  -27.3228   20.6716 H   0  0  0  0  0  0
  -17.4110  -26.6498   21.4276 H   0  0  0  0  0  0
  -18.0523  -26.0071   22.9211 H   0  0  0  0  0  0
  -19.7936  -30.7237   24.2336 H   0  0  0  0  0  0
  -17.5033  -31.6224   24.5267 H   0  0  0  0  0  0
  -15.5378  -30.2981   23.7673 H   0  0  0  0  0  0
  -15.8683  -28.0846   22.7008 H   0  0  0  0  0  0
  -24.5903  -30.7093   25.7799 H   0  0  0  0  0  0
  -24.8985  -32.2870   26.4953 H   0  0  0  0  0  0
  -25.8114  -30.8838   27.0201 H   0  0  0  0  0  0
  -26.2853  -29.6816   24.1137 H   0  0  0  0  0  0
  -27.4118  -29.7295   25.4527 H   0  0  0  0  0  0
  -27.8669  -30.4410   23.9202 H   0  0  0  0  0  0
  -27.2687  -33.3609   26.2106 H   0  0  0  0  0  0
  -28.3858  -32.6905   25.0293 H   0  0  0  0  0  0
  -28.0741  -31.8398   26.5374 H   0  0  0  0  0  0
  -28.2625  -38.0100   24.7527 H   0  0  0  0  0  0
  -28.1066  -36.2640   24.6294 H   0  0  0  0  0  0
  -27.2298  -37.1463   25.8879 H   0  0  0  0  0  0
  -20.9287  -29.8808   21.7040 H   0  0  0  0  0  0
  -26.0193  -38.2884   24.1427 H   0  0  0  0  0  0
  -25.0015  -20.5212   21.8062 H   0  0  0  0  0  0
  -26.0646  -20.5270   23.2032 H   0  0  0  0  0  0
  -26.2432  -19.3073   21.9553 H   0  0  0  0  0  0
  -24.8214  -23.0009   21.7059 H   0  0  0  0  0  0
  -25.5829  -24.3089   20.8213 H   0  0  0  0  0  0
  -26.0011  -24.0220   22.5128 H   0  0  0  0  0  0
  -29.7681  -19.6456   20.0248 H   0  0  0  0  0  0
  -28.1950  -18.9124   20.0471 H   0  0  0  0  0  0
  -28.3240  -18.3630   22.3713 H   0  0  0  0  0  0
  -29.5051  -19.6054   22.6865 H   0  0  0  0  0  0
  -30.5049  -17.3044   22.7910 H   0  0  0  0  0  0
  -31.2823  -18.4138   21.7134 H   0  0  0  0  0  0
  -29.1703  -24.2094   19.2038 H   0  0  0  0  0  0
  -27.4714  -24.4684   19.0424 H   0  0  0  0  0  0
  -31.1953  -16.9248   20.0994 H   0  0  0  0  0  0
  -29.4918  -17.1063   19.9626 H   0  0  0  0  0  0
  -27.5675  -25.4769   21.5024 H   0  0  0  0  0  0
  -29.2871  -25.3675   21.3428 H   0  0  0  0  0  0
  -29.1306  -15.2373   21.4922 H   0  0  0  0  0  0
  1 25  1  0  0  0
  1 30  2  0  0  0
  1 84  1  0  0  0
  2  3  1  0  0  0
  2 25  1  0  0  0
  2 85  1  0  0  0
  2 86  1  0  0  0
  3  4  1  0  0  0
  3 87  1  0  0  0
  3 88  1  0  0  0
  4  5  1  0  0  0
  4 89  1  0  0  0
  4 90  1  0  0  0
  5  6  1  0  0  0
  5 26  1  0  0  0
  5 91  1  0  0  0
  6 25  1  0  0  0
  6 92  1  0  0  0
  6 93  1  0  0  0
  7  8  2  0  0  0
  7 26  1  0  0  0
  7 29  1  0  0  0
  8  9  1  0  0  0
  8 22  1  0  0  0
  9 10  1  0  0  0
  9 27  2  0  0  0
 10 11  2  0  0  0
 10 15  1  0  0  0
 11 12  1  0  0  0
 11 94  1  0  0  0
 12 13  2  0  0  0
 12 95  1  0  0  0
 13 14  1  0  0  0
 13 31  1  0  0  0
 14 15  2  0  0  0
 14 96  1  0  0  0
 15 97  1  0  0  0
 16 17  2  0  0  0
 16 21  1  0  0  0
 16 31  1  0  0  0
 17 18  1  0  0  0
 17 98  1  0  0  0
 18 19  2  0  0  0
 18 99  1  0  0  0
 19 20  1  0  0  0
 19 24  1  0  0  0
 20 21  2  0  0  0
 20100  1  0  0  0
 21 23  1  0  0  0
 22 28  1  0  0  0
 22 32  2  0  0  0
 26 27  1  0  0  0
 28101  1  0  0  0
 28102  1  0  0  0
 29103  1  0  0  0
 29104  1  0  0  0
 33 34  1  0  0  0
 33 66  1  0  0  0
 33 70  2  0  0  0
 34 36  1  0  0  0
 34 59  1  0  0  0
 34105  1  0  0  0
 35 44  2  0  0  0
 35 45  1  0  0  0
 35 68  1  0  0  0
 36 56  1  0  0  0
 36106  1  0  0  0
 37 39  1  0  0  0
 37 47  1  0  0  0
 37 66  1  0  0  0
 37107  1  0  0  0
 38 43  2  0  0  0
 38 46  1  0  0  0
 38 47  1  0  0  0
 39 64  1  0  0  0
 39 67  2  0  0  0
 40 52  1  0  0  0
 40 53  2  0  0  0
 40 58  1  0  0  0
 41108  1  0  0  0
 41109  1  0  0  0
 41110  1  0  0  0
 41 48  1  0  0  0
 42 43  1  0  0  0
 42 66  1  0  0  0
 42111  1  0  0  0
 42112  1  0  0  0
 43 44  1  0  0  0
 44113  1  0  0  0
 45 46  2  0  0  0
 45114  1  0  0  0
 46115  1  0  0  0
 47116  1  0  0  0
 47117  1  0  0  0
 48 56  1  0  0  0
 48 65  1  0  0  0
 48118  1  0  0  0
 49 50  1  0  0  0
 49 53  1  0  0  0
 49 64  1  0  0  0
 49119  1  0  0  0
 50 51  1  0  0  0
 50120  1  0  0  0
 50121  1  0  0  0
 51 52  1  0  0  0
 51122  1  0  0  0
 51123  1  0  0  0
 52124  1  0  0  0
 52125  1  0  0  0
 53 54  1  0  0  0
 54 55  2  0  0  0
 54126  1  0  0  0
 55 57  1  0  0  0
 55127  1  0  0  0
 56 69  2  0  0  0
 57 58  2  0  0  0
 57128  1  0  0  0
 58129  1  0  0  0
 59 60  1  0  0  0
 59 61  1  0  0  0
 59 62  1  0  0  0
 60130  1  0  0  0
 60131  1  0  0  0
 60132  1  0  0  0
 61133  1  0  0  0
 61134  1  0  0  0
 61135  1  0  0  0
 62136  1  0  0  0
 62137  1  0  0  0
 62138  1  0  0  0
 63 65  1  0  0  0
 63139  1  0  0  0
 63140  1  0  0  0
 63141  1  0  0  0
 64142  1  0  0  0
 65143  1  0  0  0
 68 81  1  0  0  0
 71 72  1  0  0  0
 71 73  2  0  0  0
 71 74  1  0  0  0
 72 76  1  0  0  0
 72 82  2  0  0  0
 73 75  1  0  0  0
 73 83  1  0  0  0
 74144  1  0  0  0
 74145  1  0  0  0
 74146  1  0  0  0
 75147  1  0  0  0
 75148  1  0  0  0
 75149  1  0  0  0
 76 77  1  0  0  0
 76150  1  0  0  0
 76151  1  0  0  0
 77 78  1  0  0  0
 77152  1  0  0  0
 77153  1  0  0  0
 78 80  1  0  0  0
 78154  1  0  0  0
 78155  1  0  0  0
 79 81  1  0  0  0
 79 83  1  0  0  0
 79156  1  0  0  0
 79157  1  0  0  0
 80 84  1  0  0  0
 80158  1  0  0  0
 80159  1  0  0  0
 81160  1  0  0  0
 81161  1  0  0  0
 82 83  1  0  0  0
 84162  1  0  0  0
M  ISO  4   1 100  68 101  81 101  84 100
M  END
> <chiral flag>
0

> <version>
0

> <s_m_source_file>
/data/baiqing/PycharmProjects/Reinvent-master-3.2/result/LINK_invent/BTK/process_docking_weight1_custom_sum_contain_oxygen_bond_distance_aromatic_linkinvent_7_9_3/rearranged_h_0043.sdf

> <i_m_source_file_index>
31

> <r_mmod_Potential_Energy-OPLS-2005>
-96.426513671875

> <r_mmod_Stretch_Energy-OPLS-2005>
31.8679847717285

> <r_mmod_Bend_Energy-OPLS-2005>
92.0045623779297

> <r_mmod_Torsional_Energy-OPLS-2005>
254.274993896484

> <r_mmod_Improper_Torsional_Energy-OPLS-2005>
6.05112504959106

> <r_mmod_Van_der_Waal_Energy-OPLS-2005>
131.60725402832

> <r_mmod_Electrostatic_Energy-OPLS-2005>
-402.879547119141

> <r_mmod_Solvation_Energy-OPLS-2005>
-218.916366577148

> <b_mmod_Minimization_Converged-OPLS-2005>
0

> <r_mmod_RMS_Derivative-OPLS-2005>
3.33072519302368

$$$$
31
                    3D
 Structure written by MMmdl.
176184  0  0  1  0            999 V2000
  -30.7073  -14.4812   20.5332 C   0  0  0  0  0  0
  -30.4164  -12.3117   19.4134 C   0  0  0  0  0  0
  -29.4840  -12.4751   18.1989 C   0  0  0  0  0  0
  -28.0065  -12.3288   18.6155 C   0  0  0  0  0  0
  -27.6454  -13.1899   19.8527 C   0  0  2  0  0  0
  -28.6944  -13.0288   20.9760 C   0  0  0  0  0  0
  -25.2517  -13.8111   20.5637 C   0  0  0  0  0  0
  -24.1754  -13.0398   20.9172 C   0  0  0  0  0  0
  -24.6296  -11.6861   20.8728 C   0  0  0  0  0  0
  -23.8967  -10.4264   21.0396 C   0  0  0  0  0  0
  -24.3551   -9.4204   21.9194 C   0  0  0  0  0  0
  -23.6271   -8.2221   22.0757 C   0  0  0  0  0  0
  -22.4258   -8.0248   21.3532 C   0  0  0  0  0  0
  -21.9851   -9.0209   20.4625 C   0  0  0  0  0  0
  -22.7128  -10.2114   20.3038 C   0  0  0  0  0  0
  -21.6856   -6.0700   22.5272 C   0  0  0  0  0  0
  -21.3991   -6.5610   23.8206 C   0  0  0  0  0  0
  -21.3681   -5.6780   24.9190 C   0  0  0  0  0  0
  -21.6067   -4.3031   24.7228 C   0  0  0  0  0  0
  -21.8821   -3.8113   23.4344 C   0  0  0  0  0  0
  -21.9185   -4.6924   22.3399 C   0  0  0  0  0  0
  -22.7782  -13.5206   21.1865 C   0  0  0  0  0  0
  -22.1642   -4.2106   21.0966 F   0  0  0  0  0  0
  -21.5692   -3.4506   25.7738 F   0  0  0  0  0  0
  -30.0177  -13.3186   20.4053 N   0  0  0  0  0  0
  -26.2923  -12.9232   20.3272 N   0  0  0  0  0  0
  -25.9213  -11.6409   20.5753 N   0  0  0  0  0  0
  -22.0407  -12.8213   22.0415 N   0  0  0  0  0  0
  -25.4274  -15.1810   20.3986 N   0  0  0  0  0  0
  -31.8673  -14.6265   20.1514 O   0  0  0  0  0  0
  -21.6662   -6.8817   21.4218 O   0  0  0  0  0  0
  -22.3449  -14.5534   20.6733 O   0  0  0  0  0  0
  -24.6116  -31.8666   23.2084 C   0  0  0  0  0  0
  -25.9014  -32.4829   23.8383 C   0  0  1  0  0  0
  -27.2505  -27.4616   20.0828 C   0  0  0  0  0  0
  -25.5872  -33.8631   24.2312 N   0  0  0  0  0  0
  -23.4014  -30.4849   21.5492 C   0  0  2  0  0  0
  -24.8558  -28.9551   20.1099 C   0  0  0  0  0  0
  -22.7383  -29.4633   22.5007 C   0  0  0  0  0  0
  -18.0260  -28.1364   22.8487 C   0  0  0  0  0  0
  -24.1477  -36.7325   23.2639 C   0  0  0  0  0  0
  -25.9250  -30.8386   21.3592 C   0  0  0  0  0  0
  -26.0110  -29.4732   20.7100 C   0  0  0  0  0  0
  -27.2145  -28.7307   20.7013 C   0  0  0  0  0  0
  -26.0831  -26.9496   19.4837 C   0  0  0  0  0  0
  -24.8851  -27.6917   19.4926 C   0  0  0  0  0  0
  -23.6091  -29.8103   20.1651 C   0  0  0  0  0  0
  -25.4097  -36.3119   24.0334 C   0  0  1  0  0  0
  -20.5846  -28.3630   23.1345 C   0  0  2  0  0  0
  -20.6745  -26.9378   22.5423 C   0  0  0  0  0  0
  -19.5738  -26.6378   21.5207 C   0  0  0  0  0  0
  -18.1916  -26.7908   22.1624 C   0  0  0  0  0  0
  -19.1510  -28.8820   23.2915 C   0  0  0  0  0  0
  -18.9439  -30.1422   23.8930 C   0  0  0  0  0  0
  -17.6443  -30.6573   24.0573 C   0  0  0  0  0  0
  -25.9020  -34.9479   23.5133 C   0  0  0  0  0  0
  -16.5335  -29.9078   23.6323 C   0  0  0  0  0  0
  -16.7254  -28.6499   23.0346 C   0  0  0  0  0  0
  -26.4458  -31.6603   25.0698 C   0  0  0  0  0  0
  -25.3730  -31.3693   26.1446 C   0  0  0  0  0  0
  -27.0285  -30.3055   24.6044 C   0  0  0  0  0  0
  -27.6047  -32.4298   25.7473 C   0  0  0  0  0  0
  -27.5576  -37.1809   24.8463 C   0  0  0  0  0  0
  -21.4118  -29.3015   22.3754 N   0  0  0  0  0  0
  -26.4291  -37.3798   23.9407 N   0  0  0  0  0  0
  -24.6644  -31.0754   22.0999 N   0  0  0  0  0  0
  -23.4175  -28.8184   23.3044 O   0  0  0  0  0  0
  -28.3739  -26.6737   20.0883 O   0  0  0  0  0  0
  -26.5595  -34.8935   22.4696 O   0  0  0  0  0  0
  -23.5306  -32.1425   23.7469 O   0  0  0  0  0  0
  -31.0739  -21.9960   16.5612 C   0  0  0  0  0  0
  -30.4717  -23.6619   17.6802 C   0  0  0  0  0  0
  -31.7369  -20.4044   11.8036 C   0  0  0  0  0  0
  -31.0639  -20.8083   15.6482 C   0  0  0  0  0  0
  -29.6045  -24.7628   18.2333 C   0  0  0  0  0  0
  -31.3405  -20.0012   13.2279 C   0  0  0  0  0  0
  -31.3549  -21.1968   14.1905 C   0  0  0  0  0  0
  -30.3516  -25.9077   18.9605 C   0  0  0  0  0  0
  -29.1041  -20.0309   18.6763 C   0  0  0  0  0  0
  -28.6286  -18.6016   19.0272 C   0  0  0  0  0  0
  -28.2247  -20.6618   17.5707 C   0  0  0  0  0  0
  -29.5362  -17.8235   20.0084 C   0  0  0  0  0  0
  -28.5664  -22.0918   17.0665 C   0  0  0  0  0  0
  -29.1608  -16.3253   20.0794 C   0  0  0  0  0  0
  -29.4469  -27.1173   19.2732 C   0  0  0  0  0  0
  -32.1953  -22.6721   16.8326 N   0  0  0  0  0  0
  -31.7991  -23.7721   17.5472 N   0  0  0  0  0  0
  -29.9672  -22.5245   17.1366 N   0  0  0  0  0  0
  -30.0191  -15.5463   20.9819 N   0  0  0  0  0  0
  -31.4607  -12.4138   19.1083 H   0  0  0  0  0  0
  -30.3264  -11.3120   19.8376 H   0  0  0  0  0  0
  -29.7311  -11.7361   17.4373 H   0  0  0  0  0  0
  -29.6430  -13.4504   17.7369 H   0  0  0  0  0  0
  -27.8147  -11.2729   18.8239 H   0  0  0  0  0  0
  -27.3584  -12.5932   17.7806 H   0  0  0  0  0  0
  -27.6606  -14.2161   19.5005 H   0  0  0  0  0  0
  -28.6754  -12.0127   21.3664 H   0  0  0  0  0  0
  -28.4651  -13.6861   21.8166 H   0  0  0  0  0  0
  -25.2697   -9.5748   22.4758 H   0  0  0  0  0  0
  -24.0003   -7.4599   22.7464 H   0  0  0  0  0  0
  -21.0809   -8.8683   19.8892 H   0  0  0  0  0  0
  -22.3572  -10.9654   19.6143 H   0  0  0  0  0  0
  -21.1946   -7.6114   23.9670 H   0  0  0  0  0  0
  -21.1538   -6.0537   25.9099 H   0  0  0  0  0  0
  -22.0591   -2.7558   23.2883 H   0  0  0  0  0  0
  -22.4013  -11.9863   22.4819 H   0  0  0  0  0  0
  -21.1014  -13.1232   22.2602 H   0  0  0  0  0  0
  -24.6772  -15.8549   20.5079 H   0  0  0  0  0  0
  -26.2991  -15.6038   20.1078 H   0  0  0  0  0  0
  -26.7076  -32.5572   23.1148 H   0  0  0  0  0  0
  -25.0012  -33.9807   25.0452 H   0  0  0  0  0  0
  -22.6888  -31.2987   21.4040 H   0  0  0  0  0  0
  -23.3740  -35.9664   23.3309 H   0  0  0  0  0  0
  -24.3569  -36.8930   22.2054 H   0  0  0  0  0  0
  -23.7228  -37.6531   23.6649 H   0  0  0  0  0  0
  -26.0231  -31.5992   20.5841 H   0  0  0  0  0  0
  -26.8183  -30.9045   21.9679 H   0  0  0  0  0  0
  -28.1024  -29.1197   21.1807 H   0  0  0  0  0  0
  -26.1047  -25.9828   19.0020 H   0  0  0  0  0  0
  -24.0010  -27.2928   19.0140 H   0  0  0  0  0  0
  -23.6997  -30.5779   19.3963 H   0  0  0  0  0  0
  -22.7414  -29.2097   19.8846 H   0  0  0  0  0  0
  -25.1270  -36.1988   25.0828 H   0  0  0  0  0  0
  -20.9933  -28.3176   24.1475 H   0  0  0  0  0  0
  -20.5628  -26.2237   23.3594 H   0  0  0  0  0  0
  -21.6618  -26.7413   22.1237 H   0  0  0  0  0  0
  -19.6902  -25.6297   21.1225 H   0  0  0  0  0  0
  -19.6694  -27.3209   20.6754 H   0  0  0  0  0  0
  -17.4179  -26.6639   21.4033 H   0  0  0  0  0  0
  -18.0341  -26.0045   22.9021 H   0  0  0  0  0  0
  -19.7917  -30.7219   24.2327 H   0  0  0  0  0  0
  -17.5008  -31.6273   24.5141 H   0  0  0  0  0  0
  -15.5349  -30.3004   23.7623 H   0  0  0  0  0  0
  -15.8645  -28.0838   22.7041 H   0  0  0  0  0  0
  -24.5925  -30.7023   25.7763 H   0  0  0  0  0  0
  -24.8920  -32.2850   26.4890 H   0  0  0  0  0  0
  -25.8099  -30.8862   27.0196 H   0  0  0  0  0  0
  -26.2818  -29.6822   24.1116 H   0  0  0  0  0  0
  -27.4081  -29.7272   25.4475 H   0  0  0  0  0  0
  -27.8633  -30.4377   23.9163 H   0  0  0  0  0  0
  -27.2690  -33.3591   26.2077 H   0  0  0  0  0  0
  -28.3873  -32.6847   25.0319 H   0  0  0  0  0  0
  -28.0694  -31.8395   26.5375 H   0  0  0  0  0  0
  -28.2592  -38.0106   24.7520 H   0  0  0  0  0  0
  -28.1066  -36.2642   24.6270 H   0  0  0  0  0  0
  -27.2298  -37.1429   25.8866 H   0  0  0  0  0  0
  -20.9243  -29.8772   21.7027 H   0  0  0  0  0  0
  -26.0178  -38.2877   24.1424 H   0  0  0  0  0  0
  -31.7251  -19.5444   11.1333 H   0  0  0  0  0  0
  -32.7436  -20.8207   11.7775 H   0  0  0  0  0  0
  -31.0567  -21.1533   11.3938 H   0  0  0  0  0  0
  -30.1008  -20.3088   15.6945 H   0  0  0  0  0  0
  -31.7944  -20.0847   16.0073 H   0  0  0  0  0  0
  -28.8803  -24.3256   18.9206 H   0  0  0  0  0  0
  -29.0406  -25.1800   17.3980 H   0  0  0  0  0  0
  -32.0342  -19.2369   13.5844 H   0  0  0  0  0  0
  -30.3494  -19.5419   13.2174 H   0  0  0  0  0  0
  -32.3284  -21.6884   14.1419 H   0  0  0  0  0  0
  -30.6266  -21.9390   13.8642 H   0  0  0  0  0  0
  -31.1717  -26.2660   18.3348 H   0  0  0  0  0  0
  -30.8064  -25.5285   19.8769 H   0  0  0  0  0  0
  -30.1388  -19.9816   18.3386 H   0  0  0  0  0  0
  -29.0897  -20.6637   19.5649 H   0  0  0  0  0  0
  -28.5298  -18.0321   18.1016 H   0  0  0  0  0  0
  -27.6225  -18.6566   19.4442 H   0  0  0  0  0  0
  -27.1905  -20.6703   17.9166 H   0  0  0  0  0  0
  -28.2103  -19.9857   16.7167 H   0  0  0  0  0  0
  -29.4628  -18.2716   21.0001 H   0  0  0  0  0  0
  -30.5774  -17.9327   19.7030 H   0  0  0  0  0  0
  -27.9595  -22.7906   17.6364 H   0  0  0  0  0  0
  -28.2379  -22.2018   16.0305 H   0  0  0  0  0  0
  -29.2051  -15.9058   19.0702 H   0  0  0  0  0  0
  -28.1312  -16.2251   20.4216 H   0  0  0  0  0  0
  -29.0771  -27.5558   18.3445 H   0  0  0  0  0  0
  -30.0100  -27.8911   19.7971 H   0  0  0  0  0  0
  -30.6137  -16.1600   21.5185 H   0  0  0  0  0  0
  1 25  1  0  0  0
  1 30  2  0  0  0
  1 89  1  0  0  0
  2  3  1  0  0  0
  2 25  1  0  0  0
  2 90  1  0  0  0
  2 91  1  0  0  0
  3  4  1  0  0  0
  3 92  1  0  0  0
  3 93  1  0  0  0
  4  5  1  0  0  0
  4 94  1  0  0  0
  4 95  1  0  0  0
  5  6  1  0  0  0
  5 26  1  0  0  0
  5 96  1  0  0  0
  6 25  1  0  0  0
  6 97  1  0  0  0
  6 98  1  0  0  0
  7  8  2  0  0  0
  7 26  1  0  0  0
  7 29  1  0  0  0
  8  9  1  0  0  0
  8 22  1  0  0  0
  9 10  1  0  0  0
  9 27  2  0  0  0
 10 11  2  0  0  0
 10 15  1  0  0  0
 11 12  1  0  0  0
 11 99  1  0  0  0
 12 13  2  0  0  0
 12100  1  0  0  0
 13 14  1  0  0  0
 13 31  1  0  0  0
 14 15  2  0  0  0
 14101  1  0  0  0
 15102  1  0  0  0
 16 17  2  0  0  0
 16 21  1  0  0  0
 16 31  1  0  0  0
 17 18  1  0  0  0
 17103  1  0  0  0
 18 19  2  0  0  0
 18104  1  0  0  0
 19 20  1  0  0  0
 19 24  1  0  0  0
 20 21  2  0  0  0
 20105  1  0  0  0
 21 23  1  0  0  0
 22 28  1  0  0  0
 22 32  2  0  0  0
 26 27  1  0  0  0
 28106  1  0  0  0
 28107  1  0  0  0
 29108  1  0  0  0
 29109  1  0  0  0
 33 34  1  0  0  0
 33 66  1  0  0  0
 33 70  2  0  0  0
 34 36  1  0  0  0
 34 59  1  0  0  0
 34110  1  0  0  0
 35 44  2  0  0  0
 35 45  1  0  0  0
 35 68  1  0  0  0
 36 56  1  0  0  0
 36111  1  0  0  0
 37 39  1  0  0  0
 37 47  1  0  0  0
 37 66  1  0  0  0
 37112  1  0  0  0
 38 43  2  0  0  0
 38 46  1  0  0  0
 38 47  1  0  0  0
 39 64  1  0  0  0
 39 67  2  0  0  0
 40 52  1  0  0  0
 40 53  2  0  0  0
 40 58  1  0  0  0
 41113  1  0  0  0
 41114  1  0  0  0
 41115  1  0  0  0
 41 48  1  0  0  0
 42 43  1  0  0  0
 42 66  1  0  0  0
 42116  1  0  0  0
 42117  1  0  0  0
 43 44  1  0  0  0
 44118  1  0  0  0
 45 46  2  0  0  0
 45119  1  0  0  0
 46120  1  0  0  0
 47121  1  0  0  0
 47122  1  0  0  0
 48 56  1  0  0  0
 48 65  1  0  0  0
 48123  1  0  0  0
 49 50  1  0  0  0
 49 53  1  0  0  0
 49 64  1  0  0  0
 49124  1  0  0  0
 50 51  1  0  0  0
 50125  1  0  0  0
 50126  1  0  0  0
 51 52  1  0  0  0
 51127  1  0  0  0
 51128  1  0  0  0
 52129  1  0  0  0
 52130  1  0  0  0
 53 54  1  0  0  0
 54 55  2  0  0  0
 54131  1  0  0  0
 55 57  1  0  0  0
 55132  1  0  0  0
 56 69  2  0  0  0
 57 58  2  0  0  0
 57133  1  0  0  0
 58134  1  0  0  0
 59 60  1  0  0  0
 59 61  1  0  0  0
 59 62  1  0  0  0
 60135  1  0  0  0
 60136  1  0  0  0
 60137  1  0  0  0
 61138  1  0  0  0
 61139  1  0  0  0
 61140  1  0  0  0
 62141  1  0  0  0
 62142  1  0  0  0
 62143  1  0  0  0
 63 65  1  0  0  0
 63144  1  0  0  0
 63145  1  0  0  0
 63146  1  0  0  0
 64147  1  0  0  0
 65148  1  0  0  0
 68 85  1  0  0  0
 71 74  1  0  0  0
 71 86  2  0  0  0
 71 88  1  0  0  0
 72 75  1  0  0  0
 72 87  2  0  0  0
 72 88  1  0  0  0
 73 76  1  0  0  0
 73149  1  0  0  0
 73150  1  0  0  0
 73151  1  0  0  0
 74 77  1  0  0  0
 74152  1  0  0  0
 74153  1  0  0  0
 75 78  1  0  0  0
 75154  1  0  0  0
 75155  1  0  0  0
 76 77  1  0  0  0
 76156  1  0  0  0
 76157  1  0  0  0
 77158  1  0  0  0
 77159  1  0  0  0
 78 85  1  0  0  0
 78160  1  0  0  0
 78161  1  0  0  0
 79 80  1  0  0  0
 79 81  1  0  0  0
 79162  1  0  0  0
 79163  1  0  0  0
 80 82  1  0  0  0
 80164  1  0  0  0
 80165  1  0  0  0
 81 83  1  0  0  0
 81166  1  0  0  0
 81167  1  0  0  0
 82 84  1  0  0  0
 82168  1  0  0  0
 82169  1  0  0  0
 83 88  1  0  0  0
 83170  1  0  0  0
 83171  1  0  0  0
 84 89  1  0  0  0
 84172  1  0  0  0
 84173  1  0  0  0
 85174  1  0  0  0
 85175  1  0  0  0
 86 87  1  0  0  0
 89176  1  0  0  0
M  ISO  4   1 100  68 101  85 101  89 100
M  END
> <chiral flag>
0

> <version>
0

> <s_m_source_file>
/data/baiqing/PycharmProjects/Reinvent-master-3.2/result/LINK_invent/BTK/process_docking_weight1_custom_sum_contain_oxygen_bond_distance_aromatic_linkinvent_7_9_3/rearranged_h_0043.sdf

> <i_m_source_file_index>
32

> <r_mmod_Potential_Energy-OPLS-2005>
-22.482536315918

> <r_mmod_Stretch_Energy-OPLS-2005>
34.4094390869141

> <r_mmod_Bend_Energy-OPLS-2005>
117.696914672852

> <r_mmod_Torsional_Energy-OPLS-2005>
305.935760498047

> <r_mmod_Improper_Torsional_Energy-OPLS-2005>
8.73663997650146

> <r_mmod_Van_der_Waal_Energy-OPLS-2005>
118.946296691895

> <r_mmod_Electrostatic_Energy-OPLS-2005>
-391.618774414062

> <r_mmod_Solvation_Energy-OPLS-2005>
-233.124771118164

> <b_mmod_Minimization_Converged-OPLS-2005>
0

> <r_mmod_RMS_Derivative-OPLS-2005>
4.28099393844604

$$$$
32
                    3D
 Structure written by MMmdl.
148156  0  0  1  0            999 V2000
  -30.5831  -14.8765   20.4271 C   0  0  0  0  0  0
  -30.4299  -12.5410   19.4919 C   0  0  0  0  0  0
  -29.5134  -12.5168   18.2487 C   0  0  0  0  0  0
  -28.0443  -12.3195   18.6660 C   0  0  0  0  0  0
  -27.6297  -13.2461   19.8399 C   0  0  2  0  0  0
  -28.6729  -13.2555   20.9772 C   0  0  0  0  0  0
  -25.2455  -13.8218   20.5712 C   0  0  0  0  0  0
  -24.1771  -13.0440   20.9225 C   0  0  0  0  0  0
  -24.6385  -11.6927   20.8756 C   0  0  0  0  0  0
  -23.9072  -10.4293   21.0408 C   0  0  0  0  0  0
  -24.3623   -9.4206   21.9184 C   0  0  0  0  0  0
  -23.6295   -8.2243   22.0753 C   0  0  0  0  0  0
  -22.4276   -8.0281   21.3544 C   0  0  0  0  0  0
  -21.9915   -9.0254   20.4645 C   0  0  0  0  0  0
  -22.7246  -10.2132   20.3056 C   0  0  0  0  0  0
  -21.6854   -6.0732   22.5275 C   0  0  0  0  0  0
  -21.4016   -6.5636   23.8210 C   0  0  0  0  0  0
  -21.3660   -5.6792   24.9173 C   0  0  0  0  0  0
  -21.6046   -4.3054   24.7226 C   0  0  0  0  0  0
  -21.8819   -3.8142   23.4347 C   0  0  0  0  0  0
  -21.9193   -4.6957   22.3403 C   0  0  0  0  0  0
  -22.7792  -13.5208   21.1886 C   0  0  0  0  0  0
  -22.1661   -4.2143   21.0980 F   0  0  0  0  0  0
  -21.5629   -3.4538   25.7740 F   0  0  0  0  0  0
  -29.9562  -13.6389   20.3783 N   0  0  0  0  0  0
  -26.2880  -12.9448   20.3252 N   0  0  0  0  0  0
  -25.9315  -11.6577   20.5745 N   0  0  0  0  0  0
  -22.0448  -12.8190   22.0444 N   0  0  0  0  0  0
  -25.4124  -15.1947   20.4138 N   0  0  0  0  0  0
  -31.7868  -14.9191   20.1565 O   0  0  0  0  0  0
  -21.6644   -6.8875   21.4238 O   0  0  0  0  0  0
  -22.3474  -14.5512   20.6734 O   0  0  0  0  0  0
  -24.6396  -31.8474   23.1902 C   0  0  0  0  0  0
  -25.9185  -32.4712   23.8280 C   0  0  1  0  0  0
  -27.2163  -27.1725   20.1476 C   0  0  0  0  0  0
  -25.5943  -33.8515   24.2200 N   0  0  0  0  0  0
  -23.4409  -30.4675   21.5355 C   0  0  2  0  0  0
  -24.8893  -28.8990   20.1095 C   0  0  0  0  0  0
  -22.7546  -29.4566   22.4873 C   0  0  0  0  0  0
  -18.0300  -28.1391   22.8481 C   0  0  0  0  0  0
  -24.1490  -36.7262   23.2642 C   0  0  0  0  0  0
  -25.9936  -30.7330   21.3829 C   0  0  0  0  0  0
  -26.0651  -29.3475   20.7244 C   0  0  0  0  0  0
  -27.2307  -28.5000   20.7256 C   0  0  0  0  0  0
  -26.0153  -26.8134   19.4978 C   0  0  0  0  0  0
  -24.8751  -27.6443   19.4815 C   0  0  0  0  0  0
  -23.6640  -29.7968   20.1543 C   0  0  0  0  0  0
  -25.4123  -36.3042   24.0314 C   0  0  1  0  0  0
  -20.5909  -28.3714   23.1242 C   0  0  2  0  0  0
  -20.6785  -26.9421   22.5403 C   0  0  0  0  0  0
  -19.5759  -26.6378   21.5211 C   0  0  0  0  0  0
  -18.1940  -26.7932   22.1622 C   0  0  0  0  0  0
  -19.1556  -28.8871   23.2854 C   0  0  0  0  0  0
  -18.9476  -30.1468   23.8879 C   0  0  0  0  0  0
  -17.6476  -30.6592   24.0560 C   0  0  0  0  0  0
  -25.9068  -34.9417   23.5066 C   0  0  0  0  0  0
  -16.5365  -29.9085   23.6336 C   0  0  0  0  0  0
  -16.7287  -28.6501   23.0361 C   0  0  0  0  0  0
  -26.4516  -31.6575   25.0717 C   0  0  0  0  0  0
  -25.3707  -31.3757   26.1418 C   0  0  0  0  0  0
  -27.0382  -30.2976   24.6277 C   0  0  0  0  0  0
  -27.6053  -32.4338   25.7500 C   0  0  0  0  0  0
  -27.5578  -37.1785   24.8465 C   0  0  0  0  0  0
  -21.4242  -29.3047   22.3620 N   0  0  0  0  0  0
  -26.4289  -37.3752   23.9406 N   0  0  0  0  0  0
  -24.7110  -31.0362   22.0918 N   0  0  0  0  0  0
  -23.4208  -28.8115   23.3010 O   0  0  0  0  0  0
  -28.2839  -26.2185   20.2197 O   0  0  0  0  0  0
  -26.5656  -34.8913   22.4645 O   0  0  0  0  0  0
  -23.5521  -32.1332   23.7141 O   0  0  0  0  0  0
  -29.2334  -19.7850   21.5151 C   0  0  0  0  0  0
  -29.6704  -19.8862   19.2475 C   0  0  0  0  0  0
  -29.6574  -19.0215   20.3859 C   0  0  0  0  0  0
  -29.0534  -21.8925   20.3824 C   0  0  0  0  0  0
  -30.3947  -17.5452   20.4125 C   0  0  0  0  0  0
  -29.1592  -23.5318   20.4734 C   0  0  0  0  0  0
  -28.0351  -24.6957   20.0940 C   0  0  0  0  0  0
  -28.9525  -21.1458   21.5054 N   0  0  0  0  0  0
  -29.3909  -21.2441   19.2504 N   0  0  0  0  0  0
  -29.8512  -16.0824   20.5568 N   0  0  0  0  0  0
  -31.4681  -12.6762   19.1840 H   0  0  0  0  0  0
  -30.3983  -11.5846   20.0163 H   0  0  0  0  0  0
  -29.8192  -11.7217   17.5673 H   0  0  0  0  0  0
  -29.6172  -13.4522   17.6961 H   0  0  0  0  0  0
  -27.9264  -11.2762   18.9614 H   0  0  0  0  0  0
  -27.3829  -12.4693   17.8118 H   0  0  0  0  0  0
  -27.6004  -14.2530   19.4223 H   0  0  0  0  0  0
  -28.7411  -12.2779   21.4569 H   0  0  0  0  0  0
  -28.3862  -13.9644   21.7557 H   0  0  0  0  0  0
  -25.2764   -9.5682   22.4763 H   0  0  0  0  0  0
  -24.0000   -7.4635   22.7472 H   0  0  0  0  0  0
  -21.0845   -8.8775   19.8952 H   0  0  0  0  0  0
  -22.3701  -10.9673   19.6167 H   0  0  0  0  0  0
  -21.2010   -7.6145   23.9709 H   0  0  0  0  0  0
  -21.1484   -6.0524   25.9077 H   0  0  0  0  0  0
  -22.0597   -2.7603   23.2852 H   0  0  0  0  0  0
  -22.4078  -11.9854   22.4826 H   0  0  0  0  0  0
  -21.1064  -13.1203   22.2661 H   0  0  0  0  0  0
  -24.6423  -15.8456   20.5251 H   0  0  0  0  0  0
  -26.2551  -15.6361   20.0690 H   0  0  0  0  0  0
  -26.7256  -32.5333   23.1015 H   0  0  0  0  0  0
  -25.0073  -33.9632   25.0336 H   0  0  0  0  0  0
  -22.7418  -31.2926   21.3835 H   0  0  0  0  0  0
  -23.3757  -35.9589   23.3294 H   0  0  0  0  0  0
  -24.3575  -36.8904   22.2060 H   0  0  0  0  0  0
  -23.7239  -37.6452   23.6687 H   0  0  0  0  0  0
  -26.1449  -31.4902   20.6122 H   0  0  0  0  0  0
  -26.8653  -30.7817   22.0237 H   0  0  0  0  0  0
  -28.1282  -28.8377   21.2248 H   0  0  0  0  0  0
  -25.9269  -25.8527   19.0134 H   0  0  0  0  0  0
  -23.9764  -27.2957   18.9913 H   0  0  0  0  0  0
  -23.7955  -30.5713   19.3979 H   0  0  0  0  0  0
  -22.7792  -29.2361   19.8474 H   0  0  0  0  0  0
  -25.1308  -36.1877   25.0806 H   0  0  0  0  0  0
  -21.0003  -28.3306   24.1363 H   0  0  0  0  0  0
  -20.5677  -26.2329   23.3619 H   0  0  0  0  0  0
  -21.6654  -26.7429   22.1204 H   0  0  0  0  0  0
  -19.6919  -25.6283   21.1257 H   0  0  0  0  0  0
  -19.6696  -27.3174   20.6730 H   0  0  0  0  0  0
  -17.4208  -26.6676   21.4028 H   0  0  0  0  0  0
  -18.0339  -26.0077   22.9020 H   0  0  0  0  0  0
  -19.7954  -30.7284   24.2243 H   0  0  0  0  0  0
  -17.5032  -31.6274   24.5159 H   0  0  0  0  0  0
  -15.5365  -30.2984   23.7671 H   0  0  0  0  0  0
  -15.8685  -28.0813   22.7094 H   0  0  0  0  0  0
  -24.5891  -30.7101   25.7741 H   0  0  0  0  0  0
  -24.8893  -32.2936   26.4798 H   0  0  0  0  0  0
  -25.7995  -30.8963   27.0227 H   0  0  0  0  0  0
  -26.2996  -29.6698   24.1281 H   0  0  0  0  0  0
  -27.4003  -29.7275   25.4843 H   0  0  0  0  0  0
  -27.8899  -30.4216   23.9583 H   0  0  0  0  0  0
  -27.2655  -33.3664   26.2015 H   0  0  0  0  0  0
  -28.3899  -32.6854   25.0352 H   0  0  0  0  0  0
  -28.0683  -31.8504   26.5466 H   0  0  0  0  0  0
  -28.2584  -38.0093   24.7521 H   0  0  0  0  0  0
  -28.1083  -36.2621   24.6283 H   0  0  0  0  0  0
  -27.2294  -37.1426   25.8866 H   0  0  0  0  0  0
  -20.9444  -29.8766   21.6810 H   0  0  0  0  0  0
  -26.0158  -38.2818   24.1418 H   0  0  0  0  0  0
  -29.2161  -19.3197   22.4896 H   0  0  0  0  0  0
  -30.0198  -19.5009   18.3009 H   0  0  0  0  0  0
  -31.1441  -17.6327   21.2008 H   0  0  0  0  0  0
  -30.9890  -17.5230   19.4972 H   0  0  0  0  0  0
  -30.0491  -23.7813   19.8963 H   0  0  0  0  0  0
  -29.4508  -23.7350   21.5035 H   0  0  0  0  0  0
  -27.1472  -24.4727   20.6867 H   0  0  0  0  0  0
  -27.7484  -24.5139   19.0584 H   0  0  0  0  0  0
  -28.8621  -15.9735   20.7253 H   0  0  0  0  0  0
  1 25  1  0  0  0
  1 30  2  0  0  0
  1 80  1  0  0  0
  2  3  1  0  0  0
  2 25  1  0  0  0
  2 81  1  0  0  0
  2 82  1  0  0  0
  3  4  1  0  0  0
  3 83  1  0  0  0
  3 84  1  0  0  0
  4  5  1  0  0  0
  4 85  1  0  0  0
  4 86  1  0  0  0
  5  6  1  0  0  0
  5 26  1  0  0  0
  5 87  1  0  0  0
  6 25  1  0  0  0
  6 88  1  0  0  0
  6 89  1  0  0  0
  7  8  2  0  0  0
  7 26  1  0  0  0
  7 29  1  0  0  0
  8  9  1  0  0  0
  8 22  1  0  0  0
  9 10  1  0  0  0
  9 27  2  0  0  0
 10 11  2  0  0  0
 10 15  1  0  0  0
 11 12  1  0  0  0
 11 90  1  0  0  0
 12 13  2  0  0  0
 12 91  1  0  0  0
 13 14  1  0  0  0
 13 31  1  0  0  0
 14 15  2  0  0  0
 14 92  1  0  0  0
 15 93  1  0  0  0
 16 17  2  0  0  0
 16 21  1  0  0  0
 16 31  1  0  0  0
 17 18  1  0  0  0
 17 94  1  0  0  0
 18 19  2  0  0  0
 18 95  1  0  0  0
 19 20  1  0  0  0
 19 24  1  0  0  0
 20 21  2  0  0  0
 20 96  1  0  0  0
 21 23  1  0  0  0
 22 28  1  0  0  0
 22 32  2  0  0  0
 26 27  1  0  0  0
 28 97  1  0  0  0
 28 98  1  0  0  0
 29 99  1  0  0  0
 29100  1  0  0  0
 33 34  1  0  0  0
 33 66  1  0  0  0
 33 70  2  0  0  0
 34 36  1  0  0  0
 34 59  1  0  0  0
 34101  1  0  0  0
 35 44  2  0  0  0
 35 45  1  0  0  0
 35 68  1  0  0  0
 36 56  1  0  0  0
 36102  1  0  0  0
 37 39  1  0  0  0
 37 47  1  0  0  0
 37 66  1  0  0  0
 37103  1  0  0  0
 38 43  2  0  0  0
 38 46  1  0  0  0
 38 47  1  0  0  0
 39 64  1  0  0  0
 39 67  2  0  0  0
 40 52  1  0  0  0
 40 53  2  0  0  0
 40 58  1  0  0  0
 41104  1  0  0  0
 41105  1  0  0  0
 41106  1  0  0  0
 41 48  1  0  0  0
 42 43  1  0  0  0
 42 66  1  0  0  0
 42107  1  0  0  0
 42108  1  0  0  0
 43 44  1  0  0  0
 44109  1  0  0  0
 45 46  2  0  0  0
 45110  1  0  0  0
 46111  1  0  0  0
 47112  1  0  0  0
 47113  1  0  0  0
 48 56  1  0  0  0
 48 65  1  0  0  0
 48114  1  0  0  0
 49 50  1  0  0  0
 49 53  1  0  0  0
 49 64  1  0  0  0
 49115  1  0  0  0
 50 51  1  0  0  0
 50116  1  0  0  0
 50117  1  0  0  0
 51 52  1  0  0  0
 51118  1  0  0  0
 51119  1  0  0  0
 52120  1  0  0  0
 52121  1  0  0  0
 53 54  1  0  0  0
 54 55  2  0  0  0
 54122  1  0  0  0
 55 57  1  0  0  0
 55123  1  0  0  0
 56 69  2  0  0  0
 57 58  2  0  0  0
 57124  1  0  0  0
 58125  1  0  0  0
 59 60  1  0  0  0
 59 61  1  0  0  0
 59 62  1  0  0  0
 60126  1  0  0  0
 60127  1  0  0  0
 60128  1  0  0  0
 61129  1  0  0  0
 61130  1  0  0  0
 61131  1  0  0  0
 62132  1  0  0  0
 62133  1  0  0  0
 62134  1  0  0  0
 63 65  1  0  0  0
 63135  1  0  0  0
 63136  1  0  0  0
 63137  1  0  0  0
 64138  1  0  0  0
 65139  1  0  0  0
 68 77  1  0  0  0
 71 73  2  0  0  0
 71 78  1  0  0  0
 71140  1  0  0  0
 72 73  1  0  0  0
 72 79  2  0  0  0
 72141  1  0  0  0
 73 75  1  0  0  0
 74 76  1  0  0  0
 74 78  2  0  0  0
 74 79  1  0  0  0
 75 80  1  0  0  0
 75142  1  0  0  0
 75143  1  0  0  0
 76 77  1  0  0  0
 76144  1  0  0  0
 76145  1  0  0  0
 77146  1  0  0  0
 77147  1  0  0  0
 80148  1  0  0  0
M  ISO  4   1 100  68 101  77 101  80 100
M  END
> <chiral flag>
0

> <version>
0

> <s_m_source_file>
/data/baiqing/PycharmProjects/Reinvent-master-3.2/result/LINK_invent/BTK/process_docking_weight1_custom_sum_contain_oxygen_bond_distance_aromatic_linkinvent_7_9_3/rearranged_h_0043.sdf

> <i_m_source_file_index>
33

> <r_mmod_Potential_Energy-OPLS-2005>
47.5587043762207

> <r_mmod_Stretch_Energy-OPLS-2005>
199.286880493164

> <r_mmod_Bend_Energy-OPLS-2005>
250.834823608398

> <r_mmod_Torsional_Energy-OPLS-2005>
210.975341796875

> <r_mmod_Improper_Torsional_Energy-OPLS-2005>
10.3838357925415

> <r_mmod_Van_der_Waal_Energy-OPLS-2005>
140.951095581055

> <r_mmod_Electrostatic_Energy-OPLS-2005>
-677.906311035156

> <r_mmod_Solvation_Energy-OPLS-2005>
-239.61491394043

> <b_mmod_Minimization_Converged-OPLS-2005>
0

> <r_mmod_RMS_Derivative-OPLS-2005>
0.575472831726074

$$$$
33
                    3D
 Structure written by MMmdl.
163171  0  0  1  0            999 V2000
  -30.7034  -14.4354   20.6172 C   0  0  0  0  0  0
  -30.4232  -12.3049   19.4022 C   0  0  0  0  0  0
  -29.4825  -12.5098   18.1967 C   0  0  0  0  0  0
  -28.0057  -12.3713   18.6137 C   0  0  0  0  0  0
  -27.6612  -13.1989   19.8804 C   0  0  2  0  0  0
  -28.7032  -12.9470   20.9930 C   0  0  0  0  0  0
  -25.2585  -13.8156   20.5699 C   0  0  0  0  0  0
  -24.1819  -13.0452   20.9161 C   0  0  0  0  0  0
  -24.6350  -11.6907   20.8730 C   0  0  0  0  0  0
  -23.9014  -10.4295   21.0407 C   0  0  0  0  0  0
  -24.3571   -9.4209   21.9182 C   0  0  0  0  0  0
  -23.6242   -8.2245   22.0755 C   0  0  0  0  0  0
  -22.4229   -8.0264   21.3540 C   0  0  0  0  0  0
  -21.9859   -9.0247   20.4649 C   0  0  0  0  0  0
  -22.7185  -10.2125   20.3060 C   0  0  0  0  0  0
  -21.6841   -6.0712   22.5269 C   0  0  0  0  0  0
  -21.4018   -6.5625   23.8199 C   0  0  0  0  0  0
  -21.3658   -5.6781   24.9167 C   0  0  0  0  0  0
  -21.6043   -4.3038   24.7212 C   0  0  0  0  0  0
  -21.8822   -3.8125   23.4334 C   0  0  0  0  0  0
  -21.9191   -4.6942   22.3391 C   0  0  0  0  0  0
  -22.7838  -13.5266   21.1812 C   0  0  0  0  0  0
  -22.1661   -4.2131   21.0967 F   0  0  0  0  0  0
  -21.5634   -3.4524   25.7725 F   0  0  0  0  0  0
  -30.0340  -13.2658   20.4440 N   0  0  0  0  0  0
  -26.3005  -12.9304   20.3381 N   0  0  0  0  0  0
  -25.9276  -11.6472   20.5757 N   0  0  0  0  0  0
  -22.0474  -12.8291   22.0372 N   0  0  0  0  0  0
  -25.4371  -15.1877   20.4161 N   0  0  0  0  0  0
  -31.8036  -14.6670   20.1049 O   0  0  0  0  0  0
  -21.6622   -6.8842   21.4218 O   0  0  0  0  0  0
  -22.3544  -14.5572   20.6645 O   0  0  0  0  0  0
  -24.6145  -31.8687   23.2073 C   0  0  0  0  0  0
  -25.9050  -32.4822   23.8370 C   0  0  1  0  0  0
  -27.2385  -27.4388   20.1063 C   0  0  0  0  0  0
  -25.5919  -33.8617   24.2319 N   0  0  0  0  0  0
  -23.4027  -30.4909   21.5466 C   0  0  2  0  0  0
  -24.8523  -28.9514   20.1177 C   0  0  0  0  0  0
  -22.7408  -29.4677   22.4976 C   0  0  0  0  0  0
  -18.0279  -28.1370   22.8468 C   0  0  0  0  0  0
  -24.1488  -36.7315   23.2633 C   0  0  0  0  0  0
  -25.9292  -30.8339   21.3611 C   0  0  0  0  0  0
  -26.0091  -29.4657   20.7174 C   0  0  0  0  0  0
  -27.2063  -28.7147   20.7119 C   0  0  0  0  0  0
  -26.0717  -26.9408   19.4919 C   0  0  0  0  0  0
  -24.8780  -27.6873   19.5015 C   0  0  0  0  0  0
  -23.6128  -29.8163   20.1631 C   0  0  0  0  0  0
  -25.4103  -36.3101   24.0329 C   0  0  1  0  0  0
  -20.5868  -28.3677   23.1307 C   0  0  2  0  0  0
  -20.6784  -26.9413   22.5410 C   0  0  0  0  0  0
  -19.5759  -26.6355   21.5221 C   0  0  0  0  0  0
  -18.1934  -26.7906   22.1626 C   0  0  0  0  0  0
  -19.1520  -28.8839   23.2888 C   0  0  0  0  0  0
  -18.9431  -30.1440   23.8903 C   0  0  0  0  0  0
  -17.6430  -30.6561   24.0565 C   0  0  0  0  0  0
  -25.9038  -34.9478   23.5121 C   0  0  0  0  0  0
  -16.5331  -29.9062   23.6309 C   0  0  0  0  0  0
  -16.7268  -28.6492   23.0312 C   0  0  0  0  0  0
  -26.4476  -31.6588   25.0691 C   0  0  0  0  0  0
  -25.3741  -31.3698   26.1435 C   0  0  0  0  0  0
  -27.0303  -30.3026   24.6066 C   0  0  0  0  0  0
  -27.6059  -32.4297   25.7450 C   0  0  0  0  0  0
  -27.5575  -37.1807   24.8460 C   0  0  0  0  0  0
  -21.4140  -29.3046   22.3712 N   0  0  0  0  0  0
  -26.4294  -37.3778   23.9400 N   0  0  0  0  0  0
  -24.6665  -31.0801   22.0962 N   0  0  0  0  0  0
  -23.4173  -28.8238   23.3033 O   0  0  0  0  0  0
  -28.3998  -26.7022   20.0743 O   0  0  0  0  0  0
  -26.5585  -34.8943   22.4674 O   0  0  0  0  0  0
  -23.5347  -32.1430   23.7488 O   0  0  0  0  0  0
  -30.3933  -23.1462   22.5476 C   0  0  0  0  0  0
  -29.4939  -22.4450   21.7233 C   0  0  0  0  0  0
  -29.9503  -21.1860   21.2453 C   0  0  0  0  0  0
  -31.9674  -21.5256   22.2950 C   0  0  0  0  0  0
  -33.3569  -21.0031   22.5863 C   0  0  0  0  0  0
  -28.1160  -23.0606   21.4477 C   0  0  0  0  0  0
  -29.1499  -20.1870   20.3965 C   0  0  0  0  0  0
  -28.1044  -24.2423   20.4386 C   0  0  0  0  0  0
  -29.0508  -18.7669   21.0274 C   0  0  0  0  0  0
  -30.2051  -17.8028   20.6376 C   0  0  0  0  0  0
  -30.5338  -16.7049   21.6815 C   0  0  0  0  0  0
  -28.4774  -25.6292   21.0241 C   0  0  0  0  0  0
  -31.6229  -22.6853   22.8354 N   0  0  0  0  0  0
  -31.2029  -20.7780   21.5179 N   0  0  0  0  0  0
  -30.0442  -15.3693   21.3242 N   0  0  0  0  0  0
  -31.4634  -12.4216   19.0916 H   0  0  0  0  0  0
  -30.3407  -11.2881   19.7872 H   0  0  0  0  0  0
  -29.7115  -11.7889   17.4100 H   0  0  0  0  0  0
  -29.6504  -13.4984   17.7668 H   0  0  0  0  0  0
  -27.8121  -11.3133   18.7969 H   0  0  0  0  0  0
  -27.3544  -12.6621   17.7892 H   0  0  0  0  0  0
  -27.7153  -14.2507   19.5991 H   0  0  0  0  0  0
  -28.6833  -11.9003   21.3022 H   0  0  0  0  0  0
  -28.4582  -13.5120   21.8929 H   0  0  0  0  0  0
  -25.2711   -9.5694   22.4755 H   0  0  0  0  0  0
  -23.9939   -7.4648   22.7492 H   0  0  0  0  0  0
  -21.0785   -8.8771   19.8954 H   0  0  0  0  0  0
  -22.3639  -10.9669   19.6170 H   0  0  0  0  0  0
  -21.2029   -7.6133   23.9705 H   0  0  0  0  0  0
  -21.1477   -6.0506   25.9076 H   0  0  0  0  0  0
  -22.0604   -2.7582   23.2840 H   0  0  0  0  0  0
  -22.4037  -11.9927   22.4749 H   0  0  0  0  0  0
  -21.1106  -13.1363   22.2585 H   0  0  0  0  0  0
  -24.6792  -15.8490   20.5454 H   0  0  0  0  0  0
  -26.3000  -15.6254   20.1199 H   0  0  0  0  0  0
  -26.7120  -32.5543   23.1142 H   0  0  0  0  0  0
  -25.0094  -33.9753   25.0478 H   0  0  0  0  0  0
  -22.6906  -31.3061   21.4029 H   0  0  0  0  0  0
  -23.3742  -35.9658   23.3304 H   0  0  0  0  0  0
  -24.3587  -36.8921   22.2048 H   0  0  0  0  0  0
  -23.7262  -37.6530   23.6642 H   0  0  0  0  0  0
  -26.0368  -31.5973   20.5895 H   0  0  0  0  0  0
  -26.8176  -30.8948   21.9762 H   0  0  0  0  0  0
  -28.1031  -29.1100   21.1699 H   0  0  0  0  0  0
  -26.0895  -25.9838   18.9912 H   0  0  0  0  0  0
  -23.9935  -27.2882   19.0238 H   0  0  0  0  0  0
  -23.7194  -30.5849   19.3963 H   0  0  0  0  0  0
  -22.7393  -29.2303   19.8724 H   0  0  0  0  0  0
  -25.1287  -36.1952   25.0819 H   0  0  0  0  0  0
  -20.9952  -28.3251   24.1429 H   0  0  0  0  0  0
  -20.5710  -26.2297   23.3606 H   0  0  0  0  0  0
  -21.6660  -26.7466   22.1213 H   0  0  0  0  0  0
  -19.6942  -25.6253   21.1286 H   0  0  0  0  0  0
  -19.6700  -27.3132   20.6727 H   0  0  0  0  0  0
  -17.4210  -26.6632   21.4030 H   0  0  0  0  0  0
  -18.0339  -26.0054   22.9030 H   0  0  0  0  0  0
  -19.7899  -30.7256   24.2285 H   0  0  0  0  0  0
  -17.4970  -31.6225   24.5186 H   0  0  0  0  0  0
  -15.5327  -30.2959   23.7603 H   0  0  0  0  0  0
  -15.8681  -28.0815   22.6986 H   0  0  0  0  0  0
  -24.5911  -30.7057   25.7752 H   0  0  0  0  0  0
  -24.8949  -32.2871   26.4873 H   0  0  0  0  0  0
  -25.8097  -30.8855   27.0187 H   0  0  0  0  0  0
  -26.2847  -29.6776   24.1147 H   0  0  0  0  0  0
  -27.4097  -29.7266   25.4516 H   0  0  0  0  0  0
  -27.8668  -30.4319   23.9194 H   0  0  0  0  0  0
  -27.2676  -33.3585   26.2054 H   0  0  0  0  0  0
  -28.3856  -32.6873   25.0268 H   0  0  0  0  0  0
  -28.0740  -31.8402   26.5343 H   0  0  0  0  0  0
  -28.2599  -38.0096   24.7500 H   0  0  0  0  0  0
  -28.1071  -36.2636   24.6296 H   0  0  0  0  0  0
  -27.2306  -37.1466   25.8868 H   0  0  0  0  0  0
  -20.9307  -29.8744   21.6907 H   0  0  0  0  0  0
  -26.0190  -38.2862   24.1382 H   0  0  0  0  0  0
  -30.1284  -24.0943   22.9910 H   0  0  0  0  0  0
  -34.0991  -21.5979   22.0567 H   0  0  0  0  0  0
  -33.4624  -19.9666   22.2652 H   0  0  0  0  0  0
  -33.5786  -21.0465   23.6526 H   0  0  0  0  0  0
  -27.6963  -23.4019   22.3960 H   0  0  0  0  0  0
  -27.4179  -22.2974   21.1117 H   0  0  0  0  0  0
  -29.5965  -20.1269   19.4037 H   0  0  0  0  0  0
  -28.1406  -20.5499   20.2270 H   0  0  0  0  0  0
  -27.0857  -24.3152   20.0622 H   0  0  0  0  0  0
  -28.7229  -24.0107   19.5714 H   0  0  0  0  0  0
  -28.1174  -18.3040   20.7060 H   0  0  0  0  0  0
  -28.9636  -18.8686   22.1091 H   0  0  0  0  0  0
  -31.1139  -18.3895   20.5024 H   0  0  0  0  0  0
  -30.0160  -17.3671   19.6560 H   0  0  0  0  0  0
  -30.1340  -16.9716   22.6601 H   0  0  0  0  0  0
  -31.6160  -16.6584   21.8236 H   0  0  0  0  0  0
  -29.5088  -25.6071   21.3759 H   0  0  0  0  0  0
  -27.8662  -25.8431   21.9021 H   0  0  0  0  0  0
  -29.1357  -15.1026   21.6769 H   0  0  0  0  0  0
  1 25  1  0  0  0
  1 30  2  0  0  0
  1 85  1  0  0  0
  2  3  1  0  0  0
  2 25  1  0  0  0
  2 86  1  0  0  0
  2 87  1  0  0  0
  3  4  1  0  0  0
  3 88  1  0  0  0
  3 89  1  0  0  0
  4  5  1  0  0  0
  4 90  1  0  0  0
  4 91  1  0  0  0
  5  6  1  0  0  0
  5 26  1  0  0  0
  5 92  1  0  0  0
  6 25  1  0  0  0
  6 93  1  0  0  0
  6 94  1  0  0  0
  7  8  2  0  0  0
  7 26  1  0  0  0
  7 29  1  0  0  0
  8  9  1  0  0  0
  8 22  1  0  0  0
  9 10  1  0  0  0
  9 27  2  0  0  0
 10 11  2  0  0  0
 10 15  1  0  0  0
 11 12  1  0  0  0
 11 95  1  0  0  0
 12 13  2  0  0  0
 12 96  1  0  0  0
 13 14  1  0  0  0
 13 31  1  0  0  0
 14 15  2  0  0  0
 14 97  1  0  0  0
 15 98  1  0  0  0
 16 17  2  0  0  0
 16 21  1  0  0  0
 16 31  1  0  0  0
 17 18  1  0  0  0
 17 99  1  0  0  0
 18 19  2  0  0  0
 18100  1  0  0  0
 19 20  1  0  0  0
 19 24  1  0  0  0
 20 21  2  0  0  0
 20101  1  0  0  0
 21 23  1  0  0  0
 22 28  1  0  0  0
 22 32  2  0  0  0
 26 27  1  0  0  0
 28102  1  0  0  0
 28103  1  0  0  0
 29104  1  0  0  0
 29105  1  0  0  0
 33 34  1  0  0  0
 33 66  1  0  0  0
 33 70  2  0  0  0
 34 36  1  0  0  0
 34 59  1  0  0  0
 34106  1  0  0  0
 35 44  2  0  0  0
 35 45  1  0  0  0
 35 68  1  0  0  0
 36 56  1  0  0  0
 36107  1  0  0  0
 37 39  1  0  0  0
 37 47  1  0  0  0
 37 66  1  0  0  0
 37108  1  0  0  0
 38 43  2  0  0  0
 38 46  1  0  0  0
 38 47  1  0  0  0
 39 64  1  0  0  0
 39 67  2  0  0  0
 40 52  1  0  0  0
 40 53  2  0  0  0
 40 58  1  0  0  0
 41109  1  0  0  0
 41110  1  0  0  0
 41111  1  0  0  0
 41 48  1  0  0  0
 42 43  1  0  0  0
 42 66  1  0  0  0
 42112  1  0  0  0
 42113  1  0  0  0
 43 44  1  0  0  0
 44114  1  0  0  0
 45 46  2  0  0  0
 45115  1  0  0  0
 46116  1  0  0  0
 47117  1  0  0  0
 47118  1  0  0  0
 48 56  1  0  0  0
 48 65  1  0  0  0
 48119  1  0  0  0
 49 50  1  0  0  0
 49 53  1  0  0  0
 49 64  1  0  0  0
 49120  1  0  0  0
 50 51  1  0  0  0
 50121  1  0  0  0
 50122  1  0  0  0
 51 52  1  0  0  0
 51123  1  0  0  0
 51124  1  0  0  0
 52125  1  0  0  0
 52126  1  0  0  0
 53 54  1  0  0  0
 54 55  2  0  0  0
 54127  1  0  0  0
 55 57  1  0  0  0
 55128  1  0  0  0
 56 69  2  0  0  0
 57 58  2  0  0  0
 57129  1  0  0  0
 58130  1  0  0  0
 59 60  1  0  0  0
 59 61  1  0  0  0
 59 62  1  0  0  0
 60131  1  0  0  0
 60132  1  0  0  0
 60133  1  0  0  0
 61134  1  0  0  0
 61135  1  0  0  0
 61136  1  0  0  0
 62137  1  0  0  0
 62138  1  0  0  0
 62139  1  0  0  0
 63 65  1  0  0  0
 63140  1  0  0  0
 63141  1  0  0  0
 63142  1  0  0  0
 64143  1  0  0  0
 65144  1  0  0  0
 68 82  1  0  0  0
 71 72  2  0  0  0
 71 83  1  0  0  0
 71145  1  0  0  0
 72 73  1  0  0  0
 72 76  1  0  0  0
 73 77  1  0  0  0
 73 84  2  0  0  0
 74 75  1  0  0  0
 74 83  2  0  0  0
 74 84  1  0  0  0
 75146  1  0  0  0
 75147  1  0  0  0
 75148  1  0  0  0
 76 78  1  0  0  0
 76149  1  0  0  0
 76150  1  0  0  0
 77 79  1  0  0  0
 77151  1  0  0  0
 77152  1  0  0  0
 78 82  1  0  0  0
 78153  1  0  0  0
 78154  1  0  0  0
 79 80  1  0  0  0
 79155  1  0  0  0
 79156  1  0  0  0
 80 81  1  0  0  0
 80157  1  0  0  0
 80158  1  0  0  0
 81 85  1  0  0  0
 81159  1  0  0  0
 81160  1  0  0  0
 82161  1  0  0  0
 82162  1  0  0  0
 85163  1  0  0  0
M  ISO  4   1 100  68 101  82 101  85 100
M  END
> <chiral flag>
0

> <version>
0

> <s_m_source_file>
/data/baiqing/PycharmProjects/Reinvent-master-3.2/result/LINK_invent/BTK/process_docking_weight1_custom_sum_contain_oxygen_bond_distance_aromatic_linkinvent_7_9_3/rearranged_h_0043.sdf

> <i_m_source_file_index>
34

> <r_mmod_Potential_Energy-OPLS-2005>
-428.094268798828

> <r_mmod_Stretch_Energy-OPLS-2005>
36.6446571350098

> <r_mmod_Bend_Energy-OPLS-2005>
104.543182373047

> <r_mmod_Torsional_Energy-OPLS-2005>
239.588912963867

> <r_mmod_Improper_Torsional_Energy-OPLS-2005>
2.22499895095825

> <r_mmod_Van_der_Waal_Energy-OPLS-2005>
158.308731079102

> <r_mmod_Electrostatic_Energy-OPLS-2005>
-748.547668457031

> <r_mmod_Solvation_Energy-OPLS-2005>
-230.327056884766

> <b_mmod_Minimization_Converged-OPLS-2005>
0

> <r_mmod_RMS_Derivative-OPLS-2005>
2.183274269104

$$$$
34
                    3D
 Structure written by MMmdl.
160168  0  0  1  0            999 V2000
  -30.7267  -14.4769   20.3560 C   0  0  0  0  0  0
  -30.4425  -12.2777   19.3905 C   0  0  0  0  0  0
  -29.4836  -12.4089   18.1911 C   0  0  0  0  0  0
  -28.0163  -12.2790   18.6512 C   0  0  0  0  0  0
  -27.6711  -13.1811   19.8643 C   0  0  2  0  0  0
  -28.7383  -13.0515   20.9737 C   0  0  0  0  0  0
  -25.2749  -13.7998   20.5798 C   0  0  0  0  0  0
  -24.1943  -13.0364   20.9136 C   0  0  0  0  0  0
  -24.6461  -11.6817   20.8697 C   0  0  0  0  0  0
  -23.9104  -10.4253   21.0323 C   0  0  0  0  0  0
  -24.3639   -9.4176   21.9123 C   0  0  0  0  0  0
  -23.6297   -8.2235   22.0714 C   0  0  0  0  0  0
  -22.4263   -8.0312   21.3526 C   0  0  0  0  0  0
  -21.9922   -9.0260   20.4608 C   0  0  0  0  0  0
  -22.7256  -10.2122   20.2979 C   0  0  0  0  0  0
  -21.6873   -6.0777   22.5267 C   0  0  0  0  0  0
  -21.4043   -6.5673   23.8204 C   0  0  0  0  0  0
  -21.3641   -5.6810   24.9151 C   0  0  0  0  0  0
  -21.6030   -4.3075   24.7189 C   0  0  0  0  0  0
  -21.8834   -3.8180   23.4316 C   0  0  0  0  0  0
  -21.9209   -4.7006   22.3378 C   0  0  0  0  0  0
  -22.7988  -13.5196   21.1861 C   0  0  0  0  0  0
  -22.1688   -4.2201   21.0955 F   0  0  0  0  0  0
  -21.5588   -3.4539   25.7689 F   0  0  0  0  0  0
  -30.0611  -13.2955   20.3786 N   0  0  0  0  0  0
  -26.3171  -12.9167   20.3484 N   0  0  0  0  0  0
  -25.9400  -11.6354   20.5853 N   0  0  0  0  0  0
  -22.0720  -12.8102   22.0377 N   0  0  0  0  0  0
  -25.4640  -15.1671   20.4338 N   0  0  0  0  0  0
  -31.9549  -14.5102   20.3753 O   0  0  0  0  0  0
  -21.6625   -6.8911   21.4230 O   0  0  0  0  0  0
  -22.3664  -14.5562   20.6802 O   0  0  0  0  0  0
  -24.6180  -31.8681   23.2142 C   0  0  0  0  0  0
  -25.9121  -32.4824   23.8396 C   0  0  1  0  0  0
  -27.2180  -27.4395   20.0693 C   0  0  0  0  0  0
  -25.5974  -33.8630   24.2309 N   0  0  0  0  0  0
  -23.3958  -30.4924   21.5618 C   0  0  2  0  0  0
  -24.8318  -28.9662   20.1118 C   0  0  0  0  0  0
  -22.7384  -29.4666   22.5100 C   0  0  0  0  0  0
  -18.0262  -28.1362   22.8549 C   0  0  0  0  0  0
  -24.1456  -36.7224   23.2617 C   0  0  0  0  0  0
  -25.9229  -30.8367   21.3603 C   0  0  0  0  0  0
  -25.9946  -29.4723   20.7024 C   0  0  0  0  0  0
  -27.1885  -28.7146   20.6845 C   0  0  0  0  0  0
  -26.0229  -26.9403   19.5056 C   0  0  0  0  0  0
  -24.8393  -27.6982   19.5119 C   0  0  0  0  0  0
  -23.5879  -29.8199   20.1761 C   0  0  0  0  0  0
  -25.4095  -36.3084   24.0317 C   0  0  1  0  0  0
  -20.5860  -28.3613   23.1377 C   0  0  2  0  0  0
  -20.6745  -26.9361   22.5467 C   0  0  0  0  0  0
  -19.5710  -26.6380   21.5271 C   0  0  0  0  0  0
  -18.1878  -26.7940   22.1663 C   0  0  0  0  0  0
  -19.1521  -28.8827   23.2942 C   0  0  0  0  0  0
  -18.9446  -30.1452   23.8902 C   0  0  0  0  0  0
  -17.6440  -30.6586   24.0574 C   0  0  0  0  0  0
  -25.9042  -34.9473   23.5092 C   0  0  0  0  0  0
  -16.5323  -29.9068   23.6362 C   0  0  0  0  0  0
  -16.7253  -28.6491   23.0387 C   0  0  0  0  0  0
  -26.4547  -31.6641   25.0755 C   0  0  0  0  0  0
  -25.3806  -31.3797   26.1497 C   0  0  0  0  0  0
  -27.0371  -30.3067   24.6197 C   0  0  0  0  0  0
  -27.6104  -32.4383   25.7521 C   0  0  0  0  0  0
  -27.5528  -37.1761   24.8463 C   0  0  0  0  0  0
  -21.4129  -29.2986   22.3795 N   0  0  0  0  0  0
  -26.4229  -37.3815   23.9443 N   0  0  0  0  0  0
  -24.6655  -31.0781   22.1031 N   0  0  0  0  0  0
  -23.4160  -28.8213   23.3139 O   0  0  0  0  0  0
  -28.4098  -26.7389   20.0300 O   0  0  0  0  0  0
  -26.5552  -34.8950   22.4622 O   0  0  0  0  0  0
  -23.5400  -32.1381   23.7599 O   0  0  0  0  0  0
  -27.3062  -23.3889   20.0389 C   0  0  0  0  0  0
  -29.0001  -22.5825   21.1327 C   0  0  0  0  0  0
  -28.3692  -24.2689   19.9531 C   0  0  0  0  0  0
  -31.0824  -16.7207   19.1422 C   0  0  0  0  0  0
  -28.5208  -25.5708   19.1951 C   0  0  0  0  0  0
  -27.2687  -18.4068   20.6926 C   0  0  0  0  0  0
  -28.0462  -17.3493   19.8696 C   0  0  0  0  0  0
  -27.8355  -19.8285   20.4653 C   0  0  0  0  0  0
  -29.0820  -16.5212   20.6661 C   0  0  0  0  0  0
  -27.0477  -21.0264   21.0469 C   0  0  0  0  0  0
  -30.0413  -15.7320   19.7412 C   0  0  2  0  0  0
  -29.4419  -23.7491   20.6782 N   0  0  0  0  0  0
  -27.7501  -22.2747   20.7564 N   0  0  0  0  0  0
  -31.4692  -12.4031   19.0343 H   0  0  0  0  0  0
  -30.3913  -11.2798   19.8294 H   0  0  0  0  0  0
  -29.7101  -11.6330   17.4562 H   0  0  0  0  0  0
  -29.6350  -13.3637   17.6841 H   0  0  0  0  0  0
  -27.8696  -11.2366   18.9367 H   0  0  0  0  0  0
  -27.3253  -12.4643   17.8293 H   0  0  0  0  0  0
  -27.6861  -14.2045   19.5013 H   0  0  0  0  0  0
  -28.7138  -12.0574   21.4207 H   0  0  0  0  0  0
  -28.5547  -13.7335   21.8034 H   0  0  0  0  0  0
  -25.2803   -9.5639   22.4686 H   0  0  0  0  0  0
  -24.0017   -7.4613   22.7419 H   0  0  0  0  0  0
  -21.0863   -8.8748   19.8920 H   0  0  0  0  0  0
  -22.3710  -10.9647   19.6062 H   0  0  0  0  0  0
  -21.2070   -7.6181   23.9701 H   0  0  0  0  0  0
  -21.1433   -6.0553   25.9052 H   0  0  0  0  0  0
  -22.0634   -2.7657   23.2780 H   0  0  0  0  0  0
  -22.4438  -11.9636   22.4466 H   0  0  0  0  0  0
  -21.1417  -13.1121   22.2875 H   0  0  0  0  0  0
  -24.7397  -15.8625   20.5574 H   0  0  0  0  0  0
  -26.3614  -15.5616   20.1898 H   0  0  0  0  0  0
  -26.7188  -32.5518   23.1149 H   0  0  0  0  0  0
  -25.0342  -33.9822   25.0598 H   0  0  0  0  0  0
  -22.6844  -31.3093   21.4298 H   0  0  0  0  0  0
  -23.3764  -35.9502   23.3321 H   0  0  0  0  0  0
  -24.3515  -36.8800   22.2009 H   0  0  0  0  0  0
  -23.7197  -37.6426   23.6626 H   0  0  0  0  0  0
  -26.0344  -31.6110   20.5985 H   0  0  0  0  0  0
  -26.8072  -30.8789   21.9837 H   0  0  0  0  0  0
  -28.0870  -29.1111   21.1389 H   0  0  0  0  0  0
  -25.9675  -25.9587   19.0639 H   0  0  0  0  0  0
  -23.9411  -27.2964   19.0607 H   0  0  0  0  0  0
  -23.6516  -30.5853   19.4027 H   0  0  0  0  0  0
  -22.7206  -29.2099   19.9140 H   0  0  0  0  0  0
  -25.1306  -36.1856   25.0808 H   0  0  0  0  0  0
  -20.9927  -28.3154   24.1504 H   0  0  0  0  0  0
  -20.5687  -26.2209   23.3640 H   0  0  0  0  0  0
  -21.6597  -26.7407   22.1217 H   0  0  0  0  0  0
  -19.6837  -25.6309   21.1243 H   0  0  0  0  0  0
  -19.6657  -27.3235   20.6836 H   0  0  0  0  0  0
  -17.4186  -26.6788   21.4007 H   0  0  0  0  0  0
  -18.0159  -26.0056   22.9007 H   0  0  0  0  0  0
  -19.7916  -30.7293   24.2216 H   0  0  0  0  0  0
  -17.4999  -31.6281   24.5151 H   0  0  0  0  0  0
  -15.5325  -30.2954   23.7714 H   0  0  0  0  0  0
  -15.8660  -28.0796   22.7082 H   0  0  0  0  0  0
  -24.5933  -30.7207   25.7821 H   0  0  0  0  0  0
  -24.9090  -32.2997   26.4944 H   0  0  0  0  0  0
  -25.8133  -30.8939   27.0249 H   0  0  0  0  0  0
  -26.2919  -29.6853   24.1209 H   0  0  0  0  0  0
  -27.4032  -29.7321   25.4721 H   0  0  0  0  0  0
  -27.8831  -30.4361   23.9440 H   0  0  0  0  0  0
  -27.2670  -33.3657   26.2122 H   0  0  0  0  0  0
  -28.3898  -32.6972   25.0340 H   0  0  0  0  0  0
  -28.0821  -31.8536   26.5437 H   0  0  0  0  0  0
  -28.2569  -38.0025   24.7517 H   0  0  0  0  0  0
  -28.0992  -36.2576   24.6266 H   0  0  0  0  0  0
  -27.2263  -37.1374   25.8868 H   0  0  0  0  0  0
  -20.9292  -29.8616   21.6939 H   0  0  0  0  0  0
  -26.0077  -38.2847   24.1586 H   0  0  0  0  0  0
  -26.3093  -23.4521   19.6255 H   0  0  0  0  0  0
  -29.6115  -21.9193   21.7273 H   0  0  0  0  0  0
  -31.5151  -17.3462   19.9263 H   0  0  0  0  0  0
  -30.6315  -17.3685   18.3915 H   0  0  0  0  0  0
  -31.9166  -16.2272   18.6384 H   0  0  0  0  0  0
  -27.8805  -25.6003   18.3114 H   0  0  0  0  0  0
  -29.5230  -25.6010   18.7642 H   0  0  0  0  0  0
  -27.2750  -18.1471   21.7546 H   0  0  0  0  0  0
  -26.2231  -18.3751   20.3865 H   0  0  0  0  0  0
  -28.5076  -17.8272   19.0052 H   0  0  0  0  0  0
  -27.3395  -16.6527   19.4243 H   0  0  0  0  0  0
  -27.9245  -19.9954   19.3910 H   0  0  0  0  0  0
  -28.8517  -19.8539   20.8563 H   0  0  0  0  0  0
  -28.5529  -15.8537   21.3415 H   0  0  0  0  0  0
  -29.6684  -17.1797   21.3070 H   0  0  0  0  0  0
  -26.9334  -20.9427   22.1306 H   0  0  0  0  0  0
  -26.0440  -21.0750   20.6229 H   0  0  0  0  0  0
  -29.4841  -15.3474   18.8870 H   0  0  0  0  0  0
  1 25  1  0  0  0
  1 30  2  0  0  0
  1 81  1  0  0  0
  2  3  1  0  0  0
  2 25  1  0  0  0
  2 84  1  0  0  0
  2 85  1  0  0  0
  3  4  1  0  0  0
  3 86  1  0  0  0
  3 87  1  0  0  0
  4  5  1  0  0  0
  4 88  1  0  0  0
  4 89  1  0  0  0
  5  6  1  0  0  0
  5 26  1  0  0  0
  5 90  1  0  0  0
  6 25  1  0  0  0
  6 91  1  0  0  0
  6 92  1  0  0  0
  7  8  2  0  0  0
  7 26  1  0  0  0
  7 29  1  0  0  0
  8  9  1  0  0  0
  8 22  1  0  0  0
  9 10  1  0  0  0
  9 27  2  0  0  0
 10 11  2  0  0  0
 10 15  1  0  0  0
 11 12  1  0  0  0
 11 93  1  0  0  0
 12 13  2  0  0  0
 12 94  1  0  0  0
 13 14  1  0  0  0
 13 31  1  0  0  0
 14 15  2  0  0  0
 14 95  1  0  0  0
 15 96  1  0  0  0
 16 17  2  0  0  0
 16 21  1  0  0  0
 16 31  1  0  0  0
 17 18  1  0  0  0
 17 97  1  0  0  0
 18 19  2  0  0  0
 18 98  1  0  0  0
 19 20  1  0  0  0
 19 24  1  0  0  0
 20 21  2  0  0  0
 20 99  1  0  0  0
 21 23  1  0  0  0
 22 28  1  0  0  0
 22 32  2  0  0  0
 26 27  1  0  0  0
 28100  1  0  0  0
 28101  1  0  0  0
 29102  1  0  0  0
 29103  1  0  0  0
 33 34  1  0  0  0
 33 66  1  0  0  0
 33 70  2  0  0  0
 34 36  1  0  0  0
 34 59  1  0  0  0
 34104  1  0  0  0
 35 44  2  0  0  0
 35 45  1  0  0  0
 35 68  1  0  0  0
 36 56  1  0  0  0
 36105  1  0  0  0
 37 39  1  0  0  0
 37 47  1  0  0  0
 37 66  1  0  0  0
 37106  1  0  0  0
 38 43  2  0  0  0
 38 46  1  0  0  0
 38 47  1  0  0  0
 39 64  1  0  0  0
 39 67  2  0  0  0
 40 52  1  0  0  0
 40 53  2  0  0  0
 40 58  1  0  0  0
 41107  1  0  0  0
 41108  1  0  0  0
 41109  1  0  0  0
 41 48  1  0  0  0
 42 43  1  0  0  0
 42 66  1  0  0  0
 42110  1  0  0  0
 42111  1  0  0  0
 43 44  1  0  0  0
 44112  1  0  0  0
 45 46  2  0  0  0
 45113  1  0  0  0
 46114  1  0  0  0
 47115  1  0  0  0
 47116  1  0  0  0
 48 56  1  0  0  0
 48 65  1  0  0  0
 48117  1  0  0  0
 49 50  1  0  0  0
 49 53  1  0  0  0
 49 64  1  0  0  0
 49118  1  0  0  0
 50 51  1  0  0  0
 50119  1  0  0  0
 50120  1  0  0  0
 51 52  1  0  0  0
 51121  1  0  0  0
 51122  1  0  0  0
 52123  1  0  0  0
 52124  1  0  0  0
 53 54  1  0  0  0
 54 55  2  0  0  0
 54125  1  0  0  0
 55 57  1  0  0  0
 55126  1  0  0  0
 56 69  2  0  0  0
 57 58  2  0  0  0
 57127  1  0  0  0
 58128  1  0  0  0
 59 60  1  0  0  0
 59 61  1  0  0  0
 59 62  1  0  0  0
 60129  1  0  0  0
 60130  1  0  0  0
 60131  1  0  0  0
 61132  1  0  0  0
 61133  1  0  0  0
 61134  1  0  0  0
 62135  1  0  0  0
 62136  1  0  0  0
 62137  1  0  0  0
 63 65  1  0  0  0
 63138  1  0  0  0
 63139  1  0  0  0
 63140  1  0  0  0
 64141  1  0  0  0
 65142  1  0  0  0
 68 75  1  0  0  0
 71 73  2  0  0  0
 71 83  1  0  0  0
 71143  1  0  0  0
 72 82  2  0  0  0
 72 83  1  0  0  0
 72144  1  0  0  0
 73 75  1  0  0  0
 73 82  1  0  0  0
 74145  1  0  0  0
 74146  1  0  0  0
 74147  1  0  0  0
 74 81  1  0  0  0
 75148  1  0  0  0
 75149  1  0  0  0
 76 77  1  0  0  0
 76 78  1  0  0  0
 76150  1  0  0  0
 76151  1  0  0  0
 77 79  1  0  0  0
 77152  1  0  0  0
 77153  1  0  0  0
 78 80  1  0  0  0
 78154  1  0  0  0
 78155  1  0  0  0
 79 81  1  0  0  0
 79156  1  0  0  0
 79157  1  0  0  0
 80 83  1  0  0  0
 80158  1  0  0  0
 80159  1  0  0  0
 81160  1  0  0  0
M  ISO  4   1 100  68 101  75 101  81 100
M  END
> <chiral flag>
0

> <version>
0

> <s_m_source_file>
/data/baiqing/PycharmProjects/Reinvent-master-3.2/result/LINK_invent/BTK/process_docking_weight1_custom_sum_contain_oxygen_bond_distance_aromatic_linkinvent_7_9_3/rearranged_h_0043.sdf

> <i_m_source_file_index>
35

> <r_mmod_Potential_Energy-OPLS-2005>
111.25318145752

> <r_mmod_Stretch_Energy-OPLS-2005>
36.3380661010742

> <r_mmod_Bend_Energy-OPLS-2005>
113.501190185547

> <r_mmod_Torsional_Energy-OPLS-2005>
245.915893554688

> <r_mmod_Improper_Torsional_Energy-OPLS-2005>
16.0109329223633

> <r_mmod_Van_der_Waal_Energy-OPLS-2005>
132.473281860352

> <r_mmod_Electrostatic_Energy-OPLS-2005>
-263.044067382812

> <r_mmod_Solvation_Energy-OPLS-2005>
-211.313034057617

> <b_mmod_Minimization_Converged-OPLS-2005>
0

> <r_mmod_RMS_Derivative-OPLS-2005>
7.19095087051392

$$$$
35
                    3D
 Structure written by MMmdl.
156164  0  0  1  0            999 V2000
  -30.6102  -14.7649   20.3523 C   0  0  0  0  0  0
  -30.4110  -12.4562   19.4468 C   0  0  0  0  0  0
  -29.4812  -12.4665   18.2150 C   0  0  0  0  0  0
  -28.0102  -12.2993   18.6376 C   0  0  0  0  0  0
  -27.6186  -13.2250   19.8145 C   0  0  2  0  0  0
  -28.6659  -13.2314   20.9463 C   0  0  0  0  0  0
  -25.2475  -13.8190   20.5742 C   0  0  0  0  0  0
  -24.1771  -13.0507   20.9244 C   0  0  0  0  0  0
  -24.6298  -11.6920   20.8734 C   0  0  0  0  0  0
  -23.9003  -10.4323   21.0454 C   0  0  0  0  0  0
  -24.3600   -9.4209   21.9196 C   0  0  0  0  0  0
  -23.6295   -8.2236   22.0743 C   0  0  0  0  0  0
  -22.4278   -8.0271   21.3531 C   0  0  0  0  0  0
  -21.9899   -9.0239   20.4649 C   0  0  0  0  0  0
  -22.7198  -10.2120   20.3079 C   0  0  0  0  0  0
  -21.6851   -6.0732   22.5274 C   0  0  0  0  0  0
  -21.4000   -6.5667   23.8186 C   0  0  0  0  0  0
  -21.3632   -5.6826   24.9164 C   0  0  0  0  0  0
  -21.6101   -4.3101   24.7241 C   0  0  0  0  0  0
  -21.8786   -3.8164   23.4370 C   0  0  0  0  0  0
  -21.9185   -4.6972   22.3418 C   0  0  0  0  0  0
  -22.7809  -13.5267   21.1948 C   0  0  0  0  0  0
  -22.1656   -4.2158   21.0994 F   0  0  0  0  0  0
  -21.5623   -3.4580   25.7751 F   0  0  0  0  0  0
  -29.9676  -13.5493   20.3373 N   0  0  0  0  0  0
  -26.2814  -12.9346   20.3167 N   0  0  0  0  0  0
  -25.9195  -11.6523   20.5715 N   0  0  0  0  0  0
  -22.0527  -12.8188   22.0486 N   0  0  0  0  0  0
  -25.4421  -15.1896   20.4177 N   0  0  0  0  0  0
  -31.8281  -14.8192   20.1522 O   0  0  0  0  0  0
  -21.6639   -6.8869   21.4219 O   0  0  0  0  0  0
  -22.3469  -14.5589   20.6793 O   0  0  0  0  0  0
  -24.6379  -31.8477   23.1999 C   0  0  0  0  0  0
  -25.9193  -32.4730   23.8360 C   0  0  1  0  0  0
  -27.2400  -27.2672   20.1224 C   0  0  0  0  0  0
  -25.5930  -33.8530   24.2290 N   0  0  0  0  0  0
  -23.4401  -30.4708   21.5448 C   0  0  2  0  0  0
  -24.8876  -28.9159   20.1164 C   0  0  0  0  0  0
  -22.7694  -29.4542   22.4987 C   0  0  0  0  0  0
  -18.0478  -28.1334   22.8515 C   0  0  0  0  0  0
  -24.1462  -36.7313   23.2638 C   0  0  0  0  0  0
  -25.9840  -30.7707   21.3718 C   0  0  0  0  0  0
  -26.0609  -29.3906   20.7165 C   0  0  0  0  0  0
  -27.2456  -28.5817   20.6978 C   0  0  0  0  0  0
  -26.0424  -26.8523   19.5068 C   0  0  0  0  0  0
  -24.8854  -27.6586   19.4900 C   0  0  0  0  0  0
  -23.6536  -29.7984   20.1605 C   0  0  0  0  0  0
  -25.4083  -36.3066   24.0317 C   0  0  1  0  0  0
  -20.6103  -28.3612   23.1363 C   0  0  2  0  0  0
  -20.6962  -26.9315   22.5524 C   0  0  0  0  0  0
  -19.5989  -26.6337   21.5291 C   0  0  0  0  0  0
  -18.2135  -26.7851   22.1729 C   0  0  0  0  0  0
  -19.1734  -28.8796   23.2893 C   0  0  0  0  0  0
  -18.9697  -30.1453   23.8821 C   0  0  0  0  0  0
  -17.6720  -30.6598   24.0532 C   0  0  0  0  0  0
  -25.9020  -34.9418   23.5110 C   0  0  0  0  0  0
  -16.5569  -29.9068   23.6378 C   0  0  0  0  0  0
  -16.7462  -28.6491   23.0385 C   0  0  0  0  0  0
  -26.4526  -31.6584   25.0794 C   0  0  0  0  0  0
  -25.3738  -31.3747   26.1544 C   0  0  0  0  0  0
  -27.0377  -30.2995   24.6287 C   0  0  0  0  0  0
  -27.6072  -32.4301   25.7563 C   0  0  0  0  0  0
  -27.5558  -37.1818   24.8456 C   0  0  0  0  0  0
  -21.4408  -29.2948   22.3718 N   0  0  0  0  0  0
  -26.4275  -37.3764   23.9394 N   0  0  0  0  0  0
  -24.7072  -31.0487   22.0949 N   0  0  0  0  0  0
  -23.4445  -28.8064   23.3054 O   0  0  0  0  0  0
  -28.3292  -26.3698   20.0877 O   0  0  0  0  0  0
  -26.5613  -34.8897   22.4675 O   0  0  0  0  0  0
  -23.5511  -32.1225   23.7326 O   0  0  0  0  0  0
  -28.0529  -21.7698   19.0964 C   0  0  0  0  0  0
  -29.1418  -21.4685   19.8917 C   0  0  0  0  0  0
  -28.4876  -23.6854   20.1419 C   0  0  0  0  0  0
  -27.3329  -20.8636   18.1412 C   0  0  0  0  0  0
  -30.5615  -23.0084   21.3752 C   0  0  0  0  0  0
  -29.9677  -20.1161   20.0356 C   0  0  0  0  0  0
  -28.2114  -25.0864   20.8541 C   0  0  0  0  0  0
  -29.3105  -18.6295   20.0701 C   0  0  0  0  0  0
  -30.3418  -17.3785   20.1627 C   0  0  0  0  0  0
  -27.6528  -23.1123   19.2679 N   0  0  0  0  0  0
  -29.4377  -22.7424   20.4944 N   0  0  0  0  0  0
  -29.8498  -15.9307   20.3167 N   0  0  0  0  0  0
  -31.4510  -12.5678   19.1286 H   0  0  0  0  0  0
  -30.3526  -11.4977   19.9629 H   0  0  0  0  0  0
  -29.7535  -11.6688   17.5220 H   0  0  0  0  0  0
  -29.6033  -13.4024   17.6703 H   0  0  0  0  0  0
  -27.8428  -11.2537   18.9066 H   0  0  0  0  0  0
  -27.3540  -12.4828   17.7850 H   0  0  0  0  0  0
  -27.5911  -14.2255   19.3869 H   0  0  0  0  0  0
  -28.6827  -12.2717   21.4630 H   0  0  0  0  0  0
  -28.3968  -13.9859   21.6893 H   0  0  0  0  0  0
  -25.2750   -9.5676   22.4770 H   0  0  0  0  0  0
  -24.0034   -7.4601   22.7424 H   0  0  0  0  0  0
  -21.0856   -8.8737   19.8939 H   0  0  0  0  0  0
  -22.3665  -10.9666   19.6216 H   0  0  0  0  0  0
  -21.1938   -7.6174   23.9688 H   0  0  0  0  0  0
  -21.1533   -6.0584   25.9074 H   0  0  0  0  0  0
  -22.0591   -2.7644   23.2878 H   0  0  0  0  0  0
  -22.4112  -11.9697   22.4584 H   0  0  0  0  0  0
  -21.1269  -13.1260   22.3035 H   0  0  0  0  0  0
  -24.7139  -15.8901   20.5139 H   0  0  0  0  0  0
  -26.3079  -15.5778   20.0670 H   0  0  0  0  0  0
  -26.7262  -32.5357   23.1109 H   0  0  0  0  0  0
  -25.0019  -33.9647   25.0397 H   0  0  0  0  0  0
  -22.7350  -31.2861   21.3987 H   0  0  0  0  0  0
  -23.3703  -35.9675   23.3291 H   0  0  0  0  0  0
  -24.3560  -36.8964   22.2062 H   0  0  0  0  0  0
  -23.7264  -37.6522   23.6666 H   0  0  0  0  0  0
  -26.1130  -31.5321   20.6012 H   0  0  0  0  0  0
  -26.8607  -30.8269   22.0008 H   0  0  0  0  0  0
  -28.1531  -28.9554   21.1526 H   0  0  0  0  0  0
  -25.9995  -25.8797   19.0347 H   0  0  0  0  0  0
  -23.9935  -27.3090   18.9890 H   0  0  0  0  0  0
  -23.7642  -30.5624   19.3898 H   0  0  0  0  0  0
  -22.7779  -29.2126   19.8732 H   0  0  0  0  0  0
  -25.1272  -36.1900   25.0813 H   0  0  0  0  0  0
  -21.0199  -28.3146   24.1477 H   0  0  0  0  0  0
  -20.5876  -26.2189   23.3752 H   0  0  0  0  0  0
  -21.6841  -26.7332   22.1363 H   0  0  0  0  0  0
  -19.7182  -25.6246   21.1306 H   0  0  0  0  0  0
  -19.7004  -27.3234   20.6868 H   0  0  0  0  0  0
  -17.4388  -26.6496   21.4180 H   0  0  0  0  0  0
  -18.0619  -26.0034   22.9204 H   0  0  0  0  0  0
  -19.8232  -30.7266   24.2108 H   0  0  0  0  0  0
  -17.5353  -31.6292   24.5128 H   0  0  0  0  0  0
  -15.5592  -30.2980   23.7813 H   0  0  0  0  0  0
  -15.8869  -28.0797   22.7064 H   0  0  0  0  0  0
  -24.5906  -30.7098   25.7905 H   0  0  0  0  0  0
  -24.8957  -32.2931   26.4959 H   0  0  0  0  0  0
  -25.8077  -30.8953   27.0345 H   0  0  0  0  0  0
  -26.3002  -29.6773   24.1232 H   0  0  0  0  0  0
  -27.3975  -29.7239   25.4836 H   0  0  0  0  0  0
  -27.8890  -30.4299   23.9605 H   0  0  0  0  0  0
  -27.2706  -33.3594   26.2176 H   0  0  0  0  0  0
  -28.3894  -32.6898   25.0410 H   0  0  0  0  0  0
  -28.0750  -31.8418   26.5486 H   0  0  0  0  0  0
  -28.2587  -38.0098   24.7478 H   0  0  0  0  0  0
  -28.1047  -36.2651   24.6283 H   0  0  0  0  0  0
  -27.2304  -37.1465   25.8867 H   0  0  0  0  0  0
  -20.9574  -29.8728   21.6971 H   0  0  0  0  0  0
  -26.0151  -38.2839   24.1360 H   0  0  0  0  0  0
  -26.6891  -21.4227   17.4607 H   0  0  0  0  0  0
  -26.7057  -20.1488   18.6722 H   0  0  0  0  0  0
  -28.0417  -20.2870   17.5393 H   0  0  0  0  0  0
  -31.1250  -23.8593   20.9912 H   0  0  0  0  0  0
  -30.2023  -23.2212   22.3824 H   0  0  0  0  0  0
  -31.2354  -22.1590   21.4282 H   0  0  0  0  0  0
  -30.5769  -20.1761   20.9371 H   0  0  0  0  0  0
  -30.7042  -20.1028   19.2272 H   0  0  0  0  0  0
  -28.8501  -25.1711   21.7344 H   0  0  0  0  0  0
  -27.2062  -25.0191   21.2750 H   0  0  0  0  0  0
  -28.6280  -18.5609   20.9213 H   0  0  0  0  0  0
  -28.6710  -18.5037   19.1912 H   0  0  0  0  0  0
  -30.9828  -17.4378   19.2737 H   0  0  0  0  0  0
  -31.0080  -17.5588   21.0082 H   0  0  0  0  0  0
  -28.8474  -15.8208   20.3320 H   0  0  0  0  0  0
  1 25  1  0  0  0
  1 30  2  0  0  0
  1 82  1  0  0  0
  2  3  1  0  0  0
  2 25  1  0  0  0
  2 83  1  0  0  0
  2 84  1  0  0  0
  3  4  1  0  0  0
  3 85  1  0  0  0
  3 86  1  0  0  0
  4  5  1  0  0  0
  4 87  1  0  0  0
  4 88  1  0  0  0
  5  6  1  0  0  0
  5 26  1  0  0  0
  5 89  1  0  0  0
  6 25  1  0  0  0
  6 90  1  0  0  0
  6 91  1  0  0  0
  7  8  2  0  0  0
  7 26  1  0  0  0
  7 29  1  0  0  0
  8  9  1  0  0  0
  8 22  1  0  0  0
  9 10  1  0  0  0
  9 27  2  0  0  0
 10 11  2  0  0  0
 10 15  1  0  0  0
 11 12  1  0  0  0
 11 92  1  0  0  0
 12 13  2  0  0  0
 12 93  1  0  0  0
 13 14  1  0  0  0
 13 31  1  0  0  0
 14 15  2  0  0  0
 14 94  1  0  0  0
 15 95  1  0  0  0
 16 17  2  0  0  0
 16 21  1  0  0  0
 16 31  1  0  0  0
 17 18  1  0  0  0
 17 96  1  0  0  0
 18 19  2  0  0  0
 18 97  1  0  0  0
 19 20  1  0  0  0
 19 24  1  0  0  0
 20 21  2  0  0  0
 20 98  1  0  0  0
 21 23  1  0  0  0
 22 28  1  0  0  0
 22 32  2  0  0  0
 26 27  1  0  0  0
 28 99  1  0  0  0
 28100  1  0  0  0
 29101  1  0  0  0
 29102  1  0  0  0
 33 34  1  0  0  0
 33 66  1  0  0  0
 33 70  2  0  0  0
 34 36  1  0  0  0
 34 59  1  0  0  0
 34103  1  0  0  0
 35 44  2  0  0  0
 35 45  1  0  0  0
 35 68  1  0  0  0
 36 56  1  0  0  0
 36104  1  0  0  0
 37 39  1  0  0  0
 37 47  1  0  0  0
 37 66  1  0  0  0
 37105  1  0  0  0
 38 43  2  0  0  0
 38 46  1  0  0  0
 38 47  1  0  0  0
 39 64  1  0  0  0
 39 67  2  0  0  0
 40 52  1  0  0  0
 40 53  2  0  0  0
 40 58  1  0  0  0
 41106  1  0  0  0
 41107  1  0  0  0
 41108  1  0  0  0
 41 48  1  0  0  0
 42 43  1  0  0  0
 42 66  1  0  0  0
 42109  1  0  0  0
 42110  1  0  0  0
 43 44  1  0  0  0
 44111  1  0  0  0
 45 46  2  0  0  0
 45112  1  0  0  0
 46113  1  0  0  0
 47114  1  0  0  0
 47115  1  0  0  0
 48 56  1  0  0  0
 48 65  1  0  0  0
 48116  1  0  0  0
 49 50  1  0  0  0
 49 53  1  0  0  0
 49 64  1  0  0  0
 49117  1  0  0  0
 50 51  1  0  0  0
 50118  1  0  0  0
 50119  1  0  0  0
 51 52  1  0  0  0
 51120  1  0  0  0
 51121  1  0  0  0
 52122  1  0  0  0
 52123  1  0  0  0
 53 54  1  0  0  0
 54 55  2  0  0  0
 54124  1  0  0  0
 55 57  1  0  0  0
 55125  1  0  0  0
 56 69  2  0  0  0
 57 58  2  0  0  0
 57126  1  0  0  0
 58127  1  0  0  0
 59 60  1  0  0  0
 59 61  1  0  0  0
 59 62  1  0  0  0
 60128  1  0  0  0
 60129  1  0  0  0
 60130  1  0  0  0
 61131  1  0  0  0
 61132  1  0  0  0
 61133  1  0  0  0
 62134  1  0  0  0
 62135  1  0  0  0
 62136  1  0  0  0
 63 65  1  0  0  0
 63137  1  0  0  0
 63138  1  0  0  0
 63139  1  0  0  0
 64140  1  0  0  0
 65141  1  0  0  0
 68 77  1  0  0  0
 71 72  2  0  0  0
 71 74  1  0  0  0
 71 80  1  0  0  0
 72 76  1  0  0  0
 72 81  1  0  0  0
 73 77  1  0  0  0
 73 80  2  0  0  0
 73 81  1  0  0  0
 74142  1  0  0  0
 74143  1  0  0  0
 74144  1  0  0  0
 75 81  1  0  0  0
 75145  1  0  0  0
 75146  1  0  0  0
 75147  1  0  0  0
 76 78  1  0  0  0
 76148  1  0  0  0
 76149  1  0  0  0
 77150  1  0  0  0
 77151  1  0  0  0
 78 79  1  0  0  0
 78152  1  0  0  0
 78153  1  0  0  0
 79 82  1  0  0  0
 79154  1  0  0  0
 79155  1  0  0  0
 82156  1  0  0  0
M  ISO  4   1 100  68 101  77 101  82 100
M  END
> <chiral flag>
0

> <version>
0

> <s_m_source_file>
/data/baiqing/PycharmProjects/Reinvent-master-3.2/result/LINK_invent/BTK/process_docking_weight1_custom_sum_contain_oxygen_bond_distance_aromatic_linkinvent_7_9_3/rearranged_h_0043.sdf

> <i_m_source_file_index>
36

> <r_mmod_Potential_Energy-OPLS-2005>
174.409149169922

> <r_mmod_Stretch_Energy-OPLS-2005>
129.400283813477

> <r_mmod_Bend_Energy-OPLS-2005>
175.673309326172

> <r_mmod_Torsional_Energy-OPLS-2005>
241.922988891602

> <r_mmod_Improper_Torsional_Energy-OPLS-2005>
8.14267635345459

> <r_mmod_Van_der_Waal_Energy-OPLS-2005>
109.352821350098

> <r_mmod_Electrostatic_Energy-OPLS-2005>
-359.825286865234

> <r_mmod_Solvation_Energy-OPLS-2005>
-229.12255859375

> <b_mmod_Minimization_Converged-OPLS-2005>
0

> <r_mmod_RMS_Derivative-OPLS-2005>
9.86852550506592

$$$$
36
                    3D
 Structure written by MMmdl.
175183  0  0  1  0            999 V2000
  -30.6750  -14.5536   20.5504 C   0  0  0  0  0  0
  -30.4256  -12.3525   19.4529 C   0  0  0  0  0  0
  -29.5016  -12.5103   18.2278 C   0  0  0  0  0  0
  -28.0224  -12.3672   18.6354 C   0  0  0  0  0  0
  -27.6530  -13.2195   19.8800 C   0  0  2  0  0  0
  -28.6971  -13.0460   21.0078 C   0  0  0  0  0  0
  -25.2558  -13.8165   20.5787 C   0  0  0  0  0  0
  -24.1801  -13.0448   20.9223 C   0  0  0  0  0  0
  -24.6357  -11.6914   20.8768 C   0  0  0  0  0  0
  -23.9025  -10.4307   21.0447 C   0  0  0  0  0  0
  -24.3587   -9.4213   21.9197 C   0  0  0  0  0  0
  -23.6275   -8.2242   22.0753 C   0  0  0  0  0  0
  -22.4248   -8.0277   21.3558 C   0  0  0  0  0  0
  -21.9864   -9.0274   20.4709 C   0  0  0  0  0  0
  -22.7187  -10.2170   20.3117 C   0  0  0  0  0  0
  -21.6844   -6.0737   22.5294 C   0  0  0  0  0  0
  -21.4027   -6.5648   23.8221 C   0  0  0  0  0  0
  -21.3662   -5.6812   24.9178 C   0  0  0  0  0  0
  -21.6026   -4.3069   24.7232 C   0  0  0  0  0  0
  -21.8816   -3.8156   23.4356 C   0  0  0  0  0  0
  -21.9205   -4.6971   22.3410 C   0  0  0  0  0  0
  -22.7839  -13.5303   21.1834 C   0  0  0  0  0  0
  -22.1690   -4.2165   21.0984 F   0  0  0  0  0  0
  -21.5582   -3.4551   25.7738 F   0  0  0  0  0  0
  -30.0180  -13.3623   20.4467 N   0  0  0  0  0  0
  -26.2976  -12.9357   20.3422 N   0  0  0  0  0  0
  -25.9290  -11.6494   20.5813 N   0  0  0  0  0  0
  -22.0439  -12.8376   22.0428 N   0  0  0  0  0  0
  -25.4289  -15.1889   20.4307 N   0  0  0  0  0  0
  -31.8214  -14.7059   20.1220 O   0  0  0  0  0  0
  -21.6627   -6.8870   21.4239 O   0  0  0  0  0  0
  -22.3594  -14.5614   20.6625 O   0  0  0  0  0  0
  -24.6190  -31.8633   23.2069 C   0  0  0  0  0  0
  -25.9065  -32.4803   23.8364 C   0  0  1  0  0  0
  -27.2413  -27.3962   20.1240 C   0  0  0  0  0  0
  -25.5898  -33.8591   24.2305 N   0  0  0  0  0  0
  -23.4097  -30.4858   21.5467 C   0  0  2  0  0  0
  -24.8606  -28.9413   20.1170 C   0  0  0  0  0  0
  -22.7424  -29.4647   22.4975 C   0  0  0  0  0  0
  -18.0266  -28.1374   22.8481 C   0  0  0  0  0  0
  -24.1486  -36.7311   23.2639 C   0  0  0  0  0  0
  -25.9403  -30.8229   21.3615 C   0  0  0  0  0  0
  -26.0226  -29.4522   20.7122 C   0  0  0  0  0  0
  -27.2195  -28.6909   20.7036 C   0  0  0  0  0  0
  -26.0650  -26.9067   19.5197 C   0  0  0  0  0  0
  -24.8793  -27.6702   19.5127 C   0  0  0  0  0  0
  -23.6229  -29.8119   20.1639 C   0  0  0  0  0  0
  -25.4106  -36.3092   24.0332 C   0  0  1  0  0  0
  -20.5853  -28.3670   23.1298 C   0  0  2  0  0  0
  -20.6748  -26.9400   22.5409 C   0  0  0  0  0  0
  -19.5733  -26.6376   21.5203 C   0  0  0  0  0  0
  -18.1910  -26.7913   22.1618 C   0  0  0  0  0  0
  -19.1517  -28.8833   23.2888 C   0  0  0  0  0  0
  -18.9448  -30.1434   23.8909 C   0  0  0  0  0  0
  -17.6454  -30.6579   24.0562 C   0  0  0  0  0  0
  -25.9026  -34.9468   23.5121 C   0  0  0  0  0  0
  -16.5346  -29.9083   23.6324 C   0  0  0  0  0  0
  -16.7253  -28.6503   23.0335 C   0  0  0  0  0  0
  -26.4492  -31.6588   25.0705 C   0  0  0  0  0  0
  -25.3755  -31.3731   26.1458 C   0  0  0  0  0  0
  -27.0316  -30.3017   24.6107 C   0  0  0  0  0  0
  -27.6050  -32.4316   25.7474 C   0  0  0  0  0  0
  -27.5578  -37.1810   24.8467 C   0  0  0  0  0  0
  -21.4148  -29.3045   22.3709 N   0  0  0  0  0  0
  -26.4293  -37.3774   23.9411 N   0  0  0  0  0  0
  -24.6741  -31.0706   22.0982 N   0  0  0  0  0  0
  -23.4181  -28.8186   23.3018 O   0  0  0  0  0  0
  -28.3908  -26.6226   20.1223 O   0  0  0  0  0  0
  -26.5597  -34.8926   22.4688 O   0  0  0  0  0  0
  -23.5367  -32.1409   23.7434 O   0  0  0  0  0  0
  -28.4022  -20.2575   19.8119 C   0  0  0  0  0  0
  -27.6781  -19.7173   18.7710 C   0  0  0  0  0  0
  -26.6812  -21.6098   19.3715 C   0  0  0  0  0  0
  -26.6252  -17.5678   18.0034 C   0  0  0  0  0  0
  -23.0419  -21.0004   22.0537 C   0  0  0  0  0  0
  -29.5667  -19.5925   20.5397 C   0  0  0  0  0  0
  -27.8597  -18.4755   17.9518 C   0  0  0  0  0  0
  -25.5716  -22.6185   19.4962 C   0  0  0  0  0  0
  -24.3586  -21.5768   21.5131 C   0  0  0  0  0  0
  -29.2531  -18.1236   21.0351 C   0  0  0  0  0  0
  -24.2620  -22.0053   20.0353 C   0  0  0  0  0  0
  -28.5016  -24.0661   20.0063 C   0  0  0  0  0  0
  -28.3683  -22.7065   20.8072 C   0  0  0  0  0  0
  -30.3733  -17.0478   20.8151 C   0  0  0  0  0  0
  -28.3326  -25.3685   20.8563 C   0  0  0  0  0  0
  -27.8722  -21.5438   20.0027 N   0  0  0  0  0  0
  -26.6248  -20.5588   18.5598 N   0  3  0  0  0  0
  -29.9494  -15.6263   20.9611 N   0  0  0  0  0  0
  -31.4687  -12.4612   19.1501 H   0  0  0  0  0  0
  -30.3434  -11.3524   19.8791 H   0  0  0  0  0  0
  -29.7526  -11.7705   17.4674 H   0  0  0  0  0  0
  -29.6599  -13.4886   17.7720 H   0  0  0  0  0  0
  -27.8450  -11.3122   18.8435 H   0  0  0  0  0  0
  -27.3731  -12.6285   17.7993 H   0  0  0  0  0  0
  -27.6744  -14.2643   19.5680 H   0  0  0  0  0  0
  -28.6898  -12.0193   21.3763 H   0  0  0  0  0  0
  -28.4548  -13.6764   21.8647 H   0  0  0  0  0  0
  -25.2751   -9.5676   22.4733 H   0  0  0  0  0  0
  -23.9980   -7.4609   22.7438 H   0  0  0  0  0  0
  -21.0768   -8.8802   19.9073 H   0  0  0  0  0  0
  -22.3640  -10.9720   19.6259 H   0  0  0  0  0  0
  -21.2031   -7.6156   23.9737 H   0  0  0  0  0  0
  -21.1480   -6.0532   25.9093 H   0  0  0  0  0  0
  -22.0595   -2.7629   23.2842 H   0  0  0  0  0  0
  -22.4044  -12.0075   22.4911 H   0  0  0  0  0  0
  -21.1099  -13.1520   22.2664 H   0  0  0  0  0  0
  -24.6704  -15.8469   20.5684 H   0  0  0  0  0  0
  -26.2856  -15.6219   20.1144 H   0  0  0  0  0  0
  -26.7122  -32.5523   23.1118 H   0  0  0  0  0  0
  -25.0059  -33.9743   25.0454 H   0  0  0  0  0  0
  -22.7026  -31.3051   21.4017 H   0  0  0  0  0  0
  -23.3733  -35.9663   23.3317 H   0  0  0  0  0  0
  -24.3578  -36.8903   22.2048 H   0  0  0  0  0  0
  -23.7258  -37.6527   23.6648 H   0  0  0  0  0  0
  -26.0529  -31.5856   20.5894 H   0  0  0  0  0  0
  -26.8304  -30.8841   21.9767 H   0  0  0  0  0  0
  -28.1189  -29.0854   21.1588 H   0  0  0  0  0  0
  -26.0694  -25.9349   19.0471 H   0  0  0  0  0  0
  -23.9906  -27.2683   19.0458 H   0  0  0  0  0  0
  -23.7353  -30.5886   19.4062 H   0  0  0  0  0  0
  -22.7483  -29.2307   19.8651 H   0  0  0  0  0  0
  -25.1281  -36.1962   25.0823 H   0  0  0  0  0  0
  -20.9946  -28.3239   24.1419 H   0  0  0  0  0  0
  -20.5603  -26.2294   23.3608 H   0  0  0  0  0  0
  -21.6622  -26.7403   22.1235 H   0  0  0  0  0  0
  -19.6902  -25.6287   21.1231 H   0  0  0  0  0  0
  -19.6667  -27.3190   20.6737 H   0  0  0  0  0  0
  -17.4170  -26.6644   21.4028 H   0  0  0  0  0  0
  -18.0323  -26.0059   22.9022 H   0  0  0  0  0  0
  -19.7930  -30.7226   24.2299 H   0  0  0  0  0  0
  -17.5020  -31.6257   24.5149 H   0  0  0  0  0  0
  -15.5353  -30.2989   23.7628 H   0  0  0  0  0  0
  -15.8661  -28.0826   22.7038 H   0  0  0  0  0  0
  -24.5902  -30.7106   25.7822 H   0  0  0  0  0  0
  -24.8981  -32.2898   26.4928 H   0  0  0  0  0  0
  -25.8098  -30.8893   27.0211 H   0  0  0  0  0  0
  -26.2867  -29.6776   24.1151 H   0  0  0  0  0  0
  -27.4069  -29.7254   25.4572 H   0  0  0  0  0  0
  -27.8716  -30.4327   23.9280 H   0  0  0  0  0  0
  -27.2653  -33.3588   26.2114 H   0  0  0  0  0  0
  -28.3841  -32.6924   25.0295 H   0  0  0  0  0  0
  -28.0761  -31.8413   26.5345 H   0  0  0  0  0  0
  -28.2604  -38.0090   24.7468 H   0  0  0  0  0  0
  -28.1051  -36.2613   24.6338 H   0  0  0  0  0  0
  -27.2297  -37.1525   25.8869 H   0  0  0  0  0  0
  -20.9305  -29.8805   21.6961 H   0  0  0  0  0  0
  -26.0179  -38.2860   24.1382 H   0  0  0  0  0  0
  -26.8125  -16.6243   17.4894 H   0  0  0  0  0  0
  -25.7656  -18.0344   17.5238 H   0  0  0  0  0  0
  -26.3474  -17.3450   19.0312 H   0  0  0  0  0  0
  -23.1464  -20.7285   23.1053 H   0  0  0  0  0  0
  -22.7385  -20.1020   21.5129 H   0  0  0  0  0  0
  -22.2273  -21.7213   21.9826 H   0  0  0  0  0  0
  -29.8772  -20.2062   21.3854 H   0  0  0  0  0  0
  -30.4159  -19.5762   19.8533 H   0  0  0  0  0  0
  -28.7435  -17.9389   18.2935 H   0  0  0  0  0  0
  -28.0647  -18.7623   16.9196 H   0  0  0  0  0  0
  -25.4207  -23.0431   18.5040 H   0  0  0  0  0  0
  -25.8850  -23.4295   20.1492 H   0  0  0  0  0  0
  -25.1515  -20.8393   21.6440 H   0  0  0  0  0  0
  -24.6468  -22.4380   22.1200 H   0  0  0  0  0  0
  -28.3434  -17.7562   20.5638 H   0  0  0  0  0  0
  -28.9987  -18.1692   22.0950 H   0  0  0  0  0  0
  -23.9652  -21.1583   19.4164 H   0  0  0  0  0  0
  -23.4628  -22.7408   19.9370 H   0  0  0  0  0  0
  -27.7776  -24.1103   19.1971 H   0  0  0  0  0  0
  -29.4696  -24.0806   19.5013 H   0  0  0  0  0  0
  -27.6827  -22.8219   21.6485 H   0  0  0  0  0  0
  -29.3356  -22.4385   21.2298 H   0  0  0  0  0  0
  -30.7828  -17.1757   19.8115 H   0  0  0  0  0  0
  -31.1965  -17.2418   21.5057 H   0  0  0  0  0  0
  -29.1371  -25.3946   21.5932 H   0  0  0  0  0  0
  -27.4099  -25.3068   21.4394 H   0  0  0  0  0  0
  -25.8793  -20.4004   17.8923 H   0  0  0  0  0  0
  -29.0132  -15.4475   21.2934 H   0  0  0  0  0  0
  1 25  1  0  0  0
  1 30  2  0  0  0
  1 88  1  0  0  0
  2  3  1  0  0  0
  2 25  1  0  0  0
  2 89  1  0  0  0
  2 90  1  0  0  0
  3  4  1  0  0  0
  3 91  1  0  0  0
  3 92  1  0  0  0
  4  5  1  0  0  0
  4 93  1  0  0  0
  4 94  1  0  0  0
  5  6  1  0  0  0
  5 26  1  0  0  0
  5 95  1  0  0  0
  6 25  1  0  0  0
  6 96  1  0  0  0
  6 97  1  0  0  0
  7  8  2  0  0  0
  7 26  1  0  0  0
  7 29  1  0  0  0
  8  9  1  0  0  0
  8 22  1  0  0  0
  9 10  1  0  0  0
  9 27  2  0  0  0
 10 11  2  0  0  0
 10 15  1  0  0  0
 11 12  1  0  0  0
 11 98  1  0  0  0
 12 13  2  0  0  0
 12 99  1  0  0  0
 13 14  1  0  0  0
 13 31  1  0  0  0
 14 15  2  0  0  0
 14100  1  0  0  0
 15101  1  0  0  0
 16 17  2  0  0  0
 16 21  1  0  0  0
 16 31  1  0  0  0
 17 18  1  0  0  0
 17102  1  0  0  0
 18 19  2  0  0  0
 18103  1  0  0  0
 19 20  1  0  0  0
 19 24  1  0  0  0
 20 21  2  0  0  0
 20104  1  0  0  0
 21 23  1  0  0  0
 22 28  1  0  0  0
 22 32  2  0  0  0
 26 27  1  0  0  0
 28105  1  0  0  0
 28106  1  0  0  0
 29107  1  0  0  0
 29108  1  0  0  0
 33 34  1  0  0  0
 33 66  1  0  0  0
 33 70  2  0  0  0
 34 36  1  0  0  0
 34 59  1  0  0  0
 34109  1  0  0  0
 35 44  2  0  0  0
 35 45  1  0  0  0
 35 68  1  0  0  0
 36 56  1  0  0  0
 36110  1  0  0  0
 37 39  1  0  0  0
 37 47  1  0  0  0
 37 66  1  0  0  0
 37111  1  0  0  0
 38 43  2  0  0  0
 38 46  1  0  0  0
 38 47  1  0  0  0
 39 64  1  0  0  0
 39 67  2  0  0  0
 40 52  1  0  0  0
 40 53  2  0  0  0
 40 58  1  0  0  0
 41112  1  0  0  0
 41113  1  0  0  0
 41114  1  0  0  0
 41 48  1  0  0  0
 42 43  1  0  0  0
 42 66  1  0  0  0
 42115  1  0  0  0
 42116  1  0  0  0
 43 44  1  0  0  0
 44117  1  0  0  0
 45 46  2  0  0  0
 45118  1  0  0  0
 46119  1  0  0  0
 47120  1  0  0  0
 47121  1  0  0  0
 48 56  1  0  0  0
 48 65  1  0  0  0
 48122  1  0  0  0
 49 50  1  0  0  0
 49 53  1  0  0  0
 49 64  1  0  0  0
 49123  1  0  0  0
 50 51  1  0  0  0
 50124  1  0  0  0
 50125  1  0  0  0
 51 52  1  0  0  0
 51126  1  0  0  0
 51127  1  0  0  0
 52128  1  0  0  0
 52129  1  0  0  0
 53 54  1  0  0  0
 54 55  2  0  0  0
 54130  1  0  0  0
 55 57  1  0  0  0
 55131  1  0  0  0
 56 69  2  0  0  0
 57 58  2  0  0  0
 57132  1  0  0  0
 58133  1  0  0  0
 59 60  1  0  0  0
 59 61  1  0  0  0
 59 62  1  0  0  0
 60134  1  0  0  0
 60135  1  0  0  0
 60136  1  0  0  0
 61137  1  0  0  0
 61138  1  0  0  0
 61139  1  0  0  0
 62140  1  0  0  0
 62141  1  0  0  0
 62142  1  0  0  0
 63 65  1  0  0  0
 63143  1  0  0  0
 63144  1  0  0  0
 63145  1  0  0  0
 64146  1  0  0  0
 65147  1  0  0  0
 68 85  1  0  0  0
 71 72  2  0  0  0
 71 76  1  0  0  0
 71 86  1  0  0  0
 72 77  1  0  0  0
 72 87  1  0  0  0
 73 78  1  0  0  0
 73 86  1  0  0  0
 73 87  2  0  0  0
 74 77  1  0  0  0
 74148  1  0  0  0
 74149  1  0  0  0
 74150  1  0  0  0
 75 79  1  0  0  0
 75151  1  0  0  0
 75152  1  0  0  0
 75153  1  0  0  0
 76 80  1  0  0  0
 76154  1  0  0  0
 76155  1  0  0  0
 77156  1  0  0  0
 77157  1  0  0  0
 78 81  1  0  0  0
 78158  1  0  0  0
 78159  1  0  0  0
 79 81  1  0  0  0
 79160  1  0  0  0
 79161  1  0  0  0
 80 84  1  0  0  0
 80162  1  0  0  0
 80163  1  0  0  0
 81164  1  0  0  0
 81165  1  0  0  0
 82 83  1  0  0  0
 82 85  1  0  0  0
 82166  1  0  0  0
 82167  1  0  0  0
 83 86  1  0  0  0
 83168  1  0  0  0
 83169  1  0  0  0
 84 88  1  0  0  0
 84170  1  0  0  0
 84171  1  0  0  0
 85172  1  0  0  0
 85173  1  0  0  0
 87174  1  0  0  0
 88175  1  0  0  0
M  CHG  1  87   1
M  ISO  4   1 100  68 101  85 101  88 100
M  END
> <chiral flag>
0

> <version>
0

> <s_m_source_file>
/data/baiqing/PycharmProjects/Reinvent-master-3.2/result/LINK_invent/BTK/process_docking_weight1_custom_sum_contain_oxygen_bond_distance_aromatic_linkinvent_7_9_3/rearranged_h_0043.sdf

> <i_m_source_file_index>
37

> <r_mmod_Potential_Energy-OPLS-2005>
-28.2288112640381

> <r_mmod_Stretch_Energy-OPLS-2005>
55.1685638427734

> <r_mmod_Bend_Energy-OPLS-2005>
109.954528808594

> <r_mmod_Torsional_Energy-OPLS-2005>
279.631225585938

> <r_mmod_Improper_Torsional_Energy-OPLS-2005>
4.61437559127808

> <r_mmod_Van_der_Waal_Energy-OPLS-2005>
107.101402282715

> <r_mmod_Electrostatic_Energy-OPLS-2005>
-202.647247314453

> <r_mmod_Solvation_Energy-OPLS-2005>
-405.196685791016

> <b_mmod_Minimization_Converged-OPLS-2005>
0

> <r_mmod_RMS_Derivative-OPLS-2005>
3.86634230613708

$$$$
37
                    3D
 Structure written by MMmdl.
158165  0  0  1  0            999 V2000
  -30.4805  -15.1900   20.4303 C   0  0  0  0  0  0
  -30.4313  -12.7561   19.5405 C   0  0  0  0  0  0
  -29.5353  -12.5759   18.2879 C   0  0  0  0  0  0
  -28.0772  -12.3100   18.6979 C   0  0  0  0  0  0
  -27.6149  -13.2670   19.8231 C   0  0  2  0  0  0
  -28.6417  -13.3948   20.9662 C   0  0  0  0  0  0
  -25.2376  -13.8214   20.5663 C   0  0  0  0  0  0
  -24.1731  -13.0425   20.9227 C   0  0  0  0  0  0
  -24.6384  -11.6923   20.8745 C   0  0  0  0  0  0
  -23.9074  -10.4290   21.0394 C   0  0  0  0  0  0
  -24.3627   -9.4206   21.9174 C   0  0  0  0  0  0
  -23.6301   -8.2241   22.0756 C   0  0  0  0  0  0
  -22.4275   -8.0282   21.3554 C   0  0  0  0  0  0
  -21.9910   -9.0246   20.4644 C   0  0  0  0  0  0
  -22.7243  -10.2125   20.3042 C   0  0  0  0  0  0
  -21.6858   -6.0728   22.5283 C   0  0  0  0  0  0
  -21.4021   -6.5634   23.8215 C   0  0  0  0  0  0
  -21.3657   -5.6788   24.9178 C   0  0  0  0  0  0
  -21.6043   -4.3054   24.7227 C   0  0  0  0  0  0
  -21.8819   -3.8137   23.4353 C   0  0  0  0  0  0
  -21.9197   -4.6954   22.3409 C   0  0  0  0  0  0
  -22.7757  -13.5202   21.1880 C   0  0  0  0  0  0
  -22.1666   -4.2143   21.0987 F   0  0  0  0  0  0
  -21.5623   -3.4538   25.7737 F   0  0  0  0  0  0
  -29.8949  -13.8936   20.3793 N   0  0  0  0  0  0
  -26.2809  -12.9486   20.3156 N   0  0  0  0  0  0
  -25.9316  -11.6603   20.5693 N   0  0  0  0  0  0
  -22.0426  -12.8192   22.0452 N   0  0  0  0  0  0
  -25.3963  -15.1926   20.4031 N   0  0  0  0  0  0
  -31.6600  -15.1956   20.0446 O   0  0  0  0  0  0
  -21.6648   -6.8870   21.4247 O   0  0  0  0  0  0
  -22.3426  -14.5491   20.6712 O   0  0  0  0  0  0
  -24.6577  -31.8289   23.1744 C   0  0  0  0  0  0
  -25.9283  -32.4617   23.8200 C   0  0  1  0  0  0
  -27.2200  -26.9769   20.1769 C   0  0  0  0  0  0
  -25.5972  -33.8430   24.2109 N   0  0  0  0  0  0
  -23.4704  -30.4420   21.5217 C   0  0  2  0  0  0
  -24.9240  -28.8358   20.1102 C   0  0  0  0  0  0
  -22.7642  -29.4471   22.4789 C   0  0  0  0  0  0
  -18.0330  -28.1396   22.8469 C   0  0  0  0  0  0
  -24.1495  -36.7215   23.2648 C   0  0  0  0  0  0
  -26.0361  -30.6492   21.3989 C   0  0  0  0  0  0
  -26.1046  -29.2441   20.7422 C   0  0  0  0  0  0
  -27.2475  -28.3334   20.7541 C   0  0  0  0  0  0
  -26.0143  -26.7110   19.4912 C   0  0  0  0  0  0
  -24.9001  -27.5880   19.4661 C   0  0  0  0  0  0
  -23.7080  -29.7590   20.1464 C   0  0  0  0  0  0
  -25.4133  -36.2985   24.0308 C   0  0  1  0  0  0
  -20.5949  -28.3746   23.1189 C   0  0  2  0  0  0
  -20.6807  -26.9430   22.5394 C   0  0  0  0  0  0
  -19.5777  -26.6369   21.5208 C   0  0  0  0  0  0
  -18.1962  -26.7932   22.1620 C   0  0  0  0  0  0
  -19.1588  -28.8889   23.2823 C   0  0  0  0  0  0
  -18.9502  -30.1480   23.8855 C   0  0  0  0  0  0
  -17.6495  -30.6588   24.0555 C   0  0  0  0  0  0
  -25.9092  -34.9364   23.5028 C   0  0  0  0  0  0
  -16.5387  -29.9074   23.6337 C   0  0  0  0  0  0
  -16.7313  -28.6490   23.0364 C   0  0  0  0  0  0
  -26.4551  -31.6543   25.0709 C   0  0  0  0  0  0
  -25.3692  -31.3768   26.1372 C   0  0  0  0  0  0
  -27.0451  -30.2920   24.6416 C   0  0  0  0  0  0
  -27.6064  -32.4344   25.7501 C   0  0  0  0  0  0
  -27.5572  -37.1766   24.8470 C   0  0  0  0  0  0
  -21.4320  -29.3047   22.3540 N   0  0  0  0  0  0
  -26.4283  -37.3714   23.9411 N   0  0  0  0  0  0
  -24.7423  -30.9995   22.0857 N   0  0  0  0  0  0
  -23.4206  -28.8043   23.3022 O   0  0  0  0  0  0
  -28.2328  -25.9005   20.2792 O   0  0  0  0  0  0
  -26.5698  -34.8890   22.4619 O   0  0  0  0  0  0
  -23.5659  -32.1246   23.6860 O   0  0  0  0  0  0
  -27.4434  -17.0771   22.5898 C   0  0  0  0  0  0
  -28.9987  -17.0030   24.5716 C   0  0  0  0  0  0
  -28.7891  -21.1197   20.0021 C   0  0  0  0  0  0
  -29.4166  -19.5977   20.6874 C   0  0  0  0  0  0
  -28.8636  -22.8232   20.5270 C   0  0  0  0  0  0
  -29.5591  -17.9268   20.0593 C   0  0  0  0  0  0
  -29.9923  -16.7710   22.2460 C   0  0  0  0  0  0
  -28.0326  -24.3071   19.9930 C   0  0  0  0  0  0
  -28.7576  -16.5008   23.1411 C   0  0  0  0  0  0
  -29.8184  -16.4652   20.8078 N   0  0  0  0  0  0
  -31.4614  -12.9282   19.2268 H   0  0  0  0  0  0
  -30.4625  -11.8320   20.1205 H   0  0  0  0  0  0
  -29.9043  -11.7571   17.6682 H   0  0  0  0  0  0
  -29.5848  -13.4732   17.6687 H   0  0  0  0  0  0
  -28.0130  -11.2777   19.0449 H   0  0  0  0  0  0
  -27.4161  -12.3839   17.8332 H   0  0  0  0  0  0
  -27.5475  -14.2477   19.3514 H   0  0  0  0  0  0
  -28.7837  -12.4492   21.4917 H   0  0  0  0  0  0
  -28.2574  -14.0978   21.6958 H   0  0  0  0  0  0
  -25.2767   -9.5692   22.4753 H   0  0  0  0  0  0
  -24.0005   -7.4633   22.7479 H   0  0  0  0  0  0
  -21.0838   -8.8761   19.8955 H   0  0  0  0  0  0
  -22.3689  -10.9663   19.6151 H   0  0  0  0  0  0
  -21.2019   -7.6139   23.9724 H   0  0  0  0  0  0
  -21.1480   -6.0512   25.9084 H   0  0  0  0  0  0
  -22.0596   -2.7597   23.2855 H   0  0  0  0  0  0
  -22.4088  -11.9877   22.4839 H   0  0  0  0  0  0
  -21.1036  -13.1192   22.2666 H   0  0  0  0  0  0
  -24.6309  -15.8430   20.5405 H   0  0  0  0  0  0
  -26.2473  -15.6416   20.0926 H   0  0  0  0  0  0
  -26.7352  -32.5169   23.0920 H   0  0  0  0  0  0
  -25.0086  -33.9522   25.0236 H   0  0  0  0  0  0
  -22.7817  -31.2725   21.3530 H   0  0  0  0  0  0
  -23.3774  -35.9531   23.3290 H   0  0  0  0  0  0
  -24.3570  -36.8874   22.2065 H   0  0  0  0  0  0
  -23.7234  -37.6393   23.6710 H   0  0  0  0  0  0
  -26.2138  -31.3954   20.6229 H   0  0  0  0  0  0
  -26.8968  -30.7027   22.0535 H   0  0  0  0  0  0
  -28.1389  -28.6400   21.2827 H   0  0  0  0  0  0
  -25.8991  -25.7593   18.9938 H   0  0  0  0  0  0
  -24.0025  -27.2708   18.9533 H   0  0  0  0  0  0
  -23.8612  -30.5288   19.3894 H   0  0  0  0  0  0
  -22.8192  -29.2117   19.8285 H   0  0  0  0  0  0
  -25.1329  -36.1794   25.0800 H   0  0  0  0  0  0
  -21.0051  -28.3360   24.1308 H   0  0  0  0  0  0
  -20.5682  -26.2378   23.3639 H   0  0  0  0  0  0
  -21.6675  -26.7407   22.1207 H   0  0  0  0  0  0
  -19.6939  -25.6266   21.1272 H   0  0  0  0  0  0
  -19.6708  -27.3150   20.6711 H   0  0  0  0  0  0
  -17.4233  -26.6691   21.4021 H   0  0  0  0  0  0
  -18.0356  -26.0075   22.9013 H   0  0  0  0  0  0
  -19.7979  -30.7310   24.2205 H   0  0  0  0  0  0
  -17.5046  -31.6259   24.5172 H   0  0  0  0  0  0
  -15.5383  -30.2962   23.7675 H   0  0  0  0  0  0
  -15.8720  -28.0785   22.7106 H   0  0  0  0  0  0
  -24.5894  -30.7098   25.7672 H   0  0  0  0  0  0
  -24.8851  -32.2953   26.4698 H   0  0  0  0  0  0
  -25.7926  -30.8997   27.0216 H   0  0  0  0  0  0
  -26.3109  -29.6598   24.1408 H   0  0  0  0  0  0
  -27.3989  -29.7281   25.5057 H   0  0  0  0  0  0
  -27.9049  -30.4125   23.9825 H   0  0  0  0  0  0
  -27.2653  -33.3690   26.1966 H   0  0  0  0  0  0
  -28.3921  -32.6826   25.0355 H   0  0  0  0  0  0
  -28.0682  -31.8542   26.5499 H   0  0  0  0  0  0
  -28.2580  -38.0071   24.7512 H   0  0  0  0  0  0
  -28.1077  -36.2596   24.6307 H   0  0  0  0  0  0
  -27.2288  -37.1420   25.8873 H   0  0  0  0  0  0
  -20.9568  -29.8743   21.6672 H   0  0  0  0  0  0
  -26.0141  -38.2782   24.1402 H   0  0  0  0  0  0
  -26.5908  -16.7177   23.1670 H   0  0  0  0  0  0
  -27.2742  -16.7855   21.5552 H   0  0  0  0  0  0
  -27.4251  -18.1652   22.6351 H   0  0  0  0  0  0
  -28.1654  -16.7433   25.2263 H   0  0  0  0  0  0
  -29.1167  -18.0870   24.5983 H   0  0  0  0  0  0
  -29.9003  -16.5636   25.0006 H   0  0  0  0  0  0
  -29.1731  -21.1391   18.9816 H   0  0  0  0  0  0
  -27.7236  -20.9265   19.8692 H   0  0  0  0  0  0
  -28.8773  -19.5061   21.6273 H   0  0  0  0  0  0
  -30.4304  -19.8462   21.0031 H   0  0  0  0  0  0
  -29.9238  -23.0721   20.4671 H   0  0  0  0  0  0
  -28.6701  -22.7836   21.5993 H   0  0  0  0  0  0
  -30.3155  -17.9661   19.2748 H   0  0  0  0  0  0
  -28.6304  -17.7562   19.5143 H   0  0  0  0  0  0
  -30.8358  -16.2081   22.6535 H   0  0  0  0  0  0
  -30.3080  -17.8049   22.3752 H   0  0  0  0  0  0
  -26.9889  -24.1228   20.2463 H   0  0  0  0  0  0
  -28.0521  -24.2535   18.9045 H   0  0  0  0  0  0
  -28.6379  -15.4249   23.2349 H   0  0  0  0  0  0
  1 25  1  0  0  0
  1 30  2  0  0  0
  1 80  1  0  0  0
  2  3  1  0  0  0
  2 25  1  0  0  0
  2 81  1  0  0  0
  2 82  1  0  0  0
  3  4  1  0  0  0
  3 83  1  0  0  0
  3 84  1  0  0  0
  4  5  1  0  0  0
  4 85  1  0  0  0
  4 86  1  0  0  0
  5  6  1  0  0  0
  5 26  1  0  0  0
  5 87  1  0  0  0
  6 25  1  0  0  0
  6 88  1  0  0  0
  6 89  1  0  0  0
  7  8  2  0  0  0
  7 26  1  0  0  0
  7 29  1  0  0  0
  8  9  1  0  0  0
  8 22  1  0  0  0
  9 10  1  0  0  0
  9 27  2  0  0  0
 10 11  2  0  0  0
 10 15  1  0  0  0
 11 12  1  0  0  0
 11 90  1  0  0  0
 12 13  2  0  0  0
 12 91  1  0  0  0
 13 14  1  0  0  0
 13 31  1  0  0  0
 14 15  2  0  0  0
 14 92  1  0  0  0
 15 93  1  0  0  0
 16 17  2  0  0  0
 16 21  1  0  0  0
 16 31  1  0  0  0
 17 18  1  0  0  0
 17 94  1  0  0  0
 18 19  2  0  0  0
 18 95  1  0  0  0
 19 20  1  0  0  0
 19 24  1  0  0  0
 20 21  2  0  0  0
 20 96  1  0  0  0
 21 23  1  0  0  0
 22 28  1  0  0  0
 22 32  2  0  0  0
 26 27  1  0  0  0
 28 97  1  0  0  0
 28 98  1  0  0  0
 29 99  1  0  0  0
 29100  1  0  0  0
 33 34  1  0  0  0
 33 66  1  0  0  0
 33 70  2  0  0  0
 34 36  1  0  0  0
 34 59  1  0  0  0
 34101  1  0  0  0
 35 44  2  0  0  0
 35 45  1  0  0  0
 35 68  1  0  0  0
 36 56  1  0  0  0
 36102  1  0  0  0
 37 39  1  0  0  0
 37 47  1  0  0  0
 37 66  1  0  0  0
 37103  1  0  0  0
 38 43  2  0  0  0
 38 46  1  0  0  0
 38 47  1  0  0  0
 39 64  1  0  0  0
 39 67  2  0  0  0
 40 52  1  0  0  0
 40 53  2  0  0  0
 40 58  1  0  0  0
 41104  1  0  0  0
 41105  1  0  0  0
 41106  1  0  0  0
 41 48  1  0  0  0
 42 43  1  0  0  0
 42 66  1  0  0  0
 42107  1  0  0  0
 42108  1  0  0  0
 43 44  1  0  0  0
 44109  1  0  0  0
 45 46  2  0  0  0
 45110  1  0  0  0
 46111  1  0  0  0
 47112  1  0  0  0
 47113  1  0  0  0
 48 56  1  0  0  0
 48 65  1  0  0  0
 48114  1  0  0  0
 49 50  1  0  0  0
 49 53  1  0  0  0
 49 64  1  0  0  0
 49115  1  0  0  0
 50 51  1  0  0  0
 50116  1  0  0  0
 50117  1  0  0  0
 51 52  1  0  0  0
 51118  1  0  0  0
 51119  1  0  0  0
 52120  1  0  0  0
 52121  1  0  0  0
 53 54  1  0  0  0
 54 55  2  0  0  0
 54122  1  0  0  0
 55 57  1  0  0  0
 55123  1  0  0  0
 56 69  2  0  0  0
 57 58  2  0  0  0
 57124  1  0  0  0
 58125  1  0  0  0
 59 60  1  0  0  0
 59 61  1  0  0  0
 59 62  1  0  0  0
 60126  1  0  0  0
 60127  1  0  0  0
 60128  1  0  0  0
 61129  1  0  0  0
 61130  1  0  0  0
 61131  1  0  0  0
 62132  1  0  0  0
 62133  1  0  0  0
 62134  1  0  0  0
 63 65  1  0  0  0
 63135  1  0  0  0
 63136  1  0  0  0
 63137  1  0  0  0
 64138  1  0  0  0
 65139  1  0  0  0
 68 78  1  0  0  0
 71140  1  0  0  0
 71141  1  0  0  0
 71142  1  0  0  0
 71 79  1  0  0  0
 72 79  1  0  0  0
 72143  1  0  0  0
 72144  1  0  0  0
 72145  1  0  0  0
 73 74  1  0  0  0
 73 75  1  0  0  0
 73146  1  0  0  0
 73147  1  0  0  0
 74 76  1  0  0  0
 74148  1  0  0  0
 74149  1  0  0  0
 75 78  1  0  0  0
 75150  1  0  0  0
 75151  1  0  0  0
 76 80  1  0  0  0
 76152  1  0  0  0
 76153  1  0  0  0
 77 79  1  0  0  0
 77 80  1  0  0  0
 77154  1  0  0  0
 77155  1  0  0  0
 78156  1  0  0  0
 78157  1  0  0  0
 79158  1  0  0  0
M  ISO  4   1 100  68 101  78 101  80 100
M  END
> <chiral flag>
0

> <version>
0

> <s_m_source_file>
/data/baiqing/PycharmProjects/Reinvent-master-3.2/result/LINK_invent/BTK/process_docking_weight1_custom_sum_contain_oxygen_bond_distance_aromatic_linkinvent_7_9_3/rearranged_h_0043.sdf

> <i_m_source_file_index>
38

> <r_mmod_Potential_Energy-OPLS-2005>
1338.59326171875

> <r_mmod_Stretch_Energy-OPLS-2005>
573.453857421875

> <r_mmod_Bend_Energy-OPLS-2005>
428.226409912109

> <r_mmod_Torsional_Energy-OPLS-2005>
303.560485839844

> <r_mmod_Improper_Torsional_Energy-OPLS-2005>
4.5459566116333

> <r_mmod_Van_der_Waal_Energy-OPLS-2005>
110.86595916748

> <r_mmod_Electrostatic_Energy-OPLS-2005>
-278.134582519531

> <r_mmod_Solvation_Energy-OPLS-2005>
-183.718170166016

> <b_mmod_Minimization_Converged-OPLS-2005>
0

> <r_mmod_RMS_Derivative-OPLS-2005>
1.44248032569885

$$$$
38
                    3D
 Structure written by MMmdl.
154162  0  0  1  0            999 V2000
  -29.8773  -13.6803   18.9232 C   0  0  0  0  0  0
  -31.0914  -12.5833   20.2575 C   0  0  0  0  0  0
  -30.1626  -11.4565   20.2252 C   0  0  0  0  0  0
  -28.9581  -12.0305   21.1378 C   0  0  0  0  0  0
  -27.9262  -13.4360   20.8433 C   0  0  2  0  0  0
  -29.1798  -14.2325   21.0944 C   0  0  0  0  0  0
  -25.8290  -14.7718   19.7732 C   0  0  0  0  0  0
  -24.5822  -14.5591   20.1806 C   0  0  0  0  0  0
  -24.5885  -12.8027   19.9840 C   0  0  0  0  0  0
  -23.8523  -11.1847   20.5587 C   0  0  0  0  0  0
  -24.1487  -10.1560   21.6597 C   0  0  0  0  0  0
  -23.5836   -8.8345   21.9583 C   0  0  0  0  0  0
  -22.4763   -8.3347   21.2452 C   0  0  0  0  0  0
  -22.0919   -9.2457   20.2234 C   0  0  0  0  0  0
  -22.7500  -10.5109   19.9019 C   0  0  0  0  0  0
  -21.7941   -6.2182   22.4890 C   0  0  0  0  0  0
  -21.4830   -6.6592   23.7975 C   0  0  0  0  0  0
  -21.3925   -5.7479   24.8788 C   0  0  0  0  0  0
  -21.6046   -4.3705   24.6778 C   0  0  0  0  0  0
  -21.8774   -3.9055   23.3813 C   0  0  0  0  0  0
  -21.9557   -4.8128   22.3000 C   0  0  0  0  0  0
  -22.9797  -15.8178   22.0493 C   0  0  0  0  0  0
  -22.1768   -4.3080   21.0626 F   0  0  0  0  0  0
  -21.5455   -3.5011   25.7189 F   0  0  0  0  0  0
  -30.2259  -13.7401   20.1554 N   0  0  0  0  0  0
  -26.5444  -13.6592   19.9809 N   0  0  0  0  0  0
  -25.6482  -12.7955   19.3270 N   0  0  0  0  0  0
  -22.4695  -15.1212   23.1735 N   0  0  0  0  0  0
  -26.4605  -15.9271   19.6154 N   0  0  0  0  0  0
  -30.7278  -14.4252   18.4005 O   0  0  0  0  0  0
  -21.8122   -7.0858   21.3847 O   0  0  0  0  0  0
  -21.9396  -16.4146   21.8133 O   0  0  0  0  0  0
  -24.7884  -31.5983   23.0588 C   0  0  0  0  0  0
  -25.9882  -32.3462   23.7465 C   0  0  1  0  0  0
  -26.0422  -24.8997   20.5435 C   0  0  0  0  0  0
  -25.5939  -33.7446   24.1102 N   0  0  0  0  0  0
  -23.6104  -30.1972   21.4485 C   0  0  2  0  0  0
  -24.8421  -28.1696   20.1337 C   0  0  0  0  0  0
  -22.7843  -29.3375   22.4414 C   0  0  0  0  0  0
  -18.0281  -28.1444   22.8396 C   0  0  0  0  0  0
  -24.1485  -36.6752   23.2696 C   0  0  0  0  0  0
  -26.1133  -29.6411   21.6272 C   0  0  0  0  0  0
  -25.9098  -28.0490   21.0037 C   0  0  0  0  0  0
  -26.4794  -26.4947   21.1382 C   0  0  0  0  0  0
  -25.3154  -25.6581   19.4878 C   0  0  0  0  0  0
  -24.7225  -27.0136   19.3230 C   0  0  0  0  0  0
  -23.8812  -29.4206   20.0998 C   0  0  0  0  0  0
  -25.4188  -36.2361   24.0185 C   0  0  1  0  0  0
  -20.5898  -28.3756   23.1021 C   0  0  2  0  0  0
  -20.6656  -26.9335   22.5473 C   0  0  0  0  0  0
  -19.5700  -26.6291   21.5223 C   0  0  0  0  0  0
  -18.1872  -26.7958   22.1573 C   0  0  0  0  0  0
  -19.1562  -28.8954   23.2667 C   0  0  0  0  0  0
  -18.9508  -30.1527   23.8745 C   0  0  0  0  0  0
  -17.6505  -30.6619   24.0533 C   0  0  0  0  0  0
  -25.9241  -34.8765   23.4628 C   0  0  0  0  0  0
  -16.5377  -29.9108   23.6367 C   0  0  0  0  0  0
  -16.7274  -28.6534   23.0367 C   0  0  0  0  0  0
  -26.4786  -31.6329   25.0688 C   0  0  0  0  0  0
  -25.3579  -31.4009   26.1122 C   0  0  0  0  0  0
  -27.1002  -30.2628   24.7620 C   0  0  0  0  0  0
  -27.5980  -32.4643   25.7416 C   0  0  0  0  0  0
  -27.5515  -37.1502   24.8461 C   0  0  0  0  0  0
  -21.4455  -29.2756   22.3164 N   0  0  0  0  0  0
  -26.4190  -37.3293   23.9422 N   0  0  0  0  0  0
  -24.9064  -30.5730   22.0836 N   0  0  0  0  0  0
  -23.3773  -28.7192   23.3287 O   0  0  0  0  0  0
  -26.1051  -22.8737   20.7065 O   0  0  0  0  0  0
  -26.6145  -34.8641   22.4431 O   0  0  0  0  0  0
  -23.6755  -32.0026   23.4629 O   0  0  0  0  0  0
  -23.4535  -16.7002   19.8317 C   0  0  0  0  0  0
  -24.7306  -17.6272   20.9079 C   0  0  0  0  0  0
  -22.7999  -13.7015   21.2126 C   0  0  0  0  0  0
  -24.6110  -14.1115   22.3110 C   0  0  0  0  0  0
  -21.6492  -12.7761   21.6126 C   0  0  0  0  0  0
  -25.7880  -12.6392   22.2813 C   0  0  0  0  0  0
  -25.1752  -20.3732   20.7153 C   0  0  0  0  0  0
  -26.6176  -11.2825   20.9471 C   0  0  0  0  0  0
  -27.6752  -11.4247   19.1854 C   0  0  0  0  0  0
  -22.4310  -15.0674   19.8927 N   0  0  0  0  0  0
  -25.3069  -16.0441   21.9625 N   0  0  0  0  0  0
  -28.7369  -12.7216   18.5003 N   0  0  0  0  0  0
  -31.8942  -12.4835   19.5157 H   0  0  0  0  0  0
  -31.6013  -12.6350   21.2208 H   0  0  0  0  0  0
  -30.6293  -10.6521   20.7967 H   0  0  0  0  0  0
  -30.0904  -10.9717   19.2527 H   0  0  0  0  0  0
  -29.4840  -12.2418   22.0739 H   0  0  0  0  0  0
  -28.6936  -11.1886   21.7549 H   0  0  0  0  0  0
  -28.0227  -14.2072   20.1277 H   0  0  0  0  0  0
  -29.5257  -14.1986   22.1301 H   0  0  0  0  0  0
  -29.1096  -15.3336   21.0162 H   0  0  0  0  0  0
  -24.9297  -10.3107   22.3714 H   0  0  0  0  0  0
  -23.9941   -8.2526   22.7703 H   0  0  0  0  0  0
  -21.2667   -8.9513   19.5907 H   0  0  0  0  0  0
  -22.3481  -11.0351   19.0449 H   0  0  0  0  0  0
  -21.3108   -7.7107   23.9763 H   0  0  0  0  0  0
  -21.1655   -6.1121   25.8702 H   0  0  0  0  0  0
  -22.0221   -2.8506   23.2101 H   0  0  0  0  0  0
  -22.9637  -14.3455   23.5824 H   0  0  0  0  0  0
  -21.6606  -15.5010   23.6405 H   0  0  0  0  0  0
  -26.1598  -16.4071   20.4646 H   0  0  0  0  0  0
  -27.4660  -15.8433   19.6363 H   0  0  0  0  0  0
  -26.8106  -32.3727   23.0291 H   0  0  0  0  0  0
  -24.9680  -33.8275   24.8979 H   0  0  0  0  0  0
  -23.0343  -31.0911   21.2011 H   0  0  0  0  0  0
  -23.3815  -35.9000   23.3129 H   0  0  0  0  0  0
  -24.3507  -36.8735   22.2160 H   0  0  0  0  0  0
  -23.7173  -37.5775   23.7043 H   0  0  0  0  0  0
  -26.6077  -30.1990   20.8317 H   0  0  0  0  0  0
  -26.8805  -29.5628   22.3769 H   0  0  0  0  0  0
  -27.2228  -26.4255   21.9195 H   0  0  0  0  0  0
  -24.9371  -24.9858   18.7313 H   0  0  0  0  0  0
  -24.0240  -27.0989   18.5012 H   0  0  0  0  0  0
  -24.2905  -30.1197   19.3700 H   0  0  0  0  0  0
  -22.9276  -29.0971   19.6815 H   0  0  0  0  0  0
  -25.1454  -36.0924   25.0662 H   0  0  0  0  0  0
  -20.9928  -28.3477   24.1173 H   0  0  0  0  0  0
  -20.5369  -26.2405   23.3802 H   0  0  0  0  0  0
  -21.6522  -26.7100   22.1397 H   0  0  0  0  0  0
  -19.6821  -25.6162   21.1345 H   0  0  0  0  0  0
  -19.6724  -27.3026   20.6703 H   0  0  0  0  0  0
  -17.4160  -26.6728   21.3952 H   0  0  0  0  0  0
  -18.0193  -26.0136   22.8989 H   0  0  0  0  0  0
  -19.8007  -30.7344   24.2055 H   0  0  0  0  0  0
  -17.5080  -31.6288   24.5167 H   0  0  0  0  0  0
  -15.5382  -30.2989   23.7785 H   0  0  0  0  0  0
  -15.8657  -28.0833   22.7162 H   0  0  0  0  0  0
  -24.5815  -30.7308   25.7412 H   0  0  0  0  0  0
  -24.8728  -32.3343   26.3985 H   0  0  0  0  0  0
  -25.7497  -30.9519   27.0257 H   0  0  0  0  0  0
  -26.3561  -29.5423   24.4240 H   0  0  0  0  0  0
  -27.5339  -29.8231   25.6613 H   0  0  0  0  0  0
  -27.9171  -30.3424   24.0447 H   0  0  0  0  0  0
  -27.2345  -33.4208   26.1185 H   0  0  0  0  0  0
  -28.4076  -32.6779   25.0424 H   0  0  0  0  0  0
  -28.0351  -31.9426   26.5942 H   0  0  0  0  0  0
  -28.2368  -37.9944   24.7573 H   0  0  0  0  0  0
  -28.1166  -36.2445   24.6200 H   0  0  0  0  0  0
  -27.2234  -37.0989   25.8859 H   0  0  0  0  0  0
  -20.9988  -29.8243   21.5949 H   0  0  0  0  0  0
  -25.9880  -38.2261   24.1500 H   0  0  0  0  0  0
  -23.0307  -17.3347   19.0664 H   0  0  0  0  0  0
  -21.9751  -11.9844   22.2865 H   0  0  0  0  0  0
  -21.1661  -12.3519   20.7355 H   0  0  0  0  0  0
  -20.8759  -13.3421   22.1303 H   0  0  0  0  0  0
  -25.3587  -12.0733   23.1017 H   0  0  0  0  0  0
  -26.6302  -13.0437   22.8415 H   0  0  0  0  0  0
  -24.2990  -20.6245   21.3126 H   0  0  0  0  0  0
  -24.8334  -20.4219   19.6815 H   0  0  0  0  0  0
  -26.0250  -10.5525   20.4341 H   0  0  0  0  0  0
  -26.9609  -10.4749   21.5949 H   0  0  0  0  0  0
  -27.0103  -11.2014   18.3465 H   0  0  0  0  0  0
  -28.1670  -10.4571   19.1074 H   0  0  0  0  0  0
  -28.5875  -12.8001   17.5044 H   0  0  0  0  0  0
  1 25  1  0  0  0
  1 30  2  0  0  0
  1 82  1  0  0  0
  2  3  1  0  0  0
  2 25  1  0  0  0
  2 83  1  0  0  0
  2 84  1  0  0  0
  3  4  1  0  0  0
  3 85  1  0  0  0
  3 86  1  0  0  0
  4  5  1  0  0  0
  4 87  1  0  0  0
  4 88  1  0  0  0
  5  6  1  0  0  0
  5 26  1  0  0  0
  5 89  1  0  0  0
  6 25  1  0  0  0
  6 90  1  0  0  0
  6 91  1  0  0  0
  7  8  2  0  0  0
  7 26  1  0  0  0
  7 29  1  0  0  0
  8  9  1  0  0  0
  8 22  1  0  0  0
  9 10  1  0  0  0
  9 27  2  0  0  0
 10 11  2  0  0  0
 10 15  1  0  0  0
 11 12  1  0  0  0
 11 92  1  0  0  0
 12 13  2  0  0  0
 12 93  1  0  0  0
 13 14  1  0  0  0
 13 31  1  0  0  0
 14 15  2  0  0  0
 14 94  1  0  0  0
 15 95  1  0  0  0
 16 17  2  0  0  0
 16 21  1  0  0  0
 16 31  1  0  0  0
 17 18  1  0  0  0
 17 96  1  0  0  0
 18 19  2  0  0  0
 18 97  1  0  0  0
 19 20  1  0  0  0
 19 24  1  0  0  0
 20 21  2  0  0  0
 20 98  1  0  0  0
 21 23  1  0  0  0
 22 28  1  0  0  0
 22 32  2  0  0  0
 26 27  1  0  0  0
 28 99  1  0  0  0
 28100  1  0  0  0
 29101  1  0  0  0
 29102  1  0  0  0
 33 34  1  0  0  0
 33 66  1  0  0  0
 33 70  2  0  0  0
 34 36  1  0  0  0
 34 59  1  0  0  0
 34103  1  0  0  0
 35 44  2  0  0  0
 35 45  1  0  0  0
 35 68  1  0  0  0
 36 56  1  0  0  0
 36104  1  0  0  0
 37 39  1  0  0  0
 37 47  1  0  0  0
 37 66  1  0  0  0
 37105  1  0  0  0
 38 43  2  0  0  0
 38 46  1  0  0  0
 38 47  1  0  0  0
 39 64  1  0  0  0
 39 67  2  0  0  0
 40 52  1  0  0  0
 40 53  2  0  0  0
 40 58  1  0  0  0
 41106  1  0  0  0
 41107  1  0  0  0
 41108  1  0  0  0
 41 48  1  0  0  0
 42 43  1  0  0  0
 42 66  1  0  0  0
 42109  1  0  0  0
 42110  1  0  0  0
 43 44  1  0  0  0
 44111  1  0  0  0
 45 46  2  0  0  0
 45112  1  0  0  0
 46113  1  0  0  0
 47114  1  0  0  0
 47115  1  0  0  0
 48 56  1  0  0  0
 48 65  1  0  0  0
 48116  1  0  0  0
 49 50  1  0  0  0
 49 53  1  0  0  0
 49 64  1  0  0  0
 49117  1  0  0  0
 50 51  1  0  0  0
 50118  1  0  0  0
 50119  1  0  0  0
 51 52  1  0  0  0
 51120  1  0  0  0
 51121  1  0  0  0
 52122  1  0  0  0
 52123  1  0  0  0
 53 54  1  0  0  0
 54 55  2  0  0  0
 54124  1  0  0  0
 55 57  1  0  0  0
 55125  1  0  0  0
 56 69  2  0  0  0
 57 58  2  0  0  0
 57126  1  0  0  0
 58127  1  0  0  0
 59 60  1  0  0  0
 59 61  1  0  0  0
 59 62  1  0  0  0
 60128  1  0  0  0
 60129  1  0  0  0
 60130  1  0  0  0
 61131  1  0  0  0
 61132  1  0  0  0
 61133  1  0  0  0
 62134  1  0  0  0
 62135  1  0  0  0
 62136  1  0  0  0
 63 65  1  0  0  0
 63137  1  0  0  0
 63138  1  0  0  0
 63139  1  0  0  0
 64140  1  0  0  0
 65141  1  0  0  0
 68 77  1  0  0  0
 71 72  2  0  0  0
 71 80  1  0  0  0
 71142  1  0  0  0
 72 77  1  0  0  0
 72 81  1  0  0  0
 73 74  1  0  0  0
 73 75  1  0  0  0
 73 80  2  0  0  0
 74 76  1  0  0  0
 74 81  2  0  0  0
 75143  1  0  0  0
 75144  1  0  0  0
 75145  1  0  0  0
 76 78  1  0  0  0
 76146  1  0  0  0
 76147  1  0  0  0
 77148  1  0  0  0
 77149  1  0  0  0
 78 79  1  0  0  0
 78150  1  0  0  0
 78151  1  0  0  0
 79 82  1  0  0  0
 79152  1  0  0  0
 79153  1  0  0  0
 82154  1  0  0  0
M  ISO  4   1 100  68 101  77 101  82 100
M  END
> <chiral flag>
0

> <version>
0

> <s_m_source_file>
/data/baiqing/PycharmProjects/Reinvent-master-3.2/result/LINK_invent/BTK/process_docking_weight1_custom_sum_contain_oxygen_bond_distance_aromatic_linkinvent_7_9_3/rearranged_h_0043.sdf

> <i_m_source_file_index>
39

> <r_mmod_Potential_Energy-OPLS-2005>
32307.765625

> <r_mmod_Stretch_Energy-OPLS-2005>
15271.00390625

> <r_mmod_Bend_Energy-OPLS-2005>
2469.39526367188

> <r_mmod_Torsional_Energy-OPLS-2005>
697.580810546875

> <r_mmod_Improper_Torsional_Energy-OPLS-2005>
93.4496765136719

> <r_mmod_Van_der_Waal_Energy-OPLS-2005>
4105.876953125

> <r_mmod_Electrostatic_Energy-OPLS-2005>
-354.131256103516

> <r_mmod_Solvation_Energy-OPLS-2005>
-263.921203613281

> <b_mmod_Minimization_Converged-OPLS-2005>
0

> <r_mmod_RMS_Derivative-OPLS-2005>
2.9577100276947

$$$$
39
                    3D
 Structure written by MMmdl.
172180  0  0  1  0            999 V2000
  -30.6291  -14.5745   20.5603 C   0  0  0  0  0  0
  -30.4399  -12.3715   19.4254 C   0  0  0  0  0  0
  -29.5012  -12.5241   18.2095 C   0  0  0  0  0  0
  -28.0224  -12.3669   18.6216 C   0  0  0  0  0  0
  -27.6574  -13.2087   19.8722 C   0  0  2  0  0  0
  -28.7018  -13.0062   20.9909 C   0  0  0  0  0  0
  -25.2566  -13.8156   20.5675 C   0  0  0  0  0  0
  -24.1839  -13.0433   20.9197 C   0  0  0  0  0  0
  -24.6405  -11.6900   20.8735 C   0  0  0  0  0  0
  -23.9077  -10.4287   21.0414 C   0  0  0  0  0  0
  -24.3627   -9.4201   21.9186 C   0  0  0  0  0  0
  -23.6299   -8.2234   22.0748 C   0  0  0  0  0  0
  -22.4273   -8.0285   21.3545 C   0  0  0  0  0  0
  -21.9923   -9.0266   20.4632 C   0  0  0  0  0  0
  -22.7258  -10.2137   20.3051 C   0  0  0  0  0  0
  -21.6853   -6.0746   22.5276 C   0  0  0  0  0  0
  -21.4020   -6.5644   23.8212 C   0  0  0  0  0  0
  -21.3653   -5.6785   24.9171 C   0  0  0  0  0  0
  -21.6046   -4.3056   24.7213 C   0  0  0  0  0  0
  -21.8822   -3.8153   23.4331 C   0  0  0  0  0  0
  -21.9196   -4.6972   22.3393 C   0  0  0  0  0  0
  -22.7858  -13.5212   21.1860 C   0  0  0  0  0  0
  -22.1663   -4.2161   21.0969 F   0  0  0  0  0  0
  -21.5625   -3.4536   25.7723 F   0  0  0  0  0  0
  -30.0202  -13.3582   20.4350 N   0  0  0  0  0  0
  -26.3010  -12.9327   20.3346 N   0  0  0  0  0  0
  -25.9331  -11.6483   20.5767 N   0  0  0  0  0  0
  -22.0510  -12.8188   22.0408 N   0  0  0  0  0  0
  -25.4297  -15.1878   20.4076 N   0  0  0  0  0  0
  -31.7793  -14.7843   20.1645 O   0  0  0  0  0  0
  -21.6635   -6.8891   21.4233 O   0  0  0  0  0  0
  -22.3536  -14.5537   20.6726 O   0  0  0  0  0  0
  -24.6216  -31.8651   23.2084 C   0  0  0  0  0  0
  -25.9078  -32.4798   23.8408 C   0  0  1  0  0  0
  -27.2231  -27.3601   20.1056 C   0  0  0  0  0  0
  -25.5916  -33.8610   24.2343 N   0  0  0  0  0  0
  -23.4154  -30.4859   21.5518 C   0  0  2  0  0  0
  -24.8611  -28.9490   20.1155 C   0  0  0  0  0  0
  -22.7457  -29.4607   22.4974 C   0  0  0  0  0  0
  -18.0289  -28.1327   22.8451 C   0  0  0  0  0  0
  -24.1523  -36.7319   23.2636 C   0  0  0  0  0  0
  -25.9528  -30.8048   21.3766 C   0  0  0  0  0  0
  -26.0278  -29.4362   20.7195 C   0  0  0  0  0  0
  -27.2138  -28.6516   20.7070 C   0  0  0  0  0  0
  -26.0400  -26.9212   19.4725 C   0  0  0  0  0  0
  -24.8670  -27.6956   19.4864 C   0  0  0  0  0  0
  -23.6267  -29.8217   20.1669 C   0  0  0  0  0  0
  -25.4137  -36.3103   24.0324 C   0  0  1  0  0  0
  -20.5868  -28.3632   23.1274 C   0  0  2  0  0  0
  -20.6767  -26.9354   22.5377 C   0  0  0  0  0  0
  -19.5766  -26.6336   21.5158 C   0  0  0  0  0  0
  -18.1946  -26.7868   22.1568 C   0  0  0  0  0  0
  -19.1531  -28.8790   23.2859 C   0  0  0  0  0  0
  -18.9454  -30.1389   23.8870 C   0  0  0  0  0  0
  -17.6467  -30.6535   24.0511 C   0  0  0  0  0  0
  -25.9059  -34.9465   23.5136 C   0  0  0  0  0  0
  -16.5350  -29.9016   23.6320 C   0  0  0  0  0  0
  -16.7272  -28.6436   23.0341 C   0  0  0  0  0  0
  -26.4488  -31.6550   25.0746 C   0  0  0  0  0  0
  -25.3736  -31.3573   26.1455 C   0  0  0  0  0  0
  -27.0342  -30.3009   24.6119 C   0  0  0  0  0  0
  -27.6110  -32.4242   25.7461 C   0  0  0  0  0  0
  -27.5609  -37.1805   24.8458 C   0  0  0  0  0  0
  -21.4168  -29.3018   22.3708 N   0  0  0  0  0  0
  -26.4319  -37.3782   23.9389 N   0  0  0  0  0  0
  -24.6820  -31.0671   22.1040 N   0  0  0  0  0  0
  -23.4197  -28.8134   23.3038 O   0  0  0  0  0  0
  -28.3586  -26.5524   20.1176 O   0  0  0  0  0  0
  -26.5615  -34.8899   22.4694 O   0  0  0  0  0  0
  -23.5379  -32.1433   23.7404 O   0  0  0  0  0  0
  -30.1053  -20.2326   22.4815 C   0  0  0  0  0  0
  -30.2950  -21.4470   23.0909 C   0  0  0  0  0  0
  -29.5399  -21.8143   21.0119 C   0  0  0  0  0  0
  -29.2489  -24.8939   28.3241 C   0  0  0  0  0  0
  -30.7193  -21.8196   24.4824 C   0  0  0  0  0  0
  -29.0154  -22.6166   19.8226 C   0  0  0  0  0  0
  -28.8084  -23.9458   27.2015 C   0  0  0  0  0  0
  -29.5538  -22.4478   25.2744 C   0  0  0  0  0  0
  -29.2596  -24.1808   19.7815 C   0  0  0  0  0  0
  -29.9760  -23.1639   26.5705 C   0  0  0  0  0  0
  -29.9560  -18.0250   20.1139 C   0  0  0  0  0  0
  -29.1807  -19.4043   20.2494 C   0  0  0  0  0  0
  -30.0363  -17.0128   21.3111 C   0  0  0  0  0  0
  -28.1837  -25.1254   20.4115 C   0  0  0  0  0  0
  -29.6427  -20.4633   21.2062 N   0  0  0  0  0  0
  -29.9657  -22.3836   22.1463 N   0  3  0  0  0  0
  -29.8159  -15.5697   21.0028 N   0  0  0  0  0  0
  -31.4781  -12.5140   19.1220 H   0  0  0  0  0  0
  -30.3824  -11.3626   19.8375 H   0  0  0  0  0  0
  -29.7553  -11.7954   17.4403 H   0  0  0  0  0  0
  -29.6478  -13.5068   17.7586 H   0  0  0  0  0  0
  -27.8409  -11.3103   18.8208 H   0  0  0  0  0  0
  -27.3708  -12.6353   17.7877 H   0  0  0  0  0  0
  -27.6914  -14.2550   19.5658 H   0  0  0  0  0  0
  -28.7054  -11.9665   21.3236 H   0  0  0  0  0  0
  -28.4521  -13.5928   21.8758 H   0  0  0  0  0  0
  -25.2782   -9.5661   22.4759 H   0  0  0  0  0  0
  -24.0008   -7.4617   22.7458 H   0  0  0  0  0  0
  -21.0862   -8.8799   19.8927 H   0  0  0  0  0  0
  -22.3745  -10.9686   19.6152 H   0  0  0  0  0  0
  -21.2021   -7.6156   23.9719 H   0  0  0  0  0  0
  -21.1468   -6.0517   25.9072 H   0  0  0  0  0  0
  -22.0610   -2.7618   23.2825 H   0  0  0  0  0  0
  -22.4144  -11.9831   22.4745 H   0  0  0  0  0  0
  -21.1129  -13.1181   22.2637 H   0  0  0  0  0  0
  -24.6604  -15.8422   20.5080 H   0  0  0  0  0  0
  -26.2774  -15.6242   20.0697 H   0  0  0  0  0  0
  -26.7136  -32.5482   23.1150 H   0  0  0  0  0  0
  -25.0031  -33.9774   25.0464 H   0  0  0  0  0  0
  -22.7073  -31.3047   21.4139 H   0  0  0  0  0  0
  -23.3775  -35.9662   23.3293 H   0  0  0  0  0  0
  -24.3613  -36.8971   22.2057 H   0  0  0  0  0  0
  -23.7306  -37.6521   23.6682 H   0  0  0  0  0  0
  -26.0826  -31.5697   20.6101 H   0  0  0  0  0  0
  -26.8317  -30.8520   22.0068 H   0  0  0  0  0  0
  -28.1144  -29.0163   21.1820 H   0  0  0  0  0  0
  -26.0019  -25.9784   18.9475 H   0  0  0  0  0  0
  -23.9733  -27.3233   19.0041 H   0  0  0  0  0  0
  -23.7406  -30.5986   19.4103 H   0  0  0  0  0  0
  -22.7505  -29.2455   19.8684 H   0  0  0  0  0  0
  -25.1331  -36.1958   25.0812 H   0  0  0  0  0  0
  -20.9950  -28.3169   24.1400 H   0  0  0  0  0  0
  -20.5644  -26.2225   23.3562 H   0  0  0  0  0  0
  -21.6650  -26.7376   22.1210 H   0  0  0  0  0  0
  -19.6944  -25.6255   21.1195 H   0  0  0  0  0  0
  -19.6722  -27.3126   20.6675 H   0  0  0  0  0  0
  -17.4229  -26.6582   21.3968 H   0  0  0  0  0  0
  -18.0355  -25.9990   22.8939 H   0  0  0  0  0  0
  -19.7935  -30.7169   24.2251 H   0  0  0  0  0  0
  -17.5030  -31.6222   24.5087 H   0  0  0  0  0  0
  -15.5343  -30.2897   23.7681 H   0  0  0  0  0  0
  -15.8665  -28.0730   22.7093 H   0  0  0  0  0  0
  -24.5972  -30.6907   25.7699 H   0  0  0  0  0  0
  -24.8835  -32.2674   26.4937 H   0  0  0  0  0  0
  -25.8067  -30.8684   27.0191 H   0  0  0  0  0  0
  -26.2892  -29.6705   24.1272 H   0  0  0  0  0  0
  -27.4243  -29.7304   25.4549 H   0  0  0  0  0  0
  -27.8676  -30.4363   23.9223 H   0  0  0  0  0  0
  -27.2862  -33.3603   26.2014 H   0  0  0  0  0  0
  -28.3912  -32.6676   25.0239 H   0  0  0  0  0  0
  -28.0797  -31.8362   26.5368 H   0  0  0  0  0  0
  -28.2584  -38.0141   24.7532 H   0  0  0  0  0  0
  -28.1153  -36.2663   24.6273 H   0  0  0  0  0  0
  -27.2302  -37.1424   25.8851 H   0  0  0  0  0  0
  -20.9354  -29.8774   21.6942 H   0  0  0  0  0  0
  -26.0214  -38.2865   24.1337 H   0  0  0  0  0  0
  -30.2324  -19.2404   22.8842 H   0  0  0  0  0  0
  -28.4007  -25.4619   28.7089 H   0  0  0  0  0  0
  -29.9833  -25.6165   27.9650 H   0  0  0  0  0  0
  -29.6938  -24.3547   29.1612 H   0  0  0  0  0  0
  -31.5594  -22.5117   24.4185 H   0  0  0  0  0  0
  -31.0869  -20.9335   25.0002 H   0  0  0  0  0  0
  -27.9555  -22.3837   19.7237 H   0  0  0  0  0  0
  -29.5089  -22.1738   18.9575 H   0  0  0  0  0  0
  -28.3163  -24.5429   26.4319 H   0  0  0  0  0  0
  -28.0521  -23.2529   27.5754 H   0  0  0  0  0  0
  -28.8114  -21.6812   25.4975 H   0  0  0  0  0  0
  -29.0523  -23.1794   24.6421 H   0  0  0  0  0  0
  -29.2804  -24.4480   18.7243 H   0  0  0  0  0  0
  -30.2579  -24.4216   20.1475 H   0  0  0  0  0  0
  -30.3747  -22.4444   27.2886 H   0  0  0  0  0  0
  -30.7884  -23.8585   26.3488 H   0  0  0  0  0  0
  -30.9680  -18.2238   19.7584 H   0  0  0  0  0  0
  -29.4743  -17.5015   19.2875 H   0  0  0  0  0  0
  -28.1419  -19.1990   20.5052 H   0  0  0  0  0  0
  -29.1509  -19.8634   19.2615 H   0  0  0  0  0  0
  -29.2549  -17.2743   22.0257 H   0  0  0  0  0  0
  -30.9811  -17.1325   21.8428 H   0  0  0  0  0  0
  -28.1980  -25.0063   21.4958 H   0  0  0  0  0  0
  -27.2148  -24.7407   20.1028 H   0  0  0  0  0  0
  -30.0053  -23.3849   22.2973 H   0  0  0  0  0  0
  -28.8925  -15.2339   21.2377 H   0  0  0  0  0  0
  1 25  1  0  0  0
  1 30  2  0  0  0
  1 87  1  0  0  0
  2  3  1  0  0  0
  2 25  1  0  0  0
  2 88  1  0  0  0
  2 89  1  0  0  0
  3  4  1  0  0  0
  3 90  1  0  0  0
  3 91  1  0  0  0
  4  5  1  0  0  0
  4 92  1  0  0  0
  4 93  1  0  0  0
  5  6  1  0  0  0
  5 26  1  0  0  0
  5 94  1  0  0  0
  6 25  1  0  0  0
  6 95  1  0  0  0
  6 96  1  0  0  0
  7  8  2  0  0  0
  7 26  1  0  0  0
  7 29  1  0  0  0
  8  9  1  0  0  0
  8 22  1  0  0  0
  9 10  1  0  0  0
  9 27  2  0  0  0
 10 11  2  0  0  0
 10 15  1  0  0  0
 11 12  1  0  0  0
 11 97  1  0  0  0
 12 13  2  0  0  0
 12 98  1  0  0  0
 13 14  1  0  0  0
 13 31  1  0  0  0
 14 15  2  0  0  0
 14 99  1  0  0  0
 15100  1  0  0  0
 16 17  2  0  0  0
 16 21  1  0  0  0
 16 31  1  0  0  0
 17 18  1  0  0  0
 17101  1  0  0  0
 18 19  2  0  0  0
 18102  1  0  0  0
 19 20  1  0  0  0
 19 24  1  0  0  0
 20 21  2  0  0  0
 20103  1  0  0  0
 21 23  1  0  0  0
 22 28  1  0  0  0
 22 32  2  0  0  0
 26 27  1  0  0  0
 28104  1  0  0  0
 28105  1  0  0  0
 29106  1  0  0  0
 29107  1  0  0  0
 33 34  1  0  0  0
 33 66  1  0  0  0
 33 70  2  0  0  0
 34 36  1  0  0  0
 34 59  1  0  0  0
 34108  1  0  0  0
 35 44  2  0  0  0
 35 45  1  0  0  0
 35 68  1  0  0  0
 36 56  1  0  0  0
 36109  1  0  0  0
 37 39  1  0  0  0
 37 47  1  0  0  0
 37 66  1  0  0  0
 37110  1  0  0  0
 38 43  2  0  0  0
 38 46  1  0  0  0
 38 47  1  0  0  0
 39 64  1  0  0  0
 39 67  2  0  0  0
 40 52  1  0  0  0
 40 53  2  0  0  0
 40 58  1  0  0  0
 41111  1  0  0  0
 41112  1  0  0  0
 41113  1  0  0  0
 41 48  1  0  0  0
 42 43  1  0  0  0
 42 66  1  0  0  0
 42114  1  0  0  0
 42115  1  0  0  0
 43 44  1  0  0  0
 44116  1  0  0  0
 45 46  2  0  0  0
 45117  1  0  0  0
 46118  1  0  0  0
 47119  1  0  0  0
 47120  1  0  0  0
 48 56  1  0  0  0
 48 65  1  0  0  0
 48121  1  0  0  0
 49 50  1  0  0  0
 49 53  1  0  0  0
 49 64  1  0  0  0
 49122  1  0  0  0
 50 51  1  0  0  0
 50123  1  0  0  0
 50124  1  0  0  0
 51 52  1  0  0  0
 51125  1  0  0  0
 51126  1  0  0  0
 52127  1  0  0  0
 52128  1  0  0  0
 53 54  1  0  0  0
 54 55  2  0  0  0
 54129  1  0  0  0
 55 57  1  0  0  0
 55130  1  0  0  0
 56 69  2  0  0  0
 57 58  2  0  0  0
 57131  1  0  0  0
 58132  1  0  0  0
 59 60  1  0  0  0
 59 61  1  0  0  0
 59 62  1  0  0  0
 60133  1  0  0  0
 60134  1  0  0  0
 60135  1  0  0  0
 61136  1  0  0  0
 61137  1  0  0  0
 61138  1  0  0  0
 62139  1  0  0  0
 62140  1  0  0  0
 62141  1  0  0  0
 63 65  1  0  0  0
 63142  1  0  0  0
 63143  1  0  0  0
 63144  1  0  0  0
 64145  1  0  0  0
 65146  1  0  0  0
 68 84  1  0  0  0
 71 72  2  0  0  0
 71 85  1  0  0  0
 71147  1  0  0  0
 72 75  1  0  0  0
 72 86  1  0  0  0
 73 76  1  0  0  0
 73 85  1  0  0  0
 73 86  2  0  0  0
 74 77  1  0  0  0
 74148  1  0  0  0
 74149  1  0  0  0
 74150  1  0  0  0
 75 78  1  0  0  0
 75151  1  0  0  0
 75152  1  0  0  0
 76 79  1  0  0  0
 76153  1  0  0  0
 76154  1  0  0  0
 77 80  1  0  0  0
 77155  1  0  0  0
 77156  1  0  0  0
 78 80  1  0  0  0
 78157  1  0  0  0
 78158  1  0  0  0
 79 84  1  0  0  0
 79159  1  0  0  0
 79160  1  0  0  0
 80161  1  0  0  0
 80162  1  0  0  0
 81 82  1  0  0  0
 81 83  1  0  0  0
 81163  1  0  0  0
 81164  1  0  0  0
 82 85  1  0  0  0
 82165  1  0  0  0
 82166  1  0  0  0
 83 87  1  0  0  0
 83167  1  0  0  0
 83168  1  0  0  0
 84169  1  0  0  0
 84170  1  0  0  0
 86171  1  0  0  0
 87172  1  0  0  0
M  CHG  1  86   1
M  ISO  4   1 100  68 101  84 101  87 100
M  END
> <chiral flag>
0

> <version>
0

> <s_m_source_file>
/data/baiqing/PycharmProjects/Reinvent-master-3.2/result/LINK_invent/BTK/process_docking_weight1_custom_sum_contain_oxygen_bond_distance_aromatic_linkinvent_7_9_3/rearranged_h_0043.sdf

> <i_m_source_file_index>
40

> <r_mmod_Potential_Energy-OPLS-2005>
-19.4007568359375

> <r_mmod_Stretch_Energy-OPLS-2005>
59.5628356933594

> <r_mmod_Bend_Energy-OPLS-2005>
140.111755371094

> <r_mmod_Torsional_Energy-OPLS-2005>
245.472290039062

> <r_mmod_Improper_Torsional_Energy-OPLS-2005>
4.31888151168823

> <r_mmod_Van_der_Waal_Energy-OPLS-2005>
117.883941650391

> <r_mmod_Electrostatic_Energy-OPLS-2005>
-202.36213684082

> <r_mmod_Solvation_Energy-OPLS-2005>
-414.976196289062

> <b_mmod_Minimization_Converged-OPLS-2005>
0

> <r_mmod_RMS_Derivative-OPLS-2005>
3.34911060333252

$$$$
40
                    3D
 Structure written by MMmdl.
160168  0  0  1  0            999 V2000
  -30.6230  -14.7243   20.4357 C   0  0  0  0  0  0
  -30.4182  -12.4323   19.4796 C   0  0  0  0  0  0
  -29.5075  -12.5135   18.2345 C   0  0  0  0  0  0
  -28.0284  -12.3519   18.6375 C   0  0  0  0  0  0
  -27.6393  -13.2406   19.8502 C   0  0  2  0  0  0
  -28.6829  -13.1744   20.9875 C   0  0  0  0  0  0
  -25.2491  -13.8233   20.5700 C   0  0  0  0  0  0
  -24.1801  -13.0466   20.9228 C   0  0  0  0  0  0
  -24.6410  -11.6948   20.8755 C   0  0  0  0  0  0
  -23.9088  -10.4320   21.0418 C   0  0  0  0  0  0
  -24.3636   -9.4227   21.9188 C   0  0  0  0  0  0
  -23.6308   -8.2264   22.0739 C   0  0  0  0  0  0
  -22.4286   -8.0311   21.3536 C   0  0  0  0  0  0
  -21.9937   -9.0288   20.4634 C   0  0  0  0  0  0
  -22.7268  -10.2162   20.3058 C   0  0  0  0  0  0
  -21.6860   -6.0758   22.5281 C   0  0  0  0  0  0
  -21.4019   -6.5648   23.8219 C   0  0  0  0  0  0
  -21.3663   -5.6791   24.9181 C   0  0  0  0  0  0
  -21.6045   -4.3056   24.7226 C   0  0  0  0  0  0
  -21.8810   -3.8157   23.4344 C   0  0  0  0  0  0
  -21.9189   -4.6985   22.3404 C   0  0  0  0  0  0
  -22.7818  -13.5236   21.1872 C   0  0  0  0  0  0
  -22.1660   -4.2173   21.0982 F   0  0  0  0  0  0
  -21.5622   -3.4527   25.7735 F   0  0  0  0  0  0
  -29.9898  -13.5042   20.4072 N   0  0  0  0  0  0
  -26.2926  -12.9457   20.3267 N   0  0  0  0  0  0
  -25.9336  -11.6589   20.5740 N   0  0  0  0  0  0
  -22.0446  -12.8229   22.0417 N   0  0  0  0  0  0
  -25.4158  -15.1964   20.4083 N   0  0  0  0  0  0
  -31.8081  -14.8109   20.1085 O   0  0  0  0  0  0
  -21.6643   -6.8912   21.4248 O   0  0  0  0  0  0
  -22.3499  -14.5539   20.6716 O   0  0  0  0  0  0
  -24.6291  -31.8548   23.2000 C   0  0  0  0  0  0
  -25.9125  -32.4757   23.8335 C   0  0  1  0  0  0
  -27.2190  -27.2808   20.1240 C   0  0  0  0  0  0
  -25.5934  -33.8562   24.2256 N   0  0  0  0  0  0
  -23.4235  -30.4781   21.5427 C   0  0  2  0  0  0
  -24.8723  -28.9268   20.1105 C   0  0  0  0  0  0
  -22.7479  -29.4592   22.4915 C   0  0  0  0  0  0
  -18.0277  -28.1382   22.8484 C   0  0  0  0  0  0
  -24.1483  -36.7266   23.2639 C   0  0  0  0  0  0
  -25.9671  -30.7770   21.3745 C   0  0  0  0  0  0
  -26.0424  -29.4018   20.7143 C   0  0  0  0  0  0
  -27.2215  -28.5917   20.7065 C   0  0  0  0  0  0
  -26.0272  -26.8682   19.4907 C   0  0  0  0  0  0
  -24.8676  -27.6669   19.4896 C   0  0  0  0  0  0
  -23.6417  -29.8111   20.1588 C   0  0  0  0  0  0
  -25.4110  -36.3055   24.0316 C   0  0  1  0  0  0
  -20.5878  -28.3678   23.1280 C   0  0  2  0  0  0
  -20.6751  -26.9399   22.5421 C   0  0  0  0  0  0
  -19.5724  -26.6377   21.5220 C   0  0  0  0  0  0
  -18.1911  -26.7923   22.1636 C   0  0  0  0  0  0
  -19.1532  -28.8850   23.2874 C   0  0  0  0  0  0
  -18.9453  -30.1460   23.8895 C   0  0  0  0  0  0
  -17.6450  -30.6594   24.0555 C   0  0  0  0  0  0
  -25.9050  -34.9434   23.5083 C   0  0  0  0  0  0
  -16.5339  -29.9090   23.6332 C   0  0  0  0  0  0
  -16.7264  -28.6501   23.0358 C   0  0  0  0  0  0
  -26.4515  -31.6586   25.0720 C   0  0  0  0  0  0
  -25.3762  -31.3747   26.1456 C   0  0  0  0  0  0
  -27.0352  -30.2992   24.6216 C   0  0  0  0  0  0
  -27.6050  -32.4335   25.7516 C   0  0  0  0  0  0
  -27.5566  -37.1792   24.8463 C   0  0  0  0  0  0
  -21.4184  -29.3031   22.3680 N   0  0  0  0  0  0
  -26.4268  -37.3767   23.9421 N   0  0  0  0  0  0
  -24.6923  -31.0525   22.0969 N   0  0  0  0  0  0
  -23.4191  -28.8113   23.2985 O   0  0  0  0  0  0
  -28.3332  -26.4182   20.1477 O   0  0  0  0  0  0
  -26.5610  -34.8903   22.4650 O   0  0  0  0  0  0
  -23.5447  -32.1348   23.7313 O   0  0  0  0  0  0
  -29.1401  -24.7645   17.9789 C   0  0  0  0  0  0
  -28.8197  -24.0393   19.1424 C   0  0  0  0  0  0
  -29.1076  -22.5995   19.0748 C   0  0  0  0  0  0
  -29.9591  -22.9284   16.9357 C   0  0  0  0  0  0
  -29.6395  -22.0242   14.5760 C   0  0  0  0  0  0
  -28.1742  -24.9258   20.2694 C   0  0  0  0  0  0
  -28.8475  -21.3951   20.0826 C   0  0  0  0  0  0
  -30.6233  -22.3111   15.7171 C   0  0  0  0  0  0
  -29.5614  -19.9611   19.7384 C   0  0  0  0  0  0
  -29.3273  -18.5730   20.5386 C   0  0  0  0  0  0
  -30.2131  -17.2825   20.1175 C   0  0  0  0  0  0
  -29.7067  -24.2213   16.8903 N   0  0  0  0  0  0
  -29.6621  -22.1204   17.9384 N   0  0  0  0  0  0
  -29.8561  -15.8693   20.5818 N   0  0  0  0  0  0
  -31.4663  -12.5236   19.1908 H   0  0  0  0  0  0
  -30.3242  -11.4573   19.9590 H   0  0  0  0  0  0
  -29.7818  -11.7486   17.5083 H   0  0  0  0  0  0
  -29.6470  -13.4750   17.7359 H   0  0  0  0  0  0
  -27.8620  -11.3012   18.8740 H   0  0  0  0  0  0
  -27.3827  -12.5736   17.7880 H   0  0  0  0  0  0
  -27.6315  -14.2627   19.4717 H   0  0  0  0  0  0
  -28.7053  -12.1858   21.4472 H   0  0  0  0  0  0
  -28.4229  -13.8746   21.7814 H   0  0  0  0  0  0
  -25.2790   -9.5701   22.4755 H   0  0  0  0  0  0
  -24.0021   -7.4650   22.7448 H   0  0  0  0  0  0
  -21.0866   -8.8829   19.8932 H   0  0  0  0  0  0
  -22.3747  -10.9712   19.6158 H   0  0  0  0  0  0
  -21.2022   -7.6153   23.9747 H   0  0  0  0  0  0
  -21.1479   -6.0507   25.9081 H   0  0  0  0  0  0
  -22.0580   -2.7622   23.2832 H   0  0  0  0  0  0
  -22.4073  -11.9916   22.4851 H   0  0  0  0  0  0
  -21.1045  -13.1240   22.2572 H   0  0  0  0  0  0
  -24.6406  -15.8437   20.5036 H   0  0  0  0  0  0
  -26.2522  -15.6347   20.0435 H   0  0  0  0  0  0
  -26.7196  -32.5420   23.1084 H   0  0  0  0  0  0
  -25.0111  -33.9719   25.0416 H   0  0  0  0  0  0
  -22.7181  -31.2984   21.3978 H   0  0  0  0  0  0
  -23.3749  -35.9601   23.3299 H   0  0  0  0  0  0
  -24.3560  -36.8899   22.2057 H   0  0  0  0  0  0
  -23.7244  -37.6464   23.6666 H   0  0  0  0  0  0
  -26.1025  -31.5431   20.6090 H   0  0  0  0  0  0
  -26.8445  -30.8258   22.0087 H   0  0  0  0  0  0
  -28.1222  -28.9511   21.1836 H   0  0  0  0  0  0
  -25.9742  -25.9102   18.9942 H   0  0  0  0  0  0
  -23.9712  -27.3029   19.0082 H   0  0  0  0  0  0
  -23.7643  -30.5859   19.4010 H   0  0  0  0  0  0
  -22.7599  -29.2421   19.8537 H   0  0  0  0  0  0
  -25.1307  -36.1893   25.0806 H   0  0  0  0  0  0
  -20.9972  -28.3269   24.1393 H   0  0  0  0  0  0
  -20.5627  -26.2300   23.3627 H   0  0  0  0  0  0
  -21.6622  -26.7407   22.1229 H   0  0  0  0  0  0
  -19.6873  -25.6286   21.1253 H   0  0  0  0  0  0
  -19.6667  -27.3186   20.6747 H   0  0  0  0  0  0
  -17.4176  -26.6662   21.4047 H   0  0  0  0  0  0
  -18.0307  -26.0077   22.9044 H   0  0  0  0  0  0
  -19.7935  -30.7270   24.2263 H   0  0  0  0  0  0
  -17.5013  -31.6275   24.5159 H   0  0  0  0  0  0
  -15.5347  -30.2989   23.7668 H   0  0  0  0  0  0
  -15.8652  -28.0826   22.7074 H   0  0  0  0  0  0
  -24.5940  -30.7078   25.7815 H   0  0  0  0  0  0
  -24.8959  -32.2924   26.4852 H   0  0  0  0  0  0
  -25.8109  -30.8971   27.0248 H   0  0  0  0  0  0
  -26.2933  -29.6745   24.1224 H   0  0  0  0  0  0
  -27.3993  -29.7255   25.4752 H   0  0  0  0  0  0
  -27.8834  -30.4231   23.9479 H   0  0  0  0  0  0
  -27.2634  -33.3648   26.2049 H   0  0  0  0  0  0
  -28.3907  -32.6881   25.0389 H   0  0  0  0  0  0
  -28.0661  -31.8493   26.5490 H   0  0  0  0  0  0
  -28.2579  -38.0089   24.7503 H   0  0  0  0  0  0
  -28.1065  -36.2621   24.6302 H   0  0  0  0  0  0
  -27.2275  -37.1460   25.8860 H   0  0  0  0  0  0
  -20.9349  -29.8826   21.6967 H   0  0  0  0  0  0
  -26.0134  -38.2830   24.1455 H   0  0  0  0  0  0
  -28.9329  -25.8203   17.8957 H   0  0  0  0  0  0
  -29.1393  -22.9381   14.2524 H   0  0  0  0  0  0
  -28.8749  -21.3128   14.8875 H   0  0  0  0  0  0
  -30.1619  -21.6068   13.7157 H   0  0  0  0  0  0
  -27.1277  -24.6399   20.3743 H   0  0  0  0  0  0
  -28.6411  -24.6313   21.2102 H   0  0  0  0  0  0
  -27.7670  -21.2427   20.1326 H   0  0  0  0  0  0
  -29.1474  -21.7186   21.0793 H   0  0  0  0  0  0
  -31.1177  -21.3830   16.0039 H   0  0  0  0  0  0
  -31.4152  -22.9746   15.3693 H   0  0  0  0  0  0
  -30.6355  -20.1409   19.7059 H   0  0  0  0  0  0
  -29.2878  -19.7189   18.7105 H   0  0  0  0  0  0
  -28.2713  -18.3156   20.4519 H   0  0  0  0  0  0
  -29.4963  -18.7637   21.5992 H   0  0  0  0  0  0
  -30.2384  -17.2450   19.0274 H   0  0  0  0  0  0
  -31.2474  -17.4768   20.4085 H   0  0  0  0  0  0
  -28.8990  -15.7196   20.8636 H   0  0  0  0  0  0
  1 25  1  0  0  0
  1 30  2  0  0  0
  1 84  1  0  0  0
  2  3  1  0  0  0
  2 25  1  0  0  0
  2 85  1  0  0  0
  2 86  1  0  0  0
  3  4  1  0  0  0
  3 87  1  0  0  0
  3 88  1  0  0  0
  4  5  1  0  0  0
  4 89  1  0  0  0
  4 90  1  0  0  0
  5  6  1  0  0  0
  5 26  1  0  0  0
  5 91  1  0  0  0
  6 25  1  0  0  0
  6 92  1  0  0  0
  6 93  1  0  0  0
  7  8  2  0  0  0
  7 26  1  0  0  0
  7 29  1  0  0  0
  8  9  1  0  0  0
  8 22  1  0  0  0
  9 10  1  0  0  0
  9 27  2  0  0  0
 10 11  2  0  0  0
 10 15  1  0  0  0
 11 12  1  0  0  0
 11 94  1  0  0  0
 12 13  2  0  0  0
 12 95  1  0  0  0
 13 14  1  0  0  0
 13 31  1  0  0  0
 14 15  2  0  0  0
 14 96  1  0  0  0
 15 97  1  0  0  0
 16 17  2  0  0  0
 16 21  1  0  0  0
 16 31  1  0  0  0
 17 18  1  0  0  0
 17 98  1  0  0  0
 18 19  2  0  0  0
 18 99  1  0  0  0
 19 20  1  0  0  0
 19 24  1  0  0  0
 20 21  2  0  0  0
 20100  1  0  0  0
 21 23  1  0  0  0
 22 28  1  0  0  0
 22 32  2  0  0  0
 26 27  1  0  0  0
 28101  1  0  0  0
 28102  1  0  0  0
 29103  1  0  0  0
 29104  1  0  0  0
 33 34  1  0  0  0
 33 66  1  0  0  0
 33 70  2  0  0  0
 34 36  1  0  0  0
 34 59  1  0  0  0
 34105  1  0  0  0
 35 44  2  0  0  0
 35 45  1  0  0  0
 35 68  1  0  0  0
 36 56  1  0  0  0
 36106  1  0  0  0
 37 39  1  0  0  0
 37 47  1  0  0  0
 37 66  1  0  0  0
 37107  1  0  0  0
 38 43  2  0  0  0
 38 46  1  0  0  0
 38 47  1  0  0  0
 39 64  1  0  0  0
 39 67  2  0  0  0
 40 52  1  0  0  0
 40 53  2  0  0  0
 40 58  1  0  0  0
 41108  1  0  0  0
 41109  1  0  0  0
 41110  1  0  0  0
 41 48  1  0  0  0
 42 43  1  0  0  0
 42 66  1  0  0  0
 42111  1  0  0  0
 42112  1  0  0  0
 43 44  1  0  0  0
 44113  1  0  0  0
 45 46  2  0  0  0
 45114  1  0  0  0
 46115  1  0  0  0
 47116  1  0  0  0
 47117  1  0  0  0
 48 56  1  0  0  0
 48 65  1  0  0  0
 48118  1  0  0  0
 49 50  1  0  0  0
 49 53  1  0  0  0
 49 64  1  0  0  0
 49119  1  0  0  0
 50 51  1  0  0  0
 50120  1  0  0  0
 50121  1  0  0  0
 51 52  1  0  0  0
 51122  1  0  0  0
 51123  1  0  0  0
 52124  1  0  0  0
 52125  1  0  0  0
 53 54  1  0  0  0
 54 55  2  0  0  0
 54126  1  0  0  0
 55 57  1  0  0  0
 55127  1  0  0  0
 56 69  2  0  0  0
 57 58  2  0  0  0
 57128  1  0  0  0
 58129  1  0  0  0
 59 60  1  0  0  0
 59 61  1  0  0  0
 59 62  1  0  0  0
 60130  1  0  0  0
 60131  1  0  0  0
 60132  1  0  0  0
 61133  1  0  0  0
 61134  1  0  0  0
 61135  1  0  0  0
 62136  1  0  0  0
 62137  1  0  0  0
 62138  1  0  0  0
 63 65  1  0  0  0
 63139  1  0  0  0
 63140  1  0  0  0
 63141  1  0  0  0
 64142  1  0  0  0
 65143  1  0  0  0
 68 76  1  0  0  0
 71 72  2  0  0  0
 71 82  1  0  0  0
 71144  1  0  0  0
 72 73  1  0  0  0
 72 76  1  0  0  0
 73 77  1  0  0  0
 73 83  2  0  0  0
 74 78  1  0  0  0
 74 82  2  0  0  0
 74 83  1  0  0  0
 75 78  1  0  0  0
 75145  1  0  0  0
 75146  1  0  0  0
 75147  1  0  0  0
 76148  1  0  0  0
 76149  1  0  0  0
 77 79  1  0  0  0
 77150  1  0  0  0
 77151  1  0  0  0
 78152  1  0  0  0
 78153  1  0  0  0
 79 80  1  0  0  0
 79154  1  0  0  0
 79155  1  0  0  0
 80 81  1  0  0  0
 80156  1  0  0  0
 80157  1  0  0  0
 81 84  1  0  0  0
 81158  1  0  0  0
 81159  1  0  0  0
 84160  1  0  0  0
M  ISO  4   1 100  68 101  76 101  84 100
M  END
> <chiral flag>
0

> <version>
0

> <s_m_source_file>
/data/baiqing/PycharmProjects/Reinvent-master-3.2/result/LINK_invent/BTK/process_docking_weight1_custom_sum_contain_oxygen_bond_distance_aromatic_linkinvent_7_9_3/rearranged_h_0043.sdf

> <i_m_source_file_index>
41

> <r_mmod_Potential_Energy-OPLS-2005>
-243.328384399414

> <r_mmod_Stretch_Energy-OPLS-2005>
123.583366394043

> <r_mmod_Bend_Energy-OPLS-2005>
184.931121826172

> <r_mmod_Torsional_Energy-OPLS-2005>
216.716430664062

> <r_mmod_Improper_Torsional_Energy-OPLS-2005>
6.5368824005127

> <r_mmod_Van_der_Waal_Energy-OPLS-2005>
148.889068603516

> <r_mmod_Electrostatic_Energy-OPLS-2005>
-769.886962890625

> <r_mmod_Solvation_Energy-OPLS-2005>
-228.210433959961

> <b_mmod_Minimization_Converged-OPLS-2005>
0

> <r_mmod_RMS_Derivative-OPLS-2005>
2.90391731262207

$$$$
41
                    3D
 Structure written by MMmdl.
166174  0  0  1  0            999 V2000
  -30.7489  -14.4287   20.6446 C   0  0  0  0  0  0
  -30.4262  -12.3145   19.4037 C   0  0  0  0  0  0
  -29.4906  -12.5169   18.1959 C   0  0  0  0  0  0
  -28.0149  -12.3720   18.6151 C   0  0  0  0  0  0
  -27.6674  -13.2058   19.8772 C   0  0  2  0  0  0
  -28.7106  -12.9727   20.9928 C   0  0  0  0  0  0
  -25.2626  -13.8167   20.5674 C   0  0  0  0  0  0
  -24.1863  -13.0444   20.9169 C   0  0  0  0  0  0
  -24.6410  -11.6911   20.8741 C   0  0  0  0  0  0
  -23.9070  -10.4301   21.0410 C   0  0  0  0  0  0
  -24.3617   -9.4221   21.9183 C   0  0  0  0  0  0
  -23.6291   -8.2257   22.0758 C   0  0  0  0  0  0
  -22.4280   -8.0297   21.3537 C   0  0  0  0  0  0
  -21.9921   -9.0275   20.4642 C   0  0  0  0  0  0
  -22.7250  -10.2145   20.3056 C   0  0  0  0  0  0
  -21.6856   -6.0746   22.5275 C   0  0  0  0  0  0
  -21.4007   -6.5647   23.8214 C   0  0  0  0  0  0
  -21.3656   -5.6795   24.9173 C   0  0  0  0  0  0
  -21.6044   -4.3062   24.7217 C   0  0  0  0  0  0
  -21.8824   -3.8163   23.4344 C   0  0  0  0  0  0
  -21.9191   -4.6974   22.3398 C   0  0  0  0  0  0
  -22.7888  -13.5255   21.1816 C   0  0  0  0  0  0
  -22.1665   -4.2166   21.0970 F   0  0  0  0  0  0
  -21.5630   -3.4537   25.7733 F   0  0  0  0  0  0
  -30.0438  -13.2816   20.4437 N   0  0  0  0  0  0
  -26.3067  -12.9325   20.3371 N   0  0  0  0  0  0
  -25.9333  -11.6493   20.5767 N   0  0  0  0  0  0
  -22.0504  -12.8250   22.0375 N   0  0  0  0  0  0
  -25.4361  -15.1869   20.4074 N   0  0  0  0  0  0
  -31.8250  -14.6621   20.0897 O   0  0  0  0  0  0
  -21.6636   -6.8892   21.4240 O   0  0  0  0  0  0
  -22.3588  -14.5570   20.6685 O   0  0  0  0  0  0
  -24.6128  -31.8724   23.2092 C   0  0  0  0  0  0
  -25.9016  -32.4851   23.8424 C   0  0  1  0  0  0
  -27.2346  -27.4324   20.1044 C   0  0  0  0  0  0
  -25.5819  -33.8637   24.2323 N   0  0  0  0  0  0
  -23.4003  -30.4919   21.5545 C   0  0  2  0  0  0
  -24.8476  -28.9578   20.1218 C   0  0  0  0  0  0
  -22.7430  -29.4652   22.5047 C   0  0  0  0  0  0
  -18.0254  -28.1358   22.8496 C   0  0  0  0  0  0
  -24.1483  -36.7339   23.2641 C   0  0  0  0  0  0
  -25.9310  -30.8370   21.3638 C   0  0  0  0  0  0
  -26.0079  -29.4700   20.7148 C   0  0  0  0  0  0
  -27.2015  -28.7115   20.7058 C   0  0  0  0  0  0
  -26.0505  -26.9322   19.5105 C   0  0  0  0  0  0
  -24.8636  -27.6881   19.5208 C   0  0  0  0  0  0
  -23.6077  -29.8235   20.1705 C   0  0  0  0  0  0
  -25.4098  -36.3122   24.0331 C   0  0  1  0  0  0
  -20.5847  -28.3649   23.1351 C   0  0  2  0  0  0
  -20.6744  -26.9385   22.5442 C   0  0  0  0  0  0
  -19.5718  -26.6379   21.5236 C   0  0  0  0  0  0
  -18.1891  -26.7900   22.1634 C   0  0  0  0  0  0
  -19.1505  -28.8822   23.2905 C   0  0  0  0  0  0
  -18.9450  -30.1428   23.8917 C   0  0  0  0  0  0
  -17.6452  -30.6574   24.0565 C   0  0  0  0  0  0
  -25.9010  -34.9486   23.5151 C   0  0  0  0  0  0
  -16.5338  -29.9073   23.6321 C   0  0  0  0  0  0
  -16.7241  -28.6488   23.0344 C   0  0  0  0  0  0
  -26.4429  -31.6627   25.0771 C   0  0  0  0  0  0
  -25.3638  -31.3769   26.1501 C   0  0  0  0  0  0
  -27.0249  -30.3048   24.6148 C   0  0  0  0  0  0
  -27.6012  -32.4362   25.7498 C   0  0  0  0  0  0
  -27.5582  -37.1808   24.8441 C   0  0  0  0  0  0
  -21.4161  -29.3017   22.3809 N   0  0  0  0  0  0
  -26.4278  -37.3794   23.9408 N   0  0  0  0  0  0
  -24.6663  -31.0819   22.1005 N   0  0  0  0  0  0
  -23.4240  -28.8193   23.3053 O   0  0  0  0  0  0
  -28.4211  -26.7231   20.1350 O   0  0  0  0  0  0
  -26.5650  -34.8939   22.4755 O   0  0  0  0  0  0
  -23.5313  -32.1503   23.7467 O   0  0  0  0  0  0
  -27.8017  -20.9710   21.8991 C   0  0  0  0  0  0
  -27.9271  -22.0074   20.9321 C   0  0  0  0  0  0
  -29.3768  -20.6759   19.7161 C   0  0  0  0  0  0
  -29.1599  -19.5986   20.6192 C   0  0  0  0  0  0
  -26.9574  -21.1102   23.1540 C   0  0  0  0  0  0
  -29.4969  -20.0849   17.2526 C   0  0  0  0  0  0
  -30.2661  -20.5661   18.4892 C   0  0  0  0  0  0
  -27.0580  -23.2635   20.9374 C   0  0  0  0  0  0
  -29.6113  -18.1624   20.3341 C   0  0  0  0  0  0
  -30.9229  -17.7219   21.0145 C   0  0  0  0  0  0
  -27.7833  -24.5923   21.2390 C   0  0  0  0  0  0
  -30.7872  -16.5471   22.0163 C   0  0  0  0  0  0
  -28.3875  -25.2947   19.9985 C   0  0  0  0  0  0
  -28.4134  -19.7709   21.7376 N   0  0  0  0  0  0
  -28.7476  -21.8676   19.8651 N   0  0  0  0  0  0
  -30.1850  -15.3158   21.4800 N   0  0  0  0  0  0
  -31.4683  -12.4204   19.0973 H   0  0  0  0  0  0
  -30.3330  -11.2994   19.7927 H   0  0  0  0  0  0
  -29.7282  -11.7938   17.4157 H   0  0  0  0  0  0
  -29.6546  -13.5039   17.7587 H   0  0  0  0  0  0
  -27.8313  -11.3147   18.8088 H   0  0  0  0  0  0
  -27.3599  -12.6476   17.7887 H   0  0  0  0  0  0
  -27.7180  -14.2561   19.5901 H   0  0  0  0  0  0
  -28.6891  -11.9314   21.3180 H   0  0  0  0  0  0
  -28.4600  -13.5530   21.8805 H   0  0  0  0  0  0
  -25.2766   -9.5696   22.4764 H   0  0  0  0  0  0
  -24.0000   -7.4652   22.7482 H   0  0  0  0  0  0
  -21.0856   -8.8797   19.8942 H   0  0  0  0  0  0
  -22.3718  -10.9693   19.6166 H   0  0  0  0  0  0
  -21.2001   -7.6155   23.9720 H   0  0  0  0  0  0
  -21.1468   -6.0524   25.9075 H   0  0  0  0  0  0
  -22.0608   -2.7624   23.2833 H   0  0  0  0  0  0
  -22.4100  -11.9899   22.4761 H   0  0  0  0  0  0
  -21.1114  -13.1280   22.2540 H   0  0  0  0  0  0
  -24.6729  -15.8467   20.5175 H   0  0  0  0  0  0
  -26.2943  -15.6234   20.0964 H   0  0  0  0  0  0
  -26.7128  -32.5614   23.1239 H   0  0  0  0  0  0
  -24.9802  -33.9780   25.0356 H   0  0  0  0  0  0
  -22.6852  -31.3076   21.4152 H   0  0  0  0  0  0
  -23.3721  -35.9692   23.3278 H   0  0  0  0  0  0
  -24.3580  -36.8989   22.2055 H   0  0  0  0  0  0
  -23.7264  -37.6538   23.6706 H   0  0  0  0  0  0
  -26.0390  -31.6015   20.5926 H   0  0  0  0  0  0
  -26.8198  -30.8991   21.9809 H   0  0  0  0  0  0
  -28.0967  -29.0894   21.1802 H   0  0  0  0  0  0
  -26.0140  -25.9614   19.0420 H   0  0  0  0  0  0
  -23.9660  -27.2840   19.0700 H   0  0  0  0  0  0
  -23.7135  -30.6001   19.4126 H   0  0  0  0  0  0
  -22.7330  -29.2394   19.8775 H   0  0  0  0  0  0
  -25.1256  -36.1989   25.0812 H   0  0  0  0  0  0
  -20.9917  -28.3233   24.1476 H   0  0  0  0  0  0
  -20.5685  -26.2244   23.3626 H   0  0  0  0  0  0
  -21.6609  -26.7458   22.1204 H   0  0  0  0  0  0
  -19.6898  -25.6311   21.1213 H   0  0  0  0  0  0
  -19.6649  -27.3243   20.6804 H   0  0  0  0  0  0
  -17.4165  -26.6672   21.4016 H   0  0  0  0  0  0
  -18.0241  -26.0051   22.9023 H   0  0  0  0  0  0
  -19.7937  -30.7202   24.2317 H   0  0  0  0  0  0
  -17.5012  -31.6255   24.5168 H   0  0  0  0  0  0
  -15.5334  -30.2972   23.7632 H   0  0  0  0  0  0
  -15.8640  -28.0818   22.7040 H   0  0  0  0  0  0
  -24.5756  -30.7204   25.7807 H   0  0  0  0  0  0
  -24.8888  -32.2937   26.5004 H   0  0  0  0  0  0
  -25.7899  -30.8872   27.0265 H   0  0  0  0  0  0
  -26.2837  -29.6841   24.1107 H   0  0  0  0  0  0
  -27.3885  -29.7258   25.4652 H   0  0  0  0  0  0
  -27.8716  -30.4320   23.9399 H   0  0  0  0  0  0
  -27.2633  -33.3657   26.2102 H   0  0  0  0  0  0
  -28.3762  -32.6947   25.0264 H   0  0  0  0  0  0
  -28.0757  -31.8493   26.5378 H   0  0  0  0  0  0
  -28.2547  -38.0150   24.7501 H   0  0  0  0  0  0
  -28.1112  -36.2668   24.6209 H   0  0  0  0  0  0
  -27.2302  -37.1355   25.8842 H   0  0  0  0  0  0
  -20.9376  -29.8748   21.7013 H   0  0  0  0  0  0
  -26.0171  -38.2869   24.1429 H   0  0  0  0  0  0
  -27.3451  -21.9172   23.7772 H   0  0  0  0  0  0
  -26.9746  -20.1978   23.7508 H   0  0  0  0  0  0
  -25.9157  -21.3214   22.9125 H   0  0  0  0  0  0
  -30.1649  -20.0350   16.3947 H   0  0  0  0  0  0
  -28.6763  -20.7555   17.0029 H   0  0  0  0  0  0
  -29.0768  -19.0892   17.4009 H   0  0  0  0  0  0
  -31.1129  -19.9121   18.7020 H   0  0  0  0  0  0
  -30.7035  -21.5453   18.2827 H   0  0  0  0  0  0
  -26.2470  -23.1390   21.6510 H   0  0  0  0  0  0
  -26.5476  -23.3307   19.9759 H   0  0  0  0  0  0
  -29.7123  -18.0151   19.2600 H   0  0  0  0  0  0
  -28.7993  -17.4957   20.6257 H   0  0  0  0  0  0
  -31.3843  -18.5766   21.5120 H   0  0  0  0  0  0
  -31.6317  -17.4337   20.2365 H   0  0  0  0  0  0
  -28.5309  -24.4637   22.0210 H   0  0  0  0  0  0
  -27.0302  -25.2492   21.6729 H   0  0  0  0  0  0
  -30.1785  -16.8732   22.8604 H   0  0  0  0  0  0
  -31.7687  -16.3076   22.4301 H   0  0  0  0  0  0
  -27.8958  -25.0023   19.0714 H   0  0  0  0  0  0
  -29.4153  -24.9515   19.8781 H   0  0  0  0  0  0
  -29.2957  -15.0402   21.8720 H   0  0  0  0  0  0
  1 25  1  0  0  0
  1 30  2  0  0  0
  1 86  1  0  0  0
  2  3  1  0  0  0
  2 25  1  0  0  0
  2 87  1  0  0  0
  2 88  1  0  0  0
  3  4  1  0  0  0
  3 89  1  0  0  0
  3 90  1  0  0  0
  4  5  1  0  0  0
  4 91  1  0  0  0
  4 92  1  0  0  0
  5  6  1  0  0  0
  5 26  1  0  0  0
  5 93  1  0  0  0
  6 25  1  0  0  0
  6 94  1  0  0  0
  6 95  1  0  0  0
  7  8  2  0  0  0
  7 26  1  0  0  0
  7 29  1  0  0  0
  8  9  1  0  0  0
  8 22  1  0  0  0
  9 10  1  0  0  0
  9 27  2  0  0  0
 10 11  2  0  0  0
 10 15  1  0  0  0
 11 12  1  0  0  0
 11 96  1  0  0  0
 12 13  2  0  0  0
 12 97  1  0  0  0
 13 14  1  0  0  0
 13 31  1  0  0  0
 14 15  2  0  0  0
 14 98  1  0  0  0
 15 99  1  0  0  0
 16 17  2  0  0  0
 16 21  1  0  0  0
 16 31  1  0  0  0
 17 18  1  0  0  0
 17100  1  0  0  0
 18 19  2  0  0  0
 18101  1  0  0  0
 19 20  1  0  0  0
 19 24  1  0  0  0
 20 21  2  0  0  0
 20102  1  0  0  0
 21 23  1  0  0  0
 22 28  1  0  0  0
 22 32  2  0  0  0
 26 27  1  0  0  0
 28103  1  0  0  0
 28104  1  0  0  0
 29105  1  0  0  0
 29106  1  0  0  0
 33 34  1  0  0  0
 33 66  1  0  0  0
 33 70  2  0  0  0
 34 36  1  0  0  0
 34 59  1  0  0  0
 34107  1  0  0  0
 35 44  2  0  0  0
 35 45  1  0  0  0
 35 68  1  0  0  0
 36 56  1  0  0  0
 36108  1  0  0  0
 37 39  1  0  0  0
 37 47  1  0  0  0
 37 66  1  0  0  0
 37109  1  0  0  0
 38 43  2  0  0  0
 38 46  1  0  0  0
 38 47  1  0  0  0
 39 64  1  0  0  0
 39 67  2  0  0  0
 40 52  1  0  0  0
 40 53  2  0  0  0
 40 58  1  0  0  0
 41110  1  0  0  0
 41111  1  0  0  0
 41112  1  0  0  0
 41 48  1  0  0  0
 42 43  1  0  0  0
 42 66  1  0  0  0
 42113  1  0  0  0
 42114  1  0  0  0
 43 44  1  0  0  0
 44115  1  0  0  0
 45 46  2  0  0  0
 45116  1  0  0  0
 46117  1  0  0  0
 47118  1  0  0  0
 47119  1  0  0  0
 48 56  1  0  0  0
 48 65  1  0  0  0
 48120  1  0  0  0
 49 50  1  0  0  0
 49 53  1  0  0  0
 49 64  1  0  0  0
 49121  1  0  0  0
 50 51  1  0  0  0
 50122  1  0  0  0
 50123  1  0  0  0
 51 52  1  0  0  0
 51124  1  0  0  0
 51125  1  0  0  0
 52126  1  0  0  0
 52127  1  0  0  0
 53 54  1  0  0  0
 54 55  2  0  0  0
 54128  1  0  0  0
 55 57  1  0  0  0
 55129  1  0  0  0
 56 69  2  0  0  0
 57 58  2  0  0  0
 57130  1  0  0  0
 58131  1  0  0  0
 59 60  1  0  0  0
 59 61  1  0  0  0
 59 62  1  0  0  0
 60132  1  0  0  0
 60133  1  0  0  0
 60134  1  0  0  0
 61135  1  0  0  0
 61136  1  0  0  0
 61137  1  0  0  0
 62138  1  0  0  0
 62139  1  0  0  0
 62140  1  0  0  0
 63 65  1  0  0  0
 63141  1  0  0  0
 63142  1  0  0  0
 63143  1  0  0  0
 64144  1  0  0  0
 65145  1  0  0  0
 68 83  1  0  0  0
 71 72  2  0  0  0
 71 75  1  0  0  0
 71 84  1  0  0  0
 72 78  1  0  0  0
 72 85  1  0  0  0
 73 74  1  0  0  0
 73 77  1  0  0  0
 73 85  2  0  0  0
 74 79  1  0  0  0
 74 84  2  0  0  0
 75146  1  0  0  0
 75147  1  0  0  0
 75148  1  0  0  0
 76 77  1  0  0  0
 76149  1  0  0  0
 76150  1  0  0  0
 76151  1  0  0  0
 77152  1  0  0  0
 77153  1  0  0  0
 78 81  1  0  0  0
 78154  1  0  0  0
 78155  1  0  0  0
 79 80  1  0  0  0
 79156  1  0  0  0
 79157  1  0  0  0
 80 82  1  0  0  0
 80158  1  0  0  0
 80159  1  0  0  0
 81 83  1  0  0  0
 81160  1  0  0  0
 81161  1  0  0  0
 82 86  1  0  0  0
 82162  1  0  0  0
 82163  1  0  0  0
 83164  1  0  0  0
 83165  1  0  0  0
 86166  1  0  0  0
M  ISO  4   1 100  68 101  83 101  86 100
M  END
> <chiral flag>
0

> <version>
0

> <s_m_source_file>
/data/baiqing/PycharmProjects/Reinvent-master-3.2/result/LINK_invent/BTK/process_docking_weight1_custom_sum_contain_oxygen_bond_distance_aromatic_linkinvent_7_9_3/rearranged_h_0043.sdf

> <i_m_source_file_index>
42

> <r_mmod_Potential_Energy-OPLS-2005>
-78.8227386474609

> <r_mmod_Stretch_Energy-OPLS-2005>
38.7423706054688

> <r_mmod_Bend_Energy-OPLS-2005>
107.434288024902

> <r_mmod_Torsional_Energy-OPLS-2005>
200.224655151367

> <r_mmod_Improper_Torsional_Energy-OPLS-2005>
2.74480366706848

> <r_mmod_Van_der_Waal_Energy-OPLS-2005>
154.711791992188

> <r_mmod_Electrostatic_Energy-OPLS-2005>
-380.015625

> <r_mmod_Solvation_Energy-OPLS-2005>
-213.395034790039

> <b_mmod_Minimization_Converged-OPLS-2005>
0

> <r_mmod_RMS_Derivative-OPLS-2005>
3.59412550926208

$$$$
42
                    3D
 Structure written by MMmdl.
166174  0  0  1  0            999 V2000
  -30.6899  -14.4588   20.5559 C   0  0  0  0  0  0
  -30.4300  -12.2948   19.4165 C   0  0  0  0  0  0
  -29.4951  -12.4884   18.2039 C   0  0  0  0  0  0
  -28.0124  -12.3670   18.6145 C   0  0  0  0  0  0
  -27.6624  -13.2035   19.8752 C   0  0  2  0  0  0
  -28.7068  -12.9675   20.9919 C   0  0  0  0  0  0
  -25.2611  -13.8158   20.5737 C   0  0  0  0  0  0
  -24.1853  -13.0448   20.9224 C   0  0  0  0  0  0
  -24.6391  -11.6905   20.8763 C   0  0  0  0  0  0
  -23.9053  -10.4295   21.0434 C   0  0  0  0  0  0
  -24.3609   -9.4202   21.9202 C   0  0  0  0  0  0
  -23.6289   -8.2226   22.0769 C   0  0  0  0  0  0
  -22.4270   -8.0265   21.3559 C   0  0  0  0  0  0
  -21.9901   -9.0238   20.4660 C   0  0  0  0  0  0
  -22.7224  -10.2127   20.3081 C   0  0  0  0  0  0
  -21.6854   -6.0721   22.5267 C   0  0  0  0  0  0
  -21.4011   -6.5629   23.8202 C   0  0  0  0  0  0
  -21.3659   -5.6791   24.9169 C   0  0  0  0  0  0
  -21.6042   -4.3048   24.7217 C   0  0  0  0  0  0
  -21.8831   -3.8134   23.4346 C   0  0  0  0  0  0
  -21.9201   -4.6960   22.3404 C   0  0  0  0  0  0
  -22.7868  -13.5254   21.1863 C   0  0  0  0  0  0
  -22.1658   -4.2141   21.0981 F   0  0  0  0  0  0
  -21.5627   -3.4537   25.7728 F   0  0  0  0  0  0
  -30.0400  -13.2720   20.4418 N   0  0  0  0  0  0
  -26.3030  -12.9319   20.3379 N   0  0  0  0  0  0
  -25.9303  -11.6481   20.5769 N   0  0  0  0  0  0
  -22.0503  -12.8255   22.0414 N   0  0  0  0  0  0
  -25.4376  -15.1871   20.4178 N   0  0  0  0  0  0
  -31.8199  -14.6589   20.1008 O   0  0  0  0  0  0
  -21.6644   -6.8862   21.4233 O   0  0  0  0  0  0
  -22.3548  -14.5549   20.6688 O   0  0  0  0  0  0
  -24.6127  -31.8713   23.2123 C   0  0  0  0  0  0
  -25.9027  -32.4846   23.8419 C   0  0  1  0  0  0
  -27.2356  -27.4478   20.0777 C   0  0  0  0  0  0
  -25.5883  -33.8647   24.2344 N   0  0  0  0  0  0
  -23.3995  -30.4954   21.5543 C   0  0  2  0  0  0
  -24.8430  -28.9624   20.1171 C   0  0  0  0  0  0
  -22.7396  -29.4677   22.5018 C   0  0  0  0  0  0
  -18.0265  -28.1386   22.8489 C   0  0  0  0  0  0
  -24.1494  -36.7329   23.2637 C   0  0  0  0  0  0
  -25.9282  -30.8365   21.3675 C   0  0  0  0  0  0
  -26.0019  -29.4715   20.7142 C   0  0  0  0  0  0
  -27.1959  -28.7175   20.6985 C   0  0  0  0  0  0
  -26.0548  -26.9514   19.4780 C   0  0  0  0  0  0
  -24.8622  -27.6995   19.5017 C   0  0  0  0  0  0
  -23.6058  -29.8296   20.1686 C   0  0  0  0  0  0
  -25.4112  -36.3129   24.0341 C   0  0  1  0  0  0
  -20.5852  -28.3679   23.1318 C   0  0  2  0  0  0
  -20.6763  -26.9419   22.5419 C   0  0  0  0  0  0
  -19.5741  -26.6393   21.5220 C   0  0  0  0  0  0
  -18.1917  -26.7932   22.1629 C   0  0  0  0  0  0
  -19.1509  -28.8850   23.2901 C   0  0  0  0  0  0
  -18.9447  -30.1452   23.8918 C   0  0  0  0  0  0
  -17.6450  -30.6591   24.0577 C   0  0  0  0  0  0
  -25.9036  -34.9491   23.5144 C   0  0  0  0  0  0
  -16.5340  -29.9103   23.6321 C   0  0  0  0  0  0
  -16.7257  -28.6522   23.0342 C   0  0  0  0  0  0
  -26.4458  -31.6624   25.0743 C   0  0  0  0  0  0
  -25.3711  -31.3745   26.1487 C   0  0  0  0  0  0
  -27.0298  -30.3070   24.6120 C   0  0  0  0  0  0
  -27.6052  -32.4341   25.7468 C   0  0  0  0  0  0
  -27.5591  -37.1816   24.8462 C   0  0  0  0  0  0
  -21.4137  -29.3046   22.3735 N   0  0  0  0  0  0
  -26.4308  -37.3805   23.9400 N   0  0  0  0  0  0
  -24.6650  -31.0813   22.1033 N   0  0  0  0  0  0
  -23.4173  -28.8233   23.3063 O   0  0  0  0  0  0
  -28.4311  -26.7550   20.0904 O   0  0  0  0  0  0
  -26.5614  -34.8936   22.4715 O   0  0  0  0  0  0
  -23.5319  -32.1485   23.7513 O   0  0  0  0  0  0
  -26.5521  -19.6908   17.0116 C   0  0  0  0  0  0
  -27.6168  -18.8783   17.4793 C   0  0  0  0  0  0
  -26.4405  -20.7762   17.8271 C   0  0  0  0  0  0
  -28.1164  -19.4699   18.6152 C   0  0  0  0  0  0
  -28.0793  -17.6036   16.8177 C   0  0  0  0  0  0
  -25.4590  -21.9068   17.7362 C   0  0  0  0  0  0
  -29.2261  -18.9541   19.5068 C   0  0  0  0  0  0
  -28.9479  -17.5526   20.1038 C   0  0  0  0  0  0
  -28.2718  -23.0198   19.1809 C   0  0  0  0  0  0
  -28.0593  -24.2889   20.0324 C   0  0  0  0  0  0
  -27.6894  -21.7288   19.8046 C   0  0  0  0  0  0
  -30.1659  -16.9020   20.7993 C   0  0  0  0  0  0
  -28.5798  -25.5581   19.3206 C   0  0  0  0  0  0
  -27.4438  -20.6905   18.7926 N   0  0  0  0  0  0
  -29.9322  -15.4679   21.0193 N   0  0  0  0  0  0
  -31.4705  -12.4095   19.1058 H   0  0  0  0  0  0
  -30.3474  -11.2826   19.8135 H   0  0  0  0  0  0
  -29.7280  -11.7512   17.4341 H   0  0  0  0  0  0
  -29.6751  -13.4645   17.7526 H   0  0  0  0  0  0
  -27.8089  -11.3137   18.8072 H   0  0  0  0  0  0
  -27.3677  -12.6562   17.7823 H   0  0  0  0  0  0
  -27.7086  -14.2535   19.5803 H   0  0  0  0  0  0
  -28.6800  -11.9273   21.3203 H   0  0  0  0  0  0
  -28.4747  -13.5571   21.8808 H   0  0  0  0  0  0
  -25.2750   -9.5680   22.4779 H   0  0  0  0  0  0
  -24.0018   -7.4628   22.7483 H   0  0  0  0  0  0
  -21.0838   -8.8747   19.8973 H   0  0  0  0  0  0
  -22.3684  -10.9670   19.6188 H   0  0  0  0  0  0
  -21.1998   -7.6135   23.9698 H   0  0  0  0  0  0
  -21.1463   -6.0516   25.9074 H   0  0  0  0  0  0
  -22.0620   -2.7595   23.2844 H   0  0  0  0  0  0
  -22.4108  -11.9897   22.4768 H   0  0  0  0  0  0
  -21.1117  -13.1274   22.2595 H   0  0  0  0  0  0
  -24.6747  -15.8480   20.5239 H   0  0  0  0  0  0
  -26.2887  -15.6210   20.0839 H   0  0  0  0  0  0
  -26.7102  -32.5561   23.1187 H   0  0  0  0  0  0
  -24.9994  -33.9832   25.0460 H   0  0  0  0  0  0
  -22.6886  -31.3121   21.4171 H   0  0  0  0  0  0
  -23.3757  -35.9662   23.3312 H   0  0  0  0  0  0
  -24.3589  -36.8931   22.2050 H   0  0  0  0  0  0
  -23.7246  -37.6537   23.6645 H   0  0  0  0  0  0
  -26.0408  -31.6034   20.5989 H   0  0  0  0  0  0
  -26.8174  -30.8890   21.9839 H   0  0  0  0  0  0
  -28.0908  -29.1109   21.1597 H   0  0  0  0  0  0
  -26.0294  -25.9923   18.9844 H   0  0  0  0  0  0
  -23.9699  -27.2987   19.0404 H   0  0  0  0  0  0
  -23.7163  -30.6072   19.4118 H   0  0  0  0  0  0
  -22.7302  -29.2498   19.8721 H   0  0  0  0  0  0
  -25.1281  -36.2012   25.0836 H   0  0  0  0  0  0
  -20.9929  -28.3248   24.1443 H   0  0  0  0  0  0
  -20.5683  -26.2293   23.3609 H   0  0  0  0  0  0
  -21.6638  -26.7481   22.1206 H   0  0  0  0  0  0
  -19.6918  -25.6309   21.1243 H   0  0  0  0  0  0
  -19.6683  -27.3213   20.6757 H   0  0  0  0  0  0
  -17.4191  -26.6672   21.4028 H   0  0  0  0  0  0
  -18.0322  -26.0074   22.9027 H   0  0  0  0  0  0
  -19.7925  -30.7251   24.2303 H   0  0  0  0  0  0
  -17.5017  -31.6271   24.5181 H   0  0  0  0  0  0
  -15.5347  -30.3029   23.7631 H   0  0  0  0  0  0
  -15.8649  -28.0858   22.7045 H   0  0  0  0  0  0
  -24.5845  -30.7151   25.7799 H   0  0  0  0  0  0
  -24.8948  -32.2918   26.4967 H   0  0  0  0  0  0
  -25.8030  -30.8863   27.0231 H   0  0  0  0  0  0
  -26.2875  -29.6832   24.1127 H   0  0  0  0  0  0
  -27.4032  -29.7298   25.4586 H   0  0  0  0  0  0
  -27.8716  -30.4411   23.9318 H   0  0  0  0  0  0
  -27.2690  -33.3617   26.2115 H   0  0  0  0  0  0
  -28.3790  -32.6948   25.0232 H   0  0  0  0  0  0
  -28.0808  -31.8439   26.5309 H   0  0  0  0  0  0
  -28.2610  -38.0111   24.7498 H   0  0  0  0  0  0
  -28.1083  -36.2638   24.6296 H   0  0  0  0  0  0
  -27.2309  -37.1479   25.8867 H   0  0  0  0  0  0
  -20.9307  -29.8745   21.6928 H   0  0  0  0  0  0
  -26.0207  -38.2892   24.1379 H   0  0  0  0  0  0
  -25.9291  -19.5017   16.1471 H   0  0  0  0  0  0
  -27.9823  -17.6755   15.7339 H   0  0  0  0  0  0
  -27.4771  -16.7597   17.1547 H   0  0  0  0  0  0
  -29.1262  -17.4010   17.0423 H   0  0  0  0  0  0
  -24.5124  -21.5622   17.3184 H   0  0  0  0  0  0
  -25.8325  -22.6935   17.0807 H   0  0  0  0  0  0
  -25.2348  -22.3469   18.7066 H   0  0  0  0  0  0
  -29.4613  -19.6356   20.3195 H   0  0  0  0  0  0
  -30.1364  -18.9066   18.9091 H   0  0  0  0  0  0
  -28.6255  -16.8844   19.3086 H   0  0  0  0  0  0
  -28.1082  -17.6133   20.7983 H   0  0  0  0  0  0
  -29.3360  -22.8753   18.9868 H   0  0  0  0  0  0
  -27.8211  -23.1970   18.2052 H   0  0  0  0  0  0
  -28.5595  -24.1726   20.9932 H   0  0  0  0  0  0
  -26.9978  -24.3927   20.2569 H   0  0  0  0  0  0
  -26.7447  -21.9414   20.3059 H   0  0  0  0  0  0
  -28.3470  -21.3710   20.5931 H   0  0  0  0  0  0
  -30.3593  -17.3901   21.7549 H   0  0  0  0  0  0
  -31.0548  -17.0585   20.1874 H   0  0  0  0  0  0
  -28.1399  -25.6720   18.3286 H   0  0  0  0  0  0
  -29.6490  -25.4363   19.1447 H   0  0  0  0  0  0
  -29.0240  -15.2036   21.3699 H   0  0  0  0  0  0
  1 25  1  0  0  0
  1 30  2  0  0  0
  1 85  1  0  0  0
  2  3  1  0  0  0
  2 25  1  0  0  0
  2 86  1  0  0  0
  2 87  1  0  0  0
  3  4  1  0  0  0
  3 88  1  0  0  0
  3 89  1  0  0  0
  4  5  1  0  0  0
  4 90  1  0  0  0
  4 91  1  0  0  0
  5  6  1  0  0  0
  5 26  1  0  0  0
  5 92  1  0  0  0
  6 25  1  0  0  0
  6 93  1  0  0  0
  6 94  1  0  0  0
  7  8  2  0  0  0
  7 26  1  0  0  0
  7 29  1  0  0  0
  8  9  1  0  0  0
  8 22  1  0  0  0
  9 10  1  0  0  0
  9 27  2  0  0  0
 10 11  2  0  0  0
 10 15  1  0  0  0
 11 12  1  0  0  0
 11 95  1  0  0  0
 12 13  2  0  0  0
 12 96  1  0  0  0
 13 14  1  0  0  0
 13 31  1  0  0  0
 14 15  2  0  0  0
 14 97  1  0  0  0
 15 98  1  0  0  0
 16 17  2  0  0  0
 16 21  1  0  0  0
 16 31  1  0  0  0
 17 18  1  0  0  0
 17 99  1  0  0  0
 18 19  2  0  0  0
 18100  1  0  0  0
 19 20  1  0  0  0
 19 24  1  0  0  0
 20 21  2  0  0  0
 20101  1  0  0  0
 21 23  1  0  0  0
 22 28  1  0  0  0
 22 32  2  0  0  0
 26 27  1  0  0  0
 28102  1  0  0  0
 28103  1  0  0  0
 29104  1  0  0  0
 29105  1  0  0  0
 33 34  1  0  0  0
 33 66  1  0  0  0
 33 70  2  0  0  0
 34 36  1  0  0  0
 34 59  1  0  0  0
 34106  1  0  0  0
 35 44  2  0  0  0
 35 45  1  0  0  0
 35 68  1  0  0  0
 36 56  1  0  0  0
 36107  1  0  0  0
 37 39  1  0  0  0
 37 47  1  0  0  0
 37 66  1  0  0  0
 37108  1  0  0  0
 38 43  2  0  0  0
 38 46  1  0  0  0
 38 47  1  0  0  0
 39 64  1  0  0  0
 39 67  2  0  0  0
 40 52  1  0  0  0
 40 53  2  0  0  0
 40 58  1  0  0  0
 41109  1  0  0  0
 41110  1  0  0  0
 41111  1  0  0  0
 41 48  1  0  0  0
 42 43  1  0  0  0
 42 66  1  0  0  0
 42112  1  0  0  0
 42113  1  0  0  0
 43 44  1  0  0  0
 44114  1  0  0  0
 45 46  2  0  0  0
 45115  1  0  0  0
 46116  1  0  0  0
 47117  1  0  0  0
 47118  1  0  0  0
 48 56  1  0  0  0
 48 65  1  0  0  0
 48119  1  0  0  0
 49 50  1  0  0  0
 49 53  1  0  0  0
 49 64  1  0  0  0
 49120  1  0  0  0
 50 51  1  0  0  0
 50121  1  0  0  0
 50122  1  0  0  0
 51 52  1  0  0  0
 51123  1  0  0  0
 51124  1  0  0  0
 52125  1  0  0  0
 52126  1  0  0  0
 53 54  1  0  0  0
 54 55  2  0  0  0
 54127  1  0  0  0
 55 57  1  0  0  0
 55128  1  0  0  0
 56 69  2  0  0  0
 57 58  2  0  0  0
 57129  1  0  0  0
 58130  1  0  0  0
 59 60  1  0  0  0
 59 61  1  0  0  0
 59 62  1  0  0  0
 60131  1  0  0  0
 60132  1  0  0  0
 60133  1  0  0  0
 61134  1  0  0  0
 61135  1  0  0  0
 61136  1  0  0  0
 62137  1  0  0  0
 62138  1  0  0  0
 62139  1  0  0  0
 63 65  1  0  0  0
 63140  1  0  0  0
 63141  1  0  0  0
 63142  1  0  0  0
 64143  1  0  0  0
 65144  1  0  0  0
 68 83  1  0  0  0
 71 72  1  0  0  0
 71 73  2  0  0  0
 71145  1  0  0  0
 72 74  2  0  0  0
 72 75  1  0  0  0
 73 76  1  0  0  0
 73 84  1  0  0  0
 74 77  1  0  0  0
 74 84  1  0  0  0
 75146  1  0  0  0
 75147  1  0  0  0
 75148  1  0  0  0
 76149  1  0  0  0
 76150  1  0  0  0
 76151  1  0  0  0
 77 78  1  0  0  0
 77152  1  0  0  0
 77153  1  0  0  0
 78 82  1  0  0  0
 78154  1  0  0  0
 78155  1  0  0  0
 79 80  1  0  0  0
 79 81  1  0  0  0
 79156  1  0  0  0
 79157  1  0  0  0
 80 83  1  0  0  0
 80158  1  0  0  0
 80159  1  0  0  0
 81 84  1  0  0  0
 81160  1  0  0  0
 81161  1  0  0  0
 82 85  1  0  0  0
 82162  1  0  0  0
 82163  1  0  0  0
 83164  1  0  0  0
 83165  1  0  0  0
 85166  1  0  0  0
M  ISO  4   1 100  68 101  83 101  85 100
M  END
> <chiral flag>
0

> <version>
0

> <s_m_source_file>
/data/baiqing/PycharmProjects/Reinvent-master-3.2/result/LINK_invent/BTK/process_docking_weight1_custom_sum_contain_oxygen_bond_distance_aromatic_linkinvent_7_9_3/rearranged_h_0043.sdf

> <i_m_source_file_index>
43

> <r_mmod_Potential_Energy-OPLS-2005>
-116.12922668457

> <r_mmod_Stretch_Energy-OPLS-2005>
36.0375900268555

> <r_mmod_Bend_Energy-OPLS-2005>
104.407569885254

> <r_mmod_Torsional_Energy-OPLS-2005>
210.887130737305

> <r_mmod_Improper_Torsional_Energy-OPLS-2005>
5.14274978637695

> <r_mmod_Van_der_Waal_Energy-OPLS-2005>
129.632263183594

> <r_mmod_Electrostatic_Energy-OPLS-2005>
-403.426330566406

> <r_mmod_Solvation_Energy-OPLS-2005>
-210.724594116211

> <b_mmod_Minimization_Converged-OPLS-2005>
0

> <r_mmod_RMS_Derivative-OPLS-2005>
2.47295832633972

$$$$
43
                    3D
 Structure written by MMmdl.
163171  0  0  1  0            999 V2000
  -30.8003  -14.4841   20.6827 C   0  0  0  0  0  0
  -30.4021  -12.3575   19.4528 C   0  0  0  0  0  0
  -29.4950  -12.5294   18.2211 C   0  0  0  0  0  0
  -28.0183  -12.3744   18.6180 C   0  0  0  0  0  0
  -27.6499  -13.2288   19.8558 C   0  0  2  0  0  0
  -28.6860  -13.1087   20.9920 C   0  0  0  0  0  0
  -25.2537  -13.8212   20.5709 C   0  0  0  0  0  0
  -24.1831  -13.0445   20.9226 C   0  0  0  0  0  0
  -24.6428  -11.6935   20.8768 C   0  0  0  0  0  0
  -23.9113  -10.4317   21.0440 C   0  0  0  0  0  0
  -24.3658   -9.4218   21.9207 C   0  0  0  0  0  0
  -23.6336   -8.2248   22.0751 C   0  0  0  0  0  0
  -22.4312   -8.0290   21.3545 C   0  0  0  0  0  0
  -21.9962   -9.0273   20.4647 C   0  0  0  0  0  0
  -22.7295  -10.2157   20.3077 C   0  0  0  0  0  0
  -21.6848   -6.0770   22.5294 C   0  0  0  0  0  0
  -21.4014   -6.5662   23.8232 C   0  0  0  0  0  0
  -21.3658   -5.6807   24.9189 C   0  0  0  0  0  0
  -21.6046   -4.3069   24.7239 C   0  0  0  0  0  0
  -21.8815   -3.8170   23.4349 C   0  0  0  0  0  0
  -21.9195   -4.6998   22.3411 C   0  0  0  0  0  0
  -22.7848  -13.5214   21.1927 C   0  0  0  0  0  0
  -22.1659   -4.2183   21.0986 F   0  0  0  0  0  0
  -21.5639   -3.4549   25.7742 F   0  0  0  0  0  0
  -30.0300  -13.3714   20.4655 N   0  0  0  0  0  0
  -26.2980  -12.9422   20.3301 N   0  0  0  0  0  0
  -25.9356  -11.6564   20.5751 N   0  0  0  0  0  0
  -22.0496  -12.8174   22.0462 N   0  0  0  0  0  0
  -25.4237  -15.1937   20.4167 N   0  0  0  0  0  0
  -31.8204  -14.6441   20.0075 O   0  0  0  0  0  0
  -21.6647   -6.8904   21.4246 O   0  0  0  0  0  0
  -22.3515  -14.5539   20.6797 O   0  0  0  0  0  0
  -24.6187  -31.8662   23.2098 C   0  0  0  0  0  0
  -25.9078  -32.4801   23.8387 C   0  0  1  0  0  0
  -27.2193  -27.4134   20.1108 C   0  0  0  0  0  0
  -25.5934  -33.8595   24.2316 N   0  0  0  0  0  0
  -23.4056  -30.4908   21.5508 C   0  0  2  0  0  0
  -24.8525  -28.9606   20.1061 C   0  0  0  0  0  0
  -22.7434  -29.4654   22.4988 C   0  0  0  0  0  0
  -18.0277  -28.1408   22.8492 C   0  0  0  0  0  0
  -24.1490  -36.7290   23.2635 C   0  0  0  0  0  0
  -25.9346  -30.8302   21.3627 C   0  0  0  0  0  0
  -26.0136  -29.4633   20.7084 C   0  0  0  0  0  0
  -27.2045  -28.6967   20.7070 C   0  0  0  0  0  0
  -26.0487  -26.9338   19.4880 C   0  0  0  0  0  0
  -24.8662  -27.6984   19.4885 C   0  0  0  0  0  0
  -23.6129  -29.8272   20.1633 C   0  0  0  0  0  0
  -25.4114  -36.3078   24.0327 C   0  0  1  0  0  0
  -20.5873  -28.3687   23.1326 C   0  0  2  0  0  0
  -20.6782  -26.9430   22.5427 C   0  0  0  0  0  0
  -19.5755  -26.6408   21.5236 C   0  0  0  0  0  0
  -18.1922  -26.7959   22.1629 C   0  0  0  0  0  0
  -19.1522  -28.8869   23.2898 C   0  0  0  0  0  0
  -18.9458  -30.1473   23.8910 C   0  0  0  0  0  0
  -17.6458  -30.6601   24.0576 C   0  0  0  0  0  0
  -25.9058  -34.9449   23.5106 C   0  0  0  0  0  0
  -16.5351  -29.9110   23.6342 C   0  0  0  0  0  0
  -16.7271  -28.6543   23.0353 C   0  0  0  0  0  0
  -26.4518  -31.6591   25.0717 C   0  0  0  0  0  0
  -25.3777  -31.3664   26.1461 C   0  0  0  0  0  0
  -27.0393  -30.3049   24.6093 C   0  0  0  0  0  0
  -27.6098  -32.4326   25.7476 C   0  0  0  0  0  0
  -27.5571  -37.1783   24.8467 C   0  0  0  0  0  0
  -21.4159  -29.3032   22.3717 N   0  0  0  0  0  0
  -26.4286  -37.3779   23.9418 N   0  0  0  0  0  0
  -24.6713  -31.0751   22.1009 N   0  0  0  0  0  0
  -23.4197  -28.8195   23.3030 O   0  0  0  0  0  0
  -28.3385  -26.6082   20.1524 O   0  0  0  0  0  0
  -26.5609  -34.8898   22.4660 O   0  0  0  0  0  0
  -23.5381  -32.1446   23.7480 O   0  0  0  0  0  0
  -29.5154  -17.9975   22.0224 C   0  0  0  0  0  0
  -28.9457  -16.9606   20.2149 C   0  0  0  0  0  0
  -28.7389  -18.8504   21.2591 C   0  0  0  0  0  0
  -29.8691  -14.1143   23.8411 C   0  0  0  0  0  0
  -32.1109  -15.2266   23.7335 C   0  0  0  0  0  0
  -28.2424  -20.2584   21.5814 C   0  0  0  0  0  0
  -28.8102  -21.4455   20.7397 C   0  0  0  0  0  0
  -28.2675  -22.8388   21.1999 C   0  0  0  0  0  0
  -28.6309  -24.0878   20.3339 C   0  0  0  0  0  0
  -28.1743  -25.4295   20.9767 C   0  0  0  0  0  0
  -30.5175  -15.6301   21.7361 C   0  0  2  0  0  0
  -30.6388  -15.3222   23.2799 C   0  0  0  0  0  0
  -28.3700  -18.1618   20.1025 N   0  0  0  0  0  0
  -29.6446  -16.7698   21.3467 N   0  0  0  0  0  0
  -31.4502  -12.4165   19.1530 H   0  0  0  0  0  0
  -30.2802  -11.3597   19.8768 H   0  0  0  0  0  0
  -29.7547  -11.7953   17.4575 H   0  0  0  0  0  0
  -29.6610  -13.5095   17.7711 H   0  0  0  0  0  0
  -27.8365  -11.3191   18.8212 H   0  0  0  0  0  0
  -27.3729  -12.6428   17.7803 H   0  0  0  0  0  0
  -27.6637  -14.2657   19.5230 H   0  0  0  0  0  0
  -28.6522  -12.1257   21.4639 H   0  0  0  0  0  0
  -28.4051  -13.8417   21.7405 H   0  0  0  0  0  0
  -25.2794   -9.5693   22.4787 H   0  0  0  0  0  0
  -24.0055   -7.4631   22.7445 H   0  0  0  0  0  0
  -21.0906   -8.8807   19.8934 H   0  0  0  0  0  0
  -22.3770  -10.9711   19.6196 H   0  0  0  0  0  0
  -21.1991   -7.6167   23.9748 H   0  0  0  0  0  0
  -21.1487   -6.0533   25.9090 H   0  0  0  0  0  0
  -22.0594   -2.7637   23.2843 H   0  0  0  0  0  0
  -22.4082  -11.9805   22.4810 H   0  0  0  0  0  0
  -21.1117  -13.1195   22.2701 H   0  0  0  0  0  0
  -24.6601  -15.8506   20.5330 H   0  0  0  0  0  0
  -26.2851  -15.6419   20.1293 H   0  0  0  0  0  0
  -26.7133  -32.5548   23.1140 H   0  0  0  0  0  0
  -25.0120  -33.9766   25.0480 H   0  0  0  0  0  0
  -22.6939  -31.3078   21.4118 H   0  0  0  0  0  0
  -23.3748  -35.9629   23.3323 H   0  0  0  0  0  0
  -24.3566  -36.8917   22.2045 H   0  0  0  0  0  0
  -23.7259  -37.6491   23.6669 H   0  0  0  0  0  0
  -26.0464  -31.5951   20.5929 H   0  0  0  0  0  0
  -26.8212  -30.8838   21.9824 H   0  0  0  0  0  0
  -28.0976  -29.0673   21.1926 H   0  0  0  0  0  0
  -26.0477  -25.9595   19.0197 H   0  0  0  0  0  0
  -23.9747  -27.3105   19.0128 H   0  0  0  0  0  0
  -23.7129  -30.6045   19.4049 H   0  0  0  0  0  0
  -22.7361  -29.2464   19.8715 H   0  0  0  0  0  0
  -25.1283  -36.1924   25.0818 H   0  0  0  0  0  0
  -20.9942  -28.3278   24.1454 H   0  0  0  0  0  0
  -20.5780  -26.2283   23.3603 H   0  0  0  0  0  0
  -21.6642  -26.7539   22.1153 H   0  0  0  0  0  0
  -19.6947  -25.6333   21.1251 H   0  0  0  0  0  0
  -19.6717  -27.3236   20.6782 H   0  0  0  0  0  0
  -17.4206  -26.6732   21.4007 H   0  0  0  0  0  0
  -18.0286  -26.0106   22.9023 H   0  0  0  0  0  0
  -19.7933  -30.7276   24.2292 H   0  0  0  0  0  0
  -17.5021  -31.6288   24.5183 H   0  0  0  0  0  0
  -15.5351  -30.3009   23.7691 H   0  0  0  0  0  0
  -15.8665  -28.0867   22.7056 H   0  0  0  0  0  0
  -24.5963  -30.7018   25.7766 H   0  0  0  0  0  0
  -24.8945  -32.2798   26.4935 H   0  0  0  0  0  0
  -25.8115  -30.8801   27.0209 H   0  0  0  0  0  0
  -26.2937  -29.6717   24.1272 H   0  0  0  0  0  0
  -27.4337  -29.7369   25.4534 H   0  0  0  0  0  0
  -27.8682  -30.4390   23.9139 H   0  0  0  0  0  0
  -27.2736  -33.3620   26.2077 H   0  0  0  0  0  0
  -28.3888  -32.6914   25.0291 H   0  0  0  0  0  0
  -28.0801  -31.8451   26.5375 H   0  0  0  0  0  0
  -28.2576  -38.0086   24.7517 H   0  0  0  0  0  0
  -28.1073  -36.2615   24.6290 H   0  0  0  0  0  0
  -27.2275  -37.1426   25.8863 H   0  0  0  0  0  0
  -20.9344  -29.8703   21.6878 H   0  0  0  0  0  0
  -26.0167  -38.2850   24.1442 H   0  0  0  0  0  0
  -29.9898  -18.1841   22.9763 H   0  0  0  0  0  0
  -28.8832  -16.2249   19.4283 H   0  0  0  0  0  0
  -30.0888  -13.9736   24.9013 H   0  0  0  0  0  0
  -30.1408  -13.1875   23.3392 H   0  0  0  0  0  0
  -28.7913  -14.2530   23.7839 H   0  0  0  0  0  0
  -32.1863  -15.0763   24.8117 H   0  0  0  0  0  0
  -32.6572  -16.1451   23.5097 H   0  0  0  0  0  0
  -32.6350  -14.4033   23.2475 H   0  0  0  0  0  0
  -28.4409  -20.4675   22.6335 H   0  0  0  0  0  0
  -27.1552  -20.2728   21.5009 H   0  0  0  0  0  0
  -28.5661  -21.2830   19.6893 H   0  0  0  0  0  0
  -29.8987  -21.4477   20.8084 H   0  0  0  0  0  0
  -28.6049  -23.0193   22.2210 H   0  0  0  0  0  0
  -27.1803  -22.7821   21.2619 H   0  0  0  0  0  0
  -28.1667  -23.9939   19.3513 H   0  0  0  0  0  0
  -29.7065  -24.1241   20.1612 H   0  0  0  0  0  0
  -28.7451  -25.5975   21.8920 H   0  0  0  0  0  0
  -27.1395  -25.3145   21.3081 H   0  0  0  0  0  0
  -31.4563  -16.1709   21.6109 H   0  0  0  0  0  0
  -30.2333  -16.1734   23.8222 H   0  0  0  0  0  0
  1 25  1  0  0  0
  1 30  2  0  0  0
  1 81  1  0  0  0
  2  3  1  0  0  0
  2 25  1  0  0  0
  2 85  1  0  0  0
  2 86  1  0  0  0
  3  4  1  0  0  0
  3 87  1  0  0  0
  3 88  1  0  0  0
  4  5  1  0  0  0
  4 89  1  0  0  0
  4 90  1  0  0  0
  5  6  1  0  0  0
  5 26  1  0  0  0
  5 91  1  0  0  0
  6 25  1  0  0  0
  6 92  1  0  0  0
  6 93  1  0  0  0
  7  8  2  0  0  0
  7 26  1  0  0  0
  7 29  1  0  0  0
  8  9  1  0  0  0
  8 22  1  0  0  0
  9 10  1  0  0  0
  9 27  2  0  0  0
 10 11  2  0  0  0
 10 15  1  0  0  0
 11 12  1  0  0  0
 11 94  1  0  0  0
 12 13  2  0  0  0
 12 95  1  0  0  0
 13 14  1  0  0  0
 13 31  1  0  0  0
 14 15  2  0  0  0
 14 96  1  0  0  0
 15 97  1  0  0  0
 16 17  2  0  0  0
 16 21  1  0  0  0
 16 31  1  0  0  0
 17 18  1  0  0  0
 17 98  1  0  0  0
 18 19  2  0  0  0
 18 99  1  0  0  0
 19 20  1  0  0  0
 19 24  1  0  0  0
 20 21  2  0  0  0
 20100  1  0  0  0
 21 23  1  0  0  0
 22 28  1  0  0  0
 22 32  2  0  0  0
 26 27  1  0  0  0
 28101  1  0  0  0
 28102  1  0  0  0
 29103  1  0  0  0
 29104  1  0  0  0
 33 34  1  0  0  0
 33 66  1  0  0  0
 33 70  2  0  0  0
 34 36  1  0  0  0
 34 59  1  0  0  0
 34105  1  0  0  0
 35 44  2  0  0  0
 35 45  1  0  0  0
 35 68  1  0  0  0
 36 56  1  0  0  0
 36106  1  0  0  0
 37 39  1  0  0  0
 37 47  1  0  0  0
 37 66  1  0  0  0
 37107  1  0  0  0
 38 43  2  0  0  0
 38 46  1  0  0  0
 38 47  1  0  0  0
 39 64  1  0  0  0
 39 67  2  0  0  0
 40 52  1  0  0  0
 40 53  2  0  0  0
 40 58  1  0  0  0
 41108  1  0  0  0
 41109  1  0  0  0
 41110  1  0  0  0
 41 48  1  0  0  0
 42 43  1  0  0  0
 42 66  1  0  0  0
 42111  1  0  0  0
 42112  1  0  0  0
 43 44  1  0  0  0
 44113  1  0  0  0
 45 46  2  0  0  0
 45114  1  0  0  0
 46115  1  0  0  0
 47116  1  0  0  0
 47117  1  0  0  0
 48 56  1  0  0  0
 48 65  1  0  0  0
 48118  1  0  0  0
 49 50  1  0  0  0
 49 53  1  0  0  0
 49 64  1  0  0  0
 49119  1  0  0  0
 50 51  1  0  0  0
 50120  1  0  0  0
 50121  1  0  0  0
 51 52  1  0  0  0
 51122  1  0  0  0
 51123  1  0  0  0
 52124  1  0  0  0
 52125  1  0  0  0
 53 54  1  0  0  0
 54 55  2  0  0  0
 54126  1  0  0  0
 55 57  1  0  0  0
 55127  1  0  0  0
 56 69  2  0  0  0
 57 58  2  0  0  0
 57128  1  0  0  0
 58129  1  0  0  0
 59 60  1  0  0  0
 59 61  1  0  0  0
 59 62  1  0  0  0
 60130  1  0  0  0
 60131  1  0  0  0
 60132  1  0  0  0
 61133  1  0  0  0
 61134  1  0  0  0
 61135  1  0  0  0
 62136  1  0  0  0
 62137  1  0  0  0
 62138  1  0  0  0
 63 65  1  0  0  0
 63139  1  0  0  0
 63140  1  0  0  0
 63141  1  0  0  0
 64142  1  0  0  0
 65143  1  0  0  0
 68 80  1  0  0  0
 71 73  2  0  0  0
 71 84  1  0  0  0
 71144  1  0  0  0
 72 83  2  0  0  0
 72 84  1  0  0  0
 72145  1  0  0  0
 73 76  1  0  0  0
 73 83  1  0  0  0
 74146  1  0  0  0
 74147  1  0  0  0
 74148  1  0  0  0
 74 82  1  0  0  0
 75 82  1  0  0  0
 75149  1  0  0  0
 75150  1  0  0  0
 75151  1  0  0  0
 76 77  1  0  0  0
 76152  1  0  0  0
 76153  1  0  0  0
 77 78  1  0  0  0
 77154  1  0  0  0
 77155  1  0  0  0
 78 79  1  0  0  0
 78156  1  0  0  0
 78157  1  0  0  0
 79 80  1  0  0  0
 79158  1  0  0  0
 79159  1  0  0  0
 80160  1  0  0  0
 80161  1  0  0  0
 81 82  1  0  0  0
 81 84  1  0  0  0
 81162  1  0  0  0
 82163  1  0  0  0
M  ISO  4   1 100  68 101  80 101  81 100
M  END
> <chiral flag>
0

> <version>
0

> <s_m_source_file>
/data/baiqing/PycharmProjects/Reinvent-master-3.2/result/LINK_invent/BTK/process_docking_weight1_custom_sum_contain_oxygen_bond_distance_aromatic_linkinvent_7_9_3/rearranged_h_0043.sdf

> <i_m_source_file_index>
44

> <r_mmod_Potential_Energy-OPLS-2005>
115.474517822266

> <r_mmod_Stretch_Energy-OPLS-2005>
51.1717948913574

> <r_mmod_Bend_Energy-OPLS-2005>
163.407104492188

> <r_mmod_Torsional_Energy-OPLS-2005>
212.660110473633

> <r_mmod_Improper_Torsional_Energy-OPLS-2005>
2.54699468612671

> <r_mmod_Van_der_Waal_Energy-OPLS-2005>
120.474754333496

> <r_mmod_Electrostatic_Energy-OPLS-2005>
-265.823974609375

> <r_mmod_Solvation_Energy-OPLS-2005>
-190.315444946289

> <b_mmod_Minimization_Converged-OPLS-2005>
0

> <r_mmod_RMS_Derivative-OPLS-2005>
2.93047118186951

$$$$
44
                    3D
 Structure written by MMmdl.
172180  0  0  1  0            999 V2000
  -30.6683  -14.5487   20.5544 C   0  0  0  0  0  0
  -30.4272  -12.3505   19.4395 C   0  0  0  0  0  0
  -29.5031  -12.5042   18.2138 C   0  0  0  0  0  0
  -28.0215  -12.3572   18.6171 C   0  0  0  0  0  0
  -27.6545  -13.2117   19.8620 C   0  0  2  0  0  0
  -28.6957  -13.0318   20.9886 C   0  0  0  0  0  0
  -25.2554  -13.8169   20.5651 C   0  0  0  0  0  0
  -24.1823  -13.0438   20.9170 C   0  0  0  0  0  0
  -24.6380  -11.6910   20.8715 C   0  0  0  0  0  0
  -23.9036  -10.4295   21.0372 C   0  0  0  0  0  0
  -24.3603   -9.4210   21.9139 C   0  0  0  0  0  0
  -23.6293   -8.2241   22.0721 C   0  0  0  0  0  0
  -22.4269   -8.0261   21.3526 C   0  0  0  0  0  0
  -21.9895   -9.0219   20.4619 C   0  0  0  0  0  0
  -22.7211  -10.2108   20.3018 C   0  0  0  0  0  0
  -21.6853   -6.0720   22.5262 C   0  0  0  0  0  0
  -21.4017   -6.5620   23.8193 C   0  0  0  0  0  0
  -21.3675   -5.6772   24.9150 C   0  0  0  0  0  0
  -21.6050   -4.3034   24.7202 C   0  0  0  0  0  0
  -21.8830   -3.8125   23.4321 C   0  0  0  0  0  0
  -21.9195   -4.6947   22.3379 C   0  0  0  0  0  0
  -22.7838  -13.5213   21.1833 C   0  0  0  0  0  0
  -22.1652   -4.2133   21.0956 F   0  0  0  0  0  0
  -21.5645   -3.4522   25.7720 F   0  0  0  0  0  0
  -30.0177  -13.3564   20.4325 N   0  0  0  0  0  0
  -26.2981  -12.9335   20.3284 N   0  0  0  0  0  0
  -25.9301  -11.6501   20.5720 N   0  0  0  0  0  0
  -22.0492  -12.8212   22.0412 N   0  0  0  0  0  0
  -25.4279  -15.1893   20.4099 N   0  0  0  0  0  0
  -31.8168  -14.7158   20.1357 O   0  0  0  0  0  0
  -21.6634   -6.8860   21.4226 O   0  0  0  0  0  0
  -22.3502  -14.5495   20.6651 O   0  0  0  0  0  0
  -24.6199  -31.8637   23.2040 C   0  0  0  0  0  0
  -25.9069  -32.4806   23.8362 C   0  0  1  0  0  0
  -27.2291  -27.3803   20.1040 C   0  0  0  0  0  0
  -25.5912  -33.8613   24.2309 N   0  0  0  0  0  0
  -23.4097  -30.4856   21.5476 C   0  0  2  0  0  0
  -24.8536  -28.9385   20.1219 C   0  0  0  0  0  0
  -22.7440  -29.4645   22.4986 C   0  0  0  0  0  0
  -18.0286  -28.1364   22.8491 C   0  0  0  0  0  0
  -24.1494  -36.7313   23.2637 C   0  0  0  0  0  0
  -25.9429  -30.8155   21.3591 C   0  0  0  0  0  0
  -26.0189  -29.4413   20.7140 C   0  0  0  0  0  0
  -27.2126  -28.6736   20.6926 C   0  0  0  0  0  0
  -26.0430  -26.9035   19.5096 C   0  0  0  0  0  0
  -24.8629  -27.6705   19.5152 C   0  0  0  0  0  0
  -23.6189  -29.8122   20.1653 C   0  0  0  0  0  0
  -25.4109  -36.3106   24.0340 C   0  0  1  0  0  0
  -20.5879  -28.3664   23.1310 C   0  0  2  0  0  0
  -20.6768  -26.9397   22.5412 C   0  0  0  0  0  0
  -19.5747  -26.6380   21.5210 C   0  0  0  0  0  0
  -18.1930  -26.7910   22.1624 C   0  0  0  0  0  0
  -19.1530  -28.8829   23.2893 C   0  0  0  0  0  0
  -18.9462  -30.1437   23.8902 C   0  0  0  0  0  0
  -17.6458  -30.6569   24.0561 C   0  0  0  0  0  0
  -25.9047  -34.9468   23.5120 C   0  0  0  0  0  0
  -16.5347  -29.9070   23.6320 C   0  0  0  0  0  0
  -16.7278  -28.6486   23.0340 C   0  0  0  0  0  0
  -26.4468  -31.6584   25.0697 C   0  0  0  0  0  0
  -25.3743  -31.3678   26.1453 C   0  0  0  0  0  0
  -27.0281  -30.3033   24.6056 C   0  0  0  0  0  0
  -27.6065  -32.4276   25.7451 C   0  0  0  0  0  0
  -27.5581  -37.1809   24.8470 C   0  0  0  0  0  0
  -21.4167  -29.3028   22.3729 N   0  0  0  0  0  0
  -26.4293  -37.3788   23.9417 N   0  0  0  0  0  0
  -24.6766  -31.0699   22.0950 N   0  0  0  0  0  0
  -23.4202  -28.8191   23.3046 O   0  0  0  0  0  0
  -28.3940  -26.6305   20.0319 O   0  0  0  0  0  0
  -26.5608  -34.8919   22.4688 O   0  0  0  0  0  0
  -23.5381  -32.1398   23.7413 O   0  0  0  0  0  0
  -29.7059  -22.8978   18.4476 C   0  0  0  0  0  0
  -30.5218  -21.7649   18.2314 C   0  0  0  0  0  0
  -28.9135  -22.8971   19.6201 C   0  0  0  0  0  0
  -29.7380  -20.7749   20.1467 C   0  0  0  0  0  0
  -32.9184  -21.8635   17.4034 C   0  0  0  0  0  0
  -27.7247  -22.6747   16.3630 C   0  0  0  0  0  0
  -27.9931  -25.1299   15.8347 C   0  0  0  0  0  0
  -29.6623  -24.0543   17.4423 C   0  0  0  0  0  0
  -31.4518  -21.5988   17.0364 C   0  0  0  0  0  0
  -27.9173  -24.0520   19.9258 C   0  0  0  0  0  0
  -29.8889  -19.5785   21.1162 C   0  0  0  0  0  0
  -29.6393  -18.1333   20.5392 C   0  0  0  0  0  0
  -30.3730  -16.9819   21.3194 C   0  0  0  0  0  0
  -28.4438  -25.3256   20.6815 C   0  0  0  0  0  0
  -28.7298  -23.8356   16.2172 C   0  0  0  0  0  0
  -30.5334  -20.7337   19.0898 N   0  0  0  0  0  0
  -28.9419  -21.8156   20.4562 N   0  0  0  0  0  0
  -29.9350  -15.5870   21.0326 N   0  0  0  0  0  0
  -31.4709  -12.4616   19.1410 H   0  0  0  0  0  0
  -30.3408  -11.3494   19.8656 H   0  0  0  0  0  0
  -29.7580  -11.7605   17.4586 H   0  0  0  0  0  0
  -29.6651  -13.4798   17.7537 H   0  0  0  0  0  0
  -27.8393  -11.3017   18.8212 H   0  0  0  0  0  0
  -27.3735  -12.6144   17.7779 H   0  0  0  0  0  0
  -27.6845  -14.2542   19.5451 H   0  0  0  0  0  0
  -28.6912  -12.0025   21.3491 H   0  0  0  0  0  0
  -28.4470  -13.6506   21.8520 H   0  0  0  0  0  0
  -25.2759   -9.5680   22.4691 H   0  0  0  0  0  0
  -24.0009   -7.4631   22.7439 H   0  0  0  0  0  0
  -21.0824   -8.8699   19.8931 H   0  0  0  0  0  0
  -22.3644  -10.9615   19.6106 H   0  0  0  0  0  0
  -21.1999   -7.6128   23.9687 H   0  0  0  0  0  0
  -21.1503   -6.0498   25.9055 H   0  0  0  0  0  0
  -22.0611   -2.7587   23.2816 H   0  0  0  0  0  0
  -22.4140  -11.9918   22.4852 H   0  0  0  0  0  0
  -21.1069  -13.1149   22.2551 H   0  0  0  0  0  0
  -24.6694  -15.8500   20.5357 H   0  0  0  0  0  0
  -26.2840  -15.6290   20.0962 H   0  0  0  0  0  0
  -26.7139  -32.5500   23.1120 H   0  0  0  0  0  0
  -25.0070  -33.9773   25.0460 H   0  0  0  0  0  0
  -22.7014  -31.3031   21.4043 H   0  0  0  0  0  0
  -23.3753  -35.9654   23.3298 H   0  0  0  0  0  0
  -24.3591  -36.8918   22.2050 H   0  0  0  0  0  0
  -23.7236  -37.6515   23.6648 H   0  0  0  0  0  0
  -26.0513  -31.5726   20.5806 H   0  0  0  0  0  0
  -26.8338  -30.8772   21.9728 H   0  0  0  0  0  0
  -28.1183  -29.0693   21.1287 H   0  0  0  0  0  0
  -26.0243  -25.9457   19.0149 H   0  0  0  0  0  0
  -23.9699  -27.2824   19.0444 H   0  0  0  0  0  0
  -23.7302  -30.5832   19.4024 H   0  0  0  0  0  0
  -22.7426  -29.2323   19.8703 H   0  0  0  0  0  0
  -25.1274  -36.1961   25.0829 H   0  0  0  0  0  0
  -20.9970  -28.3209   24.1426 H   0  0  0  0  0  0
  -20.5663  -26.2269   23.3595 H   0  0  0  0  0  0
  -21.6640  -26.7421   22.1206 H   0  0  0  0  0  0
  -19.6908  -25.6298   21.1215 H   0  0  0  0  0  0
  -19.6674  -27.3214   20.6757 H   0  0  0  0  0  0
  -17.4194  -26.6669   21.4025 H   0  0  0  0  0  0
  -18.0329  -26.0037   22.9005 H   0  0  0  0  0  0
  -19.7937  -30.7251   24.2273 H   0  0  0  0  0  0
  -17.5009  -31.6249   24.5160 H   0  0  0  0  0  0
  -15.5351  -30.2966   23.7632 H   0  0  0  0  0  0
  -15.8679  -28.0804   22.7042 H   0  0  0  0  0  0
  -24.5965  -30.6953   25.7795 H   0  0  0  0  0  0
  -24.8878  -32.2820   26.4869 H   0  0  0  0  0  0
  -25.8114  -30.8889   27.0229 H   0  0  0  0  0  0
  -26.2800  -29.6808   24.1134 H   0  0  0  0  0  0
  -27.4076  -29.7234   25.4476 H   0  0  0  0  0  0
  -27.8626  -30.4343   23.9166 H   0  0  0  0  0  0
  -27.2733  -33.3597   26.2023 H   0  0  0  0  0  0
  -28.3885  -32.6788   25.0273 H   0  0  0  0  0  0
  -28.0729  -31.8390   26.5361 H   0  0  0  0  0  0
  -28.2605  -38.0101   24.7507 H   0  0  0  0  0  0
  -28.1060  -36.2629   24.6293 H   0  0  0  0  0  0
  -27.2305  -37.1446   25.8875 H   0  0  0  0  0  0
  -20.9330  -29.8762   21.6953 H   0  0  0  0  0  0
  -26.0179  -38.2869   24.1404 H   0  0  0  0  0  0
  -33.5668  -21.7353   16.5372 H   0  0  0  0  0  0
  -33.2562  -21.1716   18.1742 H   0  0  0  0  0  0
  -33.0544  -22.8759   17.7843 H   0  0  0  0  0  0
  -27.1000  -22.5808   15.4737 H   0  0  0  0  0  0
  -27.0571  -22.8206   17.2110 H   0  0  0  0  0  0
  -28.2279  -21.7161   16.4926 H   0  0  0  0  0  0
  -27.4074  -24.9963   14.9246 H   0  0  0  0  0  0
  -28.6929  -25.9466   15.6520 H   0  0  0  0  0  0
  -27.3071  -25.4480   16.6207 H   0  0  0  0  0  0
  -30.6739  -24.2692   17.0977 H   0  0  0  0  0  0
  -29.3810  -24.9687   17.9627 H   0  0  0  0  0  0
  -31.1529  -22.2318   16.2051 H   0  0  0  0  0  0
  -31.3554  -20.5794   16.6608 H   0  0  0  0  0  0
  -27.0988  -23.6317   20.5102 H   0  0  0  0  0  0
  -27.4510  -24.3470   18.9913 H   0  0  0  0  0  0
  -29.2383  -19.7350   21.9767 H   0  0  0  0  0  0
  -30.9042  -19.6308   21.5118 H   0  0  0  0  0  0
  -29.9945  -18.1030   19.5085 H   0  0  0  0  0  0
  -28.5660  -17.9532   20.4889 H   0  0  0  0  0  0
  -30.2293  -17.1396   22.3889 H   0  0  0  0  0  0
  -31.4477  -17.0744   21.1576 H   0  0  0  0  0  0
  -29.4904  -25.1574   20.9342 H   0  0  0  0  0  0
  -27.9385  -25.3998   21.6457 H   0  0  0  0  0  0
  -29.3662  -23.5749   15.3695 H   0  0  0  0  0  0
  -28.9970  -15.3519   21.3189 H   0  0  0  0  0  0
  1 25  1  0  0  0
  1 30  2  0  0  0
  1 88  1  0  0  0
  2  3  1  0  0  0
  2 25  1  0  0  0
  2 89  1  0  0  0
  2 90  1  0  0  0
  3  4  1  0  0  0
  3 91  1  0  0  0
  3 92  1  0  0  0
  4  5  1  0  0  0
  4 93  1  0  0  0
  4 94  1  0  0  0
  5  6  1  0  0  0
  5 26  1  0  0  0
  5 95  1  0  0  0
  6 25  1  0  0  0
  6 96  1  0  0  0
  6 97  1  0  0  0
  7  8  2  0  0  0
  7 26  1  0  0  0
  7 29  1  0  0  0
  8  9  1  0  0  0
  8 22  1  0  0  0
  9 10  1  0  0  0
  9 27  2  0  0  0
 10 11  2  0  0  0
 10 15  1  0  0  0
 11 12  1  0  0  0
 11 98  1  0  0  0
 12 13  2  0  0  0
 12 99  1  0  0  0
 13 14  1  0  0  0
 13 31  1  0  0  0
 14 15  2  0  0  0
 14100  1  0  0  0
 15101  1  0  0  0
 16 17  2  0  0  0
 16 21  1  0  0  0
 16 31  1  0  0  0
 17 18  1  0  0  0
 17102  1  0  0  0
 18 19  2  0  0  0
 18103  1  0  0  0
 19 20  1  0  0  0
 19 24  1  0  0  0
 20 21  2  0  0  0
 20104  1  0  0  0
 21 23  1  0  0  0
 22 28  1  0  0  0
 22 32  2  0  0  0
 26 27  1  0  0  0
 28105  1  0  0  0
 28106  1  0  0  0
 29107  1  0  0  0
 29108  1  0  0  0
 33 34  1  0  0  0
 33 66  1  0  0  0
 33 70  2  0  0  0
 34 36  1  0  0  0
 34 59  1  0  0  0
 34109  1  0  0  0
 35 44  2  0  0  0
 35 45  1  0  0  0
 35 68  1  0  0  0
 36 56  1  0  0  0
 36110  1  0  0  0
 37 39  1  0  0  0
 37 47  1  0  0  0
 37 66  1  0  0  0
 37111  1  0  0  0
 38 43  2  0  0  0
 38 46  1  0  0  0
 38 47  1  0  0  0
 39 64  1  0  0  0
 39 67  2  0  0  0
 40 52  1  0  0  0
 40 53  2  0  0  0
 40 58  1  0  0  0
 41112  1  0  0  0
 41113  1  0  0  0
 41114  1  0  0  0
 41 48  1  0  0  0
 42 43  1  0  0  0
 42 66  1  0  0  0
 42115  1  0  0  0
 42116  1  0  0  0
 43 44  1  0  0  0
 44117  1  0  0  0
 45 46  2  0  0  0
 45118  1  0  0  0
 46119  1  0  0  0
 47120  1  0  0  0
 47121  1  0  0  0
 48 56  1  0  0  0
 48 65  1  0  0  0
 48122  1  0  0  0
 49 50  1  0  0  0
 49 53  1  0  0  0
 49 64  1  0  0  0
 49123  1  0  0  0
 50 51  1  0  0  0
 50124  1  0  0  0
 50125  1  0  0  0
 51 52  1  0  0  0
 51126  1  0  0  0
 51127  1  0  0  0
 52128  1  0  0  0
 52129  1  0  0  0
 53 54  1  0  0  0
 54 55  2  0  0  0
 54130  1  0  0  0
 55 57  1  0  0  0
 55131  1  0  0  0
 56 69  2  0  0  0
 57 58  2  0  0  0
 57132  1  0  0  0
 58133  1  0  0  0
 59 60  1  0  0  0
 59 61  1  0  0  0
 59 62  1  0  0  0
 60134  1  0  0  0
 60135  1  0  0  0
 60136  1  0  0  0
 61137  1  0  0  0
 61138  1  0  0  0
 61139  1  0  0  0
 62140  1  0  0  0
 62141  1  0  0  0
 62142  1  0  0  0
 63 65  1  0  0  0
 63143  1  0  0  0
 63144  1  0  0  0
 63145  1  0  0  0
 64146  1  0  0  0
 65147  1  0  0  0
 68 84  1  0  0  0
 71 72  2  0  0  0
 71 73  1  0  0  0
 71 78  1  0  0  0
 72 79  1  0  0  0
 72 86  1  0  0  0
 73 80  1  0  0  0
 73 87  2  0  0  0
 74 81  1  0  0  0
 74 86  2  0  0  0
 74 87  1  0  0  0
 75 79  1  0  0  0
 75148  1  0  0  0
 75149  1  0  0  0
 75150  1  0  0  0
 76151  1  0  0  0
 76152  1  0  0  0
 76153  1  0  0  0
 76 85  1  0  0  0
 77 85  1  0  0  0
 77154  1  0  0  0
 77155  1  0  0  0
 77156  1  0  0  0
 78 85  1  0  0  0
 78157  1  0  0  0
 78158  1  0  0  0
 79159  1  0  0  0
 79160  1  0  0  0
 80 84  1  0  0  0
 80161  1  0  0  0
 80162  1  0  0  0
 81 82  1  0  0  0
 81163  1  0  0  0
 81164  1  0  0  0
 82 83  1  0  0  0
 82165  1  0  0  0
 82166  1  0  0  0
 83 88  1  0  0  0
 83167  1  0  0  0
 83168  1  0  0  0
 84169  1  0  0  0
 84170  1  0  0  0
 85171  1  0  0  0
 88172  1  0  0  0
M  ISO  4   1 100  68 101  84 101  88 100
M  END
> <chiral flag>
0

> <version>
0

> <s_m_source_file>
/data/baiqing/PycharmProjects/Reinvent-master-3.2/result/LINK_invent/BTK/process_docking_weight1_custom_sum_contain_oxygen_bond_distance_aromatic_linkinvent_7_9_3/rearranged_h_0043.sdf

> <i_m_source_file_index>
45

> <r_mmod_Potential_Energy-OPLS-2005>
-450.575988769531

> <r_mmod_Stretch_Energy-OPLS-2005>
55.108959197998

> <r_mmod_Bend_Energy-OPLS-2005>
129.30583190918

> <r_mmod_Torsional_Energy-OPLS-2005>
216.802703857422

> <r_mmod_Improper_Torsional_Energy-OPLS-2005>
3.96930885314941

> <r_mmod_Van_der_Waal_Energy-OPLS-2005>
147.219650268555

> <r_mmod_Electrostatic_Energy-OPLS-2005>
-800.159790039062

> <r_mmod_Solvation_Energy-OPLS-2005>
-225.368453979492

> <b_mmod_Minimization_Converged-OPLS-2005>
0

> <r_mmod_RMS_Derivative-OPLS-2005>
2.65185260772705

$$$$
45
                    3D
 Structure written by MMmdl.
162170  0  0  1  0            999 V2000
  -30.7318  -14.4180   20.6360 C   0  0  0  0  0  0
  -30.4884  -12.3205   19.3633 C   0  0  0  0  0  0
  -29.5363  -12.5524   18.1742 C   0  0  0  0  0  0
  -28.0517  -12.4121   18.5840 C   0  0  0  0  0  0
  -27.7021  -13.1925   19.8793 C   0  0  2  0  0  0
  -28.7507  -12.8983   20.9730 C   0  0  0  0  0  0
  -25.2898  -13.8092   20.5564 C   0  0  0  0  0  0
  -24.2115  -13.0439   20.9030 C   0  0  0  0  0  0
  -24.6629  -11.6872   20.8678 C   0  0  0  0  0  0
  -23.9233  -10.4319   21.0377 C   0  0  0  0  0  0
  -24.3727   -9.4211   21.9166 C   0  0  0  0  0  0
  -23.6341   -8.2292   22.0789 C   0  0  0  0  0  0
  -22.4301   -8.0381   21.3597 C   0  0  0  0  0  0
  -21.9982   -9.0359   20.4682 C   0  0  0  0  0  0
  -22.7383  -10.2181   20.3070 C   0  0  0  0  0  0
  -21.6889   -6.0793   22.5288 C   0  0  0  0  0  0
  -21.3991   -6.5647   23.8217 C   0  0  0  0  0  0
  -21.3605   -5.6792   24.9155 C   0  0  0  0  0  0
  -21.6057   -4.3078   24.7202 C   0  0  0  0  0  0
  -21.8841   -3.8187   23.4327 C   0  0  0  0  0  0
  -21.9215   -4.7023   22.3405 C   0  0  0  0  0  0
  -22.8146  -13.5291   21.1655 C   0  0  0  0  0  0
  -22.1715   -4.2236   21.0991 F   0  0  0  0  0  0
  -21.5595   -3.4549   25.7693 F   0  0  0  0  0  0
  -30.0846  -13.2419   20.4328 N   0  0  0  0  0  0
  -26.3349  -12.9243   20.3338 N   0  0  0  0  0  0
  -25.9557  -11.6400   20.5671 N   0  0  0  0  0  0
  -22.0755  -12.8342   22.0204 N   0  0  0  0  0  0
  -25.4700  -15.1813   20.3872 N   0  0  0  0  0  0
  -31.8182  -14.7077   20.1271 O   0  0  0  0  0  0
  -21.6679   -6.8970   21.4272 O   0  0  0  0  0  0
  -22.3875  -14.5624   20.6507 O   0  0  0  0  0  0
  -24.6108  -31.8723   23.2063 C   0  0  0  0  0  0
  -25.8983  -32.4832   23.8385 C   0  0  1  0  0  0
  -27.2396  -27.4719   20.0507 C   0  0  0  0  0  0
  -25.5891  -33.8630   24.2362 N   0  0  0  0  0  0
  -23.3944  -30.4926   21.5534 C   0  0  2  0  0  0
  -24.8451  -28.9589   20.1111 C   0  0  0  0  0  0
  -22.7362  -29.4686   22.5046 C   0  0  0  0  0  0
  -18.0258  -28.1373   22.8496 C   0  0  0  0  0  0
  -24.1492  -36.7343   23.2635 C   0  0  0  0  0  0
  -25.9211  -30.8401   21.3551 C   0  0  0  0  0  0
  -26.0052  -29.4765   20.7071 C   0  0  0  0  0  0
  -27.2105  -28.7380   20.6782 C   0  0  0  0  0  0
  -26.0698  -26.9725   19.4447 C   0  0  0  0  0  0
  -24.8701  -27.7057   19.4794 C   0  0  0  0  0  0
  -23.5965  -29.8087   20.1742 C   0  0  0  0  0  0
  -25.4094  -36.3129   24.0340 C   0  0  1  0  0  0
  -20.5837  -28.3657   23.1349 C   0  0  2  0  0  0
  -20.6766  -26.9414   22.5413 C   0  0  0  0  0  0
  -19.5751  -26.6401   21.5209 C   0  0  0  0  0  0
  -18.1911  -26.7917   22.1600 C   0  0  0  0  0  0
  -19.1487  -28.8833   23.2908 C   0  0  0  0  0  0
  -18.9421  -30.1442   23.8922 C   0  0  0  0  0  0
  -17.6426  -30.6591   24.0525 C   0  0  0  0  0  0
  -25.9023  -34.9487   23.5113 C   0  0  0  0  0  0
  -16.5331  -29.9066   23.6324 C   0  0  0  0  0  0
  -16.7245  -28.6473   23.0371 C   0  0  0  0  0  0
  -26.4417  -31.6596   25.0729 C   0  0  0  0  0  0
  -25.3647  -31.3667   26.1458 C   0  0  0  0  0  0
  -27.0244  -30.3068   24.6067 C   0  0  0  0  0  0
  -27.6063  -32.4276   25.7422 C   0  0  0  0  0  0
  -27.5582  -37.1792   24.8452 C   0  0  0  0  0  0
  -21.4112  -29.3040   22.3785 N   0  0  0  0  0  0
  -26.4314  -37.3787   23.9370 N   0  0  0  0  0  0
  -24.6596  -31.0815   22.0988 N   0  0  0  0  0  0
  -23.4141  -28.8236   23.3114 O   0  0  0  0  0  0
  -28.3890  -26.7185   20.0214 O   0  0  0  0  0  0
  -26.5551  -34.8921   22.4692 O   0  0  0  0  0  0
  -23.5303  -32.1493   23.7468 O   0  0  0  0  0  0
  -29.4477  -21.7523   18.4479 C   0  0  0  0  0  0
  -27.3587  -21.5682   17.8721 C   0  0  0  0  0  0
  -29.2204  -20.4901   17.9529 C   0  0  0  0  0  0
  -30.2223  -19.3823   17.7697 C   0  0  0  0  0  0
  -30.5281  -18.6154   19.0697 C   0  0  0  0  0  0
  -29.3537  -17.7490   19.5715 C   0  0  0  0  0  0
  -29.2989  -17.6230   21.1071 C   0  0  0  0  0  0
  -28.8055  -24.2422   20.0266 C   0  0  0  0  0  0
  -28.0190  -23.8276   18.7609 C   0  0  0  0  0  0
  -30.3072  -16.6523   21.7605 C   0  0  0  0  0  0
  -28.2910  -25.4974   20.7635 C   0  0  0  0  0  0
  -27.8749  -20.3719   17.5962 N   0  0  0  0  0  0
  -28.2403  -22.4345   18.3996 N   0  0  0  0  0  0
  -30.0326  -15.2712   21.3932 N   0  0  0  0  0  0
  -31.5206  -12.4880   19.0407 H   0  0  0  0  0  0
  -30.4524  -11.2883   19.7054 H   0  0  0  0  0  0
  -29.7631  -11.8619   17.3608 H   0  0  0  0  0  0
  -29.7154  -13.5530   17.7758 H   0  0  0  0  0  0
  -27.8255  -11.3494   18.6923 H   0  0  0  0  0  0
  -27.4253  -12.7778   17.7706 H   0  0  0  0  0  0
  -27.7712  -14.2524   19.6294 H   0  0  0  0  0  0
  -28.7453  -11.8410   21.2374 H   0  0  0  0  0  0
  -28.5160  -13.4142   21.9003 H   0  0  0  0  0  0
  -25.2925   -9.5632   22.4672 H   0  0  0  0  0  0
  -24.0030   -7.4700   22.7530 H   0  0  0  0  0  0
  -21.0904   -8.8931   19.9004 H   0  0  0  0  0  0
  -22.3931  -10.9704   19.6151 H   0  0  0  0  0  0
  -21.1982   -7.6154   23.9719 H   0  0  0  0  0  0
  -21.1375   -6.0516   25.9036 H   0  0  0  0  0  0
  -22.0680   -2.7655   23.2811 H   0  0  0  0  0  0
  -22.4292  -11.9953   22.4542 H   0  0  0  0  0  0
  -21.1410  -13.1463   22.2339 H   0  0  0  0  0  0
  -24.7139  -15.8482   20.5009 H   0  0  0  0  0  0
  -26.3163  -15.6025   20.0243 H   0  0  0  0  0  0
  -26.7037  -32.5519   23.1113 H   0  0  0  0  0  0
  -25.0103  -33.9802   25.0546 H   0  0  0  0  0  0
  -22.6787  -31.3046   21.4017 H   0  0  0  0  0  0
  -23.3766  -35.9663   23.3330 H   0  0  0  0  0  0
  -24.3620  -36.8965   22.2061 H   0  0  0  0  0  0
  -23.7274  -37.6557   23.6654 H   0  0  0  0  0  0
  -26.0165  -31.6024   20.5800 H   0  0  0  0  0  0
  -26.8142  -30.9058   21.9637 H   0  0  0  0  0  0
  -28.1072  -29.1351   21.1381 H   0  0  0  0  0  0
  -26.0953  -26.0277   18.9273 H   0  0  0  0  0  0
  -23.9796  -27.3069   19.0025 H   0  0  0  0  0  0
  -23.6478  -30.5640   19.3915 H   0  0  0  0  0  0
  -22.7321  -29.1928   19.9179 H   0  0  0  0  0  0
  -25.1267  -36.2002   25.0844 H   0  0  0  0  0  0
  -20.9865  -28.3229   24.1491 H   0  0  0  0  0  0
  -20.5712  -26.2266   23.3591 H   0  0  0  0  0  0
  -21.6630  -26.7508   22.1165 H   0  0  0  0  0  0
  -19.6930  -25.6310   21.1251 H   0  0  0  0  0  0
  -19.6708  -27.3198   20.6739 H   0  0  0  0  0  0
  -17.4187  -26.6692   21.4004 H   0  0  0  0  0  0
  -18.0305  -26.0036   22.8990 H   0  0  0  0  0  0
  -19.7896  -30.7238   24.2339 H   0  0  0  0  0  0
  -17.4974  -31.6286   24.5102 H   0  0  0  0  0  0
  -15.5316  -30.2954   23.7679 H   0  0  0  0  0  0
  -15.8634  -28.0775   22.7130 H   0  0  0  0  0  0
  -24.5807  -30.7053   25.7765 H   0  0  0  0  0  0
  -24.8791  -32.2793   26.4961 H   0  0  0  0  0  0
  -25.7950  -30.8776   27.0209 H   0  0  0  0  0  0
  -26.2809  -29.6832   24.1097 H   0  0  0  0  0  0
  -27.4079  -29.7299   25.4502 H   0  0  0  0  0  0
  -27.8594  -30.4503   23.9181 H   0  0  0  0  0  0
  -27.2822  -33.3631   26.1983 H   0  0  0  0  0  0
  -28.3812  -32.6753   25.0149 H   0  0  0  0  0  0
  -28.0747  -31.8361   26.5289 H   0  0  0  0  0  0
  -28.2576  -38.0107   24.7512 H   0  0  0  0  0  0
  -28.1099  -36.2651   24.6246 H   0  0  0  0  0  0
  -27.2285  -37.1386   25.8848 H   0  0  0  0  0  0
  -20.9288  -29.8721   21.6948 H   0  0  0  0  0  0
  -26.0238  -38.2898   24.1304 H   0  0  0  0  0  0
  -30.3550  -22.2189   18.8059 H   0  0  0  0  0  0
  -26.3312  -21.8260   17.6568 H   0  0  0  0  0  0
  -31.1602  -19.7962   17.3917 H   0  0  0  0  0  0
  -29.8901  -18.6867   16.9967 H   0  0  0  0  0  0
  -30.8517  -19.3238   19.8315 H   0  0  0  0  0  0
  -31.3905  -17.9703   18.8971 H   0  0  0  0  0  0
  -29.3633  -16.7725   19.0768 H   0  0  0  0  0  0
  -28.4109  -18.2058   19.2613 H   0  0  0  0  0  0
  -28.2839  -17.3179   21.3722 H   0  0  0  0  0  0
  -29.4091  -18.6061   21.5643 H   0  0  0  0  0  0
  -29.8612  -24.3628   19.7961 H   0  0  0  0  0  0
  -28.7575  -23.4159   20.7412 H   0  0  0  0  0  0
  -28.3198  -24.4363   17.9038 H   0  0  0  0  0  0
  -26.9496  -23.9737   18.8967 H   0  0  0  0  0  0
  -30.1825  -16.7131   22.8439 H   0  0  0  0  0  0
  -31.3403  -16.9410   21.5603 H   0  0  0  0  0  0
  -28.9090  -25.6370   21.6496 H   0  0  0  0  0  0
  -27.2897  -25.3046   21.1517 H   0  0  0  0  0  0
  -29.1515  -14.8999   21.7149 H   0  0  0  0  0  0
  1 25  1  0  0  0
  1 30  2  0  0  0
  1 84  1  0  0  0
  2  3  1  0  0  0
  2 25  1  0  0  0
  2 85  1  0  0  0
  2 86  1  0  0  0
  3  4  1  0  0  0
  3 87  1  0  0  0
  3 88  1  0  0  0
  4  5  1  0  0  0
  4 89  1  0  0  0
  4 90  1  0  0  0
  5  6  1  0  0  0
  5 26  1  0  0  0
  5 91  1  0  0  0
  6 25  1  0  0  0
  6 92  1  0  0  0
  6 93  1  0  0  0
  7  8  2  0  0  0
  7 26  1  0  0  0
  7 29  1  0  0  0
  8  9  1  0  0  0
  8 22  1  0  0  0
  9 10  1  0  0  0
  9 27  2  0  0  0
 10 11  2  0  0  0
 10 15  1  0  0  0
 11 12  1  0  0  0
 11 94  1  0  0  0
 12 13  2  0  0  0
 12 95  1  0  0  0
 13 14  1  0  0  0
 13 31  1  0  0  0
 14 15  2  0  0  0
 14 96  1  0  0  0
 15 97  1  0  0  0
 16 17  2  0  0  0
 16 21  1  0  0  0
 16 31  1  0  0  0
 17 18  1  0  0  0
 17 98  1  0  0  0
 18 19  2  0  0  0
 18 99  1  0  0  0
 19 20  1  0  0  0
 19 24  1  0  0  0
 20 21  2  0  0  0
 20100  1  0  0  0
 21 23  1  0  0  0
 22 28  1  0  0  0
 22 32  2  0  0  0
 26 27  1  0  0  0
 28101  1  0  0  0
 28102  1  0  0  0
 29103  1  0  0  0
 29104  1  0  0  0
 33 34  1  0  0  0
 33 66  1  0  0  0
 33 70  2  0  0  0
 34 36  1  0  0  0
 34 59  1  0  0  0
 34105  1  0  0  0
 35 44  2  0  0  0
 35 45  1  0  0  0
 35 68  1  0  0  0
 36 56  1  0  0  0
 36106  1  0  0  0
 37 39  1  0  0  0
 37 47  1  0  0  0
 37 66  1  0  0  0
 37107  1  0  0  0
 38 43  2  0  0  0
 38 46  1  0  0  0
 38 47  1  0  0  0
 39 64  1  0  0  0
 39 67  2  0  0  0
 40 52  1  0  0  0
 40 53  2  0  0  0
 40 58  1  0  0  0
 41108  1  0  0  0
 41109  1  0  0  0
 41110  1  0  0  0
 41 48  1  0  0  0
 42 43  1  0  0  0
 42 66  1  0  0  0
 42111  1  0  0  0
 42112  1  0  0  0
 43 44  1  0  0  0
 44113  1  0  0  0
 45 46  2  0  0  0
 45114  1  0  0  0
 46115  1  0  0  0
 47116  1  0  0  0
 47117  1  0  0  0
 48 56  1  0  0  0
 48 65  1  0  0  0
 48118  1  0  0  0
 49 50  1  0  0  0
 49 53  1  0  0  0
 49 64  1  0  0  0
 49119  1  0  0  0
 50 51  1  0  0  0
 50120  1  0  0  0
 50121  1  0  0  0
 51 52  1  0  0  0
 51122  1  0  0  0
 51123  1  0  0  0
 52124  1  0  0  0
 52125  1  0  0  0
 53 54  1  0  0  0
 54 55  2  0  0  0
 54126  1  0  0  0
 55 57  1  0  0  0
 55127  1  0  0  0
 56 69  2  0  0  0
 57 58  2  0  0  0
 57128  1  0  0  0
 58129  1  0  0  0
 59 60  1  0  0  0
 59 61  1  0  0  0
 59 62  1  0  0  0
 60130  1  0  0  0
 60131  1  0  0  0
 60132  1  0  0  0
 61133  1  0  0  0
 61134  1  0  0  0
 61135  1  0  0  0
 62136  1  0  0  0
 62137  1  0  0  0
 62138  1  0  0  0
 63 65  1  0  0  0
 63139  1  0  0  0
 63140  1  0  0  0
 63141  1  0  0  0
 64142  1  0  0  0
 65143  1  0  0  0
 68 81  1  0  0  0
 71 73  2  0  0  0
 71 83  1  0  0  0
 71144  1  0  0  0
 72 82  2  0  0  0
 72 83  1  0  0  0
 72145  1  0  0  0
 73 74  1  0  0  0
 73 82  1  0  0  0
 74 75  1  0  0  0
 74146  1  0  0  0
 74147  1  0  0  0
 75 76  1  0  0  0
 75148  1  0  0  0
 75149  1  0  0  0
 76 77  1  0  0  0
 76150  1  0  0  0
 76151  1  0  0  0
 77 80  1  0  0  0
 77152  1  0  0  0
 77153  1  0  0  0
 78 79  1  0  0  0
 78 81  1  0  0  0
 78154  1  0  0  0
 78155  1  0  0  0
 79 83  1  0  0  0
 79156  1  0  0  0
 79157  1  0  0  0
 80 84  1  0  0  0
 80158  1  0  0  0
 80159  1  0  0  0
 81160  1  0  0  0
 81161  1  0  0  0
 84162  1  0  0  0
M  ISO  4   1 100  68 101  81 101  84 100
M  END
> <chiral flag>
0

> <version>
0

> <s_m_source_file>
/data/baiqing/PycharmProjects/Reinvent-master-3.2/result/LINK_invent/BTK/process_docking_weight1_custom_sum_contain_oxygen_bond_distance_aromatic_linkinvent_7_9_3/rearranged_h_0043.sdf

> <i_m_source_file_index>
46

> <r_mmod_Potential_Energy-OPLS-2005>
-88.2174530029297

> <r_mmod_Stretch_Energy-OPLS-2005>
32.3863983154297

> <r_mmod_Bend_Energy-OPLS-2005>
106.022117614746

> <r_mmod_Torsional_Energy-OPLS-2005>
243.120346069336

> <r_mmod_Improper_Torsional_Energy-OPLS-2005>
2.64745354652405

> <r_mmod_Van_der_Waal_Energy-OPLS-2005>
122.492774963379

> <r_mmod_Electrostatic_Energy-OPLS-2005>
-384.839782714844

> <r_mmod_Solvation_Energy-OPLS-2005>
-222.320617675781

> <b_mmod_Minimization_Converged-OPLS-2005>
0

> <r_mmod_RMS_Derivative-OPLS-2005>
8.17032146453857

$$$$
46
                    3D
 Structure written by MMmdl.
171179  0  0  1  0            999 V2000
  -30.6576  -14.7442   20.4514 C   0  0  0  0  0  0
  -30.4287  -12.4510   19.4950 C   0  0  0  0  0  0
  -29.5169  -12.5066   18.2505 C   0  0  0  0  0  0
  -28.0454  -12.3216   18.6617 C   0  0  0  0  0  0
  -27.6427  -13.2379   19.8492 C   0  0  2  0  0  0
  -28.6838  -13.2119   20.9924 C   0  0  0  0  0  0
  -25.2515  -13.8215   20.5691 C   0  0  0  0  0  0
  -24.1786  -13.0452   20.9191 C   0  0  0  0  0  0
  -24.6378  -11.6938   20.8710 C   0  0  0  0  0  0
  -23.9048  -10.4304   21.0379 C   0  0  0  0  0  0
  -24.3608   -9.4220   21.9151 C   0  0  0  0  0  0
  -23.6295   -8.2244   22.0730 C   0  0  0  0  0  0
  -22.4282   -8.0263   21.3524 C   0  0  0  0  0  0
  -21.9899   -9.0230   20.4637 C   0  0  0  0  0  0
  -22.7212  -10.2121   20.3029 C   0  0  0  0  0  0
  -21.6863   -6.0717   22.5252 C   0  0  0  0  0  0
  -21.4019   -6.5623   23.8184 C   0  0  0  0  0  0
  -21.3672   -5.6778   24.9152 C   0  0  0  0  0  0
  -21.6047   -4.3037   24.7196 C   0  0  0  0  0  0
  -21.8829   -3.8119   23.4318 C   0  0  0  0  0  0
  -21.9197   -4.6938   22.3379 C   0  0  0  0  0  0
  -22.7800  -13.5229   21.1858 C   0  0  0  0  0  0
  -22.1668   -4.2129   21.0953 F   0  0  0  0  0  0
  -21.5655   -3.4521   25.7712 F   0  0  0  0  0  0
  -29.9931  -13.5350   20.4101 N   0  0  0  0  0  0
  -26.2940  -12.9420   20.3259 N   0  0  0  0  0  0
  -25.9318  -11.6558   20.5718 N   0  0  0  0  0  0
  -22.0464  -12.8195   22.0428 N   0  0  0  0  0  0
  -25.4223  -15.1926   20.4137 N   0  0  0  0  0  0
  -31.8452  -14.7871   20.1326 O   0  0  0  0  0  0
  -21.6650   -6.8857   21.4216 O   0  0  0  0  0  0
  -22.3465  -14.5500   20.6684 O   0  0  0  0  0  0
  -24.6340  -31.8558   23.1997 C   0  0  0  0  0  0
  -25.9195  -32.4728   23.8332 C   0  0  1  0  0  0
  -27.2220  -27.2683   20.1176 C   0  0  0  0  0  0
  -25.6036  -33.8539   24.2278 N   0  0  0  0  0  0
  -23.4261  -30.4823   21.5406 C   0  0  2  0  0  0
  -24.8692  -28.9273   20.1129 C   0  0  0  0  0  0
  -22.7512  -29.4609   22.4865 C   0  0  0  0  0  0
  -18.0301  -28.1448   22.8452 C   0  0  0  0  0  0
  -24.1516  -36.7249   23.2613 C   0  0  0  0  0  0
  -25.9748  -30.7698   21.3789 C   0  0  0  0  0  0
  -26.0452  -29.3942   20.7147 C   0  0  0  0  0  0
  -27.2226  -28.5795   20.7047 C   0  0  0  0  0  0
  -26.0167  -26.8642   19.4986 C   0  0  0  0  0  0
  -24.8593  -27.6669   19.4988 C   0  0  0  0  0  0
  -23.6481  -29.8257   20.1539 C   0  0  0  0  0  0
  -25.4124  -36.3007   24.0302 C   0  0  1  0  0  0
  -20.5905  -28.3770   23.1255 C   0  0  2  0  0  0
  -20.6836  -26.9497   22.5397 C   0  0  0  0  0  0
  -19.5808  -26.6417   21.5228 C   0  0  0  0  0  0
  -18.1968  -26.7984   22.1609 C   0  0  0  0  0  0
  -19.1553  -28.8912   23.2853 C   0  0  0  0  0  0
  -18.9468  -30.1494   23.8893 C   0  0  0  0  0  0
  -17.6467  -30.6621   24.0560 C   0  0  0  0  0  0
  -25.9073  -34.9398   23.5051 C   0  0  0  0  0  0
  -16.5351  -29.9111   23.6345 C   0  0  0  0  0  0
  -16.7280  -28.6543   23.0347 C   0  0  0  0  0  0
  -26.4600  -31.6550   25.0697 C   0  0  0  0  0  0
  -25.3874  -31.3744   26.1449 C   0  0  0  0  0  0
  -27.0433  -30.2927   24.6237 C   0  0  0  0  0  0
  -27.6110  -32.4327   25.7519 C   0  0  0  0  0  0
  -27.5576  -37.1779   24.8454 C   0  0  0  0  0  0
  -21.4214  -29.3086   22.3623 N   0  0  0  0  0  0
  -26.4281  -37.3720   23.9401 N   0  0  0  0  0  0
  -24.6962  -31.0562   22.0938 N   0  0  0  0  0  0
  -23.4211  -28.8150   23.2962 O   0  0  0  0  0  0
  -28.3294  -26.3847   20.1602 O   0  0  0  0  0  0
  -26.5599  -34.8881   22.4595 O   0  0  0  0  0  0
  -23.5500  -32.1337   23.7332 O   0  0  0  0  0  0
  -33.1521  -20.6230   20.0539 C   0  0  0  0  0  0
  -31.4255  -21.9899   19.0872 C   0  0  0  0  0  0
  -32.7757  -21.6192   19.1467 C   0  0  0  0  0  0
  -32.1734  -19.8634   20.7254 C   0  0  0  0  0  0
  -30.4224  -21.3404   19.8491 C   0  0  0  0  0  0
  -30.7809  -20.0325   20.4385 C   0  0  0  0  0  0
  -33.8140  -22.3663   18.3262 C   0  0  0  0  0  0
  -32.3177  -21.5086   24.8459 C   0  0  0  0  0  0
  -32.6797  -18.9637   21.8565 C   0  0  0  0  0  0
  -29.1055  -22.2217   19.9603 C   0  0  0  0  0  0
  -29.8755  -18.7540   20.7495 C   0  0  0  0  0  0
  -31.9434  -20.7331   23.5829 C   0  0  0  0  0  0
  -33.0578  -19.7787   23.1117 C   0  0  0  0  0  0
  -29.2915  -23.8347   20.2144 C   0  0  0  0  0  0
  -30.4158  -17.3233   20.1483 C   0  0  0  0  0  0
  -28.1115  -24.9079   19.9620 C   0  0  0  0  0  0
  -29.9489  -15.9317   20.6092 N   0  0  0  0  0  0
  -31.4753  -12.5448   19.2007 H   0  0  0  0  0  0
  -30.3486  -11.4813   19.9882 H   0  0  0  0  0  0
  -29.8076  -11.7437   17.5275 H   0  0  0  0  0  0
  -29.6348  -13.4656   17.7465 H   0  0  0  0  0  0
  -27.9154  -11.2754   18.9410 H   0  0  0  0  0  0
  -27.3850  -12.4906   17.8103 H   0  0  0  0  0  0
  -27.6319  -14.2508   19.4465 H   0  0  0  0  0  0
  -28.7051  -12.2373   21.4828 H   0  0  0  0  0  0
  -28.4140  -13.9388   21.7618 H   0  0  0  0  0  0
  -25.2768   -9.5717   22.4703 H   0  0  0  0  0  0
  -24.0022   -7.4655   22.7449 H   0  0  0  0  0  0
  -21.0830   -8.8729   19.8963 H   0  0  0  0  0  0
  -22.3648  -10.9640   19.6126 H   0  0  0  0  0  0
  -21.1994   -7.6129   23.9676 H   0  0  0  0  0  0
  -21.1515   -6.0511   25.9066 H   0  0  0  0  0  0
  -22.0600   -2.7580   23.2806 H   0  0  0  0  0  0
  -22.4119  -11.9885   22.4820 H   0  0  0  0  0  0
  -21.1085  -13.1198   22.2658 H   0  0  0  0  0  0
  -24.6551  -15.8490   20.5148 H   0  0  0  0  0  0
  -26.2735  -15.6271   20.0803 H   0  0  0  0  0  0
  -26.7257  -32.5394   23.1076 H   0  0  0  0  0  0
  -25.0475  -33.9739   25.0615 H   0  0  0  0  0  0
  -22.7185  -31.3020   21.4019 H   0  0  0  0  0  0
  -23.3761  -35.9602   23.3260 H   0  0  0  0  0  0
  -24.3608  -36.8879   22.2026 H   0  0  0  0  0  0
  -23.7341  -37.6456   23.6689 H   0  0  0  0  0  0
  -26.1369  -31.5348   20.6181 H   0  0  0  0  0  0
  -26.8411  -30.8013   22.0273 H   0  0  0  0  0  0
  -28.1191  -28.9401   21.1887 H   0  0  0  0  0  0
  -25.9351  -25.9016   19.0174 H   0  0  0  0  0  0
  -23.9548  -27.3042   19.0291 H   0  0  0  0  0  0
  -23.8102  -30.6095   19.4134 H   0  0  0  0  0  0
  -22.7623  -29.2820   19.8200 H   0  0  0  0  0  0
  -25.1335  -36.1775   25.0794 H   0  0  0  0  0  0
  -21.0024  -28.3396   24.1371 H   0  0  0  0  0  0
  -20.5882  -26.2383   23.3618 H   0  0  0  0  0  0
  -21.6699  -26.7647   22.1129 H   0  0  0  0  0  0
  -19.7015  -25.6323   21.1295 H   0  0  0  0  0  0
  -19.6755  -27.3200   20.6745 H   0  0  0  0  0  0
  -17.4281  -26.6731   21.3958 H   0  0  0  0  0  0
  -18.0328  -26.0129   22.9009 H   0  0  0  0  0  0
  -19.7929  -30.7304   24.2285 H   0  0  0  0  0  0
  -17.5018  -31.6301   24.5170 H   0  0  0  0  0  0
  -15.5361  -30.3025   23.7674 H   0  0  0  0  0  0
  -15.8676  -28.0860   22.7104 H   0  0  0  0  0  0
  -24.6082  -30.7019   25.7857 H   0  0  0  0  0  0
  -24.9070  -32.2938   26.4788 H   0  0  0  0  0  0
  -25.8247  -30.9049   27.0266 H   0  0  0  0  0  0
  -26.2994  -29.6630   24.1316 H   0  0  0  0  0  0
  -27.4114  -29.7225   25.4787 H   0  0  0  0  0  0
  -27.8915  -30.4115   23.9480 H   0  0  0  0  0  0
  -27.2662  -33.3642   26.2037 H   0  0  0  0  0  0
  -28.3995  -32.6850   25.0418 H   0  0  0  0  0  0
  -28.0722  -31.8502   26.5510 H   0  0  0  0  0  0
  -28.2556  -38.0096   24.7471 H   0  0  0  0  0  0
  -28.1103  -36.2622   24.6311 H   0  0  0  0  0  0
  -27.2305  -37.1446   25.8856 H   0  0  0  0  0  0
  -20.9419  -29.8728   21.6748 H   0  0  0  0  0  0
  -26.0105  -38.2768   24.1388 H   0  0  0  0  0  0
  -34.2005  -20.4425   20.2451 H   0  0  0  0  0  0
  -31.1716  -22.8389   18.4696 H   0  0  0  0  0  0
  -34.1207  -23.2821   18.8301 H   0  0  0  0  0  0
  -33.4102  -22.6453   17.3517 H   0  0  0  0  0  0
  -34.7030  -21.7586   18.1514 H   0  0  0  0  0  0
  -31.5251  -22.2066   25.1147 H   0  0  0  0  0  0
  -33.2345  -22.0802   24.6921 H   0  0  0  0  0  0
  -32.4705  -20.8395   25.6923 H   0  0  0  0  0  0
  -33.5453  -18.3977   21.5107 H   0  0  0  0  0  0
  -31.9493  -18.2234   22.1698 H   0  0  0  0  0  0
  -28.4802  -21.8103   20.7493 H   0  0  0  0  0  0
  -28.5571  -22.0735   19.0288 H   0  0  0  0  0  0
  -28.8691  -18.9500   20.3798 H   0  0  0  0  0  0
  -29.7750  -18.6727   21.8314 H   0  0  0  0  0  0
  -31.7258  -21.4618   22.8010 H   0  0  0  0  0  0
  -31.0173  -20.1802   23.7507 H   0  0  0  0  0  0
  -33.9560  -20.3663   22.9132 H   0  0  0  0  0  0
  -33.3286  -19.0907   23.9168 H   0  0  0  0  0  0
  -30.0848  -24.2079   19.5739 H   0  0  0  0  0  0
  -29.6703  -23.9627   21.2303 H   0  0  0  0  0  0
  -31.5011  -17.3045   20.2155 H   0  0  0  0  0  0
  -30.2396  -17.3548   19.0723 H   0  0  0  0  0  0
  -27.2645  -24.6018   20.5766 H   0  0  0  0  0  0
  -27.7995  -24.7750   18.9261 H   0  0  0  0  0  0
  -28.9768  -15.8400   20.8605 H   0  0  0  0  0  0
  1 25  1  0  0  0
  1 30  2  0  0  0
  1 87  1  0  0  0
  2  3  1  0  0  0
  2 25  1  0  0  0
  2 88  1  0  0  0
  2 89  1  0  0  0
  3  4  1  0  0  0
  3 90  1  0  0  0
  3 91  1  0  0  0
  4  5  1  0  0  0
  4 92  1  0  0  0
  4 93  1  0  0  0
  5  6  1  0  0  0
  5 26  1  0  0  0
  5 94  1  0  0  0
  6 25  1  0  0  0
  6 95  1  0  0  0
  6 96  1  0  0  0
  7  8  2  0  0  0
  7 26  1  0  0  0
  7 29  1  0  0  0
  8  9  1  0  0  0
  8 22  1  0  0  0
  9 10  1  0  0  0
  9 27  2  0  0  0
 10 11  2  0  0  0
 10 15  1  0  0  0
 11 12  1  0  0  0
 11 97  1  0  0  0
 12 13  2  0  0  0
 12 98  1  0  0  0
 13 14  1  0  0  0
 13 31  1  0  0  0
 14 15  2  0  0  0
 14 99  1  0  0  0
 15100  1  0  0  0
 16 17  2  0  0  0
 16 21  1  0  0  0
 16 31  1  0  0  0
 17 18  1  0  0  0
 17101  1  0  0  0
 18 19  2  0  0  0
 18102  1  0  0  0
 19 20  1  0  0  0
 19 24  1  0  0  0
 20 21  2  0  0  0
 20103  1  0  0  0
 21 23  1  0  0  0
 22 28  1  0  0  0
 22 32  2  0  0  0
 26 27  1  0  0  0
 28104  1  0  0  0
 28105  1  0  0  0
 29106  1  0  0  0
 29107  1  0  0  0
 33 34  1  0  0  0
 33 66  1  0  0  0
 33 70  2  0  0  0
 34 36  1  0  0  0
 34 59  1  0  0  0
 34108  1  0  0  0
 35 44  2  0  0  0
 35 45  1  0  0  0
 35 68  1  0  0  0
 36 56  1  0  0  0
 36109  1  0  0  0
 37 39  1  0  0  0
 37 47  1  0  0  0
 37 66  1  0  0  0
 37110  1  0  0  0
 38 43  2  0  0  0
 38 46  1  0  0  0
 38 47  1  0  0  0
 39 64  1  0  0  0
 39 67  2  0  0  0
 40 52  1  0  0  0
 40 53  2  0  0  0
 40 58  1  0  0  0
 41111  1  0  0  0
 41112  1  0  0  0
 41113  1  0  0  0
 41 48  1  0  0  0
 42 43  1  0  0  0
 42 66  1  0  0  0
 42114  1  0  0  0
 42115  1  0  0  0
 43 44  1  0  0  0
 44116  1  0  0  0
 45 46  2  0  0  0
 45117  1  0  0  0
 46118  1  0  0  0
 47119  1  0  0  0
 47120  1  0  0  0
 48 56  1  0  0  0
 48 65  1  0  0  0
 48121  1  0  0  0
 49 50  1  0  0  0
 49 53  1  0  0  0
 49 64  1  0  0  0
 49122  1  0  0  0
 50 51  1  0  0  0
 50123  1  0  0  0
 50124  1  0  0  0
 51 52  1  0  0  0
 51125  1  0  0  0
 51126  1  0  0  0
 52127  1  0  0  0
 52128  1  0  0  0
 53 54  1  0  0  0
 54 55  2  0  0  0
 54129  1  0  0  0
 55 57  1  0  0  0
 55130  1  0  0  0
 56 69  2  0  0  0
 57 58  2  0  0  0
 57131  1  0  0  0
 58132  1  0  0  0
 59 60  1  0  0  0
 59 61  1  0  0  0
 59 62  1  0  0  0
 60133  1  0  0  0
 60134  1  0  0  0
 60135  1  0  0  0
 61136  1  0  0  0
 61137  1  0  0  0
 61138  1  0  0  0
 62139  1  0  0  0
 62140  1  0  0  0
 62141  1  0  0  0
 63 65  1  0  0  0
 63142  1  0  0  0
 63143  1  0  0  0
 63144  1  0  0  0
 64145  1  0  0  0
 65146  1  0  0  0
 68 86  1  0  0  0
 71 73  2  0  0  0
 71 74  1  0  0  0
 71147  1  0  0  0
 72 73  1  0  0  0
 72 75  2  0  0  0
 72148  1  0  0  0
 73 77  1  0  0  0
 74 76  2  0  0  0
 74 79  1  0  0  0
 75 76  1  0  0  0
 75 80  1  0  0  0
 76 81  1  0  0  0
 77149  1  0  0  0
 77150  1  0  0  0
 77151  1  0  0  0
 78 82  1  0  0  0
 78152  1  0  0  0
 78153  1  0  0  0
 78154  1  0  0  0
 79 83  1  0  0  0
 79155  1  0  0  0
 79156  1  0  0  0
 80 84  1  0  0  0
 80157  1  0  0  0
 80158  1  0  0  0
 81 85  1  0  0  0
 81159  1  0  0  0
 81160  1  0  0  0
 82 83  1  0  0  0
 82161  1  0  0  0
 82162  1  0  0  0
 83163  1  0  0  0
 83164  1  0  0  0
 84 86  1  0  0  0
 84165  1  0  0  0
 84166  1  0  0  0
 85 87  1  0  0  0
 85167  1  0  0  0
 85168  1  0  0  0
 86169  1  0  0  0
 86170  1  0  0  0
 87171  1  0  0  0
M  ISO  4   1 100  68 101  86 101  87 100
M  END
> <chiral flag>
0

> <version>
0

> <s_m_source_file>
/data/baiqing/PycharmProjects/Reinvent-master-3.2/result/LINK_invent/BTK/process_docking_weight1_custom_sum_contain_oxygen_bond_distance_aromatic_linkinvent_7_9_3/rearranged_h_0043.sdf

> <i_m_source_file_index>
47

> <r_mmod_Potential_Energy-OPLS-2005>
261.041687011719

> <r_mmod_Stretch_Energy-OPLS-2005>
146.365478515625

> <r_mmod_Bend_Energy-OPLS-2005>
192.512283325195

> <r_mmod_Torsional_Energy-OPLS-2005>
280.173400878906

> <r_mmod_Improper_Torsional_Energy-OPLS-2005>
6.57343006134033

> <r_mmod_Van_der_Waal_Energy-OPLS-2005>
148.401809692383

> <r_mmod_Electrostatic_Energy-OPLS-2005>
-392.192749023438

> <r_mmod_Solvation_Energy-OPLS-2005>
-205.359893798828

> <b_mmod_Minimization_Converged-OPLS-2005>
0

> <r_mmod_RMS_Derivative-OPLS-2005>
4.51974964141846

$$$$
47
                    3D
 Structure written by MMmdl.
160168  0  0  1  0            999 V2000
  -30.7294  -14.4334   20.4592 C   0  0  0  0  0  0
  -30.4007  -12.2599   19.4340 C   0  0  0  0  0  0
  -29.4845  -12.4632   18.2100 C   0  0  0  0  0  0
  -28.0019  -12.3461   18.6150 C   0  0  0  0  0  0
  -27.6469  -13.2062   19.8574 C   0  0  2  0  0  0
  -28.6895  -13.0416   20.9869 C   0  0  0  0  0  0
  -25.2536  -13.8178   20.5652 C   0  0  0  0  0  0
  -24.1804  -13.0453   20.9187 C   0  0  0  0  0  0
  -24.6344  -11.6924   20.8735 C   0  0  0  0  0  0
  -23.9027  -10.4313   21.0386 C   0  0  0  0  0  0
  -24.3592   -9.4228   21.9165 C   0  0  0  0  0  0
  -23.6293   -8.2242   22.0742 C   0  0  0  0  0  0
  -22.4276   -8.0277   21.3522 C   0  0  0  0  0  0
  -21.9905   -9.0244   20.4616 C   0  0  0  0  0  0
  -22.7201  -10.2141   20.3025 C   0  0  0  0  0  0
  -21.6854   -6.0732   22.5265 C   0  0  0  0  0  0
  -21.4000   -6.5629   23.8201 C   0  0  0  0  0  0
  -21.3670   -5.6776   24.9162 C   0  0  0  0  0  0
  -21.6061   -4.3045   24.7203 C   0  0  0  0  0  0
  -21.8828   -3.8141   23.4317 C   0  0  0  0  0  0
  -21.9198   -4.6964   22.3381 C   0  0  0  0  0  0
  -22.7837  -13.5249   21.1866 C   0  0  0  0  0  0
  -22.1664   -4.2153   21.0951 F   0  0  0  0  0  0
  -21.5650   -3.4522   25.7706 F   0  0  0  0  0  0
  -30.0242  -13.2776   20.4196 N   0  0  0  0  0  0
  -26.2929  -12.9326   20.3293 N   0  0  0  0  0  0
  -25.9258  -11.6497   20.5758 N   0  0  0  0  0  0
  -22.0470  -12.8229   22.0413 N   0  0  0  0  0  0
  -25.4346  -15.1882   20.4012 N   0  0  0  0  0  0
  -31.9400  -14.4874   20.2498 O   0  0  0  0  0  0
  -21.6637   -6.8875   21.4231 O   0  0  0  0  0  0
  -22.3524  -14.5554   20.6728 O   0  0  0  0  0  0
  -24.6147  -31.8721   23.2118 C   0  0  0  0  0  0
  -25.9071  -32.4841   23.8407 C   0  0  1  0  0  0
  -27.2392  -27.4834   20.0760 C   0  0  0  0  0  0
  -25.5951  -33.8628   24.2362 N   0  0  0  0  0  0
  -23.4005  -30.4988   21.5501 C   0  0  2  0  0  0
  -24.8444  -28.9645   20.1163 C   0  0  0  0  0  0
  -22.7414  -29.4712   22.4967 C   0  0  0  0  0  0
  -18.0302  -28.1382   22.8492 C   0  0  0  0  0  0
  -24.1495  -36.7327   23.2631 C   0  0  0  0  0  0
  -25.9236  -30.8520   21.3515 C   0  0  0  0  0  0
  -26.0001  -29.4843   20.7104 C   0  0  0  0  0  0
  -27.2003  -28.7436   20.7012 C   0  0  0  0  0  0
  -26.0676  -26.9568   19.4909 C   0  0  0  0  0  0
  -24.8665  -27.6936   19.5130 C   0  0  0  0  0  0
  -23.6082  -29.8330   20.1636 C   0  0  0  0  0  0
  -25.4104  -36.3115   24.0347 C   0  0  1  0  0  0
  -20.5894  -28.3685   23.1294 C   0  0  2  0  0  0
  -20.6803  -26.9426   22.5377 C   0  0  0  0  0  0
  -19.5778  -26.6399   21.5186 C   0  0  0  0  0  0
  -18.1957  -26.7932   22.1597 C   0  0  0  0  0  0
  -19.1553  -28.8840   23.2906 C   0  0  0  0  0  0
  -18.9477  -30.1445   23.8928 C   0  0  0  0  0  0
  -17.6479  -30.6585   24.0577 C   0  0  0  0  0  0
  -25.9027  -34.9485   23.5134 C   0  0  0  0  0  0
  -16.5370  -29.9091   23.6313 C   0  0  0  0  0  0
  -16.7291  -28.6504   23.0335 C   0  0  0  0  0  0
  -26.4516  -31.6581   25.0691 C   0  0  0  0  0  0
  -25.3819  -31.3636   26.1455 C   0  0  0  0  0  0
  -27.0320  -30.3050   24.5940 C   0  0  0  0  0  0
  -27.6098  -32.4271   25.7486 C   0  0  0  0  0  0
  -27.5583  -37.1825   24.8470 C   0  0  0  0  0  0
  -21.4148  -29.3076   22.3710 N   0  0  0  0  0  0
  -26.4297  -37.3799   23.9416 N   0  0  0  0  0  0
  -24.6662  -31.0856   22.0999 N   0  0  0  0  0  0
  -23.4188  -28.8248   23.3008 O   0  0  0  0  0  0
  -28.4113  -26.7775   20.0432 O   0  0  0  0  0  0
  -26.5546  -34.8940   22.4657 O   0  0  0  0  0  0
  -23.5364  -32.1467   23.7542 O   0  0  0  0  0  0
  -29.8833  -21.2195   20.1588 C   0  0  0  0  0  0
  -30.4041  -20.4480   19.0964 C   0  0  0  0  0  0
  -29.8632  -22.1102   17.5939 C   0  0  0  0  0  0
  -29.2946  -22.8656   18.6526 C   0  0  0  0  0  0
  -30.0124  -22.6457   16.1789 C   0  0  0  0  0  0
  -31.0478  -19.0989   19.3321 C   0  0  0  0  0  0
  -28.6692  -24.2284   18.4485 C   0  0  0  0  0  0
  -30.1179  -18.0552   19.9831 C   0  0  0  0  0  0
  -29.6941  -25.3609   18.5784 C   0  0  0  0  0  0
  -30.4799  -16.6556   19.4724 C   0  0  0  0  0  0
  -29.0235  -26.7261   18.7586 C   0  0  0  0  0  0
  -29.3183  -22.4275   19.9360 N   0  0  0  0  0  0
  -30.3917  -20.8860   17.8148 N   0  0  0  0  0  0
  -29.9870  -15.5392   20.2946 N   0  0  0  0  0  0
  -31.4493  -12.3328   19.1353 H   0  0  0  0  0  0
  -30.2799  -11.2624   19.8553 H   0  0  0  0  0  0
  -29.7197  -11.7248   17.4423 H   0  0  0  0  0  0
  -29.6660  -13.4419   17.7629 H   0  0  0  0  0  0
  -27.7984  -11.2949   18.8207 H   0  0  0  0  0  0
  -27.3616  -12.6205   17.7758 H   0  0  0  0  0  0
  -27.6747  -14.2426   19.5260 H   0  0  0  0  0  0
  -28.6394  -12.0296   21.3952 H   0  0  0  0  0  0
  -28.4779  -13.7234   21.8121 H   0  0  0  0  0  0
  -25.2719   -9.5728   22.4765 H   0  0  0  0  0  0
  -24.0022   -7.4618   22.7436 H   0  0  0  0  0  0
  -21.0851   -8.8734   19.8895 H   0  0  0  0  0  0
  -22.3635  -10.9688   19.6146 H   0  0  0  0  0  0
  -21.1957   -7.6129   23.9712 H   0  0  0  0  0  0
  -21.1507   -6.0489   25.9075 H   0  0  0  0  0  0
  -22.0602   -2.7605   23.2795 H   0  0  0  0  0  0
  -22.4031  -11.9858   22.4784 H   0  0  0  0  0  0
  -21.1093  -13.1273   22.2579 H   0  0  0  0  0  0
  -24.6805  -15.8601   20.5045 H   0  0  0  0  0  0
  -26.2941  -15.6118   20.0746 H   0  0  0  0  0  0
  -26.7133  -32.5571   23.1181 H   0  0  0  0  0  0
  -25.0238  -33.9797   25.0600 H   0  0  0  0  0  0
  -22.6947  -31.3203   21.4113 H   0  0  0  0  0  0
  -23.3756  -35.9659   23.3286 H   0  0  0  0  0  0
  -24.3618  -36.8927   22.2048 H   0  0  0  0  0  0
  -23.7247  -37.6541   23.6623 H   0  0  0  0  0  0
  -26.0093  -31.6139   20.5757 H   0  0  0  0  0  0
  -26.8239  -30.9237   21.9477 H   0  0  0  0  0  0
  -28.0980  -29.1412   21.1511 H   0  0  0  0  0  0
  -26.0801  -25.9850   19.0163 H   0  0  0  0  0  0
  -23.9718  -27.2864   19.0632 H   0  0  0  0  0  0
  -23.7308  -30.6114   19.4103 H   0  0  0  0  0  0
  -22.7287  -29.2625   19.8556 H   0  0  0  0  0  0
  -25.1265  -36.1992   25.0843 H   0  0  0  0  0  0
  -21.0028  -28.3237   24.1400 H   0  0  0  0  0  0
  -20.5721  -26.2293   23.3563 H   0  0  0  0  0  0
  -21.6672  -26.7471   22.1162 H   0  0  0  0  0  0
  -19.6949  -25.6311   21.1213 H   0  0  0  0  0  0
  -19.6724  -27.3208   20.6717 H   0  0  0  0  0  0
  -17.4242  -26.6713   21.3987 H   0  0  0  0  0  0
  -18.0355  -26.0043   22.8959 H   0  0  0  0  0  0
  -19.7967  -30.7252   24.2306 H   0  0  0  0  0  0
  -17.5043  -31.6270   24.5177 H   0  0  0  0  0  0
  -15.5371  -30.3007   23.7622 H   0  0  0  0  0  0
  -15.8696  -28.0836   22.7015 H   0  0  0  0  0  0
  -24.6010  -30.6956   25.7805 H   0  0  0  0  0  0
  -24.9005  -32.2771   26.4949 H   0  0  0  0  0  0
  -25.8234  -30.8799   27.0176 H   0  0  0  0  0  0
  -26.2787  -29.6806   24.1115 H   0  0  0  0  0  0
  -27.4304  -29.7264   25.4285 H   0  0  0  0  0  0
  -27.8527  -30.4432   23.8896 H   0  0  0  0  0  0
  -27.2718  -33.3560   26.2100 H   0  0  0  0  0  0
  -28.3931  -32.6837   25.0337 H   0  0  0  0  0  0
  -28.0733  -31.8353   26.5395 H   0  0  0  0  0  0
  -28.2583  -38.0139   24.7504 H   0  0  0  0  0  0
  -28.1093  -36.2663   24.6288 H   0  0  0  0  0  0
  -27.2307  -37.1457   25.8877 H   0  0  0  0  0  0
  -20.9297  -29.8819   21.6956 H   0  0  0  0  0  0
  -26.0184  -38.2880   24.1408 H   0  0  0  0  0  0
  -29.9193  -20.8752   21.1837 H   0  0  0  0  0  0
  -30.7263  -23.4697   16.1853 H   0  0  0  0  0  0
  -29.0695  -23.0088   15.7698 H   0  0  0  0  0  0
  -30.4012  -21.8875   15.4960 H   0  0  0  0  0  0
  -31.9390  -19.2397   19.9445 H   0  0  0  0  0  0
  -31.4052  -18.7290   18.3669 H   0  0  0  0  0  0
  -27.8944  -24.3482   19.2045 H   0  0  0  0  0  0
  -28.1558  -24.2816   17.4889 H   0  0  0  0  0  0
  -29.0743  -18.2687   19.7425 H   0  0  0  0  0  0
  -30.2111  -18.1178   21.0680 H   0  0  0  0  0  0
  -30.3353  -25.3695   17.6970 H   0  0  0  0  0  0
  -30.3496  -25.1697   19.4301 H   0  0  0  0  0  0
  -31.5661  -16.6222   19.3636 H   0  0  0  0  0  0
  -30.0916  -16.5289   18.4593 H   0  0  0  0  0  0
  -28.3223  -26.9107   17.9421 H   0  0  0  0  0  0
  -29.7791  -27.5102   18.7073 H   0  0  0  0  0  0
  -28.9882  -15.4393   20.3979 H   0  0  0  0  0  0
  1 25  1  0  0  0
  1 30  2  0  0  0
  1 84  1  0  0  0
  2  3  1  0  0  0
  2 25  1  0  0  0
  2 85  1  0  0  0
  2 86  1  0  0  0
  3  4  1  0  0  0
  3 87  1  0  0  0
  3 88  1  0  0  0
  4  5  1  0  0  0
  4 89  1  0  0  0
  4 90  1  0  0  0
  5  6  1  0  0  0
  5 26  1  0  0  0
  5 91  1  0  0  0
  6 25  1  0  0  0
  6 92  1  0  0  0
  6 93  1  0  0  0
  7  8  2  0  0  0
  7 26  1  0  0  0
  7 29  1  0  0  0
  8  9  1  0  0  0
  8 22  1  0  0  0
  9 10  1  0  0  0
  9 27  2  0  0  0
 10 11  2  0  0  0
 10 15  1  0  0  0
 11 12  1  0  0  0
 11 94  1  0  0  0
 12 13  2  0  0  0
 12 95  1  0  0  0
 13 14  1  0  0  0
 13 31  1  0  0  0
 14 15  2  0  0  0
 14 96  1  0  0  0
 15 97  1  0  0  0
 16 17  2  0  0  0
 16 21  1  0  0  0
 16 31  1  0  0  0
 17 18  1  0  0  0
 17 98  1  0  0  0
 18 19  2  0  0  0
 18 99  1  0  0  0
 19 20  1  0  0  0
 19 24  1  0  0  0
 20 21  2  0  0  0
 20100  1  0  0  0
 21 23  1  0  0  0
 22 28  1  0  0  0
 22 32  2  0  0  0
 26 27  1  0  0  0
 28101  1  0  0  0
 28102  1  0  0  0
 29103  1  0  0  0
 29104  1  0  0  0
 33 34  1  0  0  0
 33 66  1  0  0  0
 33 70  2  0  0  0
 34 36  1  0  0  0
 34 59  1  0  0  0
 34105  1  0  0  0
 35 44  2  0  0  0
 35 45  1  0  0  0
 35 68  1  0  0  0
 36 56  1  0  0  0
 36106  1  0  0  0
 37 39  1  0  0  0
 37 47  1  0  0  0
 37 66  1  0  0  0
 37107  1  0  0  0
 38 43  2  0  0  0
 38 46  1  0  0  0
 38 47  1  0  0  0
 39 64  1  0  0  0
 39 67  2  0  0  0
 40 52  1  0  0  0
 40 53  2  0  0  0
 40 58  1  0  0  0
 41108  1  0  0  0
 41109  1  0  0  0
 41110  1  0  0  0
 41 48  1  0  0  0
 42 43  1  0  0  0
 42 66  1  0  0  0
 42111  1  0  0  0
 42112  1  0  0  0
 43 44  1  0  0  0
 44113  1  0  0  0
 45 46  2  0  0  0
 45114  1  0  0  0
 46115  1  0  0  0
 47116  1  0  0  0
 47117  1  0  0  0
 48 56  1  0  0  0
 48 65  1  0  0  0
 48118  1  0  0  0
 49 50  1  0  0  0
 49 53  1  0  0  0
 49 64  1  0  0  0
 49119  1  0  0  0
 50 51  1  0  0  0
 50120  1  0  0  0
 50121  1  0  0  0
 51 52  1  0  0  0
 51122  1  0  0  0
 51123  1  0  0  0
 52124  1  0  0  0
 52125  1  0  0  0
 53 54  1  0  0  0
 54 55  2  0  0  0
 54126  1  0  0  0
 55 57  1  0  0  0
 55127  1  0  0  0
 56 69  2  0  0  0
 57 58  2  0  0  0
 57128  1  0  0  0
 58129  1  0  0  0
 59 60  1  0  0  0
 59 61  1  0  0  0
 59 62  1  0  0  0
 60130  1  0  0  0
 60131  1  0  0  0
 60132  1  0  0  0
 61133  1  0  0  0
 61134  1  0  0  0
 61135  1  0  0  0
 62136  1  0  0  0
 62137  1  0  0  0
 62138  1  0  0  0
 63 65  1  0  0  0
 63139  1  0  0  0
 63140  1  0  0  0
 63141  1  0  0  0
 64142  1  0  0  0
 65143  1  0  0  0
 68 81  1  0  0  0
 71 72  2  0  0  0
 71 82  1  0  0  0
 71144  1  0  0  0
 72 76  1  0  0  0
 72 83  1  0  0  0
 73 74  1  0  0  0
 73 75  1  0  0  0
 73 83  2  0  0  0
 74 77  1  0  0  0
 74 82  2  0  0  0
 75145  1  0  0  0
 75146  1  0  0  0
 75147  1  0  0  0
 76 78  1  0  0  0
 76148  1  0  0  0
 76149  1  0  0  0
 77 79  1  0  0  0
 77150  1  0  0  0
 77151  1  0  0  0
 78 80  1  0  0  0
 78152  1  0  0  0
 78153  1  0  0  0
 79 81  1  0  0  0
 79154  1  0  0  0
 79155  1  0  0  0
 80 84  1  0  0  0
 80156  1  0  0  0
 80157  1  0  0  0
 81158  1  0  0  0
 81159  1  0  0  0
 84160  1  0  0  0
M  ISO  4   1 100  68 101  81 101  84 100
M  END
> <chiral flag>
0

> <version>
0

> <s_m_source_file>
/data/baiqing/PycharmProjects/Reinvent-master-3.2/result/LINK_invent/BTK/process_docking_weight1_custom_sum_contain_oxygen_bond_distance_aromatic_linkinvent_7_9_3/rearranged_h_0043.sdf

> <i_m_source_file_index>
48

> <r_mmod_Potential_Energy-OPLS-2005>
-6.73362493515015

> <r_mmod_Stretch_Energy-OPLS-2005>
31.7879543304443

> <r_mmod_Bend_Energy-OPLS-2005>
89.9828872680664

> <r_mmod_Torsional_Energy-OPLS-2005>
247.689392089844

> <r_mmod_Improper_Torsional_Energy-OPLS-2005>
14.5306739807129

> <r_mmod_Van_der_Waal_Energy-OPLS-2005>
162.056015014648

> <r_mmod_Electrostatic_Energy-OPLS-2005>
-348.939697265625

> <r_mmod_Solvation_Energy-OPLS-2005>
-227.048599243164

> <b_mmod_Minimization_Converged-OPLS-2005>
0

> <r_mmod_RMS_Derivative-OPLS-2005>
3.96627616882324

$$$$
48
                    3D
 Structure written by MMmdl.
170178  0  0  1  0            999 V2000
  -30.8560  -14.2649   20.8007 C   0  0  0  0  0  0
  -30.4177  -12.3086   19.3686 C   0  0  0  0  0  0
  -29.4697  -12.5364   18.1832 C   0  0  0  0  0  0
  -28.0080  -12.3541   18.6231 C   0  0  0  0  0  0
  -27.6679  -13.1912   19.8790 C   0  0  2  0  0  0
  -28.7132  -12.9799   21.0039 C   0  0  0  0  0  0
  -25.2654  -13.8133   20.5703 C   0  0  0  0  0  0
  -24.1878  -13.0411   20.9182 C   0  0  0  0  0  0
  -24.6410  -11.6874   20.8727 C   0  0  0  0  0  0
  -23.9059  -10.4277   21.0398 C   0  0  0  0  0  0
  -24.3599   -9.4194   21.9193 C   0  0  0  0  0  0
  -23.6268   -8.2229   22.0751 C   0  0  0  0  0  0
  -22.4251   -8.0276   21.3533 C   0  0  0  0  0  0
  -21.9886   -9.0259   20.4645 C   0  0  0  0  0  0
  -22.7224  -10.2140   20.3050 C   0  0  0  0  0  0
  -21.6837   -6.0727   22.5263 C   0  0  0  0  0  0
  -21.4023   -6.5631   23.8205 C   0  0  0  0  0  0
  -21.3669   -5.6786   24.9173 C   0  0  0  0  0  0
  -21.6049   -4.3044   24.7215 C   0  0  0  0  0  0
  -21.8821   -3.8135   23.4329 C   0  0  0  0  0  0
  -21.9185   -4.6954   22.3387 C   0  0  0  0  0  0
  -22.7911  -13.5239   21.1826 C   0  0  0  0  0  0
  -22.1639   -4.2137   21.0960 F   0  0  0  0  0  0
  -21.5650   -3.4537   25.7734 F   0  0  0  0  0  0
  -30.0564  -13.2275   20.4548 N   0  0  0  0  0  0
  -26.3078  -12.9263   20.3416 N   0  0  0  0  0  0
  -25.9335  -11.6432   20.5780 N   0  0  0  0  0  0
  -22.0497  -12.8268   22.0373 N   0  0  0  0  0  0
  -25.4384  -15.1856   20.4174 N   0  0  0  0  0  0
  -31.7485  -14.6884   20.0584 O   0  0  0  0  0  0
  -21.6615   -6.8868   21.4224 O   0  0  0  0  0  0
  -22.3632  -14.5545   20.6659 O   0  0  0  0  0  0
  -24.6099  -31.8716   23.2119 C   0  0  0  0  0  0
  -25.9018  -32.4835   23.8399 C   0  0  1  0  0  0
  -27.2366  -27.4920   20.0825 C   0  0  0  0  0  0
  -25.5898  -33.8630   24.2328 N   0  0  0  0  0  0
  -23.3935  -30.4934   21.5536 C   0  0  2  0  0  0
  -24.8421  -28.9678   20.1116 C   0  0  0  0  0  0
  -22.7373  -29.4663   22.5033 C   0  0  0  0  0  0
  -18.0258  -28.1350   22.8502 C   0  0  0  0  0  0
  -24.1490  -36.7323   23.2639 C   0  0  0  0  0  0
  -25.9150  -30.8568   21.3525 C   0  0  0  0  0  0
  -25.9978  -29.4946   20.7024 C   0  0  0  0  0  0
  -27.2022  -28.7622   20.6898 C   0  0  0  0  0  0
  -26.0689  -26.9605   19.5019 C   0  0  0  0  0  0
  -24.8700  -27.6982   19.5066 C   0  0  0  0  0  0
  -23.5960  -29.8232   20.1679 C   0  0  0  0  0  0
  -25.4108  -36.3114   24.0336 C   0  0  1  0  0  0
  -20.5848  -28.3622   23.1345 C   0  0  2  0  0  0
  -20.6742  -26.9368   22.5420 C   0  0  0  0  0  0
  -19.5725  -26.6374   21.5207 C   0  0  0  0  0  0
  -18.1908  -26.7899   22.1623 C   0  0  0  0  0  0
  -19.1510  -28.8806   23.2916 C   0  0  0  0  0  0
  -18.9438  -30.1418   23.8915 C   0  0  0  0  0  0
  -17.6444  -30.6572   24.0558 C   0  0  0  0  0  0
  -25.9032  -34.9479   23.5122 C   0  0  0  0  0  0
  -16.5333  -29.9073   23.6323 C   0  0  0  0  0  0
  -16.7247  -28.6480   23.0359 C   0  0  0  0  0  0
  -26.4484  -31.6593   25.0695 C   0  0  0  0  0  0
  -25.3779  -31.3672   26.1461 C   0  0  0  0  0  0
  -27.0316  -30.3052   24.6007 C   0  0  0  0  0  0
  -27.6069  -32.4306   25.7452 C   0  0  0  0  0  0
  -27.5569  -37.1815   24.8471 C   0  0  0  0  0  0
  -21.4107  -29.3010   22.3772 N   0  0  0  0  0  0
  -26.4298  -37.3789   23.9399 N   0  0  0  0  0  0
  -24.6580  -31.0868   22.0987 N   0  0  0  0  0  0
  -23.4170  -28.8211   23.3062 O   0  0  0  0  0  0
  -28.3700  -26.7334   20.0878 O   0  0  0  0  0  0
  -26.5588  -34.8927   22.4679 O   0  0  0  0  0  0
  -23.5319  -32.1437   23.7570 O   0  0  0  0  0  0
  -31.0021  -25.2156   19.5910 C   0  0  0  0  0  0
  -30.0741  -25.8205   18.7143 C   0  0  0  0  0  0
  -30.0809  -23.9366   17.3888 C   0  0  0  0  0  0
  -30.9411  -23.2976   18.3214 C   0  0  0  0  0  0
  -29.5266  -23.2215   16.1685 C   0  0  0  0  0  0
  -31.1607  -21.7988   18.3063 C   0  0  0  0  0  0
  -29.3546  -27.0864   19.1271 C   0  0  0  0  0  0
  -30.8478  -14.7496   22.2657 C   0  0  0  0  0  0
  -30.0112  -21.1238   19.0733 C   0  0  0  0  0  0
  -30.1763  -16.1063   22.6147 C   0  0  0  0  0  0
  -29.9925  -19.5998   18.9585 C   0  0  0  0  0  0
  -29.9833  -17.1261   21.4795 C   0  0  0  0  0  0
  -28.6141  -19.0435   19.3467 C   0  0  0  0  0  0
  -28.6384  -16.9157   20.7710 C   0  0  0  0  0  0
  -28.5506  -17.5126   19.3629 C   0  0  0  0  0  0
  -31.4337  -23.9477   19.4023 N   0  0  0  0  0  0
  -29.6462  -25.2033   17.5846 N   0  0  0  0  0  0
  -31.4536  -12.4325   19.0431 H   0  0  0  0  0  0
  -30.3446  -11.2813   19.7327 H   0  0  0  0  0  0
  -29.7081  -11.8416   17.3780 H   0  0  0  0  0  0
  -29.6108  -13.5406   17.7795 H   0  0  0  0  0  0
  -27.8456  -11.2948   18.8229 H   0  0  0  0  0  0
  -27.3348  -12.6178   17.8066 H   0  0  0  0  0  0
  -27.7039  -14.2275   19.5535 H   0  0  0  0  0  0
  -28.6615  -11.9623   21.3932 H   0  0  0  0  0  0
  -28.4781  -13.6444   21.8378 H   0  0  0  0  0  0
  -25.2737   -9.5670   22.4792 H   0  0  0  0  0  0
  -23.9963   -7.4631   22.7484 H   0  0  0  0  0  0
  -21.0802   -8.8782   19.8973 H   0  0  0  0  0  0
  -22.3665  -10.9689   19.6167 H   0  0  0  0  0  0
  -21.2009   -7.6139   23.9698 H   0  0  0  0  0  0
  -21.1500   -6.0521   25.9078 H   0  0  0  0  0  0
  -22.0594   -2.7592   23.2826 H   0  0  0  0  0  0
  -22.4045  -11.9914   22.4791 H   0  0  0  0  0  0
  -21.1140  -13.1383   22.2570 H   0  0  0  0  0  0
  -24.6811  -15.8485   20.5415 H   0  0  0  0  0  0
  -26.3097  -15.6269   20.1528 H   0  0  0  0  0  0
  -26.7083  -32.5578   23.1172 H   0  0  0  0  0  0
  -25.0069  -33.9794   25.0489 H   0  0  0  0  0  0
  -22.6778  -31.3074   21.4187 H   0  0  0  0  0  0
  -23.3726  -35.9688   23.3349 H   0  0  0  0  0  0
  -24.3569  -36.8886   22.2041 H   0  0  0  0  0  0
  -23.7278  -37.6559   23.6621 H   0  0  0  0  0  0
  -26.0086  -31.6235   20.5828 H   0  0  0  0  0  0
  -26.8090  -30.9198   21.9592 H   0  0  0  0  0  0
  -28.0957  -29.1619   21.1475 H   0  0  0  0  0  0
  -26.0914  -25.9798   19.0485 H   0  0  0  0  0  0
  -23.9810  -27.2845   19.0497 H   0  0  0  0  0  0
  -23.6853  -30.5966   19.4036 H   0  0  0  0  0  0
  -22.7238  -29.2316   19.8839 H   0  0  0  0  0  0
  -25.1288  -36.1982   25.0832 H   0  0  0  0  0  0
  -20.9924  -28.3171   24.1470 H   0  0  0  0  0  0
  -20.5636  -26.2227   23.3595 H   0  0  0  0  0  0
  -21.6616  -26.7419   22.1220 H   0  0  0  0  0  0
  -19.6887  -25.6296   21.1211 H   0  0  0  0  0  0
  -19.6667  -27.3204   20.6756 H   0  0  0  0  0  0
  -17.4175  -26.6652   21.4026 H   0  0  0  0  0  0
  -18.0310  -26.0032   22.9009 H   0  0  0  0  0  0
  -19.7923  -30.7228   24.2290 H   0  0  0  0  0  0
  -17.5005  -31.6260   24.5146 H   0  0  0  0  0  0
  -15.5332  -30.2980   23.7643 H   0  0  0  0  0  0
  -15.8642  -28.0800   22.7080 H   0  0  0  0  0  0
  -24.5936  -30.7036   25.7785 H   0  0  0  0  0  0
  -24.9005  -32.2837   26.4949 H   0  0  0  0  0  0
  -25.8172  -30.8800   27.0177 H   0  0  0  0  0  0
  -26.2818  -29.6769   24.1176 H   0  0  0  0  0  0
  -27.4249  -29.7318   25.4410 H   0  0  0  0  0  0
  -27.8580  -30.4391   23.9016 H   0  0  0  0  0  0
  -27.2674  -33.3571   26.2096 H   0  0  0  0  0  0
  -28.3850  -32.6919   25.0262 H   0  0  0  0  0  0
  -28.0776  -31.8390   26.5315 H   0  0  0  0  0  0
  -28.2630  -38.0067   24.7468 H   0  0  0  0  0  0
  -28.1023  -36.2599   24.6374 H   0  0  0  0  0  0
  -27.2279  -37.1556   25.8874 H   0  0  0  0  0  0
  -20.9249  -29.8745   21.7021 H   0  0  0  0  0  0
  -26.0191  -38.2877   24.1375 H   0  0  0  0  0  0
  -31.3190  -25.7089   20.4979 H   0  0  0  0  0  0
  -30.3132  -23.0796   15.4269 H   0  0  0  0  0  0
  -28.7187  -23.7874   15.7052 H   0  0  0  0  0  0
  -29.1296  -22.2414   16.4307 H   0  0  0  0  0  0
  -32.1202  -21.5473   18.7572 H   0  0  0  0  0  0
  -31.2029  -21.4393   17.2782 H   0  0  0  0  0  0
  -28.9166  -27.5699   18.2517 H   0  0  0  0  0  0
  -30.0610  -27.7874   19.5750 H   0  0  0  0  0  0
  -30.4652  -13.9652   22.9186 H   0  0  0  0  0  0
  -31.8987  -14.8304   22.5497 H   0  0  0  0  0  0
  -29.0647  -21.5102   18.6933 H   0  0  0  0  0  0
  -30.0418  -21.4178   20.1238 H   0  0  0  0  0  0
  -30.7870  -16.5799   23.3855 H   0  0  0  0  0  0
  -29.2149  -15.9250   23.0971 H   0  0  0  0  0  0
  -30.7823  -19.1811   19.5829 H   0  0  0  0  0  0
  -30.2155  -19.3026   17.9328 H   0  0  0  0  0  0
  -30.8191  -17.0856   20.7802 H   0  0  0  0  0  0
  -30.0020  -18.1357   21.8936 H   0  0  0  0  0  0
  -27.8837  -19.4099   18.6229 H   0  0  0  0  0  0
  -28.2950  -19.4391   20.3125 H   0  0  0  0  0  0
  -27.8278  -17.3009   21.3945 H   0  0  0  0  0  0
  -28.4541  -15.8510   20.6921 H   0  0  0  0  0  0
  -29.3151  -17.0825   18.7136 H   0  0  0  0  0  0
  -27.5969  -17.2046   18.9343 H   0  0  0  0  0  0
  1 25  1  0  0  0
  1 30  2  0  0  0
  1 78  1  0  0  0
  2  3  1  0  0  0
  2 25  1  0  0  0
  2 88  1  0  0  0
  2 89  1  0  0  0
  3  4  1  0  0  0
  3 90  1  0  0  0
  3 91  1  0  0  0
  4  5  1  0  0  0
  4 92  1  0  0  0
  4 93  1  0  0  0
  5  6  1  0  0  0
  5 26  1  0  0  0
  5 94  1  0  0  0
  6 25  1  0  0  0
  6 95  1  0  0  0
  6 96  1  0  0  0
  7  8  2  0  0  0
  7 26  1  0  0  0
  7 29  1  0  0  0
  8  9  1  0  0  0
  8 22  1  0  0  0
  9 10  1  0  0  0
  9 27  2  0  0  0
 10 11  2  0  0  0
 10 15  1  0  0  0
 11 12  1  0  0  0
 11 97  1  0  0  0
 12 13  2  0  0  0
 12 98  1  0  0  0
 13 14  1  0  0  0
 13 31  1  0  0  0
 14 15  2  0  0  0
 14 99  1  0  0  0
 15100  1  0  0  0
 16 17  2  0  0  0
 16 21  1  0  0  0
 16 31  1  0  0  0
 17 18  1  0  0  0
 17101  1  0  0  0
 18 19  2  0  0  0
 18102  1  0  0  0
 19 20  1  0  0  0
 19 24  1  0  0  0
 20 21  2  0  0  0
 20103  1  0  0  0
 21 23  1  0  0  0
 22 28  1  0  0  0
 22 32  2  0  0  0
 26 27  1  0  0  0
 28104  1  0  0  0
 28105  1  0  0  0
 29106  1  0  0  0
 29107  1  0  0  0
 33 34  1  0  0  0
 33 66  1  0  0  0
 33 70  2  0  0  0
 34 36  1  0  0  0
 34 59  1  0  0  0
 34108  1  0  0  0
 35 44  2  0  0  0
 35 45  1  0  0  0
 35 68  1  0  0  0
 36 56  1  0  0  0
 36109  1  0  0  0
 37 39  1  0  0  0
 37 47  1  0  0  0
 37 66  1  0  0  0
 37110  1  0  0  0
 38 43  2  0  0  0
 38 46  1  0  0  0
 38 47  1  0  0  0
 39 64  1  0  0  0
 39 67  2  0  0  0
 40 52  1  0  0  0
 40 53  2  0  0  0
 40 58  1  0  0  0
 41111  1  0  0  0
 41112  1  0  0  0
 41113  1  0  0  0
 41 48  1  0  0  0
 42 43  1  0  0  0
 42 66  1  0  0  0
 42114  1  0  0  0
 42115  1  0  0  0
 43 44  1  0  0  0
 44116  1  0  0  0
 45 46  2  0  0  0
 45117  1  0  0  0
 46118  1  0  0  0
 47119  1  0  0  0
 47120  1  0  0  0
 48 56  1  0  0  0
 48 65  1  0  0  0
 48121  1  0  0  0
 49 50  1  0  0  0
 49 53  1  0  0  0
 49 64  1  0  0  0
 49122  1  0  0  0
 50 51  1  0  0  0
 50123  1  0  0  0
 50124  1  0  0  0
 51 52  1  0  0  0
 51125  1  0  0  0
 51126  1  0  0  0
 52127  1  0  0  0
 52128  1  0  0  0
 53 54  1  0  0  0
 54 55  2  0  0  0
 54129  1  0  0  0
 55 57  1  0  0  0
 55130  1  0  0  0
 56 69  2  0  0  0
 57 58  2  0  0  0
 57131  1  0  0  0
 58132  1  0  0  0
 59 60  1  0  0  0
 59 61  1  0  0  0
 59 62  1  0  0  0
 60133  1  0  0  0
 60134  1  0  0  0
 60135  1  0  0  0
 61136  1  0  0  0
 61137  1  0  0  0
 61138  1  0  0  0
 62139  1  0  0  0
 62140  1  0  0  0
 62141  1  0  0  0
 63 65  1  0  0  0
 63142  1  0  0  0
 63143  1  0  0  0
 63144  1  0  0  0
 64145  1  0  0  0
 65146  1  0  0  0
 68 77  1  0  0  0
 71 72  2  0  0  0
 71 86  1  0  0  0
 71147  1  0  0  0
 72 77  1  0  0  0
 72 87  1  0  0  0
 73 74  1  0  0  0
 73 75  1  0  0  0
 73 87  2  0  0  0
 74 76  1  0  0  0
 74 86  2  0  0  0
 75148  1  0  0  0
 75149  1  0  0  0
 75150  1  0  0  0
 76 79  1  0  0  0
 76151  1  0  0  0
 76152  1  0  0  0
 77153  1  0  0  0
 77154  1  0  0  0
 78 80  1  0  0  0
 78155  1  0  0  0
 78156  1  0  0  0
 79 81  1  0  0  0
 79157  1  0  0  0
 79158  1  0  0  0
 80 82  1  0  0  0
 80159  1  0  0  0
 80160  1  0  0  0
 81 83  1  0  0  0
 81161  1  0  0  0
 81162  1  0  0  0
 82 84  1  0  0  0
 82163  1  0  0  0
 82164  1  0  0  0
 83 85  1  0  0  0
 83165  1  0  0  0
 83166  1  0  0  0
 84 85  1  0  0  0
 84167  1  0  0  0
 84168  1  0  0  0
 85169  1  0  0  0
 85170  1  0  0  0
M  ISO  4   1 100  68 101  77 101  78 100
M  END
> <chiral flag>
0

> <version>
0

> <s_m_source_file>
/data/baiqing/PycharmProjects/Reinvent-master-3.2/result/LINK_invent/BTK/process_docking_weight1_custom_sum_contain_oxygen_bond_distance_aromatic_linkinvent_7_9_3/rearranged_h_0043.sdf

> <i_m_source_file_index>
49

> <r_mmod_Potential_Energy-OPLS-2005>
100.329299926758

> <r_mmod_Stretch_Energy-OPLS-2005>
32.2248153686523

> <r_mmod_Bend_Energy-OPLS-2005>
98.9157028198242

> <r_mmod_Torsional_Energy-OPLS-2005>
241.552688598633

> <r_mmod_Improper_Torsional_Energy-OPLS-2005>
7.34292650222778

> <r_mmod_Van_der_Waal_Energy-OPLS-2005>
144.441940307617

> <r_mmod_Electrostatic_Energy-OPLS-2005>
-240.63688659668

> <r_mmod_Solvation_Energy-OPLS-2005>
-194.087768554688

> <b_mmod_Minimization_Converged-OPLS-2005>
0

> <r_mmod_RMS_Derivative-OPLS-2005>
2.98965907096863

$$$$
49
                    3D
 Structure written by MMmdl.
159167  0  0  1  0            999 V2000
  -30.6821  -14.4355   20.6151 C   0  0  0  0  0  0
  -30.4282  -12.2969   19.4030 C   0  0  0  0  0  0
  -29.4917  -12.5141   18.1963 C   0  0  0  0  0  0
  -28.0116  -12.3726   18.6097 C   0  0  0  0  0  0
  -27.6661  -13.1930   19.8811 C   0  0  2  0  0  0
  -28.7041  -12.9271   20.9937 C   0  0  0  0  0  0
  -25.2608  -13.8122   20.5626 C   0  0  0  0  0  0
  -24.1849  -13.0415   20.9140 C   0  0  0  0  0  0
  -24.6393  -11.6886   20.8738 C   0  0  0  0  0  0
  -23.9053  -10.4286   21.0428 C   0  0  0  0  0  0
  -24.3623   -9.4212   21.9206 C   0  0  0  0  0  0
  -23.6296   -8.2252   22.0787 C   0  0  0  0  0  0
  -22.4283   -8.0286   21.3565 C   0  0  0  0  0  0
  -21.9904   -9.0270   20.4682 C   0  0  0  0  0  0
  -22.7227  -10.2148   20.3083 C   0  0  0  0  0  0
  -21.6862   -6.0739   22.5292 C   0  0  0  0  0  0
  -21.4011   -6.5648   23.8215 C   0  0  0  0  0  0
  -21.3653   -5.6809   24.9183 C   0  0  0  0  0  0
  -21.6037   -4.3067   24.7241 C   0  0  0  0  0  0
  -21.8810   -3.8155   23.4358 C   0  0  0  0  0  0
  -21.9187   -4.6964   22.3414 C   0  0  0  0  0  0
  -22.7886  -13.5261   21.1823 C   0  0  0  0  0  0
  -22.1653   -4.2133   21.0995 F   0  0  0  0  0  0
  -21.5633   -3.4566   25.7758 F   0  0  0  0  0  0
  -30.0391  -13.2510   20.4520 N   0  0  0  0  0  0
  -26.3047  -12.9277   20.3392 N   0  0  0  0  0  0
  -25.9318  -11.6448   20.5789 N   0  0  0  0  0  0
  -22.0533  -12.8278   22.0391 N   0  0  0  0  0  0
  -25.4310  -15.1840   20.3993 N   0  0  0  0  0  0
  -31.7773  -14.6953   20.1056 O   0  0  0  0  0  0
  -21.6646   -6.8891   21.4257 O   0  0  0  0  0  0
  -22.3589  -14.5576   20.6670 O   0  0  0  0  0  0
  -24.6124  -31.8680   23.2104 C   0  0  0  0  0  0
  -25.9014  -32.4815   23.8401 C   0  0  1  0  0  0
  -27.2435  -27.4731   20.0836 C   0  0  0  0  0  0
  -25.5864  -33.8613   24.2329 N   0  0  0  0  0  0
  -23.3983  -30.4923   21.5490 C   0  0  2  0  0  0
  -24.8474  -28.9588   20.1159 C   0  0  0  0  0  0
  -22.7370  -29.4667   22.4976 C   0  0  0  0  0  0
  -18.0262  -28.1411   22.8489 C   0  0  0  0  0  0
  -24.1483  -36.7344   23.2631 C   0  0  0  0  0  0
  -25.9250  -30.8439   21.3614 C   0  0  0  0  0  0
  -26.0035  -29.4806   20.7107 C   0  0  0  0  0  0
  -27.2067  -28.7445   20.6931 C   0  0  0  0  0  0
  -26.0765  -26.9550   19.4864 C   0  0  0  0  0  0
  -24.8773  -27.6932   19.5017 C   0  0  0  0  0  0
  -23.6070  -29.8210   20.1650 C   0  0  0  0  0  0
  -25.4104  -36.3126   24.0339 C   0  0  1  0  0  0
  -20.5846  -28.3708   23.1369 C   0  0  2  0  0  0
  -20.6740  -26.9420   22.5586 C   0  0  0  0  0  0
  -19.5790  -26.6339   21.5300 C   0  0  0  0  0  0
  -18.1938  -26.7938   22.1662 C   0  0  0  0  0  0
  -19.1499  -28.8896   23.2880 C   0  0  0  0  0  0
  -18.9424  -30.1531   23.8832 C   0  0  0  0  0  0
  -17.6428  -30.6665   24.0486 C   0  0  0  0  0  0
  -25.9037  -34.9477   23.5154 C   0  0  0  0  0  0
  -16.5325  -29.9116   23.6310 C   0  0  0  0  0  0
  -16.7250  -28.6516   23.0364 C   0  0  0  0  0  0
  -26.4454  -31.6572   25.0708 C   0  0  0  0  0  0
  -25.3735  -31.3686   26.1465 C   0  0  0  0  0  0
  -27.0263  -30.3005   24.6058 C   0  0  0  0  0  0
  -27.6044  -32.4265   25.7462 C   0  0  0  0  0  0
  -27.5586  -37.1820   24.8458 C   0  0  0  0  0  0
  -21.4104  -29.3035   22.3718 N   0  0  0  0  0  0
  -26.4297  -37.3805   23.9402 N   0  0  0  0  0  0
  -24.6635  -31.0817   22.0989 N   0  0  0  0  0  0
  -23.4147  -28.8203   23.2997 O   0  0  0  0  0  0
  -28.4061  -26.7465   20.0504 O   0  0  0  0  0  0
  -26.5602  -34.8925   22.4727 O   0  0  0  0  0  0
  -23.5325  -32.1405   23.7514 O   0  0  0  0  0  0
  -26.6636  -20.2570   21.2601 C   0  0  0  0  0  0
  -27.8791  -19.9885   21.9460 C   0  0  0  0  0  0
  -26.6036  -21.6195   21.1725 C   0  0  0  0  0  0
  -25.4963  -22.4778   20.6501 C   0  0  0  0  0  0
  -28.3588  -18.6575   22.4929 C   0  0  0  0  0  0
  -28.9383  -17.6539   21.4365 C   0  0  0  0  0  0
  -28.2051  -24.4273   20.7864 C   0  0  0  0  0  0
  -28.1757  -23.4915   22.0125 C   0  0  0  0  0  0
  -30.2452  -16.7835   21.4845 C   0  0  0  0  0  0
  -28.5771  -25.8721   21.1645 C   0  0  0  0  0  0
  -28.5646  -21.1028   22.1714 N   0  0  0  0  0  0
  -27.7775  -22.1132   21.7258 N   0  0  0  0  0  0
  -29.9683  -15.3507   21.2898 N   0  0  0  0  0  0
  -31.4707  -12.4162   19.1012 H   0  0  0  0  0  0
  -30.3460  -11.2733   19.7772 H   0  0  0  0  0  0
  -29.7284  -11.8069   17.4001 H   0  0  0  0  0  0
  -29.6596  -13.5077   17.7775 H   0  0  0  0  0  0
  -27.8121  -11.3158   18.7900 H   0  0  0  0  0  0
  -27.3620  -12.6652   17.7841 H   0  0  0  0  0  0
  -27.7248  -14.2467   19.6095 H   0  0  0  0  0  0
  -28.6801  -11.8760   21.2855 H   0  0  0  0  0  0
  -28.4577  -13.4724   21.9060 H   0  0  0  0  0  0
  -25.2762   -9.5686   22.4784 H   0  0  0  0  0  0
  -23.9990   -7.4653   22.7517 H   0  0  0  0  0  0
  -21.0821   -8.8802   19.9009 H   0  0  0  0  0  0
  -22.3681  -10.9707   19.6208 H   0  0  0  0  0  0
  -21.2004   -7.6158   23.9704 H   0  0  0  0  0  0
  -21.1483   -6.0558   25.9082 H   0  0  0  0  0  0
  -22.0587   -2.7614   23.2882 H   0  0  0  0  0  0
  -22.4139  -11.9914   22.4740 H   0  0  0  0  0  0
  -21.1191  -13.1380   22.2663 H   0  0  0  0  0  0
  -24.6592  -15.8337   20.5049 H   0  0  0  0  0  0
  -26.2749  -15.6264   20.0587 H   0  0  0  0  0  0
  -26.7092  -32.5532   23.1176 H   0  0  0  0  0  0
  -24.9939  -33.9779   25.0413 H   0  0  0  0  0  0
  -22.6866  -31.3100   21.4095 H   0  0  0  0  0  0
  -23.3730  -35.9694   23.3312 H   0  0  0  0  0  0
  -24.3590  -36.8940   22.2046 H   0  0  0  0  0  0
  -23.7252  -37.6561   23.6636 H   0  0  0  0  0  0
  -26.0310  -31.6117   20.5940 H   0  0  0  0  0  0
  -26.8176  -30.8989   21.9732 H   0  0  0  0  0  0
  -28.1038  -29.1515   21.1383 H   0  0  0  0  0  0
  -26.0991  -25.9889   19.0030 H   0  0  0  0  0  0
  -23.9921  -27.2871   19.0322 H   0  0  0  0  0  0
  -23.7076  -30.5952   19.4034 H   0  0  0  0  0  0
  -22.7338  -29.2362   19.8727 H   0  0  0  0  0  0
  -25.1284  -36.2009   25.0832 H   0  0  0  0  0  0
  -20.9899  -28.3386   24.1503 H   0  0  0  0  0  0
  -20.5494  -26.2408   23.3855 H   0  0  0  0  0  0
  -21.6674  -26.7363   22.1544 H   0  0  0  0  0  0
  -19.6978  -25.6208   21.1437 H   0  0  0  0  0  0
  -19.6773  -27.3073   20.6762 H   0  0  0  0  0  0
  -17.4198  -26.6602   21.4092 H   0  0  0  0  0  0
  -18.0336  -26.0131   22.9125 H   0  0  0  0  0  0
  -19.7882  -30.7385   24.2162 H   0  0  0  0  0  0
  -17.4984  -31.6379   24.5016 H   0  0  0  0  0  0
  -15.5328  -30.3004   23.7674 H   0  0  0  0  0  0
  -15.8632  -28.0796   22.7160 H   0  0  0  0  0  0
  -24.5906  -30.7015   25.7833 H   0  0  0  0  0  0
  -24.8924  -32.2840   26.4908 H   0  0  0  0  0  0
  -25.8113  -30.8866   27.0209 H   0  0  0  0  0  0
  -26.2801  -29.6767   24.1105 H   0  0  0  0  0  0
  -27.4029  -29.7221   25.4505 H   0  0  0  0  0  0
  -27.8636  -30.4327   23.9201 H   0  0  0  0  0  0
  -27.2680  -33.3551   26.2089 H   0  0  0  0  0  0
  -28.3833  -32.6834   25.0269 H   0  0  0  0  0  0
  -28.0707  -31.8323   26.5325 H   0  0  0  0  0  0
  -28.2623  -38.0097   24.7503 H   0  0  0  0  0  0
  -28.1068  -36.2640   24.6302 H   0  0  0  0  0  0
  -27.2302  -37.1488   25.8856 H   0  0  0  0  0  0
  -20.9242  -29.8757   21.6955 H   0  0  0  0  0  0
  -26.0199  -38.2892   24.1379 H   0  0  0  0  0  0
  -25.9050  -19.5525   20.9481 H   0  0  0  0  0  0
  -25.7214  -22.8295   19.6438 H   0  0  0  0  0  0
  -25.3202  -23.3410   21.2924 H   0  0  0  0  0  0
  -24.5622  -21.9191   20.5980 H   0  0  0  0  0  0
  -27.4897  -18.2347   23.0124 H   0  0  0  0  0  0
  -29.0864  -18.8272   23.2915 H   0  0  0  0  0  0
  -28.6807  -16.9736   22.2469 H   0  0  0  0  0  0
  -29.6528  -18.4663   21.2989 H   0  0  0  0  0  0
  -27.2309  -24.4432   20.3073 H   0  0  0  0  0  0
  -28.9084  -24.0501   20.0457 H   0  0  0  0  0  0
  -27.4812  -23.8873   22.7538 H   0  0  0  0  0  0
  -29.1574  -23.4861   22.4888 H   0  0  0  0  0  0
  -30.7702  -16.9090   22.4368 H   0  0  0  0  0  0
  -30.9509  -17.0942   20.7083 H   0  0  0  0  0  0
  -27.9852  -26.2021   22.0219 H   0  0  0  0  0  0
  -29.6204  -25.9161   21.4787 H   0  0  0  0  0  0
  -29.0942  -15.0055   21.6606 H   0  0  0  0  0  0
  1 25  1  0  0  0
  1 30  2  0  0  0
  1 83  1  0  0  0
  2  3  1  0  0  0
  2 25  1  0  0  0
  2 84  1  0  0  0
  2 85  1  0  0  0
  3  4  1  0  0  0
  3 86  1  0  0  0
  3 87  1  0  0  0
  4  5  1  0  0  0
  4 88  1  0  0  0
  4 89  1  0  0  0
  5  6  1  0  0  0
  5 26  1  0  0  0
  5 90  1  0  0  0
  6 25  1  0  0  0
  6 91  1  0  0  0
  6 92  1  0  0  0
  7  8  2  0  0  0
  7 26  1  0  0  0
  7 29  1  0  0  0
  8  9  1  0  0  0
  8 22  1  0  0  0
  9 10  1  0  0  0
  9 27  2  0  0  0
 10 11  2  0  0  0
 10 15  1  0  0  0
 11 12  1  0  0  0
 11 93  1  0  0  0
 12 13  2  0  0  0
 12 94  1  0  0  0
 13 14  1  0  0  0
 13 31  1  0  0  0
 14 15  2  0  0  0
 14 95  1  0  0  0
 15 96  1  0  0  0
 16 17  2  0  0  0
 16 21  1  0  0  0
 16 31  1  0  0  0
 17 18  1  0  0  0
 17 97  1  0  0  0
 18 19  2  0  0  0
 18 98  1  0  0  0
 19 20  1  0  0  0
 19 24  1  0  0  0
 20 21  2  0  0  0
 20 99  1  0  0  0
 21 23  1  0  0  0
 22 28  1  0  0  0
 22 32  2  0  0  0
 26 27  1  0  0  0
 28100  1  0  0  0
 28101  1  0  0  0
 29102  1  0  0  0
 29103  1  0  0  0
 33 34  1  0  0  0
 33 66  1  0  0  0
 33 70  2  0  0  0
 34 36  1  0  0  0
 34 59  1  0  0  0
 34104  1  0  0  0
 35 44  2  0  0  0
 35 45  1  0  0  0
 35 68  1  0  0  0
 36 56  1  0  0  0
 36105  1  0  0  0
 37 39  1  0  0  0
 37 47  1  0  0  0
 37 66  1  0  0  0
 37106  1  0  0  0
 38 43  2  0  0  0
 38 46  1  0  0  0
 38 47  1  0  0  0
 39 64  1  0  0  0
 39 67  2  0  0  0
 40 52  1  0  0  0
 40 53  2  0  0  0
 40 58  1  0  0  0
 41107  1  0  0  0
 41108  1  0  0  0
 41109  1  0  0  0
 41 48  1  0  0  0
 42 43  1  0  0  0
 42 66  1  0  0  0
 42110  1  0  0  0
 42111  1  0  0  0
 43 44  1  0  0  0
 44112  1  0  0  0
 45 46  2  0  0  0
 45113  1  0  0  0
 46114  1  0  0  0
 47115  1  0  0  0
 47116  1  0  0  0
 48 56  1  0  0  0
 48 65  1  0  0  0
 48117  1  0  0  0
 49 50  1  0  0  0
 49 53  1  0  0  0
 49 64  1  0  0  0
 49118  1  0  0  0
 50 51  1  0  0  0
 50119  1  0  0  0
 50120  1  0  0  0
 51 52  1  0  0  0
 51121  1  0  0  0
 51122  1  0  0  0
 52123  1  0  0  0
 52124  1  0  0  0
 53 54  1  0  0  0
 54 55  2  0  0  0
 54125  1  0  0  0
 55 57  1  0  0  0
 55126  1  0  0  0
 56 69  2  0  0  0
 57 58  2  0  0  0
 57127  1  0  0  0
 58128  1  0  0  0
 59 60  1  0  0  0
 59 61  1  0  0  0
 59 62  1  0  0  0
 60129  1  0  0  0
 60130  1  0  0  0
 60131  1  0  0  0
 61132  1  0  0  0
 61133  1  0  0  0
 61134  1  0  0  0
 62135  1  0  0  0
 62136  1  0  0  0
 62137  1  0  0  0
 63 65  1  0  0  0
 63138  1  0  0  0
 63139  1  0  0  0
 63140  1  0  0  0
 64141  1  0  0  0
 65142  1  0  0  0
 68 80  1  0  0  0
 71 72  1  0  0  0
 71 73  2  0  0  0
 71143  1  0  0  0
 72 75  1  0  0  0
 72 81  2  0  0  0
 73 74  1  0  0  0
 73 82  1  0  0  0
 74144  1  0  0  0
 74145  1  0  0  0
 74146  1  0  0  0
 75 76  1  0  0  0
 75147  1  0  0  0
 75148  1  0  0  0
 76 79  1  0  0  0
 76149  1  0  0  0
 76150  1  0  0  0
 77 78  1  0  0  0
 77 80  1  0  0  0
 77151  1  0  0  0
 77152  1  0  0  0
 78 82  1  0  0  0
 78153  1  0  0  0
 78154  1  0  0  0
 79 83  1  0  0  0
 79155  1  0  0  0
 79156  1  0  0  0
 80157  1  0  0  0
 80158  1  0  0  0
 81 82  1  0  0  0
 83159  1  0  0  0
M  ISO  4   1 100  68 101  80 101  83 100
M  END
> <chiral flag>
0

> <version>
0

> <s_m_source_file>
/data/baiqing/PycharmProjects/Reinvent-master-3.2/result/LINK_invent/BTK/process_docking_weight1_custom_sum_contain_oxygen_bond_distance_aromatic_linkinvent_7_9_3/rearranged_h_0043.sdf

> <i_m_source_file_index>
50

> <r_mmod_Potential_Energy-OPLS-2005>
98.7373199462891

> <r_mmod_Stretch_Energy-OPLS-2005>
35.1086082458496

> <r_mmod_Bend_Energy-OPLS-2005>
316.169097900391

> <r_mmod_Torsional_Energy-OPLS-2005>
238.478179931641

> <r_mmod_Improper_Torsional_Energy-OPLS-2005>
3.65088629722595

> <r_mmod_Van_der_Waal_Energy-OPLS-2005>
143.760116577148

> <r_mmod_Electrostatic_Energy-OPLS-2005>
-427.144134521484

> <r_mmod_Solvation_Energy-OPLS-2005>
-219.908187866211

> <b_mmod_Minimization_Converged-OPLS-2005>
0

> <r_mmod_RMS_Derivative-OPLS-2005>
3.01568627357483

$$$$
50
                    3D
 Structure written by MMmdl.
178186  0  0  1  0            999 V2000
  -30.7588  -14.3839   20.6588 C   0  0  0  0  0  0
  -30.4153  -12.2938   19.3940 C   0  0  0  0  0  0
  -29.4827  -12.5252   18.1903 C   0  0  0  0  0  0
  -28.0083  -12.3671   18.6078 C   0  0  0  0  0  0
  -27.6622  -13.1934   19.8735 C   0  0  2  0  0  0
  -28.7042  -12.9390   20.9882 C   0  0  0  0  0  0
  -25.2592  -13.8124   20.5657 C   0  0  0  0  0  0
  -24.1833  -13.0415   20.9161 C   0  0  0  0  0  0
  -24.6374  -11.6884   20.8720 C   0  0  0  0  0  0
  -23.9040  -10.4280   21.0397 C   0  0  0  0  0  0
  -24.3602   -9.4200   21.9178 C   0  0  0  0  0  0
  -23.6281   -8.2236   22.0754 C   0  0  0  0  0  0
  -22.4259   -8.0272   21.3545 C   0  0  0  0  0  0
  -21.9889   -9.0243   20.4648 C   0  0  0  0  0  0
  -22.7217  -10.2125   20.3053 C   0  0  0  0  0  0
  -21.6850   -6.0724   22.5280 C   0  0  0  0  0  0
  -21.4010   -6.5634   23.8211 C   0  0  0  0  0  0
  -21.3659   -5.6790   24.9175 C   0  0  0  0  0  0
  -21.6047   -4.3050   24.7229 C   0  0  0  0  0  0
  -21.8820   -3.8139   23.4350 C   0  0  0  0  0  0
  -21.9192   -4.6953   22.3407 C   0  0  0  0  0  0
  -22.7863  -13.5234   21.1832 C   0  0  0  0  0  0
  -22.1660   -4.2137   21.0983 F   0  0  0  0  0  0
  -21.5633   -3.4537   25.7743 F   0  0  0  0  0  0
  -30.0396  -13.2480   20.4479 N   0  0  0  0  0  0
  -26.3018  -12.9273   20.3352 N   0  0  0  0  0  0
  -25.9295  -11.6445   20.5742 N   0  0  0  0  0  0
  -22.0502  -12.8238   22.0397 N   0  0  0  0  0  0
  -25.4315  -15.1832   20.4070 N   0  0  0  0  0  0
  -31.8432  -14.5989   20.1045 O   0  0  0  0  0  0
  -21.6634   -6.8864   21.4239 O   0  0  0  0  0  0
  -22.3553  -14.5537   20.6679 O   0  0  0  0  0  0
  -24.6088  -31.8710   23.2124 C   0  0  0  0  0  0
  -25.9011  -32.4830   23.8403 C   0  0  1  0  0  0
  -27.2461  -27.4807   20.0829 C   0  0  0  0  0  0
  -25.5887  -33.8631   24.2338 N   0  0  0  0  0  0
  -23.3925  -30.4936   21.5536 C   0  0  2  0  0  0
  -24.8405  -28.9632   20.1185 C   0  0  0  0  0  0
  -22.7368  -29.4670   22.5031 C   0  0  0  0  0  0
  -18.0253  -28.1357   22.8495 C   0  0  0  0  0  0
  -24.1486  -36.7329   23.2611 C   0  0  0  0  0  0
  -25.9165  -30.8505   21.3574 C   0  0  0  0  0  0
  -25.9976  -29.4878   20.7073 C   0  0  0  0  0  0
  -27.2006  -28.7546   20.6836 C   0  0  0  0  0  0
  -26.0669  -26.9583   19.4968 C   0  0  0  0  0  0
  -24.8682  -27.6954   19.5134 C   0  0  0  0  0  0
  -23.5979  -29.8219   20.1689 C   0  0  0  0  0  0
  -25.4085  -36.3112   24.0334 C   0  0  1  0  0  0
  -20.5838  -28.3634   23.1342 C   0  0  2  0  0  0
  -20.6756  -26.9383   22.5414 C   0  0  0  0  0  0
  -19.5734  -26.6375   21.5207 C   0  0  0  0  0  0
  -18.1914  -26.7900   22.1630 C   0  0  0  0  0  0
  -19.1500  -28.8809   23.2912 C   0  0  0  0  0  0
  -18.9436  -30.1419   23.8914 C   0  0  0  0  0  0
  -17.6442  -30.6569   24.0557 C   0  0  0  0  0  0
  -25.9031  -34.9488   23.5133 C   0  0  0  0  0  0
  -16.5333  -29.9075   23.6321 C   0  0  0  0  0  0
  -16.7242  -28.6493   23.0337 C   0  0  0  0  0  0
  -26.4457  -31.6560   25.0690 C   0  0  0  0  0  0
  -25.3740  -31.3638   26.1440 C   0  0  0  0  0  0
  -27.0240  -30.2996   24.6005 C   0  0  0  0  0  0
  -27.6064  -32.4234   25.7454 C   0  0  0  0  0  0
  -27.5612  -37.1744   24.8408 C   0  0  0  0  0  0
  -21.4105  -29.3022   22.3774 N   0  0  0  0  0  0
  -26.4245  -37.3830   23.9476 N   0  0  0  0  0  0
  -24.6576  -31.0838   22.1014 N   0  0  0  0  0  0
  -23.4166  -28.8247   23.3073 O   0  0  0  0  0  0
  -28.4509  -26.8120   20.0906 O   0  0  0  0  0  0
  -26.5622  -34.8939   22.4710 O   0  0  0  0  0  0
  -23.5297  -32.1475   23.7538 O   0  0  0  0  0  0
  -25.1311  -22.9963   20.7210 C   0  0  0  0  0  0
  -26.5018  -22.9611   20.3839 C   0  0  0  0  0  0
  -24.5908  -22.2393   18.6077 C   0  0  0  0  0  0
  -25.9712  -22.2251   18.2603 C   0  0  0  0  0  0
  -23.1199  -22.9512   16.6673 C   0  0  0  0  0  0
  -31.1985  -15.8243   22.5564 C   0  0  0  0  0  0
  -27.5743  -23.3377   21.3884 C   0  0  0  0  0  0
  -23.4867  -21.8295   17.6469 C   0  0  0  0  0  0
  -26.5052  -21.7774   16.9003 C   0  0  0  0  0  0
  -27.8676  -24.8435   21.4033 C   0  0  0  0  0  0
  -27.5873  -20.6808   16.9984 C   0  0  0  0  0  0
  -27.2161  -19.4931   17.9077 C   0  0  0  0  0  0
  -28.4339  -18.6466   18.2969 C   0  0  0  0  0  0
  -28.1506  -17.7814   19.5318 C   0  0  0  0  0  0
  -29.3363  -16.8804   19.8869 C   0  0  0  0  0  0
  -29.1592  -16.1647   21.2443 C   0  0  0  0  0  0
  -28.4347  -25.3902   20.0760 C   0  0  0  0  0  0
  -24.1727  -22.6488   19.8315 N   0  0  0  0  0  0
  -26.9199  -22.6116   19.1468 N   0  0  0  0  0  0
  -30.2728  -15.2545   21.5735 N   0  0  0  0  0  0
  -31.4579  -12.3914   19.0870 H   0  0  0  0  0  0
  -30.3147  -11.2721   19.7647 H   0  0  0  0  0  0
  -29.7223  -11.8276   17.3871 H   0  0  0  0  0  0
  -29.6443  -13.5259   17.7864 H   0  0  0  0  0  0
  -27.8262  -11.3082   18.7944 H   0  0  0  0  0  0
  -27.3517  -12.6465   17.7834 H   0  0  0  0  0  0
  -27.7121  -14.2403   19.5786 H   0  0  0  0  0  0
  -28.6754  -11.8912   21.2926 H   0  0  0  0  0  0
  -28.4645  -13.4971   21.8928 H   0  0  0  0  0  0
  -25.2752   -9.5678   22.4741 H   0  0  0  0  0  0
  -23.9995   -7.4627   22.7471 H   0  0  0  0  0  0
  -21.0820   -8.8758   19.8954 H   0  0  0  0  0  0
  -22.3675  -10.9658   19.6157 H   0  0  0  0  0  0
  -21.1997   -7.6142   23.9709 H   0  0  0  0  0  0
  -21.1483   -6.0521   25.9077 H   0  0  0  0  0  0
  -22.0599   -2.7598   23.2858 H   0  0  0  0  0  0
  -22.4120  -11.9906   22.4794 H   0  0  0  0  0  0
  -21.1121  -13.1271   22.2597 H   0  0  0  0  0  0
  -24.6660  -15.8391   20.5152 H   0  0  0  0  0  0
  -26.2910  -15.6205   20.1028 H   0  0  0  0  0  0
  -26.7083  -32.5554   23.1177 H   0  0  0  0  0  0
  -24.9981  -33.9808   25.0441 H   0  0  0  0  0  0
  -22.6769  -31.3071   21.4176 H   0  0  0  0  0  0
  -23.3779  -35.9619   23.3154 H   0  0  0  0  0  0
  -24.3631  -36.9060   22.2049 H   0  0  0  0  0  0
  -23.7175  -37.6473   23.6705 H   0  0  0  0  0  0
  -26.0131  -31.6164   20.5868 H   0  0  0  0  0  0
  -26.8110  -30.9102   21.9657 H   0  0  0  0  0  0
  -28.0969  -29.1600   21.1336 H   0  0  0  0  0  0
  -26.0522  -25.9940   19.0131 H   0  0  0  0  0  0
  -23.9773  -27.2852   19.0565 H   0  0  0  0  0  0
  -23.6955  -30.5938   19.4044 H   0  0  0  0  0  0
  -22.7265  -29.2312   19.8795 H   0  0  0  0  0  0
  -25.1224  -36.1951   25.0815 H   0  0  0  0  0  0
  -20.9904  -28.3189   24.1471 H   0  0  0  0  0  0
  -20.5646  -26.2247   23.3586 H   0  0  0  0  0  0
  -21.6639  -26.7435   22.1221 H   0  0  0  0  0  0
  -19.6904  -25.6294   21.1214 H   0  0  0  0  0  0
  -19.6666  -27.3209   20.6753 H   0  0  0  0  0  0
  -17.4176  -26.6613   21.4044 H   0  0  0  0  0  0
  -18.0356  -26.0032   22.9025 H   0  0  0  0  0  0
  -19.7912  -30.7222   24.2305 H   0  0  0  0  0  0
  -17.4999  -31.6258   24.5146 H   0  0  0  0  0  0
  -15.5338  -30.2981   23.7629 H   0  0  0  0  0  0
  -15.8645  -28.0815   22.7035 H   0  0  0  0  0  0
  -24.5950  -30.6948   25.7777 H   0  0  0  0  0  0
  -24.8897  -32.2776   26.4896 H   0  0  0  0  0  0
  -25.8114  -30.8811   27.0190 H   0  0  0  0  0  0
  -26.2751  -29.6806   24.1050 H   0  0  0  0  0  0
  -27.4004  -29.7168   25.4426 H   0  0  0  0  0  0
  -27.8610  -30.4306   23.9137 H   0  0  0  0  0  0
  -27.2719  -33.3515   26.2109 H   0  0  0  0  0  0
  -28.3855  -32.6797   25.0260 H   0  0  0  0  0  0
  -28.0759  -31.8283   26.5297 H   0  0  0  0  0  0
  -28.2422  -38.0245   24.7790 H   0  0  0  0  0  0
  -28.1314  -36.2815   24.5799 H   0  0  0  0  0  0
  -27.2407  -37.0849   25.8803 H   0  0  0  0  0  0
  -20.9255  -29.8741   21.7002 H   0  0  0  0  0  0
  -26.0116  -38.2856   24.1680 H   0  0  0  0  0  0
  -24.8052  -23.3077   21.7032 H   0  0  0  0  0  0
  -22.3225  -22.6339   15.9945 H   0  0  0  0  0  0
  -23.9737  -23.2392   16.0547 H   0  0  0  0  0  0
  -22.7772  -23.8389   17.1999 H   0  0  0  0  0  0
  -30.6679  -16.1577   23.4492 H   0  0  0  0  0  0
  -31.7299  -16.6790   22.1337 H   0  0  0  0  0  0
  -31.9416  -15.0920   22.8793 H   0  0  0  0  0  0
  -28.4877  -22.7800   21.1769 H   0  0  0  0  0  0
  -27.2491  -23.0192   22.3796 H   0  0  0  0  0  0
  -22.5994  -21.5577   18.2206 H   0  0  0  0  0  0
  -23.7707  -20.9225   17.1158 H   0  0  0  0  0  0
  -26.9137  -22.6495   16.3885 H   0  0  0  0  0  0
  -25.7037  -21.4162   16.2597 H   0  0  0  0  0  0
  -28.5732  -25.0656   22.2043 H   0  0  0  0  0  0
  -26.9458  -25.3598   21.6698 H   0  0  0  0  0  0
  -28.4910  -21.1508   17.3881 H   0  0  0  0  0  0
  -27.8480  -20.3260   16.0008 H   0  0  0  0  0  0
  -26.4597  -18.8708   17.4278 H   0  0  0  0  0  0
  -26.7625  -19.8559   18.8304 H   0  0  0  0  0  0
  -29.2787  -19.2989   18.5251 H   0  0  0  0  0  0
  -28.7430  -18.0280   17.4527 H   0  0  0  0  0  0
  -27.2621  -17.1739   19.3571 H   0  0  0  0  0  0
  -27.9193  -18.4314   20.3781 H   0  0  0  0  0  0
  -30.2484  -17.4770   19.9192 H   0  0  0  0  0  0
  -29.4630  -16.1633   19.0738 H   0  0  0  0  0  0
  -28.2139  -15.6286   21.2694 H   0  0  0  0  0  0
  -29.0581  -16.9228   22.0220 H   0  0  0  0  0  0
  -27.9187  -25.0201   19.1944 H   0  0  0  0  0  0
  -29.4640  -25.0459   19.9656 H   0  0  0  0  0  0
  1 25  1  0  0  0
  1 30  2  0  0  0
  1 90  1  0  0  0
  2  3  1  0  0  0
  2 25  1  0  0  0
  2 91  1  0  0  0
  2 92  1  0  0  0
  3  4  1  0  0  0
  3 93  1  0  0  0
  3 94  1  0  0  0
  4  5  1  0  0  0
  4 95  1  0  0  0
  4 96  1  0  0  0
  5  6  1  0  0  0
  5 26  1  0  0  0
  5 97  1  0  0  0
  6 25  1  0  0  0
  6 98  1  0  0  0
  6 99  1  0  0  0
  7  8  2  0  0  0
  7 26  1  0  0  0
  7 29  1  0  0  0
  8  9  1  0  0  0
  8 22  1  0  0  0
  9 10  1  0  0  0
  9 27  2  0  0  0
 10 11  2  0  0  0
 10 15  1  0  0  0
 11 12  1  0  0  0
 11100  1  0  0  0
 12 13  2  0  0  0
 12101  1  0  0  0
 13 14  1  0  0  0
 13 31  1  0  0  0
 14 15  2  0  0  0
 14102  1  0  0  0
 15103  1  0  0  0
 16 17  2  0  0  0
 16 21  1  0  0  0
 16 31  1  0  0  0
 17 18  1  0  0  0
 17104  1  0  0  0
 18 19  2  0  0  0
 18105  1  0  0  0
 19 20  1  0  0  0
 19 24  1  0  0  0
 20 21  2  0  0  0
 20106  1  0  0  0
 21 23  1  0  0  0
 22 28  1  0  0  0
 22 32  2  0  0  0
 26 27  1  0  0  0
 28107  1  0  0  0
 28108  1  0  0  0
 29109  1  0  0  0
 29110  1  0  0  0
 33 34  1  0  0  0
 33 66  1  0  0  0
 33 70  2  0  0  0
 34 36  1  0  0  0
 34 59  1  0  0  0
 34111  1  0  0  0
 35 44  2  0  0  0
 35 45  1  0  0  0
 35 68  1  0  0  0
 36 56  1  0  0  0
 36112  1  0  0  0
 37 39  1  0  0  0
 37 47  1  0  0  0
 37 66  1  0  0  0
 37113  1  0  0  0
 38 43  2  0  0  0
 38 46  1  0  0  0
 38 47  1  0  0  0
 39 64  1  0  0  0
 39 67  2  0  0  0
 40 52  1  0  0  0
 40 53  2  0  0  0
 40 58  1  0  0  0
 41114  1  0  0  0
 41115  1  0  0  0
 41116  1  0  0  0
 41 48  1  0  0  0
 42 43  1  0  0  0
 42 66  1  0  0  0
 42117  1  0  0  0
 42118  1  0  0  0
 43 44  1  0  0  0
 44119  1  0  0  0
 45 46  2  0  0  0
 45120  1  0  0  0
 46121  1  0  0  0
 47122  1  0  0  0
 47123  1  0  0  0
 48 56  1  0  0  0
 48 65  1  0  0  0
 48124  1  0  0  0
 49 50  1  0  0  0
 49 53  1  0  0  0
 49 64  1  0  0  0
 49125  1  0  0  0
 50 51  1  0  0  0
 50126  1  0  0  0
 50127  1  0  0  0
 51 52  1  0  0  0
 51128  1  0  0  0
 51129  1  0  0  0
 52130  1  0  0  0
 52131  1  0  0  0
 53 54  1  0  0  0
 54 55  2  0  0  0
 54132  1  0  0  0
 55 57  1  0  0  0
 55133  1  0  0  0
 56 69  2  0  0  0
 57 58  2  0  0  0
 57134  1  0  0  0
 58135  1  0  0  0
 59 60  1  0  0  0
 59 61  1  0  0  0
 59 62  1  0  0  0
 60136  1  0  0  0
 60137  1  0  0  0
 60138  1  0  0  0
 61139  1  0  0  0
 61140  1  0  0  0
 61141  1  0  0  0
 62142  1  0  0  0
 62143  1  0  0  0
 62144  1  0  0  0
 63 65  1  0  0  0
 63145  1  0  0  0
 63146  1  0  0  0
 63147  1  0  0  0
 64148  1  0  0  0
 65149  1  0  0  0
 68 87  1  0  0  0
 71 72  2  0  0  0
 71 88  1  0  0  0
 71150  1  0  0  0
 72 77  1  0  0  0
 72 89  1  0  0  0
 73 74  1  0  0  0
 73 78  1  0  0  0
 73 88  2  0  0  0
 74 79  1  0  0  0
 74 89  2  0  0  0
 75 78  1  0  0  0
 75151  1  0  0  0
 75152  1  0  0  0
 75153  1  0  0  0
 76 90  1  0  0  0
 76154  1  0  0  0
 76155  1  0  0  0
 76156  1  0  0  0
 77 80  1  0  0  0
 77157  1  0  0  0
 77158  1  0  0  0
 78159  1  0  0  0
 78160  1  0  0  0
 79 81  1  0  0  0
 79161  1  0  0  0
 79162  1  0  0  0
 80 87  1  0  0  0
 80163  1  0  0  0
 80164  1  0  0  0
 81 82  1  0  0  0
 81165  1  0  0  0
 81166  1  0  0  0
 82 83  1  0  0  0
 82167  1  0  0  0
 82168  1  0  0  0
 83 84  1  0  0  0
 83169  1  0  0  0
 83170  1  0  0  0
 84 85  1  0  0  0
 84171  1  0  0  0
 84172  1  0  0  0
 85 86  1  0  0  0
 85173  1  0  0  0
 85174  1  0  0  0
 86 90  1  0  0  0
 86175  1  0  0  0
 86176  1  0  0  0
 87177  1  0  0  0
 87178  1  0  0  0
M  ISO  4   1 100  68 101  87 101  90 100
M  END
> <chiral flag>
0

> <version>
0

> <s_m_source_file>
/data/baiqing/PycharmProjects/Reinvent-master-3.2/result/LINK_invent/BTK/process_docking_weight1_custom_sum_contain_oxygen_bond_distance_aromatic_linkinvent_7_9_3/rearranged_h_0043.sdf

> <i_m_source_file_index>
51

> <r_mmod_Potential_Energy-OPLS-2005>
122.985580444336

> <r_mmod_Stretch_Energy-OPLS-2005>
35.9836654663086

> <r_mmod_Bend_Energy-OPLS-2005>
103.192642211914

> <r_mmod_Torsional_Energy-OPLS-2005>
252.969650268555

> <r_mmod_Improper_Torsional_Energy-OPLS-2005>
4.43840742111206

> <r_mmod_Van_der_Waal_Energy-OPLS-2005>
159.622695922852

> <r_mmod_Electrostatic_Energy-OPLS-2005>
-247.583770751953

> <r_mmod_Solvation_Energy-OPLS-2005>
-194.748153686523

> <b_mmod_Minimization_Converged-OPLS-2005>
0

> <r_mmod_RMS_Derivative-OPLS-2005>
1.75000381469727

$$$$
51
                    3D
 Structure written by MMmdl.
155163  0  0  1  0            999 V2000
  -30.6618  -14.7351   20.4282 C   0  0  0  0  0  0
  -30.4022  -12.4473   19.4644 C   0  0  0  0  0  0
  -29.4914  -12.4957   18.2223 C   0  0  0  0  0  0
  -28.0279  -12.3142   18.6516 C   0  0  0  0  0  0
  -27.6311  -13.2374   19.8350 C   0  0  2  0  0  0
  -28.6782  -13.2347   20.9665 C   0  0  0  0  0  0
  -25.2492  -13.8215   20.5717 C   0  0  0  0  0  0
  -24.1783  -13.0449   20.9218 C   0  0  0  0  0  0
  -24.6372  -11.6934   20.8758 C   0  0  0  0  0  0
  -23.9049  -10.4304   21.0413 C   0  0  0  0  0  0
  -24.3612   -9.4231   21.9210 C   0  0  0  0  0  0
  -23.6292   -8.2265   22.0771 C   0  0  0  0  0  0
  -22.4279   -8.0303   21.3547 C   0  0  0  0  0  0
  -21.9901   -9.0277   20.4663 C   0  0  0  0  0  0
  -22.7216  -10.2157   20.3069 C   0  0  0  0  0  0
  -21.6853   -6.0743   22.5284 C   0  0  0  0  0  0
  -21.4025   -6.5649   23.8213 C   0  0  0  0  0  0
  -21.3678   -5.6802   24.9179 C   0  0  0  0  0  0
  -21.6031   -4.3054   24.7231 C   0  0  0  0  0  0
  -21.8804   -3.8150   23.4354 C   0  0  0  0  0  0
  -21.9188   -4.6967   22.3415 C   0  0  0  0  0  0
  -22.7812  -13.5239   21.1882 C   0  0  0  0  0  0
  -22.1652   -4.2146   21.0985 F   0  0  0  0  0  0
  -21.5632   -3.4551   25.7751 F   0  0  0  0  0  0
  -29.9646  -13.5538   20.3467 N   0  0  0  0  0  0
  -26.2900  -12.9424   20.3258 N   0  0  0  0  0  0
  -25.9303  -11.6562   20.5749 N   0  0  0  0  0  0
  -22.0459  -12.8257   22.0436 N   0  0  0  0  0  0
  -25.4187  -15.1943   20.4136 N   0  0  0  0  0  0
  -31.8804  -14.7157   20.2578 O   0  0  0  0  0  0
  -21.6641   -6.8897   21.4242 O   0  0  0  0  0  0
  -22.3520  -14.5557   20.6741 O   0  0  0  0  0  0
  -24.6348  -31.8559   23.1991 C   0  0  0  0  0  0
  -25.9175  -32.4753   23.8346 C   0  0  1  0  0  0
  -27.2068  -27.2493   20.1380 C   0  0  0  0  0  0
  -25.5978  -33.8552   24.2278 N   0  0  0  0  0  0
  -23.4317  -30.4803   21.5413 C   0  0  2  0  0  0
  -24.8779  -28.9265   20.1073 C   0  0  0  0  0  0
  -22.7513  -29.4623   22.4887 C   0  0  0  0  0  0
  -18.0297  -28.1389   22.8483 C   0  0  0  0  0  0
  -24.1463  -36.7279   23.2632 C   0  0  0  0  0  0
  -25.9777  -30.7666   21.3800 C   0  0  0  0  0  0
  -26.0515  -29.3872   20.7215 C   0  0  0  0  0  0
  -27.2255  -28.5630   20.7220 C   0  0  0  0  0  0
  -26.0182  -26.8665   19.4834 C   0  0  0  0  0  0
  -24.8670  -27.6753   19.4743 C   0  0  0  0  0  0
  -23.6514  -29.8184   20.1548 C   0  0  0  0  0  0
  -25.4091  -36.3055   24.0323 C   0  0  1  0  0  0
  -20.5893  -28.3718   23.1241 C   0  0  2  0  0  0
  -20.6763  -26.9445   22.5382 C   0  0  0  0  0  0
  -19.5734  -26.6392   21.5190 C   0  0  0  0  0  0
  -18.1915  -26.7930   22.1617 C   0  0  0  0  0  0
  -19.1549  -28.8874   23.2853 C   0  0  0  0  0  0
  -18.9470  -30.1471   23.8883 C   0  0  0  0  0  0
  -17.6464  -30.6586   24.0562 C   0  0  0  0  0  0
  -25.9060  -34.9436   23.5094 C   0  0  0  0  0  0
  -16.5360  -29.9082   23.6330 C   0  0  0  0  0  0
  -16.7286  -28.6498   23.0360 C   0  0  0  0  0  0
  -26.4523  -31.6588   25.0755 C   0  0  0  0  0  0
  -25.3748  -31.3763   26.1485 C   0  0  0  0  0  0
  -27.0374  -30.2994   24.6286 C   0  0  0  0  0  0
  -27.6045  -32.4355   25.7545 C   0  0  0  0  0  0
  -27.5551  -37.1793   24.8471 C   0  0  0  0  0  0
  -21.4219  -29.3070   22.3627 N   0  0  0  0  0  0
  -26.4260  -37.3768   23.9420 N   0  0  0  0  0  0
  -24.6998  -31.0533   22.0963 N   0  0  0  0  0  0
  -23.4190  -28.8156   23.2990 O   0  0  0  0  0  0
  -28.2400  -26.2847   20.1918 O   0  0  0  0  0  0
  -26.5609  -34.8916   22.4646 O   0  0  0  0  0  0
  -23.5500  -32.1382   23.7280 O   0  0  0  0  0  0
  -27.9084  -22.2945   20.7245 C   0  0  0  0  0  0
  -28.8421  -21.3033   20.2278 C   0  0  0  0  0  0
  -28.4051  -23.5812   20.4887 C   0  0  0  0  0  0
  -30.1776  -18.8823   21.9462 C   0  0  0  0  0  0
  -30.9737  -18.6543   19.5845 C   0  0  0  0  0  0
  -28.6704  -19.7191   20.0426 C   0  0  0  0  0  0
  -27.8648  -25.0148   20.9170 C   0  0  0  0  0  0
  -29.1846  -17.0115   20.5052 C   0  0  0  0  0  0
  -29.7317  -18.5653   20.5041 C   0  0  0  0  0  0
  -29.8598  -21.9960   19.7053 N   0  0  0  0  0  0
  -30.0699  -15.8984   19.9711 N   0  0  0  0  0  0
  -29.6191  -23.3901   19.8915 O   0  0  0  0  0  0
  -31.4470  -12.5346   19.1630 H   0  0  0  0  0  0
  -30.3086  -11.4873   19.9766 H   0  0  0  0  0  0
  -29.7776  -11.7190   17.5117 H   0  0  0  0  0  0
  -29.6048  -13.4498   17.7024 H   0  0  0  0  0  0
  -27.8942  -11.2708   18.9409 H   0  0  0  0  0  0
  -27.3648  -12.4825   17.8016 H   0  0  0  0  0  0
  -27.6083  -14.2458   19.4220 H   0  0  0  0  0  0
  -28.7197  -12.2697   21.4758 H   0  0  0  0  0  0
  -28.4238  -13.9840   21.7180 H   0  0  0  0  0  0
  -25.2744   -9.5726   22.4796 H   0  0  0  0  0  0
  -24.0003   -7.4643   22.7486 H   0  0  0  0  0  0
  -21.0835   -8.8799   19.8959 H   0  0  0  0  0  0
  -22.3670  -10.9719   19.6200 H   0  0  0  0  0  0
  -21.2016   -7.6153   23.9726 H   0  0  0  0  0  0
  -21.1514   -6.0536   25.9086 H   0  0  0  0  0  0
  -22.0554   -2.7619   23.2855 H   0  0  0  0  0  0
  -22.4048  -11.9911   22.4837 H   0  0  0  0  0  0
  -21.1115  -13.1352   22.2656 H   0  0  0  0  0  0
  -24.6531  -15.8500   20.5168 H   0  0  0  0  0  0
  -26.2739  -15.6297   20.0926 H   0  0  0  0  0  0
  -26.7243  -32.5404   23.1087 H   0  0  0  0  0  0
  -25.0129  -33.9682   25.0430 H   0  0  0  0  0  0
  -22.7300  -31.3029   21.3957 H   0  0  0  0  0  0
  -23.3720  -35.9621   23.3304 H   0  0  0  0  0  0
  -24.3543  -36.8900   22.2046 H   0  0  0  0  0  0
  -23.7234  -37.6488   23.6659 H   0  0  0  0  0  0
  -26.1157  -31.5271   20.6092 H   0  0  0  0  0  0
  -26.8536  -30.8167   22.0150 H   0  0  0  0  0  0
  -28.1219  -28.9041   21.2197 H   0  0  0  0  0  0
  -25.9625  -25.8974   19.0070 H   0  0  0  0  0  0
  -23.9727  -27.3191   18.9832 H   0  0  0  0  0  0
  -23.7823  -30.5987   19.4039 H   0  0  0  0  0  0
  -22.7668  -29.2573   19.8443 H   0  0  0  0  0  0
  -25.1256  -36.1879   25.0814 H   0  0  0  0  0  0
  -20.9999  -28.3301   24.1359 H   0  0  0  0  0  0
  -20.5620  -26.2366   23.3604 H   0  0  0  0  0  0
  -21.6632  -26.7416   22.1216 H   0  0  0  0  0  0
  -19.6901  -25.6299   21.1233 H   0  0  0  0  0  0
  -19.6652  -27.3177   20.6698 H   0  0  0  0  0  0
  -17.4191  -26.6693   21.4023 H   0  0  0  0  0  0
  -18.0336  -26.0064   22.9008 H   0  0  0  0  0  0
  -19.7954  -30.7279   24.2253 H   0  0  0  0  0  0
  -17.5031  -31.6264   24.5165 H   0  0  0  0  0  0
  -15.5370  -30.2974   23.7663 H   0  0  0  0  0  0
  -15.8685  -28.0796   22.7093 H   0  0  0  0  0  0
  -24.5918  -30.7109   25.7844 H   0  0  0  0  0  0
  -24.8962  -32.2951   26.4889 H   0  0  0  0  0  0
  -25.8087  -30.8978   27.0279 H   0  0  0  0  0  0
  -26.2985  -29.6741   24.1277 H   0  0  0  0  0  0
  -27.3974  -29.7268   25.4843 H   0  0  0  0  0  0
  -27.8888  -30.4226   23.9591 H   0  0  0  0  0  0
  -27.2612  -33.3646   26.2101 H   0  0  0  0  0  0
  -28.3881  -32.6944   25.0416 H   0  0  0  0  0  0
  -28.0698  -31.8526   26.5504 H   0  0  0  0  0  0
  -28.2571  -38.0079   24.7474 H   0  0  0  0  0  0
  -28.1036  -36.2612   24.6320 H   0  0  0  0  0  0
  -27.2289  -37.1473   25.8882 H   0  0  0  0  0  0
  -20.9422  -29.8851   21.6863 H   0  0  0  0  0  0
  -26.0126  -38.2829   24.1457 H   0  0  0  0  0  0
  -26.9550  -22.0887   21.1900 H   0  0  0  0  0  0
  -30.8622  -18.1252   22.3355 H   0  0  0  0  0  0
  -29.3201  -18.9248   22.6220 H   0  0  0  0  0  0
  -30.6863  -19.8440   22.0150 H   0  0  0  0  0  0
  -31.7842  -18.0046   19.9173 H   0  0  0  0  0  0
  -31.3866  -19.6636   19.5557 H   0  0  0  0  0  0
  -30.7309  -18.3750   18.5587 H   0  0  0  0  0  0
  -27.7334  -19.4592   20.5382 H   0  0  0  0  0  0
  -28.4531  -19.5439   18.9869 H   0  0  0  0  0  0
  -28.1620  -25.1746   21.9537 H   0  0  0  0  0  0
  -26.7797  -24.9257   20.9838 H   0  0  0  0  0  0
  -28.2945  -16.9747   19.8736 H   0  0  0  0  0  0
  -28.8188  -16.7297   21.4955 H   0  0  0  0  0  0
  -30.7226  -16.3125   19.3234 H   0  0  0  0  0  0
  1 25  1  0  0  0
  1 30  2  0  0  0
  1 81  1  0  0  0
  2  3  1  0  0  0
  2 25  1  0  0  0
  2 83  1  0  0  0
  2 84  1  0  0  0
  3  4  1  0  0  0
  3 85  1  0  0  0
  3 86  1  0  0  0
  4  5  1  0  0  0
  4 87  1  0  0  0
  4 88  1  0  0  0
  5  6  1  0  0  0
  5 26  1  0  0  0
  5 89  1  0  0  0
  6 25  1  0  0  0
  6 90  1  0  0  0
  6 91  1  0  0  0
  7  8  2  0  0  0
  7 26  1  0  0  0
  7 29  1  0  0  0
  8  9  1  0  0  0
  8 22  1  0  0  0
  9 10  1  0  0  0
  9 27  2  0  0  0
 10 11  2  0  0  0
 10 15  1  0  0  0
 11 12  1  0  0  0
 11 92  1  0  0  0
 12 13  2  0  0  0
 12 93  1  0  0  0
 13 14  1  0  0  0
 13 31  1  0  0  0
 14 15  2  0  0  0
 14 94  1  0  0  0
 15 95  1  0  0  0
 16 17  2  0  0  0
 16 21  1  0  0  0
 16 31  1  0  0  0
 17 18  1  0  0  0
 17 96  1  0  0  0
 18 19  2  0  0  0
 18 97  1  0  0  0
 19 20  1  0  0  0
 19 24  1  0  0  0
 20 21  2  0  0  0
 20 98  1  0  0  0
 21 23  1  0  0  0
 22 28  1  0  0  0
 22 32  2  0  0  0
 26 27  1  0  0  0
 28 99  1  0  0  0
 28100  1  0  0  0
 29101  1  0  0  0
 29102  1  0  0  0
 33 34  1  0  0  0
 33 66  1  0  0  0
 33 70  2  0  0  0
 34 36  1  0  0  0
 34 59  1  0  0  0
 34103  1  0  0  0
 35 44  2  0  0  0
 35 45  1  0  0  0
 35 68  1  0  0  0
 36 56  1  0  0  0
 36104  1  0  0  0
 37 39  1  0  0  0
 37 47  1  0  0  0
 37 66  1  0  0  0
 37105  1  0  0  0
 38 43  2  0  0  0
 38 46  1  0  0  0
 38 47  1  0  0  0
 39 64  1  0  0  0
 39 67  2  0  0  0
 40 52  1  0  0  0
 40 53  2  0  0  0
 40 58  1  0  0  0
 41106  1  0  0  0
 41107  1  0  0  0
 41108  1  0  0  0
 41 48  1  0  0  0
 42 43  1  0  0  0
 42 66  1  0  0  0
 42109  1  0  0  0
 42110  1  0  0  0
 43 44  1  0  0  0
 44111  1  0  0  0
 45 46  2  0  0  0
 45112  1  0  0  0
 46113  1  0  0  0
 47114  1  0  0  0
 47115  1  0  0  0
 48 56  1  0  0  0
 48 65  1  0  0  0
 48116  1  0  0  0
 49 50  1  0  0  0
 49 53  1  0  0  0
 49 64  1  0  0  0
 49117  1  0  0  0
 50 51  1  0  0  0
 50118  1  0  0  0
 50119  1  0  0  0
 51 52  1  0  0  0
 51120  1  0  0  0
 51121  1  0  0  0
 52122  1  0  0  0
 52123  1  0  0  0
 53 54  1  0  0  0
 54 55  2  0  0  0
 54124  1  0  0  0
 55 57  1  0  0  0
 55125  1  0  0  0
 56 69  2  0  0  0
 57 58  2  0  0  0
 57126  1  0  0  0
 58127  1  0  0  0
 59 60  1  0  0  0
 59 61  1  0  0  0
 59 62  1  0  0  0
 60128  1  0  0  0
 60129  1  0  0  0
 60130  1  0  0  0
 61131  1  0  0  0
 61132  1  0  0  0
 61133  1  0  0  0
 62134  1  0  0  0
 62135  1  0  0  0
 62136  1  0  0  0
 63 65  1  0  0  0
 63137  1  0  0  0
 63138  1  0  0  0
 63139  1  0  0  0
 64140  1  0  0  0
 65141  1  0  0  0
 68 77  1  0  0  0
 71 72  1  0  0  0
 71 73  2  0  0  0
 71142  1  0  0  0
 72 76  1  0  0  0
 72 80  2  0  0  0
 73 77  1  0  0  0
 73 82  1  0  0  0
 74143  1  0  0  0
 74144  1  0  0  0
 74145  1  0  0  0
 74 79  1  0  0  0
 75 79  1  0  0  0
 75146  1  0  0  0
 75147  1  0  0  0
 75148  1  0  0  0
 76 79  1  0  0  0
 76149  1  0  0  0
 76150  1  0  0  0
 77151  1  0  0  0
 77152  1  0  0  0
 78 79  1  0  0  0
 78 81  1  0  0  0
 78153  1  0  0  0
 78154  1  0  0  0
 80 82  1  0  0  0
 81155  1  0  0  0
M  ISO  4   1 100  68 101  77 101  81 100
M  END
> <chiral flag>
0

> <version>
0

> <s_m_source_file>
/data/baiqing/PycharmProjects/Reinvent-master-3.2/result/LINK_invent/BTK/process_docking_weight1_custom_sum_contain_oxygen_bond_distance_aromatic_linkinvent_7_9_3/rearranged_h_0043.sdf

> <i_m_source_file_index>
52

> <r_mmod_Potential_Energy-OPLS-2005>
310.458190917969

> <r_mmod_Stretch_Energy-OPLS-2005>
128.473037719727

> <r_mmod_Bend_Energy-OPLS-2005>
230.351257324219

> <r_mmod_Torsional_Energy-OPLS-2005>
307.396392822266

> <r_mmod_Improper_Torsional_Energy-OPLS-2005>
32.3839683532715

> <r_mmod_Van_der_Waal_Energy-OPLS-2005>
110.518310546875

> <r_mmod_Electrostatic_Energy-OPLS-2005>
-384.539367675781

> <r_mmod_Solvation_Energy-OPLS-2005>
-218.236541748047

> <b_mmod_Minimization_Converged-OPLS-2005>
0

> <r_mmod_RMS_Derivative-OPLS-2005>
4.19955348968506

$$$$
52
                    3D
 Structure written by MMmdl.
156164  0  0  1  0            999 V2000
  -30.6504  -14.5864   20.5303 C   0  0  0  0  0  0
  -30.4397  -12.3876   19.4359 C   0  0  0  0  0  0
  -29.5081  -12.5070   18.2144 C   0  0  0  0  0  0
  -28.0265  -12.3825   18.6202 C   0  0  0  0  0  0
  -27.6546  -13.2316   19.8657 C   0  0  2  0  0  0
  -28.6942  -13.0707   20.9933 C   0  0  0  0  0  0
  -25.2509  -13.8247   20.5645 C   0  0  0  0  0  0
  -24.1831  -13.0490   20.9232 C   0  0  0  0  0  0
  -24.6435  -11.6974   20.8792 C   0  0  0  0  0  0
  -23.9141  -10.4328   21.0449 C   0  0  0  0  0  0
  -24.3696   -9.4224   21.9196 C   0  0  0  0  0  0
  -23.6348   -8.2257   22.0760 C   0  0  0  0  0  0
  -22.4316   -8.0299   21.3561 C   0  0  0  0  0  0
  -21.9978   -9.0295   20.4655 C   0  0  0  0  0  0
  -22.7315  -10.2161   20.3073 C   0  0  0  0  0  0
  -21.6850   -6.0755   22.5301 C   0  0  0  0  0  0
  -21.3985   -6.5654   23.8228 C   0  0  0  0  0  0
  -21.3664   -5.6803   24.9187 C   0  0  0  0  0  0
  -21.6059   -4.3070   24.7236 C   0  0  0  0  0  0
  -21.8817   -3.8158   23.4360 C   0  0  0  0  0  0
  -21.9198   -4.6985   22.3426 C   0  0  0  0  0  0
  -22.7822  -13.5235   21.1914 C   0  0  0  0  0  0
  -22.1645   -4.2172   21.0992 F   0  0  0  0  0  0
  -21.5663   -3.4549   25.7746 F   0  0  0  0  0  0
  -30.0115  -13.3894   20.4240 N   0  0  0  0  0  0
  -26.2975  -12.9463   20.3300 N   0  0  0  0  0  0
  -25.9353  -11.6615   20.5777 N   0  0  0  0  0  0
  -22.0447  -12.8215   22.0442 N   0  0  0  0  0  0
  -25.4182  -15.1973   20.3927 N   0  0  0  0  0  0
  -31.8199  -14.7406   20.1567 O   0  0  0  0  0  0
  -21.6662   -6.8892   21.4252 O   0  0  0  0  0  0
  -22.3469  -14.5529   20.6739 O   0  0  0  0  0  0
  -24.6149  -31.8665   23.2069 C   0  0  0  0  0  0
  -25.9039  -32.4825   23.8368 C   0  0  1  0  0  0
  -27.2335  -27.4096   20.1241 C   0  0  0  0  0  0
  -25.5891  -33.8620   24.2314 N   0  0  0  0  0  0
  -23.4043  -30.4872   21.5472 C   0  0  2  0  0  0
  -24.8529  -28.9449   20.1171 C   0  0  0  0  0  0
  -22.7416  -29.4644   22.4985 C   0  0  0  0  0  0
  -18.0277  -28.1363   22.8494 C   0  0  0  0  0  0
  -24.1488  -36.7320   23.2636 C   0  0  0  0  0  0
  -25.9328  -30.8275   21.3596 C   0  0  0  0  0  0
  -26.0126  -29.4564   20.7133 C   0  0  0  0  0  0
  -27.2075  -28.6994   20.7054 C   0  0  0  0  0  0
  -26.0592  -26.9116   19.5249 C   0  0  0  0  0  0
  -24.8723  -27.6728   19.5138 C   0  0  0  0  0  0
  -23.6141  -29.8124   20.1645 C   0  0  0  0  0  0
  -25.4113  -36.3119   24.0340 C   0  0  1  0  0  0
  -20.5867  -28.3655   23.1322 C   0  0  2  0  0  0
  -20.6766  -26.9386   22.5425 C   0  0  0  0  0  0
  -19.5749  -26.6373   21.5214 C   0  0  0  0  0  0
  -18.1925  -26.7912   22.1616 C   0  0  0  0  0  0
  -19.1524  -28.8825   23.2909 C   0  0  0  0  0  0
  -18.9454  -30.1434   23.8924 C   0  0  0  0  0  0
  -17.6451  -30.6575   24.0561 C   0  0  0  0  0  0
  -25.9036  -34.9491   23.5133 C   0  0  0  0  0  0
  -16.5342  -29.9074   23.6322 C   0  0  0  0  0  0
  -16.7266  -28.6484   23.0356 C   0  0  0  0  0  0
  -26.4464  -31.6607   25.0700 C   0  0  0  0  0  0
  -25.3744  -31.3718   26.1465 C   0  0  0  0  0  0
  -27.0270  -30.3046   24.6067 C   0  0  0  0  0  0
  -27.6072  -32.4302   25.7442 C   0  0  0  0  0  0
  -27.5598  -37.1799   24.8459 C   0  0  0  0  0  0
  -21.4144  -29.3028   22.3735 N   0  0  0  0  0  0
  -26.4298  -37.3810   23.9414 N   0  0  0  0  0  0
  -24.6695  -31.0747   22.0975 N   0  0  0  0  0  0
  -23.4178  -28.8202   23.3053 O   0  0  0  0  0  0
  -28.3972  -26.6661   20.1059 O   0  0  0  0  0  0
  -26.5602  -34.8938   22.4694 O   0  0  0  0  0  0
  -23.5345  -32.1412   23.7474 O   0  0  0  0  0  0
  -27.7895  -22.3355   22.4044 C   0  0  0  0  0  0
  -28.8506  -20.5827   21.6214 C   0  0  0  0  0  0
  -28.1900  -20.2700   22.7943 C   0  0  0  0  0  0
  -29.7281  -19.6661   20.7633 C   0  0  0  0  0  0
  -29.2887  -18.1581   20.5932 C   0  0  0  0  0  0
  -28.5260  -24.1518   19.9435 C   0  0  0  0  0  0
  -29.3092  -22.9060   20.4978 C   0  0  0  0  0  0
  -30.3202  -17.0651   21.0478 C   0  0  0  0  0  0
  -28.4010  -25.4214   20.8451 C   0  0  0  0  0  0
  -27.4832  -21.3720   23.2616 N   0  0  0  0  0  0
  -28.6468  -21.9784   21.4341 N   0  0  0  0  0  0
  -29.8829  -15.6481   20.8983 N   0  0  0  0  0  0
  -28.2126  -18.7970   23.6463 Cl  0  0  0  0  0  0
  -31.4687  -12.5491   19.1107 H   0  0  0  0  0  0
  -30.4048  -11.3869   19.8651 H   0  0  0  0  0  0
  -29.7588  -11.7348   17.4876 H   0  0  0  0  0  0
  -29.6820  -13.4641   17.7185 H   0  0  0  0  0  0
  -27.8214  -11.3288   18.8057 H   0  0  0  0  0  0
  -27.3938  -12.6652   17.7811 H   0  0  0  0  0  0
  -27.6804  -14.2774   19.5563 H   0  0  0  0  0  0
  -28.6899  -12.0568   21.3934 H   0  0  0  0  0  0
  -28.4479  -13.7219   21.8344 H   0  0  0  0  0  0
  -25.2844   -9.5693   22.4785 H   0  0  0  0  0  0
  -24.0084   -7.4648   22.7454 H   0  0  0  0  0  0
  -21.0916   -8.8834   19.8955 H   0  0  0  0  0  0
  -22.3791  -10.9732   19.6214 H   0  0  0  0  0  0
  -21.1899   -7.6151   23.9738 H   0  0  0  0  0  0
  -21.1505   -6.0519   25.9091 H   0  0  0  0  0  0
  -22.0588   -2.7619   23.2862 H   0  0  0  0  0  0
  -22.4057  -11.9905   22.4892 H   0  0  0  0  0  0
  -21.1030  -13.1197   22.2601 H   0  0  0  0  0  0
  -24.6550  -15.8546   20.5078 H   0  0  0  0  0  0
  -26.2503  -15.6257   20.0076 H   0  0  0  0  0  0
  -26.7116  -32.5536   23.1142 H   0  0  0  0  0  0
  -25.0057  -33.9769   25.0466 H   0  0  0  0  0  0
  -22.6943  -31.3056   21.4057 H   0  0  0  0  0  0
  -23.3766  -35.9632   23.3272 H   0  0  0  0  0  0
  -24.3594  -36.8957   22.2057 H   0  0  0  0  0  0
  -23.7216  -37.6507   23.6663 H   0  0  0  0  0  0
  -26.0421  -31.5888   20.5854 H   0  0  0  0  0  0
  -26.8232  -30.8870   21.9748 H   0  0  0  0  0  0
  -28.1056  -29.0944   21.1591 H   0  0  0  0  0  0
  -26.0637  -25.9368   19.0596 H   0  0  0  0  0  0
  -23.9829  -27.2750   19.0432 H   0  0  0  0  0  0
  -23.7171  -30.5827   19.3994 H   0  0  0  0  0  0
  -22.7383  -29.2293   19.8752 H   0  0  0  0  0  0
  -25.1287  -36.1980   25.0834 H   0  0  0  0  0  0
  -20.9962  -28.3208   24.1439 H   0  0  0  0  0  0
  -20.5653  -26.2258   23.3612 H   0  0  0  0  0  0
  -21.6639  -26.7423   22.1222 H   0  0  0  0  0  0
  -19.6907  -25.6286   21.1237 H   0  0  0  0  0  0
  -19.6694  -27.3194   20.6756 H   0  0  0  0  0  0
  -17.4199  -26.6689   21.4006 H   0  0  0  0  0  0
  -18.0307  -26.0035   22.8993 H   0  0  0  0  0  0
  -19.7934  -30.7251   24.2296 H   0  0  0  0  0  0
  -17.5008  -31.6264   24.5152 H   0  0  0  0  0  0
  -15.5341  -30.2992   23.7632 H   0  0  0  0  0  0
  -15.8660  -28.0814   22.7063 H   0  0  0  0  0  0
  -24.5890  -30.7096   25.7801 H   0  0  0  0  0  0
  -24.8967  -32.2879   26.4954 H   0  0  0  0  0  0
  -25.8097  -30.8846   27.0201 H   0  0  0  0  0  0
  -26.2782  -29.6812   24.1169 H   0  0  0  0  0  0
  -27.4088  -29.7279   25.4503 H   0  0  0  0  0  0
  -27.8601  -30.4350   23.9159 H   0  0  0  0  0  0
  -27.2732  -33.3607   26.2043 H   0  0  0  0  0  0
  -28.3863  -32.6851   25.0245 H   0  0  0  0  0  0
  -28.0759  -31.8402   26.5329 H   0  0  0  0  0  0
  -28.2604  -38.0109   24.7551 H   0  0  0  0  0  0
  -28.1107  -36.2654   24.6221 H   0  0  0  0  0  0
  -27.2328  -37.1375   25.8860 H   0  0  0  0  0  0
  -20.9298  -29.8739   21.6952 H   0  0  0  0  0  0
  -26.0193  -38.2878   24.1444 H   0  0  0  0  0  0
  -27.4117  -23.3400   22.5245 H   0  0  0  0  0  0
  -30.7480  -19.6968   21.1437 H   0  0  0  0  0  0
  -29.8027  -20.0878   19.7618 H   0  0  0  0  0  0
  -29.0688  -18.0152   19.5348 H   0  0  0  0  0  0
  -28.3323  -17.9791   21.0840 H   0  0  0  0  0  0
  -27.5561  -23.8637   19.5365 H   0  0  0  0  0  0
  -29.1065  -24.4656   19.0750 H   0  0  0  0  0  0
  -30.2225  -23.2492   20.9913 H   0  0  0  0  0  0
  -29.6415  -22.3243   19.6435 H   0  0  0  0  0  0
  -30.5421  -17.2123   22.1069 H   0  0  0  0  0  0
  -31.2615  -17.2321   20.5228 H   0  0  0  0  0  0
  -29.2737  -25.4716   21.4965 H   0  0  0  0  0  0
  -27.5403  -25.3475   21.5121 H   0  0  0  0  0  0
  -28.9225  -15.4419   21.1418 H   0  0  0  0  0  0
  1 25  1  0  0  0
  1 30  2  0  0  0
  1 82  1  0  0  0
  2  3  1  0  0  0
  2 25  1  0  0  0
  2 84  1  0  0  0
  2 85  1  0  0  0
  3  4  1  0  0  0
  3 86  1  0  0  0
  3 87  1  0  0  0
  4  5  1  0  0  0
  4 88  1  0  0  0
  4 89  1  0  0  0
  5  6  1  0  0  0
  5 26  1  0  0  0
  5 90  1  0  0  0
  6 25  1  0  0  0
  6 91  1  0  0  0
  6 92  1  0  0  0
  7  8  2  0  0  0
  7 26  1  0  0  0
  7 29  1  0  0  0
  8  9  1  0  0  0
  8 22  1  0  0  0
  9 10  1  0  0  0
  9 27  2  0  0  0
 10 11  2  0  0  0
 10 15  1  0  0  0
 11 12  1  0  0  0
 11 93  1  0  0  0
 12 13  2  0  0  0
 12 94  1  0  0  0
 13 14  1  0  0  0
 13 31  1  0  0  0
 14 15  2  0  0  0
 14 95  1  0  0  0
 15 96  1  0  0  0
 16 17  2  0  0  0
 16 21  1  0  0  0
 16 31  1  0  0  0
 17 18  1  0  0  0
 17 97  1  0  0  0
 18 19  2  0  0  0
 18 98  1  0  0  0
 19 20  1  0  0  0
 19 24  1  0  0  0
 20 21  2  0  0  0
 20 99  1  0  0  0
 21 23  1  0  0  0
 22 28  1  0  0  0
 22 32  2  0  0  0
 26 27  1  0  0  0
 28100  1  0  0  0
 28101  1  0  0  0
 29102  1  0  0  0
 29103  1  0  0  0
 33 34  1  0  0  0
 33 66  1  0  0  0
 33 70  2  0  0  0
 34 36  1  0  0  0
 34 59  1  0  0  0
 34104  1  0  0  0
 35 44  2  0  0  0
 35 45  1  0  0  0
 35 68  1  0  0  0
 36 56  1  0  0  0
 36105  1  0  0  0
 37 39  1  0  0  0
 37 47  1  0  0  0
 37 66  1  0  0  0
 37106  1  0  0  0
 38 43  2  0  0  0
 38 46  1  0  0  0
 38 47  1  0  0  0
 39 64  1  0  0  0
 39 67  2  0  0  0
 40 52  1  0  0  0
 40 53  2  0  0  0
 40 58  1  0  0  0
 41107  1  0  0  0
 41108  1  0  0  0
 41109  1  0  0  0
 41 48  1  0  0  0
 42 43  1  0  0  0
 42 66  1  0  0  0
 42110  1  0  0  0
 42111  1  0  0  0
 43 44  1  0  0  0
 44112  1  0  0  0
 45 46  2  0  0  0
 45113  1  0  0  0
 46114  1  0  0  0
 47115  1  0  0  0
 47116  1  0  0  0
 48 56  1  0  0  0
 48 65  1  0  0  0
 48117  1  0  0  0
 49 50  1  0  0  0
 49 53  1  0  0  0
 49 64  1  0  0  0
 49118  1  0  0  0
 50 51  1  0  0  0
 50119  1  0  0  0
 50120  1  0  0  0
 51 52  1  0  0  0
 51121  1  0  0  0
 51122  1  0  0  0
 52123  1  0  0  0
 52124  1  0  0  0
 53 54  1  0  0  0
 54 55  2  0  0  0
 54125  1  0  0  0
 55 57  1  0  0  0
 55126  1  0  0  0
 56 69  2  0  0  0
 57 58  2  0  0  0
 57127  1  0  0  0
 58128  1  0  0  0
 59 60  1  0  0  0
 59 61  1  0  0  0
 59 62  1  0  0  0
 60129  1  0  0  0
 60130  1  0  0  0
 60131  1  0  0  0
 61132  1  0  0  0
 61133  1  0  0  0
 61134  1  0  0  0
 62135  1  0  0  0
 62136  1  0  0  0
 62137  1  0  0  0
 63 65  1  0  0  0
 63138  1  0  0  0
 63139  1  0  0  0
 63140  1  0  0  0
 64141  1  0  0  0
 65142  1  0  0  0
 68 79  1  0  0  0
 71 80  2  0  0  0
 71 81  1  0  0  0
 71143  1  0  0  0
 72 73  2  0  0  0
 72 74  1  0  0  0
 72 81  1  0  0  0
 73 80  1  0  0  0
 73 83  1  0  0  0
 74 75  1  0  0  0
 74144  1  0  0  0
 74145  1  0  0  0
 75 78  1  0  0  0
 75146  1  0  0  0
 75147  1  0  0  0
 76 77  1  0  0  0
 76 79  1  0  0  0
 76148  1  0  0  0
 76149  1  0  0  0
 77 81  1  0  0  0
 77150  1  0  0  0
 77151  1  0  0  0
 78 82  1  0  0  0
 78152  1  0  0  0
 78153  1  0  0  0
 79154  1  0  0  0
 79155  1  0  0  0
 82156  1  0  0  0
M  ISO  4   1 100  68 101  79 101  82 100
M  END
> <chiral flag>
0

> <version>
0

> <s_m_source_file>
/data/baiqing/PycharmProjects/Reinvent-master-3.2/result/LINK_invent/BTK/process_docking_weight1_custom_sum_contain_oxygen_bond_distance_aromatic_linkinvent_7_9_3/rearranged_h_0043.sdf

> <i_m_source_file_index>
53

> <r_mmod_Potential_Energy-OPLS-2005>
-4.10923147201538

> <r_mmod_Stretch_Energy-OPLS-2005>
51.6321296691895

> <r_mmod_Bend_Energy-OPLS-2005>
121.720764160156

> <r_mmod_Torsional_Energy-OPLS-2005>
256.508392333984

> <r_mmod_Improper_Torsional_Energy-OPLS-2005>
4.8177490234375

> <r_mmod_Van_der_Waal_Energy-OPLS-2005>
118.38932800293

> <r_mmod_Electrostatic_Energy-OPLS-2005>
-364.784698486328

> <r_mmod_Solvation_Energy-OPLS-2005>
-219.112121582031

> <b_mmod_Minimization_Converged-OPLS-2005>
0

> <r_mmod_RMS_Derivative-OPLS-2005>
5.30907773971558

$$$$
53
                    3D
 Structure written by MMmdl.
160168  0  0  1  0            999 V2000
  -30.7214  -14.3795   20.7074 C   0  0  0  0  0  0
  -30.4192  -12.2947   19.4162 C   0  0  0  0  0  0
  -29.4965  -12.5480   18.2091 C   0  0  0  0  0  0
  -28.0169  -12.3818   18.6116 C   0  0  0  0  0  0
  -27.6639  -13.1959   19.8814 C   0  0  2  0  0  0
  -28.6888  -12.9199   21.0024 C   0  0  0  0  0  0
  -25.2564  -13.8143   20.5627 C   0  0  0  0  0  0
  -24.1799  -13.0421   20.9127 C   0  0  0  0  0  0
  -24.6338  -11.6883   20.8674 C   0  0  0  0  0  0
  -23.8998  -10.4273   21.0375 C   0  0  0  0  0  0
  -24.3559   -9.4195   21.9175 C   0  0  0  0  0  0
  -23.6254   -8.2212   22.0754 C   0  0  0  0  0  0
  -22.4245   -8.0247   21.3528 C   0  0  0  0  0  0
  -21.9850   -9.0205   20.4629 C   0  0  0  0  0  0
  -22.7154  -10.2098   20.3032 C   0  0  0  0  0  0
  -21.6858   -6.0701   22.5267 C   0  0  0  0  0  0
  -21.4053   -6.5612   23.8199 C   0  0  0  0  0  0
  -21.3664   -5.6763   24.9160 C   0  0  0  0  0  0
  -21.6027   -4.3018   24.7220 C   0  0  0  0  0  0
  -21.8816   -3.8115   23.4340 C   0  0  0  0  0  0
  -21.9207   -4.6937   22.3397 C   0  0  0  0  0  0
  -22.7821  -13.5235   21.1794 C   0  0  0  0  0  0
  -22.1670   -4.2112   21.0979 F   0  0  0  0  0  0
  -21.5600   -3.4509   25.7735 F   0  0  0  0  0  0
  -30.0367  -13.2273   20.4849 N   0  0  0  0  0  0
  -26.2995  -12.9302   20.3307 N   0  0  0  0  0  0
  -25.9244  -11.6473   20.5667 N   0  0  0  0  0  0
  -22.0484  -12.8252   22.0381 N   0  0  0  0  0  0
  -25.4256  -15.1869   20.4072 N   0  0  0  0  0  0
  -31.7370  -14.7076   20.0875 O   0  0  0  0  0  0
  -21.6618   -6.8835   21.4228 O   0  0  0  0  0  0
  -22.3505  -14.5525   20.6621 O   0  0  0  0  0  0
  -24.6119  -31.8697   23.2140 C   0  0  0  0  0  0
  -25.9048  -32.4812   23.8392 C   0  0  1  0  0  0
  -27.2320  -27.4855   20.0877 C   0  0  0  0  0  0
  -25.5924  -33.8621   24.2319 N   0  0  0  0  0  0
  -23.3944  -30.4961   21.5505 C   0  0  2  0  0  0
  -24.8390  -28.9653   20.1077 C   0  0  0  0  0  0
  -22.7390  -29.4690   22.5021 C   0  0  0  0  0  0
  -18.0258  -28.1343   22.8501 C   0  0  0  0  0  0
  -24.1475  -36.7332   23.2619 C   0  0  0  0  0  0
  -25.9139  -30.8545   21.3503 C   0  0  0  0  0  0
  -25.9948  -29.4927   20.7000 C   0  0  0  0  0  0
  -27.1959  -28.7556   20.6909 C   0  0  0  0  0  0
  -26.0704  -26.9601   19.4854 C   0  0  0  0  0  0
  -24.8701  -27.6977   19.4985 C   0  0  0  0  0  0
  -23.5966  -29.8250   20.1625 C   0  0  0  0  0  0
  -25.4089  -36.3103   24.0321 C   0  0  1  0  0  0
  -20.5837  -28.3695   23.1347 C   0  0  2  0  0  0
  -20.6805  -26.9437   22.5474 C   0  0  0  0  0  0
  -19.5817  -26.6374   21.5263 C   0  0  0  0  0  0
  -18.1974  -26.7875   22.1649 C   0  0  0  0  0  0
  -19.1486  -28.8830   23.2894 C   0  0  0  0  0  0
  -18.9425  -30.1455   23.8843 C   0  0  0  0  0  0
  -17.6433  -30.6575   24.0504 C   0  0  0  0  0  0
  -25.9041  -34.9479   23.5120 C   0  0  0  0  0  0
  -16.5323  -29.9062   23.6276 C   0  0  0  0  0  0
  -16.7254  -28.6475   23.0298 C   0  0  0  0  0  0
  -26.4487  -31.6568   25.0688 C   0  0  0  0  0  0
  -25.3770  -31.3703   26.1447 C   0  0  0  0  0  0
  -27.0308  -30.3017   24.6007 C   0  0  0  0  0  0
  -27.6044  -32.4290   25.7448 C   0  0  0  0  0  0
  -27.5559  -37.1822   24.8457 C   0  0  0  0  0  0
  -21.4113  -29.3100   22.3805 N   0  0  0  0  0  0
  -26.4279  -37.3790   23.9397 N   0  0  0  0  0  0
  -24.6591  -31.0867   22.0996 N   0  0  0  0  0  0
  -23.4189  -28.8199   23.3003 O   0  0  0  0  0  0
  -28.3795  -26.7428   20.1357 O   0  0  0  0  0  0
  -26.5583  -34.8921   22.4672 O   0  0  0  0  0  0
  -23.5339  -32.1473   23.7596 O   0  0  0  0  0  0
  -28.4403  -19.9813   20.2137 C   0  0  0  0  0  0
  -29.0754  -19.9882   21.4335 C   0  0  0  0  0  0
  -28.0085  -21.9348   21.1659 C   0  0  0  0  0  0
  -29.2627  -21.7637   23.2759 C   0  0  0  0  0  0
  -29.9231  -18.9395   22.0959 C   0  0  0  0  0  0
  -27.5002  -23.3280   21.3691 C   0  0  0  0  0  0
  -29.8042  -17.5609   21.4140 C   0  0  0  0  0  0
  -28.2868  -24.3484   20.5320 C   0  0  0  0  0  0
  -30.6142  -16.4641   22.1319 C   0  0  0  0  0  0
  -28.3180  -25.7484   21.1566 C   0  0  0  0  0  0
  -28.7982  -21.2216   21.9888 N   0  0  0  0  0  0
  -27.8023  -21.1819   20.0827 N   0  3  0  0  0  0
  -30.2027  -15.1346   21.6885 N   0  0  0  0  0  0
  -31.4679  -12.4001   19.1352 H   0  0  0  0  0  0
  -30.3099  -11.2697   19.7755 H   0  0  0  0  0  0
  -29.7489  -11.8684   17.3961 H   0  0  0  0  0  0
  -29.6621  -13.5612   17.8376 H   0  0  0  0  0  0
  -27.8379  -11.3219   18.7950 H   0  0  0  0  0  0
  -27.3672  -12.6701   17.7806 H   0  0  0  0  0  0
  -27.7252  -14.2514   19.6191 H   0  0  0  0  0  0
  -28.6487  -11.8696   21.2948 H   0  0  0  0  0  0
  -28.4163  -13.4713   21.9036 H   0  0  0  0  0  0
  -25.2711   -9.5698   22.4724 H   0  0  0  0  0  0
  -23.9966   -7.4628   22.7489 H   0  0  0  0  0  0
  -21.0756   -8.8686   19.8954 H   0  0  0  0  0  0
  -22.3584  -10.9612   19.6112 H   0  0  0  0  0  0
  -21.2083   -7.6136   23.9701 H   0  0  0  0  0  0
  -21.1491   -6.0500   25.9054 H   0  0  0  0  0  0
  -22.0612   -2.7584   23.2850 H   0  0  0  0  0  0
  -22.4106  -11.9900   22.4732 H   0  0  0  0  0  0
  -21.1108  -13.1283   22.2613 H   0  0  0  0  0  0
  -24.6529  -15.8401   20.4866 H   0  0  0  0  0  0
  -26.2781  -15.6235   20.0765 H   0  0  0  0  0  0
  -26.7120  -32.5542   23.1162 H   0  0  0  0  0  0
  -25.0128  -33.9783   25.0498 H   0  0  0  0  0  0
  -22.6794  -31.3091   21.4156 H   0  0  0  0  0  0
  -23.3711  -35.9699   23.3297 H   0  0  0  0  0  0
  -24.3546  -36.8933   22.2029 H   0  0  0  0  0  0
  -23.7274  -37.6559   23.6636 H   0  0  0  0  0  0
  -26.0014  -31.6141   20.5735 H   0  0  0  0  0  0
  -26.8123  -30.9206   21.9515 H   0  0  0  0  0  0
  -28.0846  -29.1519   21.1614 H   0  0  0  0  0  0
  -26.0871  -25.9845   19.0191 H   0  0  0  0  0  0
  -23.9830  -27.2871   19.0373 H   0  0  0  0  0  0
  -23.6974  -30.5946   19.3969 H   0  0  0  0  0  0
  -22.7216  -29.2377   19.8752 H   0  0  0  0  0  0
  -25.1264  -36.1957   25.0820 H   0  0  0  0  0  0
  -20.9869  -28.3283   24.1493 H   0  0  0  0  0  0
  -20.5802  -26.2306   23.3664 H   0  0  0  0  0  0
  -21.6670  -26.7509   22.1230 H   0  0  0  0  0  0
  -19.7027  -25.6285   21.1309 H   0  0  0  0  0  0
  -19.6735  -27.3176   20.6783 H   0  0  0  0  0  0
  -17.4295  -26.6485   21.4035 H   0  0  0  0  0  0
  -18.0404  -25.9972   22.9016 H   0  0  0  0  0  0
  -19.7916  -30.7286   24.2136 H   0  0  0  0  0  0
  -17.4992  -31.6255   24.5129 H   0  0  0  0  0  0
  -15.5316  -30.2949   23.7574 H   0  0  0  0  0  0
  -15.8686  -28.0766   22.6948 H   0  0  0  0  0  0
  -24.5927  -30.7050   25.7807 H   0  0  0  0  0  0
  -24.9017  -32.2909   26.4870 H   0  0  0  0  0  0
  -25.8161  -30.8897   27.0206 H   0  0  0  0  0  0
  -26.2853  -29.6756   24.1099 H   0  0  0  0  0  0
  -27.4145  -29.7224   25.4415 H   0  0  0  0  0  0
  -27.8634  -30.4303   23.9074 H   0  0  0  0  0  0
  -27.2617  -33.3557   26.2065 H   0  0  0  0  0  0
  -28.3849  -32.6924   25.0286 H   0  0  0  0  0  0
  -28.0728  -31.8411   26.5356 H   0  0  0  0  0  0
  -28.2606  -38.0089   24.7474 H   0  0  0  0  0  0
  -28.1030  -36.2639   24.6322 H   0  0  0  0  0  0
  -27.2280  -37.1494   25.8859 H   0  0  0  0  0  0
  -20.9266  -29.8866   21.7066 H   0  0  0  0  0  0
  -26.0153  -38.2857   24.1440 H   0  0  0  0  0  0
  -28.4001  -19.2229   19.4454 H   0  0  0  0  0  0
  -29.9252  -21.0629   23.7827 H   0  0  0  0  0  0
  -28.4020  -21.9672   23.9154 H   0  0  0  0  0  0
  -29.8043  -22.6924   23.0921 H   0  0  0  0  0  0
  -29.6247  -18.8588   23.1431 H   0  0  0  0  0  0
  -30.9615  -19.2746   22.0936 H   0  0  0  0  0  0
  -27.5458  -23.5512   22.4343 H   0  0  0  0  0  0
  -26.4432  -23.3346   21.0959 H   0  0  0  0  0  0
  -30.1379  -17.6322   20.3776 H   0  0  0  0  0  0
  -28.7523  -17.2710   21.3875 H   0  0  0  0  0  0
  -27.8745  -24.3670   19.5230 H   0  0  0  0  0  0
  -29.3196  -24.0231   20.4203 H   0  0  0  0  0  0
  -30.4303  -16.5213   23.2080 H   0  0  0  0  0  0
  -31.6875  -16.6158   21.9926 H   0  0  0  0  0  0
  -27.4511  -25.8899   21.8119 H   0  0  0  0  0  0
  -29.1916  -25.8482   21.8016 H   0  0  0  0  0  0
  -27.2743  -21.4689   19.2693 H   0  0  0  0  0  0
  -29.4082  -14.7344   22.1676 H   0  0  0  0  0  0
  1 25  1  0  0  0
  1 30  2  0  0  0
  1 83  1  0  0  0
  2  3  1  0  0  0
  2 25  1  0  0  0
  2 84  1  0  0  0
  2 85  1  0  0  0
  3  4  1  0  0  0
  3 86  1  0  0  0
  3 87  1  0  0  0
  4  5  1  0  0  0
  4 88  1  0  0  0
  4 89  1  0  0  0
  5  6  1  0  0  0
  5 26  1  0  0  0
  5 90  1  0  0  0
  6 25  1  0  0  0
  6 91  1  0  0  0
  6 92  1  0  0  0
  7  8  2  0  0  0
  7 26  1  0  0  0
  7 29  1  0  0  0
  8  9  1  0  0  0
  8 22  1  0  0  0
  9 10  1  0  0  0
  9 27  2  0  0  0
 10 11  2  0  0  0
 10 15  1  0  0  0
 11 12  1  0  0  0
 11 93  1  0  0  0
 12 13  2  0  0  0
 12 94  1  0  0  0
 13 14  1  0  0  0
 13 31  1  0  0  0
 14 15  2  0  0  0
 14 95  1  0  0  0
 15 96  1  0  0  0
 16 17  2  0  0  0
 16 21  1  0  0  0
 16 31  1  0  0  0
 17 18  1  0  0  0
 17 97  1  0  0  0
 18 19  2  0  0  0
 18 98  1  0  0  0
 19 20  1  0  0  0
 19 24  1  0  0  0
 20 21  2  0  0  0
 20 99  1  0  0  0
 21 23  1  0  0  0
 22 28  1  0  0  0
 22 32  2  0  0  0
 26 27  1  0  0  0
 28100  1  0  0  0
 28101  1  0  0  0
 29102  1  0  0  0
 29103  1  0  0  0
 33 34  1  0  0  0
 33 66  1  0  0  0
 33 70  2  0  0  0
 34 36  1  0  0  0
 34 59  1  0  0  0
 34104  1  0  0  0
 35 44  2  0  0  0
 35 45  1  0  0  0
 35 68  1  0  0  0
 36 56  1  0  0  0
 36105  1  0  0  0
 37 39  1  0  0  0
 37 47  1  0  0  0
 37 66  1  0  0  0
 37106  1  0  0  0
 38 43  2  0  0  0
 38 46  1  0  0  0
 38 47  1  0  0  0
 39 64  1  0  0  0
 39 67  2  0  0  0
 40 52  1  0  0  0
 40 53  2  0  0  0
 40 58  1  0  0  0
 41107  1  0  0  0
 41108  1  0  0  0
 41109  1  0  0  0
 41 48  1  0  0  0
 42 43  1  0  0  0
 42 66  1  0  0  0
 42110  1  0  0  0
 42111  1  0  0  0
 43 44  1  0  0  0
 44112  1  0  0  0
 45 46  2  0  0  0
 45113  1  0  0  0
 46114  1  0  0  0
 47115  1  0  0  0
 47116  1  0  0  0
 48 56  1  0  0  0
 48 65  1  0  0  0
 48117  1  0  0  0
 49 50  1  0  0  0
 49 53  1  0  0  0
 49 64  1  0  0  0
 49118  1  0  0  0
 50 51  1  0  0  0
 50119  1  0  0  0
 50120  1  0  0  0
 51 52  1  0  0  0
 51121  1  0  0  0
 51122  1  0  0  0
 52123  1  0  0  0
 52124  1  0  0  0
 53 54  1  0  0  0
 54 55  2  0  0  0
 54125  1  0  0  0
 55 57  1  0  0  0
 55126  1  0  0  0
 56 69  2  0  0  0
 57 58  2  0  0  0
 57127  1  0  0  0
 58128  1  0  0  0
 59 60  1  0  0  0
 59 61  1  0  0  0
 59 62  1  0  0  0
 60129  1  0  0  0
 60130  1  0  0  0
 60131  1  0  0  0
 61132  1  0  0  0
 61133  1  0  0  0
 61134  1  0  0  0
 62135  1  0  0  0
 62136  1  0  0  0
 62137  1  0  0  0
 63 65  1  0  0  0
 63138  1  0  0  0
 63139  1  0  0  0
 63140  1  0  0  0
 64141  1  0  0  0
 65142  1  0  0  0
 68 80  1  0  0  0
 71 72  2  0  0  0
 71 82  1  0  0  0
 71143  1  0  0  0
 72 75  1  0  0  0
 72 81  1  0  0  0
 73 76  1  0  0  0
 73 81  1  0  0  0
 73 82  2  0  0  0
 74 81  1  0  0  0
 74144  1  0  0  0
 74145  1  0  0  0
 74146  1  0  0  0
 75 77  1  0  0  0
 75147  1  0  0  0
 75148  1  0  0  0
 76 78  1  0  0  0
 76149  1  0  0  0
 76150  1  0  0  0
 77 79  1  0  0  0
 77151  1  0  0  0
 77152  1  0  0  0
 78 80  1  0  0  0
 78153  1  0  0  0
 78154  1  0  0  0
 79 83  1  0  0  0
 79155  1  0  0  0
 79156  1  0  0  0
 80157  1  0  0  0
 80158  1  0  0  0
 82159  1  0  0  0
 83160  1  0  0  0
M  CHG  1  82   1
M  ISO  4   1 100  68 101  80 101  83 100
M  END
> <chiral flag>
0

> <version>
0

> <s_m_source_file>
/data/baiqing/PycharmProjects/Reinvent-master-3.2/result/LINK_invent/BTK/process_docking_weight1_custom_sum_contain_oxygen_bond_distance_aromatic_linkinvent_7_9_3/rearranged_h_0043.sdf

> <i_m_source_file_index>
54

> <r_mmod_Potential_Energy-OPLS-2005>
-175.295303344727

> <r_mmod_Stretch_Energy-OPLS-2005>
30.3763332366943

> <r_mmod_Bend_Energy-OPLS-2005>
85.0404434204102

> <r_mmod_Torsional_Energy-OPLS-2005>
233.350051879883

> <r_mmod_Improper_Torsional_Energy-OPLS-2005>
2.15868973731995

> <r_mmod_Van_der_Waal_Energy-OPLS-2005>
131.734832763672

> <r_mmod_Electrostatic_Energy-OPLS-2005>
-238.131469726562

> <r_mmod_Solvation_Energy-OPLS-2005>
-428.744445800781

> <b_mmod_Minimization_Converged-OPLS-2005>
0

> <r_mmod_RMS_Derivative-OPLS-2005>
4.46930122375488

$$$$
54
                    3D
 Structure written by MMmdl.
168176  0  0  1  0            999 V2000
  -29.4977  -15.5637   20.9147 C   0  0  0  0  0  0
  -30.2957  -13.1769   19.7649 C   0  0  0  0  0  0
  -29.5416  -12.7477   18.4530 C   0  0  0  0  0  0
  -28.0968  -12.3077   18.7535 C   0  0  0  0  0  0
  -27.5053  -13.2287   19.8403 C   0  0  2  0  0  0
  -28.3722  -13.3062   21.0886 C   0  0  0  0  0  0
  -25.1648  -13.7903   20.5424 C   0  0  0  0  0  0
  -24.1178  -13.0155   20.9216 C   0  0  0  0  0  0
  -24.5896  -11.6688   20.8738 C   0  0  0  0  0  0
  -23.8762  -10.4114   21.0464 C   0  0  0  0  0  0
  -24.3446   -9.4096   21.9223 C   0  0  0  0  0  0
  -23.6191   -8.2109   22.0765 C   0  0  0  0  0  0
  -22.4178   -8.0142   21.3543 C   0  0  0  0  0  0
  -21.9743   -9.0071   20.4645 C   0  0  0  0  0  0
  -22.6994  -10.1964   20.3073 C   0  0  0  0  0  0
  -21.6807   -6.0657   22.5292 C   0  0  0  0  0  0
  -21.3981   -6.5596   23.8214 C   0  0  0  0  0  0
  -21.3656   -5.6768   24.9188 C   0  0  0  0  0  0
  -21.6046   -4.3031   24.7248 C   0  0  0  0  0  0
  -21.8826   -3.8103   23.4378 C   0  0  0  0  0  0
  -21.9176   -4.6898   22.3423 C   0  0  0  0  0  0
  -22.7317  -13.5020   21.1998 C   0  0  0  0  0  0
  -22.1656   -4.2092   21.0999 F   0  0  0  0  0  0
  -21.5636   -3.4527   25.7767 F   0  0  0  0  0  0
  -29.4516  -14.1299   20.6580 N   0  0  0  0  0  0
  -26.1849  -12.9069   20.2634 N   0  0  0  0  0  0
  -25.8689  -11.6258   20.5425 N   0  0  0  0  0  0
  -22.0058  -12.8057   22.0641 N   0  0  0  0  0  0
  -25.3122  -15.1604   20.3859 N   0  0  0  0  0  0
  -30.7140  -15.8151   20.6394 O   0  0  0  0  0  0
  -21.6568   -6.8748   21.4237 O   0  0  0  0  0  0
  -22.3066  -14.5372   20.6879 O   0  0  0  0  0  0
  -24.6898  -31.9494   23.2614 C   0  0  0  0  0  0
  -25.9689  -32.5230   23.9038 C   0  0  1  0  0  0
  -26.0732  -27.3309   20.3473 C   0  0  0  0  0  0
  -25.6455  -33.8971   24.2861 N   0  0  0  0  0  0
  -23.5882  -30.6040   21.5771 C   0  0  2  0  0  0
  -25.1064  -29.5644   19.6884 C   0  0  0  0  0  0
  -23.2853  -29.3965   22.5582 C   0  0  0  0  0  0
  -18.0227  -27.3007   22.3563 C   0  0  0  0  0  0
  -24.1530  -36.7382   23.2569 C   0  0  0  0  0  0
  -26.1026  -30.8731   21.5167 C   0  0  0  0  0  0
  -26.0695  -29.6236   20.6789 C   0  0  0  0  0  0
  -26.7818  -28.4395   20.9069 C   0  0  0  0  0  0
  -25.9959  -27.3843   18.9919 C   0  0  0  0  0  0
  -25.2403  -28.5328   18.6924 C   0  0  0  0  0  0
  -23.8942  -30.4099   20.0038 C   0  0  0  0  0  0
  -25.4129  -36.3275   24.0341 C   0  0  1  0  0  0
  -21.7460  -27.5516   23.0860 C   0  0  2  0  0  0
  -21.8450  -25.9157   21.8183 C   0  0  0  0  0  0
  -20.1527  -25.1492   20.7040 C   0  0  0  0  0  0
  -18.2035  -25.9324   21.0998 C   0  0  0  0  0  0
  -20.2812  -28.2651   23.4609 C   0  0  0  0  0  0
  -19.8304  -29.6997   24.4053 C   0  0  0  0  0  0
  -18.2082  -30.2405   24.5087 C   0  0  0  0  0  0
  -25.9123  -34.9649   23.5264 C   0  0  0  0  0  0
  -16.8362  -29.5784   23.8162 C   0  0  0  0  0  0
  -16.6930  -28.2423   22.8304 C   0  0  0  0  0  0
  -26.4721  -31.6778   25.1323 C   0  0  0  0  0  0
  -25.3748  -31.3849   26.1792 C   0  0  0  0  0  0
  -27.0664  -30.3168   24.6968 C   0  0  0  0  0  0
  -27.6200  -32.4442   25.8232 C   0  0  0  0  0  0
  -27.5606  -37.1906   24.8457 C   0  0  0  0  0  0
  -22.0959  -28.9272   22.7204 N   0  0  0  0  0  0
  -26.4324  -37.3926   23.9402 N   0  0  0  0  0  0
  -24.7985  -31.2086   22.1393 N   0  0  0  0  0  0
  -24.1216  -28.8464   23.2505 O   0  0  0  0  0  0
  -24.6622  -27.2861   20.7453 O   0  0  0  0  0  0
  -26.5405  -34.8945   22.4663 O   0  0  0  0  0  0
  -23.5916  -32.1967   23.7838 O   0  0  0  0  0  0
  -20.0653  -27.3401   21.3697 C   0  0  0  0  0  0
  -18.4349  -27.7816   24.4345 C   0  0  0  0  0  0
  -19.7961  -25.9948   22.9111 C   0  0  0  0  0  0
  -19.4176  -26.2270   24.3043 C   0  0  0  0  0  0
  -19.7441  -28.7373   21.1769 C   0  0  0  0  0  0
  -19.4125  -24.3795   22.9652 C   0  0  0  0  0  0
  -20.7389  -24.9379   24.9638 C   0  0  0  0  0  0
  -21.3364  -28.9013   20.3200 C   0  0  0  0  0  0
  -28.0797  -16.9337   21.1880 C   0  0  0  0  0  0
  -27.0089  -18.2739   22.3404 C   0  0  0  0  0  0
  -25.4783  -19.6707   22.3877 C   0  0  0  0  0  0
  -22.3484  -23.7060   24.4176 C   0  0  0  0  0  0
  -24.4867  -21.1109   23.4925 C   0  0  0  0  0  0
  -22.9808  -27.7714   20.1271 C   0  0  0  0  0  0
  -18.7582  -29.3289   22.3896 N   0  0  0  0  0  0
  -23.0084  -22.2385   23.4971 N   0  3  0  0  0  0
  -31.2356  -13.6574   19.4923 H   0  0  0  0  0  0
  -30.5862  -12.2916   20.3339 H   0  0  0  0  0  0
  -30.0876  -11.9629   17.9280 H   0  0  0  0  0  0
  -29.5131  -13.6044   17.7778 H   0  0  0  0  0  0
  -28.1111  -11.2773   19.1115 H   0  0  0  0  0  0
  -27.4873  -12.3185   17.8492 H   0  0  0  0  0  0
  -27.4353  -14.2112   19.3690 H   0  0  0  0  0  0
  -28.6746  -12.3222   21.4534 H   0  0  0  0  0  0
  -27.8487  -13.7967   21.9120 H   0  0  0  0  0  0
  -25.2591   -9.5635   22.4779 H   0  0  0  0  0  0
  -23.9930   -7.4502   22.7471 H   0  0  0  0  0  0
  -21.0682   -8.8541   19.8954 H   0  0  0  0  0  0
  -22.3441  -10.9499   19.6189 H   0  0  0  0  0  0
  -21.1968   -7.6107   23.9698 H   0  0  0  0  0  0
  -21.1483   -6.0509   25.9089 H   0  0  0  0  0  0
  -22.0614   -2.7566   23.2893 H   0  0  0  0  0  0
  -22.3699  -11.9691   22.4954 H   0  0  0  0  0  0
  -21.0726  -13.1130   22.2986 H   0  0  0  0  0  0
  -24.5481  -15.8066   20.5480 H   0  0  0  0  0  0
  -26.1354  -15.6076   20.0081 H   0  0  0  0  0  0
  -26.7949  -32.5836   23.1972 H   0  0  0  0  0  0
  -25.0931  -34.0236   25.1213 H   0  0  0  0  0  0
  -22.7648  -31.3181   21.6485 H   0  0  0  0  0  0
  -23.3813  -35.9699   23.3270 H   0  0  0  0  0  0
  -24.3667  -36.8913   22.1979 H   0  0  0  0  0  0
  -23.7243  -37.6604   23.6499 H   0  0  0  0  0  0
  -26.4116  -31.7066   20.8837 H   0  0  0  0  0  0
  -26.9143  -30.7252   22.2138 H   0  0  0  0  0  0
  -27.4178  -28.3351   21.7745 H   0  0  0  0  0  0
  -25.8682  -26.5066   18.3754 H   0  0  0  0  0  0
  -24.6448  -28.5449   17.7906 H   0  0  0  0  0  0
  -24.1808  -31.4026   19.6516 H   0  0  0  0  0  0
  -23.0960  -30.2264   19.2990 H   0  0  0  0  0  0
  -25.1264  -36.2223   25.0829 H   0  0  0  0  0  0
  -22.2436  -27.3009   24.0250 H   0  0  0  0  0  0
  -22.0103  -25.1061   22.5017 H   0  0  0  0  0  0
  -22.8153  -25.7233   21.3776 H   0  0  0  0  0  0
  -20.1734  -24.0593   20.6541 H   0  0  0  0  0  0
  -20.3531  -25.3108   19.6408 H   0  0  0  0  0  0
  -17.8611  -26.3685   20.1594 H   0  0  0  0  0  0
  -17.4406  -25.1739   21.2736 H   0  0  0  0  0  0
  -20.6049  -30.2587   24.9096 H   0  0  0  0  0  0
  -18.0501  -31.1309   25.1004 H   0  0  0  0  0  0
  -15.9151  -30.1043   24.0202 H   0  0  0  0  0  0
  -15.7167  -27.9951   22.4354 H   0  0  0  0  0  0
  -24.6051  -30.7155   25.7932 H   0  0  0  0  0  0
  -24.8817  -32.2986   26.5124 H   0  0  0  0  0  0
  -25.7902  -30.9036   27.0656 H   0  0  0  0  0  0
  -26.3484  -29.6944   24.1664 H   0  0  0  0  0  0
  -27.3872  -29.7376   25.5637 H   0  0  0  0  0  0
  -27.9535  -30.4387   24.0747 H   0  0  0  0  0  0
  -27.2778  -33.3712   26.2848 H   0  0  0  0  0  0
  -28.4102  -32.7045   25.1179 H   0  0  0  0  0  0
  -28.0780  -31.8521   26.6166 H   0  0  0  0  0  0
  -28.2599  -38.0226   24.7562 H   0  0  0  0  0  0
  -28.1139  -36.2765   24.6251 H   0  0  0  0  0  0
  -27.2318  -37.1503   25.8854 H   0  0  0  0  0  0
  -21.3094  -29.4766   22.4040 H   0  0  0  0  0  0
  -26.0237  -38.3011   24.1427 H   0  0  0  0  0  0
  -20.2166  -27.1786   20.3096 H   0  0  0  0  0  0
  -18.0544  -28.0685   25.4098 H   0  0  0  0  0  0
  -18.7426  -23.9440   22.2331 H   0  0  0  0  0  0
  -18.8090  -24.0694   23.8240 H   0  0  0  0  0  0
  -20.2773  -23.7219   22.8942 H   0  0  0  0  0  0
  -20.1291  -24.2762   25.5817 H   0  0  0  0  0  0
  -21.2170  -25.5602   25.7196 H   0  0  0  0  0  0
  -21.4898  -29.9617   20.4587 H   0  0  0  0  0  0
  -20.9846  -28.9212   19.2861 H   0  0  0  0  0  0
  -28.5007  -17.6583   20.4907 H   0  0  0  0  0  0
  -27.3054  -16.4907   20.5863 H   0  0  0  0  0  0
  -27.8188  -18.8434   22.7942 H   0  0  0  0  0  0
  -26.6918  -17.6137   23.1481 H   0  0  0  0  0  0
  -24.6389  -19.0520   22.0706 H   0  0  0  0  0  0
  -25.7108  -20.2498   21.4936 H   0  0  0  0  0  0
  -22.6119  -23.3494   25.4128 H   0  0  0  0  0  0
  -23.1376  -24.4289   24.2112 H   0  0  0  0  0  0
  -25.2839  -21.8181   23.7164 H   0  0  0  0  0  0
  -24.3281  -20.5964   24.4410 H   0  0  0  0  0  0
  -23.0693  -28.0430   19.0910 H   0  0  0  0  0  0
  -22.5920  -26.8293   19.7565 H   0  0  0  0  0  0
  -23.0168  -22.5807   22.5511 H   0  0  0  0  0  0
  -22.2382  -21.5902   23.5187 H   0  0  0  0  0  0
  1 25  1  0  0  0
  1 30  2  0  0  0
  1 79  1  0  0  0
  2  3  1  0  0  0
  2 25  1  0  0  0
  2 87  1  0  0  0
  2 88  1  0  0  0
  3  4  1  0  0  0
  3 89  1  0  0  0
  3 90  1  0  0  0
  4  5  1  0  0  0
  4 91  1  0  0  0
  4 92  1  0  0  0
  5  6  1  0  0  0
  5 26  1  0  0  0
  5 93  1  0  0  0
  6 25  1  0  0  0
  6 94  1  0  0  0
  6 95  1  0  0  0
  7  8  2  0  0  0
  7 26  1  0  0  0
  7 29  1  0  0  0
  8  9  1  0  0  0
  8 22  1  0  0  0
  9 10  1  0  0  0
  9 27  2  0  0  0
 10 11  2  0  0  0
 10 15  1  0  0  0
 11 12  1  0  0  0
 11 96  1  0  0  0
 12 13  2  0  0  0
 12 97  1  0  0  0
 13 14  1  0  0  0
 13 31  1  0  0  0
 14 15  2  0  0  0
 14 98  1  0  0  0
 15 99  1  0  0  0
 16 17  2  0  0  0
 16 21  1  0  0  0
 16 31  1  0  0  0
 17 18  1  0  0  0
 17100  1  0  0  0
 18 19  2  0  0  0
 18101  1  0  0  0
 19 20  1  0  0  0
 19 24  1  0  0  0
 20 21  2  0  0  0
 20102  1  0  0  0
 21 23  1  0  0  0
 22 28  1  0  0  0
 22 32  2  0  0  0
 26 27  1  0  0  0
 28103  1  0  0  0
 28104  1  0  0  0
 29105  1  0  0  0
 29106  1  0  0  0
 33 34  1  0  0  0
 33 66  1  0  0  0
 33 70  2  0  0  0
 34 36  1  0  0  0
 34 59  1  0  0  0
 34107  1  0  0  0
 35 44  2  0  0  0
 35 45  1  0  0  0
 35 68  1  0  0  0
 36 56  1  0  0  0
 36108  1  0  0  0
 37 39  1  0  0  0
 37 47  1  0  0  0
 37 66  1  0  0  0
 37109  1  0  0  0
 38 43  2  0  0  0
 38 46  1  0  0  0
 38 47  1  0  0  0
 39 64  1  0  0  0
 39 67  2  0  0  0
 40 52  1  0  0  0
 40 53  2  0  0  0
 40 58  1  0  0  0
 41110  1  0  0  0
 41111  1  0  0  0
 41112  1  0  0  0
 41 48  1  0  0  0
 42 43  1  0  0  0
 42 66  1  0  0  0
 42113  1  0  0  0
 42114  1  0  0  0
 43 44  1  0  0  0
 44115  1  0  0  0
 45 46  2  0  0  0
 45116  1  0  0  0
 46117  1  0  0  0
 47118  1  0  0  0
 47119  1  0  0  0
 48 56  1  0  0  0
 48 65  1  0  0  0
 48120  1  0  0  0
 49 50  1  0  0  0
 49 53  1  0  0  0
 49 64  1  0  0  0
 49121  1  0  0  0
 50 51  1  0  0  0
 50122  1  0  0  0
 50123  1  0  0  0
 51 52  1  0  0  0
 51124  1  0  0  0
 51125  1  0  0  0
 52126  1  0  0  0
 52127  1  0  0  0
 53 54  1  0  0  0
 54 55  2  0  0  0
 54128  1  0  0  0
 55 57  1  0  0  0
 55129  1  0  0  0
 56 69  2  0  0  0
 57 58  2  0  0  0
 57130  1  0  0  0
 58131  1  0  0  0
 59 60  1  0  0  0
 59 61  1  0  0  0
 59 62  1  0  0  0
 60132  1  0  0  0
 60133  1  0  0  0
 60134  1  0  0  0
 61135  1  0  0  0
 61136  1  0  0  0
 61137  1  0  0  0
 62138  1  0  0  0
 62139  1  0  0  0
 62140  1  0  0  0
 63 65  1  0  0  0
 63141  1  0  0  0
 63142  1  0  0  0
 63143  1  0  0  0
 64144  1  0  0  0
 65145  1  0  0  0
 68 84  1  0  0  0
 71 73  2  0  0  0
 71 75  1  0  0  0
 71146  1  0  0  0
 72 74  2  0  0  0
 72 85  1  0  0  0
 72147  1  0  0  0
 73 74  1  0  0  0
 73 76  1  0  0  0
 74 77  1  0  0  0
 75 78  1  0  0  0
 75 85  2  0  0  0
 76148  1  0  0  0
 76149  1  0  0  0
 76150  1  0  0  0
 77 82  1  0  0  0
 77151  1  0  0  0
 77152  1  0  0  0
 78 84  1  0  0  0
 78153  1  0  0  0
 78154  1  0  0  0
 79 80  1  0  0  0
 79155  1  0  0  0
 79156  1  0  0  0
 80 81  1  0  0  0
 80157  1  0  0  0
 80158  1  0  0  0
 81 83  1  0  0  0
 81159  1  0  0  0
 81160  1  0  0  0
 82 86  1  0  0  0
 82161  1  0  0  0
 82162  1  0  0  0
 83 86  1  0  0  0
 83163  1  0  0  0
 83164  1  0  0  0
 84165  1  0  0  0
 84166  1  0  0  0
 86167  1  0  0  0
 86168  1  0  0  0
M  CHG  1  86   1
M  ISO  4   1 100  68 101  79 100  84 101
M  END
> <chiral flag>
0

> <version>
0

> <s_m_source_file>
/data/baiqing/PycharmProjects/Reinvent-master-3.2/result/LINK_invent/BTK/process_docking_weight1_custom_sum_contain_oxygen_bond_distance_aromatic_linkinvent_7_9_3/rearranged_h_0043.sdf

> <i_m_source_file_index>
55

> <r_mmod_Potential_Energy-OPLS-2005>
25512.78515625

> <r_mmod_Stretch_Energy-OPLS-2005>
13384.826171875

> <r_mmod_Bend_Energy-OPLS-2005>
2238.25903320312

> <r_mmod_Torsional_Energy-OPLS-2005>
665.317077636719

> <r_mmod_Improper_Torsional_Energy-OPLS-2005>
85.5413665771484

> <r_mmod_Van_der_Waal_Energy-OPLS-2005>
5389.56982421875

> <r_mmod_Electrostatic_Energy-OPLS-2005>
-285.334136962891

> <r_mmod_Solvation_Energy-OPLS-2005>
-502.387756347656

> <b_mmod_Minimization_Converged-OPLS-2005>
0

> <r_mmod_RMS_Derivative-OPLS-2005>
5.26956272125244

$$$$
55
                    3D
 Structure written by MMmdl.
155164  0  0  1  0            999 V2000
  -30.6673  -14.5315   20.6316 C   0  0  0  0  0  0
  -30.4392  -12.3690   19.4129 C   0  0  0  0  0  0
  -29.4923  -12.5375   18.2038 C   0  0  0  0  0  0
  -28.0134  -12.3804   18.6172 C   0  0  0  0  0  0
  -27.6646  -13.1991   19.8880 C   0  0  2  0  0  0
  -28.7128  -12.9173   20.9857 C   0  0  0  0  0  0
  -25.2594  -13.8149   20.5633 C   0  0  0  0  0  0
  -24.1841  -13.0434   20.9134 C   0  0  0  0  0  0
  -24.6389  -11.6892   20.8723 C   0  0  0  0  0  0
  -23.9035  -10.4292   21.0398 C   0  0  0  0  0  0
  -24.3594   -9.4219   21.9191 C   0  0  0  0  0  0
  -23.6267   -8.2257   22.0771 C   0  0  0  0  0  0
  -22.4256   -8.0280   21.3551 C   0  0  0  0  0  0
  -21.9886   -9.0256   20.4655 C   0  0  0  0  0  0
  -22.7206  -10.2131   20.3058 C   0  0  0  0  0  0
  -21.6842   -6.0729   22.5267 C   0  0  0  0  0  0
  -21.4008   -6.5637   23.8203 C   0  0  0  0  0  0
  -21.3652   -5.6792   24.9166 C   0  0  0  0  0  0
  -21.6043   -4.3055   24.7221 C   0  0  0  0  0  0
  -21.8817   -3.8144   23.4343 C   0  0  0  0  0  0
  -21.9192   -4.6958   22.3395 C   0  0  0  0  0  0
  -22.7871  -13.5248   21.1810 C   0  0  0  0  0  0
  -22.1654   -4.2138   21.0975 F   0  0  0  0  0  0
  -21.5628   -3.4548   25.7742 F   0  0  0  0  0  0
  -30.0231  -13.3300   20.4560 N   0  0  0  0  0  0
  -26.3044  -12.9293   20.3438 N   0  0  0  0  0  0
  -25.9325  -11.6455   20.5819 N   0  0  0  0  0  0
  -22.0516  -12.8255   22.0378 N   0  0  0  0  0  0
  -25.4323  -15.1862   20.3950 N   0  0  0  0  0  0
  -31.7492  -14.7271   20.0591 O   0  0  0  0  0  0
  -21.6634   -6.8870   21.4234 O   0  0  0  0  0  0
  -22.3573  -14.5566   20.6672 O   0  0  0  0  0  0
  -24.6180  -31.8648   23.2059 C   0  0  0  0  0  0
  -25.9059  -32.4799   23.8374 C   0  0  1  0  0  0
  -27.2350  -27.4026   20.1111 C   0  0  0  0  0  0
  -25.5896  -33.8595   24.2291 N   0  0  0  0  0  0
  -23.4079  -30.4861   21.5469 C   0  0  2  0  0  0
  -24.8566  -28.9472   20.1122 C   0  0  0  0  0  0
  -22.7426  -29.4633   22.4972 C   0  0  0  0  0  0
  -18.0262  -28.1382   22.8474 C   0  0  0  0  0  0
  -24.1478  -36.7292   23.2651 C   0  0  0  0  0  0
  -25.9387  -30.8210   21.3635 C   0  0  0  0  0  0
  -26.0185  -29.4536   20.7095 C   0  0  0  0  0  0
  -27.2127  -28.6921   20.6990 C   0  0  0  0  0  0
  -26.0561  -26.9131   19.5117 C   0  0  0  0  0  0
  -24.8733  -27.6762   19.5091 C   0  0  0  0  0  0
  -23.6172  -29.8151   20.1623 C   0  0  0  0  0  0
  -25.4101  -36.3092   24.0346 C   0  0  1  0  0  0
  -20.5859  -28.3661   23.1316 C   0  0  2  0  0  0
  -20.6750  -26.9394   22.5426 C   0  0  0  0  0  0
  -19.5735  -26.6373   21.5223 C   0  0  0  0  0  0
  -18.1893  -26.7931   22.1606 C   0  0  0  0  0  0
  -19.1522  -28.8840   23.2880 C   0  0  0  0  0  0
  -18.9462  -30.1442   23.8909 C   0  0  0  0  0  0
  -17.6467  -30.6589   24.0573 C   0  0  0  0  0  0
  -25.9037  -34.9465   23.5120 C   0  0  0  0  0  0
  -16.5347  -29.9091   23.6361 C   0  0  0  0  0  0
  -16.7260  -28.6517   23.0362 C   0  0  0  0  0  0
  -26.4465  -31.6604   25.0736 C   0  0  0  0  0  0
  -25.3709  -31.3752   26.1472 C   0  0  0  0  0  0
  -27.0290  -30.3043   24.6145 C   0  0  0  0  0  0
  -27.6050  -32.4324   25.7478 C   0  0  0  0  0  0
  -27.5562  -37.1783   24.8463 C   0  0  0  0  0  0
  -21.4149  -29.3025   22.3720 N   0  0  0  0  0  0
  -26.4273  -37.3783   23.9423 N   0  0  0  0  0  0
  -24.6738  -31.0721   22.0971 N   0  0  0  0  0  0
  -23.4184  -28.8198   23.3044 O   0  0  0  0  0  0
  -28.3753  -26.6187   20.1020 O   0  0  0  0  0  0
  -26.5598  -34.8936   22.4677 O   0  0  0  0  0  0
  -23.5365  -32.1399   23.7436 O   0  0  0  0  0  0
  -29.8901  -19.2573   21.0989 C   0  0  0  0  0  0
  -29.9943  -17.1110   20.9820 C   0  0  0  0  0  0
  -29.8712  -20.6482   21.3776 C   0  0  0  0  0  0
  -28.9474  -21.4460   20.7366 C   0  0  0  0  0  0
  -28.1417  -19.6616   19.5111 C   0  0  0  0  0  0
  -27.1568  -19.1107   18.4983 C   0  0  0  0  0  0
  -28.6739  -22.8813   21.2403 C   0  0  0  0  0  0
  -28.7148  -24.0748   20.2334 C   0  0  0  0  0  0
  -28.3113  -25.4234   20.9165 C   0  0  0  0  0  0
  -30.1304  -15.6901   21.5658 C   0  0  0  0  0  0
  -30.5567  -18.2124   21.5966 N   0  0  0  0  0  0
  -29.0819  -17.4154   20.0489 N   0  0  0  0  0  0
  -28.0890  -20.9414   19.7855 N   0  0  0  0  0  0
  -28.9867  -18.7898   20.1464 N   0  0  0  0  0  0
  -30.9549  -15.7499   22.6140 F   0  0  0  0  0  0
  -28.9173  -15.4395   22.0476 F   0  0  0  0  0  0
  -31.4753  -12.5064   19.0988 H   0  0  0  0  0  0
  -30.3926  -11.3479   19.7944 H   0  0  0  0  0  0
  -29.7421  -11.8142   17.4269 H   0  0  0  0  0  0
  -29.6407  -13.5233   17.7612 H   0  0  0  0  0  0
  -27.8294  -11.3210   18.7991 H   0  0  0  0  0  0
  -27.3568  -12.6620   17.7934 H   0  0  0  0  0  0
  -27.7222  -14.2552   19.6257 H   0  0  0  0  0  0
  -28.7317  -11.8459   21.1933 H   0  0  0  0  0  0
  -28.4449  -13.3336   21.9509 H   0  0  0  0  0  0
  -25.2734   -9.5700   22.4756 H   0  0  0  0  0  0
  -23.9968   -7.4658   22.7508 H   0  0  0  0  0  0
  -21.0814   -8.8771   19.8960 H   0  0  0  0  0  0
  -22.3669  -10.9673   19.6164 H   0  0  0  0  0  0
  -21.1998   -7.6146   23.9697 H   0  0  0  0  0  0
  -21.1467   -6.0527   25.9061 H   0  0  0  0  0  0
  -22.0602   -2.7602   23.2855 H   0  0  0  0  0  0
  -22.4111  -11.9876   22.4703 H   0  0  0  0  0  0
  -21.1170  -13.1345   22.2675 H   0  0  0  0  0  0
  -24.6561  -15.8358   20.4590 H   0  0  0  0  0  0
  -26.2913  -15.6219   20.0815 H   0  0  0  0  0  0
  -26.7137  -32.5518   23.1148 H   0  0  0  0  0  0
  -25.0062  -33.9772   25.0447 H   0  0  0  0  0  0
  -22.6975  -31.3035   21.4067 H   0  0  0  0  0  0
  -23.3751  -35.9606   23.3319 H   0  0  0  0  0  0
  -24.3571  -36.8896   22.2056 H   0  0  0  0  0  0
  -23.7217  -37.6494   23.6667 H   0  0  0  0  0  0
  -26.0516  -31.5856   20.5937 H   0  0  0  0  0  0
  -26.8251  -30.8740   21.9847 H   0  0  0  0  0  0
  -28.1103  -29.0787   21.1620 H   0  0  0  0  0  0
  -26.0534  -25.9332   19.0549 H   0  0  0  0  0  0
  -23.9816  -27.2772   19.0474 H   0  0  0  0  0  0
  -23.7168  -30.5913   19.4029 H   0  0  0  0  0  0
  -22.7407  -29.2323   19.8721 H   0  0  0  0  0  0
  -25.1271  -36.1941   25.0836 H   0  0  0  0  0  0
  -20.9934  -28.3223   24.1446 H   0  0  0  0  0  0
  -20.5655  -26.2273   23.3612 H   0  0  0  0  0  0
  -21.6625  -26.7410   22.1219 H   0  0  0  0  0  0
  -19.6903  -25.6288   21.1241 H   0  0  0  0  0  0
  -19.6718  -27.3199   20.6773 H   0  0  0  0  0  0
  -17.4190  -26.6742   21.3977 H   0  0  0  0  0  0
  -18.0245  -26.0054   22.8973 H   0  0  0  0  0  0
  -19.7947  -30.7242   24.2288 H   0  0  0  0  0  0
  -17.5035  -31.6284   24.5136 H   0  0  0  0  0  0
  -15.5356  -30.2997   23.7700 H   0  0  0  0  0  0
  -15.8658  -28.0845   22.7087 H   0  0  0  0  0  0
  -24.5957  -30.6984   25.7860 H   0  0  0  0  0  0
  -24.8799  -32.2903   26.4792 H   0  0  0  0  0  0
  -25.8038  -30.9065   27.0316 H   0  0  0  0  0  0
  -26.2838  -29.6806   24.1187 H   0  0  0  0  0  0
  -27.4040  -29.7291   25.4619 H   0  0  0  0  0  0
  -27.8677  -30.4361   23.9306 H   0  0  0  0  0  0
  -27.2704  -33.3670   26.1995 H   0  0  0  0  0  0
  -28.3879  -32.6786   25.0293 H   0  0  0  0  0  0
  -28.0683  -31.8469   26.5435 H   0  0  0  0  0  0
  -28.2582  -38.0073   24.7497 H   0  0  0  0  0  0
  -28.1046  -36.2607   24.6281 H   0  0  0  0  0  0
  -27.2295  -37.1430   25.8871 H   0  0  0  0  0  0
  -20.9314  -29.8746   21.6938 H   0  0  0  0  0  0
  -26.0161  -38.2852   24.1455 H   0  0  0  0  0  0
  -30.5183  -21.0337   22.1596 H   0  0  0  0  0  0
  -26.5402  -19.8962   18.0604 H   0  0  0  0  0  0
  -26.4949  -18.3870   18.9744 H   0  0  0  0  0  0
  -27.6856  -18.6032   17.6912 H   0  0  0  0  0  0
  -29.3852  -23.0975   22.0368 H   0  0  0  0  0  0
  -27.6990  -22.8647   21.7305 H   0  0  0  0  0  0
  -28.0335  -23.8745   19.4067 H   0  0  0  0  0  0
  -29.7150  -24.1516   19.8058 H   0  0  0  0  0  0
  -28.9828  -25.5989   21.7586 H   0  0  0  0  0  0
  -27.3219  -25.3058   21.3630 H   0  0  0  0  0  0
  1 25  1  0  0  0
  1 30  2  0  0  0
  1 80  1  0  0  0
  2  3  1  0  0  0
  2 25  1  0  0  0
  2 87  1  0  0  0
  2 88  1  0  0  0
  3  4  1  0  0  0
  3 89  1  0  0  0
  3 90  1  0  0  0
  4  5  1  0  0  0
  4 91  1  0  0  0
  4 92  1  0  0  0
  5  6  1  0  0  0
  5 26  1  0  0  0
  5 93  1  0  0  0
  6 25  1  0  0  0
  6 94  1  0  0  0
  6 95  1  0  0  0
  7  8  2  0  0  0
  7 26  1  0  0  0
  7 29  1  0  0  0
  8  9  1  0  0  0
  8 22  1  0  0  0
  9 10  1  0  0  0
  9 27  2  0  0  0
 10 11  2  0  0  0
 10 15  1  0  0  0
 11 12  1  0  0  0
 11 96  1  0  0  0
 12 13  2  0  0  0
 12 97  1  0  0  0
 13 14  1  0  0  0
 13 31  1  0  0  0
 14 15  2  0  0  0
 14 98  1  0  0  0
 15 99  1  0  0  0
 16 17  2  0  0  0
 16 21  1  0  0  0
 16 31  1  0  0  0
 17 18  1  0  0  0
 17100  1  0  0  0
 18 19  2  0  0  0
 18101  1  0  0  0
 19 20  1  0  0  0
 19 24  1  0  0  0
 20 21  2  0  0  0
 20102  1  0  0  0
 21 23  1  0  0  0
 22 28  1  0  0  0
 22 32  2  0  0  0
 26 27  1  0  0  0
 28103  1  0  0  0
 28104  1  0  0  0
 29105  1  0  0  0
 29106  1  0  0  0
 33 34  1  0  0  0
 33 66  1  0  0  0
 33 70  2  0  0  0
 34 36  1  0  0  0
 34 59  1  0  0  0
 34107  1  0  0  0
 35 44  2  0  0  0
 35 45  1  0  0  0
 35 68  1  0  0  0
 36 56  1  0  0  0
 36108  1  0  0  0
 37 39  1  0  0  0
 37 47  1  0  0  0
 37 66  1  0  0  0
 37109  1  0  0  0
 38 43  2  0  0  0
 38 46  1  0  0  0
 38 47  1  0  0  0
 39 64  1  0  0  0
 39 67  2  0  0  0
 40 52  1  0  0  0
 40 53  2  0  0  0
 40 58  1  0  0  0
 41110  1  0  0  0
 41111  1  0  0  0
 41112  1  0  0  0
 41 48  1  0  0  0
 42 43  1  0  0  0
 42 66  1  0  0  0
 42113  1  0  0  0
 42114  1  0  0  0
 43 44  1  0  0  0
 44115  1  0  0  0
 45 46  2  0  0  0
 45116  1  0  0  0
 46117  1  0  0  0
 47118  1  0  0  0
 47119  1  0  0  0
 48 56  1  0  0  0
 48 65  1  0  0  0
 48120  1  0  0  0
 49 50  1  0  0  0
 49 53  1  0  0  0
 49 64  1  0  0  0
 49121  1  0  0  0
 50 51  1  0  0  0
 50122  1  0  0  0
 50123  1  0  0  0
 51 52  1  0  0  0
 51124  1  0  0  0
 51125  1  0  0  0
 52126  1  0  0  0
 52127  1  0  0  0
 53 54  1  0  0  0
 54 55  2  0  0  0
 54128  1  0  0  0
 55 57  1  0  0  0
 55129  1  0  0  0
 56 69  2  0  0  0
 57 58  2  0  0  0
 57130  1  0  0  0
 58131  1  0  0  0
 59 60  1  0  0  0
 59 61  1  0  0  0
 59 62  1  0  0  0
 60132  1  0  0  0
 60133  1  0  0  0
 60134  1  0  0  0
 61135  1  0  0  0
 61136  1  0  0  0
 61137  1  0  0  0
 62138  1  0  0  0
 62139  1  0  0  0
 62140  1  0  0  0
 63 65  1  0  0  0
 63141  1  0  0  0
 63142  1  0  0  0
 63143  1  0  0  0
 64144  1  0  0  0
 65145  1  0  0  0
 68 79  1  0  0  0
 71 73  1  0  0  0
 71 81  2  0  0  0
 71 84  1  0  0  0
 72 80  1  0  0  0
 72 81  1  0  0  0
 72 82  2  0  0  0
 73 74  2  0  0  0
 73146  1  0  0  0
 74 77  1  0  0  0
 74 83  1  0  0  0
 75 76  1  0  0  0
 75 83  2  0  0  0
 75 84  1  0  0  0
 76147  1  0  0  0
 76148  1  0  0  0
 76149  1  0  0  0
 77 78  1  0  0  0
 77150  1  0  0  0
 77151  1  0  0  0
 78 79  1  0  0  0
 78152  1  0  0  0
 78153  1  0  0  0
 79154  1  0  0  0
 79155  1  0  0  0
 80 85  1  0  0  0
 80 86  1  0  0  0
 82 84  1  0  0  0
M  ISO  4   1 100  68 101  79 101  80 100
M  END
> <chiral flag>
0

> <version>
0

> <s_m_source_file>
/data/baiqing/PycharmProjects/Reinvent-master-3.2/result/LINK_invent/BTK/process_docking_weight1_custom_sum_contain_oxygen_bond_distance_aromatic_linkinvent_7_9_3/rearranged_h_0043.sdf

> <i_m_source_file_index>
56

> <r_mmod_Potential_Energy-OPLS-2005>
-62.8178215026855

> <r_mmod_Stretch_Energy-OPLS-2005>
52.8495635986328

> <r_mmod_Bend_Energy-OPLS-2005>
124.455360412598

> <r_mmod_Torsional_Energy-OPLS-2005>
200.800888061523

> <r_mmod_Improper_Torsional_Energy-OPLS-2005>
5.65947866439819

> <r_mmod_Van_der_Waal_Energy-OPLS-2005>
151.178573608398

> <r_mmod_Electrostatic_Energy-OPLS-2005>
-416.145477294922

> <r_mmod_Solvation_Energy-OPLS-2005>
-200.420791625977

> <b_mmod_Minimization_Converged-OPLS-2005>
0

> <r_mmod_RMS_Derivative-OPLS-2005>
3.02059078216553

$$$$
56
                    3D
 Structure written by MMmdl.
151159  0  0  1  0            999 V2000
  -30.4843  -15.2374   20.3092 C   0  0  0  0  0  0
  -30.4389  -12.7953   19.4619 C   0  0  0  0  0  0
  -29.4959  -12.4886   18.2668 C   0  0  0  0  0  0
  -28.0565  -12.2515   18.7311 C   0  0  0  0  0  0
  -27.6092  -13.2658   19.8097 C   0  0  2  0  0  0
  -28.6673  -13.4567   20.9127 C   0  0  0  0  0  0
  -25.2443  -13.8265   20.5798 C   0  0  0  0  0  0
  -24.1776  -13.0462   20.9275 C   0  0  0  0  0  0
  -24.6399  -11.6947   20.8798 C   0  0  0  0  0  0
  -23.9071  -10.4319   21.0431 C   0  0  0  0  0  0
  -24.3611   -9.4238   21.9212 C   0  0  0  0  0  0
  -23.6300   -8.2268   22.0763 C   0  0  0  0  0  0
  -22.4291   -8.0297   21.3542 C   0  0  0  0  0  0
  -21.9916   -9.0269   20.4650 C   0  0  0  0  0  0
  -22.7240  -10.2153   20.3085 C   0  0  0  0  0  0
  -21.6861   -6.0750   22.5269 C   0  0  0  0  0  0
  -21.4011   -6.5655   23.8197 C   0  0  0  0  0  0
  -21.3654   -5.6805   24.9159 C   0  0  0  0  0  0
  -21.6050   -4.3068   24.7215 C   0  0  0  0  0  0
  -21.8833   -3.8166   23.4336 C   0  0  0  0  0  0
  -21.9201   -4.6981   22.3395 C   0  0  0  0  0  0
  -22.7790  -13.5204   21.1897 C   0  0  0  0  0  0
  -22.1691   -4.2164   21.0972 F   0  0  0  0  0  0
  -21.5609   -3.4555   25.7728 F   0  0  0  0  0  0
  -29.8826  -13.9520   20.2431 N   0  0  0  0  0  0
  -26.2859  -12.9528   20.3286 N   0  0  0  0  0  0
  -25.9343  -11.6635   20.5805 N   0  0  0  0  0  0
  -22.0419  -12.8188   22.0417 N   0  0  0  0  0  0
  -25.4104  -15.2002   20.4236 N   0  0  0  0  0  0
  -31.7179  -15.1535   20.3776 O   0  0  0  0  0  0
  -21.6660   -6.8887   21.4227 O   0  0  0  0  0  0
  -22.3476  -14.5502   20.6724 O   0  0  0  0  0  0
  -24.6573  -31.8290   23.1744 C   0  0  0  0  0  0
  -25.9275  -32.4617   23.8207 C   0  0  1  0  0  0
  -27.2147  -26.9778   20.1994 C   0  0  0  0  0  0
  -25.5961  -33.8434   24.2103 N   0  0  0  0  0  0
  -23.4697  -30.4409   21.5230 C   0  0  2  0  0  0
  -24.9216  -28.8298   20.1242 C   0  0  0  0  0  0
  -22.7626  -29.4466   22.4802 C   0  0  0  0  0  0
  -18.0304  -28.1411   22.8469 C   0  0  0  0  0  0
  -24.1486  -36.7206   23.2648 C   0  0  0  0  0  0
  -26.0364  -30.6537   21.3966 C   0  0  0  0  0  0
  -26.1048  -29.2469   20.7468 C   0  0  0  0  0  0
  -27.2542  -28.3448   20.7487 C   0  0  0  0  0  0
  -26.0002  -26.6896   19.5429 C   0  0  0  0  0  0
  -24.8900  -27.5698   19.5029 C   0  0  0  0  0  0
  -23.7074  -29.7537   20.1516 C   0  0  0  0  0  0
  -25.4134  -36.2987   24.0301 C   0  0  1  0  0  0
  -20.5928  -28.3756   23.1190 C   0  0  2  0  0  0
  -20.6783  -26.9440   22.5398 C   0  0  0  0  0  0
  -19.5762  -26.6386   21.5210 C   0  0  0  0  0  0
  -18.1944  -26.7947   22.1618 C   0  0  0  0  0  0
  -19.1566  -28.8907   23.2818 C   0  0  0  0  0  0
  -18.9482  -30.1494   23.8863 C   0  0  0  0  0  0
  -17.6478  -30.6608   24.0560 C   0  0  0  0  0  0
  -25.9096  -34.9370   23.5023 C   0  0  0  0  0  0
  -16.5364  -29.9100   23.6342 C   0  0  0  0  0  0
  -16.7290  -28.6512   23.0373 C   0  0  0  0  0  0
  -26.4549  -31.6551   25.0718 C   0  0  0  0  0  0
  -25.3676  -31.3781   26.1368 C   0  0  0  0  0  0
  -27.0441  -30.2922   24.6423 C   0  0  0  0  0  0
  -27.6048  -32.4360   25.7512 C   0  0  0  0  0  0
  -27.5572  -37.1761   24.8468 C   0  0  0  0  0  0
  -21.4305  -29.3053   22.3550 N   0  0  0  0  0  0
  -26.4282  -37.3719   23.9404 N   0  0  0  0  0  0
  -24.7420  -31.0003   22.0848 N   0  0  0  0  0  0
  -23.4196  -28.8038   23.3030 O   0  0  0  0  0  0
  -28.2619  -25.9402   20.1599 O   0  0  0  0  0  0
  -26.5710  -34.8896   22.4619 O   0  0  0  0  0  0
  -23.5656  -32.1229   23.6865 O   0  0  0  0  0  0
  -29.4630  -17.6909   17.7385 C   0  0  0  0  0  0
  -29.8879  -16.7168   19.7168 C   0  0  0  0  0  0
  -29.4208  -18.1771   19.8396 C   0  0  0  0  0  0
  -31.0251  -15.8811   17.4906 C   0  0  0  0  0  0
  -29.0207  -19.5605   20.7493 C   0  0  0  0  0  0
  -29.2724  -21.2969   20.3999 C   0  0  0  0  0  0
  -28.2772  -22.7413   20.0856 C   0  0  0  0  0  0
  -28.2480  -24.4091   20.7104 C   0  0  0  0  0  0
  -29.0005  -18.5781   18.5743 N   0  0  0  0  0  0
  -30.1591  -16.7205   18.3150 N   0  0  0  0  0  0
  -31.4360  -13.0245   19.0840 H   0  0  0  0  0  0
  -30.5554  -11.9186   20.0989 H   0  0  0  0  0  0
  -29.8574  -11.6266   17.7054 H   0  0  0  0  0  0
  -29.4615  -13.3007   17.5537 H   0  0  0  0  0  0
  -28.0157  -11.2412   19.1383 H   0  0  0  0  0  0
  -27.3713  -12.2684   17.8828 H   0  0  0  0  0  0
  -27.5190  -14.2218   19.2910 H   0  0  0  0  0  0
  -28.8582  -12.5278   21.4537 H   0  0  0  0  0  0
  -28.3307  -14.1854   21.6510 H   0  0  0  0  0  0
  -25.2737   -9.5758   22.4810 H   0  0  0  0  0  0
  -24.0034   -7.4668   22.7485 H   0  0  0  0  0  0
  -21.0850   -8.8782   19.8948 H   0  0  0  0  0  0
  -22.3675  -10.9706   19.6223 H   0  0  0  0  0  0
  -21.2010   -7.6164   23.9699 H   0  0  0  0  0  0
  -21.1444   -6.0534   25.9050 H   0  0  0  0  0  0
  -22.0612   -2.7635   23.2825 H   0  0  0  0  0  0
  -22.4020  -11.9862   22.4832 H   0  0  0  0  0  0
  -21.1015  -13.1198   22.2545 H   0  0  0  0  0  0
  -24.6431  -15.8501   20.5546 H   0  0  0  0  0  0
  -26.2617  -15.6530   20.1152 H   0  0  0  0  0  0
  -26.7348  -32.5181   23.0934 H   0  0  0  0  0  0
  -25.0054  -33.9526   25.0216 H   0  0  0  0  0  0
  -22.7814  -31.2707   21.3522 H   0  0  0  0  0  0
  -23.3767  -35.9512   23.3296 H   0  0  0  0  0  0
  -24.3549  -36.8868   22.2063 H   0  0  0  0  0  0
  -23.7224  -37.6383   23.6710 H   0  0  0  0  0  0
  -26.2134  -31.3966   20.6180 H   0  0  0  0  0  0
  -26.8978  -30.7080   22.0512 H   0  0  0  0  0  0
  -28.1667  -28.6726   21.2286 H   0  0  0  0  0  0
  -25.8973  -25.7243   19.0668 H   0  0  0  0  0  0
  -23.9895  -27.2436   19.0019 H   0  0  0  0  0  0
  -23.8630  -30.5188   19.3909 H   0  0  0  0  0  0
  -22.8195  -29.2040   19.8363 H   0  0  0  0  0  0
  -25.1331  -36.1794   25.0792 H   0  0  0  0  0  0
  -21.0009  -28.3373   24.1313 H   0  0  0  0  0  0
  -20.5654  -26.2384   23.3640 H   0  0  0  0  0  0
  -21.6651  -26.7422   22.1218 H   0  0  0  0  0  0
  -19.6924  -25.6282   21.1281 H   0  0  0  0  0  0
  -19.6706  -27.3159   20.6709 H   0  0  0  0  0  0
  -17.4205  -26.6679   21.4026 H   0  0  0  0  0  0
  -18.0349  -26.0101   22.9031 H   0  0  0  0  0  0
  -19.7962  -30.7312   24.2227 H   0  0  0  0  0  0
  -17.5035  -31.6283   24.5163 H   0  0  0  0  0  0
  -15.5367  -30.2997   23.7688 H   0  0  0  0  0  0
  -15.8685  -28.0818   22.7127 H   0  0  0  0  0  0
  -24.5863  -30.7134   25.7658 H   0  0  0  0  0  0
  -24.8857  -32.2978   26.4695 H   0  0  0  0  0  0
  -25.7905  -30.9003   27.0214 H   0  0  0  0  0  0
  -26.3105  -29.6606   24.1392 H   0  0  0  0  0  0
  -27.3945  -29.7277   25.5078 H   0  0  0  0  0  0
  -27.9062  -30.4114   23.9850 H   0  0  0  0  0  0
  -27.2615  -33.3696   26.1981 H   0  0  0  0  0  0
  -28.3907  -32.6865   25.0372 H   0  0  0  0  0  0
  -28.0658  -31.8559   26.5516 H   0  0  0  0  0  0
  -28.2577  -38.0071   24.7523 H   0  0  0  0  0  0
  -28.1083  -36.2596   24.6293 H   0  0  0  0  0  0
  -27.2281  -37.1409   25.8870 H   0  0  0  0  0  0
  -20.9549  -29.8741   21.6687 H   0  0  0  0  0  0
  -26.0135  -38.2774   24.1424 H   0  0  0  0  0  0
  -29.3877  -17.8181   16.6666 H   0  0  0  0  0  0
  -31.2355  -16.3854   16.5462 H   0  0  0  0  0  0
  -30.5611  -14.9407   17.2483 H   0  0  0  0  0  0
  -31.9879  -15.7163   17.9709 H   0  0  0  0  0  0
  -29.5370  -19.4144   21.6988 H   0  0  0  0  0  0
  -27.9751  -19.4645   21.0432 H   0  0  0  0  0  0
  -30.0022  -21.2940   19.5916 H   0  0  0  0  0  0
  -29.8784  -21.6191   21.2476 H   0  0  0  0  0  0
  -27.2561  -22.3906   20.2359 H   0  0  0  0  0  0
  -28.3162  -22.8636   19.0032 H   0  0  0  0  0  0
  -29.1136  -24.4278   21.3727 H   0  0  0  0  0  0
  -27.4119  -24.4165   21.4097 H   0  0  0  0  0  0
  1 25  1  0  0  0
  1 30  2  0  0  0
  1 72  1  0  0  0
  2  3  1  0  0  0
  2 25  1  0  0  0
  2 81  1  0  0  0
  2 82  1  0  0  0
  3  4  1  0  0  0
  3 83  1  0  0  0
  3 84  1  0  0  0
  4  5  1  0  0  0
  4 85  1  0  0  0
  4 86  1  0  0  0
  5  6  1  0  0  0
  5 26  1  0  0  0
  5 87  1  0  0  0
  6 25  1  0  0  0
  6 88  1  0  0  0
  6 89  1  0  0  0
  7  8  2  0  0  0
  7 26  1  0  0  0
  7 29  1  0  0  0
  8  9  1  0  0  0
  8 22  1  0  0  0
  9 10  1  0  0  0
  9 27  2  0  0  0
 10 11  2  0  0  0
 10 15  1  0  0  0
 11 12  1  0  0  0
 11 90  1  0  0  0
 12 13  2  0  0  0
 12 91  1  0  0  0
 13 14  1  0  0  0
 13 31  1  0  0  0
 14 15  2  0  0  0
 14 92  1  0  0  0
 15 93  1  0  0  0
 16 17  2  0  0  0
 16 21  1  0  0  0
 16 31  1  0  0  0
 17 18  1  0  0  0
 17 94  1  0  0  0
 18 19  2  0  0  0
 18 95  1  0  0  0
 19 20  1  0  0  0
 19 24  1  0  0  0
 20 21  2  0  0  0
 20 96  1  0  0  0
 21 23  1  0  0  0
 22 28  1  0  0  0
 22 32  2  0  0  0
 26 27  1  0  0  0
 28 97  1  0  0  0
 28 98  1  0  0  0
 29 99  1  0  0  0
 29100  1  0  0  0
 33 34  1  0  0  0
 33 66  1  0  0  0
 33 70  2  0  0  0
 34 36  1  0  0  0
 34 59  1  0  0  0
 34101  1  0  0  0
 35 44  2  0  0  0
 35 45  1  0  0  0
 35 68  1  0  0  0
 36 56  1  0  0  0
 36102  1  0  0  0
 37 39  1  0  0  0
 37 47  1  0  0  0
 37 66  1  0  0  0
 37103  1  0  0  0
 38 43  2  0  0  0
 38 46  1  0  0  0
 38 47  1  0  0  0
 39 64  1  0  0  0
 39 67  2  0  0  0
 40 52  1  0  0  0
 40 53  2  0  0  0
 40 58  1  0  0  0
 41104  1  0  0  0
 41105  1  0  0  0
 41106  1  0  0  0
 41 48  1  0  0  0
 42 43  1  0  0  0
 42 66  1  0  0  0
 42107  1  0  0  0
 42108  1  0  0  0
 43 44  1  0  0  0
 44109  1  0  0  0
 45 46  2  0  0  0
 45110  1  0  0  0
 46111  1  0  0  0
 47112  1  0  0  0
 47113  1  0  0  0
 48 56  1  0  0  0
 48 65  1  0  0  0
 48114  1  0  0  0
 49 50  1  0  0  0
 49 53  1  0  0  0
 49 64  1  0  0  0
 49115  1  0  0  0
 50 51  1  0  0  0
 50116  1  0  0  0
 50117  1  0  0  0
 51 52  1  0  0  0
 51118  1  0  0  0
 51119  1  0  0  0
 52120  1  0  0  0
 52121  1  0  0  0
 53 54  1  0  0  0
 54 55  2  0  0  0
 54122  1  0  0  0
 55 57  1  0  0  0
 55123  1  0  0  0
 56 69  2  0  0  0
 57 58  2  0  0  0
 57124  1  0  0  0
 58125  1  0  0  0
 59 60  1  0  0  0
 59 61  1  0  0  0
 59 62  1  0  0  0
 60126  1  0  0  0
 60127  1  0  0  0
 60128  1  0  0  0
 61129  1  0  0  0
 61130  1  0  0  0
 61131  1  0  0  0
 62132  1  0  0  0
 62133  1  0  0  0
 62134  1  0  0  0
 63 65  1  0  0  0
 63135  1  0  0  0
 63136  1  0  0  0
 63137  1  0  0  0
 64138  1  0  0  0
 65139  1  0  0  0
 68 78  1  0  0  0
 71 79  2  0  0  0
 71 80  1  0  0  0
 71140  1  0  0  0
 72 73  2  0  0  0
 72 80  1  0  0  0
 73 75  1  0  0  0
 73 79  1  0  0  0
 74 80  1  0  0  0
 74141  1  0  0  0
 74142  1  0  0  0
 74143  1  0  0  0
 75 76  1  0  0  0
 75144  1  0  0  0
 75145  1  0  0  0
 76 77  1  0  0  0
 76146  1  0  0  0
 76147  1  0  0  0
 77 78  1  0  0  0
 77148  1  0  0  0
 77149  1  0  0  0
 78150  1  0  0  0
 78151  1  0  0  0
M  ISO  4   1 100  68 101  72 100  78 101
M  END
> <chiral flag>
0

> <version>
0

> <s_m_source_file>
/data/baiqing/PycharmProjects/Reinvent-master-3.2/result/LINK_invent/BTK/process_docking_weight1_custom_sum_contain_oxygen_bond_distance_aromatic_linkinvent_7_9_3/rearranged_h_0043.sdf

> <i_m_source_file_index>
57

> <r_mmod_Potential_Energy-OPLS-2005>
1475.36279296875

> <r_mmod_Stretch_Energy-OPLS-2005>
575.075500488281

> <r_mmod_Bend_Energy-OPLS-2005>
534.209289550781

> <r_mmod_Torsional_Energy-OPLS-2005>
319.422668457031

> <r_mmod_Improper_Torsional_Energy-OPLS-2005>
21.114200592041

> <r_mmod_Van_der_Waal_Energy-OPLS-2005>
115.573921203613

> <r_mmod_Electrostatic_Energy-OPLS-2005>
-299.428009033203

> <r_mmod_Solvation_Energy-OPLS-2005>
-201.462554931641

> <b_mmod_Minimization_Converged-OPLS-2005>
0

> <r_mmod_RMS_Derivative-OPLS-2005>
2.43337225914001

$$$$
57
                    3D
 Structure written by MMmdl.
174182  0  0  1  0            999 V2000
  -30.7628  -14.3681   20.7336 C   0  0  0  0  0  0
  -30.4255  -12.3050   19.4065 C   0  0  0  0  0  0
  -29.4929  -12.5144   18.2007 C   0  0  0  0  0  0
  -28.0204  -12.3473   18.6185 C   0  0  0  0  0  0
  -27.6662  -13.1907   19.8686 C   0  0  2  0  0  0
  -28.6992  -12.9583   20.9947 C   0  0  0  0  0  0
  -25.2632  -13.8140   20.5642 C   0  0  0  0  0  0
  -24.1873  -13.0460   20.9176 C   0  0  0  0  0  0
  -24.6386  -11.6904   20.8732 C   0  0  0  0  0  0
  -23.9050  -10.4295   21.0407 C   0  0  0  0  0  0
  -24.3604   -9.4215   21.9182 C   0  0  0  0  0  0
  -23.6293   -8.2247   22.0742 C   0  0  0  0  0  0
  -22.4279   -8.0278   21.3533 C   0  0  0  0  0  0
  -21.9906   -9.0259   20.4643 C   0  0  0  0  0  0
  -22.7226  -10.2141   20.3058 C   0  0  0  0  0  0
  -21.6858   -6.0738   22.5276 C   0  0  0  0  0  0
  -21.4015   -6.5642   23.8207 C   0  0  0  0  0  0
  -21.3653   -5.6799   24.9169 C   0  0  0  0  0  0
  -21.6045   -4.3064   24.7227 C   0  0  0  0  0  0
  -21.8820   -3.8149   23.4351 C   0  0  0  0  0  0
  -21.9189   -4.6962   22.3403 C   0  0  0  0  0  0
  -22.7896  -13.5258   21.1866 C   0  0  0  0  0  0
  -22.1655   -4.2143   21.0985 F   0  0  0  0  0  0
  -21.5623   -3.4547   25.7741 F   0  0  0  0  0  0
  -30.0421  -13.2480   20.4668 N   0  0  0  0  0  0
  -26.3046  -12.9275   20.3293 N   0  0  0  0  0  0
  -25.9299  -11.6451   20.5718 N   0  0  0  0  0  0
  -22.0537  -12.8245   22.0409 N   0  0  0  0  0  0
  -25.4405  -15.1859   20.4024 N   0  0  0  0  0  0
  -31.7705  -14.6719   20.0868 O   0  0  0  0  0  0
  -21.6647   -6.8877   21.4236 O   0  0  0  0  0  0
  -22.3577  -14.5567   20.6719 O   0  0  0  0  0  0
  -24.6119  -31.8691   23.2110 C   0  0  0  0  0  0
  -25.9020  -32.4824   23.8404 C   0  0  1  0  0  0
  -27.2315  -27.4657   20.0956 C   0  0  0  0  0  0
  -25.5876  -33.8625   24.2334 N   0  0  0  0  0  0
  -23.3976  -30.4944   21.5504 C   0  0  2  0  0  0
  -24.8449  -28.9607   20.1173 C   0  0  0  0  0  0
  -22.7362  -29.4705   22.4999 C   0  0  0  0  0  0
  -18.0294  -28.1328   22.8544 C   0  0  0  0  0  0
  -24.1479  -36.7329   23.2625 C   0  0  0  0  0  0
  -25.9239  -30.8463   21.3566 C   0  0  0  0  0  0
  -26.0038  -29.4831   20.7063 C   0  0  0  0  0  0
  -27.2059  -28.7462   20.6849 C   0  0  0  0  0  0
  -26.0621  -26.9454   19.5048 C   0  0  0  0  0  0
  -24.8675  -27.6903   19.5117 C   0  0  0  0  0  0
  -23.6049  -29.8208   20.1667 C   0  0  0  0  0  0
  -25.4081  -36.3112   24.0345 C   0  0  1  0  0  0
  -20.5880  -28.3670   23.1373 C   0  0  2  0  0  0
  -20.6814  -26.9383   22.5513 C   0  0  0  0  0  0
  -19.5806  -26.6310   21.5297 C   0  0  0  0  0  0
  -18.1962  -26.7883   22.1675 C   0  0  0  0  0  0
  -19.1519  -28.8826   23.2939 C   0  0  0  0  0  0
  -18.9408  -30.1475   23.8860 C   0  0  0  0  0  0
  -17.6392  -30.6608   24.0450 C   0  0  0  0  0  0
  -25.9008  -34.9473   23.5117 C   0  0  0  0  0  0
  -16.5307  -29.9050   23.6245 C   0  0  0  0  0  0
  -16.7277  -28.6415   23.0405 C   0  0  0  0  0  0
  -26.4479  -31.6603   25.0723 C   0  0  0  0  0  0
  -25.3803  -31.3680   26.1525 C   0  0  0  0  0  0
  -27.0295  -30.3053   24.6052 C   0  0  0  0  0  0
  -27.6052  -32.4314   25.7500 C   0  0  0  0  0  0
  -27.5571  -37.1801   24.8457 C   0  0  0  0  0  0
  -21.4088  -29.3042   22.3716 N   0  0  0  0  0  0
  -26.4271  -37.3790   23.9407 N   0  0  0  0  0  0
  -24.6639  -31.0845   22.0982 N   0  0  0  0  0  0
  -23.4144  -28.8274   23.3047 O   0  0  0  0  0  0
  -28.3877  -26.7311   20.1029 O   0  0  0  0  0  0
  -26.5560  -34.8921   22.4676 O   0  0  0  0  0  0
  -23.5311  -32.1401   23.7521 O   0  0  0  0  0  0
  -25.6352  -24.5736   23.5280 C   0  0  0  0  0  0
  -25.4665  -23.6191   24.4947 C   0  0  0  0  0  0
  -28.0648  -20.3361   23.1187 C   0  0  0  0  0  0
  -24.3679  -22.6094   24.6781 C   0  0  0  0  0  0
  -30.3569  -15.2909   21.9013 C   0  0  0  0  0  0
  -24.8140  -21.1725   24.3404 C   0  0  0  0  0  0
  -29.3231  -16.3512   21.4681 C   0  0  0  0  0  0
  -25.2275  -21.0178   22.8652 C   0  0  0  0  0  0
  -28.7722  -17.2567   22.5919 C   0  0  0  0  0  0
  -28.6960  -25.8374   22.3560 C   0  0  0  0  0  0
  -27.5219  -26.2934   23.2483 C   0  0  0  0  0  0
  -25.7526  -19.6268   22.4444 C   0  0  0  0  0  0
  -27.6512  -18.1592   22.0249 C   0  0  0  0  0  0
  -28.3349  -25.5376   20.8897 C   0  0  0  0  0  0
  -26.5429  -23.6872   25.3781 N   0  0  0  0  0  0
  -27.3487  -24.6288   24.9993 N   0  0  0  0  0  0
  -26.8257  -25.1828   23.8787 N   0  0  0  0  0  0
  -27.1080  -19.2126   22.9297 N   0  3  1  0  0  0
  -31.4678  -12.4193   19.1036 H   0  0  0  0  0  0
  -30.3374  -11.2843   19.7808 H   0  0  0  0  0  0
  -29.7410  -11.8016   17.4132 H   0  0  0  0  0  0
  -29.6518  -13.5079   17.7794 H   0  0  0  0  0  0
  -27.8571  -11.2910   18.8330 H   0  0  0  0  0  0
  -27.3574  -12.5945   17.7884 H   0  0  0  0  0  0
  -27.7178  -14.2351   19.5644 H   0  0  0  0  0  0
  -28.6647  -11.9238   21.3389 H   0  0  0  0  0  0
  -28.4273  -13.5600   21.8584 H   0  0  0  0  0  0
  -25.2741   -9.5711   22.4760 H   0  0  0  0  0  0
  -24.0012   -7.4638   22.7453 H   0  0  0  0  0  0
  -21.0832   -8.8787   19.8945 H   0  0  0  0  0  0
  -22.3680  -10.9689   19.6174 H   0  0  0  0  0  0
  -21.2009   -7.6152   23.9705 H   0  0  0  0  0  0
  -21.1469   -6.0533   25.9072 H   0  0  0  0  0  0
  -22.0599   -2.7611   23.2860 H   0  0  0  0  0  0
  -22.4149  -11.9900   22.4801 H   0  0  0  0  0  0
  -21.1143  -13.1248   22.2582 H   0  0  0  0  0  0
  -24.6647  -15.8351   20.4619 H   0  0  0  0  0  0
  -26.2747  -15.5968   20.0041 H   0  0  0  0  0  0
  -26.7096  -32.5559   23.1172 H   0  0  0  0  0  0
  -25.0091  -33.9795   25.0526 H   0  0  0  0  0  0
  -22.6853  -31.3095   21.4086 H   0  0  0  0  0  0
  -23.3711  -35.9690   23.3282 H   0  0  0  0  0  0
  -24.3610  -36.8937   22.2040 H   0  0  0  0  0  0
  -23.7242  -37.6553   23.6619 H   0  0  0  0  0  0
  -26.0298  -31.6087   20.5845 H   0  0  0  0  0  0
  -26.8149  -30.9052   21.9705 H   0  0  0  0  0  0
  -28.1033  -29.1438   21.1386 H   0  0  0  0  0  0
  -26.0764  -25.9681   19.0422 H   0  0  0  0  0  0
  -23.9777  -27.2837   19.0524 H   0  0  0  0  0  0
  -23.7096  -30.5959   19.4085 H   0  0  0  0  0  0
  -22.7315  -29.2372   19.8689 H   0  0  0  0  0  0
  -25.1243  -36.1993   25.0841 H   0  0  0  0  0  0
  -21.0009  -28.3293   24.1491 H   0  0  0  0  0  0
  -20.5660  -26.2305   23.3744 H   0  0  0  0  0  0
  -21.6691  -26.7395   22.1351 H   0  0  0  0  0  0
  -19.6950  -25.6201   21.1375 H   0  0  0  0  0  0
  -19.6789  -27.3099   20.6819 H   0  0  0  0  0  0
  -17.4250  -26.6641   21.4041 H   0  0  0  0  0  0
  -18.0320  -26.0021   22.9060 H   0  0  0  0  0  0
  -19.7870  -30.7336   24.2190 H   0  0  0  0  0  0
  -17.4881  -31.6364   24.4890 H   0  0  0  0  0  0
  -15.5285  -30.2925   23.7472 H   0  0  0  0  0  0
  -15.8697  -28.0663   22.7192 H   0  0  0  0  0  0
  -25.8238  -30.8803   27.0207 H   0  0  0  0  0  0
  -24.5975  -30.7021   25.7883 H   0  0  0  0  0  0
  -24.9005  -32.2801   26.5082 H   0  0  0  0  0  0
  -26.2797  -29.6808   24.1171 H   0  0  0  0  0  0
  -27.4173  -29.7307   25.4469 H   0  0  0  0  0  0
  -27.8592  -30.4415   23.9115 H   0  0  0  0  0  0
  -27.2636  -33.3554   26.2174 H   0  0  0  0  0  0
  -28.3823  -32.6959   25.0319 H   0  0  0  0  0  0
  -28.0756  -31.8383   26.5344 H   0  0  0  0  0  0
  -28.2582  -38.0101   24.7501 H   0  0  0  0  0  0
  -28.1057  -36.2631   24.6252 H   0  0  0  0  0  0
  -27.2320  -37.1454   25.8872 H   0  0  0  0  0  0
  -20.9169  -29.8649   21.6917 H   0  0  0  0  0  0
  -26.0161  -38.2885   24.1383 H   0  0  0  0  0  0
  -25.0392  -24.8682   22.6716 H   0  0  0  0  0  0
  -27.7318  -21.0206   23.9006 H   0  0  0  0  0  0
  -28.1812  -20.9071   22.1979 H   0  0  0  0  0  0
  -29.0523  -19.9866   23.4175 H   0  0  0  0  0  0
  -23.5059  -22.8768   24.0635 H   0  0  0  0  0  0
  -24.0153  -22.6374   25.7100 H   0  0  0  0  0  0
  -30.0036  -14.7051   22.7492 H   0  0  0  0  0  0
  -31.2522  -15.7929   22.2670 H   0  0  0  0  0  0
  -25.6326  -20.8912   25.0038 H   0  0  0  0  0  0
  -23.9898  -20.4897   24.5578 H   0  0  0  0  0  0
  -28.4855  -15.8486   20.9898 H   0  0  0  0  0  0
  -29.7690  -16.9790   20.6954 H   0  0  0  0  0  0
  -24.3393  -21.2214   22.2638 H   0  0  0  0  0  0
  -25.9357  -21.7921   22.5734 H   0  0  0  0  0  0
  -29.5864  -17.8464   23.0108 H   0  0  0  0  0  0
  -28.3785  -16.6453   23.4072 H   0  0  0  0  0  0
  -29.1540  -24.9520   22.7968 H   0  0  0  0  0  0
  -29.4787  -26.5961   22.3715 H   0  0  0  0  0  0
  -26.8039  -26.9039   22.7023 H   0  0  0  0  0  0
  -27.9105  -26.9329   24.0409 H   0  0  0  0  0  0
  -25.7790  -19.6417   21.3516 H   0  0  0  0  0  0
  -25.0272  -18.8554   22.7082 H   0  0  0  0  0  0
  -26.8320  -17.5033   21.7264 H   0  0  0  0  0  0
  -27.9976  -18.6400   21.1099 H   0  0  0  0  0  0
  -29.0720  -24.8489   20.4779 H   0  0  0  0  0  0
  -27.3796  -25.0169   20.8240 H   0  0  0  0  0  0
  -26.9705  -18.7936   23.8376 H   0  0  0  0  0  0
  1 25  1  0  0  0
  1 30  2  0  0  0
  1 75  1  0  0  0
  2  3  1  0  0  0
  2 25  1  0  0  0
  2 89  1  0  0  0
  2 90  1  0  0  0
  3  4  1  0  0  0
  3 91  1  0  0  0
  3 92  1  0  0  0
  4  5  1  0  0  0
  4 93  1  0  0  0
  4 94  1  0  0  0
  5  6  1  0  0  0
  5 26  1  0  0  0
  5 95  1  0  0  0
  6 25  1  0  0  0
  6 96  1  0  0  0
  6 97  1  0  0  0
  7  8  2  0  0  0
  7 26  1  0  0  0
  7 29  1  0  0  0
  8  9  1  0  0  0
  8 22  1  0  0  0
  9 10  1  0  0  0
  9 27  2  0  0  0
 10 11  2  0  0  0
 10 15  1  0  0  0
 11 12  1  0  0  0
 11 98  1  0  0  0
 12 13  2  0  0  0
 12 99  1  0  0  0
 13 14  1  0  0  0
 13 31  1  0  0  0
 14 15  2  0  0  0
 14100  1  0  0  0
 15101  1  0  0  0
 16 17  2  0  0  0
 16 21  1  0  0  0
 16 31  1  0  0  0
 17 18  1  0  0  0
 17102  1  0  0  0
 18 19  2  0  0  0
 18103  1  0  0  0
 19 20  1  0  0  0
 19 24  1  0  0  0
 20 21  2  0  0  0
 20104  1  0  0  0
 21 23  1  0  0  0
 22 28  1  0  0  0
 22 32  2  0  0  0
 26 27  1  0  0  0
 28105  1  0  0  0
 28106  1  0  0  0
 29107  1  0  0  0
 29108  1  0  0  0
 33 34  1  0  0  0
 33 66  1  0  0  0
 33 70  2  0  0  0
 34 36  1  0  0  0
 34 59  1  0  0  0
 34109  1  0  0  0
 35 44  2  0  0  0
 35 45  1  0  0  0
 35 68  1  0  0  0
 36 56  1  0  0  0
 36110  1  0  0  0
 37 39  1  0  0  0
 37 47  1  0  0  0
 37 66  1  0  0  0
 37111  1  0  0  0
 38 43  2  0  0  0
 38 46  1  0  0  0
 38 47  1  0  0  0
 39 64  1  0  0  0
 39 67  2  0  0  0
 40 52  1  0  0  0
 40 53  2  0  0  0
 40 58  1  0  0  0
 41112  1  0  0  0
 41113  1  0  0  0
 41114  1  0  0  0
 41 48  1  0  0  0
 42 43  1  0  0  0
 42 66  1  0  0  0
 42115  1  0  0  0
 42116  1  0  0  0
 43 44  1  0  0  0
 44117  1  0  0  0
 45 46  2  0  0  0
 45118  1  0  0  0
 46119  1  0  0  0
 47120  1  0  0  0
 47121  1  0  0  0
 48 56  1  0  0  0
 48 65  1  0  0  0
 48122  1  0  0  0
 49 50  1  0  0  0
 49 53  1  0  0  0
 49 64  1  0  0  0
 49123  1  0  0  0
 50 51  1  0  0  0
 50124  1  0  0  0
 50125  1  0  0  0
 51 52  1  0  0  0
 51126  1  0  0  0
 51127  1  0  0  0
 52128  1  0  0  0
 52129  1  0  0  0
 53 54  1  0  0  0
 54 55  2  0  0  0
 54130  1  0  0  0
 55 57  1  0  0  0
 55131  1  0  0  0
 56 69  2  0  0  0
 57 58  2  0  0  0
 57132  1  0  0  0
 58133  1  0  0  0
 59 60  1  0  0  0
 59 61  1  0  0  0
 59 62  1  0  0  0
 60134  1  0  0  0
 60135  1  0  0  0
 60136  1  0  0  0
 61137  1  0  0  0
 61138  1  0  0  0
 61139  1  0  0  0
 62140  1  0  0  0
 62141  1  0  0  0
 62142  1  0  0  0
 63 65  1  0  0  0
 63143  1  0  0  0
 63144  1  0  0  0
 63145  1  0  0  0
 64146  1  0  0  0
 65147  1  0  0  0
 68 84  1  0  0  0
 71 72  2  0  0  0
 71 87  1  0  0  0
 71148  1  0  0  0
 72 74  1  0  0  0
 72 85  1  0  0  0
 73149  1  0  0  0
 73150  1  0  0  0
 73151  1  0  0  0
 73 88  1  0  0  0
 74 76  1  0  0  0
 74152  1  0  0  0
 74153  1  0  0  0
 75 77  1  0  0  0
 75154  1  0  0  0
 75155  1  0  0  0
 76 78  1  0  0  0
 76156  1  0  0  0
 76157  1  0  0  0
 77 79  1  0  0  0
 77158  1  0  0  0
 77159  1  0  0  0
 78 82  1  0  0  0
 78160  1  0  0  0
 78161  1  0  0  0
 79 83  1  0  0  0
 79162  1  0  0  0
 79163  1  0  0  0
 80 81  1  0  0  0
 80 84  1  0  0  0
 80164  1  0  0  0
 80165  1  0  0  0
 81 87  1  0  0  0
 81166  1  0  0  0
 81167  1  0  0  0
 82 88  1  0  0  0
 82168  1  0  0  0
 82169  1  0  0  0
 83 88  1  0  0  0
 83170  1  0  0  0
 83171  1  0  0  0
 84172  1  0  0  0
 84173  1  0  0  0
 85 86  2  0  0  0
 86 87  1  0  0  0
 88174  1  0  0  0
M  CHG  1  88   1
M  ISO  4   1 100  68 101  75 100  84 101
M  END
> <chiral flag>
0

> <version>
0

> <s_m_source_file>
/data/baiqing/PycharmProjects/Reinvent-master-3.2/result/LINK_invent/BTK/process_docking_weight1_custom_sum_contain_oxygen_bond_distance_aromatic_linkinvent_7_9_3/rearranged_h_0043.sdf

> <i_m_source_file_index>
58

> <r_mmod_Potential_Energy-OPLS-2005>
-174.616165161133

> <r_mmod_Stretch_Energy-OPLS-2005>
33.933048248291

> <r_mmod_Bend_Energy-OPLS-2005>
103.552993774414

> <r_mmod_Torsional_Energy-OPLS-2005>
226.90217590332

> <r_mmod_Improper_Torsional_Energy-OPLS-2005>
2.10772776603699

> <r_mmod_Van_der_Waal_Energy-OPLS-2005>
111.06502532959

> <r_mmod_Electrostatic_Energy-OPLS-2005>
-226.549057006836

> <r_mmod_Solvation_Energy-OPLS-2005>
-434.15234375

> <b_mmod_Minimization_Converged-OPLS-2005>
0

> <r_mmod_RMS_Derivative-OPLS-2005>
3.19708943367004

$$$$
58
                    3D
 Structure written by MMmdl.
156164  0  0  1  0            999 V2000
  -31.1993  -14.8333   19.4142 C   0  0  0  0  0  0
  -30.7354  -12.9094   20.5029 C   0  0  0  0  0  0
  -29.5509  -11.5938   20.0612 C   0  0  0  0  0  0
  -28.0051  -11.8341   19.2553 C   0  0  0  0  0  0
  -27.2683  -13.4556   19.2080 C   0  0  2  0  0  0
  -28.4546  -15.0644   19.4505 C   0  0  0  0  0  0
  -25.0857  -13.9651   20.5130 C   0  0  0  0  0  0
  -24.0772  -13.1433   20.9519 C   0  0  0  0  0  0
  -24.5435  -11.8019   20.8942 C   0  0  0  0  0  0
  -23.8730  -10.4906   21.0559 C   0  0  0  0  0  0
  -24.3544   -9.4750   21.9177 C   0  0  0  0  0  0
  -23.6430   -8.2596   22.0702 C   0  0  0  0  0  0
  -22.4403   -8.0437   21.3540 C   0  0  0  0  0  0
  -21.9922   -9.0361   20.4654 C   0  0  0  0  0  0
  -22.7013  -10.2398   20.3141 C   0  0  0  0  0  0
  -21.6986   -6.0802   22.5268 C   0  0  0  0  0  0
  -21.4101   -6.5697   23.8196 C   0  0  0  0  0  0
  -21.3686   -5.6835   24.9154 C   0  0  0  0  0  0
  -21.6040   -4.3090   24.7204 C   0  0  0  0  0  0
  -21.8805   -3.8186   23.4321 C   0  0  0  0  0  0
  -21.9228   -4.7012   22.3388 C   0  0  0  0  0  0
  -22.6852  -13.5743   21.2344 C   0  0  0  0  0  0
  -22.1683   -4.2186   21.0966 F   0  0  0  0  0  0
  -21.5600   -3.4569   25.7711 F   0  0  0  0  0  0
  -30.2496  -14.6389   20.1700 N   0  0  0  0  0  0
  -26.0808  -13.1488   20.0912 N   0  0  0  0  0  0
  -25.7760  -11.8541   20.4835 N   0  0  0  0  0  0
  -21.9811  -12.8406   22.0867 N   0  0  0  0  0  0
  -25.2268  -15.3289   20.3366 N   0  0  0  0  0  0
  -32.3399  -15.0427   19.7729 O   0  0  0  0  0  0
  -21.6872   -6.8938   21.4213 O   0  0  0  0  0  0
  -22.2309  -14.5894   20.7139 O   0  0  0  0  0  0
  -24.6811  -31.8031   23.1574 C   0  0  0  0  0  0
  -25.9415  -32.4470   23.8087 C   0  0  1  0  0  0
  -27.0866  -26.6322   20.3488 C   0  0  0  0  0  0
  -25.6010  -33.8301   24.1966 N   0  0  0  0  0  0
  -23.5025  -30.4141   21.5090 C   0  0  2  0  0  0
  -24.9450  -28.7559   20.1213 C   0  0  0  0  0  0
  -22.7736  -29.4346   22.4691 C   0  0  0  0  0  0
  -18.0335  -28.1420   22.8451 C   0  0  0  0  0  0
  -24.1503  -36.7161   23.2648 C   0  0  0  0  0  0
  -26.0820  -30.5216   21.4316 C   0  0  0  0  0  0
  -26.1254  -29.0802   20.8000 C   0  0  0  0  0  0
  -27.1959  -28.0454   20.8773 C   0  0  0  0  0  0
  -25.9204  -26.5454   19.5529 C   0  0  0  0  0  0
  -24.8905  -27.5221   19.4568 C   0  0  0  0  0  0
  -23.7561  -29.7259   20.1372 C   0  0  0  0  0  0
  -25.4151  -36.2900   24.0279 C   0  0  1  0  0  0
  -20.5968  -28.3783   23.1135 C   0  0  2  0  0  0
  -20.6807  -26.9442   22.5398 C   0  0  0  0  0  0
  -19.5784  -26.6369   21.5213 C   0  0  0  0  0  0
  -18.1964  -26.7947   22.1615 C   0  0  0  0  0  0
  -19.1599  -28.8925   23.2778 C   0  0  0  0  0  0
  -18.9507  -30.1507   23.8826 C   0  0  0  0  0  0
  -17.6499  -30.6603   24.0549 C   0  0  0  0  0  0
  -25.9131  -34.9287   23.4957 C   0  0  0  0  0  0
  -16.5388  -29.9085   23.6349 C   0  0  0  0  0  0
  -16.7315  -28.6506   23.0365 C   0  0  0  0  0  0
  -26.4594  -31.6500   25.0706 C   0  0  0  0  0  0
  -25.3656  -31.3826   26.1318 C   0  0  0  0  0  0
  -27.0516  -30.2826   24.6625 C   0  0  0  0  0  0
  -27.6046  -32.4359   25.7517 C   0  0  0  0  0  0
  -27.5570  -37.1738   24.8461 C   0  0  0  0  0  0
  -21.4387  -29.3037   22.3447 N   0  0  0  0  0  0
  -26.4275  -37.3660   23.9405 N   0  0  0  0  0  0
  -24.7791  -30.9485   22.0835 N   0  0  0  0  0  0
  -23.4199  -28.7928   23.3011 O   0  0  0  0  0  0
  -27.9090  -25.3236   20.4999 O   0  0  0  0  0  0
  -26.5765  -34.8859   22.4570 O   0  0  0  0  0  0
  -23.5839  -32.1124   23.6531 O   0  0  0  0  0  0
  -28.5137  -20.6169   21.3806 C   0  0  0  0  0  0
  -27.7043  -21.7992   20.8923 C   0  0  0  0  0  0
  -26.7362  -20.8148   20.3939 C   0  0  0  0  0  0
  -27.3392  -23.6914   20.8605 C   0  0  0  0  0  0
  -28.2059  -15.5454   21.8829 C   0  0  0  0  0  0
  -28.5321  -13.6421   21.1925 C   0  0  0  0  0  0
  -28.6876  -17.4153   21.4456 C   0  0  0  0  0  0
  -29.6065  -13.3790   18.5141 C   0  0  0  0  0  0
  -25.4407  -21.1944   19.7181 C   0  0  0  0  0  0
  -26.9443  -19.4411   20.5521 N   0  0  0  0  0  0
  -28.0767  -19.1090   21.2480 N   0  0  0  0  0  0
  -30.7734  -14.3045   18.2746 N   0  0  0  0  0  0
  -25.6784  -21.9068   18.6163 F   0  0  0  0  0  0
  -24.6728  -21.9030   20.5469 F   0  0  0  0  0  0
  -31.6740  -12.5964   20.0260 H   0  0  0  0  0  0
  -31.0513  -12.8116   21.5439 H   0  0  0  0  0  0
  -29.3096  -11.0957   21.0022 H   0  0  0  0  0  0
  -30.0928  -10.8074   19.5306 H   0  0  0  0  0  0
  -27.4549  -10.9116   19.4161 H   0  0  0  0  0  0
  -28.1250  -11.5691   18.2004 H   0  0  0  0  0  0
  -26.8111  -13.5820   18.2249 H   0  0  0  0  0  0
  -27.8678  -15.9387   19.7011 H   0  0  0  0  0  0
  -28.6153  -15.5217   18.4677 H   0  0  0  0  0  0
  -25.2638   -9.6391   22.4782 H   0  0  0  0  0  0
  -24.0281   -7.5023   22.7386 H   0  0  0  0  0  0
  -21.0884   -8.8749   19.8940 H   0  0  0  0  0  0
  -22.3275  -10.9906   19.6326 H   0  0  0  0  0  0
  -21.2138   -7.6213   23.9719 H   0  0  0  0  0  0
  -21.1505   -6.0562   25.9057 H   0  0  0  0  0  0
  -22.0537   -2.7645   23.2810 H   0  0  0  0  0  0
  -22.3723  -12.0143   22.5147 H   0  0  0  0  0  0
  -21.0361  -13.1109   22.3197 H   0  0  0  0  0  0
  -24.4937  -15.9930   20.5579 H   0  0  0  0  0  0
  -26.0578  -15.7630   19.9580 H   0  0  0  0  0  0
  -26.7482  -32.4925   23.0782 H   0  0  0  0  0  0
  -25.0067  -33.9347   25.0057 H   0  0  0  0  0  0
  -22.8276  -31.2535   21.3282 H   0  0  0  0  0  0
  -23.3779  -35.9473   23.3251 H   0  0  0  0  0  0
  -24.3574  -36.8881   22.2073 H   0  0  0  0  0  0
  -23.7246  -37.6320   23.6761 H   0  0  0  0  0  0
  -26.2914  -31.2338   20.6325 H   0  0  0  0  0  0
  -26.9344  -30.5897   22.0947 H   0  0  0  0  0  0
  -28.0744  -28.2860   21.4595 H   0  0  0  0  0  0
  -25.7383  -25.6099   19.0437 H   0  0  0  0  0  0
  -24.0072  -27.2741   18.8839 H   0  0  0  0  0  0
  -23.9483  -30.4911   19.3842 H   0  0  0  0  0  0
  -22.8562  -29.2071   19.8022 H   0  0  0  0  0  0
  -25.1358  -36.1663   25.0767 H   0  0  0  0  0  0
  -21.0059  -28.3418   24.1260 H   0  0  0  0  0  0
  -20.5673  -26.2409   23.3662 H   0  0  0  0  0  0
  -21.6670  -26.7388   22.1220 H   0  0  0  0  0  0
  -19.6943  -25.6259   21.1295 H   0  0  0  0  0  0
  -19.6732  -27.3136   20.6708 H   0  0  0  0  0  0
  -17.4234  -26.6680   21.4018 H   0  0  0  0  0  0
  -18.0357  -26.0107   22.9030 H   0  0  0  0  0  0
  -19.7984  -30.7335   24.2169 H   0  0  0  0  0  0
  -17.5051  -31.6276   24.5166 H   0  0  0  0  0  0
  -15.5386  -30.2966   23.7718 H   0  0  0  0  0  0
  -15.8712  -28.0803   22.7126 H   0  0  0  0  0  0
  -24.5885  -30.7123   25.7629 H   0  0  0  0  0  0
  -24.8797  -32.3048   26.4514 H   0  0  0  0  0  0
  -25.7836  -30.9153   27.0243 H   0  0  0  0  0  0
  -26.3229  -29.6439   24.1626 H   0  0  0  0  0  0
  -27.3922  -29.7283   25.5380 H   0  0  0  0  0  0
  -27.9228  -30.3926   24.0165 H   0  0  0  0  0  0
  -27.2593  -33.3743   26.1871 H   0  0  0  0  0  0
  -28.3972  -32.6783   25.0425 H   0  0  0  0  0  0
  -28.0582  -31.8634   26.5619 H   0  0  0  0  0  0
  -28.2542  -38.0075   24.7523 H   0  0  0  0  0  0
  -28.1111  -36.2598   24.6271 H   0  0  0  0  0  0
  -27.2286  -37.1352   25.8863 H   0  0  0  0  0  0
  -20.9673  -29.8708   21.6537 H   0  0  0  0  0  0
  -26.0102  -38.2706   24.1421 H   0  0  0  0  0  0
  -29.4574  -20.7366   21.8949 H   0  0  0  0  0  0
  -26.9734  -23.8819   21.8682 H   0  0  0  0  0  0
  -26.4249  -23.7434   20.2740 H   0  0  0  0  0  0
  -28.5408  -15.4670   22.9172 H   0  0  0  0  0  0
  -27.1296  -15.5939   22.0260 H   0  0  0  0  0  0
  -27.8080  -12.9256   21.5652 H   0  0  0  0  0  0
  -29.1556  -13.3558   22.0414 H   0  0  0  0  0  0
  -29.3093  -17.3163   20.5574 H   0  0  0  0  0  0
  -29.4583  -17.5750   22.1990 H   0  0  0  0  0  0
  -28.9801  -13.5921   17.6352 H   0  0  0  0  0  0
  -30.0903  -12.4854   18.0931 H   0  0  0  0  0  0
  -24.8609  -20.3202   19.4188 H   0  0  0  0  0  0
  -31.4006  -14.1737   17.4935 H   0  0  0  0  0  0
  1 25  1  0  0  0
  1 30  2  0  0  0
  1 82  1  0  0  0
  2  3  1  0  0  0
  2 25  1  0  0  0
  2 85  1  0  0  0
  2 86  1  0  0  0
  3  4  1  0  0  0
  3 87  1  0  0  0
  3 88  1  0  0  0
  4  5  1  0  0  0
  4 89  1  0  0  0
  4 90  1  0  0  0
  5  6  1  0  0  0
  5 26  1  0  0  0
  5 91  1  0  0  0
  6 25  1  0  0  0
  6 92  1  0  0  0
  6 93  1  0  0  0
  7  8  2  0  0  0
  7 26  1  0  0  0
  7 29  1  0  0  0
  8  9  1  0  0  0
  8 22  1  0  0  0
  9 10  1  0  0  0
  9 27  2  0  0  0
 10 11  2  0  0  0
 10 15  1  0  0  0
 11 12  1  0  0  0
 11 94  1  0  0  0
 12 13  2  0  0  0
 12 95  1  0  0  0
 13 14  1  0  0  0
 13 31  1  0  0  0
 14 15  2  0  0  0
 14 96  1  0  0  0
 15 97  1  0  0  0
 16 17  2  0  0  0
 16 21  1  0  0  0
 16 31  1  0  0  0
 17 18  1  0  0  0
 17 98  1  0  0  0
 18 19  2  0  0  0
 18 99  1  0  0  0
 19 20  1  0  0  0
 19 24  1  0  0  0
 20 21  2  0  0  0
 20100  1  0  0  0
 21 23  1  0  0  0
 22 28  1  0  0  0
 22 32  2  0  0  0
 26 27  1  0  0  0
 28101  1  0  0  0
 28102  1  0  0  0
 29103  1  0  0  0
 29104  1  0  0  0
 33 34  1  0  0  0
 33 66  1  0  0  0
 33 70  2  0  0  0
 34 36  1  0  0  0
 34 59  1  0  0  0
 34105  1  0  0  0
 35 44  2  0  0  0
 35 45  1  0  0  0
 35 68  1  0  0  0
 36 56  1  0  0  0
 36106  1  0  0  0
 37 39  1  0  0  0
 37 47  1  0  0  0
 37 66  1  0  0  0
 37107  1  0  0  0
 38 43  2  0  0  0
 38 46  1  0  0  0
 38 47  1  0  0  0
 39 64  1  0  0  0
 39 67  2  0  0  0
 40 52  1  0  0  0
 40 53  2  0  0  0
 40 58  1  0  0  0
 41108  1  0  0  0
 41109  1  0  0  0
 41110  1  0  0  0
 41 48  1  0  0  0
 42 43  1  0  0  0
 42 66  1  0  0  0
 42111  1  0  0  0
 42112  1  0  0  0
 43 44  1  0  0  0
 44113  1  0  0  0
 45 46  2  0  0  0
 45114  1  0  0  0
 46115  1  0  0  0
 47116  1  0  0  0
 47117  1  0  0  0
 48 56  1  0  0  0
 48 65  1  0  0  0
 48118  1  0  0  0
 49 50  1  0  0  0
 49 53  1  0  0  0
 49 64  1  0  0  0
 49119  1  0  0  0
 50 51  1  0  0  0
 50120  1  0  0  0
 50121  1  0  0  0
 51 52  1  0  0  0
 51122  1  0  0  0
 51123  1  0  0  0
 52124  1  0  0  0
 52125  1  0  0  0
 53 54  1  0  0  0
 54 55  2  0  0  0
 54126  1  0  0  0
 55 57  1  0  0  0
 55127  1  0  0  0
 56 69  2  0  0  0
 57 58  2  0  0  0
 57128  1  0  0  0
 58129  1  0  0  0
 59 60  1  0  0  0
 59 61  1  0  0  0
 59 62  1  0  0  0
 60130  1  0  0  0
 60131  1  0  0  0
 60132  1  0  0  0
 61133  1  0  0  0
 61134  1  0  0  0
 61135  1  0  0  0
 62136  1  0  0  0
 62137  1  0  0  0
 62138  1  0  0  0
 63 65  1  0  0  0
 63139  1  0  0  0
 63140  1  0  0  0
 63141  1  0  0  0
 64142  1  0  0  0
 65143  1  0  0  0
 68 74  1  0  0  0
 71 72  2  0  0  0
 71 81  1  0  0  0
 71144  1  0  0  0
 72 73  1  0  0  0
 72 74  1  0  0  0
 73 79  1  0  0  0
 73 80  2  0  0  0
 74145  1  0  0  0
 74146  1  0  0  0
 75 76  1  0  0  0
 75 77  1  0  0  0
 75147  1  0  0  0
 75148  1  0  0  0
 76 78  1  0  0  0
 76149  1  0  0  0
 76150  1  0  0  0
 77 81  1  0  0  0
 77151  1  0  0  0
 77152  1  0  0  0
 78 82  1  0  0  0
 78153  1  0  0  0
 78154  1  0  0  0
 79 83  1  0  0  0
 79 84  1  0  0  0
 79155  1  0  0  0
 80 81  1  0  0  0
 82156  1  0  0  0
M  ISO  4   1 100  68 101  74 101  82 100
M  END
> <chiral flag>
0

> <version>
0

> <s_m_source_file>
/data/baiqing/PycharmProjects/Reinvent-master-3.2/result/LINK_invent/BTK/process_docking_weight1_custom_sum_contain_oxygen_bond_distance_aromatic_linkinvent_7_9_3/rearranged_h_0043.sdf

> <i_m_source_file_index>
59

> <r_mmod_Potential_Energy-OPLS-2005>
9760.4765625

> <r_mmod_Stretch_Energy-OPLS-2005>
4616.47216796875

> <r_mmod_Bend_Energy-OPLS-2005>
980.721801757812

> <r_mmod_Torsional_Energy-OPLS-2005>
411.973022460938

> <r_mmod_Improper_Torsional_Energy-OPLS-2005>
25.911792755127

> <r_mmod_Van_der_Waal_Energy-OPLS-2005>
1868.63671875

> <r_mmod_Electrostatic_Energy-OPLS-2005>
-368.611175537109

> <r_mmod_Solvation_Energy-OPLS-2005>
-215.027862548828

> <b_mmod_Minimization_Converged-OPLS-2005>
0

> <r_mmod_RMS_Derivative-OPLS-2005>
1.72081875801086

$$$$
59
                    3D
 Structure written by MMmdl.
163171  0  0  1  0            999 V2000
  -30.7458  -14.5402   20.4870 C   0  0  0  0  0  0
  -30.4065  -12.3349   19.4455 C   0  0  0  0  0  0
  -29.4950  -12.4812   18.2132 C   0  0  0  0  0  0
  -28.0180  -12.3437   18.6279 C   0  0  0  0  0  0
  -27.6475  -13.2284   19.8516 C   0  0  2  0  0  0
  -28.6992  -13.1287   20.9808 C   0  0  0  0  0  0
  -25.2530  -13.8203   20.5663 C   0  0  0  0  0  0
  -24.1816  -13.0452   20.9169 C   0  0  0  0  0  0
  -24.6389  -11.6934   20.8707 C   0  0  0  0  0  0
  -23.9049  -10.4309   21.0376 C   0  0  0  0  0  0
  -24.3606   -9.4242   21.9163 C   0  0  0  0  0  0
  -23.6274   -8.2262   22.0760 C   0  0  0  0  0  0
  -22.4256   -8.0281   21.3539 C   0  0  0  0  0  0
  -21.9885   -9.0265   20.4654 C   0  0  0  0  0  0
  -22.7211  -10.2140   20.3059 C   0  0  0  0  0  0
  -21.6861   -6.0728   22.5264 C   0  0  0  0  0  0
  -21.4040   -6.5633   23.8199 C   0  0  0  0  0  0
  -21.3672   -5.6793   24.9159 C   0  0  0  0  0  0
  -21.6041   -4.3049   24.7221 C   0  0  0  0  0  0
  -21.8811   -3.8127   23.4340 C   0  0  0  0  0  0
  -21.9195   -4.6949   22.3385 C   0  0  0  0  0  0
  -22.7837  -13.5247   21.1823 C   0  0  0  0  0  0
  -22.1658   -4.2122   21.0961 F   0  0  0  0  0  0
  -21.5628   -3.4529   25.7733 F   0  0  0  0  0  0
  -30.0140  -13.3944   20.3873 N   0  0  0  0  0  0
  -26.2983  -12.9399   20.3270 N   0  0  0  0  0  0
  -25.9330  -11.6545   20.5747 N   0  0  0  0  0  0
  -22.0491  -12.8259   22.0401 N   0  0  0  0  0  0
  -25.4213  -15.1931   20.4034 N   0  0  0  0  0  0
  -31.9480  -14.5684   20.2382 O   0  0  0  0  0  0
  -21.6655   -6.8872   21.4219 O   0  0  0  0  0  0
  -22.3527  -14.5565   20.6714 O   0  0  0  0  0  0
  -24.6187  -31.8715   23.2095 C   0  0  0  0  0  0
  -25.9089  -32.4806   23.8434 C   0  0  1  0  0  0
  -27.1981  -27.3873   20.1390 C   0  0  0  0  0  0
  -25.5934  -33.8602   24.2374 N   0  0  0  0  0  0
  -23.4080  -30.5004   21.5473 C   0  0  2  0  0  0
  -24.8482  -28.9737   20.0896 C   0  0  0  0  0  0
  -22.7436  -29.4724   22.4958 C   0  0  0  0  0  0
  -18.0338  -28.1323   22.8359 C   0  0  0  0  0  0
  -24.1491  -36.7266   23.2625 C   0  0  0  0  0  0
  -25.9421  -30.8178   21.3789 C   0  0  0  0  0  0
  -26.0048  -29.4559   20.7164 C   0  0  0  0  0  0
  -27.1800  -28.6705   20.7399 C   0  0  0  0  0  0
  -26.0418  -26.9529   19.4558 C   0  0  0  0  0  0
  -24.8710  -27.7265   19.4454 C   0  0  0  0  0  0
  -23.6107  -29.8423   20.1567 C   0  0  0  0  0  0
  -25.4110  -36.3088   24.0355 C   0  0  1  0  0  0
  -20.5912  -28.3671   23.1219 C   0  0  2  0  0  0
  -20.6883  -26.9466   22.5244 C   0  0  0  0  0  0
  -19.5855  -26.6366   21.5051 C   0  0  0  0  0  0
  -18.1987  -26.7907   22.1412 C   0  0  0  0  0  0
  -19.1546  -28.8775   23.2804 C   0  0  0  0  0  0
  -18.9466  -30.1330   23.8916 C   0  0  0  0  0  0
  -17.6440  -30.6454   24.0605 C   0  0  0  0  0  0
  -25.9075  -34.9450   23.5163 C   0  0  0  0  0  0
  -16.5359  -29.8968   23.6243 C   0  0  0  0  0  0
  -16.7295  -28.6421   23.0204 C   0  0  0  0  0  0
  -26.4441  -31.6528   25.0741 C   0  0  0  0  0  0
  -25.3719  -31.3766   26.1514 C   0  0  0  0  0  0
  -27.0241  -30.2909   24.6244 C   0  0  0  0  0  0
  -27.6098  -32.4221   25.7385 C   0  0  0  0  0  0
  -27.5600  -37.1798   24.8483 C   0  0  0  0  0  0
  -21.4172  -29.3064   22.3630 N   0  0  0  0  0  0
  -26.4314  -37.3777   23.9418 N   0  0  0  0  0  0
  -24.6740  -31.0811   22.0985 N   0  0  0  0  0  0
  -23.4213  -28.8306   23.3069 O   0  0  0  0  0  0
  -28.3187  -26.5881   20.2640 O   0  0  0  0  0  0
  -26.5621  -34.8913   22.4727 O   0  0  0  0  0  0
  -23.5377  -32.1521   23.7443 O   0  0  0  0  0  0
  -29.6946  -21.2528   21.8021 C   0  0  0  0  0  0
  -28.6977  -20.6154   21.1079 C   0  0  0  0  0  0
  -28.1958  -22.8344   21.2700 C   0  0  0  0  0  0
  -27.7482  -24.9201   22.6388 C   0  0  0  0  0  0
  -25.9949  -24.1728   21.0842 C   0  0  0  0  0  0
  -26.7593  -21.5155   19.7046 C   0  0  0  0  0  0
  -28.4348  -19.1132   20.9351 C   0  0  0  0  0  0
  -29.6370  -18.1549   20.6335 C   0  0  0  0  0  0
  -29.3867  -16.6502   21.0420 C   0  0  0  0  0  0
  -28.2238  -25.1390   20.1313 C   0  0  0  0  0  0
  -27.5402  -24.2497   21.2531 C   0  0  0  0  0  0
  -27.8643  -21.6551   20.6699 N   0  0  0  0  0  0
  -29.3502  -22.5745   21.9055 N   0  3  0  0  0  0
  -30.1079  -15.6921   20.1820 N   0  0  0  0  0  0
  -31.4585  -12.3996   19.1490 H   0  0  0  0  0  0
  -30.2880  -11.3523   19.9046 H   0  0  0  0  0  0
  -29.7495  -11.7348   17.4590 H   0  0  0  0  0  0
  -29.6597  -13.4550   17.7482 H   0  0  0  0  0  0
  -27.8382  -11.2923   18.8548 H   0  0  0  0  0  0
  -27.3717  -12.5859   17.7847 H   0  0  0  0  0  0
  -27.6588  -14.2572   19.4878 H   0  0  0  0  0  0
  -28.6823  -12.1399   21.4456 H   0  0  0  0  0  0
  -28.4776  -13.8545   21.7698 H   0  0  0  0  0  0
  -25.2751   -9.5710   22.4740 H   0  0  0  0  0  0
  -23.9978   -7.4675   22.7501 H   0  0  0  0  0  0
  -21.0810   -8.8786   19.8976 H   0  0  0  0  0  0
  -22.3651  -10.9684   19.6182 H   0  0  0  0  0  0
  -21.2061   -7.6140   23.9691 H   0  0  0  0  0  0
  -21.1501   -6.0520   25.9065 H   0  0  0  0  0  0
  -22.0576   -2.7574   23.2837 H   0  0  0  0  0  0
  -22.4116  -11.9905   22.4765 H   0  0  0  0  0  0
  -21.1157  -13.1313   22.2684 H   0  0  0  0  0  0
  -24.6420  -15.8399   20.4849 H   0  0  0  0  0  0
  -26.2682  -15.6267   20.0567 H   0  0  0  0  0  0
  -26.7186  -32.5479   23.1221 H   0  0  0  0  0  0
  -25.0073  -33.9764   25.0495 H   0  0  0  0  0  0
  -22.7040  -31.3192   21.4127 H   0  0  0  0  0  0
  -23.3768  -35.9591   23.3285 H   0  0  0  0  0  0
  -24.3654  -36.8844   22.2060 H   0  0  0  0  0  0
  -23.7208  -37.6480   23.6584 H   0  0  0  0  0  0
  -26.1069  -31.5867   20.6262 H   0  0  0  0  0  0
  -26.8171  -30.8478   22.0136 H   0  0  0  0  0  0
  -28.0563  -29.0305   21.2577 H   0  0  0  0  0  0
  -26.0100  -26.0046   18.9388 H   0  0  0  0  0  0
  -24.0005  -27.3537   18.9298 H   0  0  0  0  0  0
  -23.7146  -30.6257   19.4066 H   0  0  0  0  0  0
  -22.7388  -29.2594   19.8556 H   0  0  0  0  0  0
  -25.1259  -36.2023   25.0863 H   0  0  0  0  0  0
  -21.0005  -28.3190   24.1335 H   0  0  0  0  0  0
  -20.5914  -26.2276   23.3396 H   0  0  0  0  0  0
  -21.6737  -26.7626   22.0962 H   0  0  0  0  0  0
  -19.7093  -25.6250   21.1130 H   0  0  0  0  0  0
  -19.6786  -27.3109   20.6534 H   0  0  0  0  0  0
  -17.4357  -26.6705   21.3713 H   0  0  0  0  0  0
  -18.0337  -25.9970   22.8725 H   0  0  0  0  0  0
  -19.7929  -30.7096   24.2390 H   0  0  0  0  0  0
  -17.4978  -31.6099   24.5297 H   0  0  0  0  0  0
  -15.5342  -30.2855   23.7527 H   0  0  0  0  0  0
  -15.8736  -28.0747   22.6834 H   0  0  0  0  0  0
  -24.5951  -30.6971   25.7935 H   0  0  0  0  0  0
  -24.8794  -32.2957   26.4742 H   0  0  0  0  0  0
  -25.8084  -30.9176   27.0394 H   0  0  0  0  0  0
  -26.2805  -29.6665   24.1265 H   0  0  0  0  0  0
  -27.3858  -29.7165   25.4780 H   0  0  0  0  0  0
  -27.8715  -30.4070   23.9490 H   0  0  0  0  0  0
  -27.2805  -33.3544   26.1975 H   0  0  0  0  0  0
  -28.3801  -32.6758   25.0085 H   0  0  0  0  0  0
  -28.0862  -31.8353   26.5243 H   0  0  0  0  0  0
  -28.2655  -38.0050   24.7485 H   0  0  0  0  0  0
  -28.1050  -36.2606   24.6315 H   0  0  0  0  0  0
  -27.2356  -37.1463   25.8897 H   0  0  0  0  0  0
  -20.9370  -29.8703   21.6727 H   0  0  0  0  0  0
  -26.0212  -38.2886   24.1356 H   0  0  0  0  0  0
  -30.5846  -20.8599   22.2773 H   0  0  0  0  0  0
  -27.3375  -24.3114   23.4476 H   0  0  0  0  0  0
  -27.2457  -25.8888   22.7038 H   0  0  0  0  0  0
  -28.7932  -25.1126   22.8677 H   0  0  0  0  0  0
  -25.5371  -23.4281   21.7444 H   0  0  0  0  0  0
  -25.6876  -23.9511   20.0630 H   0  0  0  0  0  0
  -25.5111  -25.1188   21.3344 H   0  0  0  0  0  0
  -26.9500  -20.6874   19.0272 H   0  0  0  0  0  0
  -26.7006  -22.4015   19.0725 H   0  0  0  0  0  0
  -25.8137  -21.3531   20.2232 H   0  0  0  0  0  0
  -27.6612  -18.9429   20.1865 H   0  0  0  0  0  0
  -27.9924  -18.7867   21.8766 H   0  0  0  0  0  0
  -30.5341  -18.5040   21.1504 H   0  0  0  0  0  0
  -29.8723  -18.2366   19.5708 H   0  0  0  0  0  0
  -28.3228  -16.4194   20.9714 H   0  0  0  0  0  0
  -29.6670  -16.5118   22.0885 H   0  0  0  0  0  0
  -29.2807  -24.8606   20.1398 H   0  0  0  0  0  0
  -27.8838  -24.8542   19.1386 H   0  0  0  0  0  0
  -29.8761  -23.2592   22.4337 H   0  0  0  0  0  0
  -30.7277  -16.2008   19.5659 H   0  0  0  0  0  0
  1 25  1  0  0  0
  1 30  2  0  0  0
  1 84  1  0  0  0
  2  3  1  0  0  0
  2 25  1  0  0  0
  2 85  1  0  0  0
  2 86  1  0  0  0
  3  4  1  0  0  0
  3 87  1  0  0  0
  3 88  1  0  0  0
  4  5  1  0  0  0
  4 89  1  0  0  0
  4 90  1  0  0  0
  5  6  1  0  0  0
  5 26  1  0  0  0
  5 91  1  0  0  0
  6 25  1  0  0  0
  6 92  1  0  0  0
  6 93  1  0  0  0
  7  8  2  0  0  0
  7 26  1  0  0  0
  7 29  1  0  0  0
  8  9  1  0  0  0
  8 22  1  0  0  0
  9 10  1  0  0  0
  9 27  2  0  0  0
 10 11  2  0  0  0
 10 15  1  0  0  0
 11 12  1  0  0  0
 11 94  1  0  0  0
 12 13  2  0  0  0
 12 95  1  0  0  0
 13 14  1  0  0  0
 13 31  1  0  0  0
 14 15  2  0  0  0
 14 96  1  0  0  0
 15 97  1  0  0  0
 16 17  2  0  0  0
 16 21  1  0  0  0
 16 31  1  0  0  0
 17 18  1  0  0  0
 17 98  1  0  0  0
 18 19  2  0  0  0
 18 99  1  0  0  0
 19 20  1  0  0  0
 19 24  1  0  0  0
 20 21  2  0  0  0
 20100  1  0  0  0
 21 23  1  0  0  0
 22 28  1  0  0  0
 22 32  2  0  0  0
 26 27  1  0  0  0
 28101  1  0  0  0
 28102  1  0  0  0
 29103  1  0  0  0
 29104  1  0  0  0
 33 34  1  0  0  0
 33 66  1  0  0  0
 33 70  2  0  0  0
 34 36  1  0  0  0
 34 59  1  0  0  0
 34105  1  0  0  0
 35 44  2  0  0  0
 35 45  1  0  0  0
 35 68  1  0  0  0
 36 56  1  0  0  0
 36106  1  0  0  0
 37 39  1  0  0  0
 37 47  1  0  0  0
 37 66  1  0  0  0
 37107  1  0  0  0
 38 43  2  0  0  0
 38 46  1  0  0  0
 38 47  1  0  0  0
 39 64  1  0  0  0
 39 67  2  0  0  0
 40 52  1  0  0  0
 40 53  2  0  0  0
 40 58  1  0  0  0
 41108  1  0  0  0
 41109  1  0  0  0
 41110  1  0  0  0
 41 48  1  0  0  0
 42 43  1  0  0  0
 42 66  1  0  0  0
 42111  1  0  0  0
 42112  1  0  0  0
 43 44  1  0  0  0
 44113  1  0  0  0
 45 46  2  0  0  0
 45114  1  0  0  0
 46115  1  0  0  0
 47116  1  0  0  0
 47117  1  0  0  0
 48 56  1  0  0  0
 48 65  1  0  0  0
 48118  1  0  0  0
 49 50  1  0  0  0
 49 53  1  0  0  0
 49 64  1  0  0  0
 49119  1  0  0  0
 50 51  1  0  0  0
 50120  1  0  0  0
 50121  1  0  0  0
 51 52  1  0  0  0
 51122  1  0  0  0
 51123  1  0  0  0
 52124  1  0  0  0
 52125  1  0  0  0
 53 54  1  0  0  0
 54 55  2  0  0  0
 54126  1  0  0  0
 55 57  1  0  0  0
 55127  1  0  0  0
 56 69  2  0  0  0
 57 58  2  0  0  0
 57128  1  0  0  0
 58129  1  0  0  0
 59 60  1  0  0  0
 59 61  1  0  0  0
 59 62  1  0  0  0
 60130  1  0  0  0
 60131  1  0  0  0
 60132  1  0  0  0
 61133  1  0  0  0
 61134  1  0  0  0
 61135  1  0  0  0
 62136  1  0  0  0
 62137  1  0  0  0
 62138  1  0  0  0
 63 65  1  0  0  0
 63139  1  0  0  0
 63140  1  0  0  0
 63141  1  0  0  0
 64142  1  0  0  0
 65143  1  0  0  0
 68 80  1  0  0  0
 71 72  2  0  0  0
 71 83  1  0  0  0
 71144  1  0  0  0
 72 77  1  0  0  0
 72 82  1  0  0  0
 73 81  1  0  0  0
 73 82  1  0  0  0
 73 83  2  0  0  0
 74145  1  0  0  0
 74146  1  0  0  0
 74147  1  0  0  0
 74 81  1  0  0  0
 75 81  1  0  0  0
 75148  1  0  0  0
 75149  1  0  0  0
 75150  1  0  0  0
 76 82  1  0  0  0
 76151  1  0  0  0
 76152  1  0  0  0
 76153  1  0  0  0
 77 78  1  0  0  0
 77154  1  0  0  0
 77155  1  0  0  0
 78 79  1  0  0  0
 78156  1  0  0  0
 78157  1  0  0  0
 79 84  1  0  0  0
 79158  1  0  0  0
 79159  1  0  0  0
 80 81  1  0  0  0
 80160  1  0  0  0
 80161  1  0  0  0
 83162  1  0  0  0
 84163  1  0  0  0
M  CHG  1  83   1
M  ISO  4   1 100  68 101  80 101  84 100
M  END
> <chiral flag>
0

> <version>
0

> <s_m_source_file>
/data/baiqing/PycharmProjects/Reinvent-master-3.2/result/LINK_invent/BTK/process_docking_weight1_custom_sum_contain_oxygen_bond_distance_aromatic_linkinvent_7_9_3/rearranged_h_0043.sdf

> <i_m_source_file_index>
60

> <r_mmod_Potential_Energy-OPLS-2005>
56.1149826049805

> <r_mmod_Stretch_Energy-OPLS-2005>
57.6541862487793

> <r_mmod_Bend_Energy-OPLS-2005>
158.399826049805

> <r_mmod_Torsional_Energy-OPLS-2005>
307.029815673828

> <r_mmod_Improper_Torsional_Energy-OPLS-2005>
29.1897144317627

> <r_mmod_Van_der_Waal_Energy-OPLS-2005>
119.008491516113

> <r_mmod_Electrostatic_Energy-OPLS-2005>
-242.38671875

> <r_mmod_Solvation_Energy-OPLS-2005>
-416.060272216797

> <b_mmod_Minimization_Converged-OPLS-2005>
0

> <r_mmod_RMS_Derivative-OPLS-2005>
8.89238262176514

$$$$
60
                    3D
 Structure written by MMmdl.
160168  0  0  1  0            999 V2000
  -30.6972  -14.6071   20.4886 C   0  0  0  0  0  0
  -30.4204  -12.3735   19.4577 C   0  0  0  0  0  0
  -29.4977  -12.4847   18.2267 C   0  0  0  0  0  0
  -28.0264  -12.3224   18.6488 C   0  0  0  0  0  0
  -27.6488  -13.2219   19.8562 C   0  0  2  0  0  0
  -28.6955  -13.1305   20.9900 C   0  0  0  0  0  0
  -25.2546  -13.8193   20.5698 C   0  0  0  0  0  0
  -24.1823  -13.0447   20.9196 C   0  0  0  0  0  0
  -24.6396  -11.6916   20.8754 C   0  0  0  0  0  0
  -23.9067  -10.4300   21.0418 C   0  0  0  0  0  0
  -24.3619   -9.4216   21.9190 C   0  0  0  0  0  0
  -23.6298   -8.2248   22.0755 C   0  0  0  0  0  0
  -22.4283   -8.0286   21.3543 C   0  0  0  0  0  0
  -21.9922   -9.0258   20.4640 C   0  0  0  0  0  0
  -22.7247  -10.2137   20.3053 C   0  0  0  0  0  0
  -21.6854   -6.0738   22.5277 C   0  0  0  0  0  0
  -21.4021   -6.5638   23.8212 C   0  0  0  0  0  0
  -21.3659   -5.6796   24.9176 C   0  0  0  0  0  0
  -21.6042   -4.3060   24.7228 C   0  0  0  0  0  0
  -21.8816   -3.8152   23.4351 C   0  0  0  0  0  0
  -21.9192   -4.6965   22.3402 C   0  0  0  0  0  0
  -22.7846  -13.5226   21.1868 C   0  0  0  0  0  0
  -22.1661   -4.2151   21.0981 F   0  0  0  0  0  0
  -21.5623   -3.4545   25.7740 F   0  0  0  0  0  0
  -30.0116  -13.4265   20.4081 N   0  0  0  0  0  0
  -26.2978  -12.9382   20.3327 N   0  0  0  0  0  0
  -25.9331  -11.6532   20.5791 N   0  0  0  0  0  0
  -22.0505  -12.8194   22.0412 N   0  0  0  0  0  0
  -25.4250  -15.1917   20.4119 N   0  0  0  0  0  0
  -31.8760  -14.6850   20.1371 O   0  0  0  0  0  0
  -21.6644   -6.8885   21.4239 O   0  0  0  0  0  0
  -22.3531  -14.5546   20.6731 O   0  0  0  0  0  0
  -24.6293  -31.8639   23.2095 C   0  0  0  0  0  0
  -25.9152  -32.4804   23.8393 C   0  0  1  0  0  0
  -27.2031  -27.3218   20.0968 C   0  0  0  0  0  0
  -25.5994  -33.8600   24.2326 N   0  0  0  0  0  0
  -23.4182  -30.4968   21.5543 C   0  0  2  0  0  0
  -24.8587  -28.9699   20.1097 C   0  0  0  0  0  0
  -22.7488  -29.4650   22.4949 C   0  0  0  0  0  0
  -18.0295  -28.1392   22.8487 C   0  0  0  0  0  0
  -24.1493  -36.7293   23.2625 C   0  0  0  0  0  0
  -25.9645  -30.7947   21.3824 C   0  0  0  0  0  0
  -26.0343  -29.4264   20.7182 C   0  0  0  0  0  0
  -27.2108  -28.6143   20.7077 C   0  0  0  0  0  0
  -25.9986  -26.9422   19.4462 C   0  0  0  0  0  0
  -24.8436  -27.7321   19.4652 C   0  0  0  0  0  0
  -23.6300  -29.8510   20.1646 C   0  0  0  0  0  0
  -25.4117  -36.3100   24.0332 C   0  0  1  0  0  0
  -20.5893  -28.3696   23.1283 C   0  0  2  0  0  0
  -20.6793  -26.9424   22.5389 C   0  0  0  0  0  0
  -19.5748  -26.6386   21.5214 C   0  0  0  0  0  0
  -18.1927  -26.7935   22.1622 C   0  0  0  0  0  0
  -19.1548  -28.8861   23.2873 C   0  0  0  0  0  0
  -18.9471  -30.1467   23.8886 C   0  0  0  0  0  0
  -17.6473  -30.6593   24.0566 C   0  0  0  0  0  0
  -25.9061  -34.9467   23.5119 C   0  0  0  0  0  0
  -16.5364  -29.9092   23.6339 C   0  0  0  0  0  0
  -16.7284  -28.6513   23.0356 C   0  0  0  0  0  0
  -26.4538  -31.6603   25.0749 C   0  0  0  0  0  0
  -25.3775  -31.3698   26.1475 C   0  0  0  0  0  0
  -27.0407  -30.3056   24.6152 C   0  0  0  0  0  0
  -27.6076  -32.4352   25.7530 C   0  0  0  0  0  0
  -27.5585  -37.1802   24.8464 C   0  0  0  0  0  0
  -21.4198  -29.3068   22.3697 N   0  0  0  0  0  0
  -26.4297  -37.3794   23.9412 N   0  0  0  0  0  0
  -24.6900  -31.0666   22.1052 N   0  0  0  0  0  0
  -23.4227  -28.8143   23.2978 O   0  0  0  0  0  0
  -28.2884  -26.4212   20.1576 O   0  0  0  0  0  0
  -26.5575  -34.8919   22.4653 O   0  0  0  0  0  0
  -23.5461  -32.1449   23.7429 O   0  0  0  0  0  0
  -29.8183  -22.1949   21.4614 C   0  0  0  0  0  0
  -29.7661  -21.1662   20.4861 C   0  0  0  0  0  0
  -29.1978  -21.5861   19.2642 C   0  0  0  0  0  0
  -28.8250  -23.7532   20.0659 C   0  0  0  0  0  0
  -27.3727  -19.1975   16.7636 C   0  0  0  0  0  0
  -30.4635  -19.7765   20.7037 C   0  0  0  0  0  0
  -29.0161  -20.6591   18.0726 C   0  0  0  0  0  0
  -27.9208  -25.0160   19.8556 C   0  0  0  0  0  0
  -27.5719  -20.1402   17.9586 C   0  0  0  0  0  0
  -29.6627  -18.4055   20.7161 C   0  0  0  0  0  0
  -30.6034  -17.1283   20.7146 C   0  0  0  0  0  0
  -29.3394  -23.4559   21.2621 N   0  0  0  0  0  0
  -28.7496  -22.8504   19.0813 N   0  0  0  0  0  0
  -30.0021  -15.7516   20.7624 N   0  0  0  0  0  0
  -31.4648  -12.4621   19.1529 H   0  0  0  0  0  0
  -30.3301  -11.3910   19.9241 H   0  0  0  0  0  0
  -29.7614  -11.7251   17.4895 H   0  0  0  0  0  0
  -29.6378  -13.4515   17.7395 H   0  0  0  0  0  0
  -27.8783  -11.2734   18.9111 H   0  0  0  0  0  0
  -27.3637  -12.5191   17.8054 H   0  0  0  0  0  0
  -27.6560  -14.2461   19.4838 H   0  0  0  0  0  0
  -28.6992  -12.1378   21.4412 H   0  0  0  0  0  0
  -28.4533  -13.8281   21.7934 H   0  0  0  0  0  0
  -25.2763   -9.5693   22.4765 H   0  0  0  0  0  0
  -24.0009   -7.4642   22.7480 H   0  0  0  0  0  0
  -21.0856   -8.8776   19.8946 H   0  0  0  0  0  0
  -22.3716  -10.9675   19.6163 H   0  0  0  0  0  0
  -21.2021   -7.6145   23.9717 H   0  0  0  0  0  0
  -21.1480   -6.0528   25.9078 H   0  0  0  0  0  0
  -22.0592   -2.7616   23.2852 H   0  0  0  0  0  0
  -22.4130  -11.9823   22.4736 H   0  0  0  0  0  0
  -21.1137  -13.1209   22.2679 H   0  0  0  0  0  0
  -24.6563  -15.8449   20.5194 H   0  0  0  0  0  0
  -26.2743  -15.6335   20.0836 H   0  0  0  0  0  0
  -26.7204  -32.5479   23.1126 H   0  0  0  0  0  0
  -25.0286  -33.9747   25.0575 H   0  0  0  0  0  0
  -22.7116  -31.3184   21.4212 H   0  0  0  0  0  0
  -23.3770  -35.9609   23.3282 H   0  0  0  0  0  0
  -24.3588  -36.8926   22.2041 H   0  0  0  0  0  0
  -23.7237  -37.6489   23.6655 H   0  0  0  0  0  0
  -26.0974  -31.5594   20.6157 H   0  0  0  0  0  0
  -26.8453  -30.8395   22.0106 H   0  0  0  0  0  0
  -28.1083  -28.9576   21.2031 H   0  0  0  0  0  0
  -25.8763  -26.0145   18.9127 H   0  0  0  0  0  0
  -23.9474  -27.3797   18.9737 H   0  0  0  0  0  0
  -23.7536  -30.6373   19.4191 H   0  0  0  0  0  0
  -22.7471  -29.2895   19.8540 H   0  0  0  0  0  0
  -25.1284  -36.1951   25.0819 H   0  0  0  0  0  0
  -20.9984  -28.3275   24.1404 H   0  0  0  0  0  0
  -20.5755  -26.2290   23.3578 H   0  0  0  0  0  0
  -21.6652  -26.7485   22.1136 H   0  0  0  0  0  0
  -19.6906  -25.6295   21.1247 H   0  0  0  0  0  0
  -19.6691  -27.3189   20.6735 H   0  0  0  0  0  0
  -17.4198  -26.6718   21.4010 H   0  0  0  0  0  0
  -18.0300  -26.0065   22.8995 H   0  0  0  0  0  0
  -19.7951  -30.7290   24.2233 H   0  0  0  0  0  0
  -17.5030  -31.6278   24.5160 H   0  0  0  0  0  0
  -15.5364  -30.2995   23.7669 H   0  0  0  0  0  0
  -15.8681  -28.0840   22.7062 H   0  0  0  0  0  0
  -24.5963  -30.7037   25.7803 H   0  0  0  0  0  0
  -24.8944  -32.2841   26.4931 H   0  0  0  0  0  0
  -25.8115  -30.8868   27.0241 H   0  0  0  0  0  0
  -26.2988  -29.6789   24.1191 H   0  0  0  0  0  0
  -27.4199  -29.7309   25.4612 H   0  0  0  0  0  0
  -27.8806  -30.4410   23.9331 H   0  0  0  0  0  0
  -27.2690  -33.3680   26.2055 H   0  0  0  0  0  0
  -28.3926  -32.6883   25.0389 H   0  0  0  0  0  0
  -28.0704  -31.8514   26.5502 H   0  0  0  0  0  0
  -28.2573  -38.0123   24.7566 H   0  0  0  0  0  0
  -28.1122  -36.2664   24.6255 H   0  0  0  0  0  0
  -27.2290  -37.1399   25.8857 H   0  0  0  0  0  0
  -20.9366  -29.8881   21.6993 H   0  0  0  0  0  0
  -26.0183  -38.2867   24.1437 H   0  0  0  0  0  0
  -30.2703  -22.0112   22.4248 H   0  0  0  0  0  0
  -26.3449  -18.8359   16.7182 H   0  0  0  0  0  0
  -28.0291  -18.3294   16.8324 H   0  0  0  0  0  0
  -27.5873  -19.7054   15.8226 H   0  0  0  0  0  0
  -31.0205  -19.8378   21.6405 H   0  0  0  0  0  0
  -31.2389  -19.7055   19.9387 H   0  0  0  0  0  0
  -29.7109  -19.8236   18.1305 H   0  0  0  0  0  0
  -29.2866  -21.2003   17.1643 H   0  0  0  0  0  0
  -27.0100  -24.7686   20.4044 H   0  0  0  0  0  0
  -27.6749  -24.9944   18.7923 H   0  0  0  0  0  0
  -27.2987  -19.6240   18.8792 H   0  0  0  0  0  0
  -26.8860  -20.9843   17.8761 H   0  0  0  0  0  0
  -29.0090  -18.3473   19.8478 H   0  0  0  0  0  0
  -29.0095  -18.3801   21.5886 H   0  0  0  0  0  0
  -31.2986  -17.2067   21.5515 H   0  0  0  0  0  0
  -31.2224  -17.1872   19.8171 H   0  0  0  0  0  0
  -29.0186  -15.6632   20.9680 H   0  0  0  0  0  0
  1 25  1  0  0  0
  1 30  2  0  0  0
  1 84  1  0  0  0
  2  3  1  0  0  0
  2 25  1  0  0  0
  2 85  1  0  0  0
  2 86  1  0  0  0
  3  4  1  0  0  0
  3 87  1  0  0  0
  3 88  1  0  0  0
  4  5  1  0  0  0
  4 89  1  0  0  0
  4 90  1  0  0  0
  5  6  1  0  0  0
  5 26  1  0  0  0
  5 91  1  0  0  0
  6 25  1  0  0  0
  6 92  1  0  0  0
  6 93  1  0  0  0
  7  8  2  0  0  0
  7 26  1  0  0  0
  7 29  1  0  0  0
  8  9  1  0  0  0
  8 22  1  0  0  0
  9 10  1  0  0  0
  9 27  2  0  0  0
 10 11  2  0  0  0
 10 15  1  0  0  0
 11 12  1  0  0  0
 11 94  1  0  0  0
 12 13  2  0  0  0
 12 95  1  0  0  0
 13 14  1  0  0  0
 13 31  1  0  0  0
 14 15  2  0  0  0
 14 96  1  0  0  0
 15 97  1  0  0  0
 16 17  2  0  0  0
 16 21  1  0  0  0
 16 31  1  0  0  0
 17 18  1  0  0  0
 17 98  1  0  0  0
 18 19  2  0  0  0
 18 99  1  0  0  0
 19 20  1  0  0  0
 19 24  1  0  0  0
 20 21  2  0  0  0
 20100  1  0  0  0
 21 23  1  0  0  0
 22 28  1  0  0  0
 22 32  2  0  0  0
 26 27  1  0  0  0
 28101  1  0  0  0
 28102  1  0  0  0
 29103  1  0  0  0
 29104  1  0  0  0
 33 34  1  0  0  0
 33 66  1  0  0  0
 33 70  2  0  0  0
 34 36  1  0  0  0
 34 59  1  0  0  0
 34105  1  0  0  0
 35 44  2  0  0  0
 35 45  1  0  0  0
 35 68  1  0  0  0
 36 56  1  0  0  0
 36106  1  0  0  0
 37 39  1  0  0  0
 37 47  1  0  0  0
 37 66  1  0  0  0
 37107  1  0  0  0
 38 43  2  0  0  0
 38 46  1  0  0  0
 38 47  1  0  0  0
 39 64  1  0  0  0
 39 67  2  0  0  0
 40 52  1  0  0  0
 40 53  2  0  0  0
 40 58  1  0  0  0
 41108  1  0  0  0
 41109  1  0  0  0
 41110  1  0  0  0
 41 48  1  0  0  0
 42 43  1  0  0  0
 42 66  1  0  0  0
 42111  1  0  0  0
 42112  1  0  0  0
 43 44  1  0  0  0
 44113  1  0  0  0
 45 46  2  0  0  0
 45114  1  0  0  0
 46115  1  0  0  0
 47116  1  0  0  0
 47117  1  0  0  0
 48 56  1  0  0  0
 48 65  1  0  0  0
 48118  1  0  0  0
 49 50  1  0  0  0
 49 53  1  0  0  0
 49 64  1  0  0  0
 49119  1  0  0  0
 50 51  1  0  0  0
 50120  1  0  0  0
 50121  1  0  0  0
 51 52  1  0  0  0
 51122  1  0  0  0
 51123  1  0  0  0
 52124  1  0  0  0
 52125  1  0  0  0
 53 54  1  0  0  0
 54 55  2  0  0  0
 54126  1  0  0  0
 55 57  1  0  0  0
 55127  1  0  0  0
 56 69  2  0  0  0
 57 58  2  0  0  0
 57128  1  0  0  0
 58129  1  0  0  0
 59 60  1  0  0  0
 59 61  1  0  0  0
 59 62  1  0  0  0
 60130  1  0  0  0
 60131  1  0  0  0
 60132  1  0  0  0
 61133  1  0  0  0
 61134  1  0  0  0
 61135  1  0  0  0
 62136  1  0  0  0
 62137  1  0  0  0
 62138  1  0  0  0
 63 65  1  0  0  0
 63139  1  0  0  0
 63140  1  0  0  0
 63141  1  0  0  0
 64142  1  0  0  0
 65143  1  0  0  0
 68 78  1  0  0  0
 71 72  2  0  0  0
 71 82  1  0  0  0
 71144  1  0  0  0
 72 73  1  0  0  0
 72 76  1  0  0  0
 73 77  1  0  0  0
 73 83  2  0  0  0
 74 78  1  0  0  0
 74 82  2  0  0  0
 74 83  1  0  0  0
 75 79  1  0  0  0
 75145  1  0  0  0
 75146  1  0  0  0
 75147  1  0  0  0
 76 80  1  0  0  0
 76148  1  0  0  0
 76149  1  0  0  0
 77 79  1  0  0  0
 77150  1  0  0  0
 77151  1  0  0  0
 78152  1  0  0  0
 78153  1  0  0  0
 79154  1  0  0  0
 79155  1  0  0  0
 80 81  1  0  0  0
 80156  1  0  0  0
 80157  1  0  0  0
 81 84  1  0  0  0
 81158  1  0  0  0
 81159  1  0  0  0
 84160  1  0  0  0
M  ISO  4   1 100  68 101  78 101  84 100
M  END
> <chiral flag>
0

> <version>
0

> <s_m_source_file>
/data/baiqing/PycharmProjects/Reinvent-master-3.2/result/LINK_invent/BTK/process_docking_weight1_custom_sum_contain_oxygen_bond_distance_aromatic_linkinvent_7_9_3/rearranged_h_0043.sdf

> <i_m_source_file_index>
61

> <r_mmod_Potential_Energy-OPLS-2005>
-267.663482666016

> <r_mmod_Stretch_Energy-OPLS-2005>
71.8356246948242

> <r_mmod_Bend_Energy-OPLS-2005>
153.004043579102

> <r_mmod_Torsional_Energy-OPLS-2005>
196.107055664062

> <r_mmod_Improper_Torsional_Energy-OPLS-2005>
7.97789764404297

> <r_mmod_Van_der_Waal_Energy-OPLS-2005>
163.610122680664

> <r_mmod_Electrostatic_Energy-OPLS-2005>
-682.020690917969

> <r_mmod_Solvation_Energy-OPLS-2005>
-230.446502685547

> <b_mmod_Minimization_Converged-OPLS-2005>
0

> <r_mmod_RMS_Derivative-OPLS-2005>
1.67298650741577

$$$$
61
                    3D
 Structure written by MMmdl.
160168  0  0  1  0            999 V2000
  -30.7823  -14.3891   20.6220 C   0  0  0  0  0  0
  -30.3964  -12.2700   19.4350 C   0  0  0  0  0  0
  -29.4933  -12.4913   18.2073 C   0  0  0  0  0  0
  -28.0116  -12.3599   18.6051 C   0  0  0  0  0  0
  -27.6536  -13.2065   19.8552 C   0  0  2  0  0  0
  -28.6797  -12.9944   20.9839 C   0  0  0  0  0  0
  -25.2545  -13.8165   20.5617 C   0  0  0  0  0  0
  -24.1809  -13.0436   20.9132 C   0  0  0  0  0  0
  -24.6366  -11.6905   20.8689 C   0  0  0  0  0  0
  -23.9044  -10.4290   21.0389 C   0  0  0  0  0  0
  -24.3612   -9.4208   21.9162 C   0  0  0  0  0  0
  -23.6288   -8.2243   22.0752 C   0  0  0  0  0  0
  -22.4262   -8.0284   21.3552 C   0  0  0  0  0  0
  -21.9893   -9.0245   20.4643 C   0  0  0  0  0  0
  -22.7222  -10.2117   20.3043 C   0  0  0  0  0  0
  -21.6851   -6.0736   22.5284 C   0  0  0  0  0  0
  -21.4013   -6.5639   23.8219 C   0  0  0  0  0  0
  -21.3659   -5.6793   24.9181 C   0  0  0  0  0  0
  -21.6041   -4.3056   24.7232 C   0  0  0  0  0  0
  -21.8822   -3.8148   23.4352 C   0  0  0  0  0  0
  -21.9190   -4.6966   22.3407 C   0  0  0  0  0  0
  -22.7840  -13.5219   21.1840 C   0  0  0  0  0  0
  -22.1657   -4.2157   21.0980 F   0  0  0  0  0  0
  -21.5633   -3.4538   25.7743 F   0  0  0  0  0  0
  -30.0248  -13.2697   20.4524 N   0  0  0  0  0  0
  -26.2957  -12.9338   20.3201 N   0  0  0  0  0  0
  -25.9279  -11.6493   20.5660 N   0  0  0  0  0  0
  -22.0493  -12.8209   22.0398 N   0  0  0  0  0  0
  -25.4270  -15.1890   20.4078 N   0  0  0  0  0  0
  -31.8955  -14.4935   20.0918 O   0  0  0  0  0  0
  -21.6634   -6.8877   21.4247 O   0  0  0  0  0  0
  -22.3520  -14.5534   20.6700 O   0  0  0  0  0  0
  -24.6109  -31.8714   23.2143 C   0  0  0  0  0  0
  -25.9022  -32.4836   23.8411 C   0  0  1  0  0  0
  -27.2144  -27.4600   20.0847 C   0  0  0  0  0  0
  -25.5890  -33.8632   24.2339 N   0  0  0  0  0  0
  -23.3940  -30.5011   21.5552 C   0  0  2  0  0  0
  -24.8327  -28.9741   20.1149 C   0  0  0  0  0  0
  -22.7375  -29.4691   22.5000 C   0  0  0  0  0  0
  -18.0264  -28.1365   22.8497 C   0  0  0  0  0  0
  -24.1483  -36.7321   23.2637 C   0  0  0  0  0  0
  -25.9209  -30.8482   21.3605 C   0  0  0  0  0  0
  -25.9944  -29.4860   20.7051 C   0  0  0  0  0  0
  -27.1898  -28.7371   20.6839 C   0  0  0  0  0  0
  -26.0301  -26.9556   19.4966 C   0  0  0  0  0  0
  -24.8431  -27.7069   19.5110 C   0  0  0  0  0  0
  -23.5970  -29.8395   20.1671 C   0  0  0  0  0  0
  -25.4101  -36.3116   24.0340 C   0  0  1  0  0  0
  -20.5852  -28.3650   23.1319 C   0  0  2  0  0  0
  -20.6756  -26.9391   22.5414 C   0  0  0  0  0  0
  -19.5736  -26.6380   21.5206 C   0  0  0  0  0  0
  -18.1914  -26.7913   22.1623 C   0  0  0  0  0  0
  -19.1511  -28.8821   23.2913 C   0  0  0  0  0  0
  -18.9451  -30.1430   23.8922 C   0  0  0  0  0  0
  -17.6457  -30.6585   24.0564 C   0  0  0  0  0  0
  -25.9030  -34.9479   23.5137 C   0  0  0  0  0  0
  -16.5348  -29.9094   23.6320 C   0  0  0  0  0  0
  -16.7256  -28.6504   23.0353 C   0  0  0  0  0  0
  -26.4467  -31.6607   25.0724 C   0  0  0  0  0  0
  -25.3746  -31.3716   26.1489 C   0  0  0  0  0  0
  -27.0299  -30.3052   24.6078 C   0  0  0  0  0  0
  -27.6046  -32.4323   25.7488 C   0  0  0  0  0  0
  -27.5579  -37.1813   24.8462 C   0  0  0  0  0  0
  -21.4107  -29.3039   22.3737 N   0  0  0  0  0  0
  -26.4288  -37.3801   23.9413 N   0  0  0  0  0  0
  -24.6609  -31.0858   22.1023 N   0  0  0  0  0  0
  -23.4173  -28.8205   23.2999 O   0  0  0  0  0  0
  -28.3955  -26.7559   20.0922 O   0  0  0  0  0  0
  -26.5594  -34.8928   22.4700 O   0  0  0  0  0  0
  -23.5316  -32.1445   23.7568 O   0  0  0  0  0  0
  -29.6293  -21.3369   18.8090 C   0  0  0  0  0  0
  -29.9979  -22.4293   21.2528 C   0  0  0  0  0  0
  -29.9793  -20.5455   19.9290 C   0  0  0  0  0  0
  -29.6983  -23.2247   20.1216 C   0  0  0  0  0  0
  -31.1805  -16.1572   23.3454 C   0  0  0  0  0  0
  -30.4141  -19.1074   19.7364 C   0  0  0  0  0  0
  -29.6838  -24.7388   20.2069 C   0  0  0  0  0  0
  -29.7593  -18.0352   20.6345 C   0  0  0  0  0  0
  -29.9521  -15.6426   22.5717 C   0  0  0  0  0  0
  -30.5843  -16.7501   20.4295 C   0  0  0  0  0  0
  -28.3029  -25.3415   19.9520 C   0  0  0  0  0  0
  -30.1574  -21.0870   21.1592 N   0  0  0  0  0  0
  -29.4952  -22.6801   18.8977 N   0  0  0  0  0  0
  -30.1857  -15.5041   21.1219 N   0  0  0  0  0  0
  -31.4479  -12.3163   19.1450 H   0  0  0  0  0  0
  -30.2558  -11.2645   19.8344 H   0  0  0  0  0  0
  -29.7364  -11.7676   17.4283 H   0  0  0  0  0  0
  -29.6799  -13.4781   17.7803 H   0  0  0  0  0  0
  -27.8178  -11.3053   18.8053 H   0  0  0  0  0  0
  -27.3697  -12.6329   17.7669 H   0  0  0  0  0  0
  -27.6999  -14.2529   19.5545 H   0  0  0  0  0  0
  -28.6327  -11.9669   21.3481 H   0  0  0  0  0  0
  -28.3938  -13.6149   21.8260 H   0  0  0  0  0  0
  -25.2772   -9.5682   22.4716 H   0  0  0  0  0  0
  -23.9999   -7.4638   22.7466 H   0  0  0  0  0  0
  -21.0832   -8.8757   19.8947 H   0  0  0  0  0  0
  -22.3685  -10.9649   19.6143 H   0  0  0  0  0  0
  -21.2000   -7.6148   23.9735 H   0  0  0  0  0  0
  -21.1480   -6.0513   25.9086 H   0  0  0  0  0  0
  -22.0600   -2.7613   23.2853 H   0  0  0  0  0  0
  -22.4125  -11.9855   22.4754 H   0  0  0  0  0  0
  -21.1119  -13.1242   22.2637 H   0  0  0  0  0  0
  -24.6621  -15.8461   20.5155 H   0  0  0  0  0  0
  -26.2885  -15.6287   20.1096 H   0  0  0  0  0  0
  -26.7087  -32.5559   23.1177 H   0  0  0  0  0  0
  -25.0029  -33.9798   25.0475 H   0  0  0  0  0  0
  -22.6810  -31.3176   21.4217 H   0  0  0  0  0  0
  -23.3742  -35.9660   23.3311 H   0  0  0  0  0  0
  -24.3576  -36.8927   22.2050 H   0  0  0  0  0  0
  -23.7245  -37.6532   23.6649 H   0  0  0  0  0  0
  -26.0266  -31.6188   20.5947 H   0  0  0  0  0  0
  -26.8114  -30.8980   21.9765 H   0  0  0  0  0  0
  -28.0899  -29.1316   21.1343 H   0  0  0  0  0  0
  -25.9950  -25.9900   19.0149 H   0  0  0  0  0  0
  -23.9465  -27.3075   19.0570 H   0  0  0  0  0  0
  -23.7042  -30.6161   19.4092 H   0  0  0  0  0  0
  -22.7198  -29.2610   19.8715 H   0  0  0  0  0  0
  -25.1280  -36.1982   25.0835 H   0  0  0  0  0  0
  -20.9942  -28.3214   24.1440 H   0  0  0  0  0  0
  -20.5635  -26.2264   23.3599 H   0  0  0  0  0  0
  -21.6631  -26.7429   22.1224 H   0  0  0  0  0  0
  -19.6899  -25.6292   21.1230 H   0  0  0  0  0  0
  -19.6674  -27.3194   20.6735 H   0  0  0  0  0  0
  -17.4181  -26.6653   21.4034 H   0  0  0  0  0  0
  -18.0332  -26.0049   22.9010 H   0  0  0  0  0  0
  -19.7932  -30.7230   24.2308 H   0  0  0  0  0  0
  -17.5026  -31.6267   24.5160 H   0  0  0  0  0  0
  -15.5354  -30.3015   23.7626 H   0  0  0  0  0  0
  -15.8653  -28.0834   22.7062 H   0  0  0  0  0  0
  -24.5880  -30.7109   25.7831 H   0  0  0  0  0  0
  -24.8989  -32.2881   26.4982 H   0  0  0  0  0  0
  -25.8100  -30.8840   27.0217 H   0  0  0  0  0  0
  -26.2837  -29.6817   24.1133 H   0  0  0  0  0  0
  -27.4085  -29.7283   25.4528 H   0  0  0  0  0  0
  -27.8665  -30.4387   23.9212 H   0  0  0  0  0  0
  -27.2653  -33.3590   26.2132 H   0  0  0  0  0  0
  -28.3824  -32.6939   25.0300 H   0  0  0  0  0  0
  -28.0754  -31.8410   26.5355 H   0  0  0  0  0  0
  -28.2599  -38.0106   24.7514 H   0  0  0  0  0  0
  -28.1071  -36.2643   24.6281 H   0  0  0  0  0  0
  -27.2300  -37.1458   25.8864 H   0  0  0  0  0  0
  -20.9236  -29.8802   21.7014 H   0  0  0  0  0  0
  -26.0178  -38.2878   24.1427 H   0  0  0  0  0  0
  -29.5377  -20.9056   17.8235 H   0  0  0  0  0  0
  -30.1616  -22.8738   22.2241 H   0  0  0  0  0  0
  -31.4426  -17.1788   23.0699 H   0  0  0  0  0  0
  -32.0531  -15.5258   23.1734 H   0  0  0  0  0  0
  -30.9851  -16.1523   24.4186 H   0  0  0  0  0  0
  -31.4954  -19.1008   19.8823 H   0  0  0  0  0  0
  -30.2620  -18.8316   18.6919 H   0  0  0  0  0  0
  -30.3926  -25.1348   19.4799 H   0  0  0  0  0  0
  -30.0418  -25.0487   21.1892 H   0  0  0  0  0  0
  -28.7102  -17.8933   20.3699 H   0  0  0  0  0  0
  -29.7956  -18.3510   21.6775 H   0  0  0  0  0  0
  -29.0917  -16.2920   22.7415 H   0  0  0  0  0  0
  -29.6947  -14.6855   23.0213 H   0  0  0  0  0  0
  -31.6242  -16.9603   20.6909 H   0  0  0  0  0  0
  -30.5902  -16.5580   19.3528 H   0  0  0  0  0  0
  -27.5851  -24.9342   20.6672 H   0  0  0  0  0  0
  -27.9700  -25.0773   18.9473 H   0  0  0  0  0  0
  1 25  1  0  0  0
  1 30  2  0  0  0
  1 84  1  0  0  0
  2  3  1  0  0  0
  2 25  1  0  0  0
  2 85  1  0  0  0
  2 86  1  0  0  0
  3  4  1  0  0  0
  3 87  1  0  0  0
  3 88  1  0  0  0
  4  5  1  0  0  0
  4 89  1  0  0  0
  4 90  1  0  0  0
  5  6  1  0  0  0
  5 26  1  0  0  0
  5 91  1  0  0  0
  6 25  1  0  0  0
  6 92  1  0  0  0
  6 93  1  0  0  0
  7  8  2  0  0  0
  7 26  1  0  0  0
  7 29  1  0  0  0
  8  9  1  0  0  0
  8 22  1  0  0  0
  9 10  1  0  0  0
  9 27  2  0  0  0
 10 11  2  0  0  0
 10 15  1  0  0  0
 11 12  1  0  0  0
 11 94  1  0  0  0
 12 13  2  0  0  0
 12 95  1  0  0  0
 13 14  1  0  0  0
 13 31  1  0  0  0
 14 15  2  0  0  0
 14 96  1  0  0  0
 15 97  1  0  0  0
 16 17  2  0  0  0
 16 21  1  0  0  0
 16 31  1  0  0  0
 17 18  1  0  0  0
 17 98  1  0  0  0
 18 19  2  0  0  0
 18 99  1  0  0  0
 19 20  1  0  0  0
 19 24  1  0  0  0
 20 21  2  0  0  0
 20100  1  0  0  0
 21 23  1  0  0  0
 22 28  1  0  0  0
 22 32  2  0  0  0
 26 27  1  0  0  0
 28101  1  0  0  0
 28102  1  0  0  0
 29103  1  0  0  0
 29104  1  0  0  0
 33 34  1  0  0  0
 33 66  1  0  0  0
 33 70  2  0  0  0
 34 36  1  0  0  0
 34 59  1  0  0  0
 34105  1  0  0  0
 35 44  2  0  0  0
 35 45  1  0  0  0
 35 68  1  0  0  0
 36 56  1  0  0  0
 36106  1  0  0  0
 37 39  1  0  0  0
 37 47  1  0  0  0
 37 66  1  0  0  0
 37107  1  0  0  0
 38 43  2  0  0  0
 38 46  1  0  0  0
 38 47  1  0  0  0
 39 64  1  0  0  0
 39 67  2  0  0  0
 40 52  1  0  0  0
 40 53  2  0  0  0
 40 58  1  0  0  0
 41108  1  0  0  0
 41109  1  0  0  0
 41110  1  0  0  0
 41 48  1  0  0  0
 42 43  1  0  0  0
 42 66  1  0  0  0
 42111  1  0  0  0
 42112  1  0  0  0
 43 44  1  0  0  0
 44113  1  0  0  0
 45 46  2  0  0  0
 45114  1  0  0  0
 46115  1  0  0  0
 47116  1  0  0  0
 47117  1  0  0  0
 48 56  1  0  0  0
 48 65  1  0  0  0
 48118  1  0  0  0
 49 50  1  0  0  0
 49 53  1  0  0  0
 49 64  1  0  0  0
 49119  1  0  0  0
 50 51  1  0  0  0
 50120  1  0  0  0
 50121  1  0  0  0
 51 52  1  0  0  0
 51122  1  0  0  0
 51123  1  0  0  0
 52124  1  0  0  0
 52125  1  0  0  0
 53 54  1  0  0  0
 54 55  2  0  0  0
 54126  1  0  0  0
 55 57  1  0  0  0
 55127  1  0  0  0
 56 69  2  0  0  0
 57 58  2  0  0  0
 57128  1  0  0  0
 58129  1  0  0  0
 59 60  1  0  0  0
 59 61  1  0  0  0
 59 62  1  0  0  0
 60130  1  0  0  0
 60131  1  0  0  0
 60132  1  0  0  0
 61133  1  0  0  0
 61134  1  0  0  0
 61135  1  0  0  0
 62136  1  0  0  0
 62137  1  0  0  0
 62138  1  0  0  0
 63 65  1  0  0  0
 63139  1  0  0  0
 63140  1  0  0  0
 63141  1  0  0  0
 64142  1  0  0  0
 65143  1  0  0  0
 68 81  1  0  0  0
 71 73  2  0  0  0
 71 83  1  0  0  0
 71144  1  0  0  0
 72 74  1  0  0  0
 72 82  2  0  0  0
 72145  1  0  0  0
 73 76  1  0  0  0
 73 82  1  0  0  0
 74 77  1  0  0  0
 74 83  2  0  0  0
 75 79  1  0  0  0
 75146  1  0  0  0
 75147  1  0  0  0
 75148  1  0  0  0
 76 78  1  0  0  0
 76149  1  0  0  0
 76150  1  0  0  0
 77 81  1  0  0  0
 77151  1  0  0  0
 77152  1  0  0  0
 78 80  1  0  0  0
 78153  1  0  0  0
 78154  1  0  0  0
 79 84  1  0  0  0
 79155  1  0  0  0
 79156  1  0  0  0
 80 84  1  0  0  0
 80157  1  0  0  0
 80158  1  0  0  0
 81159  1  0  0  0
 81160  1  0  0  0
M  ISO  4   1 100  68 101  81 101  84 100
M  END
> <chiral flag>
0

> <version>
0

> <s_m_source_file>
/data/baiqing/PycharmProjects/Reinvent-master-3.2/result/LINK_invent/BTK/process_docking_weight1_custom_sum_contain_oxygen_bond_distance_aromatic_linkinvent_7_9_3/rearranged_h_0043.sdf

> <i_m_source_file_index>
62

> <r_mmod_Potential_Energy-OPLS-2005>
214.634185791016

> <r_mmod_Stretch_Energy-OPLS-2005>
36.1599617004395

> <r_mmod_Bend_Energy-OPLS-2005>
114.837890625

> <r_mmod_Torsional_Energy-OPLS-2005>
270.345977783203

> <r_mmod_Improper_Torsional_Energy-OPLS-2005>
11.5905723571777

> <r_mmod_Van_der_Waal_Energy-OPLS-2005>
177.415390014648

> <r_mmod_Electrostatic_Energy-OPLS-2005>
-209.242202758789

> <r_mmod_Solvation_Energy-OPLS-2005>
-200.443450927734

> <b_mmod_Minimization_Converged-OPLS-2005>
0

> <r_mmod_RMS_Derivative-OPLS-2005>
1.8653359413147

$$$$
62
                    3D
 Structure written by MMmdl.
150158  0  0  1  0            999 V2000
  -30.5648  -14.7024   20.4996 C   0  0  0  0  0  0
  -30.4429  -12.4397   19.4386 C   0  0  0  0  0  0
  -29.5050  -12.5603   18.2175 C   0  0  0  0  0  0
  -28.0313  -12.3676   18.6238 C   0  0  0  0  0  0
  -27.6520  -13.2123   19.8643 C   0  0  2  0  0  0
  -28.6984  -13.0790   20.9919 C   0  0  0  0  0  0
  -25.2608  -13.8176   20.5606 C   0  0  0  0  0  0
  -24.1846  -13.0450   20.9109 C   0  0  0  0  0  0
  -24.6420  -11.6897   20.8697 C   0  0  0  0  0  0
  -23.9097  -10.4283   21.0429 C   0  0  0  0  0  0
  -24.3654   -9.4196   21.9222 C   0  0  0  0  0  0
  -23.6294   -8.2255   22.0803 C   0  0  0  0  0  0
  -22.4263   -8.0319   21.3584 C   0  0  0  0  0  0
  -21.9913   -9.0280   20.4672 C   0  0  0  0  0  0
  -22.7266  -10.2151   20.3063 C   0  0  0  0  0  0
  -21.6871   -6.0720   22.5270 C   0  0  0  0  0  0
  -21.4025   -6.5628   23.8174 C   0  0  0  0  0  0
  -21.3649   -5.6795   24.9163 C   0  0  0  0  0  0
  -21.6046   -4.3043   24.7231 C   0  0  0  0  0  0
  -21.8831   -3.8131   23.4335 C   0  0  0  0  0  0
  -21.9201   -4.6953   22.3405 C   0  0  0  0  0  0
  -22.7888  -13.5263   21.1788 C   0  0  0  0  0  0
  -22.1670   -4.2119   21.0992 F   0  0  0  0  0  0
  -21.5648   -3.4542   25.7750 F   0  0  0  0  0  0
  -30.0045  -13.4524   20.4283 N   0  0  0  0  0  0
  -26.3026  -12.9312   20.3311 N   0  0  0  0  0  0
  -25.9342  -11.6460   20.5714 N   0  0  0  0  0  0
  -22.0575  -12.8195   22.0352 N   0  0  0  0  0  0
  -25.4379  -15.1878   20.3987 N   0  0  0  0  0  0
  -31.7269  -14.8702   20.1077 O   0  0  0  0  0  0
  -21.6665   -6.8862   21.4232 O   0  0  0  0  0  0
  -22.3541  -14.5565   20.6661 O   0  0  0  0  0  0
  -24.6298  -31.8571   23.2011 C   0  0  0  0  0  0
  -25.9135  -32.4764   23.8327 C   0  0  1  0  0  0
  -27.2088  -27.2658   20.1323 C   0  0  0  0  0  0
  -25.5928  -33.8569   24.2259 N   0  0  0  0  0  0
  -23.4257  -30.4774   21.5481 C   0  0  2  0  0  0
  -24.8724  -28.9378   20.1098 C   0  0  0  0  0  0
  -22.7487  -29.4607   22.4980 C   0  0  0  0  0  0
  -18.0278  -28.1402   22.8518 C   0  0  0  0  0  0
  -24.1510  -36.7257   23.2645 C   0  0  0  0  0  0
  -25.9743  -30.7682   21.3949 C   0  0  0  0  0  0
  -26.0415  -29.3970   20.7260 C   0  0  0  0  0  0
  -27.2135  -28.5711   20.7292 C   0  0  0  0  0  0
  -26.0160  -26.8872   19.4750 C   0  0  0  0  0  0
  -24.8649  -27.6932   19.4674 C   0  0  0  0  0  0
  -23.6414  -29.8153   20.1641 C   0  0  0  0  0  0
  -25.4151  -36.3076   24.0324 C   0  0  1  0  0  0
  -20.5881  -28.3691   23.1311 C   0  0  2  0  0  0
  -20.6813  -26.9418   22.5433 C   0  0  0  0  0  0
  -19.5797  -26.6398   21.5239 C   0  0  0  0  0  0
  -18.1946  -26.7963   22.1619 C   0  0  0  0  0  0
  -19.1531  -28.8847   23.2918 C   0  0  0  0  0  0
  -18.9443  -30.1455   23.8922 C   0  0  0  0  0  0
  -17.6453  -30.6603   24.0557 C   0  0  0  0  0  0
  -25.9068  -34.9429   23.5091 C   0  0  0  0  0  0
  -16.5340  -29.9061   23.6370 C   0  0  0  0  0  0
  -16.7261  -28.6480   23.0419 C   0  0  0  0  0  0
  -26.4499  -31.6584   25.0720 C   0  0  0  0  0  0
  -25.3693  -31.3723   26.1403 C   0  0  0  0  0  0
  -27.0384  -30.3002   24.6249 C   0  0  0  0  0  0
  -27.6048  -32.4336   25.7473 C   0  0  0  0  0  0
  -27.5615  -37.1778   24.8452 C   0  0  0  0  0  0
  -21.4188  -29.3010   22.3667 N   0  0  0  0  0  0
  -26.4325  -37.3754   23.9383 N   0  0  0  0  0  0
  -24.6942  -31.0522   22.1019 N   0  0  0  0  0  0
  -23.4184  -28.8182   23.3127 O   0  0  0  0  0  0
  -28.2916  -26.3574   20.1913 O   0  0  0  0  0  0
  -26.5630  -34.8886   22.4664 O   0  0  0  0  0  0
  -23.5432  -32.1399   23.7288 O   0  0  0  0  0  0
  -27.9021  -20.5051   19.6134 C   0  0  0  0  0  0
  -28.9534  -20.1210   20.4993 C   0  0  0  0  0  0
  -29.1723  -18.6884   21.1271 C   0  0  0  0  0  0
  -29.7145  -15.9790   20.9688 C   0  0  0  0  0  0
  -29.9858  -17.4826   20.4235 C   0  0  0  0  0  0
  -29.1795  -23.7856   20.3359 C   0  0  0  0  0  0
  -27.9937  -24.8782   20.2481 C   0  0  0  0  0  0
  -27.8450  -21.8138   19.4508 N   0  0  0  0  0  0
  -29.5623  -21.2623   20.8499 N   0  0  0  0  0  0
  -28.8428  -22.2984   20.2438 N   0  0  0  0  0  0
  -31.4781  -12.5885   19.1307 H   0  0  0  0  0  0
  -30.3937  -11.4323   19.8508 H   0  0  0  0  0  0
  -29.7793  -11.8458   17.4440 H   0  0  0  0  0  0
  -29.6349  -13.5489   17.7713 H   0  0  0  0  0  0
  -27.8687  -11.3054   18.8211 H   0  0  0  0  0  0
  -27.3837  -12.6317   17.7875 H   0  0  0  0  0  0
  -27.6595  -14.2454   19.5244 H   0  0  0  0  0  0
  -28.7295  -12.0574   21.3743 H   0  0  0  0  0  0
  -28.4268  -13.7028   21.8451 H   0  0  0  0  0  0
  -25.2816   -9.5672   22.4774 H   0  0  0  0  0  0
  -24.0024   -7.4638   22.7524 H   0  0  0  0  0  0
  -21.0865   -8.8785   19.8925 H   0  0  0  0  0  0
  -22.3758  -10.9707   19.6166 H   0  0  0  0  0  0
  -21.2000   -7.6111   23.9678 H   0  0  0  0  0  0
  -21.1479   -6.0516   25.9058 H   0  0  0  0  0  0
  -22.0608   -2.7584   23.2872 H   0  0  0  0  0  0
  -22.4183  -11.9816   22.4651 H   0  0  0  0  0  0
  -21.1235  -13.1253   22.2652 H   0  0  0  0  0  0
  -24.6851  -15.8554   20.5146 H   0  0  0  0  0  0
  -26.2979  -15.6223   20.0908 H   0  0  0  0  0  0
  -26.7185  -32.5426   23.1053 H   0  0  0  0  0  0
  -25.0095  -33.9688   25.0406 H   0  0  0  0  0  0
  -22.7223  -31.3009   21.4056 H   0  0  0  0  0  0
  -23.3808  -35.9551   23.3280 H   0  0  0  0  0  0
  -24.3614  -36.8913   22.2064 H   0  0  0  0  0  0
  -23.7202  -37.6421   23.6688 H   0  0  0  0  0  0
  -26.1374  -31.5446   20.6468 H   0  0  0  0  0  0
  -26.8379  -30.7886   22.0464 H   0  0  0  0  0  0
  -28.1086  -28.9125   21.2298 H   0  0  0  0  0  0
  -25.9363  -25.9579   18.9385 H   0  0  0  0  0  0
  -23.9746  -27.3488   18.9592 H   0  0  0  0  0  0
  -23.7421  -30.5891   19.4035 H   0  0  0  0  0  0
  -22.7674  -29.2307   19.8781 H   0  0  0  0  0  0
  -25.1355  -36.1935   25.0815 H   0  0  0  0  0  0
  -20.9943  -28.3272   24.1450 H   0  0  0  0  0  0
  -20.5805  -26.2262   23.3616 H   0  0  0  0  0  0
  -21.6672  -26.7536   22.1170 H   0  0  0  0  0  0
  -19.6979  -25.6298   21.1270 H   0  0  0  0  0  0
  -19.6778  -27.3208   20.6771 H   0  0  0  0  0  0
  -17.4258  -26.6734   21.3974 H   0  0  0  0  0  0
  -18.0313  -26.0074   22.8974 H   0  0  0  0  0  0
  -19.7901  -30.7282   24.2327 H   0  0  0  0  0  0
  -17.4979  -31.6311   24.5109 H   0  0  0  0  0  0
  -15.5338  -30.2988   23.7675 H   0  0  0  0  0  0
  -15.8668  -28.0770   22.7216 H   0  0  0  0  0  0
  -24.5825  -30.7177   25.7627 H   0  0  0  0  0  0
  -24.8951  -32.2912   26.4873 H   0  0  0  0  0  0
  -25.7936  -30.8769   27.0155 H   0  0  0  0  0  0
  -26.2993  -29.6713   24.1285 H   0  0  0  0  0  0
  -27.4065  -29.7299   25.4791 H   0  0  0  0  0  0
  -27.8867  -30.4272   23.9523 H   0  0  0  0  0  0
  -27.2649  -33.3608   26.2102 H   0  0  0  0  0  0
  -28.3810  -32.6969   25.0272 H   0  0  0  0  0  0
  -28.0806  -31.8470   26.5348 H   0  0  0  0  0  0
  -28.2589  -38.0119   24.7601 H   0  0  0  0  0  0
  -28.1162  -36.2656   24.6201 H   0  0  0  0  0  0
  -27.2327  -37.1330   25.8847 H   0  0  0  0  0  0
  -20.9383  -29.8579   21.6730 H   0  0  0  0  0  0
  -26.0232  -38.2828   24.1407 H   0  0  0  0  0  0
  -27.1420  -19.8688   19.1628 H   0  0  0  0  0  0
  -28.1707  -18.3059   21.3210 H   0  0  0  0  0  0
  -29.5890  -18.8099   22.1297 H   0  0  0  0  0  0
  -28.6642  -15.7833   20.7519 H   0  0  0  0  0  0
  -29.7718  -15.9837   22.0564 H   0  0  0  0  0  0
  -31.0564  -17.6965   20.4717 H   0  0  0  0  0  0
  -29.7313  -17.4930   19.3610 H   0  0  0  0  0  0
  -29.7416  -23.9422   21.2624 H   0  0  0  0  0  0
  -29.8911  -23.9939   19.5308 H   0  0  0  0  0  0
  -27.3466  -24.7138   21.1177 H   0  0  0  0  0  0
  -27.3939  -24.5843   19.3807 H   0  0  0  0  0  0
  1 25  1  0  0  0
  1 30  2  0  0  0
  1 74  1  0  0  0
  2  3  1  0  0  0
  2 25  1  0  0  0
  2 81  1  0  0  0
  2 82  1  0  0  0
  3  4  1  0  0  0
  3 83  1  0  0  0
  3 84  1  0  0  0
  4  5  1  0  0  0
  4 85  1  0  0  0
  4 86  1  0  0  0
  5  6  1  0  0  0
  5 26  1  0  0  0
  5 87  1  0  0  0
  6 25  1  0  0  0
  6 88  1  0  0  0
  6 89  1  0  0  0
  7  8  2  0  0  0
  7 26  1  0  0  0
  7 29  1  0  0  0
  8  9  1  0  0  0
  8 22  1  0  0  0
  9 10  1  0  0  0
  9 27  2  0  0  0
 10 11  2  0  0  0
 10 15  1  0  0  0
 11 12  1  0  0  0
 11 90  1  0  0  0
 12 13  2  0  0  0
 12 91  1  0  0  0
 13 14  1  0  0  0
 13 31  1  0  0  0
 14 15  2  0  0  0
 14 92  1  0  0  0
 15 93  1  0  0  0
 16 17  2  0  0  0
 16 21  1  0  0  0
 16 31  1  0  0  0
 17 18  1  0  0  0
 17 94  1  0  0  0
 18 19  2  0  0  0
 18 95  1  0  0  0
 19 20  1  0  0  0
 19 24  1  0  0  0
 20 21  2  0  0  0
 20 96  1  0  0  0
 21 23  1  0  0  0
 22 28  1  0  0  0
 22 32  2  0  0  0
 26 27  1  0  0  0
 28 97  1  0  0  0
 28 98  1  0  0  0
 29 99  1  0  0  0
 29100  1  0  0  0
 33 34  1  0  0  0
 33 66  1  0  0  0
 33 70  2  0  0  0
 34 36  1  0  0  0
 34 59  1  0  0  0
 34101  1  0  0  0
 35 44  2  0  0  0
 35 45  1  0  0  0
 35 68  1  0  0  0
 36 56  1  0  0  0
 36102  1  0  0  0
 37 39  1  0  0  0
 37 47  1  0  0  0
 37 66  1  0  0  0
 37103  1  0  0  0
 38 43  2  0  0  0
 38 46  1  0  0  0
 38 47  1  0  0  0
 39 64  1  0  0  0
 39 67  2  0  0  0
 40 52  1  0  0  0
 40 53  2  0  0  0
 40 58  1  0  0  0
 41104  1  0  0  0
 41105  1  0  0  0
 41106  1  0  0  0
 41 48  1  0  0  0
 42 43  1  0  0  0
 42 66  1  0  0  0
 42107  1  0  0  0
 42108  1  0  0  0
 43 44  1  0  0  0
 44109  1  0  0  0
 45 46  2  0  0  0
 45110  1  0  0  0
 46111  1  0  0  0
 47112  1  0  0  0
 47113  1  0  0  0
 48 56  1  0  0  0
 48 65  1  0  0  0
 48114  1  0  0  0
 49 50  1  0  0  0
 49 53  1  0  0  0
 49 64  1  0  0  0
 49115  1  0  0  0
 50 51  1  0  0  0
 50116  1  0  0  0
 50117  1  0  0  0
 51 52  1  0  0  0
 51118  1  0  0  0
 51119  1  0  0  0
 52120  1  0  0  0
 52121  1  0  0  0
 53 54  1  0  0  0
 54 55  2  0  0  0
 54122  1  0  0  0
 55 57  1  0  0  0
 55123  1  0  0  0
 56 69  2  0  0  0
 57 58  2  0  0  0
 57124  1  0  0  0
 58125  1  0  0  0
 59 60  1  0  0  0
 59 61  1  0  0  0
 59 62  1  0  0  0
 60126  1  0  0  0
 60127  1  0  0  0
 60128  1  0  0  0
 61129  1  0  0  0
 61130  1  0  0  0
 61131  1  0  0  0
 62132  1  0  0  0
 62133  1  0  0  0
 62134  1  0  0  0
 63 65  1  0  0  0
 63135  1  0  0  0
 63136  1  0  0  0
 63137  1  0  0  0
 64138  1  0  0  0
 65139  1  0  0  0
 68 77  1  0  0  0
 71 72  1  0  0  0
 71 78  2  0  0  0
 71140  1  0  0  0
 72 73  1  0  0  0
 72 79  2  0  0  0
 73 75  1  0  0  0
 73141  1  0  0  0
 73142  1  0  0  0
 74 75  1  0  0  0
 74143  1  0  0  0
 74144  1  0  0  0
 75145  1  0  0  0
 75146  1  0  0  0
 76 77  1  0  0  0
 76 80  1  0  0  0
 76147  1  0  0  0
 76148  1  0  0  0
 77149  1  0  0  0
 77150  1  0  0  0
 78 80  1  0  0  0
 79 80  1  0  0  0
M  ISO  4   1 100  68 101  74 100  77 101
M  END
> <chiral flag>
0

> <version>
0

> <s_m_source_file>
/data/baiqing/PycharmProjects/Reinvent-master-3.2/result/LINK_invent/BTK/process_docking_weight1_custom_sum_contain_oxygen_bond_distance_aromatic_linkinvent_7_9_3/rearranged_h_0043.sdf

> <i_m_source_file_index>
63

> <r_mmod_Potential_Energy-OPLS-2005>
128.306106567383

> <r_mmod_Stretch_Energy-OPLS-2005>
115.824111938477

> <r_mmod_Bend_Energy-OPLS-2005>
163.601119995117

> <r_mmod_Torsional_Energy-OPLS-2005>
186.875366210938

> <r_mmod_Improper_Torsional_Energy-OPLS-2005>
4.06927967071533

> <r_mmod_Van_der_Waal_Energy-OPLS-2005>
119.906745910645

> <r_mmod_Electrostatic_Energy-OPLS-2005>
-322.80810546875

> <r_mmod_Solvation_Energy-OPLS-2005>
-214.570404052734

> <b_mmod_Minimization_Converged-OPLS-2005>
0

> <r_mmod_RMS_Derivative-OPLS-2005>
7.126051902771

$$$$
63
                    3D
 Structure written by MMmdl.
163171  0  0  1  0            999 V2000
  -30.6169  -14.7253   20.4607 C   0  0  0  0  0  0
  -30.4271  -12.4430   19.4670 C   0  0  0  0  0  0
  -29.5044  -12.5072   18.2305 C   0  0  0  0  0  0
  -28.0293  -12.3387   18.6421 C   0  0  0  0  0  0
  -27.6417  -13.2313   19.8514 C   0  0  2  0  0  0
  -28.6871  -13.1563   20.9851 C   0  0  0  0  0  0
  -25.2508  -13.8207   20.5684 C   0  0  0  0  0  0
  -24.1804  -13.0443   20.9205 C   0  0  0  0  0  0
  -24.6405  -11.6927   20.8754 C   0  0  0  0  0  0
  -23.9090  -10.4296   21.0415 C   0  0  0  0  0  0
  -24.3639   -9.4207   21.9187 C   0  0  0  0  0  0
  -23.6304   -8.2249   22.0756 C   0  0  0  0  0  0
  -22.4285   -8.0293   21.3545 C   0  0  0  0  0  0
  -21.9930   -9.0272   20.4646 C   0  0  0  0  0  0
  -22.7270  -10.2143   20.3055 C   0  0  0  0  0  0
  -21.6856   -6.0748   22.5279 C   0  0  0  0  0  0
  -21.4027   -6.5647   23.8214 C   0  0  0  0  0  0
  -21.3657   -5.6797   24.9171 C   0  0  0  0  0  0
  -21.6037   -4.3058   24.7225 C   0  0  0  0  0  0
  -21.8818   -3.8155   23.4343 C   0  0  0  0  0  0
  -21.9195   -4.6975   22.3402 C   0  0  0  0  0  0
  -22.7825  -13.5220   21.1871 C   0  0  0  0  0  0
  -22.1659   -4.2159   21.0980 F   0  0  0  0  0  0
  -21.5621   -3.4543   25.7739 F   0  0  0  0  0  0
  -29.9871  -13.5042   20.3995 N   0  0  0  0  0  0
  -26.2937  -12.9410   20.3282 N   0  0  0  0  0  0
  -25.9331  -11.6553   20.5761 N   0  0  0  0  0  0
  -22.0495  -12.8190   22.0431 N   0  0  0  0  0  0
  -25.4168  -15.1933   20.4107 N   0  0  0  0  0  0
  -31.8085  -14.8200   20.1533 O   0  0  0  0  0  0
  -21.6637   -6.8898   21.4244 O   0  0  0  0  0  0
  -22.3496  -14.5527   20.6732 O   0  0  0  0  0  0
  -24.6311  -31.8560   23.1982 C   0  0  0  0  0  0
  -25.9132  -32.4768   23.8329 C   0  0  1  0  0  0
  -27.2190  -27.2746   20.1305 C   0  0  0  0  0  0
  -25.5941  -33.8573   24.2251 N   0  0  0  0  0  0
  -23.4261  -30.4776   21.5430 C   0  0  2  0  0  0
  -24.8726  -28.9211   20.1123 C   0  0  0  0  0  0
  -22.7493  -29.4608   22.4938 C   0  0  0  0  0  0
  -18.0287  -28.1396   22.8478 C   0  0  0  0  0  0
  -24.1486  -36.7293   23.2636 C   0  0  0  0  0  0
  -25.9704  -30.7712   21.3748 C   0  0  0  0  0  0
  -26.0437  -29.3935   20.7203 C   0  0  0  0  0  0
  -27.2232  -28.5842   20.7140 C   0  0  0  0  0  0
  -26.0298  -26.8615   19.4969 C   0  0  0  0  0  0
  -24.8704  -27.6635   19.4881 C   0  0  0  0  0  0
  -23.6425  -29.8086   20.1601 C   0  0  0  0  0  0
  -25.4112  -36.3072   24.0319 C   0  0  1  0  0  0
  -20.5887  -28.3705   23.1278 C   0  0  2  0  0  0
  -20.6779  -26.9426   22.5408 C   0  0  0  0  0  0
  -19.5751  -26.6376   21.5216 C   0  0  0  0  0  0
  -18.1924  -26.7940   22.1617 C   0  0  0  0  0  0
  -19.1542  -28.8868   23.2865 C   0  0  0  0  0  0
  -18.9468  -30.1475   23.8871 C   0  0  0  0  0  0
  -17.6471  -30.6598   24.0557 C   0  0  0  0  0  0
  -25.9057  -34.9447   23.5085 C   0  0  0  0  0  0
  -16.5358  -29.9097   23.6333 C   0  0  0  0  0  0
  -16.7277  -28.6519   23.0343 C   0  0  0  0  0  0
  -26.4494  -31.6605   25.0724 C   0  0  0  0  0  0
  -25.3706  -31.3753   26.1442 C   0  0  0  0  0  0
  -27.0353  -30.3032   24.6197 C   0  0  0  0  0  0
  -27.6044  -32.4359   25.7500 C   0  0  0  0  0  0
  -27.5574  -37.1800   24.8459 C   0  0  0  0  0  0
  -21.4202  -29.3065   22.3686 N   0  0  0  0  0  0
  -26.4286  -37.3771   23.9406 N   0  0  0  0  0  0
  -24.6952  -31.0522   22.0959 N   0  0  0  0  0  0
  -23.4199  -28.8135   23.3022 O   0  0  0  0  0  0
  -28.3154  -26.3911   20.1340 O   0  0  0  0  0  0
  -26.5616  -34.8920   22.4647 O   0  0  0  0  0  0
  -23.5464  -32.1393   23.7284 O   0  0  0  0  0  0
  -28.1576  -23.6347   18.5781 C   0  0  0  0  0  0
  -28.4499  -23.6929   19.9542 C   0  0  0  0  0  0
  -28.8026  -21.3942   18.4627 C   0  0  0  0  0  0
  -29.0793  -21.3474   19.8615 C   0  0  0  0  0  0
  -26.7980  -17.3151   16.1873 C   0  0  0  0  0  0
  -29.0664  -20.2309   17.5170 C   0  0  0  0  0  0
  -29.7802  -20.0722   20.5340 C   0  0  0  0  0  0
  -28.1368  -25.0341   20.7506 C   0  0  0  0  0  0
  -28.0715  -18.1295   16.4399 C   0  0  0  0  0  0
  -27.7857  -19.4481   17.1764 C   0  0  0  0  0  0
  -29.2402  -18.5366   20.4404 C   0  0  0  0  0  0
  -30.2997  -17.3251   20.6453 C   0  0  0  0  0  0
  -28.3287  -22.5078   17.8454 N   0  0  0  0  0  0
  -28.8980  -22.5281   20.5895 N   0  0  0  0  0  0
  -29.8513  -15.8634   20.6633 N   0  0  0  0  0  0
  -31.4692  -12.5619   19.1652 H   0  0  0  0  0  0
  -30.3639  -11.4654   19.9478 H   0  0  0  0  0  0
  -29.7817  -11.7372   17.5101 H   0  0  0  0  0  0
  -29.6339  -13.4640   17.7223 H   0  0  0  0  0  0
  -27.8739  -11.2885   18.8908 H   0  0  0  0  0  0
  -27.3741  -12.5475   17.7955 H   0  0  0  0  0  0
  -27.6388  -14.2549   19.4774 H   0  0  0  0  0  0
  -28.7193  -12.1571   21.4212 H   0  0  0  0  0  0
  -28.4281  -13.8361   21.7981 H   0  0  0  0  0  0
  -25.2788   -9.5671   22.4758 H   0  0  0  0  0  0
  -24.0013   -7.4638   22.7476 H   0  0  0  0  0  0
  -21.0864   -8.8804   19.8947 H   0  0  0  0  0  0
  -22.3746  -10.9688   19.6158 H   0  0  0  0  0  0
  -21.2033   -7.6154   23.9727 H   0  0  0  0  0  0
  -21.1472   -6.0521   25.9074 H   0  0  0  0  0  0
  -22.0598   -2.7619   23.2843 H   0  0  0  0  0  0
  -22.4139  -11.9838   22.4768 H   0  0  0  0  0  0
  -21.1118  -13.1188   22.2693 H   0  0  0  0  0  0
  -24.6453  -15.8412   20.5296 H   0  0  0  0  0  0
  -26.2565  -15.6388   20.0649 H   0  0  0  0  0  0
  -26.7205  -32.5408   23.1075 H   0  0  0  0  0  0
  -25.0150  -33.9719   25.0441 H   0  0  0  0  0  0
  -22.7199  -31.2976   21.3963 H   0  0  0  0  0  0
  -23.3752  -35.9620   23.3288 H   0  0  0  0  0  0
  -24.3564  -36.8930   22.2048 H   0  0  0  0  0  0
  -23.7250  -37.6491   23.6687 H   0  0  0  0  0  0
  -26.1011  -31.5271   20.5998 H   0  0  0  0  0  0
  -26.8516  -30.8259   22.0032 H   0  0  0  0  0  0
  -28.1243  -28.9421   21.1917 H   0  0  0  0  0  0
  -25.9870  -25.8971   19.0115 H   0  0  0  0  0  0
  -23.9769  -27.2988   19.0003 H   0  0  0  0  0  0
  -23.7637  -30.5828   19.4015 H   0  0  0  0  0  0
  -22.7599  -29.2414   19.8605 H   0  0  0  0  0  0
  -25.1295  -36.1911   25.0812 H   0  0  0  0  0  0
  -20.9969  -28.3287   24.1405 H   0  0  0  0  0  0
  -20.5692  -26.2317   23.3614 H   0  0  0  0  0  0
  -21.6647  -26.7455   22.1199 H   0  0  0  0  0  0
  -19.6911  -25.6275   21.1278 H   0  0  0  0  0  0
  -19.6698  -27.3151   20.6717 H   0  0  0  0  0  0
  -17.4203  -26.6701   21.4005 H   0  0  0  0  0  0
  -18.0297  -26.0079   22.9007 H   0  0  0  0  0  0
  -19.7945  -30.7301   24.2222 H   0  0  0  0  0  0
  -17.5027  -31.6275   24.5165 H   0  0  0  0  0  0
  -15.5365  -30.2994   23.7680 H   0  0  0  0  0  0
  -15.8670  -28.0851   22.7059 H   0  0  0  0  0  0
  -24.5917  -30.7048   25.7793 H   0  0  0  0  0  0
  -24.8846  -32.2913   26.4813 H   0  0  0  0  0  0
  -25.8015  -30.8998   27.0261 H   0  0  0  0  0  0
  -26.2947  -29.6776   24.1203 H   0  0  0  0  0  0
  -27.4041  -29.7293   25.4710 H   0  0  0  0  0  0
  -27.8806  -30.4331   23.9434 H   0  0  0  0  0  0
  -27.2673  -33.3698   26.2016 H   0  0  0  0  0  0
  -28.3884  -32.6864   25.0340 H   0  0  0  0  0  0
  -28.0682  -31.8527   26.5467 H   0  0  0  0  0  0
  -28.2585  -38.0102   24.7520 H   0  0  0  0  0  0
  -28.1081  -36.2637   24.6281 H   0  0  0  0  0  0
  -27.2288  -37.1440   25.8858 H   0  0  0  0  0  0
  -20.9395  -29.8840   21.6927 H   0  0  0  0  0  0
  -26.0160  -38.2840   24.1415 H   0  0  0  0  0  0
  -27.7715  -24.4994   18.0581 H   0  0  0  0  0  0
  -27.0177  -16.4052   15.6279 H   0  0  0  0  0  0
  -26.0721  -17.8909   15.6129 H   0  0  0  0  0  0
  -26.3245  -17.0173   17.1233 H   0  0  0  0  0  0
  -29.8361  -19.5799   17.9269 H   0  0  0  0  0  0
  -29.5000  -20.6222   16.5955 H   0  0  0  0  0  0
  -29.9214  -20.3026   21.5904 H   0  0  0  0  0  0
  -30.7916  -20.0732   20.1268 H   0  0  0  0  0  0
  -28.7665  -25.0256   21.6401 H   0  0  0  0  0  0
  -27.1199  -24.9390   21.1333 H   0  0  0  0  0  0
  -28.5622  -18.3404   15.4885 H   0  0  0  0  0  0
  -28.7706  -17.5251   17.0203 H   0  0  0  0  0  0
  -27.1269  -20.0781   16.5773 H   0  0  0  0  0  0
  -27.2375  -19.2311   18.0934 H   0  0  0  0  0  0
  -28.7796  -18.3640   19.4740 H   0  0  0  0  0  0
  -28.4204  -18.4263   21.1511 H   0  0  0  0  0  0
  -30.8349  -17.4987   21.5796 H   0  0  0  0  0  0
  -31.0565  -17.4178   19.8642 H   0  0  0  0  0  0
  -28.8726  -15.6980   20.8445 H   0  0  0  0  0  0
  1 25  1  0  0  0
  1 30  2  0  0  0
  1 85  1  0  0  0
  2  3  1  0  0  0
  2 25  1  0  0  0
  2 86  1  0  0  0
  2 87  1  0  0  0
  3  4  1  0  0  0
  3 88  1  0  0  0
  3 89  1  0  0  0
  4  5  1  0  0  0
  4 90  1  0  0  0
  4 91  1  0  0  0
  5  6  1  0  0  0
  5 26  1  0  0  0
  5 92  1  0  0  0
  6 25  1  0  0  0
  6 93  1  0  0  0
  6 94  1  0  0  0
  7  8  2  0  0  0
  7 26  1  0  0  0
  7 29  1  0  0  0
  8  9  1  0  0  0
  8 22  1  0  0  0
  9 10  1  0  0  0
  9 27  2  0  0  0
 10 11  2  0  0  0
 10 15  1  0  0  0
 11 12  1  0  0  0
 11 95  1  0  0  0
 12 13  2  0  0  0
 12 96  1  0  0  0
 13 14  1  0  0  0
 13 31  1  0  0  0
 14 15  2  0  0  0
 14 97  1  0  0  0
 15 98  1  0  0  0
 16 17  2  0  0  0
 16 21  1  0  0  0
 16 31  1  0  0  0
 17 18  1  0  0  0
 17 99  1  0  0  0
 18 19  2  0  0  0
 18100  1  0  0  0
 19 20  1  0  0  0
 19 24  1  0  0  0
 20 21  2  0  0  0
 20101  1  0  0  0
 21 23  1  0  0  0
 22 28  1  0  0  0
 22 32  2  0  0  0
 26 27  1  0  0  0
 28102  1  0  0  0
 28103  1  0  0  0
 29104  1  0  0  0
 29105  1  0  0  0
 33 34  1  0  0  0
 33 66  1  0  0  0
 33 70  2  0  0  0
 34 36  1  0  0  0
 34 59  1  0  0  0
 34106  1  0  0  0
 35 44  2  0  0  0
 35 45  1  0  0  0
 35 68  1  0  0  0
 36 56  1  0  0  0
 36107  1  0  0  0
 37 39  1  0  0  0
 37 47  1  0  0  0
 37 66  1  0  0  0
 37108  1  0  0  0
 38 43  2  0  0  0
 38 46  1  0  0  0
 38 47  1  0  0  0
 39 64  1  0  0  0
 39 67  2  0  0  0
 40 52  1  0  0  0
 40 53  2  0  0  0
 40 58  1  0  0  0
 41109  1  0  0  0
 41110  1  0  0  0
 41111  1  0  0  0
 41 48  1  0  0  0
 42 43  1  0  0  0
 42 66  1  0  0  0
 42112  1  0  0  0
 42113  1  0  0  0
 43 44  1  0  0  0
 44114  1  0  0  0
 45 46  2  0  0  0
 45115  1  0  0  0
 46116  1  0  0  0
 47117  1  0  0  0
 47118  1  0  0  0
 48 56  1  0  0  0
 48 65  1  0  0  0
 48119  1  0  0  0
 49 50  1  0  0  0
 49 53  1  0  0  0
 49 64  1  0  0  0
 49120  1  0  0  0
 50 51  1  0  0  0
 50121  1  0  0  0
 50122  1  0  0  0
 51 52  1  0  0  0
 51123  1  0  0  0
 51124  1  0  0  0
 52125  1  0  0  0
 52126  1  0  0  0
 53 54  1  0  0  0
 54 55  2  0  0  0
 54127  1  0  0  0
 55 57  1  0  0  0
 55128  1  0  0  0
 56 69  2  0  0  0
 57 58  2  0  0  0
 57129  1  0  0  0
 58130  1  0  0  0
 59 60  1  0  0  0
 59 61  1  0  0  0
 59 62  1  0  0  0
 60131  1  0  0  0
 60132  1  0  0  0
 60133  1  0  0  0
 61134  1  0  0  0
 61135  1  0  0  0
 61136  1  0  0  0
 62137  1  0  0  0
 62138  1  0  0  0
 62139  1  0  0  0
 63 65  1  0  0  0
 63140  1  0  0  0
 63141  1  0  0  0
 63142  1  0  0  0
 64143  1  0  0  0
 65144  1  0  0  0
 68 78  1  0  0  0
 71 72  2  0  0  0
 71 83  1  0  0  0
 71145  1  0  0  0
 72 78  1  0  0  0
 72 84  1  0  0  0
 73 74  1  0  0  0
 73 76  1  0  0  0
 73 83  2  0  0  0
 74 77  1  0  0  0
 74 84  2  0  0  0
 75 79  1  0  0  0
 75146  1  0  0  0
 75147  1  0  0  0
 75148  1  0  0  0
 76 80  1  0  0  0
 76149  1  0  0  0
 76150  1  0  0  0
 77 81  1  0  0  0
 77151  1  0  0  0
 77152  1  0  0  0
 78153  1  0  0  0
 78154  1  0  0  0
 79 80  1  0  0  0
 79155  1  0  0  0
 79156  1  0  0  0
 80157  1  0  0  0
 80158  1  0  0  0
 81 82  1  0  0  0
 81159  1  0  0  0
 81160  1  0  0  0
 82 85  1  0  0  0
 82161  1  0  0  0
 82162  1  0  0  0
 85163  1  0  0  0
M  ISO  4   1 100  68 101  78 101  85 100
M  END
> <chiral flag>
0

> <version>
0

> <s_m_source_file>
/data/baiqing/PycharmProjects/Reinvent-master-3.2/result/LINK_invent/BTK/process_docking_weight1_custom_sum_contain_oxygen_bond_distance_aromatic_linkinvent_7_9_3/rearranged_h_0043.sdf

> <i_m_source_file_index>
64

> <r_mmod_Potential_Energy-OPLS-2005>
223.285095214844

> <r_mmod_Stretch_Energy-OPLS-2005>
125.240798950195

> <r_mmod_Bend_Energy-OPLS-2005>
164.349151611328

> <r_mmod_Torsional_Energy-OPLS-2005>
226.197784423828

> <r_mmod_Improper_Torsional_Energy-OPLS-2005>
5.64344930648804

> <r_mmod_Van_der_Waal_Energy-OPLS-2005>
130.474990844727

> <r_mmod_Electrostatic_Energy-OPLS-2005>
-285.577178955078

> <r_mmod_Solvation_Energy-OPLS-2005>
-219.606170654297

> <b_mmod_Minimization_Converged-OPLS-2005>
0

> <r_mmod_RMS_Derivative-OPLS-2005>
1.59126913547516

$$$$
64
                    3D
 Structure written by MMmdl.
164172  0  0  1  0            999 V2000
  -30.6934  -14.6190   20.5421 C   0  0  0  0  0  0
  -30.4208  -12.3849   19.4746 C   0  0  0  0  0  0
  -29.5108  -12.5173   18.2337 C   0  0  0  0  0  0
  -28.0285  -12.3628   18.6285 C   0  0  0  0  0  0
  -27.6512  -13.2220   19.8642 C   0  0  2  0  0  0
  -28.6928  -13.0507   20.9913 C   0  0  0  0  0  0
  -25.2511  -13.8178   20.5680 C   0  0  0  0  0  0
  -24.1802  -13.0427   20.9184 C   0  0  0  0  0  0
  -24.6387  -11.6902   20.8728 C   0  0  0  0  0  0
  -23.9060  -10.4286   21.0401 C   0  0  0  0  0  0
  -24.3604   -9.4203   21.9181 C   0  0  0  0  0  0
  -23.6275   -8.2244   22.0757 C   0  0  0  0  0  0
  -22.4253   -8.0276   21.3552 C   0  0  0  0  0  0
  -21.9896   -9.0250   20.4650 C   0  0  0  0  0  0
  -22.7232  -10.2124   20.3054 C   0  0  0  0  0  0
  -21.6848   -6.0714   22.5274 C   0  0  0  0  0  0
  -21.4005   -6.5620   23.8206 C   0  0  0  0  0  0
  -21.3671   -5.6783   24.9178 C   0  0  0  0  0  0
  -21.6054   -4.3044   24.7236 C   0  0  0  0  0  0
  -21.8811   -3.8130   23.4356 C   0  0  0  0  0  0
  -21.9189   -4.6940   22.3409 C   0  0  0  0  0  0
  -22.7819  -13.5205   21.1864 C   0  0  0  0  0  0
  -22.1656   -4.2120   21.0988 F   0  0  0  0  0  0
  -21.5648   -3.4535   25.7756 F   0  0  0  0  0  0
  -30.0085  -13.4238   20.4523 N   0  0  0  0  0  0
  -26.2967  -12.9387   20.3307 N   0  0  0  0  0  0
  -25.9311  -11.6523   20.5725 N   0  0  0  0  0  0
  -22.0460  -12.8200   22.0414 N   0  0  0  0  0  0
  -25.4137  -15.1917   20.4107 N   0  0  0  0  0  0
  -31.8327  -14.6622   20.0684 O   0  0  0  0  0  0
  -21.6632   -6.8853   21.4236 O   0  0  0  0  0  0
  -22.3493  -14.5508   20.6707 O   0  0  0  0  0  0
  -24.6228  -31.8610   23.2013 C   0  0  0  0  0  0
  -25.9087  -32.4781   23.8343 C   0  0  1  0  0  0
  -27.2370  -27.3618   20.0918 C   0  0  0  0  0  0
  -25.5926  -33.8583   24.2276 N   0  0  0  0  0  0
  -23.4142  -30.4826   21.5441 C   0  0  2  0  0  0
  -24.8592  -28.9382   20.1121 C   0  0  0  0  0  0
  -22.7457  -29.4614   22.4942 C   0  0  0  0  0  0
  -18.0276  -28.1366   22.8478 C   0  0  0  0  0  0
  -24.1494  -36.7301   23.2638 C   0  0  0  0  0  0
  -25.9500  -30.8051   21.3623 C   0  0  0  0  0  0
  -26.0251  -29.4343   20.7070 C   0  0  0  0  0  0
  -27.2133  -28.6559   20.6881 C   0  0  0  0  0  0
  -26.0381  -26.8932   19.5044 C   0  0  0  0  0  0
  -24.8647  -27.6709   19.5083 C   0  0  0  0  0  0
  -23.6260  -29.8135   20.1602 C   0  0  0  0  0  0
  -25.4116  -36.3085   24.0326 C   0  0  1  0  0  0
  -20.5875  -28.3666   23.1294 C   0  0  2  0  0  0
  -20.6762  -26.9396   22.5411 C   0  0  0  0  0  0
  -19.5751  -26.6376   21.5199 C   0  0  0  0  0  0
  -18.1925  -26.7912   22.1605 C   0  0  0  0  0  0
  -19.1530  -28.8833   23.2882 C   0  0  0  0  0  0
  -18.9460  -30.1435   23.8903 C   0  0  0  0  0  0
  -17.6462  -30.6571   24.0562 C   0  0  0  0  0  0
  -25.9056  -34.9452   23.5098 C   0  0  0  0  0  0
  -16.5352  -29.9075   23.6319 C   0  0  0  0  0  0
  -16.7267  -28.6491   23.0339 C   0  0  0  0  0  0
  -26.4482  -31.6581   25.0703 C   0  0  0  0  0  0
  -25.3738  -31.3713   26.1451 C   0  0  0  0  0  0
  -27.0299  -30.3013   24.6102 C   0  0  0  0  0  0
  -27.6053  -32.4307   25.7475 C   0  0  0  0  0  0
  -27.5582  -37.1807   24.8458 C   0  0  0  0  0  0
  -21.4170  -29.3029   22.3701 N   0  0  0  0  0  0
  -26.4289  -37.3785   23.9412 N   0  0  0  0  0  0
  -24.6808  -31.0664   22.0937 N   0  0  0  0  0  0
  -23.4200  -28.8144   23.2999 O   0  0  0  0  0  0
  -28.4060  -26.5992   20.1325 O   0  0  0  0  0  0
  -26.5619  -34.8915   22.4665 O   0  0  0  0  0  0
  -23.5404  -32.1374   23.7379 O   0  0  0  0  0  0
  -28.1144  -20.2518   19.8928 C   0  0  0  0  0  0
  -30.7368  -19.6564   20.1124 C   0  0  0  0  0  0
  -29.0852  -21.2951   19.8241 C   0  0  0  0  0  0
  -29.7716  -18.6022   20.0907 C   0  0  0  0  0  0
  -26.6326  -20.5278   19.7333 C   0  0  0  0  0  0
  -32.2270  -19.3910   20.2022 C   0  0  0  0  0  0
  -28.8284  -16.0654   21.8312 C   0  0  0  0  0  0
  -31.2289  -16.5348   22.1105 C   0  0  0  0  0  0
  -28.7719  -22.7240   19.2736 C   0  0  0  0  0  0
  -30.1377  -17.0886   19.8868 C   0  0  0  0  0  0
  -28.6356  -23.9840   20.2116 C   0  0  0  0  0  0
  -28.5530  -25.3399   19.4030 C   0  0  0  0  0  0
  -30.1774  -16.0409   21.0848 C   0  0  0  0  0  0
  -30.3958  -20.9750   19.9871 N   0  0  0  0  0  0
  -28.4534  -18.9334   20.0239 N   0  0  0  0  0  0
  -31.4691  -12.4599   19.1822 H   0  0  0  0  0  0
  -30.3259  -11.3886   19.9101 H   0  0  0  0  0  0
  -29.7745  -11.7684   17.4857 H   0  0  0  0  0  0
  -29.6745  -13.4888   17.7654 H   0  0  0  0  0  0
  -27.8561  -11.3083   18.8489 H   0  0  0  0  0  0
  -27.3849  -12.6082   17.7831 H   0  0  0  0  0  0
  -27.6757  -14.2591   19.5331 H   0  0  0  0  0  0
  -28.7066  -12.0113   21.3225 H   0  0  0  0  0  0
  -28.4184  -13.5922   21.8870 H   0  0  0  0  0  0
  -25.2749   -9.5683   22.4747 H   0  0  0  0  0  0
  -23.9986   -7.4639   22.7477 H   0  0  0  0  0  0
  -21.0829   -8.8774   19.8950 H   0  0  0  0  0  0
  -22.3699  -10.9658   19.6160 H   0  0  0  0  0  0
  -21.1966   -7.6122   23.9699 H   0  0  0  0  0  0
  -21.1517   -6.0519   25.9086 H   0  0  0  0  0  0
  -22.0573   -2.7588   23.2880 H   0  0  0  0  0  0
  -22.4053  -11.9851   22.4802 H   0  0  0  0  0  0
  -21.1075  -13.1232   22.2593 H   0  0  0  0  0  0
  -24.6438  -15.8403   20.5337 H   0  0  0  0  0  0
  -26.2664  -15.6470   20.1122 H   0  0  0  0  0  0
  -26.7150  -32.5454   23.1092 H   0  0  0  0  0  0
  -25.0096  -33.9736   25.0435 H   0  0  0  0  0  0
  -22.7058  -31.3007   21.3994 H   0  0  0  0  0  0
  -23.3753  -35.9641   23.3292 H   0  0  0  0  0  0
  -24.3594  -36.8926   22.2057 H   0  0  0  0  0  0
  -23.7247  -37.6505   23.6656 H   0  0  0  0  0  0
  -26.0708  -31.5672   20.5912 H   0  0  0  0  0  0
  -26.8365  -30.8587   21.9833 H   0  0  0  0  0  0
  -28.1159  -29.0407   21.1426 H   0  0  0  0  0  0
  -25.9641  -25.9147   19.0558 H   0  0  0  0  0  0
  -23.9646  -27.2769   19.0558 H   0  0  0  0  0  0
  -23.7462  -30.5869   19.4008 H   0  0  0  0  0  0
  -22.7478  -29.2392   19.8598 H   0  0  0  0  0  0
  -25.1294  -36.1936   25.0818 H   0  0  0  0  0  0
  -20.9967  -28.3228   24.1416 H   0  0  0  0  0  0
  -20.5632  -26.2287   23.3601 H   0  0  0  0  0  0
  -21.6634  -26.7402   22.1234 H   0  0  0  0  0  0
  -19.6922  -25.6294   21.1213 H   0  0  0  0  0  0
  -19.6693  -27.3199   20.6737 H   0  0  0  0  0  0
  -17.4204  -26.6667   21.3994 H   0  0  0  0  0  0
  -18.0322  -26.0038   22.8985 H   0  0  0  0  0  0
  -19.7944  -30.7235   24.2282 H   0  0  0  0  0  0
  -17.5024  -31.6247   24.5170 H   0  0  0  0  0  0
  -15.5361  -30.2984   23.7627 H   0  0  0  0  0  0
  -15.8664  -28.0808   22.7054 H   0  0  0  0  0  0
  -24.5933  -30.7025   25.7803 H   0  0  0  0  0  0
  -24.8906  -32.2875   26.4860 H   0  0  0  0  0  0
  -25.8097  -30.8925   27.0229 H   0  0  0  0  0  0
  -26.2836  -29.6800   24.1135 H   0  0  0  0  0  0
  -27.4034  -29.7228   25.4562 H   0  0  0  0  0  0
  -27.8687  -30.4320   23.9262 H   0  0  0  0  0  0
  -27.2673  -33.3618   26.2036 H   0  0  0  0  0  0
  -28.3873  -32.6846   25.0307 H   0  0  0  0  0  0
  -28.0698  -31.8433   26.5407 H   0  0  0  0  0  0
  -28.2584  -38.0117   24.7514 H   0  0  0  0  0  0
  -28.1081  -36.2648   24.6251 H   0  0  0  0  0  0
  -27.2302  -37.1422   25.8859 H   0  0  0  0  0  0
  -20.9342  -29.8798   21.6953 H   0  0  0  0  0  0
  -26.0161  -38.2854   24.1430 H   0  0  0  0  0  0
  -26.3542  -21.4437   20.2535 H   0  0  0  0  0  0
  -26.0338  -19.7176   20.1517 H   0  0  0  0  0  0
  -26.3762  -20.6400   18.6800 H   0  0  0  0  0  0
  -32.4672  -18.8884   21.1377 H   0  0  0  0  0  0
  -32.7998  -20.3188   20.1767 H   0  0  0  0  0  0
  -32.5707  -18.7714   19.3749 H   0  0  0  0  0  0
  -28.5853  -17.0752   22.1632 H   0  0  0  0  0  0
  -28.8528  -15.4604   22.7372 H   0  0  0  0  0  0
  -27.9999  -15.7506   21.2038 H   0  0  0  0  0  0
  -30.9531  -17.4965   22.5462 H   0  0  0  0  0  0
  -32.2143  -16.6583   21.6596 H   0  0  0  0  0  0
  -31.3391  -15.8298   22.9352 H   0  0  0  0  0  0
  -27.8785  -22.6605   18.6531 H   0  0  0  0  0  0
  -29.5664  -22.9413   18.5605 H   0  0  0  0  0  0
  -31.0903  -17.0529   19.3596 H   0  0  0  0  0  0
  -29.4319  -16.7067   19.1474 H   0  0  0  0  0  0
  -29.4974  -24.0249   20.8790 H   0  0  0  0  0  0
  -27.7548  -23.8744   20.8449 H   0  0  0  0  0  0
  -27.8389  -25.2421   18.5900 H   0  0  0  0  0  0
  -29.5015  -25.4432   18.8752 H   0  0  0  0  0  0
  1 25  1  0  0  0
  1 30  2  0  0  0
  1 83  1  0  0  0
  2  3  1  0  0  0
  2 25  1  0  0  0
  2 86  1  0  0  0
  2 87  1  0  0  0
  3  4  1  0  0  0
  3 88  1  0  0  0
  3 89  1  0  0  0
  4  5  1  0  0  0
  4 90  1  0  0  0
  4 91  1  0  0  0
  5  6  1  0  0  0
  5 26  1  0  0  0
  5 92  1  0  0  0
  6 25  1  0  0  0
  6 93  1  0  0  0
  6 94  1  0  0  0
  7  8  2  0  0  0
  7 26  1  0  0  0
  7 29  1  0  0  0
  8  9  1  0  0  0
  8 22  1  0  0  0
  9 10  1  0  0  0
  9 27  2  0  0  0
 10 11  2  0  0  0
 10 15  1  0  0  0
 11 12  1  0  0  0
 11 95  1  0  0  0
 12 13  2  0  0  0
 12 96  1  0  0  0
 13 14  1  0  0  0
 13 31  1  0  0  0
 14 15  2  0  0  0
 14 97  1  0  0  0
 15 98  1  0  0  0
 16 17  2  0  0  0
 16 21  1  0  0  0
 16 31  1  0  0  0
 17 18  1  0  0  0
 17 99  1  0  0  0
 18 19  2  0  0  0
 18100  1  0  0  0
 19 20  1  0  0  0
 19 24  1  0  0  0
 20 21  2  0  0  0
 20101  1  0  0  0
 21 23  1  0  0  0
 22 28  1  0  0  0
 22 32  2  0  0  0
 26 27  1  0  0  0
 28102  1  0  0  0
 28103  1  0  0  0
 29104  1  0  0  0
 29105  1  0  0  0
 33 34  1  0  0  0
 33 66  1  0  0  0
 33 70  2  0  0  0
 34 36  1  0  0  0
 34 59  1  0  0  0
 34106  1  0  0  0
 35 44  2  0  0  0
 35 45  1  0  0  0
 35 68  1  0  0  0
 36 56  1  0  0  0
 36107  1  0  0  0
 37 39  1  0  0  0
 37 47  1  0  0  0
 37 66  1  0  0  0
 37108  1  0  0  0
 38 43  2  0  0  0
 38 46  1  0  0  0
 38 47  1  0  0  0
 39 64  1  0  0  0
 39 67  2  0  0  0
 40 52  1  0  0  0
 40 53  2  0  0  0
 40 58  1  0  0  0
 41109  1  0  0  0
 41110  1  0  0  0
 41111  1  0  0  0
 41 48  1  0  0  0
 42 43  1  0  0  0
 42 66  1  0  0  0
 42112  1  0  0  0
 42113  1  0  0  0
 43 44  1  0  0  0
 44114  1  0  0  0
 45 46  2  0  0  0
 45115  1  0  0  0
 46116  1  0  0  0
 47117  1  0  0  0
 47118  1  0  0  0
 48 56  1  0  0  0
 48 65  1  0  0  0
 48119  1  0  0  0
 49 50  1  0  0  0
 49 53  1  0  0  0
 49 64  1  0  0  0
 49120  1  0  0  0
 50 51  1  0  0  0
 50121  1  0  0  0
 50122  1  0  0  0
 51 52  1  0  0  0
 51123  1  0  0  0
 51124  1  0  0  0
 52125  1  0  0  0
 52126  1  0  0  0
 53 54  1  0  0  0
 54 55  2  0  0  0
 54127  1  0  0  0
 55 57  1  0  0  0
 55128  1  0  0  0
 56 69  2  0  0  0
 57 58  2  0  0  0
 57129  1  0  0  0
 58130  1  0  0  0
 59 60  1  0  0  0
 59 61  1  0  0  0
 59 62  1  0  0  0
 60131  1  0  0  0
 60132  1  0  0  0
 60133  1  0  0  0
 61134  1  0  0  0
 61135  1  0  0  0
 61136  1  0  0  0
 62137  1  0  0  0
 62138  1  0  0  0
 62139  1  0  0  0
 63 65  1  0  0  0
 63140  1  0  0  0
 63141  1  0  0  0
 63142  1  0  0  0
 64143  1  0  0  0
 65144  1  0  0  0
 68 82  1  0  0  0
 71 73  2  0  0  0
 71 75  1  0  0  0
 71 85  1  0  0  0
 72 74  1  0  0  0
 72 76  1  0  0  0
 72 84  2  0  0  0
 73 79  1  0  0  0
 73 84  1  0  0  0
 74 80  1  0  0  0
 74 85  2  0  0  0
 75145  1  0  0  0
 75146  1  0  0  0
 75147  1  0  0  0
 76148  1  0  0  0
 76149  1  0  0  0
 76150  1  0  0  0
 77151  1  0  0  0
 77152  1  0  0  0
 77153  1  0  0  0
 77 83  1  0  0  0
 78 83  1  0  0  0
 78154  1  0  0  0
 78155  1  0  0  0
 78156  1  0  0  0
 79 81  1  0  0  0
 79157  1  0  0  0
 79158  1  0  0  0
 80 83  1  0  0  0
 80159  1  0  0  0
 80160  1  0  0  0
 81 82  1  0  0  0
 81161  1  0  0  0
 81162  1  0  0  0
 82163  1  0  0  0
 82164  1  0  0  0
M  ISO  4   1 100  68 101  82 101  83 100
M  END
> <chiral flag>
0

> <version>
0

> <s_m_source_file>
/data/baiqing/PycharmProjects/Reinvent-master-3.2/result/LINK_invent/BTK/process_docking_weight1_custom_sum_contain_oxygen_bond_distance_aromatic_linkinvent_7_9_3/rearranged_h_0043.sdf

> <i_m_source_file_index>
65

> <r_mmod_Potential_Energy-OPLS-2005>
104.88663482666

> <r_mmod_Stretch_Energy-OPLS-2005>
78.3907165527344

> <r_mmod_Bend_Energy-OPLS-2005>
176.732055664062

> <r_mmod_Torsional_Energy-OPLS-2005>
182.152435302734

> <r_mmod_Improper_Torsional_Energy-OPLS-2005>
5.34864187240601

> <r_mmod_Van_der_Waal_Energy-OPLS-2005>
155.208480834961

> <r_mmod_Electrostatic_Energy-OPLS-2005>
-331.117950439453

> <r_mmod_Solvation_Energy-OPLS-2005>
-195.12043762207

> <b_mmod_Minimization_Converged-OPLS-2005>
0

> <r_mmod_RMS_Derivative-OPLS-2005>
2.11713457107544

$$$$
65
                    3D
 Structure written by MMmdl.
154162  0  0  1  0            999 V2000
  -30.6542  -14.6339   20.5068 C   0  0  0  0  0  0
  -30.4243  -12.3922   19.4566 C   0  0  0  0  0  0
  -29.4989  -12.4942   18.2256 C   0  0  0  0  0  0
  -28.0245  -12.3327   18.6425 C   0  0  0  0  0  0
  -27.6456  -13.2211   19.8570 C   0  0  2  0  0  0
  -28.6893  -13.1094   20.9904 C   0  0  0  0  0  0
  -25.2523  -13.8183   20.5693 C   0  0  0  0  0  0
  -24.1798  -13.0432   20.9189 C   0  0  0  0  0  0
  -24.6374  -11.6905   20.8738 C   0  0  0  0  0  0
  -23.9047  -10.4286   21.0404 C   0  0  0  0  0  0
  -24.3602   -9.4203   21.9182 C   0  0  0  0  0  0
  -23.6281   -8.2235   22.0756 C   0  0  0  0  0  0
  -22.4270   -8.0271   21.3543 C   0  0  0  0  0  0
  -21.9898   -9.0239   20.4643 C   0  0  0  0  0  0
  -22.7219  -10.2121   20.3049 C   0  0  0  0  0  0
  -21.6858   -6.0722   22.5271 C   0  0  0  0  0  0
  -21.4013   -6.5630   23.8201 C   0  0  0  0  0  0
  -21.3659   -5.6789   24.9168 C   0  0  0  0  0  0
  -21.6051   -4.3053   24.7227 C   0  0  0  0  0  0
  -21.8813   -3.8136   23.4349 C   0  0  0  0  0  0
  -21.9191   -4.6949   22.3401 C   0  0  0  0  0  0
  -22.7822  -13.5213   21.1864 C   0  0  0  0  0  0
  -22.1659   -4.2127   21.0982 F   0  0  0  0  0  0
  -21.5633   -3.4541   25.7746 F   0  0  0  0  0  0
  -30.0003  -13.4344   20.4150 N   0  0  0  0  0  0
  -26.2947  -12.9367   20.3304 N   0  0  0  0  0  0
  -25.9303  -11.6519   20.5762 N   0  0  0  0  0  0
  -22.0488  -12.8192   22.0431 N   0  0  0  0  0  0
  -25.4227  -15.1910   20.4130 N   0  0  0  0  0  0
  -31.8293  -14.7431   20.1492 O   0  0  0  0  0  0
  -21.6638   -6.8865   21.4235 O   0  0  0  0  0  0
  -22.3496  -14.5529   20.6737 O   0  0  0  0  0  0
  -24.6256  -31.8602   23.2017 C   0  0  0  0  0  0
  -25.9111  -32.4785   23.8335 C   0  0  1  0  0  0
  -27.2276  -27.3206   20.1109 C   0  0  0  0  0  0
  -25.5938  -33.8585   24.2264 N   0  0  0  0  0  0
  -23.4186  -30.4815   21.5459 C   0  0  2  0  0  0
  -24.8639  -28.9382   20.1082 C   0  0  0  0  0  0
  -22.7485  -29.4613   22.4961 C   0  0  0  0  0  0
  -18.0284  -28.1393   22.8498 C   0  0  0  0  0  0
  -24.1486  -36.7273   23.2642 C   0  0  0  0  0  0
  -25.9582  -30.7903   21.3719 C   0  0  0  0  0  0
  -26.0305  -29.4167   20.7158 C   0  0  0  0  0  0
  -27.2097  -28.6171   20.7127 C   0  0  0  0  0  0
  -26.0278  -26.8823   19.5038 C   0  0  0  0  0  0
  -24.8653  -27.6759   19.4952 C   0  0  0  0  0  0
  -23.6297  -29.8148   20.1602 C   0  0  0  0  0  0
  -25.4111  -36.3079   24.0327 C   0  0  1  0  0  0
  -20.5885  -28.3681   23.1308 C   0  0  2  0  0  0
  -20.6780  -26.9408   22.5418 C   0  0  0  0  0  0
  -19.5744  -26.6381   21.5237 C   0  0  0  0  0  0
  -18.1921  -26.7940   22.1634 C   0  0  0  0  0  0
  -19.1538  -28.8858   23.2897 C   0  0  0  0  0  0
  -18.9465  -30.1472   23.8895 C   0  0  0  0  0  0
  -17.6466  -30.6602   24.0566 C   0  0  0  0  0  0
  -25.9057  -34.9460   23.5093 C   0  0  0  0  0  0
  -16.5352  -29.9094   23.6348 C   0  0  0  0  0  0
  -16.7268  -28.6515   23.0363 C   0  0  0  0  0  0
  -26.4492  -31.6611   25.0712 C   0  0  0  0  0  0
  -25.3719  -31.3750   26.1439 C   0  0  0  0  0  0
  -27.0360  -30.3057   24.6146 C   0  0  0  0  0  0
  -27.6043  -32.4364   25.7482 C   0  0  0  0  0  0
  -27.5572  -37.1789   24.8469 C   0  0  0  0  0  0
  -21.4206  -29.3040   22.3726 N   0  0  0  0  0  0
  -26.4287  -37.3776   23.9417 N   0  0  0  0  0  0
  -24.6863  -31.0609   22.0967 N   0  0  0  0  0  0
  -23.4227  -28.8156   23.3027 O   0  0  0  0  0  0
  -28.3648  -26.5024   20.1838 O   0  0  0  0  0  0
  -26.5618  -34.8933   22.4655 O   0  0  0  0  0  0
  -23.5424  -32.1401   23.7348 O   0  0  0  0  0  0
  -29.8937  -22.3571   21.2351 C   0  0  0  0  0  0
  -29.4967  -21.2273   20.4733 C   0  0  0  0  0  0
  -28.6044  -21.5616   19.4298 C   0  0  0  0  0  0
  -28.7129  -23.8568   19.9161 C   0  0  0  0  0  0
  -28.0609  -20.5217   18.4729 C   0  0  0  0  0  0
  -30.1971  -19.8248   20.6911 C   0  0  0  0  0  0
  -28.5332  -25.3121   19.3255 C   0  0  0  0  0  0
  -29.4628  -18.4073   20.6970 C   0  0  0  0  0  0
  -30.4481  -17.1643   20.8962 C   0  0  0  0  0  0
  -29.5224  -23.6393   20.9558 N   0  0  0  0  0  0
  -28.2296  -22.8462   19.1786 N   0  0  0  0  0  0
  -29.9227  -15.7519   20.8228 N   0  0  0  0  0  0
  -31.4667  -12.5026   19.1528 H   0  0  0  0  0  0
  -30.3496  -11.4046   19.9150 H   0  0  0  0  0  0
  -29.7632  -11.7342   17.4897 H   0  0  0  0  0  0
  -29.6388  -13.4586   17.7349 H   0  0  0  0  0  0
  -27.8708  -11.2823   18.8951 H   0  0  0  0  0  0
  -27.3648  -12.5409   17.7999 H   0  0  0  0  0  0
  -27.6558  -14.2497   19.4961 H   0  0  0  0  0  0
  -28.7009  -12.1017   21.4074 H   0  0  0  0  0  0
  -28.4387  -13.7768   21.8170 H   0  0  0  0  0  0
  -25.2748   -9.5682   22.4754 H   0  0  0  0  0  0
  -23.9988   -7.4635   22.7482 H   0  0  0  0  0  0
  -21.0823   -8.8745   19.8956 H   0  0  0  0  0  0
  -22.3669  -10.9652   19.6151 H   0  0  0  0  0  0
  -21.2002   -7.6138   23.9693 H   0  0  0  0  0  0
  -21.1493   -6.0530   25.9071 H   0  0  0  0  0  0
  -22.0594   -2.7596   23.2861 H   0  0  0  0  0  0
  -22.4120  -11.9830   22.4759 H   0  0  0  0  0  0
  -21.1117  -13.1206   22.2694 H   0  0  0  0  0  0
  -24.6570  -15.8463   20.5307 H   0  0  0  0  0  0
  -26.2719  -15.6322   20.0828 H   0  0  0  0  0  0
  -26.7164  -32.5444   23.1074 H   0  0  0  0  0  0
  -25.0162  -33.9730   25.0466 H   0  0  0  0  0  0
  -22.7120  -31.3019   21.4041 H   0  0  0  0  0  0
  -23.3771  -35.9588   23.3306 H   0  0  0  0  0  0
  -24.3580  -36.8895   22.2062 H   0  0  0  0  0  0
  -23.7217  -37.6466   23.6663 H   0  0  0  0  0  0
  -26.0874  -31.5518   20.6017 H   0  0  0  0  0  0
  -26.8404  -30.8384   21.9984 H   0  0  0  0  0  0
  -28.1038  -28.9831   21.1980 H   0  0  0  0  0  0
  -25.9365  -25.9019   19.0622 H   0  0  0  0  0  0
  -23.9661  -27.2966   19.0302 H   0  0  0  0  0  0
  -23.7388  -30.5905   19.4016 H   0  0  0  0  0  0
  -22.7510  -29.2398   19.8634 H   0  0  0  0  0  0
  -25.1290  -36.1927   25.0821 H   0  0  0  0  0  0
  -20.9964  -28.3228   24.1435 H   0  0  0  0  0  0
  -20.5737  -26.2273   23.3608 H   0  0  0  0  0  0
  -21.6637  -26.7466   22.1175 H   0  0  0  0  0  0
  -19.6912  -25.6294   21.1266 H   0  0  0  0  0  0
  -19.6693  -27.3203   20.6779 H   0  0  0  0  0  0
  -17.4205  -26.6733   21.4018 H   0  0  0  0  0  0
  -18.0276  -26.0070   22.9007 H   0  0  0  0  0  0
  -19.7946  -30.7303   24.2250 H   0  0  0  0  0  0
  -17.5017  -31.6286   24.5159 H   0  0  0  0  0  0
  -15.5360  -30.2993   23.7685 H   0  0  0  0  0  0
  -15.8664  -28.0839   22.7072 H   0  0  0  0  0  0
  -24.5896  -30.7093   25.7761 H   0  0  0  0  0  0
  -24.8907  -32.2922   26.4839 H   0  0  0  0  0  0
  -25.8035  -30.8943   27.0226 H   0  0  0  0  0  0
  -26.2936  -29.6802   24.1177 H   0  0  0  0  0  0
  -27.4120  -29.7301   25.4612 H   0  0  0  0  0  0
  -27.8756  -30.4392   23.9323 H   0  0  0  0  0  0
  -27.2649  -33.3685   26.2007 H   0  0  0  0  0  0
  -28.3871  -32.6904   25.0324 H   0  0  0  0  0  0
  -28.0685  -31.8535   26.5448 H   0  0  0  0  0  0
  -28.2582  -38.0100   24.7544 H   0  0  0  0  0  0
  -28.1085  -36.2632   24.6259 H   0  0  0  0  0  0
  -27.2298  -37.1383   25.8878 H   0  0  0  0  0  0
  -20.9396  -29.8758   21.6925 H   0  0  0  0  0  0
  -26.0169  -38.2850   24.1445 H   0  0  0  0  0  0
  -30.6002  -22.2440   22.0447 H   0  0  0  0  0  0
  -27.3087  -19.9143   18.9743 H   0  0  0  0  0  0
  -28.8573  -19.8702   18.1155 H   0  0  0  0  0  0
  -27.5997  -20.9813   17.5991 H   0  0  0  0  0  0
  -30.7393  -19.8962   21.6350 H   0  0  0  0  0  0
  -30.9790  -19.7747   19.9316 H   0  0  0  0  0  0
  -27.8138  -25.2750   18.5112 H   0  0  0  0  0  0
  -29.4682  -25.5012   18.7982 H   0  0  0  0  0  0
  -28.9219  -18.2598   19.7637 H   0  0  0  0  0  0
  -28.7125  -18.3993   21.4885 H   0  0  0  0  0  0
  -30.9314  -17.2664   21.8699 H   0  0  0  0  0  0
  -31.2529  -17.2626   20.1663 H   0  0  0  0  0  0
  -28.9478  -15.6054   21.0397 H   0  0  0  0  0  0
  1 25  1  0  0  0
  1 30  2  0  0  0
  1 82  1  0  0  0
  2  3  1  0  0  0
  2 25  1  0  0  0
  2 83  1  0  0  0
  2 84  1  0  0  0
  3  4  1  0  0  0
  3 85  1  0  0  0
  3 86  1  0  0  0
  4  5  1  0  0  0
  4 87  1  0  0  0
  4 88  1  0  0  0
  5  6  1  0  0  0
  5 26  1  0  0  0
  5 89  1  0  0  0
  6 25  1  0  0  0
  6 90  1  0  0  0
  6 91  1  0  0  0
  7  8  2  0  0  0
  7 26  1  0  0  0
  7 29  1  0  0  0
  8  9  1  0  0  0
  8 22  1  0  0  0
  9 10  1  0  0  0
  9 27  2  0  0  0
 10 11  2  0  0  0
 10 15  1  0  0  0
 11 12  1  0  0  0
 11 92  1  0  0  0
 12 13  2  0  0  0
 12 93  1  0  0  0
 13 14  1  0  0  0
 13 31  1  0  0  0
 14 15  2  0  0  0
 14 94  1  0  0  0
 15 95  1  0  0  0
 16 17  2  0  0  0
 16 21  1  0  0  0
 16 31  1  0  0  0
 17 18  1  0  0  0
 17 96  1  0  0  0
 18 19  2  0  0  0
 18 97  1  0  0  0
 19 20  1  0  0  0
 19 24  1  0  0  0
 20 21  2  0  0  0
 20 98  1  0  0  0
 21 23  1  0  0  0
 22 28  1  0  0  0
 22 32  2  0  0  0
 26 27  1  0  0  0
 28 99  1  0  0  0
 28100  1  0  0  0
 29101  1  0  0  0
 29102  1  0  0  0
 33 34  1  0  0  0
 33 66  1  0  0  0
 33 70  2  0  0  0
 34 36  1  0  0  0
 34 59  1  0  0  0
 34103  1  0  0  0
 35 44  2  0  0  0
 35 45  1  0  0  0
 35 68  1  0  0  0
 36 56  1  0  0  0
 36104  1  0  0  0
 37 39  1  0  0  0
 37 47  1  0  0  0
 37 66  1  0  0  0
 37105  1  0  0  0
 38 43  2  0  0  0
 38 46  1  0  0  0
 38 47  1  0  0  0
 39 64  1  0  0  0
 39 67  2  0  0  0
 40 52  1  0  0  0
 40 53  2  0  0  0
 40 58  1  0  0  0
 41106  1  0  0  0
 41107  1  0  0  0
 41108  1  0  0  0
 41 48  1  0  0  0
 42 43  1  0  0  0
 42 66  1  0  0  0
 42109  1  0  0  0
 42110  1  0  0  0
 43 44  1  0  0  0
 44111  1  0  0  0
 45 46  2  0  0  0
 45112  1  0  0  0
 46113  1  0  0  0
 47114  1  0  0  0
 47115  1  0  0  0
 48 56  1  0  0  0
 48 65  1  0  0  0
 48116  1  0  0  0
 49 50  1  0  0  0
 49 53  1  0  0  0
 49 64  1  0  0  0
 49117  1  0  0  0
 50 51  1  0  0  0
 50118  1  0  0  0
 50119  1  0  0  0
 51 52  1  0  0  0
 51120  1  0  0  0
 51121  1  0  0  0
 52122  1  0  0  0
 52123  1  0  0  0
 53 54  1  0  0  0
 54 55  2  0  0  0
 54124  1  0  0  0
 55 57  1  0  0  0
 55125  1  0  0  0
 56 69  2  0  0  0
 57 58  2  0  0  0
 57126  1  0  0  0
 58127  1  0  0  0
 59 60  1  0  0  0
 59 61  1  0  0  0
 59 62  1  0  0  0
 60128  1  0  0  0
 60129  1  0  0  0
 60130  1  0  0  0
 61131  1  0  0  0
 61132  1  0  0  0
 61133  1  0  0  0
 62134  1  0  0  0
 62135  1  0  0  0
 62136  1  0  0  0
 63 65  1  0  0  0
 63137  1  0  0  0
 63138  1  0  0  0
 63139  1  0  0  0
 64140  1  0  0  0
 65141  1  0  0  0
 68 77  1  0  0  0
 71 72  2  0  0  0
 71 80  1  0  0  0
 71142  1  0  0  0
 72 73  1  0  0  0
 72 76  1  0  0  0
 73 75  1  0  0  0
 73 81  2  0  0  0
 74 77  1  0  0  0
 74 80  2  0  0  0
 74 81  1  0  0  0
 75143  1  0  0  0
 75144  1  0  0  0
 75145  1  0  0  0
 76 78  1  0  0  0
 76146  1  0  0  0
 76147  1  0  0  0
 77148  1  0  0  0
 77149  1  0  0  0
 78 79  1  0  0  0
 78150  1  0  0  0
 78151  1  0  0  0
 79 82  1  0  0  0
 79152  1  0  0  0
 79153  1  0  0  0
 82154  1  0  0  0
M  ISO  4   1 100  68 101  77 101  82 100
M  END
> <chiral flag>
0

> <version>
0

> <s_m_source_file>
/data/baiqing/PycharmProjects/Reinvent-master-3.2/result/LINK_invent/BTK/process_docking_weight1_custom_sum_contain_oxygen_bond_distance_aromatic_linkinvent_7_9_3/rearranged_h_0043.sdf

> <i_m_source_file_index>
66

> <r_mmod_Potential_Energy-OPLS-2005>
-286.044464111328

> <r_mmod_Stretch_Energy-OPLS-2005>
78.9375991821289

> <r_mmod_Bend_Energy-OPLS-2005>
161.008926391602

> <r_mmod_Torsional_Energy-OPLS-2005>
205.703338623047

> <r_mmod_Improper_Torsional_Energy-OPLS-2005>
6.7417140007019

> <r_mmod_Van_der_Waal_Energy-OPLS-2005>
151.665405273438

> <r_mmod_Electrostatic_Energy-OPLS-2005>
-700.481689453125

> <r_mmod_Solvation_Energy-OPLS-2005>
-237.714019775391

> <b_mmod_Minimization_Converged-OPLS-2005>
0

> <r_mmod_RMS_Derivative-OPLS-2005>
1.9105007648468

$$$$
66
                    3D
 Structure written by MMmdl.
166174  0  0  1  0            999 V2000
  -30.6312  -14.7176   20.4575 C   0  0  0  0  0  0
  -30.4254  -12.4337   19.4681 C   0  0  0  0  0  0
  -29.5062  -12.4927   18.2296 C   0  0  0  0  0  0
  -28.0361  -12.3183   18.6549 C   0  0  0  0  0  0
  -27.6437  -13.2271   19.8517 C   0  0  2  0  0  0
  -28.6891  -13.1642   20.9864 C   0  0  0  0  0  0
  -25.2522  -13.8190   20.5719 C   0  0  0  0  0  0
  -24.1793  -13.0434   20.9217 C   0  0  0  0  0  0
  -24.6367  -11.6917   20.8721 C   0  0  0  0  0  0
  -23.9031  -10.4293   21.0380 C   0  0  0  0  0  0
  -24.3582   -9.4226   21.9174 C   0  0  0  0  0  0
  -23.6270   -8.2253   22.0755 C   0  0  0  0  0  0
  -22.4264   -8.0267   21.3533 C   0  0  0  0  0  0
  -21.9888   -9.0230   20.4635 C   0  0  0  0  0  0
  -22.7194  -10.2125   20.3043 C   0  0  0  0  0  0
  -21.6855   -6.0711   22.5273 C   0  0  0  0  0  0
  -21.4006   -6.5622   23.8200 C   0  0  0  0  0  0
  -21.3676   -5.6783   24.9176 C   0  0  0  0  0  0
  -21.6052   -4.3048   24.7238 C   0  0  0  0  0  0
  -21.8818   -3.8128   23.4361 C   0  0  0  0  0  0
  -21.9190   -4.6934   22.3405 C   0  0  0  0  0  0
  -22.7825  -13.5228   21.1884 C   0  0  0  0  0  0
  -22.1664   -4.2111   21.0985 F   0  0  0  0  0  0
  -21.5647   -3.4544   25.7765 F   0  0  0  0  0  0
  -29.9903  -13.5013   20.3983 N   0  0  0  0  0  0
  -26.2941  -12.9391   20.3291 N   0  0  0  0  0  0
  -25.9293  -11.6533   20.5720 N   0  0  0  0  0  0
  -22.0455  -12.8193   22.0416 N   0  0  0  0  0  0
  -25.4237  -15.1905   20.4204 N   0  0  0  0  0  0
  -31.8195  -14.8027   20.1404 O   0  0  0  0  0  0
  -21.6646   -6.8844   21.4232 O   0  0  0  0  0  0
  -22.3521  -14.5552   20.6761 O   0  0  0  0  0  0
  -24.6318  -31.8561   23.1954 C   0  0  0  0  0  0
  -25.9147  -32.4749   23.8299 C   0  0  1  0  0  0
  -27.2249  -27.2710   20.1405 C   0  0  0  0  0  0
  -25.5949  -33.8547   24.2233 N   0  0  0  0  0  0
  -23.4274  -30.4766   21.5419 C   0  0  2  0  0  0
  -24.8757  -28.9238   20.1132 C   0  0  0  0  0  0
  -22.7521  -29.4590   22.4922 C   0  0  0  0  0  0
  -18.0304  -28.1390   22.8487 C   0  0  0  0  0  0
  -24.1501  -36.7276   23.2633 C   0  0  0  0  0  0
  -25.9712  -30.7761   21.3694 C   0  0  0  0  0  0
  -26.0485  -29.3986   20.7150 C   0  0  0  0  0  0
  -27.2312  -28.5907   20.7050 C   0  0  0  0  0  0
  -26.0200  -26.8506   19.5359 C   0  0  0  0  0  0
  -24.8672  -27.6581   19.5089 C   0  0  0  0  0  0
  -23.6447  -29.8101   20.1585 C   0  0  0  0  0  0
  -25.4127  -36.3038   24.0297 C   0  0  1  0  0  0
  -20.5916  -28.3691   23.1279 C   0  0  2  0  0  0
  -20.6799  -26.9418   22.5408 C   0  0  0  0  0  0
  -19.5762  -26.6401   21.5217 C   0  0  0  0  0  0
  -18.1940  -26.7936   22.1626 C   0  0  0  0  0  0
  -19.1558  -28.8861   23.2864 C   0  0  0  0  0  0
  -18.9475  -30.1477   23.8866 C   0  0  0  0  0  0
  -17.6464  -30.6586   24.0567 C   0  0  0  0  0  0
  -25.9075  -34.9425   23.5059 C   0  0  0  0  0  0
  -16.5357  -29.9078   23.6338 C   0  0  0  0  0  0
  -16.7288  -28.6508   23.0336 C   0  0  0  0  0  0
  -26.4515  -31.6575   25.0681 C   0  0  0  0  0  0
  -25.3719  -31.3709   26.1382 C   0  0  0  0  0  0
  -27.0381  -30.3001   24.6155 C   0  0  0  0  0  0
  -27.6063  -32.4335   25.7471 C   0  0  0  0  0  0
  -27.5576  -37.1790   24.8455 C   0  0  0  0  0  0
  -21.4235  -29.3023   22.3669 N   0  0  0  0  0  0
  -26.4287  -37.3750   23.9398 N   0  0  0  0  0  0
  -24.6957  -31.0524   22.0931 N   0  0  0  0  0  0
  -23.4221  -28.8133   23.3019 O   0  0  0  0  0  0
  -28.3315  -26.3923   20.1328 O   0  0  0  0  0  0
  -26.5654  -34.8906   22.4638 O   0  0  0  0  0  0
  -23.5469  -32.1402   23.7245 O   0  0  0  0  0  0
  -29.1450  -21.3170   18.4115 C   0  0  0  0  0  0
  -29.2854  -21.3293   19.8250 C   0  0  0  0  0  0
  -28.6080  -23.6761   19.7902 C   0  0  0  0  0  0
  -28.5091  -23.5719   18.3707 C   0  0  0  0  0  0
  -28.1220  -19.4860   16.9908 C   0  0  0  0  0  0
  -26.8198  -24.3697   16.6513 C   0  0  0  0  0  0
  -29.2711  -25.0891   16.5001 C   0  0  0  0  0  0
  -29.4204  -20.1039   17.5325 C   0  0  0  0  0  0
  -29.9487  -20.0830   20.5716 C   0  0  0  0  0  0
  -28.1408  -24.9745   20.6040 C   0  0  0  0  0  0
  -29.3442  -18.5729   20.5506 C   0  0  0  0  0  0
  -30.3701  -17.3152   20.5425 C   0  0  0  0  0  0
  -28.1069  -24.7058   17.4289 C   0  0  0  0  0  0
  -29.0054  -22.5265   20.4925 N   0  0  0  0  0  0
  -28.7744  -22.4136   17.7175 N   0  0  0  0  0  0
  -29.8858  -15.8687   20.6567 N   0  0  0  0  0  0
  -31.4699  -12.5364   19.1703 H   0  0  0  0  0  0
  -30.3473  -11.4571   19.9482 H   0  0  0  0  0  0
  -29.7787  -11.7082   17.5217 H   0  0  0  0  0  0
  -29.6401  -13.4395   17.7047 H   0  0  0  0  0  0
  -27.9088  -11.2729   18.9394 H   0  0  0  0  0  0
  -27.3687  -12.4877   17.8090 H   0  0  0  0  0  0
  -27.6407  -14.2469   19.4685 H   0  0  0  0  0  0
  -28.7172  -12.1729   21.4405 H   0  0  0  0  0  0
  -28.4317  -13.8603   21.7859 H   0  0  0  0  0  0
  -25.2717   -9.5739   22.4751 H   0  0  0  0  0  0
  -23.9993   -7.4665   22.7488 H   0  0  0  0  0  0
  -21.0828   -8.8720   19.8936 H   0  0  0  0  0  0
  -22.3617  -10.9657   19.6160 H   0  0  0  0  0  0
  -21.1972   -7.6127   23.9681 H   0  0  0  0  0  0
  -21.1515   -6.0531   25.9072 H   0  0  0  0  0  0
  -22.0572   -2.7584   23.2885 H   0  0  0  0  0  0
  -22.4066  -11.9856   22.4815 H   0  0  0  0  0  0
  -21.1066  -13.1209   22.2596 H   0  0  0  0  0  0
  -24.6613  -15.8466   20.5505 H   0  0  0  0  0  0
  -26.2745  -15.6338   20.0986 H   0  0  0  0  0  0
  -26.7210  -32.5412   23.1040 H   0  0  0  0  0  0
  -25.0051  -33.9702   25.0341 H   0  0  0  0  0  0
  -22.7181  -31.2936   21.3963 H   0  0  0  0  0  0
  -23.3758  -35.9606   23.3263 H   0  0  0  0  0  0
  -24.3574  -36.8972   22.2054 H   0  0  0  0  0  0
  -23.7300  -37.6466   23.6722 H   0  0  0  0  0  0
  -26.1006  -31.5378   20.5988 H   0  0  0  0  0  0
  -26.8502  -30.8292   21.9997 H   0  0  0  0  0  0
  -28.1364  -28.9614   21.1660 H   0  0  0  0  0  0
  -25.9535  -25.8702   19.0883 H   0  0  0  0  0  0
  -23.9691  -27.2861   19.0352 H   0  0  0  0  0  0
  -23.7630  -30.5872   19.4020 H   0  0  0  0  0  0
  -22.7632  -29.2388   19.8597 H   0  0  0  0  0  0
  -25.1319  -36.1838   25.0784 H   0  0  0  0  0  0
  -20.9981  -28.3269   24.1409 H   0  0  0  0  0  0
  -20.5748  -26.2284   23.3595 H   0  0  0  0  0  0
  -21.6661  -26.7454   22.1176 H   0  0  0  0  0  0
  -19.6918  -25.6315   21.1254 H   0  0  0  0  0  0
  -19.6708  -27.3204   20.6740 H   0  0  0  0  0  0
  -17.4220  -26.6700   21.4019 H   0  0  0  0  0  0
  -18.0298  -26.0074   22.9012 H   0  0  0  0  0  0
  -19.7947  -30.7319   24.2208 H   0  0  0  0  0  0
  -17.5014  -31.6258   24.5185 H   0  0  0  0  0  0
  -15.5361  -30.2956   23.7693 H   0  0  0  0  0  0
  -15.8697  -28.0845   22.7003 H   0  0  0  0  0  0
  -24.5885  -30.7084   25.7681 H   0  0  0  0  0  0
  -24.8895  -32.2861   26.4814 H   0  0  0  0  0  0
  -25.7995  -30.8862   27.0163 H   0  0  0  0  0  0
  -26.2954  -29.6722   24.1210 H   0  0  0  0  0  0
  -27.4127  -29.7284   25.4657 H   0  0  0  0  0  0
  -27.8792  -30.4298   23.9338 H   0  0  0  0  0  0
  -27.2677  -33.3682   26.1961 H   0  0  0  0  0  0
  -28.3908  -32.6850   25.0315 H   0  0  0  0  0  0
  -28.0678  -31.8509   26.5456 H   0  0  0  0  0  0
  -28.2561  -38.0119   24.7521 H   0  0  0  0  0  0
  -28.1129  -36.2651   24.6276 H   0  0  0  0  0  0
  -27.2277  -37.1411   25.8854 H   0  0  0  0  0  0
  -20.9418  -29.8745   21.6883 H   0  0  0  0  0  0
  -26.0142  -38.2807   24.1427 H   0  0  0  0  0  0
  -28.3233  -18.5878   16.4088 H   0  0  0  0  0  0
  -27.5986  -20.1903   16.3420 H   0  0  0  0  0  0
  -27.4427  -19.2131   17.7992 H   0  0  0  0  0  0
  -25.9938  -24.1543   17.3310 H   0  0  0  0  0  0
  -26.9537  -23.4977   16.0093 H   0  0  0  0  0  0
  -26.5142  -25.2014   16.0164 H   0  0  0  0  0  0
  -30.1479  -25.3758   17.0823 H   0  0  0  0  0  0
  -29.0108  -25.9291   15.8563 H   0  0  0  0  0  0
  -29.5648  -24.2596   15.8577 H   0  0  0  0  0  0
  -30.0091  -19.3540   18.0537 H   0  0  0  0  0  0
  -30.0509  -20.4120   16.6972 H   0  0  0  0  0  0
  -30.1203  -20.3704   21.6089 H   0  0  0  0  0  0
  -30.9551  -20.0238   20.1558 H   0  0  0  0  0  0
  -28.6658  -24.9310   21.5592 H   0  0  0  0  0  0
  -27.0983  -24.8063   20.8718 H   0  0  0  0  0  0
  -28.6933  -18.4659   19.6871 H   0  0  0  0  0  0
  -28.6775  -18.4834   21.4085 H   0  0  0  0  0  0
  -31.1053  -17.4621   21.3349 H   0  0  0  0  0  0
  -30.9405  -17.3770   19.6138 H   0  0  0  0  0  0
  -27.8926  -25.5993   17.9957 H   0  0  0  0  0  0
  -28.9079  -15.7312   20.8644 H   0  0  0  0  0  0
  1 25  1  0  0  0
  1 30  2  0  0  0
  1 86  1  0  0  0
  2  3  1  0  0  0
  2 25  1  0  0  0
  2 87  1  0  0  0
  2 88  1  0  0  0
  3  4  1  0  0  0
  3 89  1  0  0  0
  3 90  1  0  0  0
  4  5  1  0  0  0
  4 91  1  0  0  0
  4 92  1  0  0  0
  5  6  1  0  0  0
  5 26  1  0  0  0
  5 93  1  0  0  0
  6 25  1  0  0  0
  6 94  1  0  0  0
  6 95  1  0  0  0
  7  8  2  0  0  0
  7 26  1  0  0  0
  7 29  1  0  0  0
  8  9  1  0  0  0
  8 22  1  0  0  0
  9 10  1  0  0  0
  9 27  2  0  0  0
 10 11  2  0  0  0
 10 15  1  0  0  0
 11 12  1  0  0  0
 11 96  1  0  0  0
 12 13  2  0  0  0
 12 97  1  0  0  0
 13 14  1  0  0  0
 13 31  1  0  0  0
 14 15  2  0  0  0
 14 98  1  0  0  0
 15 99  1  0  0  0
 16 17  2  0  0  0
 16 21  1  0  0  0
 16 31  1  0  0  0
 17 18  1  0  0  0
 17100  1  0  0  0
 18 19  2  0  0  0
 18101  1  0  0  0
 19 20  1  0  0  0
 19 24  1  0  0  0
 20 21  2  0  0  0
 20102  1  0  0  0
 21 23  1  0  0  0
 22 28  1  0  0  0
 22 32  2  0  0  0
 26 27  1  0  0  0
 28103  1  0  0  0
 28104  1  0  0  0
 29105  1  0  0  0
 29106  1  0  0  0
 33 34  1  0  0  0
 33 66  1  0  0  0
 33 70  2  0  0  0
 34 36  1  0  0  0
 34 59  1  0  0  0
 34107  1  0  0  0
 35 44  2  0  0  0
 35 45  1  0  0  0
 35 68  1  0  0  0
 36 56  1  0  0  0
 36108  1  0  0  0
 37 39  1  0  0  0
 37 47  1  0  0  0
 37 66  1  0  0  0
 37109  1  0  0  0
 38 43  2  0  0  0
 38 46  1  0  0  0
 38 47  1  0  0  0
 39 64  1  0  0  0
 39 67  2  0  0  0
 40 52  1  0  0  0
 40 53  2  0  0  0
 40 58  1  0  0  0
 41110  1  0  0  0
 41111  1  0  0  0
 41112  1  0  0  0
 41 48  1  0  0  0
 42 43  1  0  0  0
 42 66  1  0  0  0
 42113  1  0  0  0
 42114  1  0  0  0
 43 44  1  0  0  0
 44115  1  0  0  0
 45 46  2  0  0  0
 45116  1  0  0  0
 46117  1  0  0  0
 47118  1  0  0  0
 47119  1  0  0  0
 48 56  1  0  0  0
 48 65  1  0  0  0
 48120  1  0  0  0
 49 50  1  0  0  0
 49 53  1  0  0  0
 49 64  1  0  0  0
 49121  1  0  0  0
 50 51  1  0  0  0
 50122  1  0  0  0
 50123  1  0  0  0
 51 52  1  0  0  0
 51124  1  0  0  0
 51125  1  0  0  0
 52126  1  0  0  0
 52127  1  0  0  0
 53 54  1  0  0  0
 54 55  2  0  0  0
 54128  1  0  0  0
 55 57  1  0  0  0
 55129  1  0  0  0
 56 69  2  0  0  0
 57 58  2  0  0  0
 57130  1  0  0  0
 58131  1  0  0  0
 59 60  1  0  0  0
 59 61  1  0  0  0
 59 62  1  0  0  0
 60132  1  0  0  0
 60133  1  0  0  0
 60134  1  0  0  0
 61135  1  0  0  0
 61136  1  0  0  0
 61137  1  0  0  0
 62138  1  0  0  0
 62139  1  0  0  0
 62140  1  0  0  0
 63 65  1  0  0  0
 63141  1  0  0  0
 63142  1  0  0  0
 63143  1  0  0  0
 64144  1  0  0  0
 65145  1  0  0  0
 68 80  1  0  0  0
 71 72  2  0  0  0
 71 78  1  0  0  0
 71 85  1  0  0  0
 72 79  1  0  0  0
 72 84  1  0  0  0
 73 74  1  0  0  0
 73 80  1  0  0  0
 73 84  2  0  0  0
 74 83  1  0  0  0
 74 85  2  0  0  0
 75 78  1  0  0  0
 75146  1  0  0  0
 75147  1  0  0  0
 75148  1  0  0  0
 76149  1  0  0  0
 76150  1  0  0  0
 76151  1  0  0  0
 76 83  1  0  0  0
 77 83  1  0  0  0
 77152  1  0  0  0
 77153  1  0  0  0
 77154  1  0  0  0
 78155  1  0  0  0
 78156  1  0  0  0
 79 81  1  0  0  0
 79157  1  0  0  0
 79158  1  0  0  0
 80159  1  0  0  0
 80160  1  0  0  0
 81 82  1  0  0  0
 81161  1  0  0  0
 81162  1  0  0  0
 82 86  1  0  0  0
 82163  1  0  0  0
 82164  1  0  0  0
 83165  1  0  0  0
 86166  1  0  0  0
M  ISO  4   1 100  68 101  80 101  86 100
M  END
> <chiral flag>
0

> <version>
0

> <s_m_source_file>
/data/baiqing/PycharmProjects/Reinvent-master-3.2/result/LINK_invent/BTK/process_docking_weight1_custom_sum_contain_oxygen_bond_distance_aromatic_linkinvent_7_9_3/rearranged_h_0043.sdf

> <i_m_source_file_index>
67

> <r_mmod_Potential_Energy-OPLS-2005>
207.613006591797

> <r_mmod_Stretch_Energy-OPLS-2005>
130.470397949219

> <r_mmod_Bend_Energy-OPLS-2005>
178.379669189453

> <r_mmod_Torsional_Energy-OPLS-2005>
213.537689208984

> <r_mmod_Improper_Torsional_Energy-OPLS-2005>
5.96399402618408

> <r_mmod_Van_der_Waal_Energy-OPLS-2005>
138.897811889648

> <r_mmod_Electrostatic_Energy-OPLS-2005>
-320.919525146484

> <r_mmod_Solvation_Energy-OPLS-2005>
-214.144454956055

> <b_mmod_Minimization_Converged-OPLS-2005>
0

> <r_mmod_RMS_Derivative-OPLS-2005>
2.97619247436523

$$$$
67
                    3D
 Structure written by MMmdl.
171179  0  0  1  0            999 V2000
  -30.6903  -14.3900   20.5785 C   0  0  0  0  0  0
  -30.4206  -12.2556   19.3854 C   0  0  0  0  0  0
  -29.4904  -12.5158   18.1829 C   0  0  0  0  0  0
  -28.0060  -12.4032   18.5916 C   0  0  0  0  0  0
  -27.6699  -13.1988   19.8824 C   0  0  2  0  0  0
  -28.7093  -12.9010   20.9877 C   0  0  0  0  0  0
  -25.2632  -13.8125   20.5636 C   0  0  0  0  0  0
  -24.1870  -13.0409   20.9132 C   0  0  0  0  0  0
  -24.6400  -11.6877   20.8715 C   0  0  0  0  0  0
  -23.9054  -10.4281   21.0417 C   0  0  0  0  0  0
  -24.3618   -9.4200   21.9197 C   0  0  0  0  0  0
  -23.6289   -8.2232   22.0766 C   0  0  0  0  0  0
  -22.4269   -8.0277   21.3547 C   0  0  0  0  0  0
  -21.9908   -9.0254   20.4647 C   0  0  0  0  0  0
  -22.7236  -10.2132   20.3054 C   0  0  0  0  0  0
  -21.6830   -6.0734   22.5277 C   0  0  0  0  0  0
  -21.4015   -6.5648   23.8215 C   0  0  0  0  0  0
  -21.3655   -5.6802   24.9181 C   0  0  0  0  0  0
  -21.6049   -4.3067   24.7225 C   0  0  0  0  0  0
  -21.8839   -3.8132   23.4350 C   0  0  0  0  0  0
  -21.9206   -4.6964   22.3402 C   0  0  0  0  0  0
  -22.7901  -13.5238   21.1817 C   0  0  0  0  0  0
  -22.1673   -4.2145   21.0981 F   0  0  0  0  0  0
  -21.5626   -3.4553   25.7739 F   0  0  0  0  0  0
  -30.0439  -13.2051   20.4420 N   0  0  0  0  0  0
  -26.3082  -12.9290   20.3383 N   0  0  0  0  0  0
  -25.9333  -11.6451   20.5702 N   0  0  0  0  0  0
  -22.0540  -12.8212   22.0359 N   0  0  0  0  0  0
  -25.4360  -15.1833   20.4037 N   0  0  0  0  0  0
  -31.8043  -14.6246   20.1019 O   0  0  0  0  0  0
  -21.6633   -6.8871   21.4232 O   0  0  0  0  0  0
  -22.3610  -14.5578   20.6722 O   0  0  0  0  0  0
  -24.6118  -31.8708   23.2118 C   0  0  0  0  0  0
  -25.9023  -32.4842   23.8416 C   0  0  1  0  0  0
  -27.2397  -27.4468   20.0853 C   0  0  0  0  0  0
  -25.5889  -33.8634   24.2348 N   0  0  0  0  0  0
  -23.3981  -30.4934   21.5525 C   0  0  2  0  0  0
  -24.8423  -28.9604   20.1161 C   0  0  0  0  0  0
  -22.7386  -29.4667   22.5017 C   0  0  0  0  0  0
  -18.0268  -28.1380   22.8490 C   0  0  0  0  0  0
  -24.1479  -36.7312   23.2636 C   0  0  0  0  0  0
  -25.9251  -30.8386   21.3621 C   0  0  0  0  0  0
  -25.9984  -29.4717   20.7120 C   0  0  0  0  0  0
  -27.1941  -28.7202   20.6973 C   0  0  0  0  0  0
  -26.0560  -26.9466   19.4877 C   0  0  0  0  0  0
  -24.8633  -27.6946   19.5062 C   0  0  0  0  0  0
  -23.6031  -29.8257   20.1664 C   0  0  0  0  0  0
  -25.4102  -36.3119   24.0337 C   0  0  1  0  0  0
  -20.5857  -28.3653   23.1323 C   0  0  2  0  0  0
  -20.6770  -26.9403   22.5407 C   0  0  0  0  0  0
  -19.5746  -26.6391   21.5203 C   0  0  0  0  0  0
  -18.1920  -26.7930   22.1614 C   0  0  0  0  0  0
  -19.1527  -28.8833   23.2905 C   0  0  0  0  0  0
  -18.9453  -30.1440   23.8910 C   0  0  0  0  0  0
  -17.6458  -30.6582   24.0565 C   0  0  0  0  0  0
  -25.9031  -34.9486   23.5143 C   0  0  0  0  0  0
  -16.5342  -29.9084   23.6327 C   0  0  0  0  0  0
  -16.7264  -28.6510   23.0337 C   0  0  0  0  0  0
  -26.4461  -31.6607   25.0724 C   0  0  0  0  0  0
  -25.3731  -31.3689   26.1466 C   0  0  0  0  0  0
  -27.0299  -30.3062   24.6075 C   0  0  0  0  0  0
  -27.6045  -32.4310   25.7493 C   0  0  0  0  0  0
  -27.5575  -37.1811   24.8466 C   0  0  0  0  0  0
  -21.4126  -29.3025   22.3747 N   0  0  0  0  0  0
  -26.4288  -37.3800   23.9412 N   0  0  0  0  0  0
  -24.6636  -31.0823   22.1020 N   0  0  0  0  0  0
  -23.4173  -28.8214   23.3054 O   0  0  0  0  0  0
  -28.4569  -26.7953   20.0959 O   0  0  0  0  0  0
  -26.5591  -34.8935   22.4703 O   0  0  0  0  0  0
  -23.5306  -32.1446   23.7537 O   0  0  0  0  0  0
  -31.2200  -24.0267   23.5874 C   0  0  0  0  0  0
  -31.2055  -24.0950   22.2212 C   0  0  0  0  0  0
  -31.9912  -22.9766   21.8164 C   0  0  0  0  0  0
  -32.3384  -22.4600   25.2585 C   0  0  0  0  0  0
  -30.5132  -25.0969   21.3335 C   0  0  0  0  0  0
  -32.2108  -22.4394   20.4251 C   0  0  0  0  0  0
  -29.1654  -24.5849   20.8005 C   0  0  0  0  0  0
  -31.3423  -21.1866   20.2261 C   0  0  0  0  0  0
  -31.3139  -20.6085   18.7998 C   0  0  0  0  0  0
  -30.9563  -19.1118   18.8027 C   0  0  0  0  0  0
  -29.5733  -18.7875   19.4130 C   0  0  0  0  0  0
  -29.3576  -17.2940   19.6937 C   0  0  0  0  0  0
  -30.1403  -16.7884   20.9255 C   0  0  0  0  0  0
  -28.6074  -25.4432   19.6546 C   0  0  0  0  0  0
  -32.5000  -22.3237   22.8527 N   0  0  0  0  0  0
  -32.0134  -22.9573   23.9384 N   0  0  0  0  0  0
  -29.9316  -15.3578   21.1063 N   0  0  0  0  0  0
  -31.4624  -12.3556   19.0786 H   0  0  0  0  0  0
  -30.3132  -11.2267   19.7352 H   0  0  0  0  0  0
  -29.7075  -11.8092   17.3803 H   0  0  0  0  0  0
  -29.6905  -13.5068   17.7731 H   0  0  0  0  0  0
  -27.7849  -11.3471   18.7373 H   0  0  0  0  0  0
  -27.3675  -12.7391   17.7727 H   0  0  0  0  0  0
  -27.7331  -14.2589   19.6322 H   0  0  0  0  0  0
  -28.6619  -11.8480   21.2705 H   0  0  0  0  0  0
  -28.4925  -13.4475   21.9068 H   0  0  0  0  0  0
  -25.2771   -9.5684   22.4752 H   0  0  0  0  0  0
  -24.0018   -7.4625   22.7486 H   0  0  0  0  0  0
  -21.0849   -8.8769   19.8932 H   0  0  0  0  0  0
  -22.3710  -10.9683   19.6154 H   0  0  0  0  0  0
  -21.1994   -7.6149   23.9716 H   0  0  0  0  0  0
  -21.1457   -6.0527   25.9091 H   0  0  0  0  0  0
  -22.0619   -2.7587   23.2841 H   0  0  0  0  0  0
  -22.4152  -11.9853   22.4710 H   0  0  0  0  0  0
  -21.1164  -13.1244   22.2565 H   0  0  0  0  0  0
  -24.6643  -15.8341   20.5003 H   0  0  0  0  0  0
  -26.2943  -15.6206   20.0951 H   0  0  0  0  0  0
  -26.7101  -32.5559   23.1192 H   0  0  0  0  0  0
  -25.0043  -33.9808   25.0490 H   0  0  0  0  0  0
  -22.6851  -31.3100   21.4159 H   0  0  0  0  0  0
  -23.3747  -35.9637   23.3316 H   0  0  0  0  0  0
  -24.3571  -36.8911   22.2048 H   0  0  0  0  0  0
  -23.7227  -37.6516   23.6644 H   0  0  0  0  0  0
  -26.0306  -31.6038   20.5915 H   0  0  0  0  0  0
  -26.8159  -30.8959   21.9778 H   0  0  0  0  0  0
  -28.0898  -29.1180   21.1529 H   0  0  0  0  0  0
  -26.0089  -25.9961   18.9829 H   0  0  0  0  0  0
  -23.9715  -27.2968   19.0416 H   0  0  0  0  0  0
  -23.7104  -30.5995   19.4067 H   0  0  0  0  0  0
  -22.7278  -29.2422   19.8759 H   0  0  0  0  0  0
  -25.1280  -36.1991   25.0828 H   0  0  0  0  0  0
  -20.9942  -28.3216   24.1445 H   0  0  0  0  0  0
  -20.5688  -26.2257   23.3583 H   0  0  0  0  0  0
  -21.6639  -26.7459   22.1192 H   0  0  0  0  0  0
  -19.6911  -25.6308   21.1216 H   0  0  0  0  0  0
  -19.6692  -27.3212   20.6752 H   0  0  0  0  0  0
  -17.4193  -26.6671   21.4016 H   0  0  0  0  0  0
  -18.0330  -26.0063   22.9012 H   0  0  0  0  0  0
  -19.7929  -30.7253   24.2282 H   0  0  0  0  0  0
  -17.5014  -31.6267   24.5169 H   0  0  0  0  0  0
  -15.5347  -30.2993   23.7654 H   0  0  0  0  0  0
  -15.8660  -28.0844   22.7029 H   0  0  0  0  0  0
  -24.5916  -30.7030   25.7796 H   0  0  0  0  0  0
  -24.8890  -32.2822   26.4927 H   0  0  0  0  0  0
  -25.8064  -30.8847   27.0225 H   0  0  0  0  0  0
  -26.2842  -29.6827   24.1123 H   0  0  0  0  0  0
  -27.4095  -29.7290   25.4523 H   0  0  0  0  0  0
  -27.8666  -30.4418   23.9216 H   0  0  0  0  0  0
  -27.2688  -33.3614   26.2091 H   0  0  0  0  0  0
  -28.3844  -32.6856   25.0305 H   0  0  0  0  0  0
  -28.0722  -31.8408   26.5386 H   0  0  0  0  0  0
  -28.2596  -38.0110   24.7516 H   0  0  0  0  0  0
  -28.1069  -36.2634   24.6292 H   0  0  0  0  0  0
  -27.2290  -37.1462   25.8871 H   0  0  0  0  0  0
  -20.9289  -29.8735   21.6960 H   0  0  0  0  0  0
  -26.0182  -38.2879   24.1413 H   0  0  0  0  0  0
  -30.7322  -24.6376   24.3333 H   0  0  0  0  0  0
  -31.9802  -23.1575   26.0150 H   0  0  0  0  0  0
  -33.4196  -22.3512   25.3616 H   0  0  0  0  0  0
  -31.8632  -21.4905   25.4190 H   0  0  0  0  0  0
  -31.1616  -25.3520   20.4943 H   0  0  0  0  0  0
  -30.3505  -26.0340   21.8676 H   0  0  0  0  0  0
  -33.2634  -22.1909   20.2677 H   0  0  0  0  0  0
  -31.9590  -23.1935   19.6805 H   0  0  0  0  0  0
  -28.4442  -24.5291   21.6158 H   0  0  0  0  0  0
  -29.2815  -23.5667   20.4281 H   0  0  0  0  0  0
  -30.3180  -21.4145   20.5233 H   0  0  0  0  0  0
  -31.6938  -20.4270   20.9256 H   0  0  0  0  0  0
  -32.2900  -20.7262   18.3251 H   0  0  0  0  0  0
  -30.6102  -21.1674   18.1806 H   0  0  0  0  0  0
  -31.7433  -18.5815   19.3404 H   0  0  0  0  0  0
  -31.0044  -18.7319   17.7823 H   0  0  0  0  0  0
  -28.7970  -19.1343   18.7294 H   0  0  0  0  0  0
  -29.4068  -19.3314   20.3421 H   0  0  0  0  0  0
  -29.6110  -16.7123   18.8056 H   0  0  0  0  0  0
  -28.2924  -17.1276   19.8669 H   0  0  0  0  0  0
  -31.2018  -17.0095   20.8304 H   0  0  0  0  0  0
  -29.8074  -17.2978   21.8316 H   0  0  0  0  0  0
  -27.7110  -24.9618   19.2812 H   0  0  0  0  0  0
  -29.3092  -25.4424   18.8201 H   0  0  0  0  0  0
  -29.0389  -15.0686   21.4746 H   0  0  0  0  0  0
  1 25  1  0  0  0
  1 30  2  0  0  0
  1 87  1  0  0  0
  2  3  1  0  0  0
  2 25  1  0  0  0
  2 88  1  0  0  0
  2 89  1  0  0  0
  3  4  1  0  0  0
  3 90  1  0  0  0
  3 91  1  0  0  0
  4  5  1  0  0  0
  4 92  1  0  0  0
  4 93  1  0  0  0
  5  6  1  0  0  0
  5 26  1  0  0  0
  5 94  1  0  0  0
  6 25  1  0  0  0
  6 95  1  0  0  0
  6 96  1  0  0  0
  7  8  2  0  0  0
  7 26  1  0  0  0
  7 29  1  0  0  0
  8  9  1  0  0  0
  8 22  1  0  0  0
  9 10  1  0  0  0
  9 27  2  0  0  0
 10 11  2  0  0  0
 10 15  1  0  0  0
 11 12  1  0  0  0
 11 97  1  0  0  0
 12 13  2  0  0  0
 12 98  1  0  0  0
 13 14  1  0  0  0
 13 31  1  0  0  0
 14 15  2  0  0  0
 14 99  1  0  0  0
 15100  1  0  0  0
 16 17  2  0  0  0
 16 21  1  0  0  0
 16 31  1  0  0  0
 17 18  1  0  0  0
 17101  1  0  0  0
 18 19  2  0  0  0
 18102  1  0  0  0
 19 20  1  0  0  0
 19 24  1  0  0  0
 20 21  2  0  0  0
 20103  1  0  0  0
 21 23  1  0  0  0
 22 28  1  0  0  0
 22 32  2  0  0  0
 26 27  1  0  0  0
 28104  1  0  0  0
 28105  1  0  0  0
 29106  1  0  0  0
 29107  1  0  0  0
 33 34  1  0  0  0
 33 66  1  0  0  0
 33 70  2  0  0  0
 34 36  1  0  0  0
 34 59  1  0  0  0
 34108  1  0  0  0
 35 44  2  0  0  0
 35 45  1  0  0  0
 35 68  1  0  0  0
 36 56  1  0  0  0
 36109  1  0  0  0
 37 39  1  0  0  0
 37 47  1  0  0  0
 37 66  1  0  0  0
 37110  1  0  0  0
 38 43  2  0  0  0
 38 46  1  0  0  0
 38 47  1  0  0  0
 39 64  1  0  0  0
 39 67  2  0  0  0
 40 52  1  0  0  0
 40 53  2  0  0  0
 40 58  1  0  0  0
 41111  1  0  0  0
 41112  1  0  0  0
 41113  1  0  0  0
 41 48  1  0  0  0
 42 43  1  0  0  0
 42 66  1  0  0  0
 42114  1  0  0  0
 42115  1  0  0  0
 43 44  1  0  0  0
 44116  1  0  0  0
 45 46  2  0  0  0
 45117  1  0  0  0
 46118  1  0  0  0
 47119  1  0  0  0
 47120  1  0  0  0
 48 56  1  0  0  0
 48 65  1  0  0  0
 48121  1  0  0  0
 49 50  1  0  0  0
 49 53  1  0  0  0
 49 64  1  0  0  0
 49122  1  0  0  0
 50 51  1  0  0  0
 50123  1  0  0  0
 50124  1  0  0  0
 51 52  1  0  0  0
 51125  1  0  0  0
 51126  1  0  0  0
 52127  1  0  0  0
 52128  1  0  0  0
 53 54  1  0  0  0
 54 55  2  0  0  0
 54129  1  0  0  0
 55 57  1  0  0  0
 55130  1  0  0  0
 56 69  2  0  0  0
 57 58  2  0  0  0
 57131  1  0  0  0
 58132  1  0  0  0
 59 60  1  0  0  0
 59 61  1  0  0  0
 59 62  1  0  0  0
 60133  1  0  0  0
 60134  1  0  0  0
 60135  1  0  0  0
 61136  1  0  0  0
 61137  1  0  0  0
 61138  1  0  0  0
 62139  1  0  0  0
 62140  1  0  0  0
 62141  1  0  0  0
 63 65  1  0  0  0
 63142  1  0  0  0
 63143  1  0  0  0
 63144  1  0  0  0
 64145  1  0  0  0
 65146  1  0  0  0
 68 84  1  0  0  0
 71 72  2  0  0  0
 71 86  1  0  0  0
 71147  1  0  0  0
 72 73  1  0  0  0
 72 75  1  0  0  0
 73 76  1  0  0  0
 73 85  2  0  0  0
 74 86  1  0  0  0
 74148  1  0  0  0
 74149  1  0  0  0
 74150  1  0  0  0
 75 77  1  0  0  0
 75151  1  0  0  0
 75152  1  0  0  0
 76 78  1  0  0  0
 76153  1  0  0  0
 76154  1  0  0  0
 77 84  1  0  0  0
 77155  1  0  0  0
 77156  1  0  0  0
 78 79  1  0  0  0
 78157  1  0  0  0
 78158  1  0  0  0
 79 80  1  0  0  0
 79159  1  0  0  0
 79160  1  0  0  0
 80 81  1  0  0  0
 80161  1  0  0  0
 80162  1  0  0  0
 81 82  1  0  0  0
 81163  1  0  0  0
 81164  1  0  0  0
 82 83  1  0  0  0
 82165  1  0  0  0
 82166  1  0  0  0
 83 87  1  0  0  0
 83167  1  0  0  0
 83168  1  0  0  0
 84169  1  0  0  0
 84170  1  0  0  0
 85 86  1  0  0  0
 87171  1  0  0  0
M  ISO  4   1 100  68 101  84 101  87 100
M  END
> <chiral flag>
0

> <version>
0

> <s_m_source_file>
/data/baiqing/PycharmProjects/Reinvent-master-3.2/result/LINK_invent/BTK/process_docking_weight1_custom_sum_contain_oxygen_bond_distance_aromatic_linkinvent_7_9_3/rearranged_h_0043.sdf

> <i_m_source_file_index>
68

> <r_mmod_Potential_Energy-OPLS-2005>
-129.856994628906

> <r_mmod_Stretch_Energy-OPLS-2005>
31.7658348083496

> <r_mmod_Bend_Energy-OPLS-2005>
105.235000610352

> <r_mmod_Torsional_Energy-OPLS-2005>
200.427673339844

> <r_mmod_Improper_Torsional_Energy-OPLS-2005>
5.13203859329224

> <r_mmod_Van_der_Waal_Energy-OPLS-2005>
127.115386962891

> <r_mmod_Electrostatic_Energy-OPLS-2005>
-387.12548828125

> <r_mmod_Solvation_Energy-OPLS-2005>
-222.676376342773

> <b_mmod_Minimization_Converged-OPLS-2005>
0

> <r_mmod_RMS_Derivative-OPLS-2005>
3.705899477005

$$$$
68
                    3D
 Structure written by MMmdl.
168176  0  0  1  0            999 V2000
  -30.5693  -15.0281   20.3431 C   0  0  0  0  0  0
  -30.4391  -12.6391   19.4773 C   0  0  0  0  0  0
  -29.5094  -12.4948   18.2505 C   0  0  0  0  0  0
  -28.0581  -12.2294   18.6980 C   0  0  0  0  0  0
  -27.6043  -13.1907   19.8216 C   0  0  2  0  0  0
  -28.6689  -13.3617   20.9358 C   0  0  0  0  0  0
  -25.2424  -13.7983   20.5799 C   0  0  0  0  0  0
  -24.1697  -13.0292   20.9287 C   0  0  0  0  0  0
  -24.6279  -11.6771   20.8841 C   0  0  0  0  0  0
  -23.8964  -10.4194   21.0460 C   0  0  0  0  0  0
  -24.3537   -9.4113   21.9220 C   0  0  0  0  0  0
  -23.6227   -8.2147   22.0758 C   0  0  0  0  0  0
  -22.4219   -8.0204   21.3533 C   0  0  0  0  0  0
  -21.9845   -9.0182   20.4640 C   0  0  0  0  0  0
  -22.7161  -10.2065   20.3077 C   0  0  0  0  0  0
  -21.6823   -6.0684   22.5269 C   0  0  0  0  0  0
  -21.4003   -6.5606   23.8199 C   0  0  0  0  0  0
  -21.3667   -5.6771   24.9168 C   0  0  0  0  0  0
  -21.6049   -4.3030   24.7232 C   0  0  0  0  0  0
  -21.8816   -3.8108   23.4353 C   0  0  0  0  0  0
  -21.9181   -4.6916   22.3402 C   0  0  0  0  0  0
  -22.7736  -13.5147   21.1900 C   0  0  0  0  0  0
  -22.1656   -4.2097   21.0982 F   0  0  0  0  0  0
  -21.5636   -3.4533   25.7751 F   0  0  0  0  0  0
  -29.9326  -13.7751   20.2984 N   0  0  0  0  0  0
  -26.2783  -12.9084   20.3346 N   0  0  0  0  0  0
  -25.9194  -11.6296   20.5857 N   0  0  0  0  0  0
  -22.0339  -12.8189   22.0463 N   0  0  0  0  0  0
  -25.4068  -15.1702   20.4233 N   0  0  0  0  0  0
  -31.8029  -15.0083   20.2829 O   0  0  0  0  0  0
  -21.6590   -6.8812   21.4226 O   0  0  0  0  0  0
  -22.3467  -14.5461   20.6714 O   0  0  0  0  0  0
  -24.6416  -31.8444   23.1902 C   0  0  0  0  0  0
  -25.9199  -32.4698   23.8288 C   0  0  1  0  0  0
  -27.2309  -27.1467   20.1543 C   0  0  0  0  0  0
  -25.5973  -33.8504   24.2203 N   0  0  0  0  0  0
  -23.4457  -30.4628   21.5333 C   0  0  2  0  0  0
  -24.9002  -28.8917   20.1060 C   0  0  0  0  0  0
  -22.7558  -29.4539   22.4854 C   0  0  0  0  0  0
  -18.0298  -28.1394   22.8457 C   0  0  0  0  0  0
  -24.1494  -36.7256   23.2638 C   0  0  0  0  0  0
  -26.0002  -30.7188   21.3919 C   0  0  0  0  0  0
  -26.0721  -29.3321   20.7325 C   0  0  0  0  0  0
  -27.2331  -28.4746   20.7421 C   0  0  0  0  0  0
  -26.0382  -26.8143   19.4706 C   0  0  0  0  0  0
  -24.8969  -27.6482   19.4565 C   0  0  0  0  0  0
  -23.6739  -29.7916   20.1523 C   0  0  0  0  0  0
  -25.4128  -36.3031   24.0310 C   0  0  1  0  0  0
  -20.5908  -28.3718   23.1226 C   0  0  2  0  0  0
  -20.6787  -26.9424   22.5394 C   0  0  0  0  0  0
  -19.5777  -26.6374   21.5189 C   0  0  0  0  0  0
  -18.1950  -26.7929   22.1594 C   0  0  0  0  0  0
  -19.1551  -28.8871   23.2833 C   0  0  0  0  0  0
  -18.9473  -30.1463   23.8865 C   0  0  0  0  0  0
  -17.6471  -30.6587   24.0549 C   0  0  0  0  0  0
  -25.9076  -34.9405   23.5059 C   0  0  0  0  0  0
  -16.5361  -29.9082   23.6338 C   0  0  0  0  0  0
  -16.7279  -28.6501   23.0349 C   0  0  0  0  0  0
  -26.4527  -31.6577   25.0738 C   0  0  0  0  0  0
  -25.3716  -31.3764   26.1442 C   0  0  0  0  0  0
  -27.0403  -30.2973   24.6341 C   0  0  0  0  0  0
  -27.6061  -32.4344   25.7526 C   0  0  0  0  0  0
  -27.5579  -37.1785   24.8458 C   0  0  0  0  0  0
  -21.4249  -29.3047   22.3604 N   0  0  0  0  0  0
  -26.4290  -37.3749   23.9401 N   0  0  0  0  0  0
  -24.7148  -31.0308   22.0931 N   0  0  0  0  0  0
  -23.4201  -28.8088   23.2999 O   0  0  0  0  0  0
  -28.3022  -26.1859   20.2740 O   0  0  0  0  0  0
  -26.5646  -34.8892   22.4625 O   0  0  0  0  0  0
  -23.5537  -32.1318   23.7133 O   0  0  0  0  0  0
  -28.2226  -20.5291   22.1141 C   0  0  0  0  0  0
  -29.0102  -20.4213   20.9957 C   0  0  0  0  0  0
  -29.4221  -18.9400   21.0678 C   0  0  0  0  0  0
  -27.3705  -16.0747   16.4089 C   0  0  0  0  0  0
  -25.9283  -18.9897   23.7979 C   0  0  0  0  0  0
  -29.1157  -21.7938   20.0937 C   0  0  0  0  0  0
  -30.3360  -17.7795   20.3684 C   0  0  0  0  0  0
  -27.1994  -17.2176   17.4202 C   0  0  0  0  0  0
  -28.8525  -23.3550   20.7088 C   0  0  0  0  0  0
  -28.4192  -17.4414   18.3315 C   0  0  0  0  0  0
  -27.4502  -19.0172   24.0023 C   0  0  0  0  0  0
  -28.6870  -16.2556   19.2959 C   0  0  0  0  0  0
  -28.2298  -24.6811   19.8787 C   0  0  0  0  0  0
  -28.8726  -18.3926   22.1478 N   0  0  0  0  0  0
  -28.1571  -19.3338   22.7731 N   0  0  0  0  0  0
  -29.8562  -16.2783   20.2011 N   0  0  0  0  0  0
  -31.4632  -12.8093   19.1424 H   0  0  0  0  0  0
  -30.4634  -11.7191   20.0630 H   0  0  0  0  0  0
  -29.8558  -11.6806   17.6143 H   0  0  0  0  0  0
  -29.5545  -13.3967   17.6399 H   0  0  0  0  0  0
  -28.0085  -11.2015   19.0589 H   0  0  0  0  0  0
  -27.3775  -12.2866   17.8474 H   0  0  0  0  0  0
  -27.4527  -14.1093   19.2883 H   0  0  0  0  0  0
  -28.7975  -12.4395   21.5035 H   0  0  0  0  0  0
  -28.3481  -14.1228   21.6490 H   0  0  0  0  0  0
  -25.2668   -9.5591   22.4807 H   0  0  0  0  0  0
  -23.9919   -7.4530   22.7483 H   0  0  0  0  0  0
  -21.0772   -8.8702   19.8959 H   0  0  0  0  0  0
  -22.3615  -10.9613   19.6204 H   0  0  0  0  0  0
  -21.1998   -7.6116   23.9686 H   0  0  0  0  0  0
  -21.1516   -6.0508   25.9068 H   0  0  0  0  0  0
  -22.0602   -2.7573   23.2865 H   0  0  0  0  0  0
  -22.3911  -11.9848   22.4886 H   0  0  0  0  0  0
  -21.0979  -13.1291   22.2681 H   0  0  0  0  0  0
  -24.6384  -15.8210   20.5405 H   0  0  0  0  0  0
  -26.2652  -15.6171   20.1355 H   0  0  0  0  0  0
  -26.7256  -32.5298   23.1006 H   0  0  0  0  0  0
  -25.0160  -33.9628   25.0380 H   0  0  0  0  0  0
  -22.7468  -31.2880   21.3799 H   0  0  0  0  0  0
  -23.3766  -35.9579   23.3280 H   0  0  0  0  0  0
  -24.3580  -36.8912   22.2057 H   0  0  0  0  0  0
  -23.7236  -37.6438   23.6689 H   0  0  0  0  0  0
  -26.1612  -31.4744   20.6223 H   0  0  0  0  0  0
  -26.8680  -30.7647   22.0383 H   0  0  0  0  0  0
  -28.1229  -28.8082   21.2563 H   0  0  0  0  0  0
  -25.9481  -25.8745   18.9498 H   0  0  0  0  0  0
  -24.0082  -27.3138   18.9392 H   0  0  0  0  0  0
  -23.8080  -30.5668   19.3971 H   0  0  0  0  0  0
  -22.7905  -29.2313   19.8421 H   0  0  0  0  0  0
  -25.1314  -36.1859   25.0803 H   0  0  0  0  0  0
  -20.9984  -28.3304   24.1353 H   0  0  0  0  0  0
  -20.5665  -26.2330   23.3607 H   0  0  0  0  0  0
  -21.6660  -26.7427   22.1211 H   0  0  0  0  0  0
  -19.6948  -25.6271   21.1253 H   0  0  0  0  0  0
  -19.6730  -27.3149   20.6689 H   0  0  0  0  0  0
  -17.4221  -26.6643   21.3996 H   0  0  0  0  0  0
  -18.0372  -26.0078   22.9002 H   0  0  0  0  0  0
  -19.7949  -30.7278   24.2231 H   0  0  0  0  0  0
  -17.5029  -31.6268   24.5158 H   0  0  0  0  0  0
  -15.5359  -30.2976   23.7691 H   0  0  0  0  0  0
  -15.8673  -28.0814   22.7089 H   0  0  0  0  0  0
  -24.5898  -30.7112   25.7756 H   0  0  0  0  0  0
  -24.8911  -32.2947   26.4824 H   0  0  0  0  0  0
  -25.8009  -30.8961   27.0247 H   0  0  0  0  0  0
  -26.3030  -29.6688   24.1340 H   0  0  0  0  0  0
  -27.3989  -29.7285   25.4929 H   0  0  0  0  0  0
  -27.8946  -30.4197   23.9685 H   0  0  0  0  0  0
  -27.2661  -33.3660   26.2058 H   0  0  0  0  0  0
  -28.3909  -32.6881   25.0389 H   0  0  0  0  0  0
  -28.0700  -31.8509   26.5490 H   0  0  0  0  0  0
  -28.2574  -38.0102   24.7526 H   0  0  0  0  0  0
  -28.1097  -36.2633   24.6261 H   0  0  0  0  0  0
  -27.2299  -37.1404   25.8859 H   0  0  0  0  0  0
  -20.9458  -29.8763   21.6788 H   0  0  0  0  0  0
  -26.0155  -38.2813   24.1416 H   0  0  0  0  0  0
  -27.6781  -21.3743   22.5098 H   0  0  0  0  0  0
  -26.5450  -16.0648   15.6964 H   0  0  0  0  0  0
  -27.3808  -15.0973   16.8940 H   0  0  0  0  0  0
  -28.2950  -16.1817   15.8407 H   0  0  0  0  0  0
  -25.4184  -18.7341   24.7277 H   0  0  0  0  0  0
  -25.6436  -18.2494   23.0493 H   0  0  0  0  0  0
  -25.5506  -19.9592   23.4705 H   0  0  0  0  0  0
  -28.4026  -21.6923   19.2757 H   0  0  0  0  0  0
  -30.0807  -21.8128   19.5862 H   0  0  0  0  0  0
  -31.2603  -17.7154   20.9431 H   0  0  0  0  0  0
  -30.6881  -18.1392   19.4031 H   0  0  0  0  0  0
  -26.3056  -17.0422   18.0214 H   0  0  0  0  0  0
  -27.0103  -18.1401   16.8681 H   0  0  0  0  0  0
  -29.7964  -23.6707   21.1557 H   0  0  0  0  0  0
  -28.1868  -23.2568   21.5633 H   0  0  0  0  0  0
  -28.2210  -18.3575   18.8844 H   0  0  0  0  0  0
  -29.2919  -17.6310   17.7038 H   0  0  0  0  0  0
  -27.7957  -18.0518   24.3790 H   0  0  0  0  0  0
  -27.7190  -19.7617   24.7535 H   0  0  0  0  0  0
  -28.8270  -15.4209   18.6160 H   0  0  0  0  0  0
  -27.8121  -16.1065   19.9208 H   0  0  0  0  0  0
  -27.1873  -24.4143   19.7263 H   0  0  0  0  0  0
  -28.6714  -24.6487   18.8825 H   0  0  0  0  0  0
  1 25  1  0  0  0
  1 30  2  0  0  0
  1 86  1  0  0  0
  2  3  1  0  0  0
  2 25  1  0  0  0
  2 87  1  0  0  0
  2 88  1  0  0  0
  3  4  1  0  0  0
  3 89  1  0  0  0
  3 90  1  0  0  0
  4  5  1  0  0  0
  4 91  1  0  0  0
  4 92  1  0  0  0
  5  6  1  0  0  0
  5 26  1  0  0  0
  5 93  1  0  0  0
  6 25  1  0  0  0
  6 94  1  0  0  0
  6 95  1  0  0  0
  7  8  2  0  0  0
  7 26  1  0  0  0
  7 29  1  0  0  0
  8  9  1  0  0  0
  8 22  1  0  0  0
  9 10  1  0  0  0
  9 27  2  0  0  0
 10 11  2  0  0  0
 10 15  1  0  0  0
 11 12  1  0  0  0
 11 96  1  0  0  0
 12 13  2  0  0  0
 12 97  1  0  0  0
 13 14  1  0  0  0
 13 31  1  0  0  0
 14 15  2  0  0  0
 14 98  1  0  0  0
 15 99  1  0  0  0
 16 17  2  0  0  0
 16 21  1  0  0  0
 16 31  1  0  0  0
 17 18  1  0  0  0
 17100  1  0  0  0
 18 19  2  0  0  0
 18101  1  0  0  0
 19 20  1  0  0  0
 19 24  1  0  0  0
 20 21  2  0  0  0
 20102  1  0  0  0
 21 23  1  0  0  0
 22 28  1  0  0  0
 22 32  2  0  0  0
 26 27  1  0  0  0
 28103  1  0  0  0
 28104  1  0  0  0
 29105  1  0  0  0
 29106  1  0  0  0
 33 34  1  0  0  0
 33 66  1  0  0  0
 33 70  2  0  0  0
 34 36  1  0  0  0
 34 59  1  0  0  0
 34107  1  0  0  0
 35 44  2  0  0  0
 35 45  1  0  0  0
 35 68  1  0  0  0
 36 56  1  0  0  0
 36108  1  0  0  0
 37 39  1  0  0  0
 37 47  1  0  0  0
 37 66  1  0  0  0
 37109  1  0  0  0
 38 43  2  0  0  0
 38 46  1  0  0  0
 38 47  1  0  0  0
 39 64  1  0  0  0
 39 67  2  0  0  0
 40 52  1  0  0  0
 40 53  2  0  0  0
 40 58  1  0  0  0
 41110  1  0  0  0
 41111  1  0  0  0
 41112  1  0  0  0
 41 48  1  0  0  0
 42 43  1  0  0  0
 42 66  1  0  0  0
 42113  1  0  0  0
 42114  1  0  0  0
 43 44  1  0  0  0
 44115  1  0  0  0
 45 46  2  0  0  0
 45116  1  0  0  0
 46117  1  0  0  0
 47118  1  0  0  0
 47119  1  0  0  0
 48 56  1  0  0  0
 48 65  1  0  0  0
 48120  1  0  0  0
 49 50  1  0  0  0
 49 53  1  0  0  0
 49 64  1  0  0  0
 49121  1  0  0  0
 50 51  1  0  0  0
 50122  1  0  0  0
 50123  1  0  0  0
 51 52  1  0  0  0
 51124  1  0  0  0
 51125  1  0  0  0
 52126  1  0  0  0
 52127  1  0  0  0
 53 54  1  0  0  0
 54 55  2  0  0  0
 54128  1  0  0  0
 55 57  1  0  0  0
 55129  1  0  0  0
 56 69  2  0  0  0
 57 58  2  0  0  0
 57130  1  0  0  0
 58131  1  0  0  0
 59 60  1  0  0  0
 59 61  1  0  0  0
 59 62  1  0  0  0
 60132  1  0  0  0
 60133  1  0  0  0
 60134  1  0  0  0
 61135  1  0  0  0
 61136  1  0  0  0
 61137  1  0  0  0
 62138  1  0  0  0
 62139  1  0  0  0
 62140  1  0  0  0
 63 65  1  0  0  0
 63141  1  0  0  0
 63142  1  0  0  0
 63143  1  0  0  0
 64144  1  0  0  0
 65145  1  0  0  0
 68 83  1  0  0  0
 71 72  2  0  0  0
 71 85  1  0  0  0
 71146  1  0  0  0
 72 73  1  0  0  0
 72 76  1  0  0  0
 73 77  1  0  0  0
 73 84  2  0  0  0
 74 78  1  0  0  0
 74147  1  0  0  0
 74148  1  0  0  0
 74149  1  0  0  0
 75 81  1  0  0  0
 75150  1  0  0  0
 75151  1  0  0  0
 75152  1  0  0  0
 76 79  1  0  0  0
 76153  1  0  0  0
 76154  1  0  0  0
 77 86  1  0  0  0
 77155  1  0  0  0
 77156  1  0  0  0
 78 80  1  0  0  0
 78157  1  0  0  0
 78158  1  0  0  0
 79 83  1  0  0  0
 79159  1  0  0  0
 79160  1  0  0  0
 80 82  1  0  0  0
 80161  1  0  0  0
 80162  1  0  0  0
 81 85  1  0  0  0
 81163  1  0  0  0
 81164  1  0  0  0
 82 86  1  0  0  0
 82165  1  0  0  0
 82166  1  0  0  0
 83167  1  0  0  0
 83168  1  0  0  0
 84 85  1  0  0  0
M  ISO  4   1 100  68 101  83 101  86 100
M  END
> <chiral flag>
0

> <version>
0

> <s_m_source_file>
/data/baiqing/PycharmProjects/Reinvent-master-3.2/result/LINK_invent/BTK/process_docking_weight1_custom_sum_contain_oxygen_bond_distance_aromatic_linkinvent_7_9_3/rearranged_h_0043.sdf

> <i_m_source_file_index>
69

> <r_mmod_Potential_Energy-OPLS-2005>
704.681518554688

> <r_mmod_Stretch_Energy-OPLS-2005>
282.888763427734

> <r_mmod_Bend_Energy-OPLS-2005>
313.278289794922

> <r_mmod_Torsional_Energy-OPLS-2005>
301.216766357422

> <r_mmod_Improper_Torsional_Energy-OPLS-2005>
7.23542833328247

> <r_mmod_Van_der_Waal_Energy-OPLS-2005>
123.119735717773

> <r_mmod_Electrostatic_Energy-OPLS-2005>
-352.176055908203

> <r_mmod_Solvation_Energy-OPLS-2005>
-201.431747436523

> <b_mmod_Minimization_Converged-OPLS-2005>
0

> <r_mmod_RMS_Derivative-OPLS-2005>
2.00823760032654

$$$$
69
                    3D
 Structure written by MMmdl.
152160  0  0  1  0            999 V2000
  -30.6100  -14.8023   20.4172 C   0  0  0  0  0  0
  -30.4160  -12.4797   19.5046 C   0  0  0  0  0  0
  -29.5169  -12.5207   18.2502 C   0  0  0  0  0  0
  -28.0410  -12.3355   18.6516 C   0  0  0  0  0  0
  -27.6299  -13.2497   19.8380 C   0  0  2  0  0  0
  -28.6650  -13.2411   20.9796 C   0  0  0  0  0  0
  -25.2465  -13.8239   20.5723 C   0  0  0  0  0  0
  -24.1766  -13.0449   20.9171 C   0  0  0  0  0  0
  -24.6379  -11.6924   20.8695 C   0  0  0  0  0  0
  -23.9069  -10.4299   21.0384 C   0  0  0  0  0  0
  -24.3625   -9.4212   21.9166 C   0  0  0  0  0  0
  -23.6290   -8.2263   22.0747 C   0  0  0  0  0  0
  -22.4280   -8.0288   21.3545 C   0  0  0  0  0  0
  -21.9907   -9.0263   20.4649 C   0  0  0  0  0  0
  -22.7239  -10.2136   20.3036 C   0  0  0  0  0  0
  -21.6873   -6.0723   22.5270 C   0  0  0  0  0  0
  -21.4033   -6.5624   23.8200 C   0  0  0  0  0  0
  -21.3667   -5.6774   24.9173 C   0  0  0  0  0  0
  -21.6037   -4.3029   24.7219 C   0  0  0  0  0  0
  -21.8824   -3.8129   23.4347 C   0  0  0  0  0  0
  -21.9202   -4.6949   22.3393 C   0  0  0  0  0  0
  -22.7806  -13.5229   21.1872 C   0  0  0  0  0  0
  -22.1667   -4.2141   21.0977 F   0  0  0  0  0  0
  -21.5641   -3.4490   25.7721 F   0  0  0  0  0  0
  -29.9654  -13.5782   20.3970 N   0  0  0  0  0  0
  -26.2877  -12.9458   20.3207 N   0  0  0  0  0  0
  -25.9312  -11.6583   20.5679 N   0  0  0  0  0  0
  -22.0469  -12.8233   22.0435 N   0  0  0  0  0  0
  -25.4205  -15.1973   20.4314 N   0  0  0  0  0  0
  -31.8178  -14.8126   20.1510 O   0  0  0  0  0  0
  -21.6669   -6.8866   21.4232 O   0  0  0  0  0  0
  -22.3463  -14.5546   20.6748 O   0  0  0  0  0  0
  -24.6397  -31.8513   23.1908 C   0  0  0  0  0  0
  -25.9188  -32.4724   23.8296 C   0  0  1  0  0  0
  -27.1928  -27.1924   20.1320 C   0  0  0  0  0  0
  -25.5953  -33.8531   24.2205 N   0  0  0  0  0  0
  -23.4366  -30.4754   21.5388 C   0  0  2  0  0  0
  -24.8774  -28.9158   20.1049 C   0  0  0  0  0  0
  -22.7531  -29.4607   22.4877 C   0  0  0  0  0  0
  -18.0305  -28.1402   22.8483 C   0  0  0  0  0  0
  -24.1484  -36.7286   23.2629 C   0  0  0  0  0  0
  -25.9875  -30.7412   21.3794 C   0  0  0  0  0  0
  -26.0540  -29.3566   20.7253 C   0  0  0  0  0  0
  -27.2178  -28.5101   20.7246 C   0  0  0  0  0  0
  -26.0006  -26.8500   19.4590 C   0  0  0  0  0  0
  -24.8609  -27.6747   19.4558 C   0  0  0  0  0  0
  -23.6533  -29.8124   20.1547 C   0  0  0  0  0  0
  -25.4114  -36.3049   24.0304 C   0  0  1  0  0  0
  -20.5911  -28.3744   23.1244 C   0  0  2  0  0  0
  -20.6800  -26.9454   22.5407 C   0  0  0  0  0  0
  -19.5773  -26.6390   21.5229 C   0  0  0  0  0  0
  -18.1954  -26.7941   22.1638 C   0  0  0  0  0  0
  -19.1557  -28.8887   23.2860 C   0  0  0  0  0  0
  -18.9469  -30.1486   23.8881 C   0  0  0  0  0  0
  -17.6470  -30.6597   24.0577 C   0  0  0  0  0  0
  -25.9077  -34.9424   23.5057 C   0  0  0  0  0  0
  -16.5361  -29.9105   23.6320 C   0  0  0  0  0  0
  -16.7296  -28.6522   23.0333 C   0  0  0  0  0  0
  -26.4502  -31.6562   25.0713 C   0  0  0  0  0  0
  -25.3692  -31.3777   26.1410 C   0  0  0  0  0  0
  -27.0324  -30.2954   24.6231 C   0  0  0  0  0  0
  -27.6032  -32.4308   25.7515 C   0  0  0  0  0  0
  -27.5565  -37.1801   24.8453 C   0  0  0  0  0  0
  -21.4228  -29.3089   22.3628 N   0  0  0  0  0  0
  -26.4278  -37.3765   23.9395 N   0  0  0  0  0  0
  -24.7083  -31.0419   22.0919 N   0  0  0  0  0  0
  -23.4210  -28.8160   23.2994 O   0  0  0  0  0  0
  -28.2442  -26.2302   20.1628 O   0  0  0  0  0  0
  -26.5663  -34.8910   22.4636 O   0  0  0  0  0  0
  -23.5528  -32.1367   23.7155 O   0  0  0  0  0  0
  -30.3250  -17.1724   21.5308 C   0  0  0  0  0  0
  -30.0438  -18.5812   21.4041 C   0  0  0  0  0  0
  -29.9195  -16.2274   20.5390 C   0  0  0  0  0  0
  -29.3372  -19.0728   20.2670 C   0  0  0  0  0  0
  -30.5887  -19.5529   22.4322 C   0  0  0  0  0  0
  -29.3258  -20.6315   19.8059 C   0  0  0  0  0  0
  -28.4874  -21.8889   20.4502 C   0  0  0  0  0  0
  -28.8134  -23.4506   19.9964 C   0  0  0  0  0  0
  -27.9236  -24.7575   20.4637 C   0  0  0  0  0  0
  -29.1930  -16.7715   19.5007 N   0  0  0  0  0  0
  -28.9101  -18.1095   19.3797 N   0  0  0  0  0  0
  -31.4643  -12.5754   19.2188 H   0  0  0  0  0  0
  -30.3326  -11.5146   20.0088 H   0  0  0  0  0  0
  -29.8176  -11.7514   17.5387 H   0  0  0  0  0  0
  -29.6420  -13.4769   17.7381 H   0  0  0  0  0  0
  -27.9007  -11.2873   18.9204 H   0  0  0  0  0  0
  -27.3911  -12.5227   17.7972 H   0  0  0  0  0  0
  -27.6075  -14.2641   19.4381 H   0  0  0  0  0  0
  -28.7043  -12.2661   21.4665 H   0  0  0  0  0  0
  -28.3949  -13.9628   21.7535 H   0  0  0  0  0  0
  -25.2773   -9.5686   22.4741 H   0  0  0  0  0  0
  -23.9985   -7.4659   22.7467 H   0  0  0  0  0  0
  -21.0842   -8.8786   19.8959 H   0  0  0  0  0  0
  -22.3696  -10.9678   19.6146 H   0  0  0  0  0  0
  -21.2031   -7.6140   23.9679 H   0  0  0  0  0  0
  -21.1494   -6.0530   25.9072 H   0  0  0  0  0  0
  -22.0603   -2.7581   23.2852 H   0  0  0  0  0  0
  -22.4081  -11.9884   22.4805 H   0  0  0  0  0  0
  -21.1087  -13.1258   22.2613 H   0  0  0  0  0  0
  -24.6667  -15.8589   20.5818 H   0  0  0  0  0  0
  -26.2960  -15.6421   20.1788 H   0  0  0  0  0  0
  -26.7262  -32.5331   23.1047 H   0  0  0  0  0  0
  -25.0076  -33.9671   25.0328 H   0  0  0  0  0  0
  -22.7372  -31.3018   21.3955 H   0  0  0  0  0  0
  -23.3729  -35.9637   23.3280 H   0  0  0  0  0  0
  -24.3588  -36.8919   22.2046 H   0  0  0  0  0  0
  -23.7254  -37.6485   23.6686 H   0  0  0  0  0  0
  -26.1270  -31.4904   20.5996 H   0  0  0  0  0  0
  -26.8662  -30.7950   22.0112 H   0  0  0  0  0  0
  -28.1173  -28.8438   21.2239 H   0  0  0  0  0  0
  -25.9238  -25.9173   18.9200 H   0  0  0  0  0  0
  -23.9683  -27.3402   18.9439 H   0  0  0  0  0  0
  -23.7858  -30.5910   19.4031 H   0  0  0  0  0  0
  -22.7658  -29.2576   19.8450 H   0  0  0  0  0  0
  -25.1288  -36.1890   25.0799 H   0  0  0  0  0  0
  -21.0016  -28.3357   24.1360 H   0  0  0  0  0  0
  -20.5716  -26.2384   23.3645 H   0  0  0  0  0  0
  -21.6669  -26.7494   22.1199 H   0  0  0  0  0  0
  -19.6943  -25.6302   21.1261 H   0  0  0  0  0  0
  -19.6676  -27.3191   20.6755 H   0  0  0  0  0  0
  -17.4221  -26.6663   21.4047 H   0  0  0  0  0  0
  -18.0368  -26.0100   22.9051 H   0  0  0  0  0  0
  -19.7947  -30.7302   24.2242 H   0  0  0  0  0  0
  -17.5028  -31.6269   24.5194 H   0  0  0  0  0  0
  -15.5364  -30.3007   23.7626 H   0  0  0  0  0  0
  -15.8707  -28.0836   22.7034 H   0  0  0  0  0  0
  -24.5911  -30.7060   25.7770 H   0  0  0  0  0  0
  -24.8842  -32.2969   26.4703 H   0  0  0  0  0  0
  -25.7977  -30.9081   27.0269 H   0  0  0  0  0  0
  -26.2922  -29.6743   24.1178 H   0  0  0  0  0  0
  -27.3872  -29.7178   25.4773 H   0  0  0  0  0  0
  -27.8858  -30.4168   23.9560 H   0  0  0  0  0  0
  -27.2612  -33.3616   26.2057 H   0  0  0  0  0  0
  -28.3887  -32.6843   25.0386 H   0  0  0  0  0  0
  -28.0665  -31.8465   26.5473 H   0  0  0  0  0  0
  -28.2558  -38.0117   24.7491 H   0  0  0  0  0  0
  -28.1073  -36.2638   24.6271 H   0  0  0  0  0  0
  -27.2296  -37.1432   25.8860 H   0  0  0  0  0  0
  -20.9454  -29.8829   21.6820 H   0  0  0  0  0  0
  -26.0126  -38.2824   24.1415 H   0  0  0  0  0  0
  -30.9406  -16.8274   22.3489 H   0  0  0  0  0  0
  -31.2744  -19.0637   23.1236 H   0  0  0  0  0  0
  -29.7752  -19.9866   23.0122 H   0  0  0  0  0  0
  -31.1283  -20.3647   21.9460 H   0  0  0  0  0  0
  -29.0728  -20.6163   18.7454 H   0  0  0  0  0  0
  -30.3744  -20.9262   19.8139 H   0  0  0  0  0  0
  -28.6043  -21.8406   21.5320 H   0  0  0  0  0  0
  -27.4287  -21.6941   20.2771 H   0  0  0  0  0  0
  -29.8456  -23.6472   20.2897 H   0  0  0  0  0  0
  -28.8269  -23.4528   18.9062 H   0  0  0  0  0  0
  -27.8682  -24.7176   21.5514 H   0  0  0  0  0  0
  -26.9088  -24.5249   20.1524 H   0  0  0  0  0  0
  1 25  1  0  0  0
  1 30  2  0  0  0
  1 73  1  0  0  0
  2  3  1  0  0  0
  2 25  1  0  0  0
  2 82  1  0  0  0
  2 83  1  0  0  0
  3  4  1  0  0  0
  3 84  1  0  0  0
  3 85  1  0  0  0
  4  5  1  0  0  0
  4 86  1  0  0  0
  4 87  1  0  0  0
  5  6  1  0  0  0
  5 26  1  0  0  0
  5 88  1  0  0  0
  6 25  1  0  0  0
  6 89  1  0  0  0
  6 90  1  0  0  0
  7  8  2  0  0  0
  7 26  1  0  0  0
  7 29  1  0  0  0
  8  9  1  0  0  0
  8 22  1  0  0  0
  9 10  1  0  0  0
  9 27  2  0  0  0
 10 11  2  0  0  0
 10 15  1  0  0  0
 11 12  1  0  0  0
 11 91  1  0  0  0
 12 13  2  0  0  0
 12 92  1  0  0  0
 13 14  1  0  0  0
 13 31  1  0  0  0
 14 15  2  0  0  0
 14 93  1  0  0  0
 15 94  1  0  0  0
 16 17  2  0  0  0
 16 21  1  0  0  0
 16 31  1  0  0  0
 17 18  1  0  0  0
 17 95  1  0  0  0
 18 19  2  0  0  0
 18 96  1  0  0  0
 19 20  1  0  0  0
 19 24  1  0  0  0
 20 21  2  0  0  0
 20 97  1  0  0  0
 21 23  1  0  0  0
 22 28  1  0  0  0
 22 32  2  0  0  0
 26 27  1  0  0  0
 28 98  1  0  0  0
 28 99  1  0  0  0
 29100  1  0  0  0
 29101  1  0  0  0
 33 34  1  0  0  0
 33 66  1  0  0  0
 33 70  2  0  0  0
 34 36  1  0  0  0
 34 59  1  0  0  0
 34102  1  0  0  0
 35 44  2  0  0  0
 35 45  1  0  0  0
 35 68  1  0  0  0
 36 56  1  0  0  0
 36103  1  0  0  0
 37 39  1  0  0  0
 37 47  1  0  0  0
 37 66  1  0  0  0
 37104  1  0  0  0
 38 43  2  0  0  0
 38 46  1  0  0  0
 38 47  1  0  0  0
 39 64  1  0  0  0
 39 67  2  0  0  0
 40 52  1  0  0  0
 40 53  2  0  0  0
 40 58  1  0  0  0
 41105  1  0  0  0
 41106  1  0  0  0
 41107  1  0  0  0
 41 48  1  0  0  0
 42 43  1  0  0  0
 42 66  1  0  0  0
 42108  1  0  0  0
 42109  1  0  0  0
 43 44  1  0  0  0
 44110  1  0  0  0
 45 46  2  0  0  0
 45111  1  0  0  0
 46112  1  0  0  0
 47113  1  0  0  0
 47114  1  0  0  0
 48 56  1  0  0  0
 48 65  1  0  0  0
 48115  1  0  0  0
 49 50  1  0  0  0
 49 53  1  0  0  0
 49 64  1  0  0  0
 49116  1  0  0  0
 50 51  1  0  0  0
 50117  1  0  0  0
 50118  1  0  0  0
 51 52  1  0  0  0
 51119  1  0  0  0
 51120  1  0  0  0
 52121  1  0  0  0
 52122  1  0  0  0
 53 54  1  0  0  0
 54 55  2  0  0  0
 54123  1  0  0  0
 55 57  1  0  0  0
 55124  1  0  0  0
 56 69  2  0  0  0
 57 58  2  0  0  0
 57125  1  0  0  0
 58126  1  0  0  0
 59 60  1  0  0  0
 59 61  1  0  0  0
 59 62  1  0  0  0
 60127  1  0  0  0
 60128  1  0  0  0
 60129  1  0  0  0
 61130  1  0  0  0
 61131  1  0  0  0
 61132  1  0  0  0
 62133  1  0  0  0
 62134  1  0  0  0
 62135  1  0  0  0
 63 65  1  0  0  0
 63136  1  0  0  0
 63137  1  0  0  0
 63138  1  0  0  0
 64139  1  0  0  0
 65140  1  0  0  0
 68 79  1  0  0  0
 71 72  2  0  0  0
 71 73  1  0  0  0
 71141  1  0  0  0
 72 74  1  0  0  0
 72 75  1  0  0  0
 73 80  2  0  0  0
 74 76  1  0  0  0
 74 81  2  0  0  0
 75142  1  0  0  0
 75143  1  0  0  0
 75144  1  0  0  0
 76 77  1  0  0  0
 76145  1  0  0  0
 76146  1  0  0  0
 77 78  1  0  0  0
 77147  1  0  0  0
 77148  1  0  0  0
 78 79  1  0  0  0
 78149  1  0  0  0
 78150  1  0  0  0
 79151  1  0  0  0
 79152  1  0  0  0
 80 81  1  0  0  0
M  ISO  4   1 100  68 101  73 100  79 101
M  END
> <chiral flag>
0

> <version>
0

> <s_m_source_file>
/data/baiqing/PycharmProjects/Reinvent-master-3.2/result/LINK_invent/BTK/process_docking_weight1_custom_sum_contain_oxygen_bond_distance_aromatic_linkinvent_7_9_3/rearranged_h_0043.sdf

> <i_m_source_file_index>
70

> <r_mmod_Potential_Energy-OPLS-2005>
500.517211914062

> <r_mmod_Stretch_Energy-OPLS-2005>
172.615219116211

> <r_mmod_Bend_Energy-OPLS-2005>
216.114227294922

> <r_mmod_Torsional_Energy-OPLS-2005>
234.738739013672

> <r_mmod_Improper_Torsional_Energy-OPLS-2005>
9.15623092651367

> <r_mmod_Van_der_Waal_Energy-OPLS-2005>
131.612335205078

> <r_mmod_Electrostatic_Energy-OPLS-2005>
-183.135833740234

> <r_mmod_Solvation_Energy-OPLS-2005>
-206.644836425781

> <b_mmod_Minimization_Converged-OPLS-2005>
0

> <r_mmod_RMS_Derivative-OPLS-2005>
3.26620101928711

$$$$
70
                    3D
 Structure written by MMmdl.
163171  0  0  1  0            999 V2000
  -30.7284  -14.4295   20.5754 C   0  0  0  0  0  0
  -30.4095  -12.2796   19.4226 C   0  0  0  0  0  0
  -29.4927  -12.5042   18.2046 C   0  0  0  0  0  0
  -28.0098  -12.3811   18.6094 C   0  0  0  0  0  0
  -27.6597  -13.2078   19.8763 C   0  0  2  0  0  0
  -28.6969  -12.9709   20.9932 C   0  0  0  0  0  0
  -25.2578  -13.8139   20.5715 C   0  0  0  0  0  0
  -24.1826  -13.0418   20.9220 C   0  0  0  0  0  0
  -24.6375  -11.6877   20.8741 C   0  0  0  0  0  0
  -23.9037  -10.4263   21.0385 C   0  0  0  0  0  0
  -24.3584   -9.4178   21.9165 C   0  0  0  0  0  0
  -23.6275   -8.2213   22.0733 C   0  0  0  0  0  0
  -22.4254   -8.0262   21.3519 C   0  0  0  0  0  0
  -21.9884   -9.0244   20.4628 C   0  0  0  0  0  0
  -22.7211  -10.2122   20.3042 C   0  0  0  0  0  0
  -21.6837   -6.0729   22.5288 C   0  0  0  0  0  0
  -21.4014   -6.5645   23.8227 C   0  0  0  0  0  0
  -21.3650   -5.6810   24.9193 C   0  0  0  0  0  0
  -21.6036   -4.3070   24.7248 C   0  0  0  0  0  0
  -21.8819   -3.8150   23.4372 C   0  0  0  0  0  0
  -21.9179   -4.6958   22.3422 C   0  0  0  0  0  0
  -22.7840  -13.5189   21.1892 C   0  0  0  0  0  0
  -22.1652   -4.2141   21.1003 F   0  0  0  0  0  0
  -21.5600   -3.4556   25.7752 F   0  0  0  0  0  0
  -30.0302  -13.2684   20.4444 N   0  0  0  0  0  0
  -26.3004  -12.9322   20.3374 N   0  0  0  0  0  0
  -25.9307  -11.6465   20.5757 N   0  0  0  0  0  0
  -22.0510  -12.8178   22.0462 N   0  0  0  0  0  0
  -25.4307  -15.1861   20.4111 N   0  0  0  0  0  0
  -31.8641  -14.5672   20.1042 O   0  0  0  0  0  0
  -21.6611   -6.8870   21.4235 O   0  0  0  0  0  0
  -22.3510  -14.5488   20.6724 O   0  0  0  0  0  0
  -24.6142  -31.8671   23.2111 C   0  0  0  0  0  0
  -25.9033  -32.4815   23.8407 C   0  0  1  0  0  0
  -27.2286  -27.4296   20.0934 C   0  0  0  0  0  0
  -25.5888  -33.8616   24.2331 N   0  0  0  0  0  0
  -23.4030  -30.4937   21.5479 C   0  0  2  0  0  0
  -24.8481  -28.9601   20.1097 C   0  0  0  0  0  0
  -22.7406  -29.4672   22.4950 C   0  0  0  0  0  0
  -18.0281  -28.1384   22.8478 C   0  0  0  0  0  0
  -24.1481  -36.7331   23.2636 C   0  0  0  0  0  0
  -25.9322  -30.8297   21.3658 C   0  0  0  0  0  0
  -26.0072  -29.4646   20.7113 C   0  0  0  0  0  0
  -27.1999  -28.7065   20.6995 C   0  0  0  0  0  0
  -26.0553  -26.9495   19.4664 C   0  0  0  0  0  0
  -24.8680  -27.7033   19.4821 C   0  0  0  0  0  0
  -23.6121  -29.8284   20.1612 C   0  0  0  0  0  0
  -25.4100  -36.3115   24.0334 C   0  0  1  0  0  0
  -20.5865  -28.3681   23.1292 C   0  0  2  0  0  0
  -20.6763  -26.9417   22.5398 C   0  0  0  0  0  0
  -19.5754  -26.6393   21.5186 C   0  0  0  0  0  0
  -18.1937  -26.7927   22.1610 C   0  0  0  0  0  0
  -19.1529  -28.8848   23.2885 C   0  0  0  0  0  0
  -18.9460  -30.1446   23.8911 C   0  0  0  0  0  0
  -17.6464  -30.6590   24.0564 C   0  0  0  0  0  0
  -25.9027  -34.9474   23.5131 C   0  0  0  0  0  0
  -16.5352  -29.9100   23.6307 C   0  0  0  0  0  0
  -16.7272  -28.6513   23.0332 C   0  0  0  0  0  0
  -26.4451  -31.6599   25.0738 C   0  0  0  0  0  0
  -25.3723  -31.3705   26.1495 C   0  0  0  0  0  0
  -27.0269  -30.3041   24.6109 C   0  0  0  0  0  0
  -27.6034  -32.4304   25.7503 C   0  0  0  0  0  0
  -27.5576  -37.1824   24.8459 C   0  0  0  0  0  0
  -21.4133  -29.3049   22.3698 N   0  0  0  0  0  0
  -26.4287  -37.3799   23.9406 N   0  0  0  0  0  0
  -24.6679  -31.0786   22.0997 N   0  0  0  0  0  0
  -23.4177  -28.8181   23.2974 O   0  0  0  0  0  0
  -28.3962  -26.6945   20.1270 O   0  0  0  0  0  0
  -26.5596  -34.8926   22.4696 O   0  0  0  0  0  0
  -23.5330  -32.1419   23.7498 O   0  0  0  0  0  0
  -30.5610  -21.1465   20.5105 C   0  0  0  0  0  0
  -29.5833  -20.3821   21.1645 C   0  0  0  0  0  0
  -28.4425  -21.0823   21.6067 C   0  0  0  0  0  0
  -29.3757  -23.0628   20.8924 C   0  0  0  0  0  0
  -27.2045  -20.5756   23.7799 C   0  0  0  0  0  0
  -29.7953  -15.8108   22.3420 C   0  0  0  0  0  0
  -29.8301  -18.8957   21.4176 C   0  0  0  0  0  0
  -27.2478  -20.3946   22.2579 C   0  0  0  0  0  0
  -29.3758  -24.5914   20.9162 C   0  0  0  0  0  0
  -29.2986  -17.9558   20.3143 C   0  0  0  0  0  0
  -30.1881  -16.7147   20.0512 C   0  0  0  0  0  0
  -28.2879  -25.2592   20.0564 C   0  0  0  0  0  0
  -30.4482  -22.4788   20.3704 N   0  0  0  0  0  0
  -28.3642  -22.4248   21.4808 N   0  0  0  0  0  0
  -30.0084  -15.5271   20.9189 N   0  0  0  0  0  0
  -31.4575  -12.3482   19.1297 H   0  0  0  0  0  0
  -30.2767  -11.2682   19.8120 H   0  0  0  0  0  0
  -29.7256  -11.7812   17.4207 H   0  0  0  0  0  0
  -29.6787  -13.4886   17.7745 H   0  0  0  0  0  0
  -27.8005  -11.3258   18.7885 H   0  0  0  0  0  0
  -27.3697  -12.6789   17.7783 H   0  0  0  0  0  0
  -27.7107  -14.2597   19.5961 H   0  0  0  0  0  0
  -28.6650  -11.9309   21.3244 H   0  0  0  0  0  0
  -28.4523  -13.5588   21.8753 H   0  0  0  0  0  0
  -25.2723   -9.5661   22.4755 H   0  0  0  0  0  0
  -23.9964   -7.4596   22.7463 H   0  0  0  0  0  0
  -21.0796   -8.8783   19.8973 H   0  0  0  0  0  0
  -22.3662  -10.9662   19.6161 H   0  0  0  0  0  0
  -21.2044   -7.6165   23.9727 H   0  0  0  0  0  0
  -21.1452   -6.0555   25.9090 H   0  0  0  0  0  0
  -22.0599   -2.7607   23.2902 H   0  0  0  0  0  0
  -22.4101  -11.9838   22.4879 H   0  0  0  0  0  0
  -21.1117  -13.1189   22.2642 H   0  0  0  0  0  0
  -24.6619  -15.8401   20.5102 H   0  0  0  0  0  0
  -26.2868  -15.6230   20.0933 H   0  0  0  0  0  0
  -26.7096  -32.5526   23.1164 H   0  0  0  0  0  0
  -25.0020  -33.9778   25.0464 H   0  0  0  0  0  0
  -22.6922  -31.3116   21.4090 H   0  0  0  0  0  0
  -23.3723  -35.9685   23.3311 H   0  0  0  0  0  0
  -24.3569  -36.8938   22.2049 H   0  0  0  0  0  0
  -23.7262  -37.6550   23.6645 H   0  0  0  0  0  0
  -26.0473  -31.5932   20.5955 H   0  0  0  0  0  0
  -26.8199  -30.8823   21.9848 H   0  0  0  0  0  0
  -28.0947  -29.0903   21.1684 H   0  0  0  0  0  0
  -26.0410  -25.9989   18.9521 H   0  0  0  0  0  0
  -23.9797  -27.3186   18.9997 H   0  0  0  0  0  0
  -23.7266  -30.6041   19.4037 H   0  0  0  0  0  0
  -22.7351  -29.2513   19.8621 H   0  0  0  0  0  0
  -25.1275  -36.1975   25.0826 H   0  0  0  0  0  0
  -20.9970  -28.3248   24.1406 H   0  0  0  0  0  0
  -20.5636  -26.2296   23.3587 H   0  0  0  0  0  0
  -21.6638  -26.7441   22.1210 H   0  0  0  0  0  0
  -19.6915  -25.6300   21.1224 H   0  0  0  0  0  0
  -19.6691  -27.3183   20.6698 H   0  0  0  0  0  0
  -17.4190  -26.6645   21.4027 H   0  0  0  0  0  0
  -18.0377  -26.0075   22.9022 H   0  0  0  0  0  0
  -19.7940  -30.7251   24.2286 H   0  0  0  0  0  0
  -17.5029  -31.6268   24.5179 H   0  0  0  0  0  0
  -15.5355  -30.3014   23.7636 H   0  0  0  0  0  0
  -15.8666  -28.0849   22.7028 H   0  0  0  0  0  0
  -24.5915  -30.7015   25.7855 H   0  0  0  0  0  0
  -24.8878  -32.2849   26.4928 H   0  0  0  0  0  0
  -25.8092  -30.8910   27.0266 H   0  0  0  0  0  0
  -26.2813  -29.6841   24.1114 H   0  0  0  0  0  0
  -27.3980  -29.7242   25.4569 H   0  0  0  0  0  0
  -27.8675  -30.4361   23.9296 H   0  0  0  0  0  0
  -27.2669  -33.3603   26.2101 H   0  0  0  0  0  0
  -28.3844  -32.6861   25.0329 H   0  0  0  0  0  0
  -28.0698  -31.8405   26.5406 H   0  0  0  0  0  0
  -28.2593  -38.0118   24.7495 H   0  0  0  0  0  0
  -28.1071  -36.2651   24.6287 H   0  0  0  0  0  0
  -27.2299  -37.1484   25.8864 H   0  0  0  0  0  0
  -20.9287  -29.8808   21.6953 H   0  0  0  0  0  0
  -26.0171  -38.2877   24.1396 H   0  0  0  0  0  0
  -31.4650  -20.6959   20.1275 H   0  0  0  0  0  0
  -26.3567  -20.0398   24.2089 H   0  0  0  0  0  0
  -27.0991  -21.6290   24.0400 H   0  0  0  0  0  0
  -28.1125  -20.1988   24.2502 H   0  0  0  0  0  0
  -30.5688  -16.4843   22.7115 H   0  0  0  0  0  0
  -29.8394  -14.9163   22.9668 H   0  0  0  0  0  0
  -28.8221  -16.2753   22.5031 H   0  0  0  0  0  0
  -29.4256  -18.6112   22.3880 H   0  0  0  0  0  0
  -30.9104  -18.7679   21.5155 H   0  0  0  0  0  0
  -27.2402  -19.3333   22.0150 H   0  0  0  0  0  0
  -26.3305  -20.7883   21.8178 H   0  0  0  0  0  0
  -30.3531  -24.9457   20.5865 H   0  0  0  0  0  0
  -29.2831  -24.9111   21.9542 H   0  0  0  0  0  0
  -29.2949  -18.5195   19.3802 H   0  0  0  0  0  0
  -28.2569  -17.6800   20.4850 H   0  0  0  0  0  0
  -31.2373  -17.0189   20.0516 H   0  0  0  0  0  0
  -29.9862  -16.3907   19.0279 H   0  0  0  0  0  0
  -27.3261  -24.9079   20.4365 H   0  0  0  0  0  0
  -28.3760  -24.9354   19.0168 H   0  0  0  0  0  0
  1 25  1  0  0  0
  1 30  2  0  0  0
  1 85  1  0  0  0
  2  3  1  0  0  0
  2 25  1  0  0  0
  2 86  1  0  0  0
  2 87  1  0  0  0
  3  4  1  0  0  0
  3 88  1  0  0  0
  3 89  1  0  0  0
  4  5  1  0  0  0
  4 90  1  0  0  0
  4 91  1  0  0  0
  5  6  1  0  0  0
  5 26  1  0  0  0
  5 92  1  0  0  0
  6 25  1  0  0  0
  6 93  1  0  0  0
  6 94  1  0  0  0
  7  8  2  0  0  0
  7 26  1  0  0  0
  7 29  1  0  0  0
  8  9  1  0  0  0
  8 22  1  0  0  0
  9 10  1  0  0  0
  9 27  2  0  0  0
 10 11  2  0  0  0
 10 15  1  0  0  0
 11 12  1  0  0  0
 11 95  1  0  0  0
 12 13  2  0  0  0
 12 96  1  0  0  0
 13 14  1  0  0  0
 13 31  1  0  0  0
 14 15  2  0  0  0
 14 97  1  0  0  0
 15 98  1  0  0  0
 16 17  2  0  0  0
 16 21  1  0  0  0
 16 31  1  0  0  0
 17 18  1  0  0  0
 17 99  1  0  0  0
 18 19  2  0  0  0
 18100  1  0  0  0
 19 20  1  0  0  0
 19 24  1  0  0  0
 20 21  2  0  0  0
 20101  1  0  0  0
 21 23  1  0  0  0
 22 28  1  0  0  0
 22 32  2  0  0  0
 26 27  1  0  0  0
 28102  1  0  0  0
 28103  1  0  0  0
 29104  1  0  0  0
 29105  1  0  0  0
 33 34  1  0  0  0
 33 66  1  0  0  0
 33 70  2  0  0  0
 34 36  1  0  0  0
 34 59  1  0  0  0
 34106  1  0  0  0
 35 44  2  0  0  0
 35 45  1  0  0  0
 35 68  1  0  0  0
 36 56  1  0  0  0
 36107  1  0  0  0
 37 39  1  0  0  0
 37 47  1  0  0  0
 37 66  1  0  0  0
 37108  1  0  0  0
 38 43  2  0  0  0
 38 46  1  0  0  0
 38 47  1  0  0  0
 39 64  1  0  0  0
 39 67  2  0  0  0
 40 52  1  0  0  0
 40 53  2  0  0  0
 40 58  1  0  0  0
 41109  1  0  0  0
 41110  1  0  0  0
 41111  1  0  0  0
 41 48  1  0  0  0
 42 43  1  0  0  0
 42 66  1  0  0  0
 42112  1  0  0  0
 42113  1  0  0  0
 43 44  1  0  0  0
 44114  1  0  0  0
 45 46  2  0  0  0
 45115  1  0  0  0
 46116  1  0  0  0
 47117  1  0  0  0
 47118  1  0  0  0
 48 56  1  0  0  0
 48 65  1  0  0  0
 48119  1  0  0  0
 49 50  1  0  0  0
 49 53  1  0  0  0
 49 64  1  0  0  0
 49120  1  0  0  0
 50 51  1  0  0  0
 50121  1  0  0  0
 50122  1  0  0  0
 51 52  1  0  0  0
 51123  1  0  0  0
 51124  1  0  0  0
 52125  1  0  0  0
 52126  1  0  0  0
 53 54  1  0  0  0
 54 55  2  0  0  0
 54127  1  0  0  0
 55 57  1  0  0  0
 55128  1  0  0  0
 56 69  2  0  0  0
 57 58  2  0  0  0
 57129  1  0  0  0
 58130  1  0  0  0
 59 60  1  0  0  0
 59 61  1  0  0  0
 59 62  1  0  0  0
 60131  1  0  0  0
 60132  1  0  0  0
 60133  1  0  0  0
 61134  1  0  0  0
 61135  1  0  0  0
 61136  1  0  0  0
 62137  1  0  0  0
 62138  1  0  0  0
 62139  1  0  0  0
 63 65  1  0  0  0
 63140  1  0  0  0
 63141  1  0  0  0
 63142  1  0  0  0
 64143  1  0  0  0
 65144  1  0  0  0
 68 82  1  0  0  0
 71 72  2  0  0  0
 71 83  1  0  0  0
 71145  1  0  0  0
 72 73  1  0  0  0
 72 77  1  0  0  0
 73 78  1  0  0  0
 73 84  2  0  0  0
 74 79  1  0  0  0
 74 83  2  0  0  0
 74 84  1  0  0  0
 75 78  1  0  0  0
 75146  1  0  0  0
 75147  1  0  0  0
 75148  1  0  0  0
 76 85  1  0  0  0
 76149  1  0  0  0
 76150  1  0  0  0
 76151  1  0  0  0
 77 80  1  0  0  0
 77152  1  0  0  0
 77153  1  0  0  0
 78154  1  0  0  0
 78155  1  0  0  0
 79 82  1  0  0  0
 79156  1  0  0  0
 79157  1  0  0  0
 80 81  1  0  0  0
 80158  1  0  0  0
 80159  1  0  0  0
 81 85  1  0  0  0
 81160  1  0  0  0
 81161  1  0  0  0
 82162  1  0  0  0
 82163  1  0  0  0
M  ISO  4   1 100  68 101  82 101  85 100
M  END
> <chiral flag>
0

> <version>
0

> <s_m_source_file>
/data/baiqing/PycharmProjects/Reinvent-master-3.2/result/LINK_invent/BTK/process_docking_weight1_custom_sum_contain_oxygen_bond_distance_aromatic_linkinvent_7_9_3/rearranged_h_0043.sdf

> <i_m_source_file_index>
71

> <r_mmod_Potential_Energy-OPLS-2005>
-271.554718017578

> <r_mmod_Stretch_Energy-OPLS-2005>
36.7473907470703

> <r_mmod_Bend_Energy-OPLS-2005>
108.422805786133

> <r_mmod_Torsional_Energy-OPLS-2005>
277.677581787109

> <r_mmod_Improper_Torsional_Energy-OPLS-2005>
12.4253196716309

> <r_mmod_Van_der_Waal_Energy-OPLS-2005>
165.904800415039

> <r_mmod_Electrostatic_Energy-OPLS-2005>
-673.461181640625

> <r_mmod_Solvation_Energy-OPLS-2005>
-212.626998901367

> <b_mmod_Minimization_Converged-OPLS-2005>
0

> <r_mmod_RMS_Derivative-OPLS-2005>
2.72835779190063

$$$$
71
                    3D
 Structure written by MMmdl.
159167  0  0  1  0            999 V2000
  -30.7342  -14.3838   20.6314 C   0  0  0  0  0  0
  -30.4065  -12.2542   19.4276 C   0  0  0  0  0  0
  -29.4871  -12.4734   18.2092 C   0  0  0  0  0  0
  -28.0056  -12.3540   18.6216 C   0  0  0  0  0  0
  -27.6604  -13.1988   19.8778 C   0  0  2  0  0  0
  -28.6939  -12.9493   20.9993 C   0  0  0  0  0  0
  -25.2549  -13.8161   20.5688 C   0  0  0  0  0  0
  -24.1781  -13.0463   20.9142 C   0  0  0  0  0  0
  -24.6297  -11.6901   20.8710 C   0  0  0  0  0  0
  -23.8976  -10.4278   21.0384 C   0  0  0  0  0  0
  -24.3529   -9.4208   21.9180 C   0  0  0  0  0  0
  -23.6225   -8.2239   22.0760 C   0  0  0  0  0  0
  -22.4231   -8.0231   21.3548 C   0  0  0  0  0  0
  -21.9823   -9.0204   20.4680 C   0  0  0  0  0  0
  -22.7123  -10.2096   20.3076 C   0  0  0  0  0  0
  -21.6836   -6.0670   22.5276 C   0  0  0  0  0  0
  -21.4004   -6.5603   23.8190 C   0  0  0  0  0  0
  -21.3680   -5.6782   24.9173 C   0  0  0  0  0  0
  -21.6042   -4.3032   24.7238 C   0  0  0  0  0  0
  -21.8806   -3.8102   23.4376 C   0  0  0  0  0  0
  -21.9171   -4.6897   22.3416 C   0  0  0  0  0  0
  -22.7799  -13.5273   21.1794 C   0  0  0  0  0  0
  -22.1636   -4.2062   21.0997 F   0  0  0  0  0  0
  -21.5642   -3.4541   25.7766 F   0  0  0  0  0  0
  -30.0386  -13.2299   20.4625 N   0  0  0  0  0  0
  -26.2984  -12.9321   20.3373 N   0  0  0  0  0  0
  -25.9238  -11.6489   20.5770 N   0  0  0  0  0  0
  -22.0433  -12.8354   22.0396 N   0  0  0  0  0  0
  -25.4414  -15.1872   20.4125 N   0  0  0  0  0  0
  -31.7952  -14.6259   20.0471 O   0  0  0  0  0  0
  -21.6635   -6.8803   21.4233 O   0  0  0  0  0  0
  -22.3520  -14.5575   20.6588 O   0  0  0  0  0  0
  -24.6134  -31.8719   23.2191 C   0  0  0  0  0  0
  -25.9063  -32.4845   23.8439 C   0  0  1  0  0  0
  -27.2224  -27.4526   20.0909 C   0  0  0  0  0  0
  -25.5980  -33.8641   24.2423 N   0  0  0  0  0  0
  -23.3949  -30.4989   21.5619 C   0  0  2  0  0  0
  -24.8355  -28.9803   20.1117 C   0  0  0  0  0  0
  -22.7398  -29.4672   22.5078 C   0  0  0  0  0  0
  -18.0258  -28.1390   22.8487 C   0  0  0  0  0  0
  -24.1498  -36.7271   23.2619 C   0  0  0  0  0  0
  -25.9219  -30.8440   21.3676 C   0  0  0  0  0  0
  -25.9976  -29.4826   20.7113 C   0  0  0  0  0  0
  -27.1902  -28.7251   20.7029 C   0  0  0  0  0  0
  -26.0384  -26.9714   19.4747 C   0  0  0  0  0  0
  -24.8528  -27.7237   19.4885 C   0  0  0  0  0  0
  -23.5935  -29.8396   20.1705 C   0  0  0  0  0  0
  -25.4117  -36.3103   24.0337 C   0  0  1  0  0  0
  -20.5839  -28.3652   23.1340 C   0  0  2  0  0  0
  -20.6789  -26.9411   22.5401 C   0  0  0  0  0  0
  -19.5762  -26.6428   21.5195 C   0  0  0  0  0  0
  -18.1933  -26.7954   22.1605 C   0  0  0  0  0  0
  -19.1494  -28.8852   23.2916 C   0  0  0  0  0  0
  -18.9431  -30.1476   23.8902 C   0  0  0  0  0  0
  -17.6425  -30.6593   24.0548 C   0  0  0  0  0  0
  -25.9033  -34.9468   23.5162 C   0  0  0  0  0  0
  -16.5335  -29.9060   23.6343 C   0  0  0  0  0  0
  -16.7249  -28.6487   23.0339 C   0  0  0  0  0  0
  -26.4529  -31.6573   25.0723 C   0  0  0  0  0  0
  -25.3830  -31.3590   26.1485 C   0  0  0  0  0  0
  -27.0348  -30.3054   24.6021 C   0  0  0  0  0  0
  -27.6164  -32.4239   25.7438 C   0  0  0  0  0  0
  -27.5585  -37.1795   24.8478 C   0  0  0  0  0  0
  -21.4132  -29.2999   22.3763 N   0  0  0  0  0  0
  -26.4320  -37.3782   23.9393 N   0  0  0  0  0  0
  -24.6611  -31.0821   22.1093 N   0  0  0  0  0  0
  -23.4207  -28.8245   23.3107 O   0  0  0  0  0  0
  -28.4014  -26.7288   20.1152 O   0  0  0  0  0  0
  -26.5516  -34.8918   22.4683 O   0  0  0  0  0  0
  -23.5345  -32.1484   23.7615 O   0  0  0  0  0  0
  -30.9382  -21.8942   20.8898 C   0  0  0  0  0  0
  -30.1006  -22.0418   19.7536 C   0  0  0  0  0  0
  -30.9864  -20.5454   21.1185 C   0  0  0  0  0  0
  -31.7531  -19.8168   22.1729 C   0  0  0  0  0  0
  -29.6905  -23.3077   19.0348 C   0  0  0  0  0  0
  -29.5922  -24.5541   19.9485 C   0  0  0  0  0  0
  -29.4884  -17.6719   21.1272 C   0  0  0  0  0  0
  -29.9072  -18.5109   19.8913 C   0  0  0  0  0  0
  -30.5714  -16.6738   21.6205 C   0  0  0  0  0  0
  -28.3629  -25.4026   19.5867 C   0  0  0  0  0  0
  -29.6598  -20.8623   19.3246 N   0  0  0  0  0  0
  -30.1817  -19.9321   20.1650 N   0  0  0  0  0  0
  -30.1578  -15.2813   21.4435 N   0  0  0  0  0  0
  -31.4585  -12.3176   19.1444 H   0  0  0  0  0  0
  -30.2717  -11.2466   19.8247 H   0  0  0  0  0  0
  -29.7104  -11.7308   17.4418 H   0  0  0  0  0  0
  -29.6770  -13.4497   17.7606 H   0  0  0  0  0  0
  -27.8124  -11.3027   18.8365 H   0  0  0  0  0  0
  -27.3524  -12.6134   17.7868 H   0  0  0  0  0  0
  -27.7133  -14.2480   19.5873 H   0  0  0  0  0  0
  -28.6457  -11.9105   21.3258 H   0  0  0  0  0  0
  -28.4471  -13.5282   21.8882 H   0  0  0  0  0  0
  -25.2659   -9.5684   22.4759 H   0  0  0  0  0  0
  -23.9903   -7.4651   22.7515 H   0  0  0  0  0  0
  -21.0719   -8.8722   19.9039 H   0  0  0  0  0  0
  -22.3539  -10.9622   19.6192 H   0  0  0  0  0  0
  -21.2015   -7.6110   23.9656 H   0  0  0  0  0  0
  -21.1528   -6.0540   25.9068 H   0  0  0  0  0  0
  -22.0568   -2.7561   23.2926 H   0  0  0  0  0  0
  -22.3989  -12.0040   22.4879 H   0  0  0  0  0  0
  -21.1077  -13.1476   22.2590 H   0  0  0  0  0  0
  -24.7084  -15.8716   20.5597 H   0  0  0  0  0  0
  -26.3217  -15.6065   20.1390 H   0  0  0  0  0  0
  -26.7132  -32.5596   23.1175 H   0  0  0  0  0  0
  -25.0344  -33.9839   25.0707 H   0  0  0  0  0  0
  -22.6835  -31.3149   21.4348 H   0  0  0  0  0  0
  -23.3791  -35.9578   23.3313 H   0  0  0  0  0  0
  -24.3594  -36.8839   22.2027 H   0  0  0  0  0  0
  -23.7246  -37.6490   23.6597 H   0  0  0  0  0  0
  -26.0354  -31.6152   20.6037 H   0  0  0  0  0  0
  -26.8108  -30.8943   21.9835 H   0  0  0  0  0  0
  -28.0876  -29.1114   21.1682 H   0  0  0  0  0  0
  -26.0019  -26.0217   18.9636 H   0  0  0  0  0  0
  -23.9632  -27.3341   19.0132 H   0  0  0  0  0  0
  -23.6940  -30.6195   19.4149 H   0  0  0  0  0  0
  -22.7189  -29.2516   19.8818 H   0  0  0  0  0  0
  -25.1303  -36.1972   25.0839 H   0  0  0  0  0  0
  -20.9901  -28.3211   24.1463 H   0  0  0  0  0  0
  -20.5745  -26.2248   23.3559 H   0  0  0  0  0  0
  -21.6665  -26.7528   22.1146 H   0  0  0  0  0  0
  -19.6925  -25.6340   21.1207 H   0  0  0  0  0  0
  -19.6715  -27.3245   20.6719 H   0  0  0  0  0  0
  -17.4218  -26.6688   21.3991 H   0  0  0  0  0  0
  -18.0330  -26.0093   22.8994 H   0  0  0  0  0  0
  -19.7904  -30.7295   24.2277 H   0  0  0  0  0  0
  -17.4963  -31.6254   24.5167 H   0  0  0  0  0  0
  -15.5322  -30.2930   23.7707 H   0  0  0  0  0  0
  -15.8651  -28.0798   22.7045 H   0  0  0  0  0  0
  -24.6038  -30.6924   25.7778 H   0  0  0  0  0  0
  -24.8973  -32.2701   26.5009 H   0  0  0  0  0  0
  -25.8225  -30.8702   27.0195 H   0  0  0  0  0  0
  -26.2834  -29.6777   24.1248 H   0  0  0  0  0  0
  -27.4355  -29.7328   25.4385 H   0  0  0  0  0  0
  -27.8560  -30.4417   23.8979 H   0  0  0  0  0  0
  -27.2896  -33.3559   26.2057 H   0  0  0  0  0  0
  -28.3934  -32.6769   25.0199 H   0  0  0  0  0  0
  -28.0890  -31.8334   26.5296 H   0  0  0  0  0  0
  -28.2642  -38.0055   24.7521 H   0  0  0  0  0  0
  -28.1064  -36.2606   24.6350 H   0  0  0  0  0  0
  -27.2296  -37.1471   25.8882 H   0  0  0  0  0  0
  -20.9330  -29.8676   21.6922 H   0  0  0  0  0  0
  -26.0219  -38.2873   24.1411 H   0  0  0  0  0  0
  -31.4379  -22.6724   21.4546 H   0  0  0  0  0  0
  -32.3439  -19.0099   21.7374 H   0  0  0  0  0  0
  -31.0912  -19.4169   22.9406 H   0  0  0  0  0  0
  -32.4398  -20.4987   22.6733 H   0  0  0  0  0  0
  -28.7250  -23.1469   18.5488 H   0  0  0  0  0  0
  -30.3812  -23.5199   18.2131 H   0  0  0  0  0  0
  -30.5168  -25.1303   19.8914 H   0  0  0  0  0  0
  -29.4887  -24.2462   20.9887 H   0  0  0  0  0  0
  -28.5801  -17.1152   20.8860 H   0  0  0  0  0  0
  -29.1890  -18.3394   21.9362 H   0  0  0  0  0  0
  -29.1014  -18.4575   19.1539 H   0  0  0  0  0  0
  -30.7770  -18.0758   19.3952 H   0  0  0  0  0  0
  -31.5229  -16.8617   21.1210 H   0  0  0  0  0  0
  -30.7691  -16.8214   22.6829 H   0  0  0  0  0  0
  -27.4932  -24.8594   19.9636 H   0  0  0  0  0  0
  -28.2703  -25.4822   18.5026 H   0  0  0  0  0  0
  -29.3321  -14.9778   21.9405 H   0  0  0  0  0  0
  1 25  1  0  0  0
  1 30  2  0  0  0
  1 83  1  0  0  0
  2  3  1  0  0  0
  2 25  1  0  0  0
  2 84  1  0  0  0
  2 85  1  0  0  0
  3  4  1  0  0  0
  3 86  1  0  0  0
  3 87  1  0  0  0
  4  5  1  0  0  0
  4 88  1  0  0  0
  4 89  1  0  0  0
  5  6  1  0  0  0
  5 26  1  0  0  0
  5 90  1  0  0  0
  6 25  1  0  0  0
  6 91  1  0  0  0
  6 92  1  0  0  0
  7  8  2  0  0  0
  7 26  1  0  0  0
  7 29  1  0  0  0
  8  9  1  0  0  0
  8 22  1  0  0  0
  9 10  1  0  0  0
  9 27  2  0  0  0
 10 11  2  0  0  0
 10 15  1  0  0  0
 11 12  1  0  0  0
 11 93  1  0  0  0
 12 13  2  0  0  0
 12 94  1  0  0  0
 13 14  1  0  0  0
 13 31  1  0  0  0
 14 15  2  0  0  0
 14 95  1  0  0  0
 15 96  1  0  0  0
 16 17  2  0  0  0
 16 21  1  0  0  0
 16 31  1  0  0  0
 17 18  1  0  0  0
 17 97  1  0  0  0
 18 19  2  0  0  0
 18 98  1  0  0  0
 19 20  1  0  0  0
 19 24  1  0  0  0
 20 21  2  0  0  0
 20 99  1  0  0  0
 21 23  1  0  0  0
 22 28  1  0  0  0
 22 32  2  0  0  0
 26 27  1  0  0  0
 28100  1  0  0  0
 28101  1  0  0  0
 29102  1  0  0  0
 29103  1  0  0  0
 33 34  1  0  0  0
 33 66  1  0  0  0
 33 70  2  0  0  0
 34 36  1  0  0  0
 34 59  1  0  0  0
 34104  1  0  0  0
 35 44  2  0  0  0
 35 45  1  0  0  0
 35 68  1  0  0  0
 36 56  1  0  0  0
 36105  1  0  0  0
 37 39  1  0  0  0
 37 47  1  0  0  0
 37 66  1  0  0  0
 37106  1  0  0  0
 38 43  2  0  0  0
 38 46  1  0  0  0
 38 47  1  0  0  0
 39 64  1  0  0  0
 39 67  2  0  0  0
 40 52  1  0  0  0
 40 53  2  0  0  0
 40 58  1  0  0  0
 41107  1  0  0  0
 41108  1  0  0  0
 41109  1  0  0  0
 41 48  1  0  0  0
 42 43  1  0  0  0
 42 66  1  0  0  0
 42110  1  0  0  0
 42111  1  0  0  0
 43 44  1  0  0  0
 44112  1  0  0  0
 45 46  2  0  0  0
 45113  1  0  0  0
 46114  1  0  0  0
 47115  1  0  0  0
 47116  1  0  0  0
 48 56  1  0  0  0
 48 65  1  0  0  0
 48117  1  0  0  0
 49 50  1  0  0  0
 49 53  1  0  0  0
 49 64  1  0  0  0
 49118  1  0  0  0
 50 51  1  0  0  0
 50119  1  0  0  0
 50120  1  0  0  0
 51 52  1  0  0  0
 51121  1  0  0  0
 51122  1  0  0  0
 52123  1  0  0  0
 52124  1  0  0  0
 53 54  1  0  0  0
 54 55  2  0  0  0
 54125  1  0  0  0
 55 57  1  0  0  0
 55126  1  0  0  0
 56 69  2  0  0  0
 57 58  2  0  0  0
 57127  1  0  0  0
 58128  1  0  0  0
 59 60  1  0  0  0
 59 61  1  0  0  0
 59 62  1  0  0  0
 60129  1  0  0  0
 60130  1  0  0  0
 60131  1  0  0  0
 61132  1  0  0  0
 61133  1  0  0  0
 61134  1  0  0  0
 62135  1  0  0  0
 62136  1  0  0  0
 62137  1  0  0  0
 63 65  1  0  0  0
 63138  1  0  0  0
 63139  1  0  0  0
 63140  1  0  0  0
 64141  1  0  0  0
 65142  1  0  0  0
 68 80  1  0  0  0
 71 72  1  0  0  0
 71 73  2  0  0  0
 71143  1  0  0  0
 72 75  1  0  0  0
 72 81  2  0  0  0
 73 74  1  0  0  0
 73 82  1  0  0  0
 74144  1  0  0  0
 74145  1  0  0  0
 74146  1  0  0  0
 75 76  1  0  0  0
 75147  1  0  0  0
 75148  1  0  0  0
 76 80  1  0  0  0
 76149  1  0  0  0
 76150  1  0  0  0
 77 78  1  0  0  0
 77 79  1  0  0  0
 77151  1  0  0  0
 77152  1  0  0  0
 78 82  1  0  0  0
 78153  1  0  0  0
 78154  1  0  0  0
 79 83  1  0  0  0
 79155  1  0  0  0
 79156  1  0  0  0
 80157  1  0  0  0
 80158  1  0  0  0
 81 82  1  0  0  0
 83159  1  0  0  0
M  ISO  4   1 100  68 101  80 101  83 100
M  END
> <chiral flag>
0

> <version>
0

> <s_m_source_file>
/data/baiqing/PycharmProjects/Reinvent-master-3.2/result/LINK_invent/BTK/process_docking_weight1_custom_sum_contain_oxygen_bond_distance_aromatic_linkinvent_7_9_3/rearranged_h_0043.sdf

> <i_m_source_file_index>
72

> <r_mmod_Potential_Energy-OPLS-2005>
-133.60612487793

> <r_mmod_Stretch_Energy-OPLS-2005>
34.0272827148438

> <r_mmod_Bend_Energy-OPLS-2005>
95.2526931762695

> <r_mmod_Torsional_Energy-OPLS-2005>
232.875122070312

> <r_mmod_Improper_Torsional_Energy-OPLS-2005>
2.0961127281189

> <r_mmod_Van_der_Waal_Energy-OPLS-2005>
142.205505371094

> <r_mmod_Electrostatic_Energy-OPLS-2005>
-426.046569824219

> <r_mmod_Solvation_Energy-OPLS-2005>
-223.750289916992

> <b_mmod_Minimization_Converged-OPLS-2005>
0

> <r_mmod_RMS_Derivative-OPLS-2005>
5.38751935958862

$$$$
72
                    3D
 Structure written by MMmdl.
162170  0  0  1  0            999 V2000
  -30.7281  -14.3708   20.6878 C   0  0  0  0  0  0
  -30.4236  -12.2812   19.4112 C   0  0  0  0  0  0
  -29.4969  -12.5340   18.2077 C   0  0  0  0  0  0
  -28.0175  -12.3899   18.6110 C   0  0  0  0  0  0
  -27.6700  -13.2020   19.8864 C   0  0  2  0  0  0
  -28.6995  -12.9166   21.0019 C   0  0  0  0  0  0
  -25.2609  -13.8161   20.5651 C   0  0  0  0  0  0
  -24.1851  -13.0440   20.9154 C   0  0  0  0  0  0
  -24.6389  -11.6904   20.8716 C   0  0  0  0  0  0
  -23.9051  -10.4284   21.0402 C   0  0  0  0  0  0
  -24.3603   -9.4213   21.9189 C   0  0  0  0  0  0
  -23.6286   -8.2244   22.0767 C   0  0  0  0  0  0
  -22.4274   -8.0253   21.3545 C   0  0  0  0  0  0
  -21.9897   -9.0239   20.4664 C   0  0  0  0  0  0
  -22.7209  -10.2129   20.3075 C   0  0  0  0  0  0
  -21.6857   -6.0697   22.5284 C   0  0  0  0  0  0
  -21.4007   -6.5614   23.8209 C   0  0  0  0  0  0
  -21.3664   -5.6784   24.9182 C   0  0  0  0  0  0
  -21.6057   -4.3044   24.7238 C   0  0  0  0  0  0
  -21.8822   -3.8111   23.4358 C   0  0  0  0  0  0
  -21.9189   -4.6924   22.3403 C   0  0  0  0  0  0
  -22.7874  -13.5228   21.1809 C   0  0  0  0  0  0
  -22.1640   -4.2102   21.0974 F   0  0  0  0  0  0
  -21.5680   -3.4531   25.7754 F   0  0  0  0  0  0
  -30.0501  -13.2144   20.4843 N   0  0  0  0  0  0
  -26.3057  -12.9322   20.3370 N   0  0  0  0  0  0
  -25.9312  -11.6489   20.5756 N   0  0  0  0  0  0
  -22.0530  -12.8245   22.0401 N   0  0  0  0  0  0
  -25.4333  -15.1872   20.4024 N   0  0  0  0  0  0
  -31.7491  -14.6859   20.0658 O   0  0  0  0  0  0
  -21.6638   -6.8840   21.4250 O   0  0  0  0  0  0
  -22.3537  -14.5510   20.6641 O   0  0  0  0  0  0
  -24.6146  -31.8734   23.2057 C   0  0  0  0  0  0
  -25.9052  -32.4843   23.8364 C   0  0  1  0  0  0
  -27.2355  -27.4540   20.0921 C   0  0  0  0  0  0
  -25.5908  -33.8638   24.2319 N   0  0  0  0  0  0
  -23.3993  -30.4928   21.5517 C   0  0  2  0  0  0
  -24.8426  -28.9582   20.1173 C   0  0  0  0  0  0
  -22.7402  -29.4693   22.5035 C   0  0  0  0  0  0
  -18.0277  -28.1373   22.8509 C   0  0  0  0  0  0
  -24.1481  -36.7322   23.2633 C   0  0  0  0  0  0
  -25.9212  -30.8466   21.3470 C   0  0  0  0  0  0
  -26.0005  -29.4771   20.7088 C   0  0  0  0  0  0
  -27.1978  -28.7319   20.6921 C   0  0  0  0  0  0
  -26.0555  -26.9429   19.5027 C   0  0  0  0  0  0
  -24.8641  -27.6899   19.5134 C   0  0  0  0  0  0
  -23.6041  -29.8197   20.1670 C   0  0  0  0  0  0
  -25.4106  -36.3139   24.0341 C   0  0  1  0  0  0
  -20.5856  -28.3700   23.1341 C   0  0  2  0  0  0
  -20.6788  -26.9431   22.5461 C   0  0  0  0  0  0
  -19.5777  -26.6391   21.5252 C   0  0  0  0  0  0
  -18.1940  -26.7906   22.1649 C   0  0  0  0  0  0
  -19.1515  -28.8839   23.2928 C   0  0  0  0  0  0
  -18.9439  -30.1431   23.8963 C   0  0  0  0  0  0
  -17.6452  -30.6585   24.0573 C   0  0  0  0  0  0
  -25.9045  -34.9507   23.5137 C   0  0  0  0  0  0
  -16.5347  -29.9107   23.6289 C   0  0  0  0  0  0
  -16.7264  -28.6509   23.0333 C   0  0  0  0  0  0
  -26.4466  -31.6588   25.0665 C   0  0  0  0  0  0
  -25.3696  -31.3727   26.1385 C   0  0  0  0  0  0
  -27.0270  -30.3030   24.5985 C   0  0  0  0  0  0
  -27.6059  -32.4266   25.7447 C   0  0  0  0  0  0
  -27.5587  -37.1826   24.8471 C   0  0  0  0  0  0
  -21.4127  -29.3081   22.3761 N   0  0  0  0  0  0
  -26.4301  -37.3819   23.9415 N   0  0  0  0  0  0
  -24.6646  -31.0861   22.0938 N   0  0  0  0  0  0
  -23.4193  -28.8211   23.3041 O   0  0  0  0  0  0
  -28.4328  -26.7717   20.0777 O   0  0  0  0  0  0
  -26.5615  -34.8970   22.4706 O   0  0  0  0  0  0
  -23.5347  -32.1481   23.7467 O   0  0  0  0  0  0
  -26.4033  -19.1461   21.7279 C   0  0  0  0  0  0
  -27.5805  -20.7672   22.6195 C   0  0  0  0  0  0
  -27.7398  -19.5515   22.0095 C   0  0  0  0  0  0
  -29.0292  -18.8386   21.6801 C   0  0  0  0  0  0
  -29.0185  -17.3385   22.0271 C   0  0  0  0  0  0
  -26.7778  -23.9090   21.5047 C   0  0  0  0  0  0
  -26.3764  -23.5529   22.9515 C   0  0  0  0  0  0
  -28.0304  -24.8011   21.4743 C   0  0  0  0  0  0
  -25.5545  -22.2552   23.1163 C   0  0  0  0  0  0
  -30.3356  -16.6400   21.6279 C   0  0  0  0  0  0
  -28.4162  -25.3426   20.0806 C   0  0  0  0  0  0
  -25.5055  -20.0537   22.0908 N   0  0  0  0  0  0
  -26.2320  -21.0688   22.6088 N   0  0  0  0  0  0
  -30.1645  -15.1908   21.5842 N   0  0  0  0  0  0
  -31.4690  -12.3890   19.1150 H   0  0  0  0  0  0
  -30.3210  -11.2532   19.7658 H   0  0  0  0  0  0
  -29.7343  -11.8469   17.3941 H   0  0  0  0  0  0
  -29.6700  -13.5403   17.8218 H   0  0  0  0  0  0
  -27.8164  -11.3318   18.7783 H   0  0  0  0  0  0
  -27.3778  -12.6978   17.7844 H   0  0  0  0  0  0
  -27.7367  -14.2596   19.6319 H   0  0  0  0  0  0
  -28.6586  -11.8664   21.2895 H   0  0  0  0  0  0
  -28.4364  -13.4621   21.9073 H   0  0  0  0  0  0
  -25.2768   -9.5707   22.4741 H   0  0  0  0  0  0
  -24.0001   -7.4656   22.7504 H   0  0  0  0  0  0
  -21.0809   -8.8754   19.8984 H   0  0  0  0  0  0
  -22.3655  -10.9658   19.6178 H   0  0  0  0  0  0
  -21.1987   -7.6126   23.9679 H   0  0  0  0  0  0
  -21.1496   -6.0534   25.9081 H   0  0  0  0  0  0
  -22.0592   -2.7568   23.2894 H   0  0  0  0  0  0
  -22.4129  -11.9887   22.4779 H   0  0  0  0  0  0
  -21.1170  -13.1329   22.2606 H   0  0  0  0  0  0
  -24.6710  -15.8477   20.4960 H   0  0  0  0  0  0
  -26.2854  -15.6110   20.0576 H   0  0  0  0  0  0
  -26.7128  -32.5576   23.1153 H   0  0  0  0  0  0
  -25.0020  -33.9786   25.0435 H   0  0  0  0  0  0
  -22.6862  -31.3065   21.4122 H   0  0  0  0  0  0
  -23.3742  -35.9654   23.3327 H   0  0  0  0  0  0
  -24.3538  -36.8913   22.2033 H   0  0  0  0  0  0
  -23.7243  -37.6546   23.6610 H   0  0  0  0  0  0
  -26.0020  -31.6001   20.5622 H   0  0  0  0  0  0
  -26.8194  -30.9234   21.9471 H   0  0  0  0  0  0
  -28.0955  -29.1330   21.1429 H   0  0  0  0  0  0
  -26.0305  -25.9782   19.0189 H   0  0  0  0  0  0
  -23.9731  -27.2838   19.0558 H   0  0  0  0  0  0
  -23.7068  -30.5883   19.4014 H   0  0  0  0  0  0
  -22.7295  -29.2341   19.8771 H   0  0  0  0  0  0
  -25.1278  -36.2011   25.0831 H   0  0  0  0  0  0
  -20.9911  -28.3302   24.1471 H   0  0  0  0  0  0
  -20.5655  -26.2358   23.3682 H   0  0  0  0  0  0
  -21.6677  -26.7471   22.1285 H   0  0  0  0  0  0
  -19.6967  -25.6319   21.1276 H   0  0  0  0  0  0
  -19.6716  -27.3204   20.6782 H   0  0  0  0  0  0
  -17.4214  -26.6636   21.4063 H   0  0  0  0  0  0
  -18.0367  -26.0048   22.9069 H   0  0  0  0  0  0
  -19.7901  -30.7244   24.2380 H   0  0  0  0  0  0
  -17.5036  -31.6291   24.5137 H   0  0  0  0  0  0
  -15.5355  -30.3040   23.7565 H   0  0  0  0  0  0
  -15.8669  -28.0822   22.7040 H   0  0  0  0  0  0
  -24.5901  -30.7043   25.7706 H   0  0  0  0  0  0
  -24.8820  -32.2892   26.4710 H   0  0  0  0  0  0
  -25.7982  -30.8975   27.0216 H   0  0  0  0  0  0
  -26.2804  -29.6836   24.0985 H   0  0  0  0  0  0
  -27.4027  -29.7204   25.4412 H   0  0  0  0  0  0
  -27.8635  -30.4362   23.9112 H   0  0  0  0  0  0
  -27.2707  -33.3584   26.2015 H   0  0  0  0  0  0
  -28.3872  -32.6795   25.0265 H   0  0  0  0  0  0
  -28.0701  -31.8370   26.5369 H   0  0  0  0  0  0
  -28.2637  -38.0097   24.7500 H   0  0  0  0  0  0
  -28.1061  -36.2638   24.6309 H   0  0  0  0  0  0
  -27.2301  -37.1497   25.8876 H   0  0  0  0  0  0
  -20.9299  -29.8882   21.7037 H   0  0  0  0  0  0
  -26.0208  -38.2916   24.1374 H   0  0  0  0  0  0
  -26.0608  -18.2327   21.2607 H   0  0  0  0  0  0
  -28.3113  -21.4540   23.0221 H   0  0  0  0  0  0
  -29.8760  -19.3151   22.1763 H   0  0  0  0  0  0
  -29.2293  -18.9362   20.6132 H   0  0  0  0  0  0
  -28.1887  -16.8603   21.5030 H   0  0  0  0  0  0
  -28.8285  -17.2024   23.0932 H   0  0  0  0  0  0
  -25.9396  -24.4087   21.0171 H   0  0  0  0  0  0
  -26.9830  -23.0105   20.9196 H   0  0  0  0  0  0
  -25.8184  -24.3859   23.3824 H   0  0  0  0  0  0
  -27.2721  -23.4665   23.5642 H   0  0  0  0  0  0
  -28.8690  -24.2215   21.8614 H   0  0  0  0  0  0
  -27.9056  -25.6306   22.1716 H   0  0  0  0  0  0
  -24.5914  -22.3616   22.6136 H   0  0  0  0  0  0
  -25.3381  -22.0956   24.1735 H   0  0  0  0  0  0
  -30.6303  -16.9845   20.6350 H   0  0  0  0  0  0
  -31.1495  -16.9076   22.3044 H   0  0  0  0  0  0
  -27.8133  -24.9120   19.2816 H   0  0  0  0  0  0
  -29.4311  -25.0173   19.8503 H   0  0  0  0  0  0
  -29.3990  -14.8011   22.1164 H   0  0  0  0  0  0
  1 25  1  0  0  0
  1 30  2  0  0  0
  1 84  1  0  0  0
  2  3  1  0  0  0
  2 25  1  0  0  0
  2 85  1  0  0  0
  2 86  1  0  0  0
  3  4  1  0  0  0
  3 87  1  0  0  0
  3 88  1  0  0  0
  4  5  1  0  0  0
  4 89  1  0  0  0
  4 90  1  0  0  0
  5  6  1  0  0  0
  5 26  1  0  0  0
  5 91  1  0  0  0
  6 25  1  0  0  0
  6 92  1  0  0  0
  6 93  1  0  0  0
  7  8  2  0  0  0
  7 26  1  0  0  0
  7 29  1  0  0  0
  8  9  1  0  0  0
  8 22  1  0  0  0
  9 10  1  0  0  0
  9 27  2  0  0  0
 10 11  2  0  0  0
 10 15  1  0  0  0
 11 12  1  0  0  0
 11 94  1  0  0  0
 12 13  2  0  0  0
 12 95  1  0  0  0
 13 14  1  0  0  0
 13 31  1  0  0  0
 14 15  2  0  0  0
 14 96  1  0  0  0
 15 97  1  0  0  0
 16 17  2  0  0  0
 16 21  1  0  0  0
 16 31  1  0  0  0
 17 18  1  0  0  0
 17 98  1  0  0  0
 18 19  2  0  0  0
 18 99  1  0  0  0
 19 20  1  0  0  0
 19 24  1  0  0  0
 20 21  2  0  0  0
 20100  1  0  0  0
 21 23  1  0  0  0
 22 28  1  0  0  0
 22 32  2  0  0  0
 26 27  1  0  0  0
 28101  1  0  0  0
 28102  1  0  0  0
 29103  1  0  0  0
 29104  1  0  0  0
 33 34  1  0  0  0
 33 66  1  0  0  0
 33 70  2  0  0  0
 34 36  1  0  0  0
 34 59  1  0  0  0
 34105  1  0  0  0
 35 44  2  0  0  0
 35 45  1  0  0  0
 35 68  1  0  0  0
 36 56  1  0  0  0
 36106  1  0  0  0
 37 39  1  0  0  0
 37 47  1  0  0  0
 37 66  1  0  0  0
 37107  1  0  0  0
 38 43  2  0  0  0
 38 46  1  0  0  0
 38 47  1  0  0  0
 39 64  1  0  0  0
 39 67  2  0  0  0
 40 52  1  0  0  0
 40 53  2  0  0  0
 40 58  1  0  0  0
 41108  1  0  0  0
 41109  1  0  0  0
 41110  1  0  0  0
 41 48  1  0  0  0
 42 43  1  0  0  0
 42 66  1  0  0  0
 42111  1  0  0  0
 42112  1  0  0  0
 43 44  1  0  0  0
 44113  1  0  0  0
 45 46  2  0  0  0
 45114  1  0  0  0
 46115  1  0  0  0
 47116  1  0  0  0
 47117  1  0  0  0
 48 56  1  0  0  0
 48 65  1  0  0  0
 48118  1  0  0  0
 49 50  1  0  0  0
 49 53  1  0  0  0
 49 64  1  0  0  0
 49119  1  0  0  0
 50 51  1  0  0  0
 50120  1  0  0  0
 50121  1  0  0  0
 51 52  1  0  0  0
 51122  1  0  0  0
 51123  1  0  0  0
 52124  1  0  0  0
 52125  1  0  0  0
 53 54  1  0  0  0
 54 55  2  0  0  0
 54126  1  0  0  0
 55 57  1  0  0  0
 55127  1  0  0  0
 56 69  2  0  0  0
 57 58  2  0  0  0
 57128  1  0  0  0
 58129  1  0  0  0
 59 60  1  0  0  0
 59 61  1  0  0  0
 59 62  1  0  0  0
 60130  1  0  0  0
 60131  1  0  0  0
 60132  1  0  0  0
 61133  1  0  0  0
 61134  1  0  0  0
 61135  1  0  0  0
 62136  1  0  0  0
 62137  1  0  0  0
 62138  1  0  0  0
 63 65  1  0  0  0
 63139  1  0  0  0
 63140  1  0  0  0
 63141  1  0  0  0
 64142  1  0  0  0
 65143  1  0  0  0
 68 81  1  0  0  0
 71 73  1  0  0  0
 71 82  2  0  0  0
 71144  1  0  0  0
 72 73  2  0  0  0
 72 83  1  0  0  0
 72145  1  0  0  0
 73 74  1  0  0  0
 74 75  1  0  0  0
 74146  1  0  0  0
 74147  1  0  0  0
 75 80  1  0  0  0
 75148  1  0  0  0
 75149  1  0  0  0
 76 77  1  0  0  0
 76 78  1  0  0  0
 76150  1  0  0  0
 76151  1  0  0  0
 77 79  1  0  0  0
 77152  1  0  0  0
 77153  1  0  0  0
 78 81  1  0  0  0
 78154  1  0  0  0
 78155  1  0  0  0
 79 83  1  0  0  0
 79156  1  0  0  0
 79157  1  0  0  0
 80 84  1  0  0  0
 80158  1  0  0  0
 80159  1  0  0  0
 81160  1  0  0  0
 81161  1  0  0  0
 82 83  1  0  0  0
 84162  1  0  0  0
M  ISO  4   1 100  68 101  81 101  84 100
M  END
> <chiral flag>
0

> <version>
0

> <s_m_source_file>
/data/baiqing/PycharmProjects/Reinvent-master-3.2/result/LINK_invent/BTK/process_docking_weight1_custom_sum_contain_oxygen_bond_distance_aromatic_linkinvent_7_9_3/rearranged_h_0043.sdf

> <i_m_source_file_index>
73

> <r_mmod_Potential_Energy-OPLS-2005>
-85.8647537231445

> <r_mmod_Stretch_Energy-OPLS-2005>
31.3192157745361

> <r_mmod_Bend_Energy-OPLS-2005>
93.5171356201172

> <r_mmod_Torsional_Energy-OPLS-2005>
224.306365966797

> <r_mmod_Improper_Torsional_Energy-OPLS-2005>
3.11562943458557

> <r_mmod_Van_der_Waal_Energy-OPLS-2005>
127.653602600098

> <r_mmod_Electrostatic_Energy-OPLS-2005>
-352.521453857422

> <r_mmod_Solvation_Energy-OPLS-2005>
-221.082290649414

> <b_mmod_Minimization_Converged-OPLS-2005>
0

> <r_mmod_RMS_Derivative-OPLS-2005>
3.78860473632812

$$$$
73
                    3D
 Structure written by MMmdl.
152160  0  0  1  0            999 V2000
  -30.5388  -14.9703   20.4153 C   0  0  0  0  0  0
  -30.4400  -12.6020   19.5027 C   0  0  0  0  0  0
  -29.5247  -12.5312   18.2585 C   0  0  0  0  0  0
  -28.0570  -12.3172   18.6743 C   0  0  0  0  0  0
  -27.6288  -13.2519   19.8364 C   0  0  2  0  0  0
  -28.6704  -13.2918   20.9744 C   0  0  0  0  0  0
  -25.2455  -13.8223   20.5712 C   0  0  0  0  0  0
  -24.1777  -13.0440   20.9228 C   0  0  0  0  0  0
  -24.6401  -11.6926   20.8748 C   0  0  0  0  0  0
  -23.9087  -10.4293   21.0406 C   0  0  0  0  0  0
  -24.3635   -9.4206   21.9181 C   0  0  0  0  0  0
  -23.6303   -8.2245   22.0753 C   0  0  0  0  0  0
  -22.4284   -8.0285   21.3546 C   0  0  0  0  0  0
  -21.9924   -9.0260   20.4648 C   0  0  0  0  0  0
  -22.7260  -10.2135   20.3055 C   0  0  0  0  0  0
  -21.6858   -6.0737   22.5278 C   0  0  0  0  0  0
  -21.4017   -6.5640   23.8210 C   0  0  0  0  0  0
  -21.3661   -5.6794   24.9174 C   0  0  0  0  0  0
  -21.6045   -4.3055   24.7225 C   0  0  0  0  0  0
  -21.8819   -3.8147   23.4345 C   0  0  0  0  0  0
  -21.9194   -4.6963   22.3402 C   0  0  0  0  0  0
  -22.7795  -13.5206   21.1881 C   0  0  0  0  0  0
  -22.1662   -4.2149   21.0978 F   0  0  0  0  0  0
  -21.5630   -3.4538   25.7737 F   0  0  0  0  0  0
  -29.9436  -13.7080   20.3731 N   0  0  0  0  0  0
  -26.2884  -12.9462   20.3235 N   0  0  0  0  0  0
  -25.9336  -11.6588   20.5732 N   0  0  0  0  0  0
  -22.0448  -12.8193   22.0439 N   0  0  0  0  0  0
  -25.4104  -15.1954   20.4128 N   0  0  0  0  0  0
  -31.7442  -15.0263   20.1504 O   0  0  0  0  0  0
  -21.6646   -6.8882   21.4242 O   0  0  0  0  0  0
  -22.3474  -14.5506   20.6719 O   0  0  0  0  0  0
  -24.6463  -31.8417   23.1867 C   0  0  0  0  0  0
  -25.9223  -32.4683   23.8264 C   0  0  1  0  0  0
  -27.2141  -27.1085   20.1525 C   0  0  0  0  0  0
  -25.5958  -33.8490   24.2176 N   0  0  0  0  0  0
  -23.4513  -30.4617   21.5324 C   0  0  2  0  0  0
  -24.9015  -28.8869   20.1086 C   0  0  0  0  0  0
  -22.7583  -29.4537   22.4841 C   0  0  0  0  0  0
  -18.0308  -28.1397   22.8476 C   0  0  0  0  0  0
  -24.1492  -36.7251   23.2642 C   0  0  0  0  0  0
  -26.0104  -30.7063   21.3914 C   0  0  0  0  0  0
  -26.0804  -29.3158   20.7313 C   0  0  0  0  0  0
  -27.2372  -28.4435   20.7363 C   0  0  0  0  0  0
  -26.0097  -26.7940   19.4826 C   0  0  0  0  0  0
  -24.8812  -27.6406   19.4676 C   0  0  0  0  0  0
  -23.6797  -29.7921   20.1518 C   0  0  0  0  0  0
  -25.4126  -36.3025   24.0312 C   0  0  1  0  0  0
  -20.5922  -28.3727   23.1224 C   0  0  2  0  0  0
  -20.6790  -26.9426   22.5401 C   0  0  0  0  0  0
  -19.5763  -26.6381   21.5210 C   0  0  0  0  0  0
  -18.1946  -26.7935   22.1623 C   0  0  0  0  0  0
  -19.1566  -28.8881   23.2842 C   0  0  0  0  0  0
  -18.9480  -30.1475   23.8871 C   0  0  0  0  0  0
  -17.6476  -30.6592   24.0559 C   0  0  0  0  0  0
  -25.9078  -34.9400   23.5053 C   0  0  0  0  0  0
  -16.5367  -29.9083   23.6337 C   0  0  0  0  0  0
  -16.7292  -28.6502   23.0358 C   0  0  0  0  0  0
  -26.4529  -31.6565   25.0721 C   0  0  0  0  0  0
  -25.3701  -31.3769   26.1407 C   0  0  0  0  0  0
  -27.0402  -30.2953   24.6338 C   0  0  0  0  0  0
  -27.6049  -32.4343   25.7510 C   0  0  0  0  0  0
  -27.5575  -37.1783   24.8464 C   0  0  0  0  0  0
  -21.4271  -29.3050   22.3592 N   0  0  0  0  0  0
  -26.4286  -37.3741   23.9406 N   0  0  0  0  0  0
  -24.7226  -31.0250   22.0915 N   0  0  0  0  0  0
  -23.4212  -28.8084   23.3002 O   0  0  0  0  0  0
  -28.2438  -26.0902   20.2397 O   0  0  0  0  0  0
  -26.5668  -34.8901   22.4636 O   0  0  0  0  0  0
  -23.5575  -32.1305   23.7069 O   0  0  0  0  0  0
  -30.1089  -23.3975   20.9492 C   0  0  0  0  0  0
  -28.5009  -21.8031   20.1693 C   0  0  0  0  0  0
  -28.8352  -23.2415   20.3707 C   0  0  0  0  0  0
  -30.9061  -22.2738   21.2841 C   0  0  0  0  0  0
  -29.3747  -20.6518   20.5194 C   0  0  0  0  0  0
  -32.2598  -22.4947   21.9255 C   0  0  0  0  0  0
  -27.9035  -24.5724   20.0274 C   0  0  0  0  0  0
  -29.0341  -19.0214   20.4851 C   0  0  0  0  0  0
  -30.1304  -17.7183   20.4441 C   0  0  0  0  0  0
  -30.5568  -20.9711   21.0921 N   0  0  0  0  0  0
  -29.7675  -16.1661   20.5450 N   0  0  0  0  0  0
  -31.4744  -12.7587   19.1927 H   0  0  0  0  0  0
  -30.4342  -11.6544   20.0435 H   0  0  0  0  0  0
  -29.8480  -11.7284   17.5944 H   0  0  0  0  0  0
  -29.6131  -13.4568   17.6874 H   0  0  0  0  0  0
  -27.9535  -11.2765   18.9828 H   0  0  0  0  0  0
  -27.3962  -12.4477   17.8162 H   0  0  0  0  0  0
  -27.5885  -14.2522   19.4043 H   0  0  0  0  0  0
  -28.7622  -12.3200   21.4616 H   0  0  0  0  0  0
  -28.3668  -13.9993   21.7473 H   0  0  0  0  0  0
  -25.2778   -9.5681   22.4758 H   0  0  0  0  0  0
  -24.0010   -7.4638   22.7474 H   0  0  0  0  0  0
  -21.0855   -8.8783   19.8954 H   0  0  0  0  0  0
  -22.3719  -10.9675   19.6164 H   0  0  0  0  0  0
  -21.2008   -7.6148   23.9714 H   0  0  0  0  0  0
  -21.1484   -6.0523   25.9077 H   0  0  0  0  0  0
  -22.0595   -2.7609   23.2845 H   0  0  0  0  0  0
  -22.4080  -11.9869   22.4842 H   0  0  0  0  0  0
  -21.1056  -13.1198   22.2627 H   0  0  0  0  0  0
  -24.6372  -15.8429   20.5220 H   0  0  0  0  0  0
  -26.2463  -15.6373   20.0533 H   0  0  0  0  0  0
  -26.7291  -32.5276   23.0991 H   0  0  0  0  0  0
  -25.0074  -33.9602   25.0301 H   0  0  0  0  0  0
  -22.7554  -31.2887   21.3771 H   0  0  0  0  0  0
  -23.3759  -35.9578   23.3290 H   0  0  0  0  0  0
  -24.3575  -36.8902   22.2061 H   0  0  0  0  0  0
  -23.7245  -37.6440   23.6693 H   0  0  0  0  0  0
  -26.1723  -31.4606   20.6202 H   0  0  0  0  0  0
  -26.8782  -30.7544   22.0375 H   0  0  0  0  0  0
  -28.1317  -28.7650   21.2509 H   0  0  0  0  0  0
  -25.8975  -25.8449   18.9812 H   0  0  0  0  0  0
  -23.9832  -27.3089   18.9646 H   0  0  0  0  0  0
  -23.8187  -30.5672   19.3972 H   0  0  0  0  0  0
  -22.7936  -29.2366   19.8392 H   0  0  0  0  0  0
  -25.1316  -36.1848   25.0804 H   0  0  0  0  0  0
  -21.0017  -28.3321   24.1343 H   0  0  0  0  0  0
  -20.5678  -26.2343   23.3624 H   0  0  0  0  0  0
  -21.6656  -26.7424   22.1202 H   0  0  0  0  0  0
  -19.6922  -25.6283   21.1260 H   0  0  0  0  0  0
  -19.6699  -27.3173   20.6724 H   0  0  0  0  0  0
  -17.4212  -26.6677   21.4030 H   0  0  0  0  0  0
  -18.0348  -26.0083   22.9028 H   0  0  0  0  0  0
  -19.7955  -30.7301   24.2228 H   0  0  0  0  0  0
  -17.5027  -31.6269   24.5166 H   0  0  0  0  0  0
  -15.5365  -30.2976   23.7675 H   0  0  0  0  0  0
  -15.8693  -28.0812   22.7087 H   0  0  0  0  0  0
  -24.5888  -30.7110   25.7725 H   0  0  0  0  0  0
  -24.8882  -32.2957   26.4760 H   0  0  0  0  0  0
  -25.7971  -30.8989   27.0233 H   0  0  0  0  0  0
  -26.3031  -29.6668   24.1330 H   0  0  0  0  0  0
  -27.3976  -29.7268   25.4934 H   0  0  0  0  0  0
  -27.8955  -30.4174   23.9690 H   0  0  0  0  0  0
  -27.2631  -33.3664   26.2022 H   0  0  0  0  0  0
  -28.3893  -32.6875   25.0366 H   0  0  0  0  0  0
  -28.0681  -31.8517   26.5484 H   0  0  0  0  0  0
  -28.2583  -38.0088   24.7509 H   0  0  0  0  0  0
  -28.1081  -36.2617   24.6293 H   0  0  0  0  0  0
  -27.2291  -37.1430   25.8866 H   0  0  0  0  0  0
  -20.9483  -29.8765   21.6772 H   0  0  0  0  0  0
  -26.0150  -38.2808   24.1408 H   0  0  0  0  0  0
  -30.4747  -24.3957   21.1528 H   0  0  0  0  0  0
  -27.5282  -21.5756   19.7535 H   0  0  0  0  0  0
  -32.1590  -23.1112   22.8188 H   0  0  0  0  0  0
  -32.9275  -23.0056   21.2316 H   0  0  0  0  0  0
  -32.7285  -21.5549   22.2187 H   0  0  0  0  0  0
  -26.9690  -24.3924   20.5595 H   0  0  0  0  0  0
  -27.6611  -24.4650   18.9701 H   0  0  0  0  0  0
  -28.3647  -18.8905   19.6351 H   0  0  0  0  0  0
  -28.3993  -18.8600   21.3559 H   0  0  0  0  0  0
  -30.8402  -17.8930   21.2531 H   0  0  0  0  0  0
  -30.7211  -17.8318   19.5348 H   0  0  0  0  0  0
  -28.7892  -15.9841   20.7154 H   0  0  0  0  0  0
  1 25  1  0  0  0
  1 30  2  0  0  0
  1 81  1  0  0  0
  2  3  1  0  0  0
  2 25  1  0  0  0
  2 82  1  0  0  0
  2 83  1  0  0  0
  3  4  1  0  0  0
  3 84  1  0  0  0
  3 85  1  0  0  0
  4  5  1  0  0  0
  4 86  1  0  0  0
  4 87  1  0  0  0
  5  6  1  0  0  0
  5 26  1  0  0  0
  5 88  1  0  0  0
  6 25  1  0  0  0
  6 89  1  0  0  0
  6 90  1  0  0  0
  7  8  2  0  0  0
  7 26  1  0  0  0
  7 29  1  0  0  0
  8  9  1  0  0  0
  8 22  1  0  0  0
  9 10  1  0  0  0
  9 27  2  0  0  0
 10 11  2  0  0  0
 10 15  1  0  0  0
 11 12  1  0  0  0
 11 91  1  0  0  0
 12 13  2  0  0  0
 12 92  1  0  0  0
 13 14  1  0  0  0
 13 31  1  0  0  0
 14 15  2  0  0  0
 14 93  1  0  0  0
 15 94  1  0  0  0
 16 17  2  0  0  0
 16 21  1  0  0  0
 16 31  1  0  0  0
 17 18  1  0  0  0
 17 95  1  0  0  0
 18 19  2  0  0  0
 18 96  1  0  0  0
 19 20  1  0  0  0
 19 24  1  0  0  0
 20 21  2  0  0  0
 20 97  1  0  0  0
 21 23  1  0  0  0
 22 28  1  0  0  0
 22 32  2  0  0  0
 26 27  1  0  0  0
 28 98  1  0  0  0
 28 99  1  0  0  0
 29100  1  0  0  0
 29101  1  0  0  0
 33 34  1  0  0  0
 33 66  1  0  0  0
 33 70  2  0  0  0
 34 36  1  0  0  0
 34 59  1  0  0  0
 34102  1  0  0  0
 35 44  2  0  0  0
 35 45  1  0  0  0
 35 68  1  0  0  0
 36 56  1  0  0  0
 36103  1  0  0  0
 37 39  1  0  0  0
 37 47  1  0  0  0
 37 66  1  0  0  0
 37104  1  0  0  0
 38 43  2  0  0  0
 38 46  1  0  0  0
 38 47  1  0  0  0
 39 64  1  0  0  0
 39 67  2  0  0  0
 40 52  1  0  0  0
 40 53  2  0  0  0
 40 58  1  0  0  0
 41105  1  0  0  0
 41106  1  0  0  0
 41107  1  0  0  0
 41 48  1  0  0  0
 42 43  1  0  0  0
 42 66  1  0  0  0
 42108  1  0  0  0
 42109  1  0  0  0
 43 44  1  0  0  0
 44110  1  0  0  0
 45 46  2  0  0  0
 45111  1  0  0  0
 46112  1  0  0  0
 47113  1  0  0  0
 47114  1  0  0  0
 48 56  1  0  0  0
 48 65  1  0  0  0
 48115  1  0  0  0
 49 50  1  0  0  0
 49 53  1  0  0  0
 49 64  1  0  0  0
 49116  1  0  0  0
 50 51  1  0  0  0
 50117  1  0  0  0
 50118  1  0  0  0
 51 52  1  0  0  0
 51119  1  0  0  0
 51120  1  0  0  0
 52121  1  0  0  0
 52122  1  0  0  0
 53 54  1  0  0  0
 54 55  2  0  0  0
 54123  1  0  0  0
 55 57  1  0  0  0
 55124  1  0  0  0
 56 69  2  0  0  0
 57 58  2  0  0  0
 57125  1  0  0  0
 58126  1  0  0  0
 59 60  1  0  0  0
 59 61  1  0  0  0
 59 62  1  0  0  0
 60127  1  0  0  0
 60128  1  0  0  0
 60129  1  0  0  0
 61130  1  0  0  0
 61131  1  0  0  0
 61132  1  0  0  0
 62133  1  0  0  0
 62134  1  0  0  0
 62135  1  0  0  0
 63 65  1  0  0  0
 63136  1  0  0  0
 63137  1  0  0  0
 63138  1  0  0  0
 64139  1  0  0  0
 65140  1  0  0  0
 68 77  1  0  0  0
 71 73  2  0  0  0
 71 74  1  0  0  0
 71141  1  0  0  0
 72 73  1  0  0  0
 72 75  2  0  0  0
 72142  1  0  0  0
 73 77  1  0  0  0
 74 76  1  0  0  0
 74 80  2  0  0  0
 75 78  1  0  0  0
 75 80  1  0  0  0
 76143  1  0  0  0
 76144  1  0  0  0
 76145  1  0  0  0
 77146  1  0  0  0
 77147  1  0  0  0
 78 79  1  0  0  0
 78148  1  0  0  0
 78149  1  0  0  0
 79 81  1  0  0  0
 79150  1  0  0  0
 79151  1  0  0  0
 81152  1  0  0  0
M  ISO  4   1 100  68 101  77 101  81 100
M  END
> <chiral flag>
0

> <version>
0

> <s_m_source_file>
/data/baiqing/PycharmProjects/Reinvent-master-3.2/result/LINK_invent/BTK/process_docking_weight1_custom_sum_contain_oxygen_bond_distance_aromatic_linkinvent_7_9_3/rearranged_h_0043.sdf

> <i_m_source_file_index>
74

> <r_mmod_Potential_Energy-OPLS-2005>
362.217590332031

> <r_mmod_Stretch_Energy-OPLS-2005>
279.386871337891

> <r_mmod_Bend_Energy-OPLS-2005>
248.093475341797

> <r_mmod_Torsional_Energy-OPLS-2005>
211.178970336914

> <r_mmod_Improper_Torsional_Energy-OPLS-2005>
4.99006128311157

> <r_mmod_Van_der_Waal_Energy-OPLS-2005>
132.476989746094

> <r_mmod_Electrostatic_Energy-OPLS-2005>
-495.792236328125

> <r_mmod_Solvation_Energy-OPLS-2005>
-233.995208740234

> <b_mmod_Minimization_Converged-OPLS-2005>
0

> <r_mmod_RMS_Derivative-OPLS-2005>
0.47812694311142

$$$$
74
                    3D
 Structure written by MMmdl.
168176  0  0  1  0            999 V2000
  -30.4985  -14.9305   20.4289 C   0  0  0  0  0  0
  -30.4337  -12.5741   19.4963 C   0  0  0  0  0  0
  -29.5229  -12.5502   18.2488 C   0  0  0  0  0  0
  -28.0474  -12.3519   18.6414 C   0  0  0  0  0  0
  -27.6314  -13.2494   19.8383 C   0  0  2  0  0  0
  -28.6679  -13.2303   20.9809 C   0  0  0  0  0  0
  -25.2503  -13.8185   20.5630 C   0  0  0  0  0  0
  -24.1768  -13.0353   20.9152 C   0  0  0  0  0  0
  -24.6402  -11.6937   20.8717 C   0  0  0  0  0  0
  -23.9074  -10.4279   21.0401 C   0  0  0  0  0  0
  -24.3630   -9.4193   21.9170 C   0  0  0  0  0  0
  -23.6301   -8.2212   22.0743 C   0  0  0  0  0  0
  -22.4266   -8.0272   21.3535 C   0  0  0  0  0  0
  -21.9909   -9.0245   20.4618 C   0  0  0  0  0  0
  -22.7254  -10.2126   20.3044 C   0  0  0  0  0  0
  -21.6854   -6.0730   22.5270 C   0  0  0  0  0  0
  -21.4034   -6.5635   23.8208 C   0  0  0  0  0  0
  -21.3661   -5.6777   24.9162 C   0  0  0  0  0  0
  -21.6045   -4.3042   24.7221 C   0  0  0  0  0  0
  -21.8815   -3.8140   23.4335 C   0  0  0  0  0  0
  -21.9213   -4.6960   22.3402 C   0  0  0  0  0  0
  -22.7817  -13.5186   21.1804 C   0  0  0  0  0  0
  -22.1658   -4.2148   21.0978 F   0  0  0  0  0  0
  -21.5631   -3.4540   25.7728 F   0  0  0  0  0  0
  -29.9357  -13.6607   20.3850 N   0  0  0  0  0  0
  -26.2889  -12.9399   20.3146 N   0  0  0  0  0  0
  -25.9350  -11.6535   20.5706 N   0  0  0  0  0  0
  -22.0469  -12.8167   22.0413 N   0  0  0  0  0  0
  -25.4069  -15.1879   20.4034 N   0  0  0  0  0  0
  -31.7043  -15.0197   20.1732 O   0  0  0  0  0  0
  -21.6637   -6.8869   21.4213 O   0  0  0  0  0  0
  -22.3512  -14.5491   20.6703 O   0  0  0  0  0  0
  -24.6663  -31.8379   23.2085 C   0  0  0  0  0  0
  -25.9427  -32.4716   23.8316 C   0  0  1  0  0  0
  -27.1095  -27.0480   20.1355 C   0  0  0  0  0  0
  -25.6098  -33.8518   24.2250 N   0  0  0  0  0  0
  -23.4686  -30.4785   21.5506 C   0  0  2  0  0  0
  -24.9104  -28.9440   20.0947 C   0  0  0  0  0  0
  -22.7723  -29.4551   22.4861 C   0  0  0  0  0  0
  -18.0624  -28.1231   22.8328 C   0  0  0  0  0  0
  -24.1470  -36.7329   23.2710 C   0  0  0  0  0  0
  -26.0390  -30.6695   21.4568 C   0  0  0  0  0  0
  -26.0819  -29.2812   20.7856 C   0  0  0  0  0  0
  -27.1947  -28.3375   20.8160 C   0  0  0  0  0  0
  -25.9993  -26.9181   19.3023 C   0  0  0  0  0  0
  -24.8842  -27.7826   19.3257 C   0  0  0  0  0  0
  -23.7137  -29.8861   20.1470 C   0  0  0  0  0  0
  -25.4169  -36.3157   24.0387 C   0  0  1  0  0  0
  -20.6190  -28.3695   23.1081 C   0  0  2  0  0  0
  -20.7255  -26.9499   22.4975 C   0  0  0  0  0  0
  -19.6126  -26.6042   21.5043 C   0  0  0  0  0  0
  -18.2386  -26.7744   22.1650 C   0  0  0  0  0  0
  -19.1820  -28.8698   23.2819 C   0  0  0  0  0  0
  -18.9630  -30.1246   23.8914 C   0  0  0  0  0  0
  -17.6555  -30.6382   24.0389 C   0  0  0  0  0  0
  -25.9189  -34.9494   23.5198 C   0  0  0  0  0  0
  -16.5556  -29.8907   23.5948 C   0  0  0  0  0  0
  -16.7607  -28.6376   22.9935 C   0  0  0  0  0  0
  -26.4600  -31.6609   25.0802 C   0  0  0  0  0  0
  -25.3780  -31.3794   26.1525 C   0  0  0  0  0  0
  -27.0744  -30.3088   24.6638 C   0  0  0  0  0  0
  -27.5981  -32.4535   25.7493 C   0  0  0  0  0  0
  -27.5604  -37.1885   24.8494 C   0  0  0  0  0  0
  -21.4368  -29.3256   22.3502 N   0  0  0  0  0  0
  -26.4336  -37.3862   23.9453 N   0  0  0  0  0  0
  -24.7400  -31.0122   22.1260 N   0  0  0  0  0  0
  -23.4189  -28.8048   23.3190 O   0  0  0  0  0  0
  -28.0188  -25.9238   20.0867 O   0  0  0  0  0  0
  -26.5569  -34.8994   22.4662 O   0  0  0  0  0  0
  -23.5816  -32.1423   23.7276 O   0  0  0  0  0  0
  -27.8019  -21.6226   20.3520 C   0  0  0  0  0  0
  -27.3269  -23.0396   20.3969 C   0  0  0  0  0  0
  -25.6327  -21.5225   20.2601 C   0  0  0  0  0  0
  -24.2720  -20.8823   20.3700 C   0  0  0  0  0  0
  -21.7110  -24.7931   18.6950 C   0  0  0  0  0  0
  -23.2531  -24.6876   16.6908 C   0  0  0  0  0  0
  -29.0478  -20.5704   20.4949 C   0  0  0  0  0  0
  -27.8753  -24.5550   20.8763 C   0  0  0  0  0  0
  -28.8204  -18.8714   20.4125 C   0  0  0  0  0  0
  -23.8985  -23.5192   18.8770 C   0  0  0  0  0  0
  -24.8303  -23.8239   20.0973 C   0  0  0  0  0  0
  -29.9803  -17.6474   20.5251 C   0  0  0  0  0  0
  -23.1724  -24.7096   18.2293 C   0  0  0  0  0  0
  -26.7068  -20.7912   20.2101 N   0  0  0  0  0  0
  -25.9050  -22.8418   20.2215 N   0  0  0  0  0  0
  -29.6789  -16.0920   20.5467 N   0  0  0  0  0  0
  -31.4727  -12.7281   19.1989 H   0  0  0  0  0  0
  -30.4245  -11.6085   20.0092 H   0  0  0  0  0  0
  -29.8419  -11.7687   17.5607 H   0  0  0  0  0  0
  -29.6421  -13.4929   17.7140 H   0  0  0  0  0  0
  -27.9038  -11.3015   18.8947 H   0  0  0  0  0  0
  -27.4020  -12.5508   17.7847 H   0  0  0  0  0  0
  -27.6043  -14.2663   19.4455 H   0  0  0  0  0  0
  -28.7451  -12.2296   21.4159 H   0  0  0  0  0  0
  -28.3787  -13.9117   21.7844 H   0  0  0  0  0  0
  -25.2791   -9.5665   22.4730 H   0  0  0  0  0  0
  -24.0017   -7.4616   22.7506 H   0  0  0  0  0  0
  -21.0818   -8.8787   19.8950 H   0  0  0  0  0  0
  -22.3728  -10.9655   19.6160 H   0  0  0  0  0  0
  -21.2012   -7.6147   23.9705 H   0  0  0  0  0  0
  -21.1484   -6.0513   25.9067 H   0  0  0  0  0  0
  -22.0605   -2.7608   23.2838 H   0  0  0  0  0  0
  -22.4164  -11.9898   22.4822 H   0  0  0  0  0  0
  -21.1063  -13.1213   22.2633 H   0  0  0  0  0  0
  -24.6277  -15.8270   20.5038 H   0  0  0  0  0  0
  -26.2397  -15.6337   20.0353 H   0  0  0  0  0  0
  -26.7563  -32.5345   23.1047 H   0  0  0  0  0  0
  -24.9966  -33.9487   25.0246 H   0  0  0  0  0  0
  -22.7841  -31.3157   21.3992 H   0  0  0  0  0  0
  -23.3783  -35.9591   23.3416 H   0  0  0  0  0  0
  -24.3601  -36.8903   22.2106 H   0  0  0  0  0  0
  -23.6988  -37.6532   23.6606 H   0  0  0  0  0  0
  -26.2491  -31.4288   20.7013 H   0  0  0  0  0  0
  -26.8978  -30.6887   22.1225 H   0  0  0  0  0  0
  -28.1018  -28.5554   21.3785 H   0  0  0  0  0  0
  -25.9996  -26.0823   18.6204 H   0  0  0  0  0  0
  -24.0298  -27.6008   18.6843 H   0  0  0  0  0  0
  -23.9402  -30.7175   19.4711 H   0  0  0  0  0  0
  -22.8073  -29.4145   19.7587 H   0  0  0  0  0  0
  -25.1274  -36.2059   25.0848 H   0  0  0  0  0  0
  -21.0480  -28.3061   24.1147 H   0  0  0  0  0  0
  -20.6950  -26.2044   23.2968 H   0  0  0  0  0  0
  -21.6952  -26.8316   22.0271 H   0  0  0  0  0  0
  -19.7240  -25.5705   21.1663 H   0  0  0  0  0  0
  -19.7163  -27.2145   20.5986 H   0  0  0  0  0  0
  -17.4361  -26.6083   21.4534 H   0  0  0  0  0  0
  -18.1136  -26.0111   22.9340 H   0  0  0  0  0  0
  -19.7999  -30.6890   24.2748 H   0  0  0  0  0  0
  -17.4988  -31.5909   24.5269 H   0  0  0  0  0  0
  -15.5434  -30.2717   23.6981 H   0  0  0  0  0  0
  -15.8977  -28.1011   22.6466 H   0  0  0  0  0  0
  -24.5805  -30.7256   25.7927 H   0  0  0  0  0  0
  -24.9088  -32.2991   26.5027 H   0  0  0  0  0  0
  -25.8101  -30.8928   27.0277 H   0  0  0  0  0  0
  -26.3569  -29.6504   24.1767 H   0  0  0  0  0  0
  -27.4526  -29.7612   25.5282 H   0  0  0  0  0  0
  -27.9292  -30.4505   24.0016 H   0  0  0  0  0  0
  -27.2393  -33.3939   26.1690 H   0  0  0  0  0  0
  -28.3771  -32.6993   25.0241 H   0  0  0  0  0  0
  -28.0621  -31.8956   26.5659 H   0  0  0  0  0  0
  -28.2650  -38.0154   24.7527 H   0  0  0  0  0  0
  -28.0997  -36.2667   24.6276 H   0  0  0  0  0  0
  -27.2339  -37.1580   25.8905 H   0  0  0  0  0  0
  -20.9513  -29.9126   21.6803 H   0  0  0  0  0  0
  -26.0282  -38.2982   24.1400 H   0  0  0  0  0  0
  -24.2853  -19.9855   20.9973 H   0  0  0  0  0  0
  -23.8987  -20.6232   19.3763 H   0  0  0  0  0  0
  -23.5656  -21.5412   20.8669 H   0  0  0  0  0  0
  -21.1035  -23.9484   18.3452 H   0  0  0  0  0  0
  -21.2601  -25.7097   18.3063 H   0  0  0  0  0  0
  -21.6444  -24.8059   19.7855 H   0  0  0  0  0  0
  -24.2829  -24.7523   16.3589 H   0  0  0  0  0  0
  -22.7480  -25.5618   16.2955 H   0  0  0  0  0  0
  -22.7827  -23.8194   16.2195 H   0  0  0  0  0  0
  -29.5511  -20.7670   21.4445 H   0  0  0  0  0  0
  -29.7838  -20.8231   19.7314 H   0  0  0  0  0  0
  -28.8637  -24.3557   21.2739 H   0  0  0  0  0  0
  -27.3455  -24.8181   21.7885 H   0  0  0  0  0  0
  -28.2836  -18.6719   19.4802 H   0  0  0  0  0  0
  -28.0995  -18.6445   21.1985 H   0  0  0  0  0  0
  -23.0895  -22.8471   19.1739 H   0  0  0  0  0  0
  -24.4853  -22.9729   18.1383 H   0  0  0  0  0  0
  -24.2520  -23.8681   21.0142 H   0  0  0  0  0  0
  -25.2957  -24.7818   20.0635 H   0  0  0  0  0  0
  -30.5358  -17.8434   21.4418 H   0  0  0  0  0  0
  -30.7123  -17.8048   19.7272 H   0  0  0  0  0  0
  -23.6520  -25.6235   18.5775 H   0  0  0  0  0  0
  -28.7046  -15.8729   20.6858 H   0  0  0  0  0  0
  1 25  1  0  0  0
  1 30  2  0  0  0
  1 86  1  0  0  0
  2  3  1  0  0  0
  2 25  1  0  0  0
  2 87  1  0  0  0
  2 88  1  0  0  0
  3  4  1  0  0  0
  3 89  1  0  0  0
  3 90  1  0  0  0
  4  5  1  0  0  0
  4 91  1  0  0  0
  4 92  1  0  0  0
  5  6  1  0  0  0
  5 26  1  0  0  0
  5 93  1  0  0  0
  6 25  1  0  0  0
  6 94  1  0  0  0
  6 95  1  0  0  0
  7  8  2  0  0  0
  7 26  1  0  0  0
  7 29  1  0  0  0
  8  9  1  0  0  0
  8 22  1  0  0  0
  9 10  1  0  0  0
  9 27  2  0  0  0
 10 11  2  0  0  0
 10 15  1  0  0  0
 11 12  1  0  0  0
 11 96  1  0  0  0
 12 13  2  0  0  0
 12 97  1  0  0  0
 13 14  1  0  0  0
 13 31  1  0  0  0
 14 15  2  0  0  0
 14 98  1  0  0  0
 15 99  1  0  0  0
 16 17  2  0  0  0
 16 21  1  0  0  0
 16 31  1  0  0  0
 17 18  1  0  0  0
 17100  1  0  0  0
 18 19  2  0  0  0
 18101  1  0  0  0
 19 20  1  0  0  0
 19 24  1  0  0  0
 20 21  2  0  0  0
 20102  1  0  0  0
 21 23  1  0  0  0
 22 28  1  0  0  0
 22 32  2  0  0  0
 26 27  1  0  0  0
 28103  1  0  0  0
 28104  1  0  0  0
 29105  1  0  0  0
 29106  1  0  0  0
 33 34  1  0  0  0
 33 66  1  0  0  0
 33 70  2  0  0  0
 34 36  1  0  0  0
 34 59  1  0  0  0
 34107  1  0  0  0
 35 44  2  0  0  0
 35 45  1  0  0  0
 35 68  1  0  0  0
 36 56  1  0  0  0
 36108  1  0  0  0
 37 39  1  0  0  0
 37 47  1  0  0  0
 37 66  1  0  0  0
 37109  1  0  0  0
 38 43  2  0  0  0
 38 46  1  0  0  0
 38 47  1  0  0  0
 39 64  1  0  0  0
 39 67  2  0  0  0
 40 52  1  0  0  0
 40 53  2  0  0  0
 40 58  1  0  0  0
 41110  1  0  0  0
 41111  1  0  0  0
 41112  1  0  0  0
 41 48  1  0  0  0
 42 43  1  0  0  0
 42 66  1  0  0  0
 42113  1  0  0  0
 42114  1  0  0  0
 43 44  1  0  0  0
 44115  1  0  0  0
 45 46  2  0  0  0
 45116  1  0  0  0
 46117  1  0  0  0
 47118  1  0  0  0
 47119  1  0  0  0
 48 56  1  0  0  0
 48 65  1  0  0  0
 48120  1  0  0  0
 49 50  1  0  0  0
 49 53  1  0  0  0
 49 64  1  0  0  0
 49121  1  0  0  0
 50 51  1  0  0  0
 50122  1  0  0  0
 50123  1  0  0  0
 51 52  1  0  0  0
 51124  1  0  0  0
 51125  1  0  0  0
 52126  1  0  0  0
 52127  1  0  0  0
 53 54  1  0  0  0
 54 55  2  0  0  0
 54128  1  0  0  0
 55 57  1  0  0  0
 55129  1  0  0  0
 56 69  2  0  0  0
 57 58  2  0  0  0
 57130  1  0  0  0
 58131  1  0  0  0
 59 60  1  0  0  0
 59 61  1  0  0  0
 59 62  1  0  0  0
 60132  1  0  0  0
 60133  1  0  0  0
 60134  1  0  0  0
 61135  1  0  0  0
 61136  1  0  0  0
 61137  1  0  0  0
 62138  1  0  0  0
 62139  1  0  0  0
 62140  1  0  0  0
 63 65  1  0  0  0
 63141  1  0  0  0
 63142  1  0  0  0
 63143  1  0  0  0
 64144  1  0  0  0
 65145  1  0  0  0
 68 78  1  0  0  0
 71 72  2  0  0  0
 71 77  1  0  0  0
 71 84  1  0  0  0
 72 78  1  0  0  0
 72 85  1  0  0  0
 73 74  1  0  0  0
 73 84  2  0  0  0
 73 85  1  0  0  0
 74146  1  0  0  0
 74147  1  0  0  0
 74148  1  0  0  0
 75149  1  0  0  0
 75150  1  0  0  0
 75151  1  0  0  0
 75 83  1  0  0  0
 76 83  1  0  0  0
 76152  1  0  0  0
 76153  1  0  0  0
 76154  1  0  0  0
 77 79  1  0  0  0
 77155  1  0  0  0
 77156  1  0  0  0
 78157  1  0  0  0
 78158  1  0  0  0
 79 82  1  0  0  0
 79159  1  0  0  0
 79160  1  0  0  0
 80 81  1  0  0  0
 80 83  1  0  0  0
 80161  1  0  0  0
 80162  1  0  0  0
 81 85  1  0  0  0
 81163  1  0  0  0
 81164  1  0  0  0
 82 86  1  0  0  0
 82165  1  0  0  0
 82166  1  0  0  0
 83167  1  0  0  0
 86168  1  0  0  0
M  ISO  4   1 100  68 101  78 101  86 100
M  END
> <chiral flag>
0

> <version>
0

> <s_m_source_file>
/data/baiqing/PycharmProjects/Reinvent-master-3.2/result/LINK_invent/BTK/process_docking_weight1_custom_sum_contain_oxygen_bond_distance_aromatic_linkinvent_7_9_3/rearranged_h_0043.sdf

> <i_m_source_file_index>
75

> <r_mmod_Potential_Energy-OPLS-2005>
803.870544433594

> <r_mmod_Stretch_Energy-OPLS-2005>
338.021270751953

> <r_mmod_Bend_Energy-OPLS-2005>
381.889373779297

> <r_mmod_Torsional_Energy-OPLS-2005>
296.216247558594

> <r_mmod_Improper_Torsional_Energy-OPLS-2005>
7.01882648468018

> <r_mmod_Van_der_Waal_Energy-OPLS-2005>
128.32746887207

> <r_mmod_Electrostatic_Energy-OPLS-2005>
-398.993591308594

> <r_mmod_Solvation_Energy-OPLS-2005>
-212.845428466797

> <b_mmod_Minimization_Converged-OPLS-2005>
0

> <r_mmod_RMS_Derivative-OPLS-2005>
17.9432430267334

$$$$
75
                    3D
 Structure written by MMmdl.
163171  0  0  1  0            999 V2000
  -30.7316  -14.4010   20.6665 C   0  0  0  0  0  0
  -30.4255  -12.2963   19.4046 C   0  0  0  0  0  0
  -29.4908  -12.5272   18.2010 C   0  0  0  0  0  0
  -28.0122  -12.3958   18.6153 C   0  0  0  0  0  0
  -27.6713  -13.2058   19.8930 C   0  0  2  0  0  0
  -28.7094  -12.9271   21.0023 C   0  0  0  0  0  0
  -25.2603  -13.8146   20.5703 C   0  0  0  0  0  0
  -24.1853  -13.0424   20.9149 C   0  0  0  0  0  0
  -24.6418  -11.6894   20.8719 C   0  0  0  0  0  0
  -23.9085  -10.4282   21.0418 C   0  0  0  0  0  0
  -24.3637   -9.4184   21.9192 C   0  0  0  0  0  0
  -23.6290   -8.2225   22.0758 C   0  0  0  0  0  0
  -22.4268   -8.0280   21.3562 C   0  0  0  0  0  0
  -21.9937   -9.0267   20.4656 C   0  0  0  0  0  0
  -22.7272  -10.2139   20.3057 C   0  0  0  0  0  0
  -21.6863   -6.0713   22.5275 C   0  0  0  0  0  0
  -21.4030   -6.5631   23.8208 C   0  0  0  0  0  0
  -21.3653   -5.6799   24.9187 C   0  0  0  0  0  0
  -21.6036   -4.3058   24.7246 C   0  0  0  0  0  0
  -21.8821   -3.8131   23.4374 C   0  0  0  0  0  0
  -21.9204   -4.6936   22.3418 C   0  0  0  0  0  0
  -22.7867  -13.5180   21.1842 C   0  0  0  0  0  0
  -22.1660   -4.2108   21.1014 F   0  0  0  0  0  0
  -21.5641   -3.4545   25.7765 F   0  0  0  0  0  0
  -30.0483  -13.2414   20.4673 N   0  0  0  0  0  0
  -26.3072  -12.9346   20.3443 N   0  0  0  0  0  0
  -25.9344  -11.6498   20.5781 N   0  0  0  0  0  0
  -22.0548  -12.8139   22.0384 N   0  0  0  0  0  0
  -25.4317  -15.1871   20.4114 N   0  0  0  0  0  0
  -31.7783  -14.6839   20.0753 O   0  0  0  0  0  0
  -21.6645   -6.8852   21.4236 O   0  0  0  0  0  0
  -22.3528  -14.5497   20.6728 O   0  0  0  0  0  0
  -24.6110  -31.8700   23.2137 C   0  0  0  0  0  0
  -25.9017  -32.4828   23.8438 C   0  0  1  0  0  0
  -27.2299  -27.4512   20.1068 C   0  0  0  0  0  0
  -25.5881  -33.8627   24.2362 N   0  0  0  0  0  0
  -23.3991  -30.4953   21.5527 C   0  0  2  0  0  0
  -24.8497  -28.9655   20.1146 C   0  0  0  0  0  0
  -22.7384  -29.4661   22.4990 C   0  0  0  0  0  0
  -18.0260  -28.1364   22.8500 C   0  0  0  0  0  0
  -24.1487  -36.7314   23.2647 C   0  0  0  0  0  0
  -25.9286  -30.8392   21.3698 C   0  0  0  0  0  0
  -26.0065  -29.4756   20.7184 C   0  0  0  0  0  0
  -27.2014  -28.7219   20.7202 C   0  0  0  0  0  0
  -26.0653  -26.9543   19.4909 C   0  0  0  0  0  0
  -24.8713  -27.7008   19.5015 C   0  0  0  0  0  0
  -23.6097  -29.8308   20.1653 C   0  0  0  0  0  0
  -25.4103  -36.3118   24.0358 C   0  0  1  0  0  0
  -20.5853  -28.3641   23.1329 C   0  0  2  0  0  0
  -20.6748  -26.9378   22.5427 C   0  0  0  0  0  0
  -19.5739  -26.6368   21.5215 C   0  0  0  0  0  0
  -18.1908  -26.7910   22.1621 C   0  0  0  0  0  0
  -19.1510  -28.8819   23.2917 C   0  0  0  0  0  0
  -18.9441  -30.1434   23.8916 C   0  0  0  0  0  0
  -17.6443  -30.6578   24.0563 C   0  0  0  0  0  0
  -25.9021  -34.9479   23.5154 C   0  0  0  0  0  0
  -16.5337  -29.9079   23.6321 C   0  0  0  0  0  0
  -16.7250  -28.6493   23.0351 C   0  0  0  0  0  0
  -26.4467  -31.6594   25.0749 C   0  0  0  0  0  0
  -25.3749  -31.3659   26.1501 C   0  0  0  0  0  0
  -27.0320  -30.3048   24.6111 C   0  0  0  0  0  0
  -27.6038  -32.4312   25.7509 C   0  0  0  0  0  0
  -27.5584  -37.1819   24.8461 C   0  0  0  0  0  0
  -21.4114  -29.3015   22.3726 N   0  0  0  0  0  0
  -26.4288  -37.3797   23.9418 N   0  0  0  0  0  0
  -24.6643  -31.0822   22.1031 N   0  0  0  0  0  0
  -23.4178  -28.8182   23.3004 O   0  0  0  0  0  0
  -28.3612  -26.6747   20.0773 O   0  0  0  0  0  0
  -26.5586  -34.8912   22.4710 O   0  0  0  0  0  0
  -23.5305  -32.1442   23.7540 O   0  0  0  0  0  0
  -28.6340  -22.4041   18.9833 C   0  0  0  0  0  0
  -28.7454  -22.4103   20.3859 C   0  0  0  0  0  0
  -29.4225  -20.2269   18.9000 C   0  0  0  0  0  0
  -29.5951  -20.2284   20.3286 C   0  0  0  0  0  0
  -28.9287  -18.9564   16.7021 C   0  0  0  0  0  0
  -28.3197  -23.6594   21.1580 C   0  0  0  0  0  0
  -29.8257  -19.1050   17.9427 C   0  0  0  0  0  0
  -30.2754  -19.1280   21.1877 C   0  0  0  0  0  0
  -29.3881  -24.7787   21.2043 C   0  0  0  0  0  0
  -30.1444  -17.6315   20.7944 C   0  0  0  0  0  0
  -30.5805  -16.6177   21.8746 C   0  0  0  0  0  0
  -28.8030  -26.2036   21.3530 C   0  0  0  0  0  0
  -28.9697  -21.3267   18.2495 N   0  0  0  0  0  0
  -29.2353  -21.3308   21.0561 N   0  0  0  0  0  0
  -30.1645  -15.2483   21.5395 N   0  0  0  0  0  0
  -31.4696  -12.4010   19.1036 H   0  0  0  0  0  0
  -30.3297  -11.2710   19.7684 H   0  0  0  0  0  0
  -29.7198  -11.8164   17.4058 H   0  0  0  0  0  0
  -29.6677  -13.5182   17.7813 H   0  0  0  0  0  0
  -27.8106  -11.3401   18.7904 H   0  0  0  0  0  0
  -27.3647  -12.7051   17.7935 H   0  0  0  0  0  0
  -27.7343  -14.2628   19.6364 H   0  0  0  0  0  0
  -28.6710  -11.8754   21.2954 H   0  0  0  0  0  0
  -28.4640  -13.4773   21.9104 H   0  0  0  0  0  0
  -25.2812   -9.5634   22.4742 H   0  0  0  0  0  0
  -24.0001   -7.4625   22.7480 H   0  0  0  0  0  0
  -21.0888   -8.8799   19.8944 H   0  0  0  0  0  0
  -22.3772  -10.9682   19.6151 H   0  0  0  0  0  0
  -21.2023   -7.6136   23.9704 H   0  0  0  0  0  0
  -21.1469   -6.0535   25.9091 H   0  0  0  0  0  0
  -22.0606   -2.7576   23.2910 H   0  0  0  0  0  0
  -22.4223  -11.9780   22.4679 H   0  0  0  0  0  0
  -21.1163  -13.1098   22.2667 H   0  0  0  0  0  0
  -24.6722  -15.8483   20.5293 H   0  0  0  0  0  0
  -26.2931  -15.6230   20.1085 H   0  0  0  0  0  0
  -26.7076  -32.5550   23.1199 H   0  0  0  0  0  0
  -25.0054  -33.9796   25.0528 H   0  0  0  0  0  0
  -22.6872  -31.3129   21.4151 H   0  0  0  0  0  0
  -23.3753  -35.9638   23.3294 H   0  0  0  0  0  0
  -24.3601  -36.8936   22.2063 H   0  0  0  0  0  0
  -23.7226  -37.6512   23.6665 H   0  0  0  0  0  0
  -26.0470  -31.6101   20.6073 H   0  0  0  0  0  0
  -26.8127  -30.8856   21.9932 H   0  0  0  0  0  0
  -28.0971  -29.1162   21.1795 H   0  0  0  0  0  0
  -26.0769  -25.9849   19.0153 H   0  0  0  0  0  0
  -23.9801  -27.3049   19.0341 H   0  0  0  0  0  0
  -23.7176  -30.6092   19.4088 H   0  0  0  0  0  0
  -22.7333  -29.2527   19.8650 H   0  0  0  0  0  0
  -25.1275  -36.1995   25.0852 H   0  0  0  0  0  0
  -20.9956  -28.3206   24.1454 H   0  0  0  0  0  0
  -20.5651  -26.2244   23.3609 H   0  0  0  0  0  0
  -21.6625  -26.7421   22.1229 H   0  0  0  0  0  0
  -19.6894  -25.6282   21.1243 H   0  0  0  0  0  0
  -19.6684  -27.3181   20.6752 H   0  0  0  0  0  0
  -17.4187  -26.6686   21.4005 H   0  0  0  0  0  0
  -18.0287  -26.0044   22.8997 H   0  0  0  0  0  0
  -19.7916  -30.7245   24.2294 H   0  0  0  0  0  0
  -17.4996  -31.6266   24.5149 H   0  0  0  0  0  0
  -15.5336  -30.2990   23.7625 H   0  0  0  0  0  0
  -15.8651  -28.0818   22.7054 H   0  0  0  0  0  0
  -24.5893  -30.7045   25.7824 H   0  0  0  0  0  0
  -24.8979  -32.2797   26.5044 H   0  0  0  0  0  0
  -25.8124  -30.8748   27.0203 H   0  0  0  0  0  0
  -26.2880  -29.6793   24.1153 H   0  0  0  0  0  0
  -27.4093  -29.7285   25.4572 H   0  0  0  0  0  0
  -27.8711  -30.4391   23.9278 H   0  0  0  0  0  0
  -27.2645  -33.3578   26.2150 H   0  0  0  0  0  0
  -28.3812  -32.6921   25.0315 H   0  0  0  0  0  0
  -28.0744  -31.8395   26.5373 H   0  0  0  0  0  0
  -28.2583  -38.0132   24.7524 H   0  0  0  0  0  0
  -28.1100  -36.2666   24.6263 H   0  0  0  0  0  0
  -27.2314  -37.1435   25.8864 H   0  0  0  0  0  0
  -20.9244  -29.8783   21.7002 H   0  0  0  0  0  0
  -26.0183  -38.2877   24.1408 H   0  0  0  0  0  0
  -28.2827  -23.2724   18.4461 H   0  0  0  0  0  0
  -29.2574  -18.1095   16.0987 H   0  0  0  0  0  0
  -28.9556  -19.8396   16.0636 H   0  0  0  0  0  0
  -27.8922  -18.7747   16.9904 H   0  0  0  0  0  0
  -28.0212  -23.3877   22.1722 H   0  0  0  0  0  0
  -27.4166  -24.0414   20.6803 H   0  0  0  0  0  0
  -29.7329  -18.1388   18.4081 H   0  0  0  0  0  0
  -30.8705  -19.2381   17.6597 H   0  0  0  0  0  0
  -29.8681  -19.2179   22.1962 H   0  0  0  0  0  0
  -31.3332  -19.3853   21.2838 H   0  0  0  0  0  0
  -29.9977  -24.7627   20.3002 H   0  0  0  0  0  0
  -30.0758  -24.5719   22.0248 H   0  0  0  0  0  0
  -30.7913  -17.4215   19.9456 H   0  0  0  0  0  0
  -29.1091  -17.4251   20.5155 H   0  0  0  0  0  0
  -30.1314  -16.8800   22.8338 H   0  0  0  0  0  0
  -31.6614  -16.6544   22.0178 H   0  0  0  0  0  0
  -29.5670  -26.8859   21.7282 H   0  0  0  0  0  0
  -27.9999  -26.2012   22.0942 H   0  0  0  0  0  0
  -29.3313  -14.9059   21.9933 H   0  0  0  0  0  0
  1 25  1  0  0  0
  1 30  2  0  0  0
  1 85  1  0  0  0
  2  3  1  0  0  0
  2 25  1  0  0  0
  2 86  1  0  0  0
  2 87  1  0  0  0
  3  4  1  0  0  0
  3 88  1  0  0  0
  3 89  1  0  0  0
  4  5  1  0  0  0
  4 90  1  0  0  0
  4 91  1  0  0  0
  5  6  1  0  0  0
  5 26  1  0  0  0
  5 92  1  0  0  0
  6 25  1  0  0  0
  6 93  1  0  0  0
  6 94  1  0  0  0
  7  8  2  0  0  0
  7 26  1  0  0  0
  7 29  1  0  0  0
  8  9  1  0  0  0
  8 22  1  0  0  0
  9 10  1  0  0  0
  9 27  2  0  0  0
 10 11  2  0  0  0
 10 15  1  0  0  0
 11 12  1  0  0  0
 11 95  1  0  0  0
 12 13  2  0  0  0
 12 96  1  0  0  0
 13 14  1  0  0  0
 13 31  1  0  0  0
 14 15  2  0  0  0
 14 97  1  0  0  0
 15 98  1  0  0  0
 16 17  2  0  0  0
 16 21  1  0  0  0
 16 31  1  0  0  0
 17 18  1  0  0  0
 17 99  1  0  0  0
 18 19  2  0  0  0
 18100  1  0  0  0
 19 20  1  0  0  0
 19 24  1  0  0  0
 20 21  2  0  0  0
 20101  1  0  0  0
 21 23  1  0  0  0
 22 28  1  0  0  0
 22 32  2  0  0  0
 26 27  1  0  0  0
 28102  1  0  0  0
 28103  1  0  0  0
 29104  1  0  0  0
 29105  1  0  0  0
 33 34  1  0  0  0
 33 66  1  0  0  0
 33 70  2  0  0  0
 34 36  1  0  0  0
 34 59  1  0  0  0
 34106  1  0  0  0
 35 44  2  0  0  0
 35 45  1  0  0  0
 35 68  1  0  0  0
 36 56  1  0  0  0
 36107  1  0  0  0
 37 39  1  0  0  0
 37 47  1  0  0  0
 37 66  1  0  0  0
 37108  1  0  0  0
 38 43  2  0  0  0
 38 46  1  0  0  0
 38 47  1  0  0  0
 39 64  1  0  0  0
 39 67  2  0  0  0
 40 52  1  0  0  0
 40 53  2  0  0  0
 40 58  1  0  0  0
 41109  1  0  0  0
 41110  1  0  0  0
 41111  1  0  0  0
 41 48  1  0  0  0
 42 43  1  0  0  0
 42 66  1  0  0  0
 42112  1  0  0  0
 42113  1  0  0  0
 43 44  1  0  0  0
 44114  1  0  0  0
 45 46  2  0  0  0
 45115  1  0  0  0
 46116  1  0  0  0
 47117  1  0  0  0
 47118  1  0  0  0
 48 56  1  0  0  0
 48 65  1  0  0  0
 48119  1  0  0  0
 49 50  1  0  0  0
 49 53  1  0  0  0
 49 64  1  0  0  0
 49120  1  0  0  0
 50 51  1  0  0  0
 50121  1  0  0  0
 50122  1  0  0  0
 51 52  1  0  0  0
 51123  1  0  0  0
 51124  1  0  0  0
 52125  1  0  0  0
 52126  1  0  0  0
 53 54  1  0  0  0
 54 55  2  0  0  0
 54127  1  0  0  0
 55 57  1  0  0  0
 55128  1  0  0  0
 56 69  2  0  0  0
 57 58  2  0  0  0
 57129  1  0  0  0
 58130  1  0  0  0
 59 60  1  0  0  0
 59 61  1  0  0  0
 59 62  1  0  0  0
 60131  1  0  0  0
 60132  1  0  0  0
 60133  1  0  0  0
 61134  1  0  0  0
 61135  1  0  0  0
 61136  1  0  0  0
 62137  1  0  0  0
 62138  1  0  0  0
 62139  1  0  0  0
 63 65  1  0  0  0
 63140  1  0  0  0
 63141  1  0  0  0
 63142  1  0  0  0
 64143  1  0  0  0
 65144  1  0  0  0
 68 82  1  0  0  0
 71 72  2  0  0  0
 71 83  1  0  0  0
 71145  1  0  0  0
 72 76  1  0  0  0
 72 84  1  0  0  0
 73 74  1  0  0  0
 73 77  1  0  0  0
 73 83  2  0  0  0
 74 78  1  0  0  0
 74 84  2  0  0  0
 75 77  1  0  0  0
 75146  1  0  0  0
 75147  1  0  0  0
 75148  1  0  0  0
 76 79  1  0  0  0
 76149  1  0  0  0
 76150  1  0  0  0
 77151  1  0  0  0
 77152  1  0  0  0
 78 80  1  0  0  0
 78153  1  0  0  0
 78154  1  0  0  0
 79 82  1  0  0  0
 79155  1  0  0  0
 79156  1  0  0  0
 80 81  1  0  0  0
 80157  1  0  0  0
 80158  1  0  0  0
 81 85  1  0  0  0
 81159  1  0  0  0
 81160  1  0  0  0
 82161  1  0  0  0
 82162  1  0  0  0
 85163  1  0  0  0
M  ISO  4   1 100  68 101  82 101  85 100
M  END
> <chiral flag>
0

> <version>
0

> <s_m_source_file>
/data/baiqing/PycharmProjects/Reinvent-master-3.2/result/LINK_invent/BTK/process_docking_weight1_custom_sum_contain_oxygen_bond_distance_aromatic_linkinvent_7_9_3/rearranged_h_0043.sdf

> <i_m_source_file_index>
76

> <r_mmod_Potential_Energy-OPLS-2005>
-22.0340251922607

> <r_mmod_Stretch_Energy-OPLS-2005>
42.5527572631836

> <r_mmod_Bend_Energy-OPLS-2005>
113.922492980957

> <r_mmod_Torsional_Energy-OPLS-2005>
216.190826416016

> <r_mmod_Improper_Torsional_Energy-OPLS-2005>
2.34616661071777

> <r_mmod_Van_der_Waal_Energy-OPLS-2005>
159.03630065918

> <r_mmod_Electrostatic_Energy-OPLS-2005>
-344.439270019531

> <r_mmod_Solvation_Energy-OPLS-2005>
-219.581359863281

> <b_mmod_Minimization_Converged-OPLS-2005>
0

> <r_mmod_RMS_Derivative-OPLS-2005>
3.72079229354858

$$$$
76
                    3D
 Structure written by MMmdl.
157165  0  0  1  0            999 V2000
  -30.6326  -14.7319   20.4633 C   0  0  0  0  0  0
  -30.4353  -12.4457   19.4702 C   0  0  0  0  0  0
  -29.5132  -12.4950   18.2342 C   0  0  0  0  0  0
  -28.0370  -12.3299   18.6464 C   0  0  0  0  0  0
  -27.6430  -13.2305   19.8468 C   0  0  2  0  0  0
  -28.6898  -13.1666   20.9812 C   0  0  0  0  0  0
  -25.2496  -13.8208   20.5630 C   0  0  0  0  0  0
  -24.1781  -13.0455   20.9161 C   0  0  0  0  0  0
  -24.6378  -11.6925   20.8722 C   0  0  0  0  0  0
  -23.9068  -10.4288   21.0406 C   0  0  0  0  0  0
  -24.3618   -9.4198   21.9183 C   0  0  0  0  0  0
  -23.6274   -8.2237   22.0763 C   0  0  0  0  0  0
  -22.4263   -8.0269   21.3541 C   0  0  0  0  0  0
  -21.9908   -9.0241   20.4645 C   0  0  0  0  0  0
  -22.7243  -10.2120   20.3045 C   0  0  0  0  0  0
  -21.6846   -6.0712   22.5257 C   0  0  0  0  0  0
  -21.4015   -6.5625   23.8185 C   0  0  0  0  0  0
  -21.3669   -5.6787   24.9159 C   0  0  0  0  0  0
  -21.6052   -4.3044   24.7215 C   0  0  0  0  0  0
  -21.8826   -3.8125   23.4337 C   0  0  0  0  0  0
  -21.9200   -4.6943   22.3389 C   0  0  0  0  0  0
  -22.7796  -13.5217   21.1837 C   0  0  0  0  0  0
  -22.1648   -4.2120   21.0965 F   0  0  0  0  0  0
  -21.5660   -3.4534   25.7733 F   0  0  0  0  0  0
  -29.9917  -13.5137   20.3948 N   0  0  0  0  0  0
  -26.2932  -12.9397   20.3239 N   0  0  0  0  0  0
  -25.9306  -11.6550   20.5750 N   0  0  0  0  0  0
  -22.0445  -12.8194   22.0391 N   0  0  0  0  0  0
  -25.4233  -15.1927   20.3984 N   0  0  0  0  0  0
  -31.8238  -14.8167   20.1540 O   0  0  0  0  0  0
  -21.6642   -6.8850   21.4212 O   0  0  0  0  0  0
  -22.3471  -14.5537   20.6711 O   0  0  0  0  0  0
  -24.6339  -31.8579   23.2008 C   0  0  0  0  0  0
  -25.9165  -32.4768   23.8355 C   0  0  1  0  0  0
  -27.2051  -27.2602   20.1059 C   0  0  0  0  0  0
  -25.5955  -33.8575   24.2292 N   0  0  0  0  0  0
  -23.4315  -30.4889   21.5448 C   0  0  2  0  0  0
  -24.8724  -28.9460   20.1117 C   0  0  0  0  0  0
  -22.7526  -29.4652   22.4909 C   0  0  0  0  0  0
  -18.0300  -28.1401   22.8551 C   0  0  0  0  0  0
  -24.1470  -36.7250   23.2658 C   0  0  0  0  0  0
  -25.9834  -30.7708   21.3809 C   0  0  0  0  0  0
  -26.0506  -29.3928   20.7232 C   0  0  0  0  0  0
  -27.2222  -28.5653   20.7166 C   0  0  0  0  0  0
  -26.0002  -26.9021   19.4537 C   0  0  0  0  0  0
  -24.8497  -27.7058   19.4681 C   0  0  0  0  0  0
  -23.6482  -29.8374   20.1570 C   0  0  0  0  0  0
  -25.4095  -36.3075   24.0363 C   0  0  1  0  0  0
  -20.5929  -28.3693   23.1279 C   0  0  2  0  0  0
  -20.6807  -26.9413   22.5385 C   0  0  0  0  0  0
  -19.5734  -26.6413   21.5231 C   0  0  0  0  0  0
  -18.1922  -26.7961   22.1657 C   0  0  0  0  0  0
  -19.1577  -28.8869   23.2928 C   0  0  0  0  0  0
  -18.9479  -30.1497   23.8901 C   0  0  0  0  0  0
  -17.6478  -30.6609   24.0604 C   0  0  0  0  0  0
  -25.9062  -34.9461   23.5123 C   0  0  0  0  0  0
  -16.5376  -29.9116   23.6352 C   0  0  0  0  0  0
  -16.7292  -28.6537   23.0386 C   0  0  0  0  0  0
  -26.4503  -31.6592   25.0730 C   0  0  0  0  0  0
  -25.3737  -31.3755   26.1451 C   0  0  0  0  0  0
  -27.0328  -30.3023   24.6177 C   0  0  0  0  0  0
  -27.6047  -32.4308   25.7506 C   0  0  0  0  0  0
  -27.5554  -37.1806   24.8483 C   0  0  0  0  0  0
  -21.4229  -29.3076   22.3681 N   0  0  0  0  0  0
  -26.4248  -37.3789   23.9459 N   0  0  0  0  0  0
  -24.7025  -31.0594   22.0952 N   0  0  0  0  0  0
  -23.4245  -28.8156   23.2968 O   0  0  0  0  0  0
  -28.2660  -26.3171   20.1594 O   0  0  0  0  0  0
  -26.5598  -34.8934   22.4669 O   0  0  0  0  0  0
  -23.5491  -32.1350   23.7331 O   0  0  0  0  0  0
  -30.6033  -22.2721   19.9624 C   0  0  0  0  0  0
  -29.6065  -21.4615   20.4660 C   0  0  0  0  0  0
  -28.8133  -23.6221   20.1209 C   0  0  0  0  0  0
  -26.6361  -22.4117   22.2498 C   0  0  0  0  0  0
  -29.7568  -20.0041   21.0560 C   0  0  0  0  0  0
  -27.8872  -24.8797   19.8989 C   0  0  0  0  0  0
  -29.5589  -18.6040   20.2674 C   0  0  0  0  0  0
  -27.1202  -21.9305   20.8727 C   0  0  0  0  0  0
  -30.3475  -17.3216   20.8771 C   0  0  0  0  0  0
  -28.4957  -22.3355   20.5116 N   0  0  0  0  0  0
  -30.1009  -23.5453   19.7804 N   0  3  0  0  0  0
  -29.8816  -15.8741   20.6872 N   0  0  0  0  0  0
  -31.4768  -12.5685   19.1653 H   0  0  0  0  0  0
  -30.3797  -11.4713   19.9578 H   0  0  0  0  0  0
  -29.7897  -11.7089   17.5302 H   0  0  0  0  0  0
  -29.6512  -13.4414   17.7087 H   0  0  0  0  0  0
  -27.8881  -11.2814   18.9079 H   0  0  0  0  0  0
  -27.3851  -12.5291   17.7948 H   0  0  0  0  0  0
  -27.6386  -14.2519   19.4671 H   0  0  0  0  0  0
  -28.7226  -12.1713   21.4263 H   0  0  0  0  0  0
  -28.4256  -13.8510   21.7891 H   0  0  0  0  0  0
  -25.2772   -9.5672   22.4748 H   0  0  0  0  0  0
  -23.9983   -7.4648   22.7498 H   0  0  0  0  0  0
  -21.0844   -8.8741   19.8952 H   0  0  0  0  0  0
  -22.3699  -10.9633   19.6134 H   0  0  0  0  0  0
  -21.1982   -7.6128   23.9667 H   0  0  0  0  0  0
  -21.1497   -6.0522   25.9059 H   0  0  0  0  0  0
  -22.0607   -2.7580   23.2840 H   0  0  0  0  0  0
  -22.4059  -11.9846   22.4750 H   0  0  0  0  0  0
  -21.1068  -13.1198   22.2612 H   0  0  0  0  0  0
  -24.6665  -15.8601   20.5091 H   0  0  0  0  0  0
  -26.2775  -15.6171   20.0570 H   0  0  0  0  0  0
  -26.7265  -32.5407   23.1128 H   0  0  0  0  0  0
  -25.0203  -33.9702   25.0506 H   0  0  0  0  0  0
  -22.7302  -31.3127   21.4092 H   0  0  0  0  0  0
  -23.3748  -35.9560   23.3317 H   0  0  0  0  0  0
  -24.3579  -36.8824   22.2065 H   0  0  0  0  0  0
  -23.7179  -37.6449   23.6647 H   0  0  0  0  0  0
  -26.1322  -31.5313   20.6130 H   0  0  0  0  0  0
  -26.8600  -30.8127   22.0160 H   0  0  0  0  0  0
  -28.1181  -28.9112   21.2162 H   0  0  0  0  0  0
  -25.8814  -25.9748   18.9164 H   0  0  0  0  0  0
  -23.9537  -27.3552   18.9758 H   0  0  0  0  0  0
  -23.7828  -30.6190   19.4085 H   0  0  0  0  0  0
  -22.7635  -29.2814   19.8424 H   0  0  0  0  0  0
  -25.1282  -36.1910   25.0854 H   0  0  0  0  0  0
  -21.0086  -28.3245   24.1389 H   0  0  0  0  0  0
  -20.5715  -26.2297   23.3602 H   0  0  0  0  0  0
  -21.6664  -26.7419   22.1167 H   0  0  0  0  0  0
  -19.6837  -25.6332   21.1220 H   0  0  0  0  0  0
  -19.6647  -27.3282   20.6822 H   0  0  0  0  0  0
  -17.4204  -26.6793   21.4049 H   0  0  0  0  0  0
  -18.0271  -26.0078   22.9014 H   0  0  0  0  0  0
  -19.7943  -30.7372   24.2208 H   0  0  0  0  0  0
  -17.5007  -31.6262   24.5239 H   0  0  0  0  0  0
  -15.5373  -30.3026   23.7648 H   0  0  0  0  0  0
  -15.8710  -28.0871   22.7066 H   0  0  0  0  0  0
  -24.5950  -30.7018   25.7865 H   0  0  0  0  0  0
  -24.8857  -32.2911   26.4795 H   0  0  0  0  0  0
  -25.8064  -30.9049   27.0295 H   0  0  0  0  0  0
  -26.2902  -29.6801   24.1144 H   0  0  0  0  0  0
  -27.4020  -29.7223   25.4649 H   0  0  0  0  0  0
  -27.8791  -30.4351   23.9438 H   0  0  0  0  0  0
  -27.2677  -33.3664   26.2014 H   0  0  0  0  0  0
  -28.3914  -32.6754   25.0354 H   0  0  0  0  0  0
  -28.0658  -31.8445   26.5477 H   0  0  0  0  0  0
  -28.2613  -38.0085   24.7564 H   0  0  0  0  0  0
  -28.1011  -36.2610   24.6260 H   0  0  0  0  0  0
  -27.2296  -37.1423   25.8902 H   0  0  0  0  0  0
  -20.9366  -29.8830   21.6956 H   0  0  0  0  0  0
  -26.0094  -38.2853   24.1456 H   0  0  0  0  0  0
  -31.6420  -22.0453   19.7623 H   0  0  0  0  0  0
  -25.6172  -22.0597   22.4262 H   0  0  0  0  0  0
  -26.6160  -23.4970   22.3310 H   0  0  0  0  0  0
  -27.2583  -22.0221   23.0554 H   0  0  0  0  0  0
  -29.1571  -19.9647   21.9652 H   0  0  0  0  0  0
  -30.7828  -19.9725   21.4194 H   0  0  0  0  0  0
  -27.6577  -24.8033   18.8357 H   0  0  0  0  0  0
  -26.9715  -24.6549   20.4421 H   0  0  0  0  0  0
  -29.8869  -18.7379   19.2345 H   0  0  0  0  0  0
  -28.4933  -18.3797   20.2086 H   0  0  0  0  0  0
  -26.4476  -22.2877   20.0925 H   0  0  0  0  0  0
  -27.0684  -20.8422   20.8338 H   0  0  0  0  0  0
  -30.4055  -17.4652   21.9584 H   0  0  0  0  0  0
  -31.3813  -17.3895   20.5361 H   0  0  0  0  0  0
  -30.6308  -24.3298   19.4176 H   0  0  0  0  0  0
  -28.9075  -15.7016   20.8805 H   0  0  0  0  0  0
  1 25  1  0  0  0
  1 30  2  0  0  0
  1 82  1  0  0  0
  2  3  1  0  0  0
  2 25  1  0  0  0
  2 83  1  0  0  0
  2 84  1  0  0  0
  3  4  1  0  0  0
  3 85  1  0  0  0
  3 86  1  0  0  0
  4  5  1  0  0  0
  4 87  1  0  0  0
  4 88  1  0  0  0
  5  6  1  0  0  0
  5 26  1  0  0  0
  5 89  1  0  0  0
  6 25  1  0  0  0
  6 90  1  0  0  0
  6 91  1  0  0  0
  7  8  2  0  0  0
  7 26  1  0  0  0
  7 29  1  0  0  0
  8  9  1  0  0  0
  8 22  1  0  0  0
  9 10  1  0  0  0
  9 27  2  0  0  0
 10 11  2  0  0  0
 10 15  1  0  0  0
 11 12  1  0  0  0
 11 92  1  0  0  0
 12 13  2  0  0  0
 12 93  1  0  0  0
 13 14  1  0  0  0
 13 31  1  0  0  0
 14 15  2  0  0  0
 14 94  1  0  0  0
 15 95  1  0  0  0
 16 17  2  0  0  0
 16 21  1  0  0  0
 16 31  1  0  0  0
 17 18  1  0  0  0
 17 96  1  0  0  0
 18 19  2  0  0  0
 18 97  1  0  0  0
 19 20  1  0  0  0
 19 24  1  0  0  0
 20 21  2  0  0  0
 20 98  1  0  0  0
 21 23  1  0  0  0
 22 28  1  0  0  0
 22 32  2  0  0  0
 26 27  1  0  0  0
 28 99  1  0  0  0
 28100  1  0  0  0
 29101  1  0  0  0
 29102  1  0  0  0
 33 34  1  0  0  0
 33 66  1  0  0  0
 33 70  2  0  0  0
 34 36  1  0  0  0
 34 59  1  0  0  0
 34103  1  0  0  0
 35 44  2  0  0  0
 35 45  1  0  0  0
 35 68  1  0  0  0
 36 56  1  0  0  0
 36104  1  0  0  0
 37 39  1  0  0  0
 37 47  1  0  0  0
 37 66  1  0  0  0
 37105  1  0  0  0
 38 43  2  0  0  0
 38 46  1  0  0  0
 38 47  1  0  0  0
 39 64  1  0  0  0
 39 67  2  0  0  0
 40 52  1  0  0  0
 40 53  2  0  0  0
 40 58  1  0  0  0
 41106  1  0  0  0
 41107  1  0  0  0
 41108  1  0  0  0
 41 48  1  0  0  0
 42 43  1  0  0  0
 42 66  1  0  0  0
 42109  1  0  0  0
 42110  1  0  0  0
 43 44  1  0  0  0
 44111  1  0  0  0
 45 46  2  0  0  0
 45112  1  0  0  0
 46113  1  0  0  0
 47114  1  0  0  0
 47115  1  0  0  0
 48 56  1  0  0  0
 48 65  1  0  0  0
 48116  1  0  0  0
 49 50  1  0  0  0
 49 53  1  0  0  0
 49 64  1  0  0  0
 49117  1  0  0  0
 50 51  1  0  0  0
 50118  1  0  0  0
 50119  1  0  0  0
 51 52  1  0  0  0
 51120  1  0  0  0
 51121  1  0  0  0
 52122  1  0  0  0
 52123  1  0  0  0
 53 54  1  0  0  0
 54 55  2  0  0  0
 54124  1  0  0  0
 55 57  1  0  0  0
 55125  1  0  0  0
 56 69  2  0  0  0
 57 58  2  0  0  0
 57126  1  0  0  0
 58127  1  0  0  0
 59 60  1  0  0  0
 59 61  1  0  0  0
 59 62  1  0  0  0
 60128  1  0  0  0
 60129  1  0  0  0
 60130  1  0  0  0
 61131  1  0  0  0
 61132  1  0  0  0
 61133  1  0  0  0
 62134  1  0  0  0
 62135  1  0  0  0
 62136  1  0  0  0
 63 65  1  0  0  0
 63137  1  0  0  0
 63138  1  0  0  0
 63139  1  0  0  0
 64140  1  0  0  0
 65141  1  0  0  0
 68 76  1  0  0  0
 71 72  2  0  0  0
 71 81  1  0  0  0
 71142  1  0  0  0
 72 75  1  0  0  0
 72 80  1  0  0  0
 73 76  1  0  0  0
 73 80  1  0  0  0
 73 81  2  0  0  0
 74 78  1  0  0  0
 74143  1  0  0  0
 74144  1  0  0  0
 74145  1  0  0  0
 75 77  1  0  0  0
 75146  1  0  0  0
 75147  1  0  0  0
 76148  1  0  0  0
 76149  1  0  0  0
 77 79  1  0  0  0
 77150  1  0  0  0
 77151  1  0  0  0
 78 80  1  0  0  0
 78152  1  0  0  0
 78153  1  0  0  0
 79 82  1  0  0  0
 79154  1  0  0  0
 79155  1  0  0  0
 81156  1  0  0  0
 82157  1  0  0  0
M  CHG  1  81   1
M  ISO  4   1 100  68 101  76 101  82 100
M  END
> <chiral flag>
0

> <version>
0

> <s_m_source_file>
/data/baiqing/PycharmProjects/Reinvent-master-3.2/result/LINK_invent/BTK/process_docking_weight1_custom_sum_contain_oxygen_bond_distance_aromatic_linkinvent_7_9_3/rearranged_h_0043.sdf

> <i_m_source_file_index>
77

> <r_mmod_Potential_Energy-OPLS-2005>
96.5787506103516

> <r_mmod_Stretch_Energy-OPLS-2005>
122.097343444824

> <r_mmod_Bend_Energy-OPLS-2005>
182.202133178711

> <r_mmod_Torsional_Energy-OPLS-2005>
229.617965698242

> <r_mmod_Improper_Torsional_Energy-OPLS-2005>
5.87357139587402

> <r_mmod_Van_der_Waal_Energy-OPLS-2005>
123.076202392578

> <r_mmod_Electrostatic_Energy-OPLS-2005>
-231.01692199707

> <r_mmod_Solvation_Energy-OPLS-2005>
-423.294982910156

> <b_mmod_Minimization_Converged-OPLS-2005>
0

> <r_mmod_RMS_Derivative-OPLS-2005>
5.0141658782959

$$$$
77
                    3D
 Structure written by MMmdl.
153161  0  0  1  0            999 V2000
  -30.6842  -14.5555   20.5486 C   0  0  0  0  0  0
  -30.4252  -12.3572   19.4328 C   0  0  0  0  0  0
  -29.4958  -12.5026   18.2105 C   0  0  0  0  0  0
  -28.0196  -12.3503   18.6269 C   0  0  0  0  0  0
  -27.6532  -13.2152   19.8629 C   0  0  2  0  0  0
  -28.6981  -13.0526   20.9885 C   0  0  0  0  0  0
  -25.2560  -13.8176   20.5686 C   0  0  0  0  0  0
  -24.1825  -13.0440   20.9186 C   0  0  0  0  0  0
  -24.6392  -11.6911   20.8739 C   0  0  0  0  0  0
  -23.9064  -10.4294   21.0406 C   0  0  0  0  0  0
  -24.3617   -9.4209   21.9183 C   0  0  0  0  0  0
  -23.6293   -8.2244   22.0754 C   0  0  0  0  0  0
  -22.4275   -8.0282   21.3546 C   0  0  0  0  0  0
  -21.9910   -9.0255   20.4647 C   0  0  0  0  0  0
  -22.7238  -10.2134   20.3055 C   0  0  0  0  0  0
  -21.6853   -6.0737   22.5280 C   0  0  0  0  0  0
  -21.4014   -6.5641   23.8213 C   0  0  0  0  0  0
  -21.3658   -5.6794   24.9175 C   0  0  0  0  0  0
  -21.6043   -4.3056   24.7226 C   0  0  0  0  0  0
  -21.8819   -3.8148   23.4347 C   0  0  0  0  0  0
  -21.9193   -4.6965   22.3403 C   0  0  0  0  0  0
  -22.7848  -13.5233   21.1850 C   0  0  0  0  0  0
  -22.1661   -4.2151   21.0981 F   0  0  0  0  0  0
  -21.5628   -3.4539   25.7738 F   0  0  0  0  0  0
  -30.0166  -13.3717   20.4205 N   0  0  0  0  0  0
  -26.2987  -12.9356   20.3326 N   0  0  0  0  0  0
  -25.9319  -11.6509   20.5759 N   0  0  0  0  0  0
  -22.0492  -12.8223   22.0406 N   0  0  0  0  0  0
  -25.4275  -15.1896   20.4102 N   0  0  0  0  0  0
  -31.8394  -14.7002   20.1411 O   0  0  0  0  0  0
  -21.6639   -6.8879   21.4241 O   0  0  0  0  0  0
  -22.3534  -14.5541   20.6702 O   0  0  0  0  0  0
  -24.6218  -31.8645   23.2067 C   0  0  0  0  0  0
  -25.9086  -32.4804   23.8377 C   0  0  1  0  0  0
  -27.2204  -27.3655   20.1033 C   0  0  0  0  0  0
  -25.5918  -33.8603   24.2305 N   0  0  0  0  0  0
  -23.4117  -30.4911   21.5494 C   0  0  2  0  0  0
  -24.8556  -28.9554   20.1114 C   0  0  0  0  0  0
  -22.7447  -29.4652   22.4958 C   0  0  0  0  0  0
  -18.0281  -28.1384   22.8488 C   0  0  0  0  0  0
  -24.1489  -36.7305   23.2638 C   0  0  0  0  0  0
  -25.9497  -30.8100   21.3702 C   0  0  0  0  0  0
  -26.0240  -29.4421   20.7111 C   0  0  0  0  0  0
  -27.2105  -28.6584   20.6984 C   0  0  0  0  0  0
  -26.0275  -26.9214   19.4845 C   0  0  0  0  0  0
  -24.8566  -27.6978   19.4920 C   0  0  0  0  0  0
  -23.6222  -29.8299   20.1630 C   0  0  0  0  0  0
  -25.4112  -36.3099   24.0334 C   0  0  1  0  0  0
  -20.5877  -28.3679   23.1298 C   0  0  2  0  0  0
  -20.6773  -26.9409   22.5411 C   0  0  0  0  0  0
  -19.5750  -26.6388   21.5210 C   0  0  0  0  0  0
  -18.1928  -26.7928   22.1623 C   0  0  0  0  0  0
  -19.1533  -28.8846   23.2890 C   0  0  0  0  0  0
  -18.9460  -30.1449   23.8907 C   0  0  0  0  0  0
  -17.6462  -30.6587   24.0566 C   0  0  0  0  0  0
  -25.9047  -34.9467   23.5119 C   0  0  0  0  0  0
  -16.5352  -29.9089   23.6331 C   0  0  0  0  0  0
  -16.7270  -28.6506   23.0351 C   0  0  0  0  0  0
  -26.4487  -31.6595   25.0726 C   0  0  0  0  0  0
  -25.3734  -31.3722   26.1464 C   0  0  0  0  0  0
  -27.0318  -30.3029   24.6139 C   0  0  0  0  0  0
  -27.6058  -32.4319   25.7490 C   0  0  0  0  0  0
  -27.5581  -37.1804   24.8465 C   0  0  0  0  0  0
  -21.4168  -29.3042   22.3698 N   0  0  0  0  0  0
  -26.4295  -37.3787   23.9410 N   0  0  0  0  0  0
  -24.6801  -31.0699   22.0998 N   0  0  0  0  0  0
  -23.4195  -28.8187   23.3015 O   0  0  0  0  0  0
  -28.3509  -26.5470   20.1440 O   0  0  0  0  0  0
  -26.5610  -34.8924   22.4681 O   0  0  0  0  0  0
  -23.5395  -32.1423   23.7426 O   0  0  0  0  0  0
  -28.0665  -21.1936   21.9576 C   0  0  0  0  0  0
  -29.3903  -21.5240   20.2587 C   0  0  0  0  0  0
  -28.8272  -20.4858   20.9805 C   0  0  0  0  0  0
  -28.8581  -18.9406   20.8639 C   0  0  0  0  0  0
  -30.2337  -18.2300   20.6521 C   0  0  0  0  0  0
  -29.3139  -24.1518   20.4566 C   0  0  0  0  0  0
  -30.5290  -16.9213   21.4815 C   0  0  0  0  0  0
  -28.1102  -25.1006   20.1219 C   0  0  0  0  0  0
  -28.1515  -22.5138   21.8531 N   0  0  0  0  0  0
  -28.9550  -22.7459   20.7919 N   0  0  0  0  0  0
  -29.9780  -15.6125   21.0299 N   0  0  0  0  0  0
  -31.4676  -12.4662   19.1284 H   0  0  0  0  0  0
  -30.3438  -11.3583   19.8640 H   0  0  0  0  0  0
  -29.7491  -11.7592   17.4534 H   0  0  0  0  0  0
  -29.6471  -13.4780   17.7448 H   0  0  0  0  0  0
  -27.8478  -11.2965   18.8498 H   0  0  0  0  0  0
  -27.3644  -12.5931   17.7895 H   0  0  0  0  0  0
  -27.6794  -14.2541   19.5333 H   0  0  0  0  0  0
  -28.6956  -12.0303   21.3690 H   0  0  0  0  0  0
  -28.4534  -13.6869   21.8417 H   0  0  0  0  0  0
  -25.2764   -9.5683   22.4755 H   0  0  0  0  0  0
  -24.0003   -7.4636   22.7474 H   0  0  0  0  0  0
  -21.0842   -8.8775   19.8953 H   0  0  0  0  0  0
  -22.3699  -10.9672   19.6163 H   0  0  0  0  0  0
  -21.2008   -7.6149   23.9718 H   0  0  0  0  0  0
  -21.1479   -6.0523   25.9077 H   0  0  0  0  0  0
  -22.0600   -2.7611   23.2847 H   0  0  0  0  0  0
  -22.4108  -11.9881   22.4788 H   0  0  0  0  0  0
  -21.1111  -13.1248   22.2617 H   0  0  0  0  0  0
  -24.6613  -15.8449   20.5199 H   0  0  0  0  0  0
  -26.2787  -15.6286   20.0825 H   0  0  0  0  0  0
  -26.7155  -32.5491   23.1131 H   0  0  0  0  0  0
  -25.0065  -33.9756   25.0449 H   0  0  0  0  0  0
  -22.7034  -31.3108   21.4107 H   0  0  0  0  0  0
  -23.3749  -35.9639   23.3307 H   0  0  0  0  0  0
  -24.3581  -36.8918   22.2050 H   0  0  0  0  0  0
  -23.7244  -37.6512   23.6653 H   0  0  0  0  0  0
  -26.0735  -31.5759   20.6032 H   0  0  0  0  0  0
  -26.8338  -30.8587   21.9944 H   0  0  0  0  0  0
  -28.1083  -29.0271   21.1749 H   0  0  0  0  0  0
  -25.9659  -25.9638   18.9911 H   0  0  0  0  0  0
  -23.9605  -27.3188   19.0201 H   0  0  0  0  0  0
  -23.7364  -30.6081   19.4077 H   0  0  0  0  0  0
  -22.7431  -29.2567   19.8625 H   0  0  0  0  0  0
  -25.1287  -36.1960   25.0827 H   0  0  0  0  0  0
  -20.9970  -28.3249   24.1419 H   0  0  0  0  0  0
  -20.5679  -26.2286   23.3603 H   0  0  0  0  0  0
  -21.6643  -26.7450   22.1200 H   0  0  0  0  0  0
  -19.6916  -25.6301   21.1235 H   0  0  0  0  0  0
  -19.6693  -27.3203   20.6745 H   0  0  0  0  0  0
  -17.4199  -26.6678   21.4024 H   0  0  0  0  0  0
  -18.0330  -26.0066   22.9017 H   0  0  0  0  0  0
  -19.7936  -30.7261   24.2279 H   0  0  0  0  0  0
  -17.5019  -31.6267   24.5166 H   0  0  0  0  0  0
  -15.5353  -30.2996   23.7648 H   0  0  0  0  0  0
  -15.8670  -28.0831   22.7060 H   0  0  0  0  0  0
  -24.5917  -30.7058   25.7801 H   0  0  0  0  0  0
  -24.8911  -32.2883   26.4885 H   0  0  0  0  0  0
  -25.8070  -30.8913   27.0241 H   0  0  0  0  0  0
  -26.2875  -29.6789   24.1179 H   0  0  0  0  0  0
  -27.4056  -29.7270   25.4615 H   0  0  0  0  0  0
  -27.8727  -30.4332   23.9323 H   0  0  0  0  0  0
  -27.2680  -33.3617   26.2080 H   0  0  0  0  0  0
  -28.3858  -32.6885   25.0309 H   0  0  0  0  0  0
  -28.0737  -31.8437   26.5394 H   0  0  0  0  0  0
  -28.2602  -38.0097   24.7507 H   0  0  0  0  0  0
  -28.1074  -36.2629   24.6294 H   0  0  0  0  0  0
  -27.2301  -37.1458   25.8869 H   0  0  0  0  0  0
  -20.9332  -29.8776   21.6928 H   0  0  0  0  0  0
  -26.0184  -38.2866   24.1407 H   0  0  0  0  0  0
  -27.4457  -20.7818   22.7413 H   0  0  0  0  0  0
  -30.0597  -21.4981   19.4095 H   0  0  0  0  0  0
  -28.1866  -18.6153   20.0685 H   0  0  0  0  0  0
  -28.4128  -18.5186   21.7659 H   0  0  0  0  0  0
  -30.9994  -18.9453   20.9555 H   0  0  0  0  0  0
  -30.4161  -18.0651   19.5894 H   0  0  0  0  0  0
  -29.8546  -24.5574   21.3121 H   0  0  0  0  0  0
  -30.0213  -24.1441   19.6272 H   0  0  0  0  0  0
  -30.2008  -17.0754   22.5102 H   0  0  0  0  0  0
  -31.6136  -16.8233   21.5586 H   0  0  0  0  0  0
  -27.3055  -24.8882   20.8279 H   0  0  0  0  0  0
  -27.7498  -24.8078   19.1358 H   0  0  0  0  0  0
  -29.0161  -15.4204   21.2689 H   0  0  0  0  0  0
  1 25  1  0  0  0
  1 30  2  0  0  0
  1 81  1  0  0  0
  2  3  1  0  0  0
  2 25  1  0  0  0
  2 82  1  0  0  0
  2 83  1  0  0  0
  3  4  1  0  0  0
  3 84  1  0  0  0
  3 85  1  0  0  0
  4  5  1  0  0  0
  4 86  1  0  0  0
  4 87  1  0  0  0
  5  6  1  0  0  0
  5 26  1  0  0  0
  5 88  1  0  0  0
  6 25  1  0  0  0
  6 89  1  0  0  0
  6 90  1  0  0  0
  7  8  2  0  0  0
  7 26  1  0  0  0
  7 29  1  0  0  0
  8  9  1  0  0  0
  8 22  1  0  0  0
  9 10  1  0  0  0
  9 27  2  0  0  0
 10 11  2  0  0  0
 10 15  1  0  0  0
 11 12  1  0  0  0
 11 91  1  0  0  0
 12 13  2  0  0  0
 12 92  1  0  0  0
 13 14  1  0  0  0
 13 31  1  0  0  0
 14 15  2  0  0  0
 14 93  1  0  0  0
 15 94  1  0  0  0
 16 17  2  0  0  0
 16 21  1  0  0  0
 16 31  1  0  0  0
 17 18  1  0  0  0
 17 95  1  0  0  0
 18 19  2  0  0  0
 18 96  1  0  0  0
 19 20  1  0  0  0
 19 24  1  0  0  0
 20 21  2  0  0  0
 20 97  1  0  0  0
 21 23  1  0  0  0
 22 28  1  0  0  0
 22 32  2  0  0  0
 26 27  1  0  0  0
 28 98  1  0  0  0
 28 99  1  0  0  0
 29100  1  0  0  0
 29101  1  0  0  0
 33 34  1  0  0  0
 33 66  1  0  0  0
 33 70  2  0  0  0
 34 36  1  0  0  0
 34 59  1  0  0  0
 34102  1  0  0  0
 35 44  2  0  0  0
 35 45  1  0  0  0
 35 68  1  0  0  0
 36 56  1  0  0  0
 36103  1  0  0  0
 37 39  1  0  0  0
 37 47  1  0  0  0
 37 66  1  0  0  0
 37104  1  0  0  0
 38 43  2  0  0  0
 38 46  1  0  0  0
 38 47  1  0  0  0
 39 64  1  0  0  0
 39 67  2  0  0  0
 40 52  1  0  0  0
 40 53  2  0  0  0
 40 58  1  0  0  0
 41105  1  0  0  0
 41106  1  0  0  0
 41107  1  0  0  0
 41 48  1  0  0  0
 42 43  1  0  0  0
 42 66  1  0  0  0
 42108  1  0  0  0
 42109  1  0  0  0
 43 44  1  0  0  0
 44110  1  0  0  0
 45 46  2  0  0  0
 45111  1  0  0  0
 46112  1  0  0  0
 47113  1  0  0  0
 47114  1  0  0  0
 48 56  1  0  0  0
 48 65  1  0  0  0
 48115  1  0  0  0
 49 50  1  0  0  0
 49 53  1  0  0  0
 49 64  1  0  0  0
 49116  1  0  0  0
 50 51  1  0  0  0
 50117  1  0  0  0
 50118  1  0  0  0
 51 52  1  0  0  0
 51119  1  0  0  0
 51120  1  0  0  0
 52121  1  0  0  0
 52122  1  0  0  0
 53 54  1  0  0  0
 54 55  2  0  0  0
 54123  1  0  0  0
 55 57  1  0  0  0
 55124  1  0  0  0
 56 69  2  0  0  0
 57 58  2  0  0  0
 57125  1  0  0  0
 58126  1  0  0  0
 59 60  1  0  0  0
 59 61  1  0  0  0
 59 62  1  0  0  0
 60127  1  0  0  0
 60128  1  0  0  0
 60129  1  0  0  0
 61130  1  0  0  0
 61131  1  0  0  0
 61132  1  0  0  0
 62133  1  0  0  0
 62134  1  0  0  0
 62135  1  0  0  0
 63 65  1  0  0  0
 63136  1  0  0  0
 63137  1  0  0  0
 63138  1  0  0  0
 64139  1  0  0  0
 65140  1  0  0  0
 68 78  1  0  0  0
 71 73  1  0  0  0
 71 79  2  0  0  0
 71141  1  0  0  0
 72 73  2  0  0  0
 72 80  1  0  0  0
 72142  1  0  0  0
 73 74  1  0  0  0
 74 75  1  0  0  0
 74143  1  0  0  0
 74144  1  0  0  0
 75 77  1  0  0  0
 75145  1  0  0  0
 75146  1  0  0  0
 76 78  1  0  0  0
 76 80  1  0  0  0
 76147  1  0  0  0
 76148  1  0  0  0
 77 81  1  0  0  0
 77149  1  0  0  0
 77150  1  0  0  0
 78151  1  0  0  0
 78152  1  0  0  0
 79 80  1  0  0  0
 81153  1  0  0  0
M  ISO  4   1 100  68 101  78 101  81 100
M  END
> <chiral flag>
0

> <version>
0

> <s_m_source_file>
/data/baiqing/PycharmProjects/Reinvent-master-3.2/result/LINK_invent/BTK/process_docking_weight1_custom_sum_contain_oxygen_bond_distance_aromatic_linkinvent_7_9_3/rearranged_h_0043.sdf

> <i_m_source_file_index>
78

> <r_mmod_Potential_Energy-OPLS-2005>
-19.8215217590332

> <r_mmod_Stretch_Energy-OPLS-2005>
54.421257019043

> <r_mmod_Bend_Energy-OPLS-2005>
120.466575622559

> <r_mmod_Torsional_Energy-OPLS-2005>
224.382690429688

> <r_mmod_Improper_Torsional_Energy-OPLS-2005>
3.40023136138916

> <r_mmod_Van_der_Waal_Energy-OPLS-2005>
128.447006225586

> <r_mmod_Electrostatic_Energy-OPLS-2005>
-351.768524169922

> <r_mmod_Solvation_Energy-OPLS-2005>
-228.601013183594

> <b_mmod_Minimization_Converged-OPLS-2005>
0

> <r_mmod_RMS_Derivative-OPLS-2005>
0.414904087781906

$$$$
78
                    3D
 Structure written by MMmdl.
163171  0  0  1  0            999 V2000
  -30.7412  -14.3893   20.6413 C   0  0  0  0  0  0
  -30.4323  -12.2742   19.4164 C   0  0  0  0  0  0
  -29.5057  -12.5233   18.2089 C   0  0  0  0  0  0
  -28.0250  -12.3838   18.6130 C   0  0  0  0  0  0
  -27.6784  -13.2016   19.8861 C   0  0  2  0  0  0
  -28.7149  -12.9347   21.0038 C   0  0  0  0  0  0
  -25.2650  -13.8154   20.5647 C   0  0  0  0  0  0
  -24.1892  -13.0442   20.9130 C   0  0  0  0  0  0
  -24.6444  -11.6906   20.8723 C   0  0  0  0  0  0
  -23.9104  -10.4295   21.0410 C   0  0  0  0  0  0
  -24.3656   -9.4203   21.9182 C   0  0  0  0  0  0
  -23.6318   -8.2251   22.0766 C   0  0  0  0  0  0
  -22.4294   -8.0296   21.3561 C   0  0  0  0  0  0
  -21.9937   -9.0277   20.4659 C   0  0  0  0  0  0
  -22.7283  -10.2139   20.3057 C   0  0  0  0  0  0
  -21.6852   -6.0744   22.5286 C   0  0  0  0  0  0
  -21.4018   -6.5645   23.8219 C   0  0  0  0  0  0
  -21.3657   -5.6788   24.9174 C   0  0  0  0  0  0
  -21.6049   -4.3058   24.7219 C   0  0  0  0  0  0
  -21.8812   -3.8149   23.4340 C   0  0  0  0  0  0
  -21.9190   -4.6974   22.3395 C   0  0  0  0  0  0
  -22.7896  -13.5245   21.1762 C   0  0  0  0  0  0
  -22.1653   -4.2161   21.0975 F   0  0  0  0  0  0
  -21.5635   -3.4535   25.7727 F   0  0  0  0  0  0
  -30.0607  -13.2252   20.4718 N   0  0  0  0  0  0
  -26.3124  -12.9339   20.3391 N   0  0  0  0  0  0
  -25.9381  -11.6498   20.5770 N   0  0  0  0  0  0
  -22.0535  -12.8266   22.0344 N   0  0  0  0  0  0
  -25.4348  -15.1881   20.4076 N   0  0  0  0  0  0
  -31.7814  -14.6670   20.0384 O   0  0  0  0  0  0
  -21.6651   -6.8902   21.4255 O   0  0  0  0  0  0
  -22.3576  -14.5531   20.6568 O   0  0  0  0  0  0
  -24.6105  -31.8720   23.2161 C   0  0  0  0  0  0
  -25.9015  -32.4844   23.8428 C   0  0  1  0  0  0
  -27.2169  -27.4764   20.0848 C   0  0  0  0  0  0
  -25.5902  -33.8643   24.2363 N   0  0  0  0  0  0
  -23.3933  -30.4957   21.5585 C   0  0  2  0  0  0
  -24.8344  -28.9631   20.1229 C   0  0  0  0  0  0
  -22.7387  -29.4653   22.5053 C   0  0  0  0  0  0
  -18.0257  -28.1359   22.8494 C   0  0  0  0  0  0
  -24.1491  -36.7330   23.2635 C   0  0  0  0  0  0
  -25.9181  -30.8454   21.3643 C   0  0  0  0  0  0
  -25.9914  -29.4799   20.7208 C   0  0  0  0  0  0
  -27.1890  -28.7379   20.7100 C   0  0  0  0  0  0
  -26.0541  -26.9587   19.4874 C   0  0  0  0  0  0
  -24.8566  -27.6972   19.5089 C   0  0  0  0  0  0
  -23.5976  -29.8290   20.1718 C   0  0  0  0  0  0
  -25.4104  -36.3118   24.0341 C   0  0  1  0  0  0
  -20.5851  -28.3618   23.1354 C   0  0  2  0  0  0
  -20.6744  -26.9365   22.5429 C   0  0  0  0  0  0
  -19.5713  -26.6374   21.5223 C   0  0  0  0  0  0
  -18.1895  -26.7906   22.1635 C   0  0  0  0  0  0
  -19.1510  -28.8809   23.2919 C   0  0  0  0  0  0
  -18.9435  -30.1431   23.8908 C   0  0  0  0  0  0
  -17.6439  -30.6572   24.0565 C   0  0  0  0  0  0
  -25.9025  -34.9483   23.5141 C   0  0  0  0  0  0
  -16.5331  -29.9072   23.6324 C   0  0  0  0  0  0
  -16.7249  -28.6490   23.0338 C   0  0  0  0  0  0
  -26.4462  -31.6606   25.0737 C   0  0  0  0  0  0
  -25.3748  -31.3705   26.1501 C   0  0  0  0  0  0
  -27.0290  -30.3056   24.6074 C   0  0  0  0  0  0
  -27.6059  -32.4306   25.7485 C   0  0  0  0  0  0
  -27.5582  -37.1821   24.8460 C   0  0  0  0  0  0
  -21.4122  -29.3008   22.3800 N   0  0  0  0  0  0
  -26.4294  -37.3806   23.9403 N   0  0  0  0  0  0
  -24.6585  -31.0862   22.1045 N   0  0  0  0  0  0
  -23.4200  -28.8180   23.3046 O   0  0  0  0  0  0
  -28.3784  -26.7723   19.9688 O   0  0  0  0  0  0
  -26.5581  -34.8921   22.4697 O   0  0  0  0  0  0
  -23.5311  -32.1467   23.7581 O   0  0  0  0  0  0
  -31.5324  -22.9870   20.0683 C   0  0  0  0  0  0
  -30.5716  -23.9162   19.6162 C   0  0  0  0  0  0
  -29.2012  -22.1816   18.9497 C   0  0  0  0  0  0
  -30.1803  -21.2481   19.3827 C   0  0  0  0  0  0
  -27.8952  -21.7422   18.3147 C   0  0  0  0  0  0
  -30.8443  -25.4063   19.7265 C   0  0  0  0  0  0
  -30.0318  -19.7422   19.2012 C   0  0  0  0  0  0
  -30.3383  -26.0312   21.0408 C   0  0  0  0  0  0
  -29.9082  -18.9804   20.5326 C   0  0  0  0  0  0
  -29.8982  -17.4547   20.3369 C   0  0  0  0  0  0
  -30.4280  -16.6895   21.5673 C   0  0  0  0  0  0
  -28.8122  -26.1124   21.1425 C   0  0  0  0  0  0
  -31.3453  -21.6529   19.9448 N   0  0  0  0  0  0
  -29.3955  -23.5208   19.0652 N   0  0  0  0  0  0
  -30.1538  -15.2594   21.4698 N   0  0  0  0  0  0
  -31.4792  -12.3716   19.1221 H   0  0  0  0  0  0
  -30.3266  -11.2521   19.7820 H   0  0  0  0  0  0
  -29.7462  -11.8352   17.3982 H   0  0  0  0  0  0
  -29.6819  -13.5273   17.8202 H   0  0  0  0  0  0
  -27.8223  -11.3259   18.7842 H   0  0  0  0  0  0
  -27.3817  -12.6867   17.7868 H   0  0  0  0  0  0
  -27.7411  -14.2559   19.6169 H   0  0  0  0  0  0
  -28.6755  -11.8923   21.3204 H   0  0  0  0  0  0
  -28.4653  -13.5064   21.8979 H   0  0  0  0  0  0
  -25.2821   -9.5655   22.4730 H   0  0  0  0  0  0
  -24.0011   -7.4654   22.7508 H   0  0  0  0  0  0
  -21.0852   -8.8824   19.8992 H   0  0  0  0  0  0
  -22.3779  -10.9677   19.6144 H   0  0  0  0  0  0
  -21.2016   -7.6157   23.9723 H   0  0  0  0  0  0
  -21.1487   -6.0524   25.9080 H   0  0  0  0  0  0
  -22.0598   -2.7616   23.2830 H   0  0  0  0  0  0
  -22.4149  -11.9936   22.4746 H   0  0  0  0  0  0
  -21.1166  -13.1327   22.2554 H   0  0  0  0  0  0
  -24.6650  -15.8405   20.5149 H   0  0  0  0  0  0
  -26.2920  -15.6355   20.1055 H   0  0  0  0  0  0
  -26.7094  -32.5565   23.1198 H   0  0  0  0  0  0
  -25.0071  -33.9816   25.0516 H   0  0  0  0  0  0
  -22.6780  -31.3098   21.4257 H   0  0  0  0  0  0
  -23.3739  -35.9683   23.3309 H   0  0  0  0  0  0
  -24.3581  -36.8930   22.2048 H   0  0  0  0  0  0
  -23.7260  -37.6546   23.6638 H   0  0  0  0  0  0
  -26.0239  -31.6056   20.5894 H   0  0  0  0  0  0
  -26.8105  -30.9033   21.9757 H   0  0  0  0  0  0
  -28.0886  -29.1384   21.1573 H   0  0  0  0  0  0
  -26.0803  -25.9957   18.9981 H   0  0  0  0  0  0
  -23.9665  -27.2951   19.0448 H   0  0  0  0  0  0
  -23.7057  -30.6048   19.4131 H   0  0  0  0  0  0
  -22.7209  -29.2491   19.8766 H   0  0  0  0  0  0
  -25.1277  -36.2004   25.0840 H   0  0  0  0  0  0
  -20.9928  -28.3149   24.1477 H   0  0  0  0  0  0
  -20.5647  -26.2211   23.3595 H   0  0  0  0  0  0
  -21.6609  -26.7409   22.1208 H   0  0  0  0  0  0
  -19.6859  -25.6296   21.1218 H   0  0  0  0  0  0
  -19.6652  -27.3209   20.6773 H   0  0  0  0  0  0
  -17.4170  -26.6671   21.4034 H   0  0  0  0  0  0
  -18.0273  -26.0057   22.9032 H   0  0  0  0  0  0
  -19.7913  -30.7250   24.2278 H   0  0  0  0  0  0
  -17.4987  -31.6247   24.5163 H   0  0  0  0  0  0
  -15.5323  -30.2965   23.7649 H   0  0  0  0  0  0
  -15.8652  -28.0824   22.7024 H   0  0  0  0  0  0
  -24.5901  -30.7073   25.7838 H   0  0  0  0  0  0
  -24.8966  -32.2870   26.4977 H   0  0  0  0  0  0
  -25.8113  -30.8851   27.0241 H   0  0  0  0  0  0
  -26.2826  -29.6820   24.1146 H   0  0  0  0  0  0
  -27.4098  -29.7279   25.4507 H   0  0  0  0  0  0
  -27.8643  -30.4383   23.9189 H   0  0  0  0  0  0
  -27.2700  -33.3599   26.2095 H   0  0  0  0  0  0
  -28.3850  -32.6875   25.0294 H   0  0  0  0  0  0
  -28.0752  -31.8413   26.5371 H   0  0  0  0  0  0
  -28.2609  -38.0112   24.7499 H   0  0  0  0  0  0
  -28.1071  -36.2640   24.6296 H   0  0  0  0  0  0
  -27.2299  -37.1487   25.8866 H   0  0  0  0  0  0
  -20.9276  -29.8784   21.7083 H   0  0  0  0  0  0
  -26.0183  -38.2893   24.1394 H   0  0  0  0  0  0
  -32.4579  -23.3172   20.5165 H   0  0  0  0  0  0
  -28.0837  -21.2768   17.3465 H   0  0  0  0  0  0
  -27.2080  -22.5751   18.1668 H   0  0  0  0  0  0
  -27.3960  -21.0122   18.9516 H   0  0  0  0  0  0
  -30.4148  -25.9165   18.8629 H   0  0  0  0  0  0
  -31.9207  -25.5652   19.6462 H   0  0  0  0  0  0
  -30.9106  -19.3953   18.6574 H   0  0  0  0  0  0
  -29.1861  -19.5013   18.5605 H   0  0  0  0  0  0
  -30.7346  -27.0442   21.1111 H   0  0  0  0  0  0
  -30.7399  -25.4889   21.8964 H   0  0  0  0  0  0
  -29.0079  -19.2962   21.0630 H   0  0  0  0  0  0
  -30.7470  -19.2531   21.1740 H   0  0  0  0  0  0
  -30.5220  -17.1976   19.4799 H   0  0  0  0  0  0
  -28.8877  -17.1299   20.0811 H   0  0  0  0  0  0
  -29.9476  -17.0619   22.4731 H   0  0  0  0  0  0
  -31.4996  -16.8621   21.6880 H   0  0  0  0  0  0
  -28.5209  -26.6434   22.0505 H   0  0  0  0  0  0
  -28.3598  -25.1208   21.1898 H   0  0  0  0  0  0
  -29.3779  -14.9036   22.0082 H   0  0  0  0  0  0
  1 25  1  0  0  0
  1 30  2  0  0  0
  1 85  1  0  0  0
  2  3  1  0  0  0
  2 25  1  0  0  0
  2 86  1  0  0  0
  2 87  1  0  0  0
  3  4  1  0  0  0
  3 88  1  0  0  0
  3 89  1  0  0  0
  4  5  1  0  0  0
  4 90  1  0  0  0
  4 91  1  0  0  0
  5  6  1  0  0  0
  5 26  1  0  0  0
  5 92  1  0  0  0
  6 25  1  0  0  0
  6 93  1  0  0  0
  6 94  1  0  0  0
  7  8  2  0  0  0
  7 26  1  0  0  0
  7 29  1  0  0  0
  8  9  1  0  0  0
  8 22  1  0  0  0
  9 10  1  0  0  0
  9 27  2  0  0  0
 10 11  2  0  0  0
 10 15  1  0  0  0
 11 12  1  0  0  0
 11 95  1  0  0  0
 12 13  2  0  0  0
 12 96  1  0  0  0
 13 14  1  0  0  0
 13 31  1  0  0  0
 14 15  2  0  0  0
 14 97  1  0  0  0
 15 98  1  0  0  0
 16 17  2  0  0  0
 16 21  1  0  0  0
 16 31  1  0  0  0
 17 18  1  0  0  0
 17 99  1  0  0  0
 18 19  2  0  0  0
 18100  1  0  0  0
 19 20  1  0  0  0
 19 24  1  0  0  0
 20 21  2  0  0  0
 20101  1  0  0  0
 21 23  1  0  0  0
 22 28  1  0  0  0
 22 32  2  0  0  0
 26 27  1  0  0  0
 28102  1  0  0  0
 28103  1  0  0  0
 29104  1  0  0  0
 29105  1  0  0  0
 33 34  1  0  0  0
 33 66  1  0  0  0
 33 70  2  0  0  0
 34 36  1  0  0  0
 34 59  1  0  0  0
 34106  1  0  0  0
 35 44  2  0  0  0
 35 45  1  0  0  0
 35 68  1  0  0  0
 36 56  1  0  0  0
 36107  1  0  0  0
 37 39  1  0  0  0
 37 47  1  0  0  0
 37 66  1  0  0  0
 37108  1  0  0  0
 38 43  2  0  0  0
 38 46  1  0  0  0
 38 47  1  0  0  0
 39 64  1  0  0  0
 39 67  2  0  0  0
 40 52  1  0  0  0
 40 53  2  0  0  0
 40 58  1  0  0  0
 41109  1  0  0  0
 41110  1  0  0  0
 41111  1  0  0  0
 41 48  1  0  0  0
 42 43  1  0  0  0
 42 66  1  0  0  0
 42112  1  0  0  0
 42113  1  0  0  0
 43 44  1  0  0  0
 44114  1  0  0  0
 45 46  2  0  0  0
 45115  1  0  0  0
 46116  1  0  0  0
 47117  1  0  0  0
 47118  1  0  0  0
 48 56  1  0  0  0
 48 65  1  0  0  0
 48119  1  0  0  0
 49 50  1  0  0  0
 49 53  1  0  0  0
 49 64  1  0  0  0
 49120  1  0  0  0
 50 51  1  0  0  0
 50121  1  0  0  0
 50122  1  0  0  0
 51 52  1  0  0  0
 51123  1  0  0  0
 51124  1  0  0  0
 52125  1  0  0  0
 52126  1  0  0  0
 53 54  1  0  0  0
 54 55  2  0  0  0
 54127  1  0  0  0
 55 57  1  0  0  0
 55128  1  0  0  0
 56 69  2  0  0  0
 57 58  2  0  0  0
 57129  1  0  0  0
 58130  1  0  0  0
 59 60  1  0  0  0
 59 61  1  0  0  0
 59 62  1  0  0  0
 60131  1  0  0  0
 60132  1  0  0  0
 60133  1  0  0  0
 61134  1  0  0  0
 61135  1  0  0  0
 61136  1  0  0  0
 62137  1  0  0  0
 62138  1  0  0  0
 62139  1  0  0  0
 63 65  1  0  0  0
 63140  1  0  0  0
 63141  1  0  0  0
 63142  1  0  0  0
 64143  1  0  0  0
 65144  1  0  0  0
 68 82  1  0  0  0
 71 72  2  0  0  0
 71 83  1  0  0  0
 71145  1  0  0  0
 72 76  1  0  0  0
 72 84  1  0  0  0
 73 74  1  0  0  0
 73 75  1  0  0  0
 73 84  2  0  0  0
 74 77  1  0  0  0
 74 83  2  0  0  0
 75146  1  0  0  0
 75147  1  0  0  0
 75148  1  0  0  0
 76 78  1  0  0  0
 76149  1  0  0  0
 76150  1  0  0  0
 77 79  1  0  0  0
 77151  1  0  0  0
 77152  1  0  0  0
 78 82  1  0  0  0
 78153  1  0  0  0
 78154  1  0  0  0
 79 80  1  0  0  0
 79155  1  0  0  0
 79156  1  0  0  0
 80 81  1  0  0  0
 80157  1  0  0  0
 80158  1  0  0  0
 81 85  1  0  0  0
 81159  1  0  0  0
 81160  1  0  0  0
 82161  1  0  0  0
 82162  1  0  0  0
 85163  1  0  0  0
M  ISO  4   1 100  68 101  82 101  85 100
M  END
> <chiral flag>
0

> <version>
0

> <s_m_source_file>
/data/baiqing/PycharmProjects/Reinvent-master-3.2/result/LINK_invent/BTK/process_docking_weight1_custom_sum_contain_oxygen_bond_distance_aromatic_linkinvent_7_9_3/rearranged_h_0043.sdf

> <i_m_source_file_index>
79

> <r_mmod_Potential_Energy-OPLS-2005>
-68.3614807128906

> <r_mmod_Stretch_Energy-OPLS-2005>
32.8434524536133

> <r_mmod_Bend_Energy-OPLS-2005>
88.8914566040039

> <r_mmod_Torsional_Energy-OPLS-2005>
214.017883300781

> <r_mmod_Improper_Torsional_Energy-OPLS-2005>
2.6473388671875

> <r_mmod_Van_der_Waal_Energy-OPLS-2005>
155.272003173828

> <r_mmod_Electrostatic_Energy-OPLS-2005>
-343.902709960938

> <r_mmod_Solvation_Energy-OPLS-2005>
-225.241973876953

> <b_mmod_Minimization_Converged-OPLS-2005>
0

> <r_mmod_RMS_Derivative-OPLS-2005>
3.19744420051575

$$$$
79
                    3D
 Structure written by MMmdl.
173181  0  0  1  0            999 V2000
  -30.5907  -14.7712   20.4549 C   0  0  0  0  0  0
  -30.4303  -12.4740   19.4677 C   0  0  0  0  0  0
  -29.5061  -12.5104   18.2308 C   0  0  0  0  0  0
  -28.0331  -12.3304   18.6470 C   0  0  0  0  0  0
  -27.6354  -13.2335   19.8446 C   0  0  2  0  0  0
  -28.6807  -13.1788   20.9782 C   0  0  0  0  0  0
  -25.2490  -13.8199   20.5700 C   0  0  0  0  0  0
  -24.1793  -13.0440   20.9218 C   0  0  0  0  0  0
  -24.6385  -11.6919   20.8752 C   0  0  0  0  0  0
  -23.9068  -10.4293   21.0410 C   0  0  0  0  0  0
  -24.3617   -9.4202   21.9184 C   0  0  0  0  0  0
  -23.6294   -8.2239   22.0752 C   0  0  0  0  0  0
  -22.4282   -8.0276   21.3539 C   0  0  0  0  0  0
  -21.9912   -9.0250   20.4647 C   0  0  0  0  0  0
  -22.7240  -10.2130   20.3057 C   0  0  0  0  0  0
  -21.6857   -6.0733   22.5277 C   0  0  0  0  0  0
  -21.4014   -6.5641   23.8208 C   0  0  0  0  0  0
  -21.3656   -5.6797   24.9172 C   0  0  0  0  0  0
  -21.6047   -4.3057   24.7235 C   0  0  0  0  0  0
  -21.8815   -3.8146   23.4354 C   0  0  0  0  0  0
  -21.9193   -4.6959   22.3404 C   0  0  0  0  0  0
  -22.7819  -13.5220   21.1883 C   0  0  0  0  0  0
  -22.1665   -4.2144   21.0979 F   0  0  0  0  0  0
  -21.5626   -3.4538   25.7746 F   0  0  0  0  0  0
  -29.9732  -13.5411   20.3874 N   0  0  0  0  0  0
  -26.2901  -12.9405   20.3257 N   0  0  0  0  0  0
  -25.9313  -11.6548   20.5744 N   0  0  0  0  0  0
  -22.0478  -12.8196   22.0447 N   0  0  0  0  0  0
  -25.4174  -15.1916   20.4102 N   0  0  0  0  0  0
  -31.7919  -14.8611   20.1865 O   0  0  0  0  0  0
  -21.6642   -6.8876   21.4239 O   0  0  0  0  0  0
  -22.3495  -14.5525   20.6743 O   0  0  0  0  0  0
  -24.6325  -31.8501   23.1951 C   0  0  0  0  0  0
  -25.9148  -32.4712   23.8296 C   0  0  1  0  0  0
  -27.2210  -27.2349   20.1156 C   0  0  0  0  0  0
  -25.5949  -33.8516   24.2216 N   0  0  0  0  0  0
  -23.4298  -30.4726   21.5397 C   0  0  2  0  0  0
  -24.8755  -28.9129   20.1084 C   0  0  0  0  0  0
  -22.7500  -29.4575   22.4903 C   0  0  0  0  0  0
  -18.0299  -28.1371   22.8470 C   0  0  0  0  0  0
  -24.1496  -36.7282   23.2637 C   0  0  0  0  0  0
  -25.9777  -30.7513   21.3810 C   0  0  0  0  0  0
  -26.0473  -29.3729   20.7204 C   0  0  0  0  0  0
  -27.2170  -28.5444   20.7155 C   0  0  0  0  0  0
  -26.0185  -26.8416   19.4878 C   0  0  0  0  0  0
  -24.8673  -27.6557   19.4854 C   0  0  0  0  0  0
  -23.6488  -29.8052   20.1564 C   0  0  0  0  0  0
  -25.4123  -36.3045   24.0307 C   0  0  1  0  0  0
  -20.5905  -28.3684   23.1267 C   0  0  2  0  0  0
  -20.6794  -26.9397   22.5416 C   0  0  0  0  0  0
  -19.5772  -26.6362   21.5222 C   0  0  0  0  0  0
  -18.1948  -26.7913   22.1617 C   0  0  0  0  0  0
  -19.1555  -28.8844   23.2860 C   0  0  0  0  0  0
  -18.9473  -30.1453   23.8865 C   0  0  0  0  0  0
  -17.6473  -30.6571   24.0559 C   0  0  0  0  0  0
  -25.9060  -34.9410   23.5071 C   0  0  0  0  0  0
  -16.5361  -29.9076   23.6326 C   0  0  0  0  0  0
  -16.7290  -28.6504   23.0320 C   0  0  0  0  0  0
  -26.4517  -31.6551   25.0700 C   0  0  0  0  0  0
  -25.3735  -31.3703   26.1427 C   0  0  0  0  0  0
  -27.0383  -30.2955   24.6229 C   0  0  0  0  0  0
  -27.6050  -32.4322   25.7471 C   0  0  0  0  0  0
  -27.5582  -37.1785   24.8449 C   0  0  0  0  0  0
  -21.4205  -29.3031   22.3653 N   0  0  0  0  0  0
  -26.4285  -37.3755   23.9399 N   0  0  0  0  0  0
  -24.6989  -31.0440   22.0946 N   0  0  0  0  0  0
  -23.4194  -28.8113   23.3011 O   0  0  0  0  0  0
  -28.3360  -26.3591   20.1856 O   0  0  0  0  0  0
  -26.5623  -34.8887   22.4631 O   0  0  0  0  0  0
  -23.5475  -32.1360   23.7235 O   0  0  0  0  0  0
  -27.4649  -18.6396   21.2729 C   0  0  0  0  0  0
  -28.3647  -19.4670   20.5753 C   0  0  0  0  0  0
  -27.8921  -20.8314   20.2439 C   0  0  0  0  0  0
  -26.4685  -21.0083   20.3083 C   0  0  0  0  0  0
  -25.6789  -20.0771   21.0367 C   0  0  0  0  0  0
  -24.9705  -21.6438   18.3230 C   0  0  0  0  0  0
  -24.4526  -21.9706   23.2385 C   0  0  0  0  0  0
  -23.3518  -19.0387   20.8754 C   0  0  0  0  0  0
  -29.6895  -18.7104   20.1456 C   0  0  0  0  0  0
  -28.7342  -22.1125   19.7848 C   0  0  0  0  0  0
  -25.7605  -22.1441   19.5445 C   0  0  0  0  0  0
  -23.8920  -20.6073   22.8048 C   0  0  0  0  0  0
  -28.4470  -23.5857   20.4686 C   0  0  0  0  0  0
  -30.2538  -17.3634   20.8983 C   0  0  0  0  0  0
  -28.4055  -24.9652   19.5953 C   0  0  0  0  0  0
  -24.1762  -20.2581   21.3289 C   0  0  1  0  0  0
  -26.1999  -18.9587   21.5651 N   0  0  0  0  0  0
  -29.8128  -15.9137   20.6353 N   0  0  0  0  0  0
  -31.4703  -12.6070   19.1640 H   0  0  0  0  0  0
  -30.3829  -11.5003   19.9586 H   0  0  0  0  0  0
  -29.7920  -11.7334   17.5200 H   0  0  0  0  0  0
  -29.6266  -13.4612   17.7096 H   0  0  0  0  0  0
  -27.8934  -11.2825   18.9140 H   0  0  0  0  0  0
  -27.3742  -12.5181   17.7984 H   0  0  0  0  0  0
  -27.6248  -14.2529   19.4578 H   0  0  0  0  0  0
  -28.7258  -12.1831   21.4228 H   0  0  0  0  0  0
  -28.4141  -13.8644   21.7848 H   0  0  0  0  0  0
  -25.2759   -9.5685   22.4760 H   0  0  0  0  0  0
  -24.0007   -7.4631   22.7470 H   0  0  0  0  0  0
  -21.0845   -8.8766   19.8954 H   0  0  0  0  0  0
  -22.3691  -10.9669   19.6173 H   0  0  0  0  0  0
  -21.2005   -7.6152   23.9714 H   0  0  0  0  0  0
  -21.1484   -6.0527   25.9077 H   0  0  0  0  0  0
  -22.0598   -2.7609   23.2855 H   0  0  0  0  0  0
  -22.4118  -11.9844   22.4794 H   0  0  0  0  0  0
  -21.1099  -13.1203   22.2680 H   0  0  0  0  0  0
  -24.6537  -15.8464   20.5370 H   0  0  0  0  0  0
  -26.2583  -15.6330   20.0644 H   0  0  0  0  0  0
  -26.7197  -32.5328   23.1011 H   0  0  0  0  0  0
  -25.0126  -33.9632   25.0389 H   0  0  0  0  0  0
  -22.7273  -31.2954   21.3907 H   0  0  0  0  0  0
  -23.3751  -35.9620   23.3283 H   0  0  0  0  0  0
  -24.3608  -36.8942   22.2061 H   0  0  0  0  0  0
  -23.7267  -37.6473   23.6696 H   0  0  0  0  0  0
  -26.1235  -31.5120   20.6137 H   0  0  0  0  0  0
  -26.8523  -30.7957   22.0189 H   0  0  0  0  0  0
  -28.1126  -28.8922   21.2110 H   0  0  0  0  0  0
  -25.9232  -25.8763   19.0168 H   0  0  0  0  0  0
  -23.9656  -27.2941   19.0097 H   0  0  0  0  0  0
  -23.7731  -30.5815   19.4002 H   0  0  0  0  0  0
  -22.7657  -29.2401   19.8525 H   0  0  0  0  0  0
  -25.1313  -36.1882   25.0799 H   0  0  0  0  0  0
  -20.9980  -28.3281   24.1397 H   0  0  0  0  0  0
  -20.5734  -26.2286   23.3620 H   0  0  0  0  0  0
  -21.6659  -26.7445   22.1188 H   0  0  0  0  0  0
  -19.6944  -25.6274   21.1256 H   0  0  0  0  0  0
  -19.6723  -27.3162   20.6742 H   0  0  0  0  0  0
  -17.4227  -26.6655   21.4004 H   0  0  0  0  0  0
  -18.0331  -26.0057   22.9006 H   0  0  0  0  0  0
  -19.7955  -30.7274   24.2208 H   0  0  0  0  0  0
  -17.5036  -31.6244   24.5168 H   0  0  0  0  0  0
  -15.5367  -30.2961   23.7679 H   0  0  0  0  0  0
  -15.8686  -28.0841   22.7002 H   0  0  0  0  0  0
  -24.5932  -30.7011   25.7792 H   0  0  0  0  0  0
  -24.8891  -32.2859   26.4816 H   0  0  0  0  0  0
  -25.8071  -30.8932   27.0229 H   0  0  0  0  0  0
  -26.2977  -29.6649   24.1288 H   0  0  0  0  0  0
  -27.4090  -29.7271   25.4776 H   0  0  0  0  0  0
  -27.8844  -30.4218   23.9470 H   0  0  0  0  0  0
  -27.2649  -33.3651   26.1983 H   0  0  0  0  0  0
  -28.3892  -32.6842   25.0320 H   0  0  0  0  0  0
  -28.0682  -31.8490   26.5447 H   0  0  0  0  0  0
  -28.2555  -38.0123   24.7547 H   0  0  0  0  0  0
  -28.1128  -36.2651   24.6228 H   0  0  0  0  0  0
  -27.2300  -37.1382   25.8849 H   0  0  0  0  0  0
  -20.9381  -29.8789   21.6886 H   0  0  0  0  0  0
  -26.0153  -38.2810   24.1443 H   0  0  0  0  0  0
  -27.7505  -17.6502   21.5928 H   0  0  0  0  0  0
  -24.5220  -22.4829   17.7884 H   0  0  0  0  0  0
  -24.1617  -20.9630   18.5819 H   0  0  0  0  0  0
  -25.6231  -21.1234   17.6214 H   0  0  0  0  0  0
  -24.1391  -22.2142   24.2539 H   0  0  0  0  0  0
  -24.0966  -22.7679   22.5846 H   0  0  0  0  0  0
  -25.5429  -21.9788   23.2172 H   0  0  0  0  0  0
  -23.5086  -18.8275   19.8181 H   0  0  0  0  0  0
  -22.2849  -19.2048   21.0247 H   0  0  0  0  0  0
  -23.6227  -18.1442   21.4366 H   0  0  0  0  0  0
  -30.4774  -19.4612   20.2148 H   0  0  0  0  0  0
  -29.6055  -18.4933   19.0806 H   0  0  0  0  0  0
  -28.6090  -22.2015   18.7047 H   0  0  0  0  0  0
  -29.7907  -21.8770   19.9153 H   0  0  0  0  0  0
  -26.4440  -22.8765   19.1345 H   0  0  0  0  0  0
  -25.1206  -22.7136   20.2188 H   0  0  0  0  0  0
  -22.8134  -20.6226   22.9659 H   0  0  0  0  0  0
  -24.2830  -19.8222   23.4531 H   0  0  0  0  0  0
  -29.1952  -23.7117   21.2514 H   0  0  0  0  0  0
  -27.5123  -23.5313   21.0241 H   0  0  0  0  0  0
  -30.2064  -17.5267   21.9756 H   0  0  0  0  0  0
  -31.3248  -17.3629   20.6865 H   0  0  0  0  0  0
  -27.6890  -24.8447   18.7876 H   0  0  0  0  0  0
  -29.3565  -24.9818   19.0612 H   0  0  0  0  0  0
  -23.7763  -21.0883   20.7544 H   0  0  0  0  0  0
  -28.8276  -15.7344   20.7475 H   0  0  0  0  0  0
  1 25  1  0  0  0
  1 30  2  0  0  0
  1 88  1  0  0  0
  2  3  1  0  0  0
  2 25  1  0  0  0
  2 89  1  0  0  0
  2 90  1  0  0  0
  3  4  1  0  0  0
  3 91  1  0  0  0
  3 92  1  0  0  0
  4  5  1  0  0  0
  4 93  1  0  0  0
  4 94  1  0  0  0
  5  6  1  0  0  0
  5 26  1  0  0  0
  5 95  1  0  0  0
  6 25  1  0  0  0
  6 96  1  0  0  0
  6 97  1  0  0  0
  7  8  2  0  0  0
  7 26  1  0  0  0
  7 29  1  0  0  0
  8  9  1  0  0  0
  8 22  1  0  0  0
  9 10  1  0  0  0
  9 27  2  0  0  0
 10 11  2  0  0  0
 10 15  1  0  0  0
 11 12  1  0  0  0
 11 98  1  0  0  0
 12 13  2  0  0  0
 12 99  1  0  0  0
 13 14  1  0  0  0
 13 31  1  0  0  0
 14 15  2  0  0  0
 14100  1  0  0  0
 15101  1  0  0  0
 16 17  2  0  0  0
 16 21  1  0  0  0
 16 31  1  0  0  0
 17 18  1  0  0  0
 17102  1  0  0  0
 18 19  2  0  0  0
 18103  1  0  0  0
 19 20  1  0  0  0
 19 24  1  0  0  0
 20 21  2  0  0  0
 20104  1  0  0  0
 21 23  1  0  0  0
 22 28  1  0  0  0
 22 32  2  0  0  0
 26 27  1  0  0  0
 28105  1  0  0  0
 28106  1  0  0  0
 29107  1  0  0  0
 29108  1  0  0  0
 33 34  1  0  0  0
 33 66  1  0  0  0
 33 70  2  0  0  0
 34 36  1  0  0  0
 34 59  1  0  0  0
 34109  1  0  0  0
 35 44  2  0  0  0
 35 45  1  0  0  0
 35 68  1  0  0  0
 36 56  1  0  0  0
 36110  1  0  0  0
 37 39  1  0  0  0
 37 47  1  0  0  0
 37 66  1  0  0  0
 37111  1  0  0  0
 38 43  2  0  0  0
 38 46  1  0  0  0
 38 47  1  0  0  0
 39 64  1  0  0  0
 39 67  2  0  0  0
 40 52  1  0  0  0
 40 53  2  0  0  0
 40 58  1  0  0  0
 41112  1  0  0  0
 41113  1  0  0  0
 41114  1  0  0  0
 41 48  1  0  0  0
 42 43  1  0  0  0
 42 66  1  0  0  0
 42115  1  0  0  0
 42116  1  0  0  0
 43 44  1  0  0  0
 44117  1  0  0  0
 45 46  2  0  0  0
 45118  1  0  0  0
 46119  1  0  0  0
 47120  1  0  0  0
 47121  1  0  0  0
 48 56  1  0  0  0
 48 65  1  0  0  0
 48122  1  0  0  0
 49 50  1  0  0  0
 49 53  1  0  0  0
 49 64  1  0  0  0
 49123  1  0  0  0
 50 51  1  0  0  0
 50124  1  0  0  0
 50125  1  0  0  0
 51 52  1  0  0  0
 51126  1  0  0  0
 51127  1  0  0  0
 52128  1  0  0  0
 52129  1  0  0  0
 53 54  1  0  0  0
 54 55  2  0  0  0
 54130  1  0  0  0
 55 57  1  0  0  0
 55131  1  0  0  0
 56 69  2  0  0  0
 57 58  2  0  0  0
 57132  1  0  0  0
 58133  1  0  0  0
 59 60  1  0  0  0
 59 61  1  0  0  0
 59 62  1  0  0  0
 60134  1  0  0  0
 60135  1  0  0  0
 60136  1  0  0  0
 61137  1  0  0  0
 61138  1  0  0  0
 61139  1  0  0  0
 62140  1  0  0  0
 62141  1  0  0  0
 62142  1  0  0  0
 63 65  1  0  0  0
 63143  1  0  0  0
 63144  1  0  0  0
 63145  1  0  0  0
 64146  1  0  0  0
 65147  1  0  0  0
 68 85  1  0  0  0
 71 72  2  0  0  0
 71 87  1  0  0  0
 71148  1  0  0  0
 72 73  1  0  0  0
 72 79  1  0  0  0
 73 74  2  0  0  0
 73 80  1  0  0  0
 74 75  1  0  0  0
 74 81  1  0  0  0
 75 86  1  0  0  0
 75 87  2  0  0  0
 76 81  1  0  0  0
 76149  1  0  0  0
 76150  1  0  0  0
 76151  1  0  0  0
 77 82  1  0  0  0
 77152  1  0  0  0
 77153  1  0  0  0
 77154  1  0  0  0
 78155  1  0  0  0
 78156  1  0  0  0
 78157  1  0  0  0
 78 86  1  0  0  0
 79 84  1  0  0  0
 79158  1  0  0  0
 79159  1  0  0  0
 80 83  1  0  0  0
 80160  1  0  0  0
 80161  1  0  0  0
 81162  1  0  0  0
 81163  1  0  0  0
 82 86  1  0  0  0
 82164  1  0  0  0
 82165  1  0  0  0
 83 85  1  0  0  0
 83166  1  0  0  0
 83167  1  0  0  0
 84 88  1  0  0  0
 84168  1  0  0  0
 84169  1  0  0  0
 85170  1  0  0  0
 85171  1  0  0  0
 86172  1  0  0  0
 88173  1  0  0  0
M  ISO  4   1 100  68 101  85 101  88 100
M  END
> <chiral flag>
0

> <version>
0

> <s_m_source_file>
/data/baiqing/PycharmProjects/Reinvent-master-3.2/result/LINK_invent/BTK/process_docking_weight1_custom_sum_contain_oxygen_bond_distance_aromatic_linkinvent_7_9_3/rearranged_h_0043.sdf

> <i_m_source_file_index>
80

> <r_mmod_Potential_Energy-OPLS-2005>
98.4931335449219

> <r_mmod_Stretch_Energy-OPLS-2005>
158.928604125977

> <r_mmod_Bend_Energy-OPLS-2005>
231.160369873047

> <r_mmod_Torsional_Energy-OPLS-2005>
246.375732421875

> <r_mmod_Improper_Torsional_Energy-OPLS-2005>
4.89938402175903

> <r_mmod_Van_der_Waal_Energy-OPLS-2005>
141.784255981445

> <r_mmod_Electrostatic_Energy-OPLS-2005>
-569.799560546875

> <r_mmod_Solvation_Energy-OPLS-2005>
-212.988357543945

> <b_mmod_Minimization_Converged-OPLS-2005>
0

> <r_mmod_RMS_Derivative-OPLS-2005>
1.95441937446594

$$$$
80
                    3D
 Structure written by MMmdl.
163171  0  0  1  0            999 V2000
  -30.7156  -14.6003   20.4969 C   0  0  0  0  0  0
  -30.4200  -12.3700   19.4660 C   0  0  0  0  0  0
  -29.5044  -12.4992   18.2318 C   0  0  0  0  0  0
  -28.0291  -12.3477   18.6467 C   0  0  0  0  0  0
  -27.6550  -13.2306   19.8679 C   0  0  2  0  0  0
  -28.7035  -13.1276   21.0010 C   0  0  0  0  0  0
  -25.2561  -13.8205   20.5733 C   0  0  0  0  0  0
  -24.1827  -13.0446   20.9196 C   0  0  0  0  0  0
  -24.6417  -11.6929   20.8750 C   0  0  0  0  0  0
  -23.9089  -10.4301   21.0405 C   0  0  0  0  0  0
  -24.3625   -9.4211   21.9188 C   0  0  0  0  0  0
  -23.6298   -8.2253   22.0762 C   0  0  0  0  0  0
  -22.4285   -8.0291   21.3551 C   0  0  0  0  0  0
  -21.9922   -9.0262   20.4652 C   0  0  0  0  0  0
  -22.7256  -10.2140   20.3060 C   0  0  0  0  0  0
  -21.6853   -6.0742   22.5275 C   0  0  0  0  0  0
  -21.4013   -6.5639   23.8210 C   0  0  0  0  0  0
  -21.3663   -5.6794   24.9172 C   0  0  0  0  0  0
  -21.6039   -4.3057   24.7218 C   0  0  0  0  0  0
  -21.8820   -3.8152   23.4341 C   0  0  0  0  0  0
  -21.9187   -4.6970   22.3398 C   0  0  0  0  0  0
  -22.7852  -13.5229   21.1851 C   0  0  0  0  0  0
  -22.1659   -4.2154   21.0980 F   0  0  0  0  0  0
  -21.5628   -3.4542   25.7734 F   0  0  0  0  0  0
  -30.0208  -13.4229   20.4214 N   0  0  0  0  0  0
  -26.3018  -12.9423   20.3403 N   0  0  0  0  0  0
  -25.9362  -11.6557   20.5811 N   0  0  0  0  0  0
  -22.0506  -12.8215   22.0424 N   0  0  0  0  0  0
  -25.4244  -15.1937   20.4171 N   0  0  0  0  0  0
  -31.8870  -14.6710   20.1221 O   0  0  0  0  0  0
  -21.6647   -6.8889   21.4243 O   0  0  0  0  0  0
  -22.3532  -14.5533   20.6711 O   0  0  0  0  0  0
  -24.6276  -31.8622   23.2095 C   0  0  0  0  0  0
  -25.9133  -32.4794   23.8402 C   0  0  1  0  0  0
  -27.2060  -27.3225   20.1004 C   0  0  0  0  0  0
  -25.5955  -33.8593   24.2309 N   0  0  0  0  0  0
  -23.4176  -30.4954   21.5525 C   0  0  2  0  0  0
  -24.8603  -28.9706   20.1066 C   0  0  0  0  0  0
  -22.7477  -29.4645   22.4931 C   0  0  0  0  0  0
  -18.0280  -28.1397   22.8465 C   0  0  0  0  0  0
  -24.1478  -36.7301   23.2635 C   0  0  0  0  0  0
  -25.9639  -30.7943   21.3833 C   0  0  0  0  0  0
  -26.0345  -29.4270   20.7186 C   0  0  0  0  0  0
  -27.2114  -28.6154   20.7104 C   0  0  0  0  0  0
  -26.0017  -26.9416   19.4501 C   0  0  0  0  0  0
  -24.8467  -27.7329   19.4621 C   0  0  0  0  0  0
  -23.6299  -29.8489   20.1624 C   0  0  0  0  0  0
  -25.4105  -36.3088   24.0328 C   0  0  1  0  0  0
  -20.5886  -28.3691   23.1263 C   0  0  2  0  0  0
  -20.6772  -26.9413   22.5386 C   0  0  0  0  0  0
  -19.5739  -26.6360   21.5201 C   0  0  0  0  0  0
  -18.1910  -26.7931   22.1604 C   0  0  0  0  0  0
  -19.1540  -28.8861   23.2846 C   0  0  0  0  0  0
  -18.9477  -30.1467   23.8850 C   0  0  0  0  0  0
  -17.6485  -30.6593   24.0559 C   0  0  0  0  0  0
  -25.9046  -34.9464   23.5105 C   0  0  0  0  0  0
  -16.5372  -29.9098   23.6350 C   0  0  0  0  0  0
  -16.7275  -28.6526   23.0345 C   0  0  0  0  0  0
  -26.4513  -31.6612   25.0769 C   0  0  0  0  0  0
  -25.3744  -31.3749   26.1490 C   0  0  0  0  0  0
  -27.0389  -30.3045   24.6230 C   0  0  0  0  0  0
  -27.6035  -32.4389   25.7556 C   0  0  0  0  0  0
  -27.5574  -37.1799   24.8463 C   0  0  0  0  0  0
  -21.4187  -29.3063   22.3683 N   0  0  0  0  0  0
  -26.4277  -37.3789   23.9419 N   0  0  0  0  0  0
  -24.6890  -31.0662   22.1044 N   0  0  0  0  0  0
  -23.4206  -28.8125   23.2956 O   0  0  0  0  0  0
  -28.2931  -26.4231   20.1626 O   0  0  0  0  0  0
  -26.5589  -34.8923   22.4652 O   0  0  0  0  0  0
  -23.5443  -32.1429   23.7429 O   0  0  0  0  0  0
  -29.4061  -23.3081   21.3200 C   0  0  0  0  0  0
  -29.8181  -21.1533   20.4403 C   0  0  0  0  0  0
  -29.2126  -21.5921   19.2294 C   0  0  0  0  0  0
  -28.8178  -23.7492   20.0997 C   0  0  0  0  0  0
  -29.4761  -24.2177   22.5307 C   0  0  0  0  0  0
  -27.3187  -19.3035   16.6939 C   0  0  0  0  0  0
  -30.5407  -19.7705   20.5783 C   0  0  0  0  0  0
  -29.0106  -20.6766   18.0301 C   0  0  0  0  0  0
  -27.9128  -25.0145   19.9106 C   0  0  0  0  0  0
  -27.5725  -20.1369   17.9556 C   0  0  0  0  0  0
  -29.7366  -18.4135   20.7548 C   0  0  0  0  0  0
  -30.6418  -17.1223   20.6033 C   0  0  0  0  0  0
  -29.9120  -22.0388   21.4793 N   0  0  0  0  0  0
  -28.7369  -22.8595   19.0715 N   0  0  0  0  0  0
  -30.0423  -15.7551   20.7833 N   0  0  0  0  0  0
  -31.4670  -12.4446   19.1676 H   0  0  0  0  0  0
  -30.3130  -11.3856   19.9255 H   0  0  0  0  0  0
  -29.7632  -11.7429   17.4897 H   0  0  0  0  0  0
  -29.6584  -13.4687   17.7538 H   0  0  0  0  0  0
  -27.8653  -11.2968   18.8889 H   0  0  0  0  0  0
  -27.3731  -12.5721   17.8052 H   0  0  0  0  0  0
  -27.6657  -14.2621   19.5130 H   0  0  0  0  0  0
  -28.7050  -12.1296   21.4421 H   0  0  0  0  0  0
  -28.4674  -13.8177   21.8127 H   0  0  0  0  0  0
  -25.2761   -9.5689   22.4773 H   0  0  0  0  0  0
  -23.9996   -7.4653   22.7495 H   0  0  0  0  0  0
  -21.0851   -8.8796   19.8962 H   0  0  0  0  0  0
  -22.3719  -10.9687   19.6182 H   0  0  0  0  0  0
  -21.2013   -7.6145   23.9715 H   0  0  0  0  0  0
  -21.1481   -6.0521   25.9070 H   0  0  0  0  0  0
  -22.0591   -2.7613   23.2840 H   0  0  0  0  0  0
  -22.4118  -11.9847   22.4761 H   0  0  0  0  0  0
  -21.1150  -13.1272   22.2695 H   0  0  0  0  0  0
  -24.6557  -15.8459   20.5252 H   0  0  0  0  0  0
  -26.2795  -15.6398   20.1114 H   0  0  0  0  0  0
  -26.7190  -32.5468   23.1151 H   0  0  0  0  0  0
  -25.0223  -33.9738   25.0535 H   0  0  0  0  0  0
  -22.7098  -31.3158   21.4172 H   0  0  0  0  0  0
  -23.3744  -35.9627   23.3290 H   0  0  0  0  0  0
  -24.3569  -36.8935   22.2047 H   0  0  0  0  0  0
  -23.7232  -37.6494   23.6686 H   0  0  0  0  0  0
  -26.0985  -31.5606   20.6185 H   0  0  0  0  0  0
  -26.8425  -30.8370   22.0151 H   0  0  0  0  0  0
  -28.1054  -28.9574   21.2120 H   0  0  0  0  0  0
  -25.8806  -26.0105   18.9221 H   0  0  0  0  0  0
  -23.9510  -27.3817   18.9674 H   0  0  0  0  0  0
  -23.7462  -30.6317   19.4112 H   0  0  0  0  0  0
  -22.7493  -29.2807   19.8566 H   0  0  0  0  0  0
  -25.1280  -36.1929   25.0821 H   0  0  0  0  0  0
  -20.9971  -28.3275   24.1390 H   0  0  0  0  0  0
  -20.5671  -26.2310   23.3594 H   0  0  0  0  0  0
  -21.6640  -26.7426   22.1187 H   0  0  0  0  0  0
  -19.6889  -25.6252   21.1267 H   0  0  0  0  0  0
  -19.6689  -27.3138   20.6706 H   0  0  0  0  0  0
  -17.4184  -26.6698   21.3991 H   0  0  0  0  0  0
  -18.0285  -26.0065   22.8990 H   0  0  0  0  0  0
  -19.7970  -30.7291   24.2166 H   0  0  0  0  0  0
  -17.5061  -31.6278   24.5169 H   0  0  0  0  0  0
  -15.5376  -30.3000   23.7708 H   0  0  0  0  0  0
  -15.8670  -28.0864   22.7055 H   0  0  0  0  0  0
  -24.5964  -30.7023   25.7868 H   0  0  0  0  0  0
  -24.8876  -32.2903   26.4864 H   0  0  0  0  0  0
  -25.8075  -30.9012   27.0306 H   0  0  0  0  0  0
  -26.2992  -29.6773   24.1234 H   0  0  0  0  0  0
  -27.4088  -29.7317   25.4747 H   0  0  0  0  0  0
  -27.8852  -30.4358   23.9482 H   0  0  0  0  0  0
  -27.2623  -33.3736   26.2035 H   0  0  0  0  0  0
  -28.3907  -32.6882   25.0426 H   0  0  0  0  0  0
  -28.0636  -31.8587   26.5567 H   0  0  0  0  0  0
  -28.2569  -38.0114   24.7542 H   0  0  0  0  0  0
  -28.1092  -36.2647   24.6264 H   0  0  0  0  0  0
  -27.2290  -37.1413   25.8861 H   0  0  0  0  0  0
  -20.9353  -29.8898   21.7000 H   0  0  0  0  0  0
  -26.0153  -38.2855   24.1444 H   0  0  0  0  0  0
  -30.3005  -24.9217   22.4189 H   0  0  0  0  0  0
  -29.6295  -23.6507   23.4490 H   0  0  0  0  0  0
  -28.5551  -24.7894   22.6430 H   0  0  0  0  0  0
  -26.3069  -18.8957   16.6939 H   0  0  0  0  0  0
  -28.0174  -18.4695   16.6132 H   0  0  0  0  0  0
  -27.4252  -19.9167   15.7986 H   0  0  0  0  0  0
  -31.2473  -19.8505   21.4053 H   0  0  0  0  0  0
  -31.1816  -19.6748   19.7017 H   0  0  0  0  0  0
  -29.7120  -19.8458   18.0497 H   0  0  0  0  0  0
  -29.2465  -21.2319   17.1216 H   0  0  0  0  0  0
  -27.0228  -24.7844   20.5001 H   0  0  0  0  0  0
  -27.6338  -24.9718   18.8569 H   0  0  0  0  0  0
  -27.3555  -19.5391   18.8407 H   0  0  0  0  0  0
  -26.8670  -20.9678   17.9776 H   0  0  0  0  0  0
  -28.9424  -18.3618   20.0115 H   0  0  0  0  0  0
  -29.2417  -18.4125   21.7259 H   0  0  0  0  0  0
  -31.4856  -17.2074   21.2888 H   0  0  0  0  0  0
  -31.0784  -17.1535   19.6032 H   0  0  0  0  0  0
  -29.0758  -15.6829   21.0638 H   0  0  0  0  0  0
  1 25  1  0  0  0
  1 30  2  0  0  0
  1 85  1  0  0  0
  2  3  1  0  0  0
  2 25  1  0  0  0
  2 86  1  0  0  0
  2 87  1  0  0  0
  3  4  1  0  0  0
  3 88  1  0  0  0
  3 89  1  0  0  0
  4  5  1  0  0  0
  4 90  1  0  0  0
  4 91  1  0  0  0
  5  6  1  0  0  0
  5 26  1  0  0  0
  5 92  1  0  0  0
  6 25  1  0  0  0
  6 93  1  0  0  0
  6 94  1  0  0  0
  7  8  2  0  0  0
  7 26  1  0  0  0
  7 29  1  0  0  0
  8  9  1  0  0  0
  8 22  1  0  0  0
  9 10  1  0  0  0
  9 27  2  0  0  0
 10 11  2  0  0  0
 10 15  1  0  0  0
 11 12  1  0  0  0
 11 95  1  0  0  0
 12 13  2  0  0  0
 12 96  1  0  0  0
 13 14  1  0  0  0
 13 31  1  0  0  0
 14 15  2  0  0  0
 14 97  1  0  0  0
 15 98  1  0  0  0
 16 17  2  0  0  0
 16 21  1  0  0  0
 16 31  1  0  0  0
 17 18  1  0  0  0
 17 99  1  0  0  0
 18 19  2  0  0  0
 18100  1  0  0  0
 19 20  1  0  0  0
 19 24  1  0  0  0
 20 21  2  0  0  0
 20101  1  0  0  0
 21 23  1  0  0  0
 22 28  1  0  0  0
 22 32  2  0  0  0
 26 27  1  0  0  0
 28102  1  0  0  0
 28103  1  0  0  0
 29104  1  0  0  0
 29105  1  0  0  0
 33 34  1  0  0  0
 33 66  1  0  0  0
 33 70  2  0  0  0
 34 36  1  0  0  0
 34 59  1  0  0  0
 34106  1  0  0  0
 35 44  2  0  0  0
 35 45  1  0  0  0
 35 68  1  0  0  0
 36 56  1  0  0  0
 36107  1  0  0  0
 37 39  1  0  0  0
 37 47  1  0  0  0
 37 66  1  0  0  0
 37108  1  0  0  0
 38 43  2  0  0  0
 38 46  1  0  0  0
 38 47  1  0  0  0
 39 64  1  0  0  0
 39 67  2  0  0  0
 40 52  1  0  0  0
 40 53  2  0  0  0
 40 58  1  0  0  0
 41109  1  0  0  0
 41110  1  0  0  0
 41111  1  0  0  0
 41 48  1  0  0  0
 42 43  1  0  0  0
 42 66  1  0  0  0
 42112  1  0  0  0
 42113  1  0  0  0
 43 44  1  0  0  0
 44114  1  0  0  0
 45 46  2  0  0  0
 45115  1  0  0  0
 46116  1  0  0  0
 47117  1  0  0  0
 47118  1  0  0  0
 48 56  1  0  0  0
 48 65  1  0  0  0
 48119  1  0  0  0
 49 50  1  0  0  0
 49 53  1  0  0  0
 49 64  1  0  0  0
 49120  1  0  0  0
 50 51  1  0  0  0
 50121  1  0  0  0
 50122  1  0  0  0
 51 52  1  0  0  0
 51123  1  0  0  0
 51124  1  0  0  0
 52125  1  0  0  0
 52126  1  0  0  0
 53 54  1  0  0  0
 54 55  2  0  0  0
 54127  1  0  0  0
 55 57  1  0  0  0
 55128  1  0  0  0
 56 69  2  0  0  0
 57 58  2  0  0  0
 57129  1  0  0  0
 58130  1  0  0  0
 59 60  1  0  0  0
 59 61  1  0  0  0
 59 62  1  0  0  0
 60131  1  0  0  0
 60132  1  0  0  0
 60133  1  0  0  0
 61134  1  0  0  0
 61135  1  0  0  0
 61136  1  0  0  0
 62137  1  0  0  0
 62138  1  0  0  0
 62139  1  0  0  0
 63 65  1  0  0  0
 63140  1  0  0  0
 63141  1  0  0  0
 63142  1  0  0  0
 64143  1  0  0  0
 65144  1  0  0  0
 68 79  1  0  0  0
 71 74  2  0  0  0
 71 75  1  0  0  0
 71 83  1  0  0  0
 72 73  1  0  0  0
 72 77  1  0  0  0
 72 83  2  0  0  0
 73 78  1  0  0  0
 73 84  2  0  0  0
 74 79  1  0  0  0
 74 84  1  0  0  0
 75145  1  0  0  0
 75146  1  0  0  0
 75147  1  0  0  0
 76 80  1  0  0  0
 76148  1  0  0  0
 76149  1  0  0  0
 76150  1  0  0  0
 77 81  1  0  0  0
 77151  1  0  0  0
 77152  1  0  0  0
 78 80  1  0  0  0
 78153  1  0  0  0
 78154  1  0  0  0
 79155  1  0  0  0
 79156  1  0  0  0
 80157  1  0  0  0
 80158  1  0  0  0
 81 82  1  0  0  0
 81159  1  0  0  0
 81160  1  0  0  0
 82 85  1  0  0  0
 82161  1  0  0  0
 82162  1  0  0  0
 85163  1  0  0  0
M  ISO  4   1 100  68 101  79 101  85 100
M  END
> <chiral flag>
0

> <version>
0

> <s_m_source_file>
/data/baiqing/PycharmProjects/Reinvent-master-3.2/result/LINK_invent/BTK/process_docking_weight1_custom_sum_contain_oxygen_bond_distance_aromatic_linkinvent_7_9_3/rearranged_h_0043.sdf

> <i_m_source_file_index>
81

> <r_mmod_Potential_Energy-OPLS-2005>
122.440879821777

> <r_mmod_Stretch_Energy-OPLS-2005>
76.6494903564453

> <r_mmod_Bend_Energy-OPLS-2005>
154.553115844727

> <r_mmod_Torsional_Energy-OPLS-2005>
199.775604248047

> <r_mmod_Improper_Torsional_Energy-OPLS-2005>
7.61490631103516

> <r_mmod_Van_der_Waal_Energy-OPLS-2005>
159.555252075195

> <r_mmod_Electrostatic_Energy-OPLS-2005>
-308.396942138672

> <r_mmod_Solvation_Energy-OPLS-2005>
-217.731338500977

> <b_mmod_Minimization_Converged-OPLS-2005>
0

> <r_mmod_RMS_Derivative-OPLS-2005>
2.41690421104431

$$$$
81
                    3D
 Structure written by MMmdl.
156164  0  0  1  0            999 V2000
  -30.4571  -14.9975   20.3523 C   0  0  0  0  0  0
  -30.4424  -12.6040   19.4461 C   0  0  0  0  0  0
  -29.5092  -12.5112   18.2142 C   0  0  0  0  0  0
  -28.0386  -12.3120   18.6485 C   0  0  0  0  0  0
  -27.6269  -13.2411   19.8228 C   0  0  2  0  0  0
  -28.6873  -13.2541   20.9410 C   0  0  0  0  0  0
  -25.2486  -13.8194   20.5691 C   0  0  0  0  0  0
  -24.1833  -13.0462   20.9200 C   0  0  0  0  0  0
  -24.6434  -11.6927   20.8795 C   0  0  0  0  0  0
  -23.9149  -10.4303   21.0461 C   0  0  0  0  0  0
  -24.3702   -9.4181   21.9201 C   0  0  0  0  0  0
  -23.6347   -8.2253   22.0784 C   0  0  0  0  0  0
  -22.4313   -8.0324   21.3604 C   0  0  0  0  0  0
  -21.9970   -9.0296   20.4707 C   0  0  0  0  0  0
  -22.7321  -10.2154   20.3096 C   0  0  0  0  0  0
  -21.6842   -6.0809   22.5320 C   0  0  0  0  0  0
  -21.4013   -6.5695   23.8271 C   0  0  0  0  0  0
  -21.3601   -5.6800   24.9202 C   0  0  0  0  0  0
  -21.6030   -4.3084   24.7239 C   0  0  0  0  0  0
  -21.8796   -3.8193   23.4348 C   0  0  0  0  0  0
  -21.9196   -4.7031   22.3423 C   0  0  0  0  0  0
  -22.7841  -13.5225   21.1889 C   0  0  0  0  0  0
  -22.1644   -4.2235   21.0994 F   0  0  0  0  0  0
  -21.5600   -3.4545   25.7747 F   0  0  0  0  0  0
  -29.9319  -13.7048   20.3142 N   0  0  0  0  0  0
  -26.2911  -12.9442   20.3233 N   0  0  0  0  0  0
  -25.9376  -11.6570   20.5781 N   0  0  0  0  0  0
  -22.0486  -12.8206   22.0421 N   0  0  0  0  0  0
  -25.4007  -15.1943   20.4018 N   0  0  0  0  0  0
  -31.6749  -15.1028   20.1591 O   0  0  0  0  0  0
  -21.6641   -6.8944   21.4285 O   0  0  0  0  0  0
  -22.3527  -14.5573   20.6776 O   0  0  0  0  0  0
  -24.6397  -31.8373   23.1954 C   0  0  0  0  0  0
  -25.9149  -32.4660   23.8327 C   0  0  1  0  0  0
  -27.1400  -27.0527   20.1770 C   0  0  0  0  0  0
  -25.5899  -33.8492   24.2185 N   0  0  0  0  0  0
  -23.4508  -30.4678   21.5243 C   0  0  2  0  0  0
  -24.9033  -28.9138   20.0954 C   0  0  0  0  0  0
  -22.7624  -29.4477   22.4679 C   0  0  0  0  0  0
  -18.0308  -28.1409   22.8423 C   0  0  0  0  0  0
  -24.1476  -36.7164   23.2644 C   0  0  0  0  0  0
  -26.0175  -30.6859   21.4197 C   0  0  0  0  0  0
  -26.0804  -29.2995   20.7476 C   0  0  0  0  0  0
  -27.1984  -28.3769   20.7891 C   0  0  0  0  0  0
  -25.9759  -26.8393   19.3941 C   0  0  0  0  0  0
  -24.8696  -27.7067   19.4006 C   0  0  0  0  0  0
  -23.6937  -29.8212   20.1370 C   0  0  0  0  0  0
  -25.4099  -36.2944   24.0311 C   0  0  1  0  0  0
  -20.5944  -28.3701   23.1196 C   0  0  2  0  0  0
  -20.6798  -26.9360   22.5407 C   0  0  0  0  0  0
  -19.5812  -26.6318   21.5200 C   0  0  0  0  0  0
  -18.1961  -26.7934   22.1533 C   0  0  0  0  0  0
  -19.1578  -28.8860   23.2801 C   0  0  0  0  0  0
  -18.9512  -30.1460   23.8865 C   0  0  0  0  0  0
  -17.6538  -30.6588   24.0588 C   0  0  0  0  0  0
  -25.9057  -34.9377   23.5042 C   0  0  0  0  0  0
  -16.5416  -29.9101   23.6377 C   0  0  0  0  0  0
  -16.7311  -28.6522   23.0357 C   0  0  0  0  0  0
  -26.4528  -31.6618   25.0818 C   0  0  0  0  0  0
  -25.3655  -31.3824   26.1467 C   0  0  0  0  0  0
  -27.0396  -30.2968   24.6500 C   0  0  0  0  0  0
  -27.6045  -32.4428   25.7526 C   0  0  0  0  0  0
  -27.5527  -37.1729   24.8460 C   0  0  0  0  0  0
  -21.4278  -29.3057   22.3570 N   0  0  0  0  0  0
  -26.4206  -37.3690   23.9424 N   0  0  0  0  0  0
  -24.7210  -31.0236   22.0960 N   0  0  0  0  0  0
  -23.4268  -28.7933   23.2733 O   0  0  0  0  0  0
  -28.0492  -25.9268   20.3586 O   0  0  0  0  0  0
  -26.5611  -34.8891   22.4600 O   0  0  0  0  0  0
  -23.5499  -32.1229   23.7154 O   0  0  0  0  0  0
  -28.7201  -21.8768   19.8552 C   0  0  0  0  0  0
  -28.4579  -20.5406   20.4616 C   0  0  0  0  0  0
  -28.0095  -22.9488   20.4822 C   0  0  0  0  0  0
  -26.2340  -21.9401   23.7877 C   0  0  0  0  0  0
  -24.8442  -22.6032   21.7639 C   0  0  0  0  0  0
  -28.6783  -18.9267   20.0090 C   0  0  0  0  0  0
  -27.5405  -24.4733   19.9805 C   0  0  0  0  0  0
  -29.7176  -17.7210   20.6218 C   0  0  0  0  0  0
  -26.2589  -22.6689   22.4155 C   0  0  0  0  0  0
  -27.6287  -20.8445   21.4727 N   0  0  0  0  0  0
  -27.3351  -22.2082   21.4901 N   0  0  0  0  0  0
  -29.5843  -16.1383   20.4008 N   0  0  0  0  0  0
  -31.4764  -12.7620   19.1338 H   0  0  0  0  0  0
  -30.4345  -11.6565   19.9860 H   0  0  0  0  0  0
  -29.8183  -11.6927   17.5621 H   0  0  0  0  0  0
  -29.5927  -13.4205   17.6157 H   0  0  0  0  0  0
  -27.9243  -11.2689   18.9439 H   0  0  0  0  0  0
  -27.3701  -12.4480   17.7985 H   0  0  0  0  0  0
  -27.5789  -14.2432   19.3972 H   0  0  0  0  0  0
  -28.8130  -12.2612   21.3699 H   0  0  0  0  0  0
  -28.4126  -13.9147   21.7616 H   0  0  0  0  0  0
  -25.2884   -9.5669   22.4738 H   0  0  0  0  0  0
  -24.0067   -7.4665   22.7540 H   0  0  0  0  0  0
  -21.0860   -8.8867   19.9048 H   0  0  0  0  0  0
  -22.3812  -10.9727   19.6216 H   0  0  0  0  0  0
  -21.1988   -7.6198   23.9820 H   0  0  0  0  0  0
  -21.1404   -6.0521   25.9117 H   0  0  0  0  0  0
  -22.0609   -2.7679   23.2834 H   0  0  0  0  0  0
  -22.4077  -11.9791   22.4690 H   0  0  0  0  0  0
  -21.1149  -13.1319   22.2781 H   0  0  0  0  0  0
  -24.5995  -15.8120   20.4903 H   0  0  0  0  0  0
  -26.2042  -15.6526   19.9927 H   0  0  0  0  0  0
  -26.7182  -32.5296   23.1007 H   0  0  0  0  0  0
  -25.0220  -33.9708   25.0436 H   0  0  0  0  0  0
  -22.7509  -31.2890   21.3623 H   0  0  0  0  0  0
  -23.3790  -35.9454   23.3275 H   0  0  0  0  0  0
  -24.3500  -36.8802   22.2055 H   0  0  0  0  0  0
  -23.7224  -37.6328   23.6733 H   0  0  0  0  0  0
  -26.2013  -31.4488   20.6634 H   0  0  0  0  0  0
  -26.8766  -30.7221   22.0777 H   0  0  0  0  0  0
  -28.0696  -28.6268   21.3824 H   0  0  0  0  0  0
  -25.8523  -25.9520   18.7938 H   0  0  0  0  0  0
  -23.9670  -27.4439   18.8651 H   0  0  0  0  0  0
  -23.8659  -30.6012   19.3933 H   0  0  0  0  0  0
  -22.8110  -29.2729   19.8000 H   0  0  0  0  0  0
  -25.1304  -36.1706   25.0793 H   0  0  0  0  0  0
  -21.0068  -28.3253   24.1303 H   0  0  0  0  0  0
  -20.5647  -26.2266   23.3615 H   0  0  0  0  0  0
  -21.6644  -26.7298   22.1246 H   0  0  0  0  0  0
  -19.6977  -25.6222   21.1232 H   0  0  0  0  0  0
  -19.6855  -27.3151   20.6778 H   0  0  0  0  0  0
  -17.4250  -26.6769   21.3902 H   0  0  0  0  0  0
  -18.0288  -26.0093   22.8915 H   0  0  0  0  0  0
  -19.8024  -30.7274   24.2203 H   0  0  0  0  0  0
  -17.5112  -31.6298   24.5126 H   0  0  0  0  0  0
  -15.5431  -30.3027   23.7753 H   0  0  0  0  0  0
  -15.8681  -28.0901   22.7087 H   0  0  0  0  0  0
  -24.6179  -30.6732   25.7879 H   0  0  0  0  0  0
  -24.8495  -32.2984   26.4391 H   0  0  0  0  0  0
  -25.7979  -30.9522   27.0510 H   0  0  0  0  0  0
  -26.3092  -29.6661   24.1464 H   0  0  0  0  0  0
  -27.3850  -29.7316   25.5172 H   0  0  0  0  0  0
  -27.9052  -30.4118   23.9974 H   0  0  0  0  0  0
  -27.2719  -33.3909   26.1752 H   0  0  0  0  0  0
  -28.4023  -32.6630   25.0423 H   0  0  0  0  0  0
  -28.0511  -31.8760   26.5690 H   0  0  0  0  0  0
  -28.2477  -38.0087   24.7441 H   0  0  0  0  0  0
  -28.1053  -36.2570   24.6305 H   0  0  0  0  0  0
  -27.2228  -37.1402   25.8863 H   0  0  0  0  0  0
  -20.9434  -29.8808   21.6855 H   0  0  0  0  0  0
  -26.0025  -38.2666   24.1610 H   0  0  0  0  0  0
  -29.2828  -22.0239   18.9393 H   0  0  0  0  0  0
  -25.4916  -22.3767   24.4599 H   0  0  0  0  0  0
  -27.1981  -22.0233   24.2967 H   0  0  0  0  0  0
  -25.9713  -20.8852   23.7028 H   0  0  0  0  0  0
  -24.0588  -22.8306   22.4883 H   0  0  0  0  0  0
  -24.6148  -21.6236   21.3383 H   0  0  0  0  0  0
  -24.7316  -23.3264   20.9578 H   0  0  0  0  0  0
  -28.8384  -18.9364   18.9298 H   0  0  0  0  0  0
  -27.6857  -18.4751   20.0775 H   0  0  0  0  0  0
  -26.4666  -24.4719   20.1495 H   0  0  0  0  0  0
  -27.6583  -24.4534   18.9007 H   0  0  0  0  0  0
  -29.6473  -17.8235   21.7025 H   0  0  0  0  0  0
  -30.7408  -18.0148   20.3815 H   0  0  0  0  0  0
  -26.4766  -23.7122   22.6674 H   0  0  0  0  0  0
  -28.6183  -15.8484   20.3533 H   0  0  0  0  0  0
  1 25  1  0  0  0
  1 30  2  0  0  0
  1 82  1  0  0  0
  2  3  1  0  0  0
  2 25  1  0  0  0
  2 83  1  0  0  0
  2 84  1  0  0  0
  3  4  1  0  0  0
  3 85  1  0  0  0
  3 86  1  0  0  0
  4  5  1  0  0  0
  4 87  1  0  0  0
  4 88  1  0  0  0
  5  6  1  0  0  0
  5 26  1  0  0  0
  5 89  1  0  0  0
  6 25  1  0  0  0
  6 90  1  0  0  0
  6 91  1  0  0  0
  7  8  2  0  0  0
  7 26  1  0  0  0
  7 29  1  0  0  0
  8  9  1  0  0  0
  8 22  1  0  0  0
  9 10  1  0  0  0
  9 27  2  0  0  0
 10 11  2  0  0  0
 10 15  1  0  0  0
 11 12  1  0  0  0
 11 92  1  0  0  0
 12 13  2  0  0  0
 12 93  1  0  0  0
 13 14  1  0  0  0
 13 31  1  0  0  0
 14 15  2  0  0  0
 14 94  1  0  0  0
 15 95  1  0  0  0
 16 17  2  0  0  0
 16 21  1  0  0  0
 16 31  1  0  0  0
 17 18  1  0  0  0
 17 96  1  0  0  0
 18 19  2  0  0  0
 18 97  1  0  0  0
 19 20  1  0  0  0
 19 24  1  0  0  0
 20 21  2  0  0  0
 20 98  1  0  0  0
 21 23  1  0  0  0
 22 28  1  0  0  0
 22 32  2  0  0  0
 26 27  1  0  0  0
 28 99  1  0  0  0
 28100  1  0  0  0
 29101  1  0  0  0
 29102  1  0  0  0
 33 34  1  0  0  0
 33 66  1  0  0  0
 33 70  2  0  0  0
 34 36  1  0  0  0
 34 59  1  0  0  0
 34103  1  0  0  0
 35 44  2  0  0  0
 35 45  1  0  0  0
 35 68  1  0  0  0
 36 56  1  0  0  0
 36104  1  0  0  0
 37 39  1  0  0  0
 37 47  1  0  0  0
 37 66  1  0  0  0
 37105  1  0  0  0
 38 43  2  0  0  0
 38 46  1  0  0  0
 38 47  1  0  0  0
 39 64  1  0  0  0
 39 67  2  0  0  0
 40 52  1  0  0  0
 40 53  2  0  0  0
 40 58  1  0  0  0
 41106  1  0  0  0
 41107  1  0  0  0
 41108  1  0  0  0
 41 48  1  0  0  0
 42 43  1  0  0  0
 42 66  1  0  0  0
 42109  1  0  0  0
 42110  1  0  0  0
 43 44  1  0  0  0
 44111  1  0  0  0
 45 46  2  0  0  0
 45112  1  0  0  0
 46113  1  0  0  0
 47114  1  0  0  0
 47115  1  0  0  0
 48 56  1  0  0  0
 48 65  1  0  0  0
 48116  1  0  0  0
 49 50  1  0  0  0
 49 53  1  0  0  0
 49 64  1  0  0  0
 49117  1  0  0  0
 50 51  1  0  0  0
 50118  1  0  0  0
 50119  1  0  0  0
 51 52  1  0  0  0
 51120  1  0  0  0
 51121  1  0  0  0
 52122  1  0  0  0
 52123  1  0  0  0
 53 54  1  0  0  0
 54 55  2  0  0  0
 54124  1  0  0  0
 55 57  1  0  0  0
 55125  1  0  0  0
 56 69  2  0  0  0
 57 58  2  0  0  0
 57126  1  0  0  0
 58127  1  0  0  0
 59 60  1  0  0  0
 59 61  1  0  0  0
 59 62  1  0  0  0
 60128  1  0  0  0
 60129  1  0  0  0
 60130  1  0  0  0
 61131  1  0  0  0
 61132  1  0  0  0
 61133  1  0  0  0
 62134  1  0  0  0
 62135  1  0  0  0
 62136  1  0  0  0
 63 65  1  0  0  0
 63137  1  0  0  0
 63138  1  0  0  0
 63139  1  0  0  0
 64140  1  0  0  0
 65141  1  0  0  0
 68 77  1  0  0  0
 71 72  1  0  0  0
 71 73  2  0  0  0
 71142  1  0  0  0
 72 76  1  0  0  0
 72 80  2  0  0  0
 73 77  1  0  0  0
 73 81  1  0  0  0
 74143  1  0  0  0
 74144  1  0  0  0
 74145  1  0  0  0
 74 79  1  0  0  0
 75 79  1  0  0  0
 75146  1  0  0  0
 75147  1  0  0  0
 75148  1  0  0  0
 76 78  1  0  0  0
 76149  1  0  0  0
 76150  1  0  0  0
 77151  1  0  0  0
 77152  1  0  0  0
 78 82  1  0  0  0
 78153  1  0  0  0
 78154  1  0  0  0
 79 81  1  0  0  0
 79155  1  0  0  0
 80 81  1  0  0  0
 82156  1  0  0  0
M  ISO  4   1 100  68 101  77 101  82 100
M  END
> <chiral flag>
0

> <version>
0

> <s_m_source_file>
/data/baiqing/PycharmProjects/Reinvent-master-3.2/result/LINK_invent/BTK/process_docking_weight1_custom_sum_contain_oxygen_bond_distance_aromatic_linkinvent_7_9_3/rearranged_h_0043.sdf

> <i_m_source_file_index>
82

> <r_mmod_Potential_Energy-OPLS-2005>
719.318542480469

> <r_mmod_Stretch_Energy-OPLS-2005>
320.916748046875

> <r_mmod_Bend_Energy-OPLS-2005>
330.419494628906

> <r_mmod_Torsional_Energy-OPLS-2005>
253.66032409668

> <r_mmod_Improper_Torsional_Energy-OPLS-2005>
10.8371677398682

> <r_mmod_Van_der_Waal_Energy-OPLS-2005>
115.429382324219

> <r_mmod_Electrostatic_Energy-OPLS-2005>
-375.921569824219

> <r_mmod_Solvation_Energy-OPLS-2005>
-223.573501586914

> <b_mmod_Minimization_Converged-OPLS-2005>
0

> <r_mmod_RMS_Derivative-OPLS-2005>
10.0984592437744

$$$$
82
                    3D
 Structure written by MMmdl.
167176  0  0  1  0            999 V2000
  -30.6887  -14.5739   20.4873 C   0  0  0  0  0  0
  -30.4252  -12.3473   19.4541 C   0  0  0  0  0  0
  -29.5062  -12.5016   18.2246 C   0  0  0  0  0  0
  -28.0332  -12.3264   18.6429 C   0  0  0  0  0  0
  -27.6545  -13.2152   19.8581 C   0  0  2  0  0  0
  -28.6993  -13.0915   20.9923 C   0  0  0  0  0  0
  -25.2573  -13.8154   20.5702 C   0  0  0  0  0  0
  -24.1816  -13.0426   20.9165 C   0  0  0  0  0  0
  -24.6355  -11.6897   20.8691 C   0  0  0  0  0  0
  -23.9011  -10.4285   21.0367 C   0  0  0  0  0  0
  -24.3570   -9.4214   21.9170 C   0  0  0  0  0  0
  -23.6262   -8.2241   22.0721 C   0  0  0  0  0  0
  -22.4248   -8.0263   21.3511 C   0  0  0  0  0  0
  -21.9862   -9.0232   20.4631 C   0  0  0  0  0  0
  -22.7162  -10.2130   20.3035 C   0  0  0  0  0  0
  -21.6858   -6.0708   22.5250 C   0  0  0  0  0  0
  -21.4041   -6.5608   23.8191 C   0  0  0  0  0  0
  -21.3676   -5.6749   24.9149 C   0  0  0  0  0  0
  -21.6048   -4.3010   24.7200 C   0  0  0  0  0  0
  -21.8834   -3.8108   23.4322 C   0  0  0  0  0  0
  -21.9203   -4.6932   22.3380 C   0  0  0  0  0  0
  -22.7853  -13.5251   21.1818 C   0  0  0  0  0  0
  -22.1668   -4.2124   21.0965 F   0  0  0  0  0  0
  -21.5621   -3.4491   25.7722 F   0  0  0  0  0  0
  -30.0240  -13.3833   20.4236 N   0  0  0  0  0  0
  -26.2994  -12.9352   20.3316 N   0  0  0  0  0  0
  -25.9308  -11.6489   20.5742 N   0  0  0  0  0  0
  -22.0482  -12.8294   22.0388 N   0  0  0  0  0  0
  -25.4272  -15.1892   20.4138 N   0  0  0  0  0  0
  -31.8616  -14.6787   20.1210 O   0  0  0  0  0  0
  -21.6628   -6.8848   21.4210 O   0  0  0  0  0  0
  -22.3554  -14.5556   20.6653 O   0  0  0  0  0  0
  -24.6185  -31.8666   23.2056 C   0  0  0  0  0  0
  -25.9070  -32.4798   23.8357 C   0  0  1  0  0  0
  -27.2197  -27.3824   20.1012 C   0  0  0  0  0  0
  -25.5904  -33.8600   24.2307 N   0  0  0  0  0  0
  -23.4074  -30.4935   21.5471 C   0  0  2  0  0  0
  -24.8506  -28.9602   20.1045 C   0  0  0  0  0  0
  -22.7433  -29.4671   22.4954 C   0  0  0  0  0  0
  -18.0298  -28.1385   22.8512 C   0  0  0  0  0  0
  -24.1477  -36.7295   23.2634 C   0  0  0  0  0  0
  -25.9420  -30.8163   21.3667 C   0  0  0  0  0  0
  -26.0141  -29.4495   20.7107 C   0  0  0  0  0  0
  -27.2008  -28.6690   20.7062 C   0  0  0  0  0  0
  -26.0369  -26.9350   19.4664 C   0  0  0  0  0  0
  -24.8594  -27.7051   19.4769 C   0  0  0  0  0  0
  -23.6149  -29.8325   20.1590 C   0  0  0  0  0  0
  -25.4086  -36.3103   24.0347 C   0  0  1  0  0  0
  -20.5888  -28.3674   23.1304 C   0  0  2  0  0  0
  -20.6771  -26.9407   22.5416 C   0  0  0  0  0  0
  -19.5733  -26.6399   21.5225 C   0  0  0  0  0  0
  -18.1919  -26.7937   22.1648 C   0  0  0  0  0  0
  -19.1549  -28.8851   23.2912 C   0  0  0  0  0  0
  -18.9475  -30.1452   23.8913 C   0  0  0  0  0  0
  -17.6476  -30.6587   24.0580 C   0  0  0  0  0  0
  -25.9016  -34.9463   23.5124 C   0  0  0  0  0  0
  -16.5372  -29.9092   23.6335 C   0  0  0  0  0  0
  -16.7286  -28.6508   23.0363 C   0  0  0  0  0  0
  -26.4463  -31.6597   25.0706 C   0  0  0  0  0  0
  -25.3726  -31.3811   26.1479 C   0  0  0  0  0  0
  -27.0286  -30.3009   24.6135 C   0  0  0  0  0  0
  -27.6015  -32.4341   25.7461 C   0  0  0  0  0  0
  -27.5574  -37.1795   24.8466 C   0  0  0  0  0  0
  -21.4168  -29.3046   22.3697 N   0  0  0  0  0  0
  -26.4286  -37.3786   23.9424 N   0  0  0  0  0  0
  -24.6749  -31.0744   22.0964 N   0  0  0  0  0  0
  -23.4203  -28.8206   23.2998 O   0  0  0  0  0  0
  -28.3683  -26.5968   20.1631 O   0  0  0  0  0  0
  -26.5594  -34.8925   22.4687 O   0  0  0  0  0  0
  -23.5375  -32.1450   23.7405 O   0  0  0  0  0  0
  -30.0452  -21.0421   19.1291 C   0  0  0  0  0  0
  -29.3120  -20.6973   20.2970 C   0  0  0  0  0  0
  -30.1133  -22.4147   19.1131 C   0  0  0  0  0  0
  -31.7486  -24.2965   18.5268 C   0  0  0  0  0  0
  -34.8148  -22.4749   18.2375 C   0  0  0  0  0  0
  -28.8354  -19.2988   20.7371 C   0  0  0  0  0  0
  -30.7309  -23.2956   18.0576 C   0  0  0  0  0  0
  -29.8953  -18.2635   21.2684 C   0  0  0  0  0  0
  -33.6455  -22.7162   19.2055 C   0  0  0  0  0  0
  -29.2459  -24.2744   20.7188 C   0  0  0  0  0  0
  -30.3324  -17.0842   20.3194 C   0  0  0  0  0  0
  -28.2695  -25.1659   19.8877 C   0  0  0  0  0  0
  -28.9764  -21.8114   20.9666 N   0  0  0  0  0  0
  -31.5839  -25.6182   18.5010 N   0  0  0  0  0  0
  -32.7800  -26.1187   18.9737 N   0  0  0  0  0  0
  -33.6096  -25.1581   19.2566 N   0  0  0  0  0  0
  -29.4357  -22.8781   20.2367 N   0  0  0  0  0  0
  -32.9756  -23.9870   18.9787 N   0  0  0  0  0  0
  -29.9475  -15.6910   20.7238 N   0  0  0  0  0  0
  -31.4713  -12.4321   19.1553 H   0  0  0  0  0  0
  -30.3247  -11.3517   19.8915 H   0  0  0  0  0  0
  -29.7662  -11.7667   17.4617 H   0  0  0  0  0  0
  -29.6536  -13.4845   17.7734 H   0  0  0  0  0  0
  -27.8791  -11.2742   18.8903 H   0  0  0  0  0  0
  -27.3754  -12.5407   17.7999 H   0  0  0  0  0  0
  -27.6719  -14.2449   19.4968 H   0  0  0  0  0  0
  -28.6942  -12.0864   21.4161 H   0  0  0  0  0  0
  -28.4627  -13.7703   21.8146 H   0  0  0  0  0  0
  -25.2721   -9.5710   22.4723 H   0  0  0  0  0  0
  -23.9960   -7.4651   22.7463 H   0  0  0  0  0  0
  -21.0761   -8.8753   19.8977 H   0  0  0  0  0  0
  -22.3590  -10.9658   19.6126 H   0  0  0  0  0  0
  -21.2061   -7.6108   23.9695 H   0  0  0  0  0  0
  -21.1483   -6.0468   25.9054 H   0  0  0  0  0  0
  -22.0617   -2.7561   23.2816 H   0  0  0  0  0  0
  -22.4056  -11.9969   22.4834 H   0  0  0  0  0  0
  -21.1122  -13.1397   22.2615 H   0  0  0  0  0  0
  -24.6505  -15.8341   20.5162 H   0  0  0  0  0  0
  -26.2710  -15.6363   20.0797 H   0  0  0  0  0  0
  -26.7143  -32.5509   23.1119 H   0  0  0  0  0  0
  -25.0081  -33.9748   25.0478 H   0  0  0  0  0  0
  -22.6978  -31.3136   21.4115 H   0  0  0  0  0  0
  -23.3729  -35.9641   23.3308 H   0  0  0  0  0  0
  -24.3595  -36.8881   22.2050 H   0  0  0  0  0  0
  -23.7226  -37.6502   23.6626 H   0  0  0  0  0  0
  -26.0704  -31.5854   20.6024 H   0  0  0  0  0  0
  -26.8219  -30.8612   21.9958 H   0  0  0  0  0  0
  -28.0920  -29.0380   21.1942 H   0  0  0  0  0  0
  -25.9904  -25.9862   18.9532 H   0  0  0  0  0  0
  -23.9700  -27.3296   18.9924 H   0  0  0  0  0  0
  -23.7210  -30.6091   19.4000 H   0  0  0  0  0  0
  -22.7349  -29.2576   19.8615 H   0  0  0  0  0  0
  -25.1261  -36.1969   25.0846 H   0  0  0  0  0  0
  -21.0037  -28.3252   24.1404 H   0  0  0  0  0  0
  -20.5681  -26.2290   23.3619 H   0  0  0  0  0  0
  -21.6636  -26.7436   22.1206 H   0  0  0  0  0  0
  -19.6861  -25.6319   21.1229 H   0  0  0  0  0  0
  -19.6635  -27.3226   20.6765 H   0  0  0  0  0  0
  -17.4197  -26.6737   21.4043 H   0  0  0  0  0  0
  -18.0277  -26.0076   22.9034 H   0  0  0  0  0  0
  -19.7949  -30.7278   24.2282 H   0  0  0  0  0  0
  -17.5029  -31.6265   24.5181 H   0  0  0  0  0  0
  -15.5364  -30.2993   23.7632 H   0  0  0  0  0  0
  -15.8707  -28.0820   22.7066 H   0  0  0  0  0  0
  -24.5852  -30.7173   25.7893 H   0  0  0  0  0  0
  -24.8975  -32.3034   26.4845 H   0  0  0  0  0  0
  -25.8085  -30.9072   27.0290 H   0  0  0  0  0  0
  -26.2861  -29.6772   24.1143 H   0  0  0  0  0  0
  -27.3972  -29.7240   25.4626 H   0  0  0  0  0  0
  -27.8727  -30.4261   23.9351 H   0  0  0  0  0  0
  -27.2580  -33.3629   26.2032 H   0  0  0  0  0  0
  -28.3810  -32.6946   25.0289 H   0  0  0  0  0  0
  -28.0691  -31.8498   26.5393 H   0  0  0  0  0  0
  -28.2618  -38.0071   24.7521 H   0  0  0  0  0  0
  -28.1070  -36.2615   24.6296 H   0  0  0  0  0  0
  -27.2332  -37.1444   25.8887 H   0  0  0  0  0  0
  -20.9327  -29.8801   21.6953 H   0  0  0  0  0  0
  -26.0174  -38.2877   24.1422 H   0  0  0  0  0  0
  -30.4328  -20.3689   18.3776 H   0  0  0  0  0  0
  -35.2715  -21.5040   18.4301 H   0  0  0  0  0  0
  -35.5928  -23.2307   18.3498 H   0  0  0  0  0  0
  -34.4825  -22.4838   17.1996 H   0  0  0  0  0  0
  -28.2669  -18.8421   19.9260 H   0  0  0  0  0  0
  -28.0940  -19.4336   21.5278 H   0  0  0  0  0  0
  -29.9462  -23.8293   17.5212 H   0  0  0  0  0  0
  -31.2090  -22.6691   17.3062 H   0  0  0  0  0  0
  -29.4995  -17.8209   22.1821 H   0  0  0  0  0  0
  -30.7797  -18.8119   21.6038 H   0  0  0  0  0  0
  -34.0086  -22.7019   20.2339 H   0  0  0  0  0  0
  -32.9216  -21.9065   19.1244 H   0  0  0  0  0  0
  -28.9004  -24.2483   21.7518 H   0  0  0  0  0  0
  -30.2249  -24.7472   20.7576 H   0  0  0  0  0  0
  -31.4188  -17.1393   20.2165 H   0  0  0  0  0  0
  -29.9614  -17.2613   19.3090 H   0  0  0  0  0  0
  -27.2737  -24.7788   20.1017 H   0  0  0  0  0  0
  -28.4444  -25.0244   18.8216 H   0  0  0  0  0  0
  -28.9807  -15.5375   20.9671 H   0  0  0  0  0  0
  1 25  1  0  0  0
  1 30  2  0  0  0
  1 89  1  0  0  0
  2  3  1  0  0  0
  2 25  1  0  0  0
  2 90  1  0  0  0
  2 91  1  0  0  0
  3  4  1  0  0  0
  3 92  1  0  0  0
  3 93  1  0  0  0
  4  5  1  0  0  0
  4 94  1  0  0  0
  4 95  1  0  0  0
  5  6  1  0  0  0
  5 26  1  0  0  0
  5 96  1  0  0  0
  6 25  1  0  0  0
  6 97  1  0  0  0
  6 98  1  0  0  0
  7  8  2  0  0  0
  7 26  1  0  0  0
  7 29  1  0  0  0
  8  9  1  0  0  0
  8 22  1  0  0  0
  9 10  1  0  0  0
  9 27  2  0  0  0
 10 11  2  0  0  0
 10 15  1  0  0  0
 11 12  1  0  0  0
 11 99  1  0  0  0
 12 13  2  0  0  0
 12100  1  0  0  0
 13 14  1  0  0  0
 13 31  1  0  0  0
 14 15  2  0  0  0
 14101  1  0  0  0
 15102  1  0  0  0
 16 17  2  0  0  0
 16 21  1  0  0  0
 16 31  1  0  0  0
 17 18  1  0  0  0
 17103  1  0  0  0
 18 19  2  0  0  0
 18104  1  0  0  0
 19 20  1  0  0  0
 19 24  1  0  0  0
 20 21  2  0  0  0
 20105  1  0  0  0
 21 23  1  0  0  0
 22 28  1  0  0  0
 22 32  2  0  0  0
 26 27  1  0  0  0
 28106  1  0  0  0
 28107  1  0  0  0
 29108  1  0  0  0
 29109  1  0  0  0
 33 34  1  0  0  0
 33 66  1  0  0  0
 33 70  2  0  0  0
 34 36  1  0  0  0
 34 59  1  0  0  0
 34110  1  0  0  0
 35 44  2  0  0  0
 35 45  1  0  0  0
 35 68  1  0  0  0
 36 56  1  0  0  0
 36111  1  0  0  0
 37 39  1  0  0  0
 37 47  1  0  0  0
 37 66  1  0  0  0
 37112  1  0  0  0
 38 43  2  0  0  0
 38 46  1  0  0  0
 38 47  1  0  0  0
 39 64  1  0  0  0
 39 67  2  0  0  0
 40 52  1  0  0  0
 40 53  2  0  0  0
 40 58  1  0  0  0
 41113  1  0  0  0
 41114  1  0  0  0
 41115  1  0  0  0
 41 48  1  0  0  0
 42 43  1  0  0  0
 42 66  1  0  0  0
 42116  1  0  0  0
 42117  1  0  0  0
 43 44  1  0  0  0
 44118  1  0  0  0
 45 46  2  0  0  0
 45119  1  0  0  0
 46120  1  0  0  0
 47121  1  0  0  0
 47122  1  0  0  0
 48 56  1  0  0  0
 48 65  1  0  0  0
 48123  1  0  0  0
 49 50  1  0  0  0
 49 53  1  0  0  0
 49 64  1  0  0  0
 49124  1  0  0  0
 50 51  1  0  0  0
 50125  1  0  0  0
 50126  1  0  0  0
 51 52  1  0  0  0
 51127  1  0  0  0
 51128  1  0  0  0
 52129  1  0  0  0
 52130  1  0  0  0
 53 54  1  0  0  0
 54 55  2  0  0  0
 54131  1  0  0  0
 55 57  1  0  0  0
 55132  1  0  0  0
 56 69  2  0  0  0
 57 58  2  0  0  0
 57133  1  0  0  0
 58134  1  0  0  0
 59 60  1  0  0  0
 59 61  1  0  0  0
 59 62  1  0  0  0
 60135  1  0  0  0
 60136  1  0  0  0
 60137  1  0  0  0
 61138  1  0  0  0
 61139  1  0  0  0
 61140  1  0  0  0
 62141  1  0  0  0
 62142  1  0  0  0
 62143  1  0  0  0
 63 65  1  0  0  0
 63144  1  0  0  0
 63145  1  0  0  0
 63146  1  0  0  0
 64147  1  0  0  0
 65148  1  0  0  0
 68 82  1  0  0  0
 71 72  1  0  0  0
 71 73  2  0  0  0
 71149  1  0  0  0
 72 76  1  0  0  0
 72 83  2  0  0  0
 73 77  1  0  0  0
 73 87  1  0  0  0
 74 77  1  0  0  0
 74 84  2  0  0  0
 74 88  1  0  0  0
 75 79  1  0  0  0
 75150  1  0  0  0
 75151  1  0  0  0
 75152  1  0  0  0
 76 78  1  0  0  0
 76153  1  0  0  0
 76154  1  0  0  0
 77155  1  0  0  0
 77156  1  0  0  0
 78 81  1  0  0  0
 78157  1  0  0  0
 78158  1  0  0  0
 79 88  1  0  0  0
 79159  1  0  0  0
 79160  1  0  0  0
 80 82  1  0  0  0
 80 87  1  0  0  0
 80161  1  0  0  0
 80162  1  0  0  0
 81 89  1  0  0  0
 81163  1  0  0  0
 81164  1  0  0  0
 82165  1  0  0  0
 82166  1  0  0  0
 83 87  1  0  0  0
 84 85  1  0  0  0
 85 86  2  0  0  0
 86 88  1  0  0  0
 89167  1  0  0  0
M  ISO  4   1 100  68 101  82 101  89 100
M  END
> <chiral flag>
0

> <version>
0

> <s_m_source_file>
/data/baiqing/PycharmProjects/Reinvent-master-3.2/result/LINK_invent/BTK/process_docking_weight1_custom_sum_contain_oxygen_bond_distance_aromatic_linkinvent_7_9_3/rearranged_h_0043.sdf

> <i_m_source_file_index>
83

> <r_mmod_Potential_Energy-OPLS-2005>
-75.0548324584961

> <r_mmod_Stretch_Energy-OPLS-2005>
56.1577377319336

> <r_mmod_Bend_Energy-OPLS-2005>
133.513595581055

> <r_mmod_Torsional_Energy-OPLS-2005>
248.093994140625

> <r_mmod_Improper_Torsional_Energy-OPLS-2005>
6.97937822341919

> <r_mmod_Van_der_Waal_Energy-OPLS-2005>
113.741271972656

> <r_mmod_Electrostatic_Energy-OPLS-2005>
-403.807098388672

> <r_mmod_Solvation_Energy-OPLS-2005>
-261.551666259766

> <b_mmod_Minimization_Converged-OPLS-2005>
0

> <r_mmod_RMS_Derivative-OPLS-2005>
4.33945512771606

$$$$
83
                    3D
 Structure written by MMmdl.
169178  0  0  1  0            999 V2000
  -30.6661  -14.5381   20.5546 C   0  0  0  0  0  0
  -30.4289  -12.3432   19.4318 C   0  0  0  0  0  0
  -29.4990  -12.5180   18.2122 C   0  0  0  0  0  0
  -28.0197  -12.3719   18.6231 C   0  0  0  0  0  0
  -27.6609  -13.2140   19.8780 C   0  0  2  0  0  0
  -28.7060  -13.0061   20.9973 C   0  0  0  0  0  0
  -25.2586  -13.8175   20.5703 C   0  0  0  0  0  0
  -24.1839  -13.0443   20.9187 C   0  0  0  0  0  0
  -24.6399  -11.6912   20.8749 C   0  0  0  0  0  0
  -23.9063  -10.4298   21.0414 C   0  0  0  0  0  0
  -24.3612   -9.4216   21.9193 C   0  0  0  0  0  0
  -23.6289   -8.2250   22.0758 C   0  0  0  0  0  0
  -22.4274   -8.0284   21.3542 C   0  0  0  0  0  0
  -21.9905   -9.0261   20.4651 C   0  0  0  0  0  0
  -22.7234  -10.2142   20.3063 C   0  0  0  0  0  0
  -21.6848   -6.0742   22.5281 C   0  0  0  0  0  0
  -21.4014   -6.5646   23.8217 C   0  0  0  0  0  0
  -21.3660   -5.6795   24.9178 C   0  0  0  0  0  0
  -21.6042   -4.3057   24.7223 C   0  0  0  0  0  0
  -21.8818   -3.8152   23.4344 C   0  0  0  0  0  0
  -21.9194   -4.6971   22.3406 C   0  0  0  0  0  0
  -22.7863  -13.5247   21.1839 C   0  0  0  0  0  0
  -22.1654   -4.2161   21.0979 F   0  0  0  0  0  0
  -21.5634   -3.4538   25.7734 F   0  0  0  0  0  0
  -30.0256  -13.3370   20.4429 N   0  0  0  0  0  0
  -26.3030  -12.9355   20.3398 N   0  0  0  0  0  0
  -25.9333  -11.6505   20.5782 N   0  0  0  0  0  0
  -22.0487  -12.8257   22.0398 N   0  0  0  0  0  0
  -25.4308  -15.1889   20.4119 N   0  0  0  0  0  0
  -31.7993  -14.6943   20.0891 O   0  0  0  0  0  0
  -21.6634   -6.8884   21.4240 O   0  0  0  0  0  0
  -22.3563  -14.5559   20.6692 O   0  0  0  0  0  0
  -24.6187  -31.8636   23.2069 C   0  0  0  0  0  0
  -25.9069  -32.4792   23.8377 C   0  0  1  0  0  0
  -27.2347  -27.3833   20.0953 C   0  0  0  0  0  0
  -25.5922  -33.8595   24.2313 N   0  0  0  0  0  0
  -23.4082  -30.4870   21.5488 C   0  0  2  0  0  0
  -24.8531  -28.9484   20.1130 C   0  0  0  0  0  0
  -22.7431  -29.4632   22.4978 C   0  0  0  0  0  0
  -18.0273  -28.1364   22.8489 C   0  0  0  0  0  0
  -24.1484  -36.7300   23.2639 C   0  0  0  0  0  0
  -25.9415  -30.8143   21.3656 C   0  0  0  0  0  0
  -26.0161  -29.4455   20.7106 C   0  0  0  0  0  0
  -27.2048  -28.6715   20.6965 C   0  0  0  0  0  0
  -26.0407  -26.9108   19.5006 C   0  0  0  0  0  0
  -24.8633  -27.6823   19.5058 C   0  0  0  0  0  0
  -23.6173  -29.8203   20.1634 C   0  0  0  0  0  0
  -25.4108  -36.3095   24.0337 C   0  0  1  0  0  0
  -20.5866  -28.3642   23.1304 C   0  0  2  0  0  0
  -20.6765  -26.9376   22.5398 C   0  0  0  0  0  0
  -19.5735  -26.6368   21.5203 C   0  0  0  0  0  0
  -18.1915  -26.7916   22.1615 C   0  0  0  0  0  0
  -19.1527  -28.8822   23.2901 C   0  0  0  0  0  0
  -18.9455  -30.1423   23.8928 C   0  0  0  0  0  0
  -17.6460  -30.6565   24.0579 C   0  0  0  0  0  0
  -25.9044  -34.9459   23.5122 C   0  0  0  0  0  0
  -16.5349  -29.9078   23.6321 C   0  0  0  0  0  0
  -16.7264  -28.6493   23.0347 C   0  0  0  0  0  0
  -26.4489  -31.6571   25.0714 C   0  0  0  0  0  0
  -25.3762  -31.3667   26.1461 C   0  0  0  0  0  0
  -27.0317  -30.3010   24.6105 C   0  0  0  0  0  0
  -27.6069  -32.4286   25.7476 C   0  0  0  0  0  0
  -27.5574  -37.1802   24.8471 C   0  0  0  0  0  0
  -21.4154  -29.3030   22.3732 N   0  0  0  0  0  0
  -26.4288  -37.3785   23.9412 N   0  0  0  0  0  0
  -24.6750  -31.0700   22.0986 N   0  0  0  0  0  0
  -23.4189  -28.8179   23.3037 O   0  0  0  0  0  0
  -28.4203  -26.6527   20.1296 O   0  0  0  0  0  0
  -26.5601  -34.8914   22.4678 O   0  0  0  0  0  0
  -23.5372  -32.1412   23.7438 O   0  0  0  0  0  0
  -25.7428  -22.5872   21.2882 C   0  0  0  0  0  0
  -27.2243  -20.6741   21.0203 C   0  0  0  0  0  0
  -28.2693  -21.6041   20.7067 C   0  0  0  0  0  0
  -25.9344  -21.1994   21.2951 C   0  0  0  0  0  0
  -27.9529  -23.0118   20.7316 C   0  0  0  0  0  0
  -27.4337  -19.1469   21.0825 C   0  0  0  0  0  0
  -29.7117  -21.1349   20.3970 C   0  0  0  0  0  0
  -28.6816  -18.6870   21.8602 C   0  0  0  0  0  0
  -29.9709  -19.6640   19.9292 C   0  0  0  0  0  0
  -29.9574  -18.5245   21.0035 C   0  0  1  0  0  0
  -24.7282  -20.3255   21.6132 C   0  0  0  0  0  0
  -31.1983  -18.6789   21.9125 C   0  0  0  0  0  0
  -28.9529  -24.1810   20.5645 C   0  0  0  0  0  0
  -29.9686  -15.7961   21.1709 C   0  0  0  0  0  0
  -30.0480  -17.1106   20.2995 C   0  0  0  0  0  0
  -28.5505  -25.3174   19.5571 C   0  0  0  0  0  0
  -26.7216  -23.4624   21.0355 N   0  0  0  0  0  0
  -31.4719  -12.4500   19.1287 H   0  0  0  0  0  0
  -30.3425  -11.3357   19.8408 H   0  0  0  0  0  0
  -29.7480  -11.7890   17.4400 H   0  0  0  0  0  0
  -29.6596  -13.5019   17.7679 H   0  0  0  0  0  0
  -27.8353  -11.3155   18.8201 H   0  0  0  0  0  0
  -27.3674  -12.6426   17.7919 H   0  0  0  0  0  0
  -27.6998  -14.2615   19.5778 H   0  0  0  0  0  0
  -28.7001  -11.9672   21.3308 H   0  0  0  0  0  0
  -28.4674  -13.5880   21.8871 H   0  0  0  0  0  0
  -25.2753   -9.5699   22.4770 H   0  0  0  0  0  0
  -24.0007   -7.4647   22.7476 H   0  0  0  0  0  0
  -21.0838   -8.8774   19.8959 H   0  0  0  0  0  0
  -22.3687  -10.9680   19.6176 H   0  0  0  0  0  0
  -21.2000   -7.6150   23.9724 H   0  0  0  0  0  0
  -21.1481   -6.0522   25.9083 H   0  0  0  0  0  0
  -22.0598   -2.7613   23.2836 H   0  0  0  0  0  0
  -22.4073  -11.9906   22.4787 H   0  0  0  0  0  0
  -21.1112  -13.1312   22.2591 H   0  0  0  0  0  0
  -24.6635  -15.8429   20.5207 H   0  0  0  0  0  0
  -26.2882  -15.6279   20.1025 H   0  0  0  0  0  0
  -26.7138  -32.5496   23.1135 H   0  0  0  0  0  0
  -25.0095  -33.9741   25.0474 H   0  0  0  0  0  0
  -22.7000  -31.3065   21.4100 H   0  0  0  0  0  0
  -23.3742  -35.9635   23.3313 H   0  0  0  0  0  0
  -24.3591  -36.8904   22.2054 H   0  0  0  0  0  0
  -23.7237  -37.6509   23.6646 H   0  0  0  0  0  0
  -26.0613  -31.5783   20.5959 H   0  0  0  0  0  0
  -26.8261  -30.8647   21.9884 H   0  0  0  0  0  0
  -28.1032  -29.0568   21.1587 H   0  0  0  0  0  0
  -25.9679  -25.9418   19.0357 H   0  0  0  0  0  0
  -23.9664  -27.2910   19.0456 H   0  0  0  0  0  0
  -23.7285  -30.5951   19.4035 H   0  0  0  0  0  0
  -22.7395  -29.2421   19.8668 H   0  0  0  0  0  0
  -25.1279  -36.1960   25.0830 H   0  0  0  0  0  0
  -20.9956  -28.3196   24.1425 H   0  0  0  0  0  0
  -20.5667  -26.2252   23.3589 H   0  0  0  0  0  0
  -21.6632  -26.7419   22.1181 H   0  0  0  0  0  0
  -19.6888  -25.6284   21.1224 H   0  0  0  0  0  0
  -19.6666  -27.3186   20.6741 H   0  0  0  0  0  0
  -17.4194  -26.6685   21.4003 H   0  0  0  0  0  0
  -18.0295  -26.0044   22.8994 H   0  0  0  0  0  0
  -19.7932  -30.7214   24.2335 H   0  0  0  0  0  0
  -17.5014  -31.6233   24.5203 H   0  0  0  0  0  0
  -15.5351  -30.2987   23.7630 H   0  0  0  0  0  0
  -15.8663  -28.0813   22.7063 H   0  0  0  0  0  0
  -24.5976  -30.6957   25.7816 H   0  0  0  0  0  0
  -24.8904  -32.2803   26.4885 H   0  0  0  0  0  0
  -25.8134  -30.8881   27.0232 H   0  0  0  0  0  0
  -26.2855  -29.6777   24.1162 H   0  0  0  0  0  0
  -27.4081  -29.7239   25.4562 H   0  0  0  0  0  0
  -27.8697  -30.4320   23.9259 H   0  0  0  0  0  0
  -27.2702  -33.3596   26.2042 H   0  0  0  0  0  0
  -28.3879  -32.6820   25.0296 H   0  0  0  0  0  0
  -28.0728  -31.8413   26.5391 H   0  0  0  0  0  0
  -28.2596  -38.0094   24.7511 H   0  0  0  0  0  0
  -28.1061  -36.2624   24.6302 H   0  0  0  0  0  0
  -27.2297  -37.1469   25.8876 H   0  0  0  0  0  0
  -20.9310  -29.8795   21.6995 H   0  0  0  0  0  0
  -26.0173  -38.2860   24.1414 H   0  0  0  0  0  0
  -24.7764  -23.0171   21.5068 H   0  0  0  0  0  0
  -27.4024  -18.7255   20.0783 H   0  0  0  0  0  0
  -26.5974  -18.6757   21.5925 H   0  0  0  0  0  0
  -30.3441  -21.3829   21.2481 H   0  0  0  0  0  0
  -30.0701  -21.7577   19.5776 H   0  0  0  0  0  0
  -28.4628  -17.7387   22.3503 H   0  0  0  0  0  0
  -28.8467  -19.3858   22.6816 H   0  0  0  0  0  0
  -30.9574  -19.6470   19.4627 H   0  0  0  0  0  0
  -29.2946  -19.4335   19.1056 H   0  0  0  0  0  0
  -23.8139  -20.9177   21.6686 H   0  0  0  0  0  0
  -24.8551  -19.8310   22.5768 H   0  0  0  0  0  0
  -24.5752  -19.5692   20.8430 H   0  0  0  0  0  0
  -31.2457  -19.6614   22.3803 H   0  0  0  0  0  0
  -32.1238  -18.5458   21.3506 H   0  0  0  0  0  0
  -31.2046  -17.9523   22.7239 H   0  0  0  0  0  0
  -29.9313  -23.8015   20.2776 H   0  0  0  0  0  0
  -29.1128  -24.6230   21.5483 H   0  0  0  0  0  0
  -28.9190  -15.6096   21.3847 H   0  0  0  0  0  0
  -30.4407  -15.9519   22.1392 H   0  0  0  0  0  0
  -30.9765  -17.0981   19.7270 H   0  0  0  0  0  0
  -29.2639  -17.0437   19.5439 H   0  0  0  0  0  0
  -27.7384  -24.9894   18.9164 H   0  0  0  0  0  0
  -29.3797  -25.4154   18.8556 H   0  0  0  0  0  0
  1 25  1  0  0  0
  1 30  2  0  0  0
  1 84  1  0  0  0
  2  3  1  0  0  0
  2 25  1  0  0  0
  2 88  1  0  0  0
  2 89  1  0  0  0
  3  4  1  0  0  0
  3 90  1  0  0  0
  3 91  1  0  0  0
  4  5  1  0  0  0
  4 92  1  0  0  0
  4 93  1  0  0  0
  5  6  1  0  0  0
  5 26  1  0  0  0
  5 94  1  0  0  0
  6 25  1  0  0  0
  6 95  1  0  0  0
  6 96  1  0  0  0
  7  8  2  0  0  0
  7 26  1  0  0  0
  7 29  1  0  0  0
  8  9  1  0  0  0
  8 22  1  0  0  0
  9 10  1  0  0  0
  9 27  2  0  0  0
 10 11  2  0  0  0
 10 15  1  0  0  0
 11 12  1  0  0  0
 11 97  1  0  0  0
 12 13  2  0  0  0
 12 98  1  0  0  0
 13 14  1  0  0  0
 13 31  1  0  0  0
 14 15  2  0  0  0
 14 99  1  0  0  0
 15100  1  0  0  0
 16 17  2  0  0  0
 16 21  1  0  0  0
 16 31  1  0  0  0
 17 18  1  0  0  0
 17101  1  0  0  0
 18 19  2  0  0  0
 18102  1  0  0  0
 19 20  1  0  0  0
 19 24  1  0  0  0
 20 21  2  0  0  0
 20103  1  0  0  0
 21 23  1  0  0  0
 22 28  1  0  0  0
 22 32  2  0  0  0
 26 27  1  0  0  0
 28104  1  0  0  0
 28105  1  0  0  0
 29106  1  0  0  0
 29107  1  0  0  0
 33 34  1  0  0  0
 33 66  1  0  0  0
 33 70  2  0  0  0
 34 36  1  0  0  0
 34 59  1  0  0  0
 34108  1  0  0  0
 35 44  2  0  0  0
 35 45  1  0  0  0
 35 68  1  0  0  0
 36 56  1  0  0  0
 36109  1  0  0  0
 37 39  1  0  0  0
 37 47  1  0  0  0
 37 66  1  0  0  0
 37110  1  0  0  0
 38 43  2  0  0  0
 38 46  1  0  0  0
 38 47  1  0  0  0
 39 64  1  0  0  0
 39 67  2  0  0  0
 40 52  1  0  0  0
 40 53  2  0  0  0
 40 58  1  0  0  0
 41111  1  0  0  0
 41112  1  0  0  0
 41113  1  0  0  0
 41 48  1  0  0  0
 42 43  1  0  0  0
 42 66  1  0  0  0
 42114  1  0  0  0
 42115  1  0  0  0
 43 44  1  0  0  0
 44116  1  0  0  0
 45 46  2  0  0  0
 45117  1  0  0  0
 46118  1  0  0  0
 47119  1  0  0  0
 47120  1  0  0  0
 48 56  1  0  0  0
 48 65  1  0  0  0
 48121  1  0  0  0
 49 50  1  0  0  0
 49 53  1  0  0  0
 49 64  1  0  0  0
 49122  1  0  0  0
 50 51  1  0  0  0
 50123  1  0  0  0
 50124  1  0  0  0
 51 52  1  0  0  0
 51125  1  0  0  0
 51126  1  0  0  0
 52127  1  0  0  0
 52128  1  0  0  0
 53 54  1  0  0  0
 54 55  2  0  0  0
 54129  1  0  0  0
 55 57  1  0  0  0
 55130  1  0  0  0
 56 69  2  0  0  0
 57 58  2  0  0  0
 57131  1  0  0  0
 58132  1  0  0  0
 59 60  1  0  0  0
 59 61  1  0  0  0
 59 62  1  0  0  0
 60133  1  0  0  0
 60134  1  0  0  0
 60135  1  0  0  0
 61136  1  0  0  0
 61137  1  0  0  0
 61138  1  0  0  0
 62139  1  0  0  0
 62140  1  0  0  0
 62141  1  0  0  0
 63 65  1  0  0  0
 63142  1  0  0  0
 63143  1  0  0  0
 63144  1  0  0  0
 64145  1  0  0  0
 65146  1  0  0  0
 68 86  1  0  0  0
 71 74  2  0  0  0
 71 87  1  0  0  0
 71147  1  0  0  0
 72 73  2  0  0  0
 72 74  1  0  0  0
 72 76  1  0  0  0
 73 75  1  0  0  0
 73 77  1  0  0  0
 74 81  1  0  0  0
 75 83  1  0  0  0
 75 87  2  0  0  0
 76 78  1  0  0  0
 76148  1  0  0  0
 76149  1  0  0  0
 77 79  1  0  0  0
 77150  1  0  0  0
 77151  1  0  0  0
 78 80  1  0  0  0
 78152  1  0  0  0
 78153  1  0  0  0
 79 80  1  0  0  0
 79154  1  0  0  0
 79155  1  0  0  0
 80 82  1  0  0  0
 80 85  1  0  0  0
 81156  1  0  0  0
 81157  1  0  0  0
 81158  1  0  0  0
 82159  1  0  0  0
 82160  1  0  0  0
 82161  1  0  0  0
 83 86  1  0  0  0
 83162  1  0  0  0
 83163  1  0  0  0
 84 85  1  0  0  0
 84164  1  0  0  0
 84165  1  0  0  0
 85166  1  0  0  0
 85167  1  0  0  0
 86168  1  0  0  0
 86169  1  0  0  0
M  ISO  4   1 100  68 101  84 100  86 101
M  END
> <chiral flag>
0

> <version>
0

> <s_m_source_file>
/data/baiqing/PycharmProjects/Reinvent-master-3.2/result/LINK_invent/BTK/process_docking_weight1_custom_sum_contain_oxygen_bond_distance_aromatic_linkinvent_7_9_3/rearranged_h_0043.sdf

> <i_m_source_file_index>
84

> <r_mmod_Potential_Energy-OPLS-2005>
-68.643928527832

> <r_mmod_Stretch_Energy-OPLS-2005>
62.5947685241699

> <r_mmod_Bend_Energy-OPLS-2005>
150.229064941406

> <r_mmod_Torsional_Energy-OPLS-2005>
212.514144897461

> <r_mmod_Improper_Torsional_Energy-OPLS-2005>
2.80804681777954

> <r_mmod_Van_der_Waal_Energy-OPLS-2005>
163.108612060547

> <r_mmod_Electrostatic_Energy-OPLS-2005>
-473.009490966797

> <r_mmod_Solvation_Energy-OPLS-2005>
-207.624740600586

> <b_mmod_Minimization_Converged-OPLS-2005>
0

> <r_mmod_RMS_Derivative-OPLS-2005>
1.2542040348053

$$$$
84
                    3D
 Structure written by MMmdl.
168176  0  0  1  0            999 V2000
  -29.4012  -15.6505   20.2967 C   0  0  0  0  0  0
  -30.2803  -13.1805   19.5676 C   0  0  0  0  0  0
  -29.4951  -12.6550   18.3304 C   0  0  0  0  0  0
  -28.0687  -12.2273   18.7328 C   0  0  0  0  0  0
  -27.4857  -13.2024   19.7808 C   0  0  2  0  0  0
  -28.4085  -13.4143   20.9651 C   0  0  0  0  0  0
  -25.1919  -13.7953   20.5745 C   0  0  0  0  0  0
  -24.1297  -13.0239   20.9228 C   0  0  0  0  0  0
  -24.5908  -11.6711   20.8743 C   0  0  0  0  0  0
  -23.8742  -10.4152   21.0465 C   0  0  0  0  0  0
  -24.3435   -9.4124   21.9213 C   0  0  0  0  0  0
  -23.6188   -8.2133   22.0757 C   0  0  0  0  0  0
  -22.4176   -8.0160   21.3543 C   0  0  0  0  0  0
  -21.9737   -9.0091   20.4643 C   0  0  0  0  0  0
  -22.6974  -10.1994   20.3069 C   0  0  0  0  0  0
  -21.6808   -6.0666   22.5292 C   0  0  0  0  0  0
  -21.3977   -6.5597   23.8214 C   0  0  0  0  0  0
  -21.3648   -5.6766   24.9187 C   0  0  0  0  0  0
  -21.6047   -4.3030   24.7248 C   0  0  0  0  0  0
  -21.8824   -3.8107   23.4374 C   0  0  0  0  0  0
  -21.9180   -4.6907   22.3422 C   0  0  0  0  0  0
  -22.7441  -13.5134   21.1979 C   0  0  0  0  0  0
  -22.1660   -4.2099   21.0998 F   0  0  0  0  0  0
  -21.5637   -3.4521   25.7767 F   0  0  0  0  0  0
  -29.4182  -14.2004   20.3313 N   0  0  0  0  0  0
  -26.1921  -12.8958   20.2765 N   0  0  0  0  0  0
  -25.8693  -11.6184   20.5464 N   0  0  0  0  0  0
  -22.0099  -12.8173   22.0541 N   0  0  0  0  0  0
  -25.3939  -15.1704   20.4661 N   0  0  0  0  0  0
  -30.6290  -15.9259   20.1355 O   0  0  0  0  0  0
  -21.6571   -6.8763   21.4240 O   0  0  0  0  0  0
  -22.3298  -14.5535   20.6868 O   0  0  0  0  0  0
  -24.6980  -31.9476   23.1787 C   0  0  0  0  0  0
  -25.9665  -32.5147   23.8589 C   0  0  1  0  0  0
  -26.5503  -27.2473   20.8411 C   0  0  0  0  0  0
  -25.6395  -33.8850   24.2609 N   0  0  0  0  0  0
  -23.5667  -30.7863   21.3544 C   0  0  2  0  0  0
  -24.9014  -29.1441   19.9623 C   0  0  0  0  0  0
  -22.9011  -29.7619   22.1927 C   0  0  0  0  0  0
  -18.5569  -27.3942   22.9878 C   0  0  0  0  0  0
  -24.1501  -36.7368   23.2606 C   0  0  0  0  0  0
  -26.0587  -30.9129   21.3272 C   0  0  0  0  0  0
  -26.0339  -29.5344   20.6902 C   0  0  0  0  0  0
  -27.0028  -28.5724   20.9959 C   0  0  0  0  0  0
  -25.7683  -26.9019   19.7402 C   0  0  0  0  0  0
  -24.8151  -27.8631   19.3799 C   0  0  0  0  0  0
  -23.7840  -30.1420   19.9434 C   0  0  0  0  0  0
  -25.4117  -36.3238   24.0354 C   0  0  1  0  0  0
  -20.9759  -28.3402   21.7483 C   0  0  2  0  0  0
  -22.2085  -26.6793   21.6635 C   0  0  0  0  0  0
  -21.1113  -24.9113   22.8624 C   0  0  0  0  0  0
  -19.1134  -25.6722   23.2502 C   0  0  0  0  0  0
  -19.4283  -28.5279   22.5433 C   0  0  0  0  0  0
  -19.0773  -29.8514   23.1091 C   0  0  0  0  0  0
  -17.8281  -30.2264   23.6536 C   0  0  0  0  0  0
  -25.9137  -34.9643   23.5193 C   0  0  0  0  0  0
  -16.8312  -29.2521   23.6057 C   0  0  0  0  0  0
  -17.2058  -27.8916   23.3142 C   0  0  0  0  0  0
  -26.4601  -31.6635   25.0869 C   0  0  0  0  0  0
  -25.3635  -31.3775   26.1390 C   0  0  0  0  0  0
  -27.0269  -30.3056   24.6120 C   0  0  0  0  0  0
  -27.6179  -32.4125   25.7845 C   0  0  0  0  0  0
  -27.5602  -37.1893   24.8465 C   0  0  0  0  0  0
  -21.7009  -29.5255   21.6710 N   0  0  0  0  0  0
  -26.4289  -37.3928   23.9448 N   0  0  0  0  0  0
  -24.7980  -31.2355   22.0192 N   0  0  0  0  0  0
  -23.4303  -29.1994   23.1520 O   0  0  0  0  0  0
  -26.2236  -26.6147   22.0614 O   0  0  0  0  0  0
  -26.5493  -34.9050   22.4626 O   0  0  0  0  0  0
  -23.6019  -32.2006   23.7071 O   0  0  0  0  0  0
  -20.5490  -26.0308   19.7705 C   0  0  0  0  0  0
  -21.4544  -24.9921   19.2430 C   0  0  0  0  0  0
  -21.7263  -23.9154   20.2090 C   0  0  0  0  0  0
  -23.4774  -24.6481   17.7235 C   0  0  0  0  0  0
  -21.5975  -26.1473   16.9685 C   0  0  0  0  0  0
  -22.7101  -22.1829   20.3182 C   0  0  0  0  0  0
  -24.5088  -21.1719   20.1916 C   0  0  0  0  0  0
  -25.4691  -19.3370   20.3156 C   0  0  0  0  0  0
  -23.1443  -26.6876   23.9111 C   0  0  0  0  0  0
  -21.1616  -26.9580   23.5999 C   0  0  0  0  0  0
  -27.2646  -18.3090   20.2291 C   0  0  0  0  0  0
  -24.7223  -26.2146   22.8402 C   0  0  0  0  0  0
  -21.9697  -24.9165   17.8104 C   0  0  0  0  0  0
  -20.3926  -24.5294   20.6407 N   0  0  0  0  0  0
  -20.1438  -26.0545   21.2041 N   0  0  0  0  0  0
  -28.0853  -16.6212   20.3181 N   0  0  0  0  0  0
  -31.2119  -13.6416   19.2392 H   0  0  0  0  0  0
  -30.5826  -12.3537   20.2124 H   0  0  0  0  0  0
  -30.0279  -11.8330   17.8517 H   0  0  0  0  0  0
  -29.4300  -13.4534   17.5898 H   0  0  0  0  0  0
  -28.1224  -11.2273   19.1635 H   0  0  0  0  0  0
  -27.4220  -12.1549   17.8582 H   0  0  0  0  0  0
  -27.3453  -14.1301   19.2217 H   0  0  0  0  0  0
  -28.7559  -12.4823   21.4137 H   0  0  0  0  0  0
  -27.9346  -13.9951   21.7591 H   0  0  0  0  0  0
  -25.2583   -9.5658   22.4767 H   0  0  0  0  0  0
  -23.9925   -7.4526   22.7459 H   0  0  0  0  0  0
  -21.0672   -8.8555   19.8960 H   0  0  0  0  0  0
  -22.3410  -10.9533   19.6185 H   0  0  0  0  0  0
  -21.1957   -7.6104   23.9698 H   0  0  0  0  0  0
  -21.1471   -6.0506   25.9085 H   0  0  0  0  0  0
  -22.0622   -2.7572   23.2888 H   0  0  0  0  0  0
  -22.3656  -11.9771   22.4859 H   0  0  0  0  0  0
  -21.0766  -13.1280   22.2838 H   0  0  0  0  0  0
  -24.4849  -15.6212   20.4400 H   0  0  0  0  0  0
  -25.8168  -15.4932   21.3282 H   0  0  0  0  0  0
  -26.7961  -32.5855   23.1598 H   0  0  0  0  0  0
  -25.0717  -33.9961   25.0882 H   0  0  0  0  0  0
  -22.9024  -31.6465   21.2404 H   0  0  0  0  0  0
  -23.3804  -35.9658   23.3253 H   0  0  0  0  0  0
  -24.3619  -36.8985   22.2025 H   0  0  0  0  0  0
  -23.7187  -37.6554   23.6592 H   0  0  0  0  0  0
  -26.2323  -31.6592   20.5505 H   0  0  0  0  0  0
  -26.9367  -30.9396   21.9633 H   0  0  0  0  0  0
  -27.7077  -28.8133   21.7795 H   0  0  0  0  0  0
  -25.5350  -25.8646   19.5548 H   0  0  0  0  0  0
  -23.9545  -27.5915   18.7876 H   0  0  0  0  0  0
  -24.0672  -30.9295   19.2443 H   0  0  0  0  0  0
  -22.8879  -29.7022   19.5034 H   0  0  0  0  0  0
  -25.1256  -36.2119   25.0840 H   0  0  0  0  0  0
  -21.0082  -28.8843   22.6647 H   0  0  0  0  0  0
  -23.1163  -27.2187   21.7607 H   0  0  0  0  0  0
  -22.6435  -26.3927   20.7146 H   0  0  0  0  0  0
  -21.5943  -24.6701   23.8133 H   0  0  0  0  0  0
  -21.2053  -23.8512   22.6165 H   0  0  0  0  0  0
  -18.3966  -25.0423   22.7148 H   0  0  0  0  0  0
  -18.8710  -25.4389   24.2873 H   0  0  0  0  0  0
  -19.7843  -30.6626   23.0049 H   0  0  0  0  0  0
  -17.6254  -31.2410   23.9688 H   0  0  0  0  0  0
  -15.8236  -29.4864   23.9197 H   0  0  0  0  0  0
  -16.4469  -27.1450   23.5038 H   0  0  0  0  0  0
  -24.5736  -30.7360   25.7466 H   0  0  0  0  0  0
  -24.8943  -32.2957   26.4930 H   0  0  0  0  0  0
  -25.7734  -30.8694   27.0126 H   0  0  0  0  0  0
  -26.2801  -29.7072   24.0880 H   0  0  0  0  0  0
  -27.3729  -29.7062   25.4552 H   0  0  0  0  0  0
  -27.8823  -30.4348   23.9485 H   0  0  0  0  0  0
  -27.2881  -33.3428   26.2480 H   0  0  0  0  0  0
  -28.4126  -32.6637   25.0810 H   0  0  0  0  0  0
  -28.0649  -31.8094   26.5756 H   0  0  0  0  0  0
  -28.2587  -38.0229   24.7602 H   0  0  0  0  0  0
  -28.1139  -36.2776   24.6173 H   0  0  0  0  0  0
  -27.2339  -37.1407   25.8869 H   0  0  0  0  0  0
  -21.3978  -30.1573   20.9428 H   0  0  0  0  0  0
  -26.0183  -38.2995   24.1511 H   0  0  0  0  0  0
  -20.2848  -26.9274   19.2262 H   0  0  0  0  0  0
  -23.7803  -23.7681   18.2882 H   0  0  0  0  0  0
  -24.0423  -25.4955   18.0871 H   0  0  0  0  0  0
  -23.7840  -24.4861   16.6901 H   0  0  0  0  0  0
  -20.5157  -26.2757   16.9123 H   0  0  0  0  0  0
  -21.9532  -26.0435   15.9425 H   0  0  0  0  0  0
  -22.0276  -27.0629   17.3741 H   0  0  0  0  0  0
  -22.1202  -21.5715   19.6357 H   0  0  0  0  0  0
  -22.3806  -21.8251   21.2926 H   0  0  0  0  0  0
  -25.1143  -21.7661   20.8764 H   0  0  0  0  0  0
  -24.8455  -21.5036   19.2088 H   0  0  0  0  0  0
  -24.8836  -18.7684   19.5927 H   0  0  0  0  0  0
  -25.0866  -18.9822   21.2726 H   0  0  0  0  0  0
  -23.1344  -25.8343   24.5876 H   0  0  0  0  0  0
  -23.4619  -27.4244   24.6475 H   0  0  0  0  0  0
  -20.8259  -27.8205   24.1821 H   0  0  0  0  0  0
  -20.8137  -26.4531   24.5138 H   0  0  0  0  0  0
  -27.8710  -18.8526   20.9535 H   0  0  0  0  0  0
  -27.6581  -18.6510   19.2715 H   0  0  0  0  0  0
  -24.3669  -25.4241   22.1771 H   0  0  0  0  0  0
  -25.2101  -25.6288   23.6180 H   0  0  0  0  0  0
  -21.4895  -24.0635   17.3284 H   0  0  0  0  0  0
  -27.3081  -15.9674   20.3354 H   0  0  0  0  0  0
  1 25  1  0  0  0
  1 30  2  0  0  0
  1 86  1  0  0  0
  2  3  1  0  0  0
  2 25  1  0  0  0
  2 87  1  0  0  0
  2 88  1  0  0  0
  3  4  1  0  0  0
  3 89  1  0  0  0
  3 90  1  0  0  0
  4  5  1  0  0  0
  4 91  1  0  0  0
  4 92  1  0  0  0
  5  6  1  0  0  0
  5 26  1  0  0  0
  5 93  1  0  0  0
  6 25  1  0  0  0
  6 94  1  0  0  0
  6 95  1  0  0  0
  7  8  2  0  0  0
  7 26  1  0  0  0
  7 29  1  0  0  0
  8  9  1  0  0  0
  8 22  1  0  0  0
  9 10  1  0  0  0
  9 27  2  0  0  0
 10 11  2  0  0  0
 10 15  1  0  0  0
 11 12  1  0  0  0
 11 96  1  0  0  0
 12 13  2  0  0  0
 12 97  1  0  0  0
 13 14  1  0  0  0
 13 31  1  0  0  0
 14 15  2  0  0  0
 14 98  1  0  0  0
 15 99  1  0  0  0
 16 17  2  0  0  0
 16 21  1  0  0  0
 16 31  1  0  0  0
 17 18  1  0  0  0
 17100  1  0  0  0
 18 19  2  0  0  0
 18101  1  0  0  0
 19 20  1  0  0  0
 19 24  1  0  0  0
 20 21  2  0  0  0
 20102  1  0  0  0
 21 23  1  0  0  0
 22 28  1  0  0  0
 22 32  2  0  0  0
 26 27  1  0  0  0
 28103  1  0  0  0
 28104  1  0  0  0
 29105  1  0  0  0
 29106  1  0  0  0
 33 34  1  0  0  0
 33 66  1  0  0  0
 33 70  2  0  0  0
 34 36  1  0  0  0
 34 59  1  0  0  0
 34107  1  0  0  0
 35 44  2  0  0  0
 35 45  1  0  0  0
 35 68  1  0  0  0
 36 56  1  0  0  0
 36108  1  0  0  0
 37 39  1  0  0  0
 37 47  1  0  0  0
 37 66  1  0  0  0
 37109  1  0  0  0
 38 43  2  0  0  0
 38 46  1  0  0  0
 38 47  1  0  0  0
 39 64  1  0  0  0
 39 67  2  0  0  0
 40 52  1  0  0  0
 40 53  2  0  0  0
 40 58  1  0  0  0
 41110  1  0  0  0
 41111  1  0  0  0
 41112  1  0  0  0
 41 48  1  0  0  0
 42 43  1  0  0  0
 42 66  1  0  0  0
 42113  1  0  0  0
 42114  1  0  0  0
 43 44  1  0  0  0
 44115  1  0  0  0
 45 46  2  0  0  0
 45116  1  0  0  0
 46117  1  0  0  0
 47118  1  0  0  0
 47119  1  0  0  0
 48 56  1  0  0  0
 48 65  1  0  0  0
 48120  1  0  0  0
 49 50  1  0  0  0
 49 53  1  0  0  0
 49 64  1  0  0  0
 49121  1  0  0  0
 50 51  1  0  0  0
 50122  1  0  0  0
 50123  1  0  0  0
 51 52  1  0  0  0
 51124  1  0  0  0
 51125  1  0  0  0
 52126  1  0  0  0
 52127  1  0  0  0
 53 54  1  0  0  0
 54 55  2  0  0  0
 54128  1  0  0  0
 55 57  1  0  0  0
 55129  1  0  0  0
 56 69  2  0  0  0
 57 58  2  0  0  0
 57130  1  0  0  0
 58131  1  0  0  0
 59 60  1  0  0  0
 59 61  1  0  0  0
 59 62  1  0  0  0
 60132  1  0  0  0
 60133  1  0  0  0
 60134  1  0  0  0
 61135  1  0  0  0
 61136  1  0  0  0
 61137  1  0  0  0
 62138  1  0  0  0
 62139  1  0  0  0
 62140  1  0  0  0
 63 65  1  0  0  0
 63141  1  0  0  0
 63142  1  0  0  0
 63143  1  0  0  0
 64144  1  0  0  0
 65145  1  0  0  0
 68 82  1  0  0  0
 71 72  2  0  0  0
 71 85  1  0  0  0
 71146  1  0  0  0
 72 73  1  0  0  0
 72 83  1  0  0  0
 73 76  1  0  0  0
 73 84  2  0  0  0
 74147  1  0  0  0
 74148  1  0  0  0
 74149  1  0  0  0
 74 83  1  0  0  0
 75 83  1  0  0  0
 75150  1  0  0  0
 75151  1  0  0  0
 75152  1  0  0  0
 76 77  1  0  0  0
 76153  1  0  0  0
 76154  1  0  0  0
 77 78  1  0  0  0
 77155  1  0  0  0
 77156  1  0  0  0
 78 81  1  0  0  0
 78157  1  0  0  0
 78158  1  0  0  0
 79 80  1  0  0  0
 79 82  1  0  0  0
 79159  1  0  0  0
 79160  1  0  0  0
 80 85  1  0  0  0
 80161  1  0  0  0
 80162  1  0  0  0
 81 86  1  0  0  0
 81163  1  0  0  0
 81164  1  0  0  0
 82165  1  0  0  0
 82166  1  0  0  0
 83167  1  0  0  0
 84 85  1  0  0  0
 86168  1  0  0  0
M  ISO  4   1 100  68 101  82 101  86 100
M  END
> <chiral flag>
0

> <version>
0

> <s_m_source_file>
/data/baiqing/PycharmProjects/Reinvent-master-3.2/result/LINK_invent/BTK/process_docking_weight1_custom_sum_contain_oxygen_bond_distance_aromatic_linkinvent_7_9_3/rearranged_h_0043.sdf

> <i_m_source_file_index>
85

> <r_mmod_Potential_Energy-OPLS-2005>
15191.6640625

> <r_mmod_Stretch_Energy-OPLS-2005>
6932.23046875

> <r_mmod_Bend_Energy-OPLS-2005>
1857.1669921875

> <r_mmod_Torsional_Energy-OPLS-2005>
647.502990722656

> <r_mmod_Improper_Torsional_Energy-OPLS-2005>
57.4867973327637

> <r_mmod_Van_der_Waal_Energy-OPLS-2005>
2202.828125

> <r_mmod_Electrostatic_Energy-OPLS-2005>
-403.683502197266

> <r_mmod_Solvation_Energy-OPLS-2005>
-216.287384033203

> <b_mmod_Minimization_Converged-OPLS-2005>
0

> <r_mmod_RMS_Derivative-OPLS-2005>
3.64037847518921

$$$$
85
                    3D
 Structure written by MMmdl.
156164  0  0  1  0            999 V2000
  -29.0589  -16.1407   20.6783 C   0  0  0  0  0  0
  -30.1448  -13.6369   19.7409 C   0  0  0  0  0  0
  -29.5151  -12.8842   18.4976 C   0  0  0  0  0  0
  -28.1425  -12.2946   18.8429 C   0  0  0  0  0  0
  -27.4598  -13.2613   19.8206 C   0  0  2  0  0  0
  -28.2770  -13.6184   21.0576 C   0  0  0  0  0  0
  -25.1636  -13.8051   20.5578 C   0  0  0  0  0  0
  -24.1170  -13.0260   20.9327 C   0  0  0  0  0  0
  -24.5866  -11.6760   20.8793 C   0  0  0  0  0  0
  -23.8736  -10.4166   21.0493 C   0  0  0  0  0  0
  -24.3438   -9.4135   21.9229 C   0  0  0  0  0  0
  -23.6199   -8.2134   22.0760 C   0  0  0  0  0  0
  -22.4188   -8.0157   21.3540 C   0  0  0  0  0  0
  -21.9745   -9.0088   20.4647 C   0  0  0  0  0  0
  -22.6978  -10.1999   20.3089 C   0  0  0  0  0  0
  -21.6814   -6.0665   22.5289 C   0  0  0  0  0  0
  -21.3984   -6.5600   23.8211 C   0  0  0  0  0  0
  -21.3649   -5.6770   24.9186 C   0  0  0  0  0  0
  -21.6046   -4.3032   24.7247 C   0  0  0  0  0  0
  -21.8825   -3.8107   23.4375 C   0  0  0  0  0  0
  -21.9183   -4.6906   22.3423 C   0  0  0  0  0  0
  -22.7312  -13.5108   21.2058 C   0  0  0  0  0  0
  -22.1660   -4.2096   21.0999 F   0  0  0  0  0  0
  -21.5636   -3.4527   25.7767 F   0  0  0  0  0  0
  -29.1597  -14.6236   20.5247 N   0  0  0  0  0  0
  -26.1666  -12.9115   20.2639 N   0  0  0  0  0  0
  -25.8641  -11.6301   20.5417 N   0  0  0  0  0  0
  -22.0016  -12.8120   22.0649 N   0  0  0  0  0  0
  -25.3443  -15.1812   20.4073 N   0  0  0  0  0  0
  -30.2987  -16.3358   20.3995 O   0  0  0  0  0  0
  -21.6582   -6.8758   21.4233 O   0  0  0  0  0  0
  -22.3099  -14.5452   20.6896 O   0  0  0  0  0  0
  -24.6694  -31.9312   23.2012 C   0  0  0  0  0  0
  -25.9504  -32.5075   23.8542 C   0  0  1  0  0  0
  -26.9344  -27.2829   20.2783 C   0  0  0  0  0  0
  -25.6309  -33.8807   24.2537 N   0  0  0  0  0  0
  -23.4865  -30.6203   21.5229 C   0  0  2  0  0  0
  -24.8509  -29.0847   20.0256 C   0  0  0  0  0  0
  -23.0037  -29.5500   22.4837 C   0  0  0  0  0  0
  -18.4849  -27.1991   23.2069 C   0  0  0  0  0  0
  -24.1506  -36.7363   23.2610 C   0  0  0  0  0  0
  -26.0055  -30.8522   21.3696 C   0  0  0  0  0  0
  -26.0114  -29.4835   20.7065 C   0  0  0  0  0  0
  -27.0878  -28.5746   20.8391 C   0  0  0  0  0  0
  -25.9198  -27.0296   19.3505 C   0  0  0  0  0  0
  -24.8189  -27.8832   19.3042 C   0  0  0  0  0  0
  -23.6572  -30.0019   20.1092 C   0  0  0  0  0  0
  -25.4125  -36.3203   24.0336 C   0  0  1  0  0  0
  -21.3636  -27.9845   22.8374 C   0  0  2  0  0  0
  -21.9376  -26.8383   21.1042 C   0  0  0  0  0  0
  -20.2343  -25.2905   20.6814 C   0  0  0  0  0  0
  -18.7351  -25.5843   22.2212 C   0  0  0  0  0  0
  -19.6638  -28.1890   23.5129 C   0  0  0  0  0  0
  -19.2837  -29.5549   23.9112 C   0  0  0  0  0  0
  -17.9657  -30.0944   23.9644 C   0  0  0  0  0  0
  -25.9126  -34.9605   23.5154 C   0  0  0  0  0  0
  -16.9053  -29.2631   23.5798 C   0  0  0  0  0  0
  -17.1764  -27.8972   23.2094 C   0  0  0  0  0  0
  -26.4598  -31.6640   25.0839 C   0  0  0  0  0  0
  -25.3717  -31.3749   26.1439 C   0  0  0  0  0  0
  -27.0361  -30.3062   24.6187 C   0  0  0  0  0  0
  -27.6156  -32.4217   25.7759 C   0  0  0  0  0  0
  -27.5598  -37.1878   24.8465 C   0  0  0  0  0  0
  -21.7249  -29.3045   22.4513 N   0  0  0  0  0  0
  -26.4300  -37.3888   23.9426 N   0  0  0  0  0  0
  -24.7418  -31.1811   22.0671 N   0  0  0  0  0  0
  -23.7759  -28.9246   23.2159 O   0  0  0  0  0  0
  -27.4194  -26.1585   20.8911 O   0  0  0  0  0  0
  -26.5518  -34.9025   22.4613 O   0  0  0  0  0  0
  -23.5821  -32.1933   23.7409 O   0  0  0  0  0  0
  -22.9217  -25.5419   24.0516 C   0  0  0  0  0  0
  -23.6872  -25.0707   22.9199 C   0  0  0  0  0  0
  -22.7066  -24.2109   22.3925 C   0  0  0  0  0  0
  -19.8084  -27.3659   21.2464 C   0  0  0  0  0  0
  -25.2536  -25.5203   22.6721 C   0  0  0  0  0  0
  -23.7542  -22.4374   21.6234 C   0  0  0  0  0  0
  -25.2336  -20.6622   21.8018 C   0  0  0  0  0  0
  -26.7244  -19.0877   20.9852 C   0  0  0  0  0  0
  -26.2806  -25.2202   21.4073 C   0  0  0  0  0  0
  -21.5644  -25.5429   23.9947 N   0  0  0  0  0  0
  -21.2423  -25.4263   22.6778 N   0  0  0  0  0  0
  -27.7498  -17.2799   20.9963 N   0  0  0  0  0  0
  -31.0015  -14.2055   19.3777 H   0  0  0  0  0  0
  -30.5899  -12.9136   20.4269 H   0  0  0  0  0  0
  -30.1889  -12.1131   18.1214 H   0  0  0  0  0  0
  -29.3915  -13.6044   17.6876 H   0  0  0  0  0  0
  -28.2778  -11.3231   19.3195 H   0  0  0  0  0  0
  -27.5417  -12.1333   17.9470 H   0  0  0  0  0  0
  -27.3012  -14.1516   19.2073 H   0  0  0  0  0  0
  -28.7500  -12.7567   21.5317 H   0  0  0  0  0  0
  -27.6681  -14.0926   21.8298 H   0  0  0  0  0  0
  -25.2580   -9.5679   22.4789 H   0  0  0  0  0  0
  -23.9943   -7.4526   22.7459 H   0  0  0  0  0  0
  -21.0683   -8.8554   19.8955 H   0  0  0  0  0  0
  -22.3408  -10.9540   19.6213 H   0  0  0  0  0  0
  -21.1961   -7.6107   23.9696 H   0  0  0  0  0  0
  -21.1473   -6.0508   25.9085 H   0  0  0  0  0  0
  -22.0619   -2.7569   23.2891 H   0  0  0  0  0  0
  -22.3649  -11.9764   22.4986 H   0  0  0  0  0  0
  -21.0668  -13.1182   22.2945 H   0  0  0  0  0  0
  -24.5071  -15.7541   20.4330 H   0  0  0  0  0  0
  -25.9989  -15.5050   19.7069 H   0  0  0  0  0  0
  -26.7678  -32.5718   23.1402 H   0  0  0  0  0  0
  -25.0614  -33.9945   25.0794 H   0  0  0  0  0  0
  -22.7349  -31.4098   21.4557 H   0  0  0  0  0  0
  -23.3788  -35.9675   23.3268 H   0  0  0  0  0  0
  -24.3620  -36.8975   22.2027 H   0  0  0  0  0  0
  -23.7230  -37.6562   23.6609 H   0  0  0  0  0  0
  -26.1820  -31.6097   20.6046 H   0  0  0  0  0  0
  -26.8780  -30.8646   22.0116 H   0  0  0  0  0  0
  -27.8950  -28.7825   21.5278 H   0  0  0  0  0  0
  -25.8466  -26.0778   18.8436 H   0  0  0  0  0  0
  -23.9499  -27.6104   18.7215 H   0  0  0  0  0  0
  -23.8108  -30.8050   19.3874 H   0  0  0  0  0  0
  -22.7475  -29.5005   19.7838 H   0  0  0  0  0  0
  -25.1278  -36.2073   25.0824 H   0  0  0  0  0  0
  -21.9019  -27.7945   23.7584 H   0  0  0  0  0  0
  -22.9536  -26.4607   21.1077 H   0  0  0  0  0  0
  -22.0537  -27.4921   20.2397 H   0  0  0  0  0  0
  -20.5767  -24.2526   20.6372 H   0  0  0  0  0  0
  -19.8110  -25.4226   19.6809 H   0  0  0  0  0  0
  -17.7698  -25.3510   21.7694 H   0  0  0  0  0  0
  -18.8358  -24.7969   22.9701 H   0  0  0  0  0  0
  -20.0805  -30.2560   24.1154 H   0  0  0  0  0  0
  -17.7958  -31.1268   24.2380 H   0  0  0  0  0  0
  -15.8946  -29.6473   23.5508 H   0  0  0  0  0  0
  -16.3267  -27.3204   22.8704 H   0  0  0  0  0  0
  -24.5870  -30.7207   25.7620 H   0  0  0  0  0  0
  -24.8964  -32.2915   26.4942 H   0  0  0  0  0  0
  -25.7932  -30.8784   27.0188 H   0  0  0  0  0  0
  -26.2947  -29.6965   24.1016 H   0  0  0  0  0  0
  -27.3873  -29.7160   25.4662 H   0  0  0  0  0  0
  -27.8917  -30.4350   23.9552 H   0  0  0  0  0  0
  -27.2805  -33.3499   26.2403 H   0  0  0  0  0  0
  -28.4056  -32.6775   25.0683 H   0  0  0  0  0  0
  -28.0703  -31.8227   26.5661 H   0  0  0  0  0  0
  -28.2592  -38.0201   24.7558 H   0  0  0  0  0  0
  -28.1124  -36.2740   24.6230 H   0  0  0  0  0  0
  -27.2330  -37.1456   25.8870 H   0  0  0  0  0  0
  -21.0957  -29.8567   21.8863 H   0  0  0  0  0  0
  -26.0188  -38.2957   24.1464 H   0  0  0  0  0  0
  -23.3346  -26.0579   24.9075 H   0  0  0  0  0  0
  -18.7665  -27.2817   20.8859 H   0  0  0  0  0  0
  -20.0209  -27.4707   20.1642 H   0  0  0  0  0  0
  -19.8885  -28.4582   21.2627 H   0  0  0  0  0  0
  -25.8181  -25.2545   23.5665 H   0  0  0  0  0  0
  -25.2449  -26.6098   22.7189 H   0  0  0  0  0  0
  -24.2216  -22.8952   20.7524 H   0  0  0  0  0  0
  -22.9147  -21.9005   21.1818 H   0  0  0  0  0  0
  -24.6095  -20.0011   22.4026 H   0  0  0  0  0  0
  -25.9000  -21.1100   22.5392 H   0  0  0  0  0  0
  -27.5619  -19.7385   20.7324 H   0  0  0  0  0  0
  -26.2373  -18.9206   20.0244 H   0  0  0  0  0  0
  -25.6547  -24.8882   20.5819 H   0  0  0  0  0  0
  -26.7925  -24.2932   21.6659 H   0  0  0  0  0  0
  -27.0169  -16.6231   21.2459 H   0  0  0  0  0  0
  1 25  1  0  0  0
  1 30  2  0  0  0
  1 82  1  0  0  0
  2  3  1  0  0  0
  2 25  1  0  0  0
  2 83  1  0  0  0
  2 84  1  0  0  0
  3  4  1  0  0  0
  3 85  1  0  0  0
  3 86  1  0  0  0
  4  5  1  0  0  0
  4 87  1  0  0  0
  4 88  1  0  0  0
  5  6  1  0  0  0
  5 26  1  0  0  0
  5 89  1  0  0  0
  6 25  1  0  0  0
  6 90  1  0  0  0
  6 91  1  0  0  0
  7  8  2  0  0  0
  7 26  1  0  0  0
  7 29  1  0  0  0
  8  9  1  0  0  0
  8 22  1  0  0  0
  9 10  1  0  0  0
  9 27  2  0  0  0
 10 11  2  0  0  0
 10 15  1  0  0  0
 11 12  1  0  0  0
 11 92  1  0  0  0
 12 13  2  0  0  0
 12 93  1  0  0  0
 13 14  1  0  0  0
 13 31  1  0  0  0
 14 15  2  0  0  0
 14 94  1  0  0  0
 15 95  1  0  0  0
 16 17  2  0  0  0
 16 21  1  0  0  0
 16 31  1  0  0  0
 17 18  1  0  0  0
 17 96  1  0  0  0
 18 19  2  0  0  0
 18 97  1  0  0  0
 19 20  1  0  0  0
 19 24  1  0  0  0
 20 21  2  0  0  0
 20 98  1  0  0  0
 21 23  1  0  0  0
 22 28  1  0  0  0
 22 32  2  0  0  0
 26 27  1  0  0  0
 28 99  1  0  0  0
 28100  1  0  0  0
 29101  1  0  0  0
 29102  1  0  0  0
 33 34  1  0  0  0
 33 66  1  0  0  0
 33 70  2  0  0  0
 34 36  1  0  0  0
 34 59  1  0  0  0
 34103  1  0  0  0
 35 44  2  0  0  0
 35 45  1  0  0  0
 35 68  1  0  0  0
 36 56  1  0  0  0
 36104  1  0  0  0
 37 39  1  0  0  0
 37 47  1  0  0  0
 37 66  1  0  0  0
 37105  1  0  0  0
 38 43  2  0  0  0
 38 46  1  0  0  0
 38 47  1  0  0  0
 39 64  1  0  0  0
 39 67  2  0  0  0
 40 52  1  0  0  0
 40 53  2  0  0  0
 40 58  1  0  0  0
 41106  1  0  0  0
 41107  1  0  0  0
 41108  1  0  0  0
 41 48  1  0  0  0
 42 43  1  0  0  0
 42 66  1  0  0  0
 42109  1  0  0  0
 42110  1  0  0  0
 43 44  1  0  0  0
 44111  1  0  0  0
 45 46  2  0  0  0
 45112  1  0  0  0
 46113  1  0  0  0
 47114  1  0  0  0
 47115  1  0  0  0
 48 56  1  0  0  0
 48 65  1  0  0  0
 48116  1  0  0  0
 49 50  1  0  0  0
 49 53  1  0  0  0
 49 64  1  0  0  0
 49117  1  0  0  0
 50 51  1  0  0  0
 50118  1  0  0  0
 50119  1  0  0  0
 51 52  1  0  0  0
 51120  1  0  0  0
 51121  1  0  0  0
 52122  1  0  0  0
 52123  1  0  0  0
 53 54  1  0  0  0
 54 55  2  0  0  0
 54124  1  0  0  0
 55 57  1  0  0  0
 55125  1  0  0  0
 56 69  2  0  0  0
 57 58  2  0  0  0
 57126  1  0  0  0
 58127  1  0  0  0
 59 60  1  0  0  0
 59 61  1  0  0  0
 59 62  1  0  0  0
 60128  1  0  0  0
 60129  1  0  0  0
 60130  1  0  0  0
 61131  1  0  0  0
 61132  1  0  0  0
 61133  1  0  0  0
 62134  1  0  0  0
 62135  1  0  0  0
 62136  1  0  0  0
 63 65  1  0  0  0
 63137  1  0  0  0
 63138  1  0  0  0
 63139  1  0  0  0
 64140  1  0  0  0
 65141  1  0  0  0
 68 79  1  0  0  0
 71 72  1  0  0  0
 71 80  2  0  0  0
 71142  1  0  0  0
 72 73  2  0  0  0
 72 75  1  0  0  0
 73 76  1  0  0  0
 73 81  1  0  0  0
 74 81  1  0  0  0
 74143  1  0  0  0
 74144  1  0  0  0
 74145  1  0  0  0
 75 79  1  0  0  0
 75146  1  0  0  0
 75147  1  0  0  0
 76 77  1  0  0  0
 76148  1  0  0  0
 76149  1  0  0  0
 77 78  1  0  0  0
 77150  1  0  0  0
 77151  1  0  0  0
 78 82  1  0  0  0
 78152  1  0  0  0
 78153  1  0  0  0
 79154  1  0  0  0
 79155  1  0  0  0
 80 81  1  0  0  0
 82156  1  0  0  0
M  ISO  4   1 100  68 101  79 101  82 100
M  END
> <chiral flag>
0

> <version>
0

> <s_m_source_file>
/data/baiqing/PycharmProjects/Reinvent-master-3.2/result/LINK_invent/BTK/process_docking_weight1_custom_sum_contain_oxygen_bond_distance_aromatic_linkinvent_7_9_3/rearranged_h_0043.sdf

> <i_m_source_file_index>
86

> <r_mmod_Potential_Energy-OPLS-2005>
14991.322265625

> <r_mmod_Stretch_Energy-OPLS-2005>
8264.34375

> <r_mmod_Bend_Energy-OPLS-2005>
1443.43310546875

> <r_mmod_Torsional_Energy-OPLS-2005>
547.562866210938

> <r_mmod_Improper_Torsional_Energy-OPLS-2005>
31.4795265197754

> <r_mmod_Van_der_Waal_Energy-OPLS-2005>
1959.25256347656

> <r_mmod_Electrostatic_Energy-OPLS-2005>
-388.715118408203

> <r_mmod_Solvation_Energy-OPLS-2005>
-228.049606323242

> <b_mmod_Minimization_Converged-OPLS-2005>
0

> <r_mmod_RMS_Derivative-OPLS-2005>
1.30370759963989

$$$$
86
                    3D
 Structure written by MMmdl.
153161  0  0  1  0            999 V2000
  -30.6005  -14.7344   20.4789 C   0  0  0  0  0  0
  -30.4372  -12.4531   19.4655 C   0  0  0  0  0  0
  -29.5085  -12.5084   18.2318 C   0  0  0  0  0  0
  -28.0344  -12.3332   18.6478 C   0  0  0  0  0  0
  -27.6431  -13.2282   19.8538 C   0  0  2  0  0  0
  -28.6882  -13.1409   20.9869 C   0  0  0  0  0  0
  -25.2512  -13.8183   20.5703 C   0  0  0  0  0  0
  -24.1801  -13.0436   20.9216 C   0  0  0  0  0  0
  -24.6388  -11.6912   20.8754 C   0  0  0  0  0  0
  -23.9066  -10.4290   21.0412 C   0  0  0  0  0  0
  -24.3618   -9.4203   21.9188 C   0  0  0  0  0  0
  -23.6295   -8.2237   22.0751 C   0  0  0  0  0  0
  -22.4275   -8.0277   21.3544 C   0  0  0  0  0  0
  -21.9914   -9.0251   20.4646 C   0  0  0  0  0  0
  -22.7238  -10.2133   20.3060 C   0  0  0  0  0  0
  -21.6851   -6.0737   22.5281 C   0  0  0  0  0  0
  -21.4004   -6.5638   23.8215 C   0  0  0  0  0  0
  -21.3660   -5.6791   24.9179 C   0  0  0  0  0  0
  -21.6046   -4.3054   24.7228 C   0  0  0  0  0  0
  -21.8819   -3.8147   23.4347 C   0  0  0  0  0  0
  -21.9188   -4.6965   22.3403 C   0  0  0  0  0  0
  -22.7821  -13.5217   21.1883 C   0  0  0  0  0  0
  -22.1661   -4.2148   21.0982 F   0  0  0  0  0  0
  -21.5636   -3.4538   25.7741 F   0  0  0  0  0  0
  -29.9886  -13.5033   20.4083 N   0  0  0  0  0  0
  -26.2939  -12.9389   20.3293 N   0  0  0  0  0  0
  -25.9317  -11.6534   20.5759 N   0  0  0  0  0  0
  -22.0469  -12.8208   22.0439 N   0  0  0  0  0  0
  -25.4199  -15.1911   20.4116 N   0  0  0  0  0  0
  -31.7859  -14.8558   20.1577 O   0  0  0  0  0  0
  -21.6636   -6.8878   21.4241 O   0  0  0  0  0  0
  -22.3509  -14.5527   20.6730 O   0  0  0  0  0  0
  -24.6300  -31.8549   23.1971 C   0  0  0  0  0  0
  -25.9120  -32.4752   23.8329 C   0  0  1  0  0  0
  -27.2202  -27.2656   20.1378 C   0  0  0  0  0  0
  -25.5903  -33.8557   24.2241 N   0  0  0  0  0  0
  -23.4279  -30.4757   21.5408 C   0  0  2  0  0  0
  -24.8754  -28.9200   20.1129 C   0  0  0  0  0  0
  -22.7494  -29.4596   22.4913 C   0  0  0  0  0  0
  -18.0283  -28.1391   22.8486 C   0  0  0  0  0  0
  -24.1476  -36.7293   23.2643 C   0  0  0  0  0  0
  -25.9720  -30.7718   21.3738 C   0  0  0  0  0  0
  -26.0471  -29.3929   20.7187 C   0  0  0  0  0  0
  -27.2253  -28.5804   20.7138 C   0  0  0  0  0  0
  -26.0293  -26.8584   19.5007 C   0  0  0  0  0  0
  -24.8708  -27.6606   19.4928 C   0  0  0  0  0  0
  -23.6457  -29.8061   20.1585 C   0  0  0  0  0  0
  -25.4105  -36.3063   24.0315 C   0  0  1  0  0  0
  -20.5888  -28.3704   23.1263 C   0  0  2  0  0  0
  -20.6772  -26.9418   22.5408 C   0  0  0  0  0  0
  -19.5749  -26.6385   21.5211 C   0  0  0  0  0  0
  -18.1931  -26.7932   22.1628 C   0  0  0  0  0  0
  -19.1539  -28.8863   23.2872 C   0  0  0  0  0  0
  -18.9460  -30.1460   23.8901 C   0  0  0  0  0  0
  -17.6460  -30.6597   24.0556 C   0  0  0  0  0  0
  -25.9048  -34.9436   23.5083 C   0  0  0  0  0  0
  -16.5349  -29.9093   23.6328 C   0  0  0  0  0  0
  -16.7268  -28.6507   23.0357 C   0  0  0  0  0  0
  -26.4485  -31.6581   25.0723 C   0  0  0  0  0  0
  -25.3688  -31.3753   26.1430 C   0  0  0  0  0  0
  -27.0342  -30.2996   24.6230 C   0  0  0  0  0  0
  -27.6037  -32.4328   25.7494 C   0  0  0  0  0  0
  -27.5571  -37.1786   24.8465 C   0  0  0  0  0  0
  -21.4201  -29.3052   22.3656 N   0  0  0  0  0  0
  -26.4284  -37.3755   23.9409 N   0  0  0  0  0  0
  -24.6960  -31.0515   22.0946 N   0  0  0  0  0  0
  -23.4185  -28.8134   23.3017 O   0  0  0  0  0  0
  -28.3230  -26.3839   20.1538 O   0  0  0  0  0  0
  -26.5648  -34.8909   22.4667 O   0  0  0  0  0  0
  -23.5446  -32.1372   23.7260 O   0  0  0  0  0  0
  -29.3877  -20.7178   21.7771 C   0  0  0  0  0  0
  -29.1301  -19.9905   20.5716 C   0  0  0  0  0  0
  -28.9026  -21.0614   19.6976 C   0  0  0  0  0  0
  -28.5908  -21.0082   18.2375 C   0  0  0  0  0  0
  -28.9921  -18.4072   20.3757 C   0  0  0  0  0  0
  -28.9570  -23.7588   19.8347 C   0  0  0  0  0  0
  -30.1546  -17.3415   20.7406 C   0  0  0  0  0  0
  -28.1277  -24.9437   20.5577 C   0  0  0  0  0  0
  -29.3132  -22.0534   21.6528 N   0  0  0  0  0  0
  -28.9821  -22.3167   20.3648 N   0  0  0  0  0  0
  -29.8090  -15.8471   20.7174 N   0  0  0  0  0  0
  -31.4752  -12.5899   19.1580 H   0  0  0  0  0  0
  -30.3933  -11.4712   19.9396 H   0  0  0  0  0  0
  -29.7877  -11.7355   17.5144 H   0  0  0  0  0  0
  -29.6334  -13.4628   17.7181 H   0  0  0  0  0  0
  -27.8906  -11.2838   18.9073 H   0  0  0  0  0  0
  -27.3746  -12.5282   17.8013 H   0  0  0  0  0  0
  -27.6428  -14.2533   19.4818 H   0  0  0  0  0  0
  -28.7239  -12.1326   21.4026 H   0  0  0  0  0  0
  -28.4236  -13.8019   21.8139 H   0  0  0  0  0  0
  -25.2762   -9.5678   22.4765 H   0  0  0  0  0  0
  -24.0002   -7.4626   22.7467 H   0  0  0  0  0  0
  -21.0845   -8.8771   19.8953 H   0  0  0  0  0  0
  -22.3694  -10.9675   19.6171 H   0  0  0  0  0  0
  -21.1988   -7.6144   23.9717 H   0  0  0  0  0  0
  -21.1487   -6.0522   25.9082 H   0  0  0  0  0  0
  -22.0598   -2.7607   23.2848 H   0  0  0  0  0  0
  -22.4085  -11.9864   22.4822 H   0  0  0  0  0  0
  -21.1089  -13.1233   22.2659 H   0  0  0  0  0  0
  -24.6481  -15.8405   20.5177 H   0  0  0  0  0  0
  -26.2609  -15.6322   20.0631 H   0  0  0  0  0  0
  -26.7189  -32.5413   23.1075 H   0  0  0  0  0  0
  -24.9960  -33.9690   25.0324 H   0  0  0  0  0  0
  -22.7251  -31.2984   21.3930 H   0  0  0  0  0  0
  -23.3727  -35.9636   23.3306 H   0  0  0  0  0  0
  -24.3568  -36.8937   22.2065 H   0  0  0  0  0  0
  -23.7243  -37.6491   23.6682 H   0  0  0  0  0  0
  -26.1045  -31.5314   20.6024 H   0  0  0  0  0  0
  -26.8519  -30.8276   22.0038 H   0  0  0  0  0  0
  -28.1263  -28.9416   21.1894 H   0  0  0  0  0  0
  -25.9855  -25.8978   19.0075 H   0  0  0  0  0  0
  -23.9734  -27.2961   19.0122 H   0  0  0  0  0  0
  -23.7657  -30.5801   19.3999 H   0  0  0  0  0  0
  -22.7656  -29.2361   19.8561 H   0  0  0  0  0  0
  -25.1279  -36.1903   25.0804 H   0  0  0  0  0  0
  -20.9980  -28.3287   24.1383 H   0  0  0  0  0  0
  -20.5660  -26.2322   23.3619 H   0  0  0  0  0  0
  -21.6643  -26.7437   22.1213 H   0  0  0  0  0  0
  -19.6910  -25.6290   21.1258 H   0  0  0  0  0  0
  -19.6689  -27.3183   20.6730 H   0  0  0  0  0  0
  -17.4197  -26.6666   21.4038 H   0  0  0  0  0  0
  -18.0336  -26.0080   22.9032 H   0  0  0  0  0  0
  -19.7938  -30.7267   24.2290 H   0  0  0  0  0  0
  -17.5017  -31.6279   24.5157 H   0  0  0  0  0  0
  -15.5350  -30.2998   23.7664 H   0  0  0  0  0  0
  -15.8664  -28.0823   22.7085 H   0  0  0  0  0  0
  -24.5853  -30.7116   25.7748 H   0  0  0  0  0  0
  -24.8879  -32.2933   26.4815 H   0  0  0  0  0  0
  -25.7972  -30.8944   27.0232 H   0  0  0  0  0  0
  -26.2940  -29.6732   24.1237 H   0  0  0  0  0  0
  -27.3997  -29.7274   25.4770 H   0  0  0  0  0  0
  -27.8817  -30.4275   23.9499 H   0  0  0  0  0  0
  -27.2645  -33.3642   26.2043 H   0  0  0  0  0  0
  -28.3852  -32.6872   25.0318 H   0  0  0  0  0  0
  -28.0694  -31.8474   26.5432 H   0  0  0  0  0  0
  -28.2572  -38.0093   24.7496 H   0  0  0  0  0  0
  -28.1074  -36.2618   24.6292 H   0  0  0  0  0  0
  -27.2293  -37.1445   25.8868 H   0  0  0  0  0  0
  -20.9386  -29.8790   21.6876 H   0  0  0  0  0  0
  -26.0159  -38.2824   24.1404 H   0  0  0  0  0  0
  -29.6002  -20.3137   22.7576 H   0  0  0  0  0  0
  -29.3593  -21.5227   17.6604 H   0  0  0  0  0  0
  -27.6320  -21.4824   18.0273 H   0  0  0  0  0  0
  -28.5387  -19.9825   17.8752 H   0  0  0  0  0  0
  -28.7049  -18.2014   19.3451 H   0  0  0  0  0  0
  -28.1166  -18.0945   20.9456 H   0  0  0  0  0  0
  -29.9978  -24.0791   19.7914 H   0  0  0  0  0  0
  -28.6331  -23.7220   18.7953 H   0  0  0  0  0  0
  -30.5132  -17.5595   21.7474 H   0  0  0  0  0  0
  -31.0073  -17.5142   20.0821 H   0  0  0  0  0  0
  -28.3816  -24.9099   21.6171 H   0  0  0  0  0  0
  -27.0726  -24.6741   20.5262 H   0  0  0  0  0  0
  -28.8475  -15.6265   20.9285 H   0  0  0  0  0  0
  1 25  1  0  0  0
  1 30  2  0  0  0
  1 81  1  0  0  0
  2  3  1  0  0  0
  2 25  1  0  0  0
  2 82  1  0  0  0
  2 83  1  0  0  0
  3  4  1  0  0  0
  3 84  1  0  0  0
  3 85  1  0  0  0
  4  5  1  0  0  0
  4 86  1  0  0  0
  4 87  1  0  0  0
  5  6  1  0  0  0
  5 26  1  0  0  0
  5 88  1  0  0  0
  6 25  1  0  0  0
  6 89  1  0  0  0
  6 90  1  0  0  0
  7  8  2  0  0  0
  7 26  1  0  0  0
  7 29  1  0  0  0
  8  9  1  0  0  0
  8 22  1  0  0  0
  9 10  1  0  0  0
  9 27  2  0  0  0
 10 11  2  0  0  0
 10 15  1  0  0  0
 11 12  1  0  0  0
 11 91  1  0  0  0
 12 13  2  0  0  0
 12 92  1  0  0  0
 13 14  1  0  0  0
 13 31  1  0  0  0
 14 15  2  0  0  0
 14 93  1  0  0  0
 15 94  1  0  0  0
 16 17  2  0  0  0
 16 21  1  0  0  0
 16 31  1  0  0  0
 17 18  1  0  0  0
 17 95  1  0  0  0
 18 19  2  0  0  0
 18 96  1  0  0  0
 19 20  1  0  0  0
 19 24  1  0  0  0
 20 21  2  0  0  0
 20 97  1  0  0  0
 21 23  1  0  0  0
 22 28  1  0  0  0
 22 32  2  0  0  0
 26 27  1  0  0  0
 28 98  1  0  0  0
 28 99  1  0  0  0
 29100  1  0  0  0
 29101  1  0  0  0
 33 34  1  0  0  0
 33 66  1  0  0  0
 33 70  2  0  0  0
 34 36  1  0  0  0
 34 59  1  0  0  0
 34102  1  0  0  0
 35 44  2  0  0  0
 35 45  1  0  0  0
 35 68  1  0  0  0
 36 56  1  0  0  0
 36103  1  0  0  0
 37 39  1  0  0  0
 37 47  1  0  0  0
 37 66  1  0  0  0
 37104  1  0  0  0
 38 43  2  0  0  0
 38 46  1  0  0  0
 38 47  1  0  0  0
 39 64  1  0  0  0
 39 67  2  0  0  0
 40 52  1  0  0  0
 40 53  2  0  0  0
 40 58  1  0  0  0
 41105  1  0  0  0
 41106  1  0  0  0
 41107  1  0  0  0
 41 48  1  0  0  0
 42 43  1  0  0  0
 42 66  1  0  0  0
 42108  1  0  0  0
 42109  1  0  0  0
 43 44  1  0  0  0
 44110  1  0  0  0
 45 46  2  0  0  0
 45111  1  0  0  0
 46112  1  0  0  0
 47113  1  0  0  0
 47114  1  0  0  0
 48 56  1  0  0  0
 48 65  1  0  0  0
 48115  1  0  0  0
 49 50  1  0  0  0
 49 53  1  0  0  0
 49 64  1  0  0  0
 49116  1  0  0  0
 50 51  1  0  0  0
 50117  1  0  0  0
 50118  1  0  0  0
 51 52  1  0  0  0
 51119  1  0  0  0
 51120  1  0  0  0
 52121  1  0  0  0
 52122  1  0  0  0
 53 54  1  0  0  0
 54 55  2  0  0  0
 54123  1  0  0  0
 55 57  1  0  0  0
 55124  1  0  0  0
 56 69  2  0  0  0
 57 58  2  0  0  0
 57125  1  0  0  0
 58126  1  0  0  0
 59 60  1  0  0  0
 59 61  1  0  0  0
 59 62  1  0  0  0
 60127  1  0  0  0
 60128  1  0  0  0
 60129  1  0  0  0
 61130  1  0  0  0
 61131  1  0  0  0
 61132  1  0  0  0
 62133  1  0  0  0
 62134  1  0  0  0
 62135  1  0  0  0
 63 65  1  0  0  0
 63136  1  0  0  0
 63137  1  0  0  0
 63138  1  0  0  0
 64139  1  0  0  0
 65140  1  0  0  0
 68 78  1  0  0  0
 71 72  1  0  0  0
 71 79  2  0  0  0
 71141  1  0  0  0
 72 73  2  0  0  0
 72 75  1  0  0  0
 73 74  1  0  0  0
 73 80  1  0  0  0
 74142  1  0  0  0
 74143  1  0  0  0
 74144  1  0  0  0
 75 77  1  0  0  0
 75145  1  0  0  0
 75146  1  0  0  0
 76 78  1  0  0  0
 76 80  1  0  0  0
 76147  1  0  0  0
 76148  1  0  0  0
 77 81  1  0  0  0
 77149  1  0  0  0
 77150  1  0  0  0
 78151  1  0  0  0
 78152  1  0  0  0
 79 80  1  0  0  0
 81153  1  0  0  0
M  ISO  4   1 100  68 101  78 101  81 100
M  END
> <chiral flag>
0

> <version>
0

> <s_m_source_file>
/data/baiqing/PycharmProjects/Reinvent-master-3.2/result/LINK_invent/BTK/process_docking_weight1_custom_sum_contain_oxygen_bond_distance_aromatic_linkinvent_7_9_3/rearranged_h_0043.sdf

> <i_m_source_file_index>
87

> <r_mmod_Potential_Energy-OPLS-2005>
83.9713439941406

> <r_mmod_Stretch_Energy-OPLS-2005>
119.032745361328

> <r_mmod_Bend_Energy-OPLS-2005>
161.203491210938

> <r_mmod_Torsional_Energy-OPLS-2005>
224.293533325195

> <r_mmod_Improper_Torsional_Energy-OPLS-2005>
5.72192049026489

> <r_mmod_Van_der_Waal_Energy-OPLS-2005>
112.090629577637

> <r_mmod_Electrostatic_Energy-OPLS-2005>
-388.401397705078

> <r_mmod_Solvation_Energy-OPLS-2005>
-229.716598510742

> <b_mmod_Minimization_Converged-OPLS-2005>
0

> <r_mmod_RMS_Derivative-OPLS-2005>
1.1586742401123

$$$$
87
                    3D
 Structure written by MMmdl.
160168  0  0  1  0            999 V2000
  -30.7495  -14.3775   20.6553 C   0  0  0  0  0  0
  -30.4254  -12.2882   19.3850 C   0  0  0  0  0  0
  -29.4826  -12.5200   18.1884 C   0  0  0  0  0  0
  -28.0095  -12.3702   18.6118 C   0  0  0  0  0  0
  -27.6710  -13.1942   19.8816 C   0  0  2  0  0  0
  -28.7125  -12.9269   20.9919 C   0  0  0  0  0  0
  -25.2651  -13.8138   20.5669 C   0  0  0  0  0  0
  -24.1868  -13.0432   20.9152 C   0  0  0  0  0  0
  -24.6394  -11.6897   20.8718 C   0  0  0  0  0  0
  -23.9057  -10.4285   21.0395 C   0  0  0  0  0  0
  -24.3603   -9.4217   21.9192 C   0  0  0  0  0  0
  -23.6279   -8.2256   22.0769 C   0  0  0  0  0  0
  -22.4274   -8.0281   21.3543 C   0  0  0  0  0  0
  -21.9913   -9.0245   20.4638 C   0  0  0  0  0  0
  -22.7233  -10.2128   20.3041 C   0  0  0  0  0  0
  -21.6852   -6.0733   22.5275 C   0  0  0  0  0  0
  -21.4005   -6.5635   23.8210 C   0  0  0  0  0  0
  -21.3656   -5.6788   24.9172 C   0  0  0  0  0  0
  -21.6047   -4.3053   24.7225 C   0  0  0  0  0  0
  -21.8825   -3.8144   23.4347 C   0  0  0  0  0  0
  -21.9193   -4.6957   22.3401 C   0  0  0  0  0  0
  -22.7899  -13.5253   21.1802 C   0  0  0  0  0  0
  -22.1666   -4.2149   21.0978 F   0  0  0  0  0  0
  -21.5630   -3.4538   25.7738 F   0  0  0  0  0  0
  -30.0541  -13.2286   20.4533 N   0  0  0  0  0  0
  -26.3077  -12.9278   20.3392 N   0  0  0  0  0  0
  -25.9323  -11.6449   20.5761 N   0  0  0  0  0  0
  -22.0495  -12.8222   22.0302 N   0  0  0  0  0  0
  -25.4414  -15.1843   20.4074 N   0  0  0  0  0  0
  -31.7889  -14.6624   20.0528 O   0  0  0  0  0  0
  -21.6635   -6.8877   21.4239 O   0  0  0  0  0  0
  -22.3606  -14.5573   20.6662 O   0  0  0  0  0  0
  -24.6143  -31.8710   23.2145 C   0  0  0  0  0  0
  -25.9064  -32.4831   23.8416 C   0  0  1  0  0  0
  -27.2328  -27.4603   20.0620 C   0  0  0  0  0  0
  -25.5963  -33.8625   24.2376 N   0  0  0  0  0  0
  -23.3967  -30.4983   21.5567 C   0  0  2  0  0  0
  -24.8376  -28.9653   20.1228 C   0  0  0  0  0  0
  -22.7383  -29.4696   22.5027 C   0  0  0  0  0  0
  -18.0274  -28.1374   22.8505 C   0  0  0  0  0  0
  -24.1488  -36.7289   23.2638 C   0  0  0  0  0  0
  -25.9248  -30.8404   21.3616 C   0  0  0  0  0  0
  -25.9998  -29.4733   20.7159 C   0  0  0  0  0  0
  -27.1955  -28.7214   20.6970 C   0  0  0  0  0  0
  -26.0405  -26.9543   19.4961 C   0  0  0  0  0  0
  -24.8497  -27.6987   19.5202 C   0  0  0  0  0  0
  -23.5995  -29.8295   20.1723 C   0  0  0  0  0  0
  -25.4116  -36.3102   24.0336 C   0  0  1  0  0  0
  -20.5859  -28.3666   23.1329 C   0  0  2  0  0  0
  -20.6756  -26.9404   22.5421 C   0  0  0  0  0  0
  -19.5735  -26.6390   21.5217 C   0  0  0  0  0  0
  -18.1904  -26.7945   22.1592 C   0  0  0  0  0  0
  -19.1519  -28.8834   23.2914 C   0  0  0  0  0  0
  -18.9447  -30.1450   23.8909 C   0  0  0  0  0  0
  -17.6445  -30.6576   24.0582 C   0  0  0  0  0  0
  -25.9036  -34.9470   23.5137 C   0  0  0  0  0  0
  -16.5340  -29.9074   23.6343 C   0  0  0  0  0  0
  -16.7264  -28.6495   23.0363 C   0  0  0  0  0  0
  -26.4500  -31.6596   25.0730 C   0  0  0  0  0  0
  -25.3781  -31.3636   26.1482 C   0  0  0  0  0  0
  -27.0350  -30.3060   24.6054 C   0  0  0  0  0  0
  -27.6081  -32.4306   25.7499 C   0  0  0  0  0  0
  -27.5567  -37.1841   24.8480 C   0  0  0  0  0  0
  -21.4119  -29.3047   22.3743 N   0  0  0  0  0  0
  -26.4306  -37.3783   23.9383 N   0  0  0  0  0  0
  -24.6643  -31.0831   22.1034 N   0  0  0  0  0  0
  -23.4167  -28.8225   23.3046 O   0  0  0  0  0  0
  -28.4292  -26.7774   20.0146 O   0  0  0  0  0  0
  -26.5544  -34.8909   22.4662 O   0  0  0  0  0  0
  -23.5355  -32.1464   23.7563 O   0  0  0  0  0  0
  -28.8627  -23.6622   19.8754 C   0  0  0  0  0  0
  -28.3503  -22.3616   19.9459 C   0  0  0  0  0  0
  -28.2652  -24.5345   18.9585 C   0  0  0  0  0  0
  -26.8235  -22.8756   18.3179 C   0  0  0  0  0  0
  -25.6358  -22.4725   17.4693 C   0  0  0  0  0  0
  -28.8925  -21.3574   20.9505 C   0  0  0  0  0  0
  -28.7082  -25.9890   18.8485 C   0  0  0  0  0  0
  -29.2251  -19.9854   20.3377 C   0  0  0  0  0  0
  -29.9356  -19.0360   21.3206 C   0  0  0  0  0  0
  -29.8103  -17.5634   20.9046 C   0  0  0  0  0  0
  -30.6025  -16.5960   21.8025 C   0  0  0  0  0  0
  -27.3058  -21.9853   19.1793 N   0  0  0  0  0  0
  -27.2662  -24.1152   18.1567 N   0  0  0  0  0  0
  -30.2005  -15.2165   21.5410 N   0  0  0  0  0  0
  -31.4639  -12.4032   19.0705 H   0  0  0  0  0  0
  -30.3398  -11.2622   19.7459 H   0  0  0  0  0  0
  -29.7118  -11.8180   17.3853 H   0  0  0  0  0  0
  -29.6447  -13.5187   17.7794 H   0  0  0  0  0  0
  -27.8237  -11.3101   18.7948 H   0  0  0  0  0  0
  -27.3498  -12.6546   17.7914 H   0  0  0  0  0  0
  -27.7341  -14.2484   19.6103 H   0  0  0  0  0  0
  -28.6793  -11.8790   21.2945 H   0  0  0  0  0  0
  -28.4633  -13.4885   21.8922 H   0  0  0  0  0  0
  -25.2746   -9.5700   22.4766 H   0  0  0  0  0  0
  -23.9985   -7.4664   22.7506 H   0  0  0  0  0  0
  -21.0860   -8.8751   19.8929 H   0  0  0  0  0  0
  -22.3704  -10.9655   19.6135 H   0  0  0  0  0  0
  -21.1989   -7.6142   23.9710 H   0  0  0  0  0  0
  -21.1468   -6.0518   25.9077 H   0  0  0  0  0  0
  -22.0602   -2.7604   23.2847 H   0  0  0  0  0  0
  -22.4074  -11.9835   22.4622 H   0  0  0  0  0  0
  -21.1099  -13.1233   22.2455 H   0  0  0  0  0  0
  -24.6823  -15.8467   20.5254 H   0  0  0  0  0  0
  -26.3016  -15.6181   20.0934 H   0  0  0  0  0  0
  -26.7133  -32.5557   23.1180 H   0  0  0  0  0  0
  -25.0302  -33.9804   25.0652 H   0  0  0  0  0  0
  -22.6887  -31.3182   21.4194 H   0  0  0  0  0  0
  -23.3757  -35.9616   23.3337 H   0  0  0  0  0  0
  -24.3567  -36.8873   22.2044 H   0  0  0  0  0  0
  -23.7237  -37.6504   23.6627 H   0  0  0  0  0  0
  -26.0284  -31.6001   20.5853 H   0  0  0  0  0  0
  -26.8179  -30.9022   21.9712 H   0  0  0  0  0  0
  -28.0961  -29.1167   21.1462 H   0  0  0  0  0  0
  -25.9952  -25.9855   19.0348 H   0  0  0  0  0  0
  -23.9508  -27.2923   19.0767 H   0  0  0  0  0  0
  -23.6991  -30.6033   19.4106 H   0  0  0  0  0  0
  -22.7239  -29.2463   19.8813 H   0  0  0  0  0  0
  -25.1292  -36.1984   25.0829 H   0  0  0  0  0  0
  -20.9960  -28.3230   24.1451 H   0  0  0  0  0  0
  -20.5679  -26.2268   23.3600 H   0  0  0  0  0  0
  -21.6623  -26.7445   22.1215 H   0  0  0  0  0  0
  -19.6897  -25.6313   21.1225 H   0  0  0  0  0  0
  -19.6682  -27.3216   20.6763 H   0  0  0  0  0  0
  -17.4196  -26.6786   21.3954 H   0  0  0  0  0  0
  -18.0227  -26.0043   22.8921 H   0  0  0  0  0  0
  -19.7916  -30.7283   24.2257 H   0  0  0  0  0  0
  -17.4992  -31.6254   24.5204 H   0  0  0  0  0  0
  -15.5339  -30.2971   23.7669 H   0  0  0  0  0  0
  -15.8669  -28.0822   22.7067 H   0  0  0  0  0  0
  -24.6186  -30.6662   25.7922 H   0  0  0  0  0  0
  -24.8661  -32.2701   26.4705 H   0  0  0  0  0  0
  -25.8217  -30.9128   27.0368 H   0  0  0  0  0  0
  -26.2890  -29.6819   24.1108 H   0  0  0  0  0  0
  -27.4189  -29.7273   25.4471 H   0  0  0  0  0  0
  -27.8679  -30.4440   23.9151 H   0  0  0  0  0  0
  -27.2785  -33.3720   26.1894 H   0  0  0  0  0  0
  -28.3990  -32.6653   25.0367 H   0  0  0  0  0  0
  -28.0603  -31.8507   26.5556 H   0  0  0  0  0  0
  -28.2635  -38.0083   24.7425 H   0  0  0  0  0  0
  -28.1005  -36.2602   24.6439 H   0  0  0  0  0  0
  -27.2253  -37.1672   25.8878 H   0  0  0  0  0  0
  -20.9265  -29.8784   21.6985 H   0  0  0  0  0  0
  -26.0193  -38.2874   24.1309 H   0  0  0  0  0  0
  -29.6700  -23.9982   20.5138 H   0  0  0  0  0  0
  -25.3830  -21.4188   17.5891 H   0  0  0  0  0  0
  -25.8413  -22.6532   16.4143 H   0  0  0  0  0  0
  -24.7620  -23.0619   17.7486 H   0  0  0  0  0  0
  -28.1691  -21.2500   21.7593 H   0  0  0  0  0  0
  -29.7941  -21.7735   21.4000 H   0  0  0  0  0  0
  -28.2842  -26.4500   17.9544 H   0  0  0  0  0  0
  -29.7883  -25.9978   18.6981 H   0  0  0  0  0  0
  -29.8514  -20.1172   19.4546 H   0  0  0  0  0  0
  -28.2959  -19.5346   19.9855 H   0  0  0  0  0  0
  -29.5103  -19.1524   22.3182 H   0  0  0  0  0  0
  -30.9864  -19.3181   21.3990 H   0  0  0  0  0  0
  -30.1389  -17.4452   19.8713 H   0  0  0  0  0  0
  -28.7531  -17.2926   20.9254 H   0  0  0  0  0  0
  -30.4085  -16.8050   22.8558 H   0  0  0  0  0  0
  -31.6765  -16.7323   21.6552 H   0  0  0  0  0  0
  -29.3700  -14.8851   22.0091 H   0  0  0  0  0  0
  1 25  1  0  0  0
  1 30  2  0  0  0
  1 84  1  0  0  0
  2  3  1  0  0  0
  2 25  1  0  0  0
  2 85  1  0  0  0
  2 86  1  0  0  0
  3  4  1  0  0  0
  3 87  1  0  0  0
  3 88  1  0  0  0
  4  5  1  0  0  0
  4 89  1  0  0  0
  4 90  1  0  0  0
  5  6  1  0  0  0
  5 26  1  0  0  0
  5 91  1  0  0  0
  6 25  1  0  0  0
  6 92  1  0  0  0
  6 93  1  0  0  0
  7  8  2  0  0  0
  7 26  1  0  0  0
  7 29  1  0  0  0
  8  9  1  0  0  0
  8 22  1  0  0  0
  9 10  1  0  0  0
  9 27  2  0  0  0
 10 11  2  0  0  0
 10 15  1  0  0  0
 11 12  1  0  0  0
 11 94  1  0  0  0
 12 13  2  0  0  0
 12 95  1  0  0  0
 13 14  1  0  0  0
 13 31  1  0  0  0
 14 15  2  0  0  0
 14 96  1  0  0  0
 15 97  1  0  0  0
 16 17  2  0  0  0
 16 21  1  0  0  0
 16 31  1  0  0  0
 17 18  1  0  0  0
 17 98  1  0  0  0
 18 19  2  0  0  0
 18 99  1  0  0  0
 19 20  1  0  0  0
 19 24  1  0  0  0
 20 21  2  0  0  0
 20100  1  0  0  0
 21 23  1  0  0  0
 22 28  1  0  0  0
 22 32  2  0  0  0
 26 27  1  0  0  0
 28101  1  0  0  0
 28102  1  0  0  0
 29103  1  0  0  0
 29104  1  0  0  0
 33 34  1  0  0  0
 33 66  1  0  0  0
 33 70  2  0  0  0
 34 36  1  0  0  0
 34 59  1  0  0  0
 34105  1  0  0  0
 35 44  2  0  0  0
 35 45  1  0  0  0
 35 68  1  0  0  0
 36 56  1  0  0  0
 36106  1  0  0  0
 37 39  1  0  0  0
 37 47  1  0  0  0
 37 66  1  0  0  0
 37107  1  0  0  0
 38 43  2  0  0  0
 38 46  1  0  0  0
 38 47  1  0  0  0
 39 64  1  0  0  0
 39 67  2  0  0  0
 40 52  1  0  0  0
 40 53  2  0  0  0
 40 58  1  0  0  0
 41108  1  0  0  0
 41109  1  0  0  0
 41110  1  0  0  0
 41 48  1  0  0  0
 42 43  1  0  0  0
 42 66  1  0  0  0
 42111  1  0  0  0
 42112  1  0  0  0
 43 44  1  0  0  0
 44113  1  0  0  0
 45 46  2  0  0  0
 45114  1  0  0  0
 46115  1  0  0  0
 47116  1  0  0  0
 47117  1  0  0  0
 48 56  1  0  0  0
 48 65  1  0  0  0
 48118  1  0  0  0
 49 50  1  0  0  0
 49 53  1  0  0  0
 49 64  1  0  0  0
 49119  1  0  0  0
 50 51  1  0  0  0
 50120  1  0  0  0
 50121  1  0  0  0
 51 52  1  0  0  0
 51122  1  0  0  0
 51123  1  0  0  0
 52124  1  0  0  0
 52125  1  0  0  0
 53 54  1  0  0  0
 54 55  2  0  0  0
 54126  1  0  0  0
 55 57  1  0  0  0
 55127  1  0  0  0
 56 69  2  0  0  0
 57 58  2  0  0  0
 57128  1  0  0  0
 58129  1  0  0  0
 59 60  1  0  0  0
 59 61  1  0  0  0
 59 62  1  0  0  0
 60130  1  0  0  0
 60131  1  0  0  0
 60132  1  0  0  0
 61133  1  0  0  0
 61134  1  0  0  0
 61135  1  0  0  0
 62136  1  0  0  0
 62137  1  0  0  0
 62138  1  0  0  0
 63 65  1  0  0  0
 63139  1  0  0  0
 63140  1  0  0  0
 63141  1  0  0  0
 64142  1  0  0  0
 65143  1  0  0  0
 68 77  1  0  0  0
 71 72  2  0  0  0
 71 73  1  0  0  0
 71144  1  0  0  0
 72 76  1  0  0  0
 72 82  1  0  0  0
 73 77  1  0  0  0
 73 83  2  0  0  0
 74 75  1  0  0  0
 74 82  2  0  0  0
 74 83  1  0  0  0
 75145  1  0  0  0
 75146  1  0  0  0
 75147  1  0  0  0
 76 78  1  0  0  0
 76148  1  0  0  0
 76149  1  0  0  0
 77150  1  0  0  0
 77151  1  0  0  0
 78 79  1  0  0  0
 78152  1  0  0  0
 78153  1  0  0  0
 79 80  1  0  0  0
 79154  1  0  0  0
 79155  1  0  0  0
 80 81  1  0  0  0
 80156  1  0  0  0
 80157  1  0  0  0
 81 84  1  0  0  0
 81158  1  0  0  0
 81159  1  0  0  0
 84160  1  0  0  0
M  ISO  4   1 100  68 101  77 101  84 100
M  END
> <chiral flag>
0

> <version>
0

> <s_m_source_file>
/data/baiqing/PycharmProjects/Reinvent-master-3.2/result/LINK_invent/BTK/process_docking_weight1_custom_sum_contain_oxygen_bond_distance_aromatic_linkinvent_7_9_3/rearranged_h_0043.sdf

> <i_m_source_file_index>
88

> <r_mmod_Potential_Energy-OPLS-2005>
-501.984008789062

> <r_mmod_Stretch_Energy-OPLS-2005>
31.3497142791748

> <r_mmod_Bend_Energy-OPLS-2005>
93.3095169067383

> <r_mmod_Torsional_Energy-OPLS-2005>
197.827697753906

> <r_mmod_Improper_Torsional_Energy-OPLS-2005>
2.13112473487854

> <r_mmod_Van_der_Waal_Energy-OPLS-2005>
164.194290161133

> <r_mmod_Electrostatic_Energy-OPLS-2005>
-772.408569335938

> <r_mmod_Solvation_Energy-OPLS-2005>
-225.751892089844

> <b_mmod_Minimization_Converged-OPLS-2005>
0

> <r_mmod_RMS_Derivative-OPLS-2005>
2.06799602508545

$$$$
88
                    3D
 Structure written by MMmdl.
184192  0  0  1  0            999 V2000
  -30.6350  -14.5675   20.5467 C   0  0  0  0  0  0
  -30.4352  -12.3596   19.4496 C   0  0  0  0  0  0
  -29.5132  -12.5272   18.2238 C   0  0  0  0  0  0
  -28.0294  -12.3835   18.6160 C   0  0  0  0  0  0
  -27.6618  -13.2091   19.8739 C   0  0  2  0  0  0
  -28.6988  -13.0144   21.0036 C   0  0  0  0  0  0
  -25.2639  -13.8182   20.5682 C   0  0  0  0  0  0
  -24.1882  -13.0467   20.9204 C   0  0  0  0  0  0
  -24.6425  -11.6929   20.8759 C   0  0  0  0  0  0
  -23.9064  -10.4345   21.0423 C   0  0  0  0  0  0
  -24.3642   -9.4265   21.9211 C   0  0  0  0  0  0
  -23.6322   -8.2300   22.0758 C   0  0  0  0  0  0
  -22.4287   -8.0331   21.3556 C   0  0  0  0  0  0
  -21.9928   -9.0286   20.4652 C   0  0  0  0  0  0
  -22.7246  -10.2177   20.3073 C   0  0  0  0  0  0
  -21.6862   -6.0784   22.5300 C   0  0  0  0  0  0
  -21.3999   -6.5653   23.8233 C   0  0  0  0  0  0
  -21.3655   -5.6778   24.9153 C   0  0  0  0  0  0
  -21.6062   -4.3043   24.7205 C   0  0  0  0  0  0
  -21.8820   -3.8166   23.4310 C   0  0  0  0  0  0
  -21.9200   -4.7008   22.3405 C   0  0  0  0  0  0
  -22.7951  -13.5306   21.1816 C   0  0  0  0  0  0
  -22.1681   -4.2217   21.0952 F   0  0  0  0  0  0
  -21.5647   -3.4513   25.7696 F   0  0  0  0  0  0
  -30.0247  -13.3502   20.4614 N   0  0  0  0  0  0
  -26.3029  -12.9329   20.3296 N   0  0  0  0  0  0
  -25.9314  -11.6500   20.5678 N   0  0  0  0  0  0
  -22.0536  -12.8360   22.0353 N   0  0  0  0  0  0
  -25.4368  -15.1920   20.4198 N   0  0  0  0  0  0
  -31.7766  -14.7626   20.1110 O   0  0  0  0  0  0
  -21.6651   -6.8916   21.4255 O   0  0  0  0  0  0
  -22.3660  -14.5640   20.6635 O   0  0  0  0  0  0
  -24.6210  -31.8648   23.2046 C   0  0  0  0  0  0
  -25.9077  -32.4803   23.8335 C   0  0  1  0  0  0
  -27.2121  -27.3748   20.1317 C   0  0  0  0  0  0
  -25.5943  -33.8604   24.2305 N   0  0  0  0  0  0
  -23.4097  -30.4900   21.5460 C   0  0  2  0  0  0
  -24.8551  -28.9491   20.1080 C   0  0  0  0  0  0
  -22.7439  -29.4693   22.4968 C   0  0  0  0  0  0
  -18.0273  -28.1403   22.8498 C   0  0  0  0  0  0
  -24.1503  -36.7291   23.2629 C   0  0  0  0  0  0
  -25.9448  -30.8153   21.3655 C   0  0  0  0  0  0
  -26.0179  -29.4462   20.7138 C   0  0  0  0  0  0
  -27.2036  -28.6681   20.7145 C   0  0  0  0  0  0
  -26.0381  -26.9123   19.5014 C   0  0  0  0  0  0
  -24.8636  -27.6854   19.4930 C   0  0  0  0  0  0
  -23.6182  -29.8209   20.1603 C   0  0  0  0  0  0
  -25.4125  -36.3105   24.0331 C   0  0  1  0  0  0
  -20.5875  -28.3724   23.1295 C   0  0  2  0  0  0
  -20.6789  -26.9448   22.5418 C   0  0  0  0  0  0
  -19.5763  -26.6409   21.5220 C   0  0  0  0  0  0
  -18.1937  -26.7949   22.1615 C   0  0  0  0  0  0
  -19.1531  -28.8864   23.2895 C   0  0  0  0  0  0
  -18.9455  -30.1471   23.8925 C   0  0  0  0  0  0
  -17.6447  -30.6611   24.0578 C   0  0  0  0  0  0
  -25.9069  -34.9470   23.5119 C   0  0  0  0  0  0
  -16.5351  -29.9107   23.6331 C   0  0  0  0  0  0
  -16.7257  -28.6524   23.0365 C   0  0  0  0  0  0
  -26.4488  -31.6589   25.0660 C   0  0  0  0  0  0
  -25.3734  -31.3671   26.1389 C   0  0  0  0  0  0
  -27.0339  -30.3033   24.6061 C   0  0  0  0  0  0
  -27.6102  -32.4297   25.7403 C   0  0  0  0  0  0
  -27.5613  -37.1780   24.8460 C   0  0  0  0  0  0
  -21.4171  -29.3067   22.3686 N   0  0  0  0  0  0
  -26.4313  -37.3807   23.9425 N   0  0  0  0  0  0
  -24.6770  -31.0707   22.0966 N   0  0  0  0  0  0
  -23.4174  -28.8249   23.3056 O   0  0  0  0  0  0
  -28.3208  -26.5479   20.1833 O   0  0  0  0  0  0
  -26.5610  -34.8921   22.4673 O   0  0  0  0  0  0
  -23.5386  -32.1453   23.7380 O   0  0  0  0  0  0
  -30.6948  -21.8122   18.9174 C   0  0  0  0  0  0
  -30.7125  -20.6585   18.1569 C   0  0  0  0  0  0
  -29.4374  -20.2920   19.9465 C   0  0  0  0  0  0
  -32.1191  -18.9119   16.9773 C   0  0  0  0  0  0
  -33.2919  -21.9488   20.4283 C   0  0  0  0  0  0
  -32.5463  -25.9830   18.4949 C   0  0  0  0  0  0
  -31.4975  -26.0312   16.2128 C   0  0  0  0  0  0
  -31.3994  -20.2678   16.8784 C   0  0  0  0  0  0
  -28.7138  -19.4459   20.9819 C   0  0  0  0  0  0
  -33.0603  -22.6801   19.0917 C   0  0  0  0  0  0
  -29.4038  -18.1086   21.4993 C   0  0  0  0  0  0
  -28.6858  -24.0577   19.9804 C   0  0  0  0  0  0
  -31.3677  -23.8451   17.5294 C   0  0  0  0  0  0
  -29.0569  -22.7053   20.7218 C   0  0  0  0  0  0
  -29.9315  -17.0255   20.4857 C   0  0  0  0  0  0
  -28.0990  -25.2442   20.8013 C   0  0  0  0  0  0
  -31.5792  -23.0439   18.8459 C   0  0  1  0  0  0
  -31.4228  -25.3998   17.6158 C   0  0  0  0  0  0
  -29.6841  -21.6335   19.8586 N   0  0  0  0  0  0
  -29.9223  -19.7658   18.8204 N   0  3  0  0  0  0
  -29.8390  -15.6013   20.9247 N   0  0  0  0  0  0
  -31.4720  -12.4954   19.1467 H   0  0  0  0  0  0
  -30.3651  -11.3512   19.8535 H   0  0  0  0  0  0
  -29.7711  -11.7872   17.4635 H   0  0  0  0  0  0
  -29.6805  -13.5077   17.7701 H   0  0  0  0  0  0
  -27.8412  -11.3259   18.7926 H   0  0  0  0  0  0
  -27.3965  -12.6785   17.7805 H   0  0  0  0  0  0
  -27.6979  -14.2560   19.5753 H   0  0  0  0  0  0
  -28.7017  -11.9793   21.3484 H   0  0  0  0  0  0
  -28.4532  -13.6206   21.8758 H   0  0  0  0  0  0
  -25.2781   -9.5763   22.4775 H   0  0  0  0  0  0
  -24.0040   -7.4673   22.7444 H   0  0  0  0  0  0
  -21.0872   -8.8786   19.8945 H   0  0  0  0  0  0
  -22.3676  -10.9714   19.6196 H   0  0  0  0  0  0
  -21.1956   -7.6137   23.9739 H   0  0  0  0  0  0
  -21.1489   -6.0508   25.9065 H   0  0  0  0  0  0
  -22.0609   -2.7651   23.2790 H   0  0  0  0  0  0
  -22.4043  -11.9978   22.4737 H   0  0  0  0  0  0
  -21.1160  -13.1459   22.2509 H   0  0  0  0  0  0
  -24.6627  -15.8400   20.5110 H   0  0  0  0  0  0
  -26.2899  -15.6356   20.1063 H   0  0  0  0  0  0
  -26.7143  -32.5494   23.1088 H   0  0  0  0  0  0
  -25.0153  -33.9765   25.0481 H   0  0  0  0  0  0
  -22.7037  -31.3091   21.4053 H   0  0  0  0  0  0
  -23.3809  -35.9573   23.3265 H   0  0  0  0  0  0
  -24.3635  -36.8940   22.2061 H   0  0  0  0  0  0
  -23.7198  -37.6450   23.6672 H   0  0  0  0  0  0
  -26.0647  -31.5799   20.5970 H   0  0  0  0  0  0
  -26.8292  -30.8660   21.9885 H   0  0  0  0  0  0
  -28.0962  -29.0406   21.1965 H   0  0  0  0  0  0
  -26.0246  -25.9390   19.0306 H   0  0  0  0  0  0
  -23.9726  -27.3024   19.0133 H   0  0  0  0  0  0
  -23.7226  -30.5929   19.3988 H   0  0  0  0  0  0
  -22.7436  -29.2380   19.8691 H   0  0  0  0  0  0
  -25.1315  -36.1974   25.0820 H   0  0  0  0  0  0
  -20.9953  -28.3289   24.1420 H   0  0  0  0  0  0
  -20.5736  -26.2324   23.3604 H   0  0  0  0  0  0
  -21.6652  -26.7526   22.1185 H   0  0  0  0  0  0
  -19.6939  -25.6318   21.1263 H   0  0  0  0  0  0
  -19.6710  -27.3217   20.6741 H   0  0  0  0  0  0
  -17.4221  -26.6727   21.4004 H   0  0  0  0  0  0
  -18.0318  -26.0078   22.8997 H   0  0  0  0  0  0
  -19.7931  -30.7279   24.2323 H   0  0  0  0  0  0
  -17.5013  -31.6289   24.5182 H   0  0  0  0  0  0
  -15.5364  -30.3029   23.7638 H   0  0  0  0  0  0
  -15.8656  -28.0840   22.7090 H   0  0  0  0  0  0
  -24.5913  -30.7055   25.7657 H   0  0  0  0  0  0
  -24.8906  -32.2812   26.4855 H   0  0  0  0  0  0
  -25.8035  -30.8777   27.0138 H   0  0  0  0  0  0
  -26.2862  -29.6743   24.1225 H   0  0  0  0  0  0
  -27.4258  -29.7336   25.4505 H   0  0  0  0  0  0
  -27.8639  -30.4384   23.9115 H   0  0  0  0  0  0
  -27.2782  -33.3623   26.1975 H   0  0  0  0  0  0
  -28.3867  -32.6821   25.0167 H   0  0  0  0  0  0
  -28.0810  -31.8411   26.5291 H   0  0  0  0  0  0
  -28.2588  -38.0124   24.7609 H   0  0  0  0  0  0
  -28.1163  -36.2679   24.6183 H   0  0  0  0  0  0
  -27.2341  -37.1278   25.8853 H   0  0  0  0  0  0
  -20.9348  -29.8737   21.6867 H   0  0  0  0  0  0
  -26.0215  -38.2875   24.1456 H   0  0  0  0  0  0
  -32.7125  -18.7014   16.0837 H   0  0  0  0  0  0
  -31.4029  -18.0950   17.0946 H   0  0  0  0  0  0
  -32.7948  -18.8963   17.8308 H   0  0  0  0  0  0
  -34.3506  -21.7266   20.5595 H   0  0  0  0  0  0
  -32.7560  -21.0006   20.4814 H   0  0  0  0  0  0
  -32.9732  -22.5601   21.2747 H   0  0  0  0  0  0
  -32.3871  -27.0462   18.6712 H   0  0  0  0  0  0
  -33.5206  -25.8810   18.0186 H   0  0  0  0  0  0
  -32.5956  -25.5248   19.4791 H   0  0  0  0  0  0
  -31.4819  -27.1194   16.2698 H   0  0  0  0  0  0
  -30.6580  -25.7254   15.5854 H   0  0  0  0  0  0
  -32.4183  -25.7453   15.6999 H   0  0  0  0  0  0
  -32.1122  -21.0383   16.5940 H   0  0  0  0  0  0
  -30.6595  -20.2355   16.0767 H   0  0  0  0  0  0
  -27.7337  -19.2249   20.5632 H   0  0  0  0  0  0
  -28.5319  -20.0939   21.8419 H   0  0  0  0  0  0
  -33.4514  -22.0833   18.2694 H   0  0  0  0  0  0
  -33.6657  -23.5876   19.0900 H   0  0  0  0  0  0
  -28.6891  -17.6353   22.1706 H   0  0  0  0  0  0
  -30.2386  -18.3979   22.1424 H   0  0  0  0  0  0
  -28.0226  -23.8381   19.1453 H   0  0  0  0  0  0
  -29.5572  -24.4973   19.5256 H   0  0  0  0  0  0
  -30.3772  -23.6035   17.1402 H   0  0  0  0  0  0
  -32.0452  -23.4745   16.7560 H   0  0  0  0  0  0
  -28.1424  -22.2856   21.1372 H   0  0  0  0  0  0
  -29.7312  -22.8890   21.5597 H   0  0  0  0  0  0
  -30.9597  -17.2685   20.2105 H   0  0  0  0  0  0
  -29.3389  -17.0859   19.5731 H   0  0  0  0  0  0
  -28.5711  -25.2805   21.7831 H   0  0  0  0  0  0
  -27.0475  -25.0443   21.0041 H   0  0  0  0  0  0
  -31.3539  -23.6605   19.7111 H   0  0  0  0  0  0
  -30.4881  -25.7528   18.0494 H   0  0  0  0  0  0
  -29.7516  -18.8140   18.5190 H   0  0  0  0  0  0
  -28.9545  -15.3265   21.3201 H   0  0  0  0  0  0
  1 25  1  0  0  0
  1 30  2  0  0  0
  1 91  1  0  0  0
  2  3  1  0  0  0
  2 25  1  0  0  0
  2 92  1  0  0  0
  2 93  1  0  0  0
  3  4  1  0  0  0
  3 94  1  0  0  0
  3 95  1  0  0  0
  4  5  1  0  0  0
  4 96  1  0  0  0
  4 97  1  0  0  0
  5  6  1  0  0  0
  5 26  1  0  0  0
  5 98  1  0  0  0
  6 25  1  0  0  0
  6 99  1  0  0  0
  6100  1  0  0  0
  7  8  2  0  0  0
  7 26  1  0  0  0
  7 29  1  0  0  0
  8  9  1  0  0  0
  8 22  1  0  0  0
  9 10  1  0  0  0
  9 27  2  0  0  0
 10 11  2  0  0  0
 10 15  1  0  0  0
 11 12  1  0  0  0
 11101  1  0  0  0
 12 13  2  0  0  0
 12102  1  0  0  0
 13 14  1  0  0  0
 13 31  1  0  0  0
 14 15  2  0  0  0
 14103  1  0  0  0
 15104  1  0  0  0
 16 17  2  0  0  0
 16 21  1  0  0  0
 16 31  1  0  0  0
 17 18  1  0  0  0
 17105  1  0  0  0
 18 19  2  0  0  0
 18106  1  0  0  0
 19 20  1  0  0  0
 19 24  1  0  0  0
 20 21  2  0  0  0
 20107  1  0  0  0
 21 23  1  0  0  0
 22 28  1  0  0  0
 22 32  2  0  0  0
 26 27  1  0  0  0
 28108  1  0  0  0
 28109  1  0  0  0
 29110  1  0  0  0
 29111  1  0  0  0
 33 34  1  0  0  0
 33 66  1  0  0  0
 33 70  2  0  0  0
 34 36  1  0  0  0
 34 59  1  0  0  0
 34112  1  0  0  0
 35 44  2  0  0  0
 35 45  1  0  0  0
 35 68  1  0  0  0
 36 56  1  0  0  0
 36113  1  0  0  0
 37 39  1  0  0  0
 37 47  1  0  0  0
 37 66  1  0  0  0
 37114  1  0  0  0
 38 43  2  0  0  0
 38 46  1  0  0  0
 38 47  1  0  0  0
 39 64  1  0  0  0
 39 67  2  0  0  0
 40 52  1  0  0  0
 40 53  2  0  0  0
 40 58  1  0  0  0
 41115  1  0  0  0
 41116  1  0  0  0
 41117  1  0  0  0
 41 48  1  0  0  0
 42 43  1  0  0  0
 42 66  1  0  0  0
 42118  1  0  0  0
 42119  1  0  0  0
 43 44  1  0  0  0
 44120  1  0  0  0
 45 46  2  0  0  0
 45121  1  0  0  0
 46122  1  0  0  0
 47123  1  0  0  0
 47124  1  0  0  0
 48 56  1  0  0  0
 48 65  1  0  0  0
 48125  1  0  0  0
 49 50  1  0  0  0
 49 53  1  0  0  0
 49 64  1  0  0  0
 49126  1  0  0  0
 50 51  1  0  0  0
 50127  1  0  0  0
 50128  1  0  0  0
 51 52  1  0  0  0
 51129  1  0  0  0
 51130  1  0  0  0
 52131  1  0  0  0
 52132  1  0  0  0
 53 54  1  0  0  0
 54 55  2  0  0  0
 54133  1  0  0  0
 55 57  1  0  0  0
 55134  1  0  0  0
 56 69  2  0  0  0
 57 58  2  0  0  0
 57135  1  0  0  0
 58136  1  0  0  0
 59 60  1  0  0  0
 59 61  1  0  0  0
 59 62  1  0  0  0
 60137  1  0  0  0
 60138  1  0  0  0
 60139  1  0  0  0
 61140  1  0  0  0
 61141  1  0  0  0
 61142  1  0  0  0
 62143  1  0  0  0
 62144  1  0  0  0
 62145  1  0  0  0
 63 65  1  0  0  0
 63146  1  0  0  0
 63147  1  0  0  0
 63148  1  0  0  0
 64149  1  0  0  0
 65150  1  0  0  0
 68 86  1  0  0  0
 71 72  2  0  0  0
 71 87  1  0  0  0
 71 89  1  0  0  0
 72 78  1  0  0  0
 72 90  1  0  0  0
 73 79  1  0  0  0
 73 89  1  0  0  0
 73 90  2  0  0  0
 74 78  1  0  0  0
 74151  1  0  0  0
 74152  1  0  0  0
 74153  1  0  0  0
 75 80  1  0  0  0
 75154  1  0  0  0
 75155  1  0  0  0
 75156  1  0  0  0
 76157  1  0  0  0
 76158  1  0  0  0
 76159  1  0  0  0
 76 88  1  0  0  0
 77 88  1  0  0  0
 77160  1  0  0  0
 77161  1  0  0  0
 77162  1  0  0  0
 78163  1  0  0  0
 78164  1  0  0  0
 79 81  1  0  0  0
 79165  1  0  0  0
 79166  1  0  0  0
 80167  1  0  0  0
 80168  1  0  0  0
 80 87  1  0  0  0
 81 85  1  0  0  0
 81169  1  0  0  0
 81170  1  0  0  0
 82 84  1  0  0  0
 82 86  1  0  0  0
 82171  1  0  0  0
 82172  1  0  0  0
 83 87  1  0  0  0
 83 88  1  0  0  0
 83173  1  0  0  0
 83174  1  0  0  0
 84 89  1  0  0  0
 84175  1  0  0  0
 84176  1  0  0  0
 85 91  1  0  0  0
 85177  1  0  0  0
 85178  1  0  0  0
 86179  1  0  0  0
 86180  1  0  0  0
 87181  1  0  0  0
 88182  1  0  0  0
 90183  1  0  0  0
 91184  1  0  0  0
M  CHG  1  90   1
M  ISO  4   1 100  68 101  86 101  91 100
M  END
> <chiral flag>
0

> <version>
0

> <s_m_source_file>
/data/baiqing/PycharmProjects/Reinvent-master-3.2/result/LINK_invent/BTK/process_docking_weight1_custom_sum_contain_oxygen_bond_distance_aromatic_linkinvent_7_9_3/rearranged_h_0043.sdf

> <i_m_source_file_index>
89

> <r_mmod_Potential_Energy-OPLS-2005>
56.6938781738281

> <r_mmod_Stretch_Energy-OPLS-2005>
62.4640312194824

> <r_mmod_Bend_Energy-OPLS-2005>
134.332229614258

> <r_mmod_Torsional_Energy-OPLS-2005>
314.9990234375

> <r_mmod_Improper_Torsional_Energy-OPLS-2005>
6.80402994155884

> <r_mmod_Van_der_Waal_Energy-OPLS-2005>
117.844757080078

> <r_mmod_Electrostatic_Energy-OPLS-2005>
-217.707183837891

> <r_mmod_Solvation_Energy-OPLS-2005>
-392.25830078125

> <b_mmod_Minimization_Converged-OPLS-2005>
0

> <r_mmod_RMS_Derivative-OPLS-2005>
7.50312662124634

$$$$
89
                    3D
 Structure written by MMmdl.
169177  0  0  1  0            999 V2000
  -30.7363  -14.3977   20.5766 C   0  0  0  0  0  0
  -30.4075  -12.2521   19.4368 C   0  0  0  0  0  0
  -29.4965  -12.4871   18.2143 C   0  0  0  0  0  0
  -28.0145  -12.3649   18.6169 C   0  0  0  0  0  0
  -27.6654  -13.2079   19.8751 C   0  0  2  0  0  0
  -28.6989  -12.9715   21.0044 C   0  0  0  0  0  0
  -25.2593  -13.8219   20.5634 C   0  0  0  0  0  0
  -24.1839  -13.0467   20.9193 C   0  0  0  0  0  0
  -24.6389  -11.6935   20.8724 C   0  0  0  0  0  0
  -23.9044  -10.4349   21.0427 C   0  0  0  0  0  0
  -24.3585   -9.4268   21.9230 C   0  0  0  0  0  0
  -23.6277   -8.2276   22.0740 C   0  0  0  0  0  0
  -22.4250   -8.0344   21.3521 C   0  0  0  0  0  0
  -21.9880   -9.0362   20.4632 C   0  0  0  0  0  0
  -22.7222  -10.2246   20.3064 C   0  0  0  0  0  0
  -21.6905   -6.0755   22.5302 C   0  0  0  0  0  0
  -21.4072   -6.5631   23.8257 C   0  0  0  0  0  0
  -21.3631   -5.6742   24.9190 C   0  0  0  0  0  0
  -21.6027   -4.3019   24.7232 C   0  0  0  0  0  0
  -21.8838   -3.8127   23.4357 C   0  0  0  0  0  0
  -21.9235   -4.6967   22.3402 C   0  0  0  0  0  0
  -22.7875  -13.5294   21.1888 C   0  0  0  0  0  0
  -22.1754   -4.2161   21.0992 F   0  0  0  0  0  0
  -21.5538   -3.4480   25.7739 F   0  0  0  0  0  0
  -30.0415  -13.2381   20.4621 N   0  0  0  0  0  0
  -26.3042  -12.9385   20.3315 N   0  0  0  0  0  0
  -25.9331  -11.6521   20.5747 N   0  0  0  0  0  0
  -22.0449  -12.8347   22.0465 N   0  0  0  0  0  0
  -25.4260  -15.1944   20.4084 N   0  0  0  0  0  0
  -31.8625  -14.5654   20.1067 O   0  0  0  0  0  0
  -21.6650   -6.8928   21.4245 O   0  0  0  0  0  0
  -22.3549  -14.5595   20.6746 O   0  0  0  0  0  0
  -24.6093  -31.8804   23.2140 C   0  0  0  0  0  0
  -25.9057  -32.4864   23.8387 C   0  0  1  0  0  0
  -27.1912  -27.4358   20.0495 C   0  0  0  0  0  0
  -25.5954  -33.8652   24.2320 N   0  0  0  0  0  0
  -23.3887  -30.5088   21.5620 C   0  0  2  0  0  0
  -24.8226  -28.9961   20.1044 C   0  0  0  0  0  0
  -22.7376  -29.4746   22.5075 C   0  0  0  0  0  0
  -18.0304  -28.1389   22.8524 C   0  0  0  0  0  0
  -24.1467  -36.7268   23.2619 C   0  0  0  0  0  0
  -25.9230  -30.8208   21.3888 C   0  0  0  0  0  0
  -25.9838  -29.4620   20.7301 C   0  0  0  0  0  0
  -27.1642  -28.6787   20.7264 C   0  0  0  0  0  0
  -26.0214  -27.0408   19.3637 C   0  0  0  0  0  0
  -24.8376  -27.7788   19.4221 C   0  0  0  0  0  0
  -23.5863  -29.8575   20.1695 C   0  0  0  0  0  0
  -25.4109  -36.3127   24.0325 C   0  0  1  0  0  0
  -20.5881  -28.3665   23.1359 C   0  0  2  0  0  0
  -20.6824  -26.9437   22.5419 C   0  0  0  0  0  0
  -19.5786  -26.6413   21.5246 C   0  0  0  0  0  0
  -18.1968  -26.7943   22.1640 C   0  0  0  0  0  0
  -19.1551  -28.8844   23.2936 C   0  0  0  0  0  0
  -18.9468  -30.1456   23.8946 C   0  0  0  0  0  0
  -17.6473  -30.6610   24.0572 C   0  0  0  0  0  0
  -25.9059  -34.9504   23.5102 C   0  0  0  0  0  0
  -16.5355  -29.9119   23.6322 C   0  0  0  0  0  0
  -16.7298  -28.6510   23.0382 C   0  0  0  0  0  0
  -26.4512  -31.6619   25.0675 C   0  0  0  0  0  0
  -25.3760  -31.3718   26.1387 C   0  0  0  0  0  0
  -27.0303  -30.3021   24.6065 C   0  0  0  0  0  0
  -27.6114  -32.4299   25.7457 C   0  0  0  0  0  0
  -27.5594  -37.1794   24.8490 C   0  0  0  0  0  0
  -21.4116  -29.3023   22.3743 N   0  0  0  0  0  0
  -26.4302  -37.3801   23.9429 N   0  0  0  0  0  0
  -24.6566  -31.0871   22.1084 N   0  0  0  0  0  0
  -23.4153  -28.8397   23.3176 O   0  0  0  0  0  0
  -28.3268  -26.6508   20.1362 O   0  0  0  0  0  0
  -26.5583  -34.8975   22.4642 O   0  0  0  0  0  0
  -23.5309  -32.1647   23.7518 O   0  0  0  0  0  0
  -25.1139  -22.3635   21.6357 C   0  0  0  0  0  0
  -25.0209  -23.7537   21.4047 C   0  0  0  0  0  0
  -27.0436  -22.2819   20.3406 C   0  0  0  0  0  0
  -26.9190  -23.6679   20.0461 C   0  0  0  0  0  0
  -24.1026  -21.5816   22.4553 C   0  0  0  0  0  0
  -24.4596  -25.4143   23.2227 C   0  0  0  0  0  0
  -23.9367  -24.6288   22.0102 C   0  0  0  0  0  0
  -28.1279  -21.3794   19.7481 C   0  0  0  0  0  0
  -27.6921  -24.3646   18.9113 C   0  0  0  0  0  0
  -28.2458  -20.0412   20.5163 C   0  0  0  0  0  0
  -29.3940  -19.1025   20.1325 C   0  0  0  0  0  0
  -29.1845  -17.7523   20.8426 C   0  0  0  0  0  0
  -30.3805  -16.8126   20.6901 C   0  0  0  0  0  0
  -28.6248  -25.5836   19.2126 C   0  0  0  0  0  0
  -26.1268  -21.6457   21.1147 N   0  0  0  0  0  0
  -25.9150  -24.3865   20.6085 N   0  0  0  0  0  0
  -30.0327  -15.4389   21.0449 N   0  0  0  0  0  0
  -30.2816  -11.2422   19.8291 H   0  0  0  0  0  0
  -31.4535  -12.3270   19.1359 H   0  0  0  0  0  0
  -29.7270  -11.7784   17.4175 H   0  0  0  0  0  0
  -29.6905  -13.4756   17.7923 H   0  0  0  0  0  0
  -27.8117  -11.3137   18.8198 H   0  0  0  0  0  0
  -27.3708  -12.6373   17.7836 H   0  0  0  0  0  0
  -27.7237  -14.2605   19.5873 H   0  0  0  0  0  0
  -28.6412  -11.9452   21.3630 H   0  0  0  0  0  0
  -28.4647  -13.5926   21.8722 H   0  0  0  0  0  0
  -25.2706   -9.5800   22.4826 H   0  0  0  0  0  0
  -24.0041   -7.4622   22.7395 H   0  0  0  0  0  0
  -21.0838   -8.8952   19.8878 H   0  0  0  0  0  0
  -22.3752  -10.9837   19.6179 H   0  0  0  0  0  0
  -21.2155   -7.6143   23.9834 H   0  0  0  0  0  0
  -21.1360   -6.0408   25.9105 H   0  0  0  0  0  0
  -22.0609   -2.7592   23.2833 H   0  0  0  0  0  0
  -22.3953  -11.9967   22.4873 H   0  0  0  0  0  0
  -21.1081  -13.1456   22.2647 H   0  0  0  0  0  0
  -24.6638  -15.8421   20.5700 H   0  0  0  0  0  0
  -26.2706  -15.6499   20.0816 H   0  0  0  0  0  0
  -26.7074  -32.5550   23.1111 H   0  0  0  0  0  0
  -25.0262  -33.9824   25.0563 H   0  0  0  0  0  0
  -22.6729  -31.3251   21.4399 H   0  0  0  0  0  0
  -23.3766  -35.9562   23.3313 H   0  0  0  0  0  0
  -24.3561  -36.8820   22.2033 H   0  0  0  0  0  0
  -23.7180  -37.6460   23.6589 H   0  0  0  0  0  0
  -26.0550  -31.5853   20.6211 H   0  0  0  0  0  0
  -26.7997  -30.8524   22.0201 H   0  0  0  0  0  0
  -28.0442  -29.0171   21.2540 H   0  0  0  0  0  0
  -25.9411  -26.1478   18.7889 H   0  0  0  0  0  0
  -23.9588  -27.4218   18.9031 H   0  0  0  0  0  0
  -23.6868  -30.6338   19.4091 H   0  0  0  0  0  0
  -22.7056  -29.2833   19.8757 H   0  0  0  0  0  0
  -25.1294  -36.1988   25.0811 H   0  0  0  0  0  0
  -20.9992  -28.3238   24.1474 H   0  0  0  0  0  0
  -20.5855  -26.2279   23.3589 H   0  0  0  0  0  0
  -21.6695  -26.7630   22.1148 H   0  0  0  0  0  0
  -19.6970  -25.6342   21.1279 H   0  0  0  0  0  0
  -19.6701  -27.3206   20.6766 H   0  0  0  0  0  0
  -17.4248  -26.6702   21.4026 H   0  0  0  0  0  0
  -18.0365  -26.0073   22.9012 H   0  0  0  0  0  0
  -19.7937  -30.7281   24.2333 H   0  0  0  0  0  0
  -17.5028  -31.6329   24.5141 H   0  0  0  0  0  0
  -15.5354  -30.3046   23.7669 H   0  0  0  0  0  0
  -15.8674  -28.0855   22.7116 H   0  0  0  0  0  0
  -24.5972  -30.7032   25.7690 H   0  0  0  0  0  0
  -24.8922  -32.2876   26.4791 H   0  0  0  0  0  0
  -25.8121  -30.8919   27.0156 H   0  0  0  0  0  0
  -26.2813  -29.6799   24.1124 H   0  0  0  0  0  0
  -27.4032  -29.7246   25.4545 H   0  0  0  0  0  0
  -27.8711  -30.4267   23.9221 H   0  0  0  0  0  0
  -27.2770  -33.3595   26.2071 H   0  0  0  0  0  0
  -28.3958  -32.6842   25.0309 H   0  0  0  0  0  0
  -28.0736  -31.8369   26.5358 H   0  0  0  0  0  0
  -28.2665  -38.0045   24.7581 H   0  0  0  0  0  0
  -28.1049  -36.2608   24.6308 H   0  0  0  0  0  0
  -27.2322  -37.1448   25.8888 H   0  0  0  0  0  0
  -20.9295  -29.8615   21.6839 H   0  0  0  0  0  0
  -26.0198  -38.2873   24.1401 H   0  0  0  0  0  0
  -24.0076  -21.9984   23.4558 H   0  0  0  0  0  0
  -24.3942  -20.5345   22.5532 H   0  0  0  0  0  0
  -23.1295  -21.6066   21.9650 H   0  0  0  0  0  0
  -23.6849  -26.0623   23.6381 H   0  0  0  0  0  0
  -25.2992  -26.0522   22.9443 H   0  0  0  0  0  0
  -24.7979  -24.7389   24.0104 H   0  0  0  0  0  0
  -23.5623  -25.3078   21.2387 H   0  0  0  0  0  0
  -23.0851  -24.0223   22.3145 H   0  0  0  0  0  0
  -29.0768  -21.9125   19.7730 H   0  0  0  0  0  0
  -27.8994  -21.2023   18.6965 H   0  0  0  0  0  0
  -28.3224  -23.6320   18.4118 H   0  0  0  0  0  0
  -26.9950  -24.6080   18.1119 H   0  0  0  0  0  0
  -27.3073  -19.4974   20.3807 H   0  0  0  0  0  0
  -28.3429  -20.2593   21.5844 H   0  0  0  0  0  0
  -30.3480  -19.5429   20.4293 H   0  0  0  0  0  0
  -29.4258  -18.9554   19.0506 H   0  0  0  0  0  0
  -28.2904  -17.2664   20.4468 H   0  0  0  0  0  0
  -28.9852  -17.9168   21.9033 H   0  0  0  0  0  0
  -31.2147  -17.1652   21.2996 H   0  0  0  0  0  0
  -30.7137  -16.8405   19.6496 H   0  0  0  0  0  0
  -28.9109  -26.0450   18.2664 H   0  0  0  0  0  0
  -29.5503  -25.1495   19.5980 H   0  0  0  0  0  0
  -29.1248  -15.2580   21.4460 H   0  0  0  0  0  0
  1 25  1  0  0  0
  1 30  2  0  0  0
  1 87  1  0  0  0
  2  3  1  0  0  0
  2 25  1  0  0  0
  2 88  1  0  0  0
  2 89  1  0  0  0
  3  4  1  0  0  0
  3 90  1  0  0  0
  3 91  1  0  0  0
  4  5  1  0  0  0
  4 92  1  0  0  0
  4 93  1  0  0  0
  5  6  1  0  0  0
  5 26  1  0  0  0
  5 94  1  0  0  0
  6 25  1  0  0  0
  6 95  1  0  0  0
  6 96  1  0  0  0
  7  8  2  0  0  0
  7 26  1  0  0  0
  7 29  1  0  0  0
  8  9  1  0  0  0
  8 22  1  0  0  0
  9 10  1  0  0  0
  9 27  2  0  0  0
 10 11  2  0  0  0
 10 15  1  0  0  0
 11 12  1  0  0  0
 11 97  1  0  0  0
 12 13  2  0  0  0
 12 98  1  0  0  0
 13 14  1  0  0  0
 13 31  1  0  0  0
 14 15  2  0  0  0
 14 99  1  0  0  0
 15100  1  0  0  0
 16 17  2  0  0  0
 16 21  1  0  0  0
 16 31  1  0  0  0
 17 18  1  0  0  0
 17101  1  0  0  0
 18 19  2  0  0  0
 18102  1  0  0  0
 19 20  1  0  0  0
 19 24  1  0  0  0
 20 21  2  0  0  0
 20103  1  0  0  0
 21 23  1  0  0  0
 22 28  1  0  0  0
 22 32  2  0  0  0
 26 27  1  0  0  0
 28104  1  0  0  0
 28105  1  0  0  0
 29106  1  0  0  0
 29107  1  0  0  0
 33 34  1  0  0  0
 33 66  1  0  0  0
 33 70  2  0  0  0
 34 36  1  0  0  0
 34 59  1  0  0  0
 34108  1  0  0  0
 35 44  2  0  0  0
 35 45  1  0  0  0
 35 68  1  0  0  0
 36 56  1  0  0  0
 36109  1  0  0  0
 37 39  1  0  0  0
 37 47  1  0  0  0
 37 66  1  0  0  0
 37110  1  0  0  0
 38 43  2  0  0  0
 38 46  1  0  0  0
 38 47  1  0  0  0
 39 64  1  0  0  0
 39 67  2  0  0  0
 40 52  1  0  0  0
 40 53  2  0  0  0
 40 58  1  0  0  0
 41111  1  0  0  0
 41112  1  0  0  0
 41113  1  0  0  0
 41 48  1  0  0  0
 42 43  1  0  0  0
 42 66  1  0  0  0
 42114  1  0  0  0
 42115  1  0  0  0
 43 44  1  0  0  0
 44116  1  0  0  0
 45 46  2  0  0  0
 45117  1  0  0  0
 46118  1  0  0  0
 47119  1  0  0  0
 47120  1  0  0  0
 48 56  1  0  0  0
 48 65  1  0  0  0
 48121  1  0  0  0
 49 50  1  0  0  0
 49 53  1  0  0  0
 49 64  1  0  0  0
 49122  1  0  0  0
 50 51  1  0  0  0
 50123  1  0  0  0
 50124  1  0  0  0
 51 52  1  0  0  0
 51125  1  0  0  0
 51126  1  0  0  0
 52127  1  0  0  0
 52128  1  0  0  0
 53 54  1  0  0  0
 54 55  2  0  0  0
 54129  1  0  0  0
 55 57  1  0  0  0
 55130  1  0  0  0
 56 69  2  0  0  0
 57 58  2  0  0  0
 57131  1  0  0  0
 58132  1  0  0  0
 59 60  1  0  0  0
 59 61  1  0  0  0
 59 62  1  0  0  0
 60133  1  0  0  0
 60134  1  0  0  0
 60135  1  0  0  0
 61136  1  0  0  0
 61137  1  0  0  0
 61138  1  0  0  0
 62139  1  0  0  0
 62140  1  0  0  0
 62141  1  0  0  0
 63 65  1  0  0  0
 63142  1  0  0  0
 63143  1  0  0  0
 63144  1  0  0  0
 64145  1  0  0  0
 65146  1  0  0  0
 68 84  1  0  0  0
 71 72  2  0  0  0
 71 75  1  0  0  0
 71 85  1  0  0  0
 72 77  1  0  0  0
 72 86  1  0  0  0
 73 74  1  0  0  0
 73 78  1  0  0  0
 73 85  2  0  0  0
 74 79  1  0  0  0
 74 86  2  0  0  0
 75147  1  0  0  0
 75148  1  0  0  0
 75149  1  0  0  0
 76 77  1  0  0  0
 76150  1  0  0  0
 76151  1  0  0  0
 76152  1  0  0  0
 77153  1  0  0  0
 77154  1  0  0  0
 78 80  1  0  0  0
 78155  1  0  0  0
 78156  1  0  0  0
 79 84  1  0  0  0
 79157  1  0  0  0
 79158  1  0  0  0
 80 81  1  0  0  0
 80159  1  0  0  0
 80160  1  0  0  0
 81 82  1  0  0  0
 81161  1  0  0  0
 81162  1  0  0  0
 82 83  1  0  0  0
 82163  1  0  0  0
 82164  1  0  0  0
 83 87  1  0  0  0
 83165  1  0  0  0
 83166  1  0  0  0
 84167  1  0  0  0
 84168  1  0  0  0
 87169  1  0  0  0
M  ISO  4   1 100  68 101  84 101  87 100
M  END
> <chiral flag>
0

> <version>
0

> <s_m_source_file>
/data/baiqing/PycharmProjects/Reinvent-master-3.2/result/LINK_invent/BTK/process_docking_weight1_custom_sum_contain_oxygen_bond_distance_aromatic_linkinvent_7_9_3/rearranged_h_0043.sdf

> <i_m_source_file_index>
90

> <r_mmod_Potential_Energy-OPLS-2005>
-0.887435793876648

> <r_mmod_Stretch_Energy-OPLS-2005>
38.4225540161133

> <r_mmod_Bend_Energy-OPLS-2005>
139.450347900391

> <r_mmod_Torsional_Energy-OPLS-2005>
193.395248413086

> <r_mmod_Improper_Torsional_Energy-OPLS-2005>
6.92138433456421

> <r_mmod_Van_der_Waal_Energy-OPLS-2005>
163.606872558594

> <r_mmod_Electrostatic_Energy-OPLS-2005>
-345.711639404297

> <r_mmod_Solvation_Energy-OPLS-2005>
-218.088653564453

> <b_mmod_Minimization_Converged-OPLS-2005>
0

> <r_mmod_RMS_Derivative-OPLS-2005>
7.12482404708862

$$$$
90
                    3D
 Structure written by MMmdl.
163171  0  0  1  0            999 V2000
  -30.6322  -14.5590   20.5455 C   0  0  0  0  0  0
  -30.4453  -12.3537   19.4148 C   0  0  0  0  0  0
  -29.4913  -12.4601   18.2035 C   0  0  0  0  0  0
  -28.0177  -12.3268   18.6400 C   0  0  0  0  0  0
  -27.6593  -13.1958   19.8738 C   0  0  2  0  0  0
  -28.7081  -13.0037   20.9862 C   0  0  0  0  0  0
  -25.2608  -13.8121   20.5729 C   0  0  0  0  0  0
  -24.1863  -13.0448   20.9237 C   0  0  0  0  0  0
  -24.6393  -11.6892   20.8780 C   0  0  0  0  0  0
  -23.9057  -10.4301   21.0443 C   0  0  0  0  0  0
  -24.3631   -9.4214   21.9188 C   0  0  0  0  0  0
  -23.6318   -8.2236   22.0728 C   0  0  0  0  0  0
  -22.4285   -8.0283   21.3531 C   0  0  0  0  0  0
  -21.9939   -9.0262   20.4628 C   0  0  0  0  0  0
  -22.7257  -10.2143   20.3079 C   0  0  0  0  0  0
  -21.6840   -6.0749   22.5268 C   0  0  0  0  0  0
  -21.4001   -6.5646   23.8205 C   0  0  0  0  0  0
  -21.3660   -5.6789   24.9158 C   0  0  0  0  0  0
  -21.6051   -4.3056   24.7195 C   0  0  0  0  0  0
  -21.8843   -3.8155   23.4312 C   0  0  0  0  0  0
  -21.9219   -4.6981   22.3377 C   0  0  0  0  0  0
  -22.7890  -13.5226   21.1904 C   0  0  0  0  0  0
  -22.1691   -4.2176   21.0952 F   0  0  0  0  0  0
  -21.5648   -3.4541   25.7703 F   0  0  0  0  0  0
  -30.0193  -13.3481   20.4109 N   0  0  0  0  0  0
  -26.3042  -12.9285   20.3435 N   0  0  0  0  0  0
  -25.9319  -11.6450   20.5814 N   0  0  0  0  0  0
  -22.0591  -12.8143   22.0427 N   0  0  0  0  0  0
  -25.4424  -15.1814   20.4007 N   0  0  0  0  0  0
  -31.7962  -14.7642   20.1937 O   0  0  0  0  0  0
  -21.6646   -6.8889   21.4221 O   0  0  0  0  0  0
  -22.3573  -14.5584   20.6819 O   0  0  0  0  0  0
  -24.6152  -31.8660   23.2149 C   0  0  0  0  0  0
  -25.9022  -32.4822   23.8454 C   0  0  1  0  0  0
  -27.2053  -27.3797   20.1054 C   0  0  0  0  0  0
  -25.5872  -33.8627   24.2363 N   0  0  0  0  0  0
  -23.4055  -30.4901   21.5611 C   0  0  2  0  0  0
  -24.8429  -28.9487   20.1277 C   0  0  0  0  0  0
  -22.7395  -29.4637   22.5058 C   0  0  0  0  0  0
  -18.0250  -28.1356   22.8485 C   0  0  0  0  0  0
  -24.1468  -36.7300   23.2654 C   0  0  0  0  0  0
  -25.9422  -30.8059   21.3795 C   0  0  0  0  0  0
  -26.0112  -29.4409   20.7223 C   0  0  0  0  0  0
  -27.1987  -28.6668   20.7025 C   0  0  0  0  0  0
  -26.0214  -26.9149   19.4969 C   0  0  0  0  0  0
  -24.8436  -27.6840   19.5145 C   0  0  0  0  0  0
  -23.6115  -29.8259   20.1757 C   0  0  0  0  0  0
  -25.4083  -36.3124   24.0359 C   0  0  1  0  0  0
  -20.5842  -28.3632   23.1302 C   0  0  2  0  0  0
  -20.6743  -26.9360   22.5414 C   0  0  0  0  0  0
  -19.5732  -26.6362   21.5199 C   0  0  0  0  0  0
  -18.1911  -26.7901   22.1613 C   0  0  0  0  0  0
  -19.1515  -28.8815   23.2884 C   0  0  0  0  0  0
  -18.9448  -30.1423   23.8883 C   0  0  0  0  0  0
  -17.6451  -30.6572   24.0553 C   0  0  0  0  0  0
  -25.9012  -34.9474   23.5162 C   0  0  0  0  0  0
  -16.5336  -29.9062   23.6366 C   0  0  0  0  0  0
  -16.7248  -28.6480   23.0368 C   0  0  0  0  0  0
  -26.4472  -31.6612   25.0786 C   0  0  0  0  0  0
  -25.3763  -31.3626   26.1549 C   0  0  0  0  0  0
  -27.0355  -30.3067   24.6191 C   0  0  0  0  0  0
  -27.6105  -32.4335   25.7482 C   0  0  0  0  0  0
  -27.5573  -37.1786   24.8479 C   0  0  0  0  0  0
  -21.4134  -29.3016   22.3737 N   0  0  0  0  0  0
  -26.4285  -37.3791   23.9414 N   0  0  0  0  0  0
  -24.6747  -31.0670   22.1094 N   0  0  0  0  0  0
  -23.4129  -28.8137   23.3099 O   0  0  0  0  0  0
  -28.3616  -26.6248   20.0549 O   0  0  0  0  0  0
  -26.5620  -34.8920   22.4742 O   0  0  0  0  0  0
  -23.5328  -32.1519   23.7450 O   0  0  0  0  0  0
  -29.4277  -22.4394   18.7956 C   0  0  0  0  0  0
  -28.5287  -22.8179   19.7670 C   0  0  0  0  0  0
  -29.4045  -20.8008   20.3352 C   0  0  0  0  0  0
  -29.0700  -22.5296   16.3185 C   0  0  0  0  0  0
  -31.0328  -20.4751   18.5065 C   0  0  0  0  0  0
  -29.7935  -23.1492   17.5266 C   0  0  0  0  0  0
  -27.6949  -24.1016   19.8382 C   0  0  0  0  0  0
  -29.7705  -19.5555   21.1649 C   0  0  0  0  0  0
  -29.8062  -18.1272   20.4768 C   0  0  0  0  0  0
  -30.0878  -16.9266   21.4501 C   0  0  0  0  0  0
  -28.3660  -25.2826   20.6149 C   0  0  0  0  0  0
  -29.9716  -21.2278   19.1908 N   0  0  0  0  0  0
  -28.5249  -21.7720   20.6752 N   0  3  0  0  0  0
  -29.8056  -15.5559   20.9549 N   0  0  0  0  0  0
  -31.4789  -12.5020   19.0922 H   0  0  0  0  0  0
  -30.4116  -11.3534   19.8474 H   0  0  0  0  0  0
  -29.7271  -11.6799   17.4769 H   0  0  0  0  0  0
  -29.6430  -13.4137   17.6968 H   0  0  0  0  0  0
  -27.8383  -11.2745   18.8676 H   0  0  0  0  0  0
  -27.3534  -12.5793   17.8157 H   0  0  0  0  0  0
  -27.6964  -14.2341   19.5437 H   0  0  0  0  0  0
  -28.7110  -11.9734   21.3467 H   0  0  0  0  0  0
  -28.4624  -13.6082   21.8595 H   0  0  0  0  0  0
  -25.2808   -9.5658   22.4727 H   0  0  0  0  0  0
  -24.0066   -7.4581   22.7382 H   0  0  0  0  0  0
  -21.0927   -8.8775   19.8846 H   0  0  0  0  0  0
  -22.3779  -10.9687   19.6160 H   0  0  0  0  0  0
  -21.1968   -7.6146   23.9702 H   0  0  0  0  0  0
  -21.1451   -6.0512   25.9061 H   0  0  0  0  0  0
  -22.0623   -2.7622   23.2794 H   0  0  0  0  0  0
  -22.4297  -11.9793   22.4740 H   0  0  0  0  0  0
  -21.1159  -13.0987   22.2646 H   0  0  0  0  0  0
  -24.6899  -15.8493   20.5245 H   0  0  0  0  0  0
  -26.2764  -15.5907   20.0005 H   0  0  0  0  0  0
  -26.7047  -32.5502   23.1187 H   0  0  0  0  0  0
  -25.0034  -33.9805   25.0506 H   0  0  0  0  0  0
  -22.7019  -31.3142   21.4245 H   0  0  0  0  0  0
  -23.3749  -35.9617   23.3353 H   0  0  0  0  0  0
  -24.3580  -36.8906   22.2067 H   0  0  0  0  0  0
  -23.7210  -37.6502   23.6657 H   0  0  0  0  0  0
  -26.0678  -31.5601   20.6017 H   0  0  0  0  0  0
  -26.8279  -30.8541   22.0040 H   0  0  0  0  0  0
  -28.1054  -29.0402   21.1587 H   0  0  0  0  0  0
  -25.9855  -25.9694   18.9806 H   0  0  0  0  0  0
  -23.9450  -27.3061   19.0449 H   0  0  0  0  0  0
  -23.7284  -30.6096   19.4274 H   0  0  0  0  0  0
  -22.7295  -29.2604   19.8693 H   0  0  0  0  0  0
  -25.1216  -36.2050   25.0856 H   0  0  0  0  0  0
  -20.9937  -28.3209   24.1412 H   0  0  0  0  0  0
  -20.5642  -26.2216   23.3591 H   0  0  0  0  0  0
  -21.6604  -26.7404   22.1195 H   0  0  0  0  0  0
  -19.6890  -25.6277   21.1203 H   0  0  0  0  0  0
  -19.6677  -27.3193   20.6730 H   0  0  0  0  0  0
  -17.4163  -26.6647   21.4028 H   0  0  0  0  0  0
  -18.0338  -26.0015   22.8981 H   0  0  0  0  0  0
  -19.7923  -30.7242   24.2261 H   0  0  0  0  0  0
  -17.5012  -31.6275   24.5116 H   0  0  0  0  0  0
  -15.5343  -30.2950   23.7726 H   0  0  0  0  0  0
  -15.8639  -28.0811   22.7089 H   0  0  0  0  0  0
  -24.5949  -30.6961   25.7873 H   0  0  0  0  0  0
  -24.8892  -32.2700   26.5122 H   0  0  0  0  0  0
  -25.8140  -30.8726   27.0265 H   0  0  0  0  0  0
  -26.2916  -29.6742   24.1335 H   0  0  0  0  0  0
  -27.4249  -29.7376   25.4653 H   0  0  0  0  0  0
  -27.8683  -30.4427   23.9290 H   0  0  0  0  0  0
  -27.2824  -33.3651   26.2109 H   0  0  0  0  0  0
  -28.3853  -32.6893   25.0230 H   0  0  0  0  0  0
  -28.0866  -31.8445   26.5348 H   0  0  0  0  0  0
  -28.2596  -38.0077   24.7547 H   0  0  0  0  0  0
  -28.1085  -36.2620   24.6298 H   0  0  0  0  0  0
  -27.2306  -37.1432   25.8892 H   0  0  0  0  0  0
  -20.9320  -29.8751   21.6957 H   0  0  0  0  0  0
  -26.0200  -38.2882   24.1451 H   0  0  0  0  0  0
  -29.2264  -23.1172   15.4126 H   0  0  0  0  0  0
  -27.9909  -22.4877   16.4887 H   0  0  0  0  0  0
  -29.4155  -21.5124   16.1263 H   0  0  0  0  0  0
  -30.6038  -19.5768   18.0689 H   0  0  0  0  0  0
  -31.8144  -20.2045   19.2197 H   0  0  0  0  0  0
  -31.4874  -21.0633   17.7091 H   0  0  0  0  0  0
  -30.8761  -23.1544   17.3931 H   0  0  0  0  0  0
  -29.5127  -24.2006   17.6094 H   0  0  0  0  0  0
  -26.7106  -23.8930   20.2580 H   0  0  0  0  0  0
  -27.4975  -24.4167   18.8135 H   0  0  0  0  0  0
  -29.0770  -19.5404   22.0082 H   0  0  0  0  0  0
  -30.7476  -19.7859   21.5984 H   0  0  0  0  0  0
  -30.5758  -18.0997   19.7073 H   0  0  0  0  0  0
  -28.8525  -17.9508   19.9776 H   0  0  0  0  0  0
  -29.4356  -17.0470   22.3147 H   0  0  0  0  0  0
  -31.1000  -16.9657   21.8499 H   0  0  0  0  0  0
  -29.4264  -25.0449   20.6868 H   0  0  0  0  0  0
  -28.0109  -25.2995   21.6467 H   0  0  0  0  0  0
  -27.9348  -21.7257   21.5003 H   0  0  0  0  0  0
  -28.8577  -15.2416   21.0971 H   0  0  0  0  0  0
  1 25  1  0  0  0
  1 30  2  0  0  0
  1 84  1  0  0  0
  2  3  1  0  0  0
  2 25  1  0  0  0
  2 85  1  0  0  0
  2 86  1  0  0  0
  3  4  1  0  0  0
  3 87  1  0  0  0
  3 88  1  0  0  0
  4  5  1  0  0  0
  4 89  1  0  0  0
  4 90  1  0  0  0
  5  6  1  0  0  0
  5 26  1  0  0  0
  5 91  1  0  0  0
  6 25  1  0  0  0
  6 92  1  0  0  0
  6 93  1  0  0  0
  7  8  2  0  0  0
  7 26  1  0  0  0
  7 29  1  0  0  0
  8  9  1  0  0  0
  8 22  1  0  0  0
  9 10  1  0  0  0
  9 27  2  0  0  0
 10 11  2  0  0  0
 10 15  1  0  0  0
 11 12  1  0  0  0
 11 94  1  0  0  0
 12 13  2  0  0  0
 12 95  1  0  0  0
 13 14  1  0  0  0
 13 31  1  0  0  0
 14 15  2  0  0  0
 14 96  1  0  0  0
 15 97  1  0  0  0
 16 17  2  0  0  0
 16 21  1  0  0  0
 16 31  1  0  0  0
 17 18  1  0  0  0
 17 98  1  0  0  0
 18 19  2  0  0  0
 18 99  1  0  0  0
 19 20  1  0  0  0
 19 24  1  0  0  0
 20 21  2  0  0  0
 20100  1  0  0  0
 21 23  1  0  0  0
 22 28  1  0  0  0
 22 32  2  0  0  0
 26 27  1  0  0  0
 28101  1  0  0  0
 28102  1  0  0  0
 29103  1  0  0  0
 29104  1  0  0  0
 33 34  1  0  0  0
 33 66  1  0  0  0
 33 70  2  0  0  0
 34 36  1  0  0  0
 34 59  1  0  0  0
 34105  1  0  0  0
 35 44  2  0  0  0
 35 45  1  0  0  0
 35 68  1  0  0  0
 36 56  1  0  0  0
 36106  1  0  0  0
 37 39  1  0  0  0
 37 47  1  0  0  0
 37 66  1  0  0  0
 37107  1  0  0  0
 38 43  2  0  0  0
 38 46  1  0  0  0
 38 47  1  0  0  0
 39 64  1  0  0  0
 39 67  2  0  0  0
 40 52  1  0  0  0
 40 53  2  0  0  0
 40 58  1  0  0  0
 41108  1  0  0  0
 41109  1  0  0  0
 41110  1  0  0  0
 41 48  1  0  0  0
 42 43  1  0  0  0
 42 66  1  0  0  0
 42111  1  0  0  0
 42112  1  0  0  0
 43 44  1  0  0  0
 44113  1  0  0  0
 45 46  2  0  0  0
 45114  1  0  0  0
 46115  1  0  0  0
 47116  1  0  0  0
 47117  1  0  0  0
 48 56  1  0  0  0
 48 65  1  0  0  0
 48118  1  0  0  0
 49 50  1  0  0  0
 49 53  1  0  0  0
 49 64  1  0  0  0
 49119  1  0  0  0
 50 51  1  0  0  0
 50120  1  0  0  0
 50121  1  0  0  0
 51 52  1  0  0  0
 51122  1  0  0  0
 51123  1  0  0  0
 52124  1  0  0  0
 52125  1  0  0  0
 53 54  1  0  0  0
 54 55  2  0  0  0
 54126  1  0  0  0
 55 57  1  0  0  0
 55127  1  0  0  0
 56 69  2  0  0  0
 57 58  2  0  0  0
 57128  1  0  0  0
 58129  1  0  0  0
 59 60  1  0  0  0
 59 61  1  0  0  0
 59 62  1  0  0  0
 60130  1  0  0  0
 60131  1  0  0  0
 60132  1  0  0  0
 61133  1  0  0  0
 61134  1  0  0  0
 61135  1  0  0  0
 62136  1  0  0  0
 62137  1  0  0  0
 62138  1  0  0  0
 63 65  1  0  0  0
 63139  1  0  0  0
 63140  1  0  0  0
 63141  1  0  0  0
 64142  1  0  0  0
 65143  1  0  0  0
 68 81  1  0  0  0
 71 72  2  0  0  0
 71 76  1  0  0  0
 71 82  1  0  0  0
 72 77  1  0  0  0
 72 83  1  0  0  0
 73 78  1  0  0  0
 73 82  1  0  0  0
 73 83  2  0  0  0
 74 76  1  0  0  0
 74144  1  0  0  0
 74145  1  0  0  0
 74146  1  0  0  0
 75 82  1  0  0  0
 75147  1  0  0  0
 75148  1  0  0  0
 75149  1  0  0  0
 76150  1  0  0  0
 76151  1  0  0  0
 77 81  1  0  0  0
 77152  1  0  0  0
 77153  1  0  0  0
 78 79  1  0  0  0
 78154  1  0  0  0
 78155  1  0  0  0
 79 80  1  0  0  0
 79156  1  0  0  0
 79157  1  0  0  0
 80 84  1  0  0  0
 80158  1  0  0  0
 80159  1  0  0  0
 81160  1  0  0  0
 81161  1  0  0  0
 83162  1  0  0  0
 84163  1  0  0  0
M  CHG  1  83   1
M  ISO  4   1 100  68 101  81 101  84 100
M  END
> <chiral flag>
0

> <version>
0

> <s_m_source_file>
/data/baiqing/PycharmProjects/Reinvent-master-3.2/result/LINK_invent/BTK/process_docking_weight1_custom_sum_contain_oxygen_bond_distance_aromatic_linkinvent_7_9_3/rearranged_h_0043.sdf

> <i_m_source_file_index>
91

> <r_mmod_Potential_Energy-OPLS-2005>
-56.6289138793945

> <r_mmod_Stretch_Energy-OPLS-2005>
51.4376449584961

> <r_mmod_Bend_Energy-OPLS-2005>
125.769805908203

> <r_mmod_Torsional_Energy-OPLS-2005>
239.8388671875

> <r_mmod_Improper_Torsional_Energy-OPLS-2005>
4.24970769882202

> <r_mmod_Van_der_Waal_Energy-OPLS-2005>
119.660469055176

> <r_mmod_Electrostatic_Energy-OPLS-2005>
-213.313079833984

> <r_mmod_Solvation_Energy-OPLS-2005>
-411.333099365234

> <b_mmod_Minimization_Converged-OPLS-2005>
0

> <r_mmod_RMS_Derivative-OPLS-2005>
6.23123025894165

$$$$
91
                    3D
 Structure written by MMmdl.
159167  0  0  1  0            999 V2000
  -30.7271  -14.4072   20.5905 C   0  0  0  0  0  0
  -30.4168  -12.2699   19.4129 C   0  0  0  0  0  0
  -29.4879  -12.4946   18.2022 C   0  0  0  0  0  0
  -28.0121  -12.3579   18.6201 C   0  0  0  0  0  0
  -27.6654  -13.1988   19.8785 C   0  0  2  0  0  0
  -28.7039  -12.9598   21.0004 C   0  0  0  0  0  0
  -25.2606  -13.8146   20.5680 C   0  0  0  0  0  0
  -24.1857  -13.0441   20.9162 C   0  0  0  0  0  0
  -24.6393  -11.6894   20.8758 C   0  0  0  0  0  0
  -23.9079  -10.4290   21.0428 C   0  0  0  0  0  0
  -24.3633   -9.4205   21.9201 C   0  0  0  0  0  0
  -23.6307   -8.2248   22.0775 C   0  0  0  0  0  0
  -22.4282   -8.0284   21.3563 C   0  0  0  0  0  0
  -21.9915   -9.0266   20.4667 C   0  0  0  0  0  0
  -22.7262  -10.2144   20.3073 C   0  0  0  0  0  0
  -21.6849   -6.0751   22.5287 C   0  0  0  0  0  0
  -21.4015   -6.5650   23.8216 C   0  0  0  0  0  0
  -21.3649   -5.6809   24.9181 C   0  0  0  0  0  0
  -21.6042   -4.3075   24.7235 C   0  0  0  0  0  0
  -21.8817   -3.8158   23.4349 C   0  0  0  0  0  0
  -21.9197   -4.6975   22.3407 C   0  0  0  0  0  0
  -22.7883  -13.5244   21.1840 C   0  0  0  0  0  0
  -22.1662   -4.2148   21.0991 F   0  0  0  0  0  0
  -21.5623   -3.4553   25.7751 F   0  0  0  0  0  0
  -30.0455  -13.2409   20.4539 N   0  0  0  0  0  0
  -26.3038  -12.9307   20.3391 N   0  0  0  0  0  0
  -25.9315  -11.6470   20.5784 N   0  0  0  0  0  0
  -22.0537  -12.8237   22.0390 N   0  0  0  0  0  0
  -25.4347  -15.1875   20.4077 N   0  0  0  0  0  0
  -31.8172  -14.6265   20.0575 O   0  0  0  0  0  0
  -21.6646   -6.8889   21.4248 O   0  0  0  0  0  0
  -22.3565  -14.5556   20.6685 O   0  0  0  0  0  0
  -24.6134  -31.8701   23.2115 C   0  0  0  0  0  0
  -25.9015  -32.4853   23.8411 C   0  0  1  0  0  0
  -27.2430  -27.4472   20.0692 C   0  0  0  0  0  0
  -25.5840  -33.8648   24.2341 N   0  0  0  0  0  0
  -23.4025  -30.4927   21.5548 C   0  0  2  0  0  0
  -24.8465  -28.9594   20.1190 C   0  0  0  0  0  0
  -22.7432  -29.4652   22.5024 C   0  0  0  0  0  0
  -18.0268  -28.1351   22.8502 C   0  0  0  0  0  0
  -24.1492  -36.7328   23.2638 C   0  0  0  0  0  0
  -25.9338  -30.8351   21.3667 C   0  0  0  0  0  0
  -26.0087  -29.4697   20.7119 C   0  0  0  0  0  0
  -27.2047  -28.7185   20.6870 C   0  0  0  0  0  0
  -26.0533  -26.9486   19.4823 C   0  0  0  0  0  0
  -24.8618  -27.6951   19.5068 C   0  0  0  0  0  0
  -23.6079  -29.8230   20.1709 C   0  0  0  0  0  0
  -25.4107  -36.3136   24.0350 C   0  0  1  0  0  0
  -20.5878  -28.3632   23.1337 C   0  0  2  0  0  0
  -20.6756  -26.9368   22.5441 C   0  0  0  0  0  0
  -19.5730  -26.6354   21.5241 C   0  0  0  0  0  0
  -18.1904  -26.7891   22.1642 C   0  0  0  0  0  0
  -19.1524  -28.8812   23.2911 C   0  0  0  0  0  0
  -18.9438  -30.1425   23.8907 C   0  0  0  0  0  0
  -17.6436  -30.6561   24.0552 C   0  0  0  0  0  0
  -25.9029  -34.9498   23.5155 C   0  0  0  0  0  0
  -16.5331  -29.9058   23.6310 C   0  0  0  0  0  0
  -16.7252  -28.6469   23.0337 C   0  0  0  0  0  0
  -26.4433  -31.6621   25.0740 C   0  0  0  0  0  0
  -25.3692  -31.3689   26.1477 C   0  0  0  0  0  0
  -27.0266  -30.3064   24.6116 C   0  0  0  0  0  0
  -27.6024  -32.4332   25.7475 C   0  0  0  0  0  0
  -27.5599  -37.1826   24.8467 C   0  0  0  0  0  0
  -21.4163  -29.3002   22.3758 N   0  0  0  0  0  0
  -26.4306  -37.3808   23.9413 N   0  0  0  0  0  0
  -24.6685  -31.0812   22.1012 N   0  0  0  0  0  0
  -23.4215  -28.8197   23.3055 O   0  0  0  0  0  0
  -28.4354  -26.7483   20.0568 O   0  0  0  0  0  0
  -26.5631  -34.8927   22.4744 O   0  0  0  0  0  0
  -23.5331  -32.1440   23.7526 O   0  0  0  0  0  0
  -30.7311  -21.2020   19.8771 C   0  0  0  0  0  0
  -32.2353  -22.7437   19.5924 C   0  0  0  0  0  0
  -31.9634  -20.7073   20.2383 C   0  0  0  0  0  0
  -32.3127  -19.3142   20.6800 C   0  0  0  0  0  0
  -31.5659  -18.8646   21.9555 C   0  0  0  0  0  0
  -31.3826  -17.3381   22.0640 C   0  0  0  0  0  0
  -29.8060  -24.7519   19.6757 C   0  0  0  0  0  0
  -29.8904  -23.4012   18.9348 C   0  0  0  0  0  0
  -30.3166  -16.8081   21.0851 C   0  0  0  0  0  0
  -28.4570  -25.4581   19.4393 C   0  0  0  0  0  0
  -32.9226  -21.7088   20.0750 N   0  0  0  0  0  0
  -30.9196  -22.5133   19.4575 N   0  0  0  0  0  0
  -30.0583  -15.3776   21.2261 N   0  0  0  0  0  0
  -31.4630  -12.3528   19.1106 H   0  0  0  0  0  0
  -30.3022  -11.2551   19.7959 H   0  0  0  0  0  0
  -29.7174  -11.7755   17.4140 H   0  0  0  0  0  0
  -29.6618  -13.4849   17.7795 H   0  0  0  0  0  0
  -27.8262  -11.3019   18.8239 H   0  0  0  0  0  0
  -27.3553  -12.6267   17.7907 H   0  0  0  0  0  0
  -27.7153  -14.2479   19.5842 H   0  0  0  0  0  0
  -28.6646  -11.9253   21.3451 H   0  0  0  0  0  0
  -28.4648  -13.5620   21.8770 H   0  0  0  0  0  0
  -25.2769   -9.5675   22.4776 H   0  0  0  0  0  0
  -24.0011   -7.4633   22.7481 H   0  0  0  0  0  0
  -21.0842   -8.8803   19.8962 H   0  0  0  0  0  0
  -22.3729  -10.9699   19.6182 H   0  0  0  0  0  0
  -21.2009   -7.6153   23.9718 H   0  0  0  0  0  0
  -21.1470   -6.0545   25.9091 H   0  0  0  0  0  0
  -22.0600   -2.7612   23.2866 H   0  0  0  0  0  0
  -22.4146  -11.9878   22.4762 H   0  0  0  0  0  0
  -21.1173  -13.1274   22.2625 H   0  0  0  0  0  0
  -24.6703  -15.8457   20.5148 H   0  0  0  0  0  0
  -26.2918  -15.6288   20.0972 H   0  0  0  0  0  0
  -26.7096  -32.5582   23.1185 H   0  0  0  0  0  0
  -24.9914  -33.9802   25.0431 H   0  0  0  0  0  0
  -22.6856  -31.3047   21.4177 H   0  0  0  0  0  0
  -23.3770  -35.9658   23.3316 H   0  0  0  0  0  0
  -24.3564  -36.8928   22.2051 H   0  0  0  0  0  0
  -23.7239  -37.6525   23.6641 H   0  0  0  0  0  0
  -26.0524  -31.6020   20.5989 H   0  0  0  0  0  0
  -26.8193  -30.8855   21.9901 H   0  0  0  0  0  0
  -28.1049  -29.1163   21.1342 H   0  0  0  0  0  0
  -26.0199  -25.9895   18.9890 H   0  0  0  0  0  0
  -23.9674  -27.2919   19.0488 H   0  0  0  0  0  0
  -23.7087  -30.5939   19.4068 H   0  0  0  0  0  0
  -22.7331  -29.2364   19.8824 H   0  0  0  0  0  0
  -25.1298  -36.2004   25.0849 H   0  0  0  0  0  0
  -20.9965  -28.3187   24.1463 H   0  0  0  0  0  0
  -20.5650  -26.2247   23.3638 H   0  0  0  0  0  0
  -21.6615  -26.7387   22.1241 H   0  0  0  0  0  0
  -19.6872  -25.6274   21.1236 H   0  0  0  0  0  0
  -19.6642  -27.3198   20.6802 H   0  0  0  0  0  0
  -17.4186  -26.6666   21.4026 H   0  0  0  0  0  0
  -18.0260  -26.0033   22.9031 H   0  0  0  0  0  0
  -19.7909  -30.7251   24.2277 H   0  0  0  0  0  0
  -17.4969  -31.6238   24.5150 H   0  0  0  0  0  0
  -15.5320  -30.2945   23.7605 H   0  0  0  0  0  0
  -15.8665  -28.0781   22.7030 H   0  0  0  0  0  0
  -24.5885  -30.7018   25.7787 H   0  0  0  0  0  0
  -24.8846  -32.2827   26.4923 H   0  0  0  0  0  0
  -25.8022  -30.8841   27.0237 H   0  0  0  0  0  0
  -26.2810  -29.6826   24.1168 H   0  0  0  0  0  0
  -27.4026  -29.7270   25.4556 H   0  0  0  0  0  0
  -27.8648  -30.4374   23.9274 H   0  0  0  0  0  0
  -27.2660  -33.3633   26.2050 H   0  0  0  0  0  0
  -28.3794  -32.6885   25.0268 H   0  0  0  0  0  0
  -28.0735  -31.8468   26.5365 H   0  0  0  0  0  0
  -28.2629  -38.0117   24.7523 H   0  0  0  0  0  0
  -28.1077  -36.2645   24.6281 H   0  0  0  0  0  0
  -27.2308  -37.1481   25.8865 H   0  0  0  0  0  0
  -20.9327  -29.8702   21.6967 H   0  0  0  0  0  0
  -26.0213  -38.2903   24.1361 H   0  0  0  0  0  0
  -29.7615  -20.7212   19.8662 H   0  0  0  0  0  0
  -32.6988  -23.6845   19.3251 H   0  0  0  0  0  0
  -32.1054  -18.6347   19.8534 H   0  0  0  0  0  0
  -33.3865  -19.2251   20.8453 H   0  0  0  0  0  0
  -30.5743  -19.3166   21.9890 H   0  0  0  0  0  0
  -32.0941  -19.2411   22.8326 H   0  0  0  0  0  0
  -32.3374  -16.8341   21.9115 H   0  0  0  0  0  0
  -31.0732  -17.0987   23.0815 H   0  0  0  0  0  0
  -29.9282  -24.5926   20.7453 H   0  0  0  0  0  0
  -30.6341  -25.3901   19.3648 H   0  0  0  0  0  0
  -30.0691  -23.5496   17.8677 H   0  0  0  0  0  0
  -28.9314  -22.8854   19.0123 H   0  0  0  0  0  0
  -30.6009  -17.0162   20.0521 H   0  0  0  0  0  0
  -29.3743  -17.3328   21.2450 H   0  0  0  0  0  0
  -27.6677  -24.8272   19.8540 H   0  0  0  0  0  0
  -28.2679  -25.5629   18.3685 H   0  0  0  0  0  0
  -29.1789  -15.1112   21.6422 H   0  0  0  0  0  0
  1 25  1  0  0  0
  1 30  2  0  0  0
  1 83  1  0  0  0
  2  3  1  0  0  0
  2 25  1  0  0  0
  2 84  1  0  0  0
  2 85  1  0  0  0
  3  4  1  0  0  0
  3 86  1  0  0  0
  3 87  1  0  0  0
  4  5  1  0  0  0
  4 88  1  0  0  0
  4 89  1  0  0  0
  5  6  1  0  0  0
  5 26  1  0  0  0
  5 90  1  0  0  0
  6 25  1  0  0  0
  6 91  1  0  0  0
  6 92  1  0  0  0
  7  8  2  0  0  0
  7 26  1  0  0  0
  7 29  1  0  0  0
  8  9  1  0  0  0
  8 22  1  0  0  0
  9 10  1  0  0  0
  9 27  2  0  0  0
 10 11  2  0  0  0
 10 15  1  0  0  0
 11 12  1  0  0  0
 11 93  1  0  0  0
 12 13  2  0  0  0
 12 94  1  0  0  0
 13 14  1  0  0  0
 13 31  1  0  0  0
 14 15  2  0  0  0
 14 95  1  0  0  0
 15 96  1  0  0  0
 16 17  2  0  0  0
 16 21  1  0  0  0
 16 31  1  0  0  0
 17 18  1  0  0  0
 17 97  1  0  0  0
 18 19  2  0  0  0
 18 98  1  0  0  0
 19 20  1  0  0  0
 19 24  1  0  0  0
 20 21  2  0  0  0
 20 99  1  0  0  0
 21 23  1  0  0  0
 22 28  1  0  0  0
 22 32  2  0  0  0
 26 27  1  0  0  0
 28100  1  0  0  0
 28101  1  0  0  0
 29102  1  0  0  0
 29103  1  0  0  0
 33 34  1  0  0  0
 33 66  1  0  0  0
 33 70  2  0  0  0
 34 36  1  0  0  0
 34 59  1  0  0  0
 34104  1  0  0  0
 35 44  2  0  0  0
 35 45  1  0  0  0
 35 68  1  0  0  0
 36 56  1  0  0  0
 36105  1  0  0  0
 37 39  1  0  0  0
 37 47  1  0  0  0
 37 66  1  0  0  0
 37106  1  0  0  0
 38 43  2  0  0  0
 38 46  1  0  0  0
 38 47  1  0  0  0
 39 64  1  0  0  0
 39 67  2  0  0  0
 40 52  1  0  0  0
 40 53  2  0  0  0
 40 58  1  0  0  0
 41107  1  0  0  0
 41108  1  0  0  0
 41109  1  0  0  0
 41 48  1  0  0  0
 42 43  1  0  0  0
 42 66  1  0  0  0
 42110  1  0  0  0
 42111  1  0  0  0
 43 44  1  0  0  0
 44112  1  0  0  0
 45 46  2  0  0  0
 45113  1  0  0  0
 46114  1  0  0  0
 47115  1  0  0  0
 47116  1  0  0  0
 48 56  1  0  0  0
 48 65  1  0  0  0
 48117  1  0  0  0
 49 50  1  0  0  0
 49 53  1  0  0  0
 49 64  1  0  0  0
 49118  1  0  0  0
 50 51  1  0  0  0
 50119  1  0  0  0
 50120  1  0  0  0
 51 52  1  0  0  0
 51121  1  0  0  0
 51122  1  0  0  0
 52123  1  0  0  0
 52124  1  0  0  0
 53 54  1  0  0  0
 54 55  2  0  0  0
 54125  1  0  0  0
 55 57  1  0  0  0
 55126  1  0  0  0
 56 69  2  0  0  0
 57 58  2  0  0  0
 57127  1  0  0  0
 58128  1  0  0  0
 59 60  1  0  0  0
 59 61  1  0  0  0
 59 62  1  0  0  0
 60129  1  0  0  0
 60130  1  0  0  0
 60131  1  0  0  0
 61132  1  0  0  0
 61133  1  0  0  0
 61134  1  0  0  0
 62135  1  0  0  0
 62136  1  0  0  0
 62137  1  0  0  0
 63 65  1  0  0  0
 63138  1  0  0  0
 63139  1  0  0  0
 63140  1  0  0  0
 64141  1  0  0  0
 65142  1  0  0  0
 68 80  1  0  0  0
 71 73  2  0  0  0
 71 82  1  0  0  0
 71143  1  0  0  0
 72 81  2  0  0  0
 72 82  1  0  0  0
 72144  1  0  0  0
 73 74  1  0  0  0
 73 81  1  0  0  0
 74 75  1  0  0  0
 74145  1  0  0  0
 74146  1  0  0  0
 75 76  1  0  0  0
 75147  1  0  0  0
 75148  1  0  0  0
 76 79  1  0  0  0
 76149  1  0  0  0
 76150  1  0  0  0
 77 78  1  0  0  0
 77 80  1  0  0  0
 77151  1  0  0  0
 77152  1  0  0  0
 78 82  1  0  0  0
 78153  1  0  0  0
 78154  1  0  0  0
 79 83  1  0  0  0
 79155  1  0  0  0
 79156  1  0  0  0
 80157  1  0  0  0
 80158  1  0  0  0
 83159  1  0  0  0
M  ISO  4   1 100  68 101  80 101  83 100
M  END
> <chiral flag>
0

> <version>
0

> <s_m_source_file>
/data/baiqing/PycharmProjects/Reinvent-master-3.2/result/LINK_invent/BTK/process_docking_weight1_custom_sum_contain_oxygen_bond_distance_aromatic_linkinvent_7_9_3/rearranged_h_0043.sdf

> <i_m_source_file_index>
92

> <r_mmod_Potential_Energy-OPLS-2005>
-121.823631286621

> <r_mmod_Stretch_Energy-OPLS-2005>
32.3747444152832

> <r_mmod_Bend_Energy-OPLS-2005>
98.3797149658203

> <r_mmod_Torsional_Energy-OPLS-2005>
207.412872314453

> <r_mmod_Improper_Torsional_Energy-OPLS-2005>
4.12443161010742

> <r_mmod_Van_der_Waal_Energy-OPLS-2005>
135.557418823242

> <r_mmod_Electrostatic_Energy-OPLS-2005>
-374.807159423828

> <r_mmod_Solvation_Energy-OPLS-2005>
-233.983581542969

> <b_mmod_Minimization_Converged-OPLS-2005>
0

> <r_mmod_RMS_Derivative-OPLS-2005>
3.5544376373291

$$$$
92
                    3D
 Structure written by MMmdl.
169177  0  0  1  0            999 V2000
  -30.7522  -14.3187   20.7098 C   0  0  0  0  0  0
  -30.4362  -12.2797   19.3667 C   0  0  0  0  0  0
  -29.4856  -12.5363   18.1790 C   0  0  0  0  0  0
  -28.0077  -12.3890   18.5956 C   0  0  0  0  0  0
  -27.6744  -13.1901   19.8798 C   0  0  2  0  0  0
  -28.7134  -12.8714   20.9792 C   0  0  0  0  0  0
  -25.2615  -13.8161   20.5649 C   0  0  0  0  0  0
  -24.1879  -13.0436   20.9219 C   0  0  0  0  0  0
  -24.6403  -11.6903   20.8754 C   0  0  0  0  0  0
  -23.9075  -10.4291   21.0427 C   0  0  0  0  0  0
  -24.3611   -9.4233   21.9238 C   0  0  0  0  0  0
  -23.6289   -8.2279   22.0819 C   0  0  0  0  0  0
  -22.4292   -8.0283   21.3583 C   0  0  0  0  0  0
  -21.9932   -9.0237   20.4656 C   0  0  0  0  0  0
  -22.7269  -10.2104   20.3044 C   0  0  0  0  0  0
  -21.6842   -6.0756   22.5311 C   0  0  0  0  0  0
  -21.3987   -6.5659   23.8240 C   0  0  0  0  0  0
  -21.3633   -5.6806   24.9195 C   0  0  0  0  0  0
  -21.6029   -4.3072   24.7233 C   0  0  0  0  0  0
  -21.8793   -3.8167   23.4345 C   0  0  0  0  0  0
  -21.9184   -4.6992   22.3418 C   0  0  0  0  0  0
  -22.7897  -13.5256   21.1885 C   0  0  0  0  0  0
  -22.1621   -4.2173   21.0991 F   0  0  0  0  0  0
  -21.5658   -3.4554   25.7745 F   0  0  0  0  0  0
  -30.0701  -13.1735   20.4703 N   0  0  0  0  0  0
  -26.3082  -12.9306   20.3366 N   0  0  0  0  0  0
  -25.9316  -11.6472   20.5716 N   0  0  0  0  0  0
  -22.0427  -12.8242   22.0343 N   0  0  0  0  0  0
  -25.4180  -15.1925   20.3809 N   0  0  0  0  0  0
  -31.7128  -14.7145   20.0419 O   0  0  0  0  0  0
  -21.6628   -6.8899   21.4282 O   0  0  0  0  0  0
  -22.3719  -14.5655   20.6813 O   0  0  0  0  0  0
  -24.6081  -31.8722   23.2150 C   0  0  0  0  0  0
  -25.9003  -32.4845   23.8412 C   0  0  1  0  0  0
  -27.2243  -27.5051   20.0765 C   0  0  0  0  0  0
  -25.5880  -33.8650   24.2352 N   0  0  0  0  0  0
  -23.3894  -30.4943   21.5601 C   0  0  2  0  0  0
  -24.8332  -28.9813   20.1025 C   0  0  0  0  0  0
  -22.7375  -29.4628   22.5064 C   0  0  0  0  0  0
  -18.0259  -28.1396   22.8455 C   0  0  0  0  0  0
  -24.1482  -36.7324   23.2640 C   0  0  0  0  0  0
  -25.9110  -30.8645   21.3523 C   0  0  0  0  0  0
  -25.9915  -29.5123   20.6847 C   0  0  0  0  0  0
  -27.1977  -28.7871   20.6560 C   0  0  0  0  0  0
  -26.0597  -26.9749   19.4792 C   0  0  0  0  0  0
  -24.8607  -27.7125   19.4941 C   0  0  0  0  0  0
  -23.5847  -29.8303   20.1700 C   0  0  0  0  0  0
  -25.4105  -36.3131   24.0337 C   0  0  1  0  0  0
  -20.5844  -28.3574   23.1378 C   0  0  2  0  0  0
  -20.6722  -26.9337   22.5390 C   0  0  0  0  0  0
  -19.5713  -26.6404   21.5153 C   0  0  0  0  0  0
  -18.1858  -26.8010   22.1471 C   0  0  0  0  0  0
  -19.1513  -28.8787   23.2956 C   0  0  0  0  0  0
  -18.9443  -30.1355   23.9041 C   0  0  0  0  0  0
  -17.6450  -30.6518   24.0679 C   0  0  0  0  0  0
  -25.9031  -34.9490   23.5147 C   0  0  0  0  0  0
  -16.5342  -29.9082   23.6354 C   0  0  0  0  0  0
  -16.7248  -28.6539   23.0301 C   0  0  0  0  0  0
  -26.4448  -31.6604   25.0711 C   0  0  0  0  0  0
  -25.3725  -31.3687   26.1461 C   0  0  0  0  0  0
  -27.0252  -30.3051   24.6034 C   0  0  0  0  0  0
  -27.6043  -32.4309   25.7454 C   0  0  0  0  0  0
  -27.5579  -37.1817   24.8471 C   0  0  0  0  0  0
  -21.4104  -29.2965   22.3821 N   0  0  0  0  0  0
  -26.4299  -37.3803   23.9410 N   0  0  0  0  0  0
  -24.6552  -31.0862   22.1029 N   0  0  0  0  0  0
  -23.4209  -28.8164   23.3050 O   0  0  0  0  0  0
  -28.3554  -26.7440   20.1815 O   0  0  0  0  0  0
  -26.5591  -34.8942   22.4710 O   0  0  0  0  0  0
  -23.5291  -32.1466   23.7585 O   0  0  0  0  0  0
  -28.8644  -23.3585   21.0245 C   0  0  0  0  0  0
  -28.0109  -23.1744   22.1453 C   0  0  0  0  0  0
  -27.4840  -25.4211   22.1225 C   0  0  0  0  0  0
  -28.2597  -25.5902   20.9303 C   0  0  0  0  0  0
  -29.6888  -22.2429   20.4031 C   0  0  0  0  0  0
  -26.7546  -26.5340   22.8609 C   0  0  0  0  0  0
  -27.6624  -21.8170   22.7295 C   0  0  0  0  0  0
  -26.6972  -21.0493   21.8094 C   0  0  0  0  0  0
  -25.8124  -20.0351   22.5520 C   0  0  0  0  0  0
  -28.3637  -16.4420   21.9930 C   0  0  0  0  0  0
  -29.8651  -16.3985   21.6542 C   0  0  0  0  0  0
  -25.3891  -18.8435   21.6690 C   0  0  0  0  0  0
  -27.6457  -17.7525   21.6517 C   0  0  0  0  0  0
  -27.3441  -24.2089   22.7012 N   0  0  0  0  0  0
  -28.9773  -24.5640   20.4191 N   0  0  0  0  0  0
  -30.2846  -15.0063   21.7514 N   0  0  0  0  0  0
  -26.1971  -17.6332   21.9414 N   0  3  0  0  0  0
  -31.4732  -12.4228   19.0560 H   0  0  0  0  0  0
  -30.3647  -11.2444   19.7028 H   0  0  0  0  0  0
  -29.7131  -11.8463   17.3652 H   0  0  0  0  0  0
  -29.6506  -13.5405   17.7821 H   0  0  0  0  0  0
  -27.8070  -11.3277   18.7520 H   0  0  0  0  0  0
  -27.3565  -12.7032   17.7783 H   0  0  0  0  0  0
  -27.7476  -14.2472   19.6252 H   0  0  0  0  0  0
  -28.6638  -11.8130   21.2310 H   0  0  0  0  0  0
  -28.4540  -13.3833   21.9048 H   0  0  0  0  0  0
  -25.2729   -9.5740   22.4852 H   0  0  0  0  0  0
  -23.9996   -7.4678   22.7556 H   0  0  0  0  0  0
  -21.0886   -8.8729   19.8921 H   0  0  0  0  0  0
  -22.3759  -10.9649   19.6141 H   0  0  0  0  0  0
  -21.1930   -7.6163   23.9753 H   0  0  0  0  0  0
  -21.1487   -6.0533   25.9092 H   0  0  0  0  0  0
  -22.0582   -2.7638   23.2850 H   0  0  0  0  0  0
  -22.3803  -11.9718   22.4585 H   0  0  0  0  0  0
  -21.1140  -13.1438   22.2634 H   0  0  0  0  0  0
  -24.5082  -15.5764   20.1434 H   0  0  0  0  0  0
  -26.0752  -15.3867   19.6338 H   0  0  0  0  0  0
  -26.7085  -32.5567   23.1192 H   0  0  0  0  0  0
  -25.0017  -33.9828   25.0483 H   0  0  0  0  0  0
  -22.6727  -31.3087   21.4338 H   0  0  0  0  0  0
  -23.3735  -35.9667   23.3331 H   0  0  0  0  0  0
  -24.3590  -36.8911   22.2052 H   0  0  0  0  0  0
  -23.7241  -37.6540   23.6639 H   0  0  0  0  0  0
  -26.0121  -31.6399   20.5920 H   0  0  0  0  0  0
  -26.8030  -30.9139   21.9648 H   0  0  0  0  0  0
  -28.0924  -29.1838   21.1160 H   0  0  0  0  0  0
  -26.0695  -25.9852   19.0422 H   0  0  0  0  0  0
  -23.9666  -27.2993   19.0483 H   0  0  0  0  0  0
  -23.6619  -30.6099   19.4099 H   0  0  0  0  0  0
  -22.7109  -29.2353   19.8924 H   0  0  0  0  0  0
  -25.1279  -36.2001   25.0824 H   0  0  0  0  0  0
  -20.9931  -28.3067   24.1497 H   0  0  0  0  0  0
  -20.5603  -26.2129   23.3508 H   0  0  0  0  0  0
  -21.6596  -26.7356   22.1177 H   0  0  0  0  0  0
  -19.6818  -25.6344   21.1112 H   0  0  0  0  0  0
  -19.6726  -27.3242   20.6726 H   0  0  0  0  0  0
  -17.4223  -26.6989   21.3748 H   0  0  0  0  0  0
  -18.0024  -26.0035   22.8676 H   0  0  0  0  0  0
  -19.7906  -30.7091   24.2561 H   0  0  0  0  0  0
  -17.4983  -31.6140   24.5382 H   0  0  0  0  0  0
  -15.5351  -30.2987   23.7670 H   0  0  0  0  0  0
  -15.8641  -28.0906   22.6959 H   0  0  0  0  0  0
  -24.5886  -30.7059   25.7780 H   0  0  0  0  0  0
  -24.8915  -32.2830   26.4942 H   0  0  0  0  0  0
  -25.8068  -30.8812   27.0197 H   0  0  0  0  0  0
  -26.2765  -29.6826   24.1119 H   0  0  0  0  0  0
  -27.4074  -29.7266   25.4452 H   0  0  0  0  0  0
  -27.8576  -30.4378   23.9126 H   0  0  0  0  0  0
  -27.2682  -33.3592   26.2084 H   0  0  0  0  0  0
  -28.3802  -32.6909   25.0243 H   0  0  0  0  0  0
  -28.0770  -31.8408   26.5314 H   0  0  0  0  0  0
  -28.2616  -38.0093   24.7494 H   0  0  0  0  0  0
  -28.1054  -36.2628   24.6320 H   0  0  0  0  0  0
  -27.2307  -37.1489   25.8879 H   0  0  0  0  0  0
  -20.9233  -29.8664   21.7044 H   0  0  0  0  0  0
  -26.0190  -38.2883   24.1403 H   0  0  0  0  0  0
  -29.8201  -21.3941   21.0719 H   0  0  0  0  0  0
  -30.6860  -22.6116   20.1591 H   0  0  0  0  0  0
  -29.2314  -21.8813   19.4822 H   0  0  0  0  0  0
  -27.3869  -27.4151   22.9558 H   0  0  0  0  0  0
  -26.4785  -26.2332   23.8724 H   0  0  0  0  0  0
  -25.8355  -26.8086   22.3437 H   0  0  0  0  0  0
  -27.1921  -21.9703   23.7038 H   0  0  0  0  0  0
  -28.5611  -21.2325   22.9261 H   0  0  0  0  0  0
  -27.2754  -20.5713   21.0196 H   0  0  0  0  0  0
  -26.0311  -21.7490   21.3009 H   0  0  0  0  0  0
  -24.9186  -20.5506   22.9021 H   0  0  0  0  0  0
  -26.3034  -19.6781   23.4584 H   0  0  0  0  0  0
  -28.2283  -16.2137   23.0513 H   0  0  0  0  0  0
  -27.8567  -15.6470   21.4517 H   0  0  0  0  0  0
  -30.4483  -17.0184   22.3363 H   0  0  0  0  0  0
  -30.0303  -16.7807   20.6440 H   0  0  0  0  0  0
  -25.4209  -19.0998   20.6085 H   0  0  0  0  0  0
  -24.3463  -18.5986   21.8748 H   0  0  0  0  0  0
  -27.7800  -17.9922   20.5955 H   0  0  0  0  0  0
  -28.0936  -18.5620   22.2265 H   0  0  0  0  0  0
  -29.7148  -14.4432   22.3664 H   0  0  0  0  0  0
  -25.8247  -16.8629   21.3948 H   0  0  0  0  0  0
  -26.0678  -17.3813   22.9086 H   0  0  0  0  0  0
  1 25  1  0  0  0
  1 30  2  0  0  0
  1 86  1  0  0  0
  2  3  1  0  0  0
  2 25  1  0  0  0
  2 88  1  0  0  0
  2 89  1  0  0  0
  3  4  1  0  0  0
  3 90  1  0  0  0
  3 91  1  0  0  0
  4  5  1  0  0  0
  4 92  1  0  0  0
  4 93  1  0  0  0
  5  6  1  0  0  0
  5 26  1  0  0  0
  5 94  1  0  0  0
  6 25  1  0  0  0
  6 95  1  0  0  0
  6 96  1  0  0  0
  7  8  2  0  0  0
  7 26  1  0  0  0
  7 29  1  0  0  0
  8  9  1  0  0  0
  8 22  1  0  0  0
  9 10  1  0  0  0
  9 27  2  0  0  0
 10 11  2  0  0  0
 10 15  1  0  0  0
 11 12  1  0  0  0
 11 97  1  0  0  0
 12 13  2  0  0  0
 12 98  1  0  0  0
 13 14  1  0  0  0
 13 31  1  0  0  0
 14 15  2  0  0  0
 14 99  1  0  0  0
 15100  1  0  0  0
 16 17  2  0  0  0
 16 21  1  0  0  0
 16 31  1  0  0  0
 17 18  1  0  0  0
 17101  1  0  0  0
 18 19  2  0  0  0
 18102  1  0  0  0
 19 20  1  0  0  0
 19 24  1  0  0  0
 20 21  2  0  0  0
 20103  1  0  0  0
 21 23  1  0  0  0
 22 28  1  0  0  0
 22 32  2  0  0  0
 26 27  1  0  0  0
 28104  1  0  0  0
 28105  1  0  0  0
 29106  1  0  0  0
 29107  1  0  0  0
 33 34  1  0  0  0
 33 66  1  0  0  0
 33 70  2  0  0  0
 34 36  1  0  0  0
 34 59  1  0  0  0
 34108  1  0  0  0
 35 44  2  0  0  0
 35 45  1  0  0  0
 35 68  1  0  0  0
 36 56  1  0  0  0
 36109  1  0  0  0
 37 39  1  0  0  0
 37 47  1  0  0  0
 37 66  1  0  0  0
 37110  1  0  0  0
 38 43  2  0  0  0
 38 46  1  0  0  0
 38 47  1  0  0  0
 39 64  1  0  0  0
 39 67  2  0  0  0
 40 52  1  0  0  0
 40 53  2  0  0  0
 40 58  1  0  0  0
 41111  1  0  0  0
 41112  1  0  0  0
 41113  1  0  0  0
 41 48  1  0  0  0
 42 43  1  0  0  0
 42 66  1  0  0  0
 42114  1  0  0  0
 42115  1  0  0  0
 43 44  1  0  0  0
 44116  1  0  0  0
 45 46  2  0  0  0
 45117  1  0  0  0
 46118  1  0  0  0
 47119  1  0  0  0
 47120  1  0  0  0
 48 56  1  0  0  0
 48 65  1  0  0  0
 48121  1  0  0  0
 49 50  1  0  0  0
 49 53  1  0  0  0
 49 64  1  0  0  0
 49122  1  0  0  0
 50 51  1  0  0  0
 50123  1  0  0  0
 50124  1  0  0  0
 51 52  1  0  0  0
 51125  1  0  0  0
 51126  1  0  0  0
 52127  1  0  0  0
 52128  1  0  0  0
 53 54  1  0  0  0
 54 55  2  0  0  0
 54129  1  0  0  0
 55 57  1  0  0  0
 55130  1  0  0  0
 56 69  2  0  0  0
 57 58  2  0  0  0
 57131  1  0  0  0
 58132  1  0  0  0
 59 60  1  0  0  0
 59 61  1  0  0  0
 59 62  1  0  0  0
 60133  1  0  0  0
 60134  1  0  0  0
 60135  1  0  0  0
 61136  1  0  0  0
 61137  1  0  0  0
 61138  1  0  0  0
 62139  1  0  0  0
 62140  1  0  0  0
 62141  1  0  0  0
 63 65  1  0  0  0
 63142  1  0  0  0
 63143  1  0  0  0
 63144  1  0  0  0
 64145  1  0  0  0
 65146  1  0  0  0
 68 74  1  0  0  0
 71 72  2  0  0  0
 71 75  1  0  0  0
 71 85  1  0  0  0
 72 77  1  0  0  0
 72 84  1  0  0  0
 73 74  1  0  0  0
 73 76  1  0  0  0
 73 84  2  0  0  0
 74 85  2  0  0  0
 75147  1  0  0  0
 75148  1  0  0  0
 75149  1  0  0  0
 76150  1  0  0  0
 76151  1  0  0  0
 76152  1  0  0  0
 77 78  1  0  0  0
 77153  1  0  0  0
 77154  1  0  0  0
 78 79  1  0  0  0
 78155  1  0  0  0
 78156  1  0  0  0
 79 82  1  0  0  0
 79157  1  0  0  0
 79158  1  0  0  0
 80 81  1  0  0  0
 80 83  1  0  0  0
 80159  1  0  0  0
 80160  1  0  0  0
 81 86  1  0  0  0
 81161  1  0  0  0
 81162  1  0  0  0
 82 87  1  0  0  0
 82163  1  0  0  0
 82164  1  0  0  0
 83 87  1  0  0  0
 83165  1  0  0  0
 83166  1  0  0  0
 86167  1  0  0  0
 87168  1  0  0  0
 87169  1  0  0  0
M  CHG  1  87   1
M  ISO  4   1 100  68 101  74 101  86 100
M  END
> <chiral flag>
0

> <version>
0

> <s_m_source_file>
/data/baiqing/PycharmProjects/Reinvent-master-3.2/result/LINK_invent/BTK/process_docking_weight1_custom_sum_contain_oxygen_bond_distance_aromatic_linkinvent_7_9_3/rearranged_h_0043.sdf

> <i_m_source_file_index>
93

> <r_mmod_Potential_Energy-OPLS-2005>
-154.553039550781

> <r_mmod_Stretch_Energy-OPLS-2005>
34.213077545166

> <r_mmod_Bend_Energy-OPLS-2005>
94.7546310424805

> <r_mmod_Torsional_Energy-OPLS-2005>
266.046844482422

> <r_mmod_Improper_Torsional_Energy-OPLS-2005>
11.9893131256104

> <r_mmod_Van_der_Waal_Energy-OPLS-2005>
154.360321044922

> <r_mmod_Electrostatic_Energy-OPLS-2005>
-248.179931640625

> <r_mmod_Solvation_Energy-OPLS-2005>
-479.91162109375

> <b_mmod_Minimization_Converged-OPLS-2005>
0

> <r_mmod_RMS_Derivative-OPLS-2005>
3.83220744132996

$$$$
93
                    3D
 Structure written by MMmdl.
160168  0  0  1  0            999 V2000
  -30.6486  -14.4603   20.5944 C   0  0  0  0  0  0
  -30.4285  -12.3015   19.4155 C   0  0  0  0  0  0
  -29.4987  -12.5261   18.2013 C   0  0  0  0  0  0
  -28.0149  -12.3814   18.6033 C   0  0  0  0  0  0
  -27.6638  -13.1971   19.8773 C   0  0  2  0  0  0
  -28.6998  -12.9170   20.9866 C   0  0  0  0  0  0
  -25.2649  -13.8129   20.5686 C   0  0  0  0  0  0
  -24.1864  -13.0432   20.9135 C   0  0  0  0  0  0
  -24.6377  -11.6889   20.8695 C   0  0  0  0  0  0
  -23.9010  -10.4303   21.0402 C   0  0  0  0  0  0
  -24.3586   -9.4216   21.9154 C   0  0  0  0  0  0
  -23.6299   -8.2234   22.0704 C   0  0  0  0  0  0
  -22.4256   -8.0285   21.3535 C   0  0  0  0  0  0
  -21.9853   -9.0268   20.4677 C   0  0  0  0  0  0
  -22.7164  -10.2160   20.3104 C   0  0  0  0  0  0
  -21.6857   -6.0730   22.5269 C   0  0  0  0  0  0
  -21.4020   -6.5632   23.8205 C   0  0  0  0  0  0
  -21.3655   -5.6786   24.9162 C   0  0  0  0  0  0
  -21.6027   -4.3048   24.7219 C   0  0  0  0  0  0
  -21.8813   -3.8136   23.4340 C   0  0  0  0  0  0
  -21.9203   -4.6961   22.3396 C   0  0  0  0  0  0
  -22.7917  -13.5288   21.1829 C   0  0  0  0  0  0
  -22.1688   -4.2152   21.0980 F   0  0  0  0  0  0
  -21.5613   -3.4534   25.7722 F   0  0  0  0  0  0
  -30.0265  -13.2577   20.4571 N   0  0  0  0  0  0
  -26.3043  -12.9258   20.3352 N   0  0  0  0  0  0
  -25.9294  -11.6415   20.5705 N   0  0  0  0  0  0
  -22.0574  -12.8287   22.0412 N   0  0  0  0  0  0
  -25.4447  -15.1850   20.4180 N   0  0  0  0  0  0
  -31.7816  -14.6668   20.1458 O   0  0  0  0  0  0
  -21.6652   -6.8860   21.4225 O   0  0  0  0  0  0
  -22.3615  -14.5625   20.6738 O   0  0  0  0  0  0
  -24.6087  -31.8661   23.2104 C   0  0  0  0  0  0
  -25.8988  -32.4821   23.8389 C   0  0  1  0  0  0
  -27.2439  -27.4616   20.0958 C   0  0  0  0  0  0
  -25.5852  -33.8616   24.2309 N   0  0  0  0  0  0
  -23.3953  -30.4901   21.5513 C   0  0  2  0  0  0
  -24.8453  -28.9560   20.1203 C   0  0  0  0  0  0
  -22.7376  -29.4630   22.5025 C   0  0  0  0  0  0
  -18.0262  -28.1365   22.8491 C   0  0  0  0  0  0
  -24.1514  -36.7344   23.2651 C   0  0  0  0  0  0
  -25.9222  -30.8427   21.3612 C   0  0  0  0  0  0
  -26.0022  -29.4793   20.7115 C   0  0  0  0  0  0
  -27.2036  -28.7398   20.6951 C   0  0  0  0  0  0
  -26.0714  -26.9453   19.5018 C   0  0  0  0  0  0
  -24.8730  -27.6877   19.5141 C   0  0  0  0  0  0
  -23.6033  -29.8172   20.1678 C   0  0  0  0  0  0
  -25.4130  -36.3108   24.0327 C   0  0  1  0  0  0
  -20.5851  -28.3614   23.1353 C   0  0  2  0  0  0
  -20.6753  -26.9360   22.5443 C   0  0  0  0  0  0
  -19.5722  -26.6368   21.5240 C   0  0  0  0  0  0
  -18.1898  -26.7900   22.1641 C   0  0  0  0  0  0
  -19.1510  -28.8808   23.2918 C   0  0  0  0  0  0
  -18.9438  -30.1434   23.8896 C   0  0  0  0  0  0
  -17.6442  -30.6564   24.0564 C   0  0  0  0  0  0
  -25.9041  -34.9476   23.5127 C   0  0  0  0  0  0
  -16.5333  -29.9074   23.6325 C   0  0  0  0  0  0
  -16.7251  -28.6506   23.0311 C   0  0  0  0  0  0
  -26.4453  -31.6572   25.0691 C   0  0  0  0  0  0
  -25.3758  -31.3652   26.1459 C   0  0  0  0  0  0
  -27.0290  -30.3017   24.6023 C   0  0  0  0  0  0
  -27.6018  -32.4287   25.7440 C   0  0  0  0  0  0
  -27.5587  -37.1833   24.8454 C   0  0  0  0  0  0
  -21.4120  -29.2992   22.3767 N   0  0  0  0  0  0
  -26.4314  -37.3787   23.9393 N   0  0  0  0  0  0
  -24.6600  -31.0790   22.0999 N   0  0  0  0  0  0
  -23.4165  -28.8164   23.3042 O   0  0  0  0  0  0
  -28.4334  -26.7755   20.0377 O   0  0  0  0  0  0
  -26.5645  -34.8929   22.4714 O   0  0  0  0  0  0
  -23.5296  -32.1374   23.7538 O   0  0  0  0  0  0
  -29.6427  -20.0008   21.2352 C   0  0  0  0  0  0
  -29.2216  -18.7125   21.6757 C   0  0  0  0  0  0
  -28.6523  -20.4288   20.3924 C   0  0  0  0  0  0
  -26.4678  -19.3395   19.6013 C   0  0  0  0  0  0
  -29.8922  -17.7976   22.6740 C   0  0  0  0  0  0
  -28.5116  -21.7255   19.6449 C   0  0  0  0  0  0
  -29.8587  -15.6771   21.1390 C   0  0  0  0  0  0
  -30.6749  -16.6082   22.0631 C   0  0  0  0  0  0
  -28.6735  -22.9711   20.5353 C   0  0  0  0  0  0
  -28.3906  -24.3013   19.8033 C   0  0  0  0  0  0
  -28.5063  -25.5287   20.7314 C   0  0  0  0  0  0
  -28.0679  -18.3659   21.1251 N   0  0  0  0  0  0
  -27.7192  -19.4058   20.3363 N   0  0  0  0  0  0
  -31.4728  -12.4130   19.1241 H   0  0  0  0  0  0
  -30.3349  -11.2797   19.7878 H   0  0  0  0  0  0
  -29.7390  -11.8214   17.4036 H   0  0  0  0  0  0
  -29.6673  -13.5201   17.7843 H   0  0  0  0  0  0
  -27.8187  -11.3232   18.7786 H   0  0  0  0  0  0
  -27.3729  -12.6802   17.7757 H   0  0  0  0  0  0
  -27.7207  -14.2522   19.6078 H   0  0  0  0  0  0
  -28.6757  -11.8572   21.2440 H   0  0  0  0  0  0
  -28.4574  -13.4245   21.9203 H   0  0  0  0  0  0
  -25.2757   -9.5745   22.4687 H   0  0  0  0  0  0
  -24.0075   -7.4591   22.7376 H   0  0  0  0  0  0
  -21.0766   -8.8790   19.9021 H   0  0  0  0  0  0
  -22.3583  -10.9716   19.6286 H   0  0  0  0  0  0
  -21.2020   -7.6147   23.9746 H   0  0  0  0  0  0
  -21.1471   -6.0486   25.9072 H   0  0  0  0  0  0
  -22.0590   -2.7603   23.2823 H   0  0  0  0  0  0
  -22.4189  -11.9924   22.4750 H   0  0  0  0  0  0
  -21.1313  -13.1445   22.2860 H   0  0  0  0  0  0
  -24.7050  -15.8557   20.5986 H   0  0  0  0  0  0
  -26.3250  -15.6302   20.1812 H   0  0  0  0  0  0
  -26.7046  -32.5551   23.1152 H   0  0  0  0  0  0
  -24.9890  -33.9782   25.0363 H   0  0  0  0  0  0
  -22.6797  -31.3029   21.4124 H   0  0  0  0  0  0
  -23.3757  -35.9705   23.3325 H   0  0  0  0  0  0
  -24.3606  -36.8948   22.2063 H   0  0  0  0  0  0
  -23.7283  -37.6559   23.6659 H   0  0  0  0  0  0
  -26.0357  -31.6100   20.5944 H   0  0  0  0  0  0
  -26.8109  -30.8961   21.9812 H   0  0  0  0  0  0
  -28.1003  -29.1478   21.1428 H   0  0  0  0  0  0
  -26.0826  -25.9876   19.0049 H   0  0  0  0  0  0
  -23.9870  -27.2806   19.0469 H   0  0  0  0  0  0
  -23.7027  -30.5866   19.4019 H   0  0  0  0  0  0
  -22.7329  -29.2286   19.8760 H   0  0  0  0  0  0
  -25.1329  -36.1972   25.0820 H   0  0  0  0  0  0
  -20.9928  -28.3191   24.1468 H   0  0  0  0  0  0
  -20.5673  -26.2227   23.3632 H   0  0  0  0  0  0
  -21.6635  -26.7419   22.1235 H   0  0  0  0  0  0
  -19.6911  -25.6303   21.1204 H   0  0  0  0  0  0
  -19.6677  -27.3244   20.6824 H   0  0  0  0  0  0
  -17.4191  -26.6634   21.4024 H   0  0  0  0  0  0
  -18.0298  -26.0044   22.9036 H   0  0  0  0  0  0
  -19.7924  -30.7270   24.2217 H   0  0  0  0  0  0
  -17.4993  -31.6235   24.5204 H   0  0  0  0  0  0
  -15.5323  -30.2987   23.7644 H   0  0  0  0  0  0
  -15.8637  -28.0863   22.6965 H   0  0  0  0  0  0
  -24.5912  -30.6999   25.7828 H   0  0  0  0  0  0
  -24.9013  -32.2825   26.4949 H   0  0  0  0  0  0
  -25.8165  -30.8786   27.0165 H   0  0  0  0  0  0
  -26.2823  -29.6750   24.1125 H   0  0  0  0  0  0
  -27.4139  -29.7224   25.4429 H   0  0  0  0  0  0
  -27.8616  -30.4383   23.9114 H   0  0  0  0  0  0
  -27.2586  -33.3548   26.2043 H   0  0  0  0  0  0
  -28.3781  -32.6873   25.0235 H   0  0  0  0  0  0
  -28.0721  -31.8397   26.5319 H   0  0  0  0  0  0
  -28.2605  -38.0133   24.7513 H   0  0  0  0  0  0
  -28.1067  -36.2653   24.6273 H   0  0  0  0  0  0
  -27.2308  -37.1499   25.8857 H   0  0  0  0  0  0
  -20.9250  -29.8689   21.6999 H   0  0  0  0  0  0
  -26.0192  -38.2865   24.1366 H   0  0  0  0  0  0
  -30.5331  -20.5416   21.5200 H   0  0  0  0  0  0
  -25.8414  -20.1864   19.8773 H   0  0  0  0  0  0
  -25.9309  -18.4163   19.8267 H   0  0  0  0  0  0
  -26.6643  -19.3758   18.5306 H   0  0  0  0  0  0
  -29.1498  -17.4209   23.3795 H   0  0  0  0  0  0
  -30.5857  -18.3859   23.2810 H   0  0  0  0  0  0
  -27.5416  -21.7764   19.1476 H   0  0  0  0  0  0
  -29.2586  -21.7558   18.8509 H   0  0  0  0  0  0
  -29.5396  -16.2399   20.2599 H   0  0  0  0  0  0
  -28.9376  -15.4091   21.6478 H   0  0  0  0  0  0
  -31.0805  -16.0204   22.8875 H   0  0  0  0  0  0
  -31.5327  -16.9983   21.5147 H   0  0  0  0  0  0
  -29.6798  -22.9824   20.9579 H   0  0  0  0  0  0
  -27.9909  -22.8798   21.3803 H   0  0  0  0  0  0
  -27.3941  -24.2629   19.3676 H   0  0  0  0  0  0
  -29.0842  -24.4051   18.9684 H   0  0  0  0  0  0
  -29.4880  -25.5052   21.2079 H   0  0  0  0  0  0
  -27.7774  -25.4767   21.5418 H   0  0  0  0  0  0
  1 25  1  0  0  0
  1 30  2  0  0  0
  1 77  1  0  0  0
  2  3  1  0  0  0
  2 25  1  0  0  0
  2 84  1  0  0  0
  2 85  1  0  0  0
  3  4  1  0  0  0
  3 86  1  0  0  0
  3 87  1  0  0  0
  4  5  1  0  0  0
  4 88  1  0  0  0
  4 89  1  0  0  0
  5  6  1  0  0  0
  5 26  1  0  0  0
  5 90  1  0  0  0
  6 25  1  0  0  0
  6 91  1  0  0  0
  6 92  1  0  0  0
  7  8  2  0  0  0
  7 26  1  0  0  0
  7 29  1  0  0  0
  8  9  1  0  0  0
  8 22  1  0  0  0
  9 10  1  0  0  0
  9 27  2  0  0  0
 10 11  2  0  0  0
 10 15  1  0  0  0
 11 12  1  0  0  0
 11 93  1  0  0  0
 12 13  2  0  0  0
 12 94  1  0  0  0
 13 14  1  0  0  0
 13 31  1  0  0  0
 14 15  2  0  0  0
 14 95  1  0  0  0
 15 96  1  0  0  0
 16 17  2  0  0  0
 16 21  1  0  0  0
 16 31  1  0  0  0
 17 18  1  0  0  0
 17 97  1  0  0  0
 18 19  2  0  0  0
 18 98  1  0  0  0
 19 20  1  0  0  0
 19 24  1  0  0  0
 20 21  2  0  0  0
 20 99  1  0  0  0
 21 23  1  0  0  0
 22 28  1  0  0  0
 22 32  2  0  0  0
 26 27  1  0  0  0
 28100  1  0  0  0
 28101  1  0  0  0
 29102  1  0  0  0
 29103  1  0  0  0
 33 34  1  0  0  0
 33 66  1  0  0  0
 33 70  2  0  0  0
 34 36  1  0  0  0
 34 59  1  0  0  0
 34104  1  0  0  0
 35 44  2  0  0  0
 35 45  1  0  0  0
 35 68  1  0  0  0
 36 56  1  0  0  0
 36105  1  0  0  0
 37 39  1  0  0  0
 37 47  1  0  0  0
 37 66  1  0  0  0
 37106  1  0  0  0
 38 43  2  0  0  0
 38 46  1  0  0  0
 38 47  1  0  0  0
 39 64  1  0  0  0
 39 67  2  0  0  0
 40 52  1  0  0  0
 40 53  2  0  0  0
 40 58  1  0  0  0
 41107  1  0  0  0
 41108  1  0  0  0
 41109  1  0  0  0
 41 48  1  0  0  0
 42 43  1  0  0  0
 42 66  1  0  0  0
 42110  1  0  0  0
 42111  1  0  0  0
 43 44  1  0  0  0
 44112  1  0  0  0
 45 46  2  0  0  0
 45113  1  0  0  0
 46114  1  0  0  0
 47115  1  0  0  0
 47116  1  0  0  0
 48 56  1  0  0  0
 48 65  1  0  0  0
 48117  1  0  0  0
 49 50  1  0  0  0
 49 53  1  0  0  0
 49 64  1  0  0  0
 49118  1  0  0  0
 50 51  1  0  0  0
 50119  1  0  0  0
 50120  1  0  0  0
 51 52  1  0  0  0
 51121  1  0  0  0
 51122  1  0  0  0
 52123  1  0  0  0
 52124  1  0  0  0
 53 54  1  0  0  0
 54 55  2  0  0  0
 54125  1  0  0  0
 55 57  1  0  0  0
 55126  1  0  0  0
 56 69  2  0  0  0
 57 58  2  0  0  0
 57127  1  0  0  0
 58128  1  0  0  0
 59 60  1  0  0  0
 59 61  1  0  0  0
 59 62  1  0  0  0
 60129  1  0  0  0
 60130  1  0  0  0
 60131  1  0  0  0
 61132  1  0  0  0
 61133  1  0  0  0
 61134  1  0  0  0
 62135  1  0  0  0
 62136  1  0  0  0
 62137  1  0  0  0
 63 65  1  0  0  0
 63138  1  0  0  0
 63139  1  0  0  0
 63140  1  0  0  0
 64141  1  0  0  0
 65142  1  0  0  0
 68 81  1  0  0  0
 71 72  1  0  0  0
 71 73  2  0  0  0
 71143  1  0  0  0
 72 75  1  0  0  0
 72 82  2  0  0  0
 73 76  1  0  0  0
 73 83  1  0  0  0
 74 83  1  0  0  0
 74144  1  0  0  0
 74145  1  0  0  0
 74146  1  0  0  0
 75 78  1  0  0  0
 75147  1  0  0  0
 75148  1  0  0  0
 76 79  1  0  0  0
 76149  1  0  0  0
 76150  1  0  0  0
 77 78  1  0  0  0
 77151  1  0  0  0
 77152  1  0  0  0
 78153  1  0  0  0
 78154  1  0  0  0
 79 80  1  0  0  0
 79155  1  0  0  0
 79156  1  0  0  0
 80 81  1  0  0  0
 80157  1  0  0  0
 80158  1  0  0  0
 81159  1  0  0  0
 81160  1  0  0  0
 82 83  1  0  0  0
M  ISO  4   1 100  68 101  77 100  81 101
M  END
> <chiral flag>
0

> <version>
0

> <s_m_source_file>
/data/baiqing/PycharmProjects/Reinvent-master-3.2/result/LINK_invent/BTK/process_docking_weight1_custom_sum_contain_oxygen_bond_distance_aromatic_linkinvent_7_9_3/rearranged_h_0043.sdf

> <i_m_source_file_index>
94

> <r_mmod_Potential_Energy-OPLS-2005>
-109.038688659668

> <r_mmod_Stretch_Energy-OPLS-2005>
32.1307754516602

> <r_mmod_Bend_Energy-OPLS-2005>
94.4280700683594

> <r_mmod_Torsional_Energy-OPLS-2005>
188.708572387695

> <r_mmod_Improper_Torsional_Energy-OPLS-2005>
4.31416177749634

> <r_mmod_Van_der_Waal_Energy-OPLS-2005>
121.135528564453

> <r_mmod_Electrostatic_Energy-OPLS-2005>
-365.502960205078

> <r_mmod_Solvation_Energy-OPLS-2005>
-195.086563110352

> <b_mmod_Minimization_Converged-OPLS-2005>
0

> <r_mmod_RMS_Derivative-OPLS-2005>
4.32424879074097

$$$$
94
                    3D
 Structure written by MMmdl.
152160  0  0  1  0            999 V2000
  -30.7152  -14.5026   20.5370 C   0  0  0  0  0  0
  -30.4131  -12.3184   19.4334 C   0  0  0  0  0  0
  -29.4961  -12.5119   18.2086 C   0  0  0  0  0  0
  -28.0172  -12.3768   18.6201 C   0  0  0  0  0  0
  -27.6579  -13.2235   19.8715 C   0  0  2  0  0  0
  -28.7030  -13.0437   20.9963 C   0  0  0  0  0  0
  -25.2564  -13.8196   20.5672 C   0  0  0  0  0  0
  -24.1843  -13.0436   20.9165 C   0  0  0  0  0  0
  -24.6437  -11.6915   20.8716 C   0  0  0  0  0  0
  -23.9116  -10.4286   21.0394 C   0  0  0  0  0  0
  -24.3657   -9.4194   21.9164 C   0  0  0  0  0  0
  -23.6302   -8.2246   22.0743 C   0  0  0  0  0  0
  -22.4277   -8.0291   21.3544 C   0  0  0  0  0  0
  -21.9927   -9.0271   20.4643 C   0  0  0  0  0  0
  -22.7287  -10.2132   20.3055 C   0  0  0  0  0  0
  -21.6860   -6.0736   22.5272 C   0  0  0  0  0  0
  -21.4018   -6.5633   23.8209 C   0  0  0  0  0  0
  -21.3656   -5.6780   24.9163 C   0  0  0  0  0  0
  -21.6052   -4.3049   24.7217 C   0  0  0  0  0  0
  -21.8824   -3.8148   23.4335 C   0  0  0  0  0  0
  -21.9188   -4.6962   22.3388 C   0  0  0  0  0  0
  -22.7858  -13.5195   21.1858 C   0  0  0  0  0  0
  -22.1662   -4.2158   21.0965 F   0  0  0  0  0  0
  -21.5635   -3.4531   25.7731 F   0  0  0  0  0  0
  -30.0264  -13.3330   20.4285 N   0  0  0  0  0  0
  -26.3022  -12.9404   20.3370 N   0  0  0  0  0  0
  -25.9368  -11.6544   20.5757 N   0  0  0  0  0  0
  -22.0556  -12.8149   22.0439 N   0  0  0  0  0  0
  -25.4243  -15.1908   20.4068 N   0  0  0  0  0  0
  -31.8663  -14.6252   20.1153 O   0  0  0  0  0  0
  -21.6635   -6.8893   21.4241 O   0  0  0  0  0  0
  -22.3516  -14.5504   20.6741 O   0  0  0  0  0  0
  -24.6193  -31.8641   23.2100 C   0  0  0  0  0  0
  -25.9084  -32.4786   23.8393 C   0  0  1  0  0  0
  -27.2247  -27.3949   20.0974 C   0  0  0  0  0  0
  -25.5934  -33.8592   24.2313 N   0  0  0  0  0  0
  -23.4079  -30.4915   21.5494 C   0  0  2  0  0  0
  -24.8525  -28.9603   20.1085 C   0  0  0  0  0  0
  -22.7427  -29.4644   22.4954 C   0  0  0  0  0  0
  -18.0270  -28.1389   22.8457 C   0  0  0  0  0  0
  -24.1485  -36.7315   23.2637 C   0  0  0  0  0  0
  -25.9421  -30.8197   21.3695 C   0  0  0  0  0  0
  -26.0174  -29.4553   20.7085 C   0  0  0  0  0  0
  -27.2074  -28.6836   20.6928 C   0  0  0  0  0  0
  -26.0375  -26.9328   19.4791 C   0  0  0  0  0  0
  -24.8610  -27.7021   19.4871 C   0  0  0  0  0  0
  -23.6193  -29.8341   20.1603 C   0  0  0  0  0  0
  -25.4100  -36.3087   24.0327 C   0  0  1  0  0  0
  -20.5860  -28.3687   23.1281 C   0  0  2  0  0  0
  -20.6764  -26.9415   22.5407 C   0  0  0  0  0  0
  -19.5754  -26.6388   21.5194 C   0  0  0  0  0  0
  -18.1930  -26.7928   22.1601 C   0  0  0  0  0  0
  -19.1518  -28.8850   23.2864 C   0  0  0  0  0  0
  -18.9455  -30.1450   23.8883 C   0  0  0  0  0  0
  -17.6463  -30.6586   24.0560 C   0  0  0  0  0  0
  -25.9041  -34.9453   23.5111 C   0  0  0  0  0  0
  -16.5347  -29.9094   23.6324 C   0  0  0  0  0  0
  -16.7262  -28.6518   23.0318 C   0  0  0  0  0  0
  -26.4510  -31.6573   25.0733 C   0  0  0  0  0  0
  -25.3787  -31.3680   26.1489 C   0  0  0  0  0  0
  -27.0357  -30.3004   24.6155 C   0  0  0  0  0  0
  -27.6077  -32.4294   25.7514 C   0  0  0  0  0  0
  -27.5565  -37.1807   24.8453 C   0  0  0  0  0  0
  -21.4150  -29.3047   22.3690 N   0  0  0  0  0  0
  -26.4273  -37.3779   23.9408 N   0  0  0  0  0  0
  -24.6747  -31.0722   22.1013 N   0  0  0  0  0  0
  -23.4172  -28.8168   23.3001 O   0  0  0  0  0  0
  -28.3699  -26.6082   20.1413 O   0  0  0  0  0  0
  -26.5601  -34.8915   22.4674 O   0  0  0  0  0  0
  -23.5376  -32.1420   23.7469 O   0  0  0  0  0  0
  -28.2678  -22.3345   21.7231 C   0  0  0  0  0  0
  -29.5101  -20.8075   21.0519 C   0  0  0  0  0  0
  -30.3279  -19.5251   21.0493 C   0  0  0  0  0  0
  -29.5928  -18.1460   20.9773 C   0  0  0  0  0  0
  -29.3969  -24.3383   20.6048 C   0  0  0  0  0  0
  -30.6057  -16.9569   21.0053 C   0  0  0  0  0  0
  -28.1800  -25.1656   20.0945 C   0  0  0  0  0  0
  -28.4446  -21.0190   21.8830 N   0  0  0  0  0  0
  -29.9515  -21.9111   20.4224 N   0  0  0  0  0  0
  -29.1345  -22.9084   20.8833 N   0  0  0  0  0  0
  -30.0323  -15.5890   20.9693 N   0  0  0  0  0  0
  -31.4635  -12.3872   19.1437 H   0  0  0  0  0  0
  -30.2894  -11.3179   19.8531 H   0  0  0  0  0  0
  -29.7354  -11.7863   17.4299 H   0  0  0  0  0  0
  -29.6662  -13.4973   17.7697 H   0  0  0  0  0  0
  -27.8196  -11.3223   18.8128 H   0  0  0  0  0  0
  -27.3720  -12.6559   17.7872 H   0  0  0  0  0  0
  -27.6866  -14.2667   19.5538 H   0  0  0  0  0  0
  -28.6841  -12.0234   21.3824 H   0  0  0  0  0  0
  -28.4759  -13.6832   21.8504 H   0  0  0  0  0  0
  -25.2823   -9.5622   22.4715 H   0  0  0  0  0  0
  -24.0005   -7.4618   22.7448 H   0  0  0  0  0  0
  -21.0863   -8.8797   19.8930 H   0  0  0  0  0  0
  -22.3776  -10.9661   19.6143 H   0  0  0  0  0  0
  -21.2030   -7.6143   23.9713 H   0  0  0  0  0  0
  -21.1475   -6.0508   25.9060 H   0  0  0  0  0  0
  -22.0620   -2.7621   23.2819 H   0  0  0  0  0  0
  -22.4216  -11.9755   22.4684 H   0  0  0  0  0  0
  -21.1203  -13.1150   22.2795 H   0  0  0  0  0  0
  -24.6549  -15.8456   20.5025 H   0  0  0  0  0  0
  -26.2782  -15.6292   20.0859 H   0  0  0  0  0  0
  -26.7154  -32.5470   23.1148 H   0  0  0  0  0  0
  -25.0078  -33.9758   25.0453 H   0  0  0  0  0  0
  -22.6991  -31.3113   21.4120 H   0  0  0  0  0  0
  -23.3721  -35.9672   23.3293 H   0  0  0  0  0  0
  -24.3570  -36.8951   22.2050 H   0  0  0  0  0  0
  -23.7278  -37.6531   23.6670 H   0  0  0  0  0  0
  -26.0658  -31.5894   20.6057 H   0  0  0  0  0  0
  -26.8254  -30.8638   21.9951 H   0  0  0  0  0  0
  -28.1053  -29.0622   21.1616 H   0  0  0  0  0  0
  -25.9986  -25.9732   18.9848 H   0  0  0  0  0  0
  -23.9683  -27.3207   19.0097 H   0  0  0  0  0  0
  -23.7406  -30.6164   19.4107 H   0  0  0  0  0  0
  -22.7391  -29.2681   19.8499 H   0  0  0  0  0  0
  -25.1279  -36.1935   25.0818 H   0  0  0  0  0  0
  -20.9932  -28.3269   24.1405 H   0  0  0  0  0  0
  -20.5642  -26.2306   23.3604 H   0  0  0  0  0  0
  -21.6643  -26.7452   22.1217 H   0  0  0  0  0  0
  -19.6927  -25.6295   21.1232 H   0  0  0  0  0  0
  -19.6699  -27.3187   20.6709 H   0  0  0  0  0  0
  -17.4194  -26.6632   21.4012 H   0  0  0  0  0  0
  -18.0355  -26.0084   22.9013 H   0  0  0  0  0  0
  -19.7933  -30.7261   24.2247 H   0  0  0  0  0  0
  -17.5021  -31.6256   24.5183 H   0  0  0  0  0  0
  -15.5348  -30.2997   23.7671 H   0  0  0  0  0  0
  -15.8652  -28.0859   22.7015 H   0  0  0  0  0  0
  -24.5951  -30.7036   25.7834 H   0  0  0  0  0  0
  -24.8998  -32.2831   26.4973 H   0  0  0  0  0  0
  -25.8161  -30.8823   27.0224 H   0  0  0  0  0  0
  -26.2917  -29.6732   24.1227 H   0  0  0  0  0  0
  -27.4121  -29.7279   25.4646 H   0  0  0  0  0  0
  -27.8759  -30.4289   23.9326 H   0  0  0  0  0  0
  -27.2684  -33.3567   26.2143 H   0  0  0  0  0  0
  -28.3882  -32.6893   25.0351 H   0  0  0  0  0  0
  -28.0760  -31.8386   26.5397 H   0  0  0  0  0  0
  -28.2574  -38.0111   24.7491 H   0  0  0  0  0  0
  -28.1071  -36.2640   24.6275 H   0  0  0  0  0  0
  -27.2284  -37.1456   25.8858 H   0  0  0  0  0  0
  -20.9321  -29.8794   21.6930 H   0  0  0  0  0  0
  -26.0143  -38.2848   24.1425 H   0  0  0  0  0  0
  -27.5332  -22.9003   22.2790 H   0  0  0  0  0  0
  -30.9479  -19.5401   21.9458 H   0  0  0  0  0  0
  -31.0281  -19.5769   20.2149 H   0  0  0  0  0  0
  -28.9890  -18.0948   20.0713 H   0  0  0  0  0  0
  -28.9045  -18.0580   21.8179 H   0  0  0  0  0  0
  -29.7491  -24.7818   21.5356 H   0  0  0  0  0  0
  -30.2240  -24.4186   19.8980 H   0  0  0  0  0  0
  -31.2361  -17.0282   21.8939 H   0  0  0  0  0  0
  -31.2800  -17.0854   20.1552 H   0  0  0  0  0  0
  -27.3109  -24.9030   20.6994 H   0  0  0  0  0  0
  -27.9606  -24.8616   19.0705 H   0  0  0  0  0  0
  -29.0787  -15.4557   21.2709 H   0  0  0  0  0  0
  1 25  1  0  0  0
  1 30  2  0  0  0
  1 81  1  0  0  0
  2  3  1  0  0  0
  2 25  1  0  0  0
  2 82  1  0  0  0
  2 83  1  0  0  0
  3  4  1  0  0  0
  3 84  1  0  0  0
  3 85  1  0  0  0
  4  5  1  0  0  0
  4 86  1  0  0  0
  4 87  1  0  0  0
  5  6  1  0  0  0
  5 26  1  0  0  0
  5 88  1  0  0  0
  6 25  1  0  0  0
  6 89  1  0  0  0
  6 90  1  0  0  0
  7  8  2  0  0  0
  7 26  1  0  0  0
  7 29  1  0  0  0
  8  9  1  0  0  0
  8 22  1  0  0  0
  9 10  1  0  0  0
  9 27  2  0  0  0
 10 11  2  0  0  0
 10 15  1  0  0  0
 11 12  1  0  0  0
 11 91  1  0  0  0
 12 13  2  0  0  0
 12 92  1  0  0  0
 13 14  1  0  0  0
 13 31  1  0  0  0
 14 15  2  0  0  0
 14 93  1  0  0  0
 15 94  1  0  0  0
 16 17  2  0  0  0
 16 21  1  0  0  0
 16 31  1  0  0  0
 17 18  1  0  0  0
 17 95  1  0  0  0
 18 19  2  0  0  0
 18 96  1  0  0  0
 19 20  1  0  0  0
 19 24  1  0  0  0
 20 21  2  0  0  0
 20 97  1  0  0  0
 21 23  1  0  0  0
 22 28  1  0  0  0
 22 32  2  0  0  0
 26 27  1  0  0  0
 28 98  1  0  0  0
 28 99  1  0  0  0
 29100  1  0  0  0
 29101  1  0  0  0
 33 34  1  0  0  0
 33 66  1  0  0  0
 33 70  2  0  0  0
 34 36  1  0  0  0
 34 59  1  0  0  0
 34102  1  0  0  0
 35 44  2  0  0  0
 35 45  1  0  0  0
 35 68  1  0  0  0
 36 56  1  0  0  0
 36103  1  0  0  0
 37 39  1  0  0  0
 37 47  1  0  0  0
 37 66  1  0  0  0
 37104  1  0  0  0
 38 43  2  0  0  0
 38 46  1  0  0  0
 38 47  1  0  0  0
 39 64  1  0  0  0
 39 67  2  0  0  0
 40 52  1  0  0  0
 40 53  2  0  0  0
 40 58  1  0  0  0
 41105  1  0  0  0
 41106  1  0  0  0
 41107  1  0  0  0
 41 48  1  0  0  0
 42 43  1  0  0  0
 42 66  1  0  0  0
 42108  1  0  0  0
 42109  1  0  0  0
 43 44  1  0  0  0
 44110  1  0  0  0
 45 46  2  0  0  0
 45111  1  0  0  0
 46112  1  0  0  0
 47113  1  0  0  0
 47114  1  0  0  0
 48 56  1  0  0  0
 48 65  1  0  0  0
 48115  1  0  0  0
 49 50  1  0  0  0
 49 53  1  0  0  0
 49 64  1  0  0  0
 49116  1  0  0  0
 50 51  1  0  0  0
 50117  1  0  0  0
 50118  1  0  0  0
 51 52  1  0  0  0
 51119  1  0  0  0
 51120  1  0  0  0
 52121  1  0  0  0
 52122  1  0  0  0
 53 54  1  0  0  0
 54 55  2  0  0  0
 54123  1  0  0  0
 55 57  1  0  0  0
 55124  1  0  0  0
 56 69  2  0  0  0
 57 58  2  0  0  0
 57125  1  0  0  0
 58126  1  0  0  0
 59 60  1  0  0  0
 59 61  1  0  0  0
 59 62  1  0  0  0
 60127  1  0  0  0
 60128  1  0  0  0
 60129  1  0  0  0
 61130  1  0  0  0
 61131  1  0  0  0
 61132  1  0  0  0
 62133  1  0  0  0
 62134  1  0  0  0
 62135  1  0  0  0
 63 65  1  0  0  0
 63136  1  0  0  0
 63137  1  0  0  0
 63138  1  0  0  0
 64139  1  0  0  0
 65140  1  0  0  0
 68 77  1  0  0  0
 71 78  2  0  0  0
 71 80  1  0  0  0
 71141  1  0  0  0
 72 73  1  0  0  0
 72 78  1  0  0  0
 72 79  2  0  0  0
 73 74  1  0  0  0
 73142  1  0  0  0
 73143  1  0  0  0
 74 76  1  0  0  0
 74144  1  0  0  0
 74145  1  0  0  0
 75 77  1  0  0  0
 75 80  1  0  0  0
 75146  1  0  0  0
 75147  1  0  0  0
 76 81  1  0  0  0
 76148  1  0  0  0
 76149  1  0  0  0
 77150  1  0  0  0
 77151  1  0  0  0
 79 80  1  0  0  0
 81152  1  0  0  0
M  ISO  4   1 100  68 101  77 101  81 100
M  END
> <chiral flag>
0

> <version>
0

> <s_m_source_file>
/data/baiqing/PycharmProjects/Reinvent-master-3.2/result/LINK_invent/BTK/process_docking_weight1_custom_sum_contain_oxygen_bond_distance_aromatic_linkinvent_7_9_3/rearranged_h_0043.sdf

> <i_m_source_file_index>
95

> <r_mmod_Potential_Energy-OPLS-2005>
-107.570571899414

> <r_mmod_Stretch_Energy-OPLS-2005>
45.5478973388672

> <r_mmod_Bend_Energy-OPLS-2005>
107.564056396484

> <r_mmod_Torsional_Energy-OPLS-2005>
208.054168701172

> <r_mmod_Improper_Torsional_Energy-OPLS-2005>
5.96441411972046

> <r_mmod_Van_der_Waal_Energy-OPLS-2005>
130.421829223633

> <r_mmod_Electrostatic_Energy-OPLS-2005>
-392.996673583984

> <r_mmod_Solvation_Energy-OPLS-2005>
-233.379486083984

> <b_mmod_Minimization_Converged-OPLS-2005>
0

> <r_mmod_RMS_Derivative-OPLS-2005>
2.32404446601868

$$$$
95
                    3D
 Structure written by MMmdl.
156164  0  0  1  0            999 V2000
  -30.6245  -14.6888   20.4868 C   0  0  0  0  0  0
  -30.4297  -12.4222   19.4629 C   0  0  0  0  0  0
  -29.5099  -12.5049   18.2265 C   0  0  0  0  0  0
  -28.0305  -12.3458   18.6293 C   0  0  0  0  0  0
  -27.6415  -13.2270   19.8470 C   0  0  2  0  0  0
  -28.6850  -13.1254   20.9808 C   0  0  0  0  0  0
  -25.2515  -13.8193   20.5661 C   0  0  0  0  0  0
  -24.1784  -13.0435   20.9155 C   0  0  0  0  0  0
  -24.6360  -11.6911   20.8675 C   0  0  0  0  0  0
  -23.9023  -10.4299   21.0375 C   0  0  0  0  0  0
  -24.3593   -9.4232   21.9146 C   0  0  0  0  0  0
  -23.6296   -8.2252   22.0726 C   0  0  0  0  0  0
  -22.4271   -8.0262   21.3542 C   0  0  0  0  0  0
  -21.9893   -9.0209   20.4633 C   0  0  0  0  0  0
  -22.7190  -10.2108   20.3043 C   0  0  0  0  0  0
  -21.6867   -6.0704   22.5261 C   0  0  0  0  0  0
  -21.4027   -6.5615   23.8191 C   0  0  0  0  0  0
  -21.3664   -5.6781   24.9153 C   0  0  0  0  0  0
  -21.6056   -4.3035   24.7219 C   0  0  0  0  0  0
  -21.8833   -3.8114   23.4348 C   0  0  0  0  0  0
  -21.9210   -4.6929   22.3398 C   0  0  0  0  0  0
  -22.7818  -13.5226   21.1827 C   0  0  0  0  0  0
  -22.1680   -4.2108   21.0979 F   0  0  0  0  0  0
  -21.5631   -3.4526   25.7740 F   0  0  0  0  0  0
  -29.9922  -13.4715   20.4095 N   0  0  0  0  0  0
  -26.2918  -12.9380   20.3221 N   0  0  0  0  0  0
  -25.9289  -11.6525   20.5668 N   0  0  0  0  0  0
  -22.0483  -12.8201   22.0406 N   0  0  0  0  0  0
  -25.4272  -15.1915   20.4117 N   0  0  0  0  0  0
  -31.8069  -14.7999   20.1531 O   0  0  0  0  0  0
  -21.6670   -6.8844   21.4225 O   0  0  0  0  0  0
  -22.3483  -14.5493   20.6635 O   0  0  0  0  0  0
  -24.6311  -31.8521   23.2024 C   0  0  0  0  0  0
  -25.9135  -32.4741   23.8345 C   0  0  1  0  0  0
  -27.2223  -27.2672   20.1253 C   0  0  0  0  0  0
  -25.5912  -33.8538   24.2252 N   0  0  0  0  0  0
  -23.4271  -30.4822   21.5415 C   0  0  2  0  0  0
  -24.8742  -28.9306   20.1086 C   0  0  0  0  0  0
  -22.7486  -29.4617   22.4881 C   0  0  0  0  0  0
  -18.0296  -28.1381   22.8502 C   0  0  0  0  0  0
  -24.1474  -36.7293   23.2634 C   0  0  0  0  0  0
  -25.9712  -30.7683   21.3814 C   0  0  0  0  0  0
  -26.0431  -29.3914   20.7261 C   0  0  0  0  0  0
  -27.2151  -28.5699   20.7301 C   0  0  0  0  0  0
  -26.0324  -26.8861   19.4604 C   0  0  0  0  0  0
  -24.8729  -27.6832   19.4691 C   0  0  0  0  0  0
  -23.6472  -29.8191   20.1564 C   0  0  0  0  0  0
  -25.4088  -36.3050   24.0335 C   0  0  1  0  0  0
  -20.5890  -28.3696   23.1257 C   0  0  2  0  0  0
  -20.6770  -26.9402   22.5405 C   0  0  0  0  0  0
  -19.5747  -26.6368   21.5208 C   0  0  0  0  0  0
  -18.1934  -26.7929   22.1625 C   0  0  0  0  0  0
  -19.1547  -28.8854   23.2890 C   0  0  0  0  0  0
  -18.9471  -30.1457   23.8914 C   0  0  0  0  0  0
  -17.6474  -30.6588   24.0566 C   0  0  0  0  0  0
  -25.9038  -34.9426   23.5085 C   0  0  0  0  0  0
  -16.5365  -29.9089   23.6334 C   0  0  0  0  0  0
  -16.7291  -28.6494   23.0369 C   0  0  0  0  0  0
  -26.4518  -31.6581   25.0736 C   0  0  0  0  0  0
  -25.3794  -31.3725   26.1501 C   0  0  0  0  0  0
  -27.0357  -30.2998   24.6206 C   0  0  0  0  0  0
  -27.6026  -32.4337   25.7551 C   0  0  0  0  0  0
  -27.5569  -37.1792   24.8458 C   0  0  0  0  0  0
  -21.4179  -29.3066   22.3644 N   0  0  0  0  0  0
  -26.4258  -37.3761   23.9424 N   0  0  0  0  0  0
  -24.6954  -31.0517   22.0989 N   0  0  0  0  0  0
  -23.4184  -28.8127   23.2951 O   0  0  0  0  0  0
  -28.3226  -26.3804   20.2178 O   0  0  0  0  0  0
  -26.5600  -34.8914   22.4652 O   0  0  0  0  0  0
  -23.5467  -32.1305   23.7362 O   0  0  0  0  0  0
  -30.3709  -21.7775   17.7324 C   0  0  0  0  0  0
  -29.4724  -22.4928   19.5752 C   0  0  0  0  0  0
  -29.7286  -21.0828   19.7244 C   0  0  0  0  0  0
  -30.9459  -19.4342   18.1351 C   0  0  0  0  0  0
  -29.0629  -23.7326   20.4595 C   0  0  0  0  0  0
  -29.6310  -20.0159   20.8690 C   0  0  0  0  0  0
  -29.2344  -18.4569   20.6167 C   0  0  0  0  0  0
  -30.3152  -17.2668   20.7632 C   0  0  0  0  0  0
  -28.2201  -24.9431   19.7775 C   0  0  0  0  0  0
  -29.8941  -22.8666   18.2978 N   0  0  0  0  0  0
  -30.3524  -20.7049   18.5194 N   0  0  0  0  0  0
  -29.8640  -15.8122   20.7488 N   0  0  0  0  0  0
  -31.4745  -12.5400   19.1668 H   0  0  0  0  0  0
  -30.3598  -11.4385   19.9294 H   0  0  0  0  0  0
  -29.7882  -11.7407   17.5006 H   0  0  0  0  0  0
  -29.6494  -13.4619   17.7239 H   0  0  0  0  0  0
  -27.8618  -11.2941   18.8636 H   0  0  0  0  0  0
  -27.3877  -12.5766   17.7794 H   0  0  0  0  0  0
  -27.6476  -14.2548   19.4855 H   0  0  0  0  0  0
  -28.7101  -12.1143   21.3868 H   0  0  0  0  0  0
  -28.4244  -13.7853   21.8103 H   0  0  0  0  0  0
  -25.2757   -9.5723   22.4681 H   0  0  0  0  0  0
  -24.0035   -7.4662   22.7438 H   0  0  0  0  0  0
  -21.0822   -8.8690   19.8943 H   0  0  0  0  0  0
  -22.3617  -10.9619   19.6137 H   0  0  0  0  0  0
  -21.2020   -7.6123   23.9670 H   0  0  0  0  0  0
  -21.1484   -6.0512   25.9053 H   0  0  0  0  0  0
  -22.0615   -2.7571   23.2858 H   0  0  0  0  0  0
  -22.4150  -11.9923   22.4866 H   0  0  0  0  0  0
  -21.1072  -13.1154   22.2557 H   0  0  0  0  0  0
  -24.6708  -15.8572   20.5226 H   0  0  0  0  0  0
  -26.2832  -15.6196   20.0827 H   0  0  0  0  0  0
  -26.7201  -32.5415   23.1092 H   0  0  0  0  0  0
  -25.0091  -33.9645   25.0421 H   0  0  0  0  0  0
  -22.7284  -31.3092   21.4002 H   0  0  0  0  0  0
  -23.3722  -35.9641   23.3266 H   0  0  0  0  0  0
  -24.3574  -36.8944   22.2053 H   0  0  0  0  0  0
  -23.7253  -37.6492   23.6693 H   0  0  0  0  0  0
  -26.1010  -31.5233   20.6045 H   0  0  0  0  0  0
  -26.8525  -30.8232   22.0094 H   0  0  0  0  0  0
  -28.1052  -28.9132   21.2386 H   0  0  0  0  0  0
  -25.9581  -25.9530   18.9267 H   0  0  0  0  0  0
  -23.9801  -27.3259   18.9729 H   0  0  0  0  0  0
  -23.7837  -30.5985   19.4062 H   0  0  0  0  0  0
  -22.7662  -29.2574   19.8422 H   0  0  0  0  0  0
  -25.1275  -36.1866   25.0832 H   0  0  0  0  0  0
  -21.0027  -28.3272   24.1354 H   0  0  0  0  0  0
  -20.5631  -26.2301   23.3609 H   0  0  0  0  0  0
  -21.6641  -26.7404   22.1213 H   0  0  0  0  0  0
  -19.6882  -25.6264   21.1257 H   0  0  0  0  0  0
  -19.6678  -27.3163   20.6719 H   0  0  0  0  0  0
  -17.4186  -26.6686   21.4038 H   0  0  0  0  0  0
  -18.0351  -26.0065   22.9011 H   0  0  0  0  0  0
  -19.7946  -30.7272   24.2281 H   0  0  0  0  0  0
  -17.5027  -31.6282   24.5136 H   0  0  0  0  0  0
  -15.5368  -30.2995   23.7638 H   0  0  0  0  0  0
  -15.8687  -28.0822   22.7076 H   0  0  0  0  0  0
  -24.5979  -30.7019   25.7909 H   0  0  0  0  0  0
  -24.8990  -32.2894   26.4925 H   0  0  0  0  0  0
  -25.8190  -30.8963   27.0281 H   0  0  0  0  0  0
  -26.2925  -29.6749   24.1229 H   0  0  0  0  0  0
  -27.4031  -29.7248   25.4715 H   0  0  0  0  0  0
  -27.8825  -30.4251   23.9451 H   0  0  0  0  0  0
  -27.2575  -33.3639   26.2091 H   0  0  0  0  0  0
  -28.3915  -32.6879   25.0459 H   0  0  0  0  0  0
  -28.0621  -31.8487   26.5531 H   0  0  0  0  0  0
  -28.2547  -38.0121   24.7522 H   0  0  0  0  0  0
  -28.1100  -36.2644   24.6253 H   0  0  0  0  0  0
  -27.2315  -37.1443   25.8870 H   0  0  0  0  0  0
  -20.9309  -29.8852   21.6941 H   0  0  0  0  0  0
  -26.0117  -38.2828   24.1443 H   0  0  0  0  0  0
  -30.8061  -21.7718   16.7429 H   0  0  0  0  0  0
  -31.3690  -19.5019   17.1312 H   0  0  0  0  0  0
  -30.1976  -18.6452   18.1210 H   0  0  0  0  0  0
  -31.7562  -19.1812   18.8167 H   0  0  0  0  0  0
  -29.9794  -24.1561   20.8719 H   0  0  0  0  0  0
  -28.5016  -23.3848   21.3269 H   0  0  0  0  0  0
  -28.8996  -20.4052   21.5799 H   0  0  0  0  0  0
  -30.5650  -20.0336   21.4326 H   0  0  0  0  0  0
  -28.4801  -18.2388   21.3740 H   0  0  0  0  0  0
  -28.6806  -18.3596   19.6833 H   0  0  0  0  0  0
  -30.8506  -17.4134   21.7033 H   0  0  0  0  0  0
  -31.0692  -17.3803   19.9869 H   0  0  0  0  0  0
  -27.1919  -24.5905   19.8172 H   0  0  0  0  0  0
  -28.4679  -24.9835   18.7174 H   0  0  0  0  0  0
  -28.8952  -15.6365   20.9719 H   0  0  0  0  0  0
  1 25  1  0  0  0
  1 30  2  0  0  0
  1 82  1  0  0  0
  2  3  1  0  0  0
  2 25  1  0  0  0
  2 83  1  0  0  0
  2 84  1  0  0  0
  3  4  1  0  0  0
  3 85  1  0  0  0
  3 86  1  0  0  0
  4  5  1  0  0  0
  4 87  1  0  0  0
  4 88  1  0  0  0
  5  6  1  0  0  0
  5 26  1  0  0  0
  5 89  1  0  0  0
  6 25  1  0  0  0
  6 90  1  0  0  0
  6 91  1  0  0  0
  7  8  2  0  0  0
  7 26  1  0  0  0
  7 29  1  0  0  0
  8  9  1  0  0  0
  8 22  1  0  0  0
  9 10  1  0  0  0
  9 27  2  0  0  0
 10 11  2  0  0  0
 10 15  1  0  0  0
 11 12  1  0  0  0
 11 92  1  0  0  0
 12 13  2  0  0  0
 12 93  1  0  0  0
 13 14  1  0  0  0
 13 31  1  0  0  0
 14 15  2  0  0  0
 14 94  1  0  0  0
 15 95  1  0  0  0
 16 17  2  0  0  0
 16 21  1  0  0  0
 16 31  1  0  0  0
 17 18  1  0  0  0
 17 96  1  0  0  0
 18 19  2  0  0  0
 18 97  1  0  0  0
 19 20  1  0  0  0
 19 24  1  0  0  0
 20 21  2  0  0  0
 20 98  1  0  0  0
 21 23  1  0  0  0
 22 28  1  0  0  0
 22 32  2  0  0  0
 26 27  1  0  0  0
 28 99  1  0  0  0
 28100  1  0  0  0
 29101  1  0  0  0
 29102  1  0  0  0
 33 34  1  0  0  0
 33 66  1  0  0  0
 33 70  2  0  0  0
 34 36  1  0  0  0
 34 59  1  0  0  0
 34103  1  0  0  0
 35 44  2  0  0  0
 35 45  1  0  0  0
 35 68  1  0  0  0
 36 56  1  0  0  0
 36104  1  0  0  0
 37 39  1  0  0  0
 37 47  1  0  0  0
 37 66  1  0  0  0
 37105  1  0  0  0
 38 43  2  0  0  0
 38 46  1  0  0  0
 38 47  1  0  0  0
 39 64  1  0  0  0
 39 67  2  0  0  0
 40 52  1  0  0  0
 40 53  2  0  0  0
 40 58  1  0  0  0
 41106  1  0  0  0
 41107  1  0  0  0
 41108  1  0  0  0
 41 48  1  0  0  0
 42 43  1  0  0  0
 42 66  1  0  0  0
 42109  1  0  0  0
 42110  1  0  0  0
 43 44  1  0  0  0
 44111  1  0  0  0
 45 46  2  0  0  0
 45112  1  0  0  0
 46113  1  0  0  0
 47114  1  0  0  0
 47115  1  0  0  0
 48 56  1  0  0  0
 48 65  1  0  0  0
 48116  1  0  0  0
 49 50  1  0  0  0
 49 53  1  0  0  0
 49 64  1  0  0  0
 49117  1  0  0  0
 50 51  1  0  0  0
 50118  1  0  0  0
 50119  1  0  0  0
 51 52  1  0  0  0
 51120  1  0  0  0
 51121  1  0  0  0
 52122  1  0  0  0
 52123  1  0  0  0
 53 54  1  0  0  0
 54 55  2  0  0  0
 54124  1  0  0  0
 55 57  1  0  0  0
 55125  1  0  0  0
 56 69  2  0  0  0
 57 58  2  0  0  0
 57126  1  0  0  0
 58127  1  0  0  0
 59 60  1  0  0  0
 59 61  1  0  0  0
 59 62  1  0  0  0
 60128  1  0  0  0
 60129  1  0  0  0
 60130  1  0  0  0
 61131  1  0  0  0
 61132  1  0  0  0
 61133  1  0  0  0
 62134  1  0  0  0
 62135  1  0  0  0
 62136  1  0  0  0
 63 65  1  0  0  0
 63137  1  0  0  0
 63138  1  0  0  0
 63139  1  0  0  0
 64140  1  0  0  0
 65141  1  0  0  0
 68 79  1  0  0  0
 71 80  2  0  0  0
 71 81  1  0  0  0
 71142  1  0  0  0
 72 73  2  0  0  0
 72 75  1  0  0  0
 72 80  1  0  0  0
 73 76  1  0  0  0
 73 81  1  0  0  0
 74 81  1  0  0  0
 74143  1  0  0  0
 74144  1  0  0  0
 74145  1  0  0  0
 75 79  1  0  0  0
 75146  1  0  0  0
 75147  1  0  0  0
 76 77  1  0  0  0
 76148  1  0  0  0
 76149  1  0  0  0
 77 78  1  0  0  0
 77150  1  0  0  0
 77151  1  0  0  0
 78 82  1  0  0  0
 78152  1  0  0  0
 78153  1  0  0  0
 79154  1  0  0  0
 79155  1  0  0  0
 82156  1  0  0  0
M  ISO  4   1 100  68 101  79 101  82 100
M  END
> <chiral flag>
0

> <version>
0

> <s_m_source_file>
/data/baiqing/PycharmProjects/Reinvent-master-3.2/result/LINK_invent/BTK/process_docking_weight1_custom_sum_contain_oxygen_bond_distance_aromatic_linkinvent_7_9_3/rearranged_h_0043.sdf

> <i_m_source_file_index>
96

> <r_mmod_Potential_Energy-OPLS-2005>
142.588760375977

> <r_mmod_Stretch_Energy-OPLS-2005>
125.378303527832

> <r_mmod_Bend_Energy-OPLS-2005>
187.193267822266

> <r_mmod_Torsional_Energy-OPLS-2005>
218.908493041992

> <r_mmod_Improper_Torsional_Energy-OPLS-2005>
5.32355880737305

> <r_mmod_Van_der_Waal_Energy-OPLS-2005>
126.316955566406

> <r_mmod_Electrostatic_Energy-OPLS-2005>
-362.495056152344

> <r_mmod_Solvation_Energy-OPLS-2005>
-230.412155151367

> <b_mmod_Minimization_Converged-OPLS-2005>
0

> <r_mmod_RMS_Derivative-OPLS-2005>
3.47900104522705

$$$$
