0
                    3D
 Structure written by MMmdl.
161169  0  0  1  0            999 V2000
  -30.6171  -14.8848   20.4344 C   0  0  0  0  0  0
  -30.4279  -12.5517   19.4905 C   0  0  0  0  0  0
  -29.5145  -12.5144   18.2469 C   0  0  0  0  0  0
  -28.0488  -12.3106   18.6714 C   0  0  0  0  0  0
  -27.6280  -13.2516   19.8313 C   0  0  2  0  0  0
  -28.6734  -13.2875   20.9673 C   0  0  0  0  0  0
  -25.2450  -13.8241   20.5729 C   0  0  0  0  0  0
  -24.1775  -13.0460   20.9256 C   0  0  0  0  0  0
  -24.6401  -11.6947   20.8765 C   0  0  0  0  0  0
  -23.9097  -10.4303   21.0411 C   0  0  0  0  0  0
  -24.3647   -9.4214   21.9185 C   0  0  0  0  0  0
  -23.6312   -8.2250   22.0748 C   0  0  0  0  0  0
  -22.4286   -8.0299   21.3545 C   0  0  0  0  0  0
  -21.9930   -9.0279   20.4648 C   0  0  0  0  0  0
  -22.7270  -10.2158   20.3052 C   0  0  0  0  0  0
  -21.6859   -6.0756   22.5280 C   0  0  0  0  0  0
  -21.4024   -6.5648   23.8228 C   0  0  0  0  0  0
  -21.3660   -5.6794   24.9172 C   0  0  0  0  0  0
  -21.6044   -4.3064   24.7216 C   0  0  0  0  0  0
  -21.8816   -3.8162   23.4336 C   0  0  0  0  0  0
  -21.9189   -4.6976   22.3396 C   0  0  0  0  0  0
  -22.7789  -13.5232   21.1891 C   0  0  0  0  0  0
  -22.1652   -4.2175   21.0968 F   0  0  0  0  0  0
  -21.5618   -3.4533   25.7723 F   0  0  0  0  0  0
  -29.9546  -13.6655   20.3597 N   0  0  0  0  0  0
  -26.2885  -12.9489   20.3238 N   0  0  0  0  0  0
  -25.9334  -11.6609   20.5733 N   0  0  0  0  0  0
  -22.0417  -12.8247   22.0450 N   0  0  0  0  0  0
  -25.4082  -15.1968   20.4138 N   0  0  0  0  0  0
  -31.8275  -14.8579   20.2036 O   0  0  0  0  0  0
  -21.6646   -6.8897   21.4247 O   0  0  0  0  0  0
  -22.3482  -14.5518   20.6698 O   0  0  0  0  0  0
  -24.6375  -31.8472   23.1903 C   0  0  0  0  0  0
  -25.9165  -32.4722   23.8273 C   0  0  1  0  0  0
  -27.2159  -27.1811   20.1548 C   0  0  0  0  0  0
  -25.5921  -33.8527   24.2176 N   0  0  0  0  0  0
  -23.4386  -30.4654   21.5368 C   0  0  2  0  0  0
  -24.8851  -28.8932   20.1159 C   0  0  0  0  0  0
  -22.7549  -29.4547   22.4903 C   0  0  0  0  0  0
  -18.0284  -28.1401   22.8474 C   0  0  0  0  0  0
  -24.1481  -36.7276   23.2638 C   0  0  0  0  0  0
  -25.9904  -30.7363   21.3799 C   0  0  0  0  0  0
  -26.0608  -29.3488   20.7276 C   0  0  0  0  0  0
  -27.2301  -28.5087   20.7262 C   0  0  0  0  0  0
  -26.0175  -26.8069   19.5137 C   0  0  0  0  0  0
  -24.8737  -27.6339   19.4937 C   0  0  0  0  0  0
  -23.6607  -29.7924   20.1565 C   0  0  0  0  0  0
  -25.4114  -36.3053   24.0312 C   0  0  1  0  0  0
  -20.5894  -28.3709   23.1264 C   0  0  2  0  0  0
  -20.6777  -26.9419   22.5419 C   0  0  0  0  0  0
  -19.5749  -26.6384   21.5225 C   0  0  0  0  0  0
  -18.1925  -26.7933   22.1628 C   0  0  0  0  0  0
  -19.1542  -28.8877   23.2854 C   0  0  0  0  0  0
  -18.9467  -30.1477   23.8867 C   0  0  0  0  0  0
  -17.6468  -30.6599   24.0561 C   0  0  0  0  0  0
  -25.9070  -34.9434   23.5062 C   0  0  0  0  0  0
  -16.5355  -29.9097   23.6341 C   0  0  0  0  0  0
  -16.7269  -28.6525   23.0340 C   0  0  0  0  0  0
  -26.4486  -31.6583   25.0718 C   0  0  0  0  0  0
  -25.3666  -31.3793   26.1420 C   0  0  0  0  0  0
  -27.0333  -30.2966   24.6290 C   0  0  0  0  0  0
  -27.6004  -32.4353   25.7508 C   0  0  0  0  0  0
  -27.5572  -37.1793   24.8458 C   0  0  0  0  0  0
  -21.4246  -29.3036   22.3664 N   0  0  0  0  0  0
  -26.4275  -37.3769   23.9415 N   0  0  0  0  0  0
  -24.7086  -31.0373   22.0913 N   0  0  0  0  0  0
  -23.4220  -28.8102   23.3033 O   0  0  0  0  0  0
  -28.3043  -26.2556   20.1680 O   0  0  0  0  0  0
  -26.5688  -34.8934   22.4654 O   0  0  0  0  0  0
  -23.5509  -32.1307   23.7173 O   0  0  0  0  0  0
  -28.9251  -21.3526   21.3256 C   0  0  0  0  0  0
  -29.6361  -19.7289   19.2581 C   0  0  0  0  0  0
  -29.2528  -19.9545   21.5649 C   0  0  0  0  0  0
  -29.6597  -19.0473   20.5157 C   0  0  0  0  0  0
  -28.9895  -21.9530   20.0337 C   0  0  0  0  0  0
  -29.2478  -19.4791   23.0067 C   0  0  0  0  0  0
  -31.8501  -17.8100   20.1529 C   0  0  0  0  0  0
  -28.2999  -23.6540   18.2256 C   0  0  0  0  0  0
  -30.3825  -24.0505   19.5641 C   0  0  0  0  0  0
  -28.1302  -24.7523   20.4789 C   0  0  0  0  0  0
  -30.4422  -17.6071   20.7547 C   0  0  2  0  0  0
  -28.9223  -23.5605   19.6372 C   0  0  0  0  0  0
  -29.3481  -21.0675   19.0431 N   0  0  0  0  0  0
  -29.9283  -16.1233   20.5601 N   0  0  0  0  0  0
  -31.4665  -12.6766   19.1792 H   0  0  0  0  0  0
  -30.3917  -11.6038   20.0297 H   0  0  0  0  0  0
  -29.8279  -11.7191   17.5684 H   0  0  0  0  0  0
  -29.6126  -13.4472   17.6905 H   0  0  0  0  0  0
  -27.9452  -11.2726   18.9902 H   0  0  0  0  0  0
  -27.3852  -12.4331   17.8150 H   0  0  0  0  0  0
  -27.5893  -14.2511   19.3956 H   0  0  0  0  0  0
  -28.7464  -12.3210   21.4681 H   0  0  0  0  0  0
  -28.3876  -14.0156   21.7289 H   0  0  0  0  0  0
  -25.2790   -9.5700   22.4770 H   0  0  0  0  0  0
  -24.0022   -7.4642   22.7482 H   0  0  0  0  0  0
  -21.0851   -8.8825   19.8953 H   0  0  0  0  0  0
  -22.3735  -10.9706   19.6167 H   0  0  0  0  0  0
  -21.2030   -7.6154   23.9749 H   0  0  0  0  0  0
  -21.1476   -6.0506   25.9087 H   0  0  0  0  0  0
  -22.0590   -2.7620   23.2824 H   0  0  0  0  0  0
  -22.4021  -11.9930   22.4886 H   0  0  0  0  0  0
  -21.1017  -13.1291   22.2575 H   0  0  0  0  0  0
  -24.6416  -15.8498   20.5390 H   0  0  0  0  0  0
  -26.2554  -15.6443   20.0905 H   0  0  0  0  0  0
  -26.7256  -32.5336   23.1031 H   0  0  0  0  0  0
  -25.0001  -33.9643   25.0278 H   0  0  0  0  0  0
  -22.7346  -31.2864   21.3858 H   0  0  0  0  0  0
  -23.3754  -35.9594   23.3276 H   0  0  0  0  0  0
  -24.3557  -36.8941   22.2058 H   0  0  0  0  0  0
  -23.7234  -37.6462   23.6693 H   0  0  0  0  0  0
  -26.1363  -31.4892   20.6041 H   0  0  0  0  0  0
  -26.8648  -30.7875   22.0179 H   0  0  0  0  0  0
  -28.1331  -28.8549   21.2092 H   0  0  0  0  0  0
  -25.9538  -25.8441   19.0283 H   0  0  0  0  0  0
  -23.9786  -27.2784   19.0012 H   0  0  0  0  0  0
  -23.7930  -30.5641   19.3973 H   0  0  0  0  0  0
  -22.7742  -29.2335   19.8511 H   0  0  0  0  0  0
  -25.1302  -36.1869   25.0803 H   0  0  0  0  0  0
  -20.9960  -28.3298   24.1390 H   0  0  0  0  0  0
  -20.5686  -26.2313   23.3629 H   0  0  0  0  0  0
  -21.6643  -26.7449   22.1202 H   0  0  0  0  0  0
  -19.6911  -25.6293   21.1255 H   0  0  0  0  0  0
  -19.6688  -27.3197   20.6759 H   0  0  0  0  0  0
  -17.4195  -26.6662   21.4034 H   0  0  0  0  0  0
  -18.0326  -26.0089   22.9040 H   0  0  0  0  0  0
  -19.7951  -30.7300   24.2205 H   0  0  0  0  0  0
  -17.5029  -31.6270   24.5189 H   0  0  0  0  0  0
  -15.5354  -30.2997   23.7697 H   0  0  0  0  0  0
  -15.8656  -28.0863   22.7038 H   0  0  0  0  0  0
  -24.5819  -30.7165   25.7758 H   0  0  0  0  0  0
  -24.8888  -32.2997   26.4793 H   0  0  0  0  0  0
  -25.7949  -30.8998   27.0235 H   0  0  0  0  0  0
  -26.2949  -29.6719   24.1259 H   0  0  0  0  0  0
  -27.3882  -29.7236   25.4871 H   0  0  0  0  0  0
  -27.8881  -30.4174   23.9631 H   0  0  0  0  0  0
  -27.2562  -33.3649   26.2050 H   0  0  0  0  0  0
  -28.3842  -32.6933   25.0375 H   0  0  0  0  0  0
  -28.0640  -31.8510   26.5469 H   0  0  0  0  0  0
  -28.2582  -38.0100   24.7526 H   0  0  0  0  0  0
  -28.1075  -36.2636   24.6246 H   0  0  0  0  0  0
  -27.2297  -37.1412   25.8862 H   0  0  0  0  0  0
  -20.9452  -29.8731   21.6837 H   0  0  0  0  0  0
  -26.0139  -38.2828   24.1441 H   0  0  0  0  0  0
  -28.6910  -21.9935   22.1660 H   0  0  0  0  0  0
  -29.9727  -19.2014   18.3776 H   0  0  0  0  0  0
  -28.6140  -20.1145   23.6264 H   0  0  0  0  0  0
  -30.2576  -19.5105   23.4175 H   0  0  0  0  0  0
  -28.8707  -18.4590   23.0834 H   0  0  0  0  0  0
  -32.2386  -18.8015   20.3907 H   0  0  0  0  0  0
  -31.8432  -17.7170   19.0667 H   0  0  0  0  0  0
  -32.5881  -17.1185   20.5553 H   0  0  0  0  0  0
  -28.9015  -23.1367   17.4781 H   0  0  0  0  0  0
  -28.2110  -24.6893   17.8963 H   0  0  0  0  0  0
  -27.3026  -23.2131   18.2013 H   0  0  0  0  0  0
  -30.9983  -23.4005   18.9425 H   0  0  0  0  0  0
  -30.8331  -24.0836   20.5559 H   0  0  0  0  0  0
  -30.4464  -25.0550   19.1440 H   0  0  0  0  0  0
  -28.4402  -24.6500   21.5185 H   0  0  0  0  0  0
  -27.0691  -24.5079   20.4996 H   0  0  0  0  0  0
  -30.6313  -17.6010   21.8271 H   0  0  0  0  0  0
  -28.9273  -16.0185   20.6355 H   0  0  0  0  0  0
  1 25  1  0  0  0
  1 30  2  0  0  0
  1 84  1  0  0  0
  2  3  1  0  0  0
  2 25  1  0  0  0
  2 85  1  0  0  0
  2 86  1  0  0  0
  3  4  1  0  0  0
  3 87  1  0  0  0
  3 88  1  0  0  0
  4  5  1  0  0  0
  4 89  1  0  0  0
  4 90  1  0  0  0
  5  6  1  0  0  0
  5 26  1  0  0  0
  5 91  1  0  0  0
  6 25  1  0  0  0
  6 92  1  0  0  0
  6 93  1  0  0  0
  7  8  2  0  0  0
  7 26  1  0  0  0
  7 29  1  0  0  0
  8  9  1  0  0  0
  8 22  1  0  0  0
  9 10  1  0  0  0
  9 27  2  0  0  0
 10 11  2  0  0  0
 10 15  1  0  0  0
 11 12  1  0  0  0
 11 94  1  0  0  0
 12 13  2  0  0  0
 12 95  1  0  0  0
 13 14  1  0  0  0
 13 31  1  0  0  0
 14 15  2  0  0  0
 14 96  1  0  0  0
 15 97  1  0  0  0
 16 17  2  0  0  0
 16 21  1  0  0  0
 16 31  1  0  0  0
 17 18  1  0  0  0
 17 98  1  0  0  0
 18 19  2  0  0  0
 18 99  1  0  0  0
 19 20  1  0  0  0
 19 24  1  0  0  0
 20 21  2  0  0  0
 20100  1  0  0  0
 21 23  1  0  0  0
 22 28  1  0  0  0
 22 32  2  0  0  0
 26 27  1  0  0  0
 28101  1  0  0  0
 28102  1  0  0  0
 29103  1  0  0  0
 29104  1  0  0  0
 33 34  1  0  0  0
 33 66  1  0  0  0
 33 70  2  0  0  0
 34 36  1  0  0  0
 34 59  1  0  0  0
 34105  1  0  0  0
 35 44  2  0  0  0
 35 45  1  0  0  0
 35 68  1  0  0  0
 36 56  1  0  0  0
 36106  1  0  0  0
 37 39  1  0  0  0
 37 47  1  0  0  0
 37 66  1  0  0  0
 37107  1  0  0  0
 38 43  2  0  0  0
 38 46  1  0  0  0
 38 47  1  0  0  0
 39 64  1  0  0  0
 39 67  2  0  0  0
 40 52  1  0  0  0
 40 53  2  0  0  0
 40 58  1  0  0  0
 41108  1  0  0  0
 41109  1  0  0  0
 41110  1  0  0  0
 41 48  1  0  0  0
 42 43  1  0  0  0
 42 66  1  0  0  0
 42111  1  0  0  0
 42112  1  0  0  0
 43 44  1  0  0  0
 44113  1  0  0  0
 45 46  2  0  0  0
 45114  1  0  0  0
 46115  1  0  0  0
 47116  1  0  0  0
 47117  1  0  0  0
 48 56  1  0  0  0
 48 65  1  0  0  0
 48118  1  0  0  0
 49 50  1  0  0  0
 49 53  1  0  0  0
 49 64  1  0  0  0
 49119  1  0  0  0
 50 51  1  0  0  0
 50120  1  0  0  0
 50121  1  0  0  0
 51 52  1  0  0  0
 51122  1  0  0  0
 51123  1  0  0  0
 52124  1  0  0  0
 52125  1  0  0  0
 53 54  1  0  0  0
 54 55  2  0  0  0
 54126  1  0  0  0
 55 57  1  0  0  0
 55127  1  0  0  0
 56 69  2  0  0  0
 57 58  2  0  0  0
 57128  1  0  0  0
 58129  1  0  0  0
 59 60  1  0  0  0
 59 61  1  0  0  0
 59 62  1  0  0  0
 60130  1  0  0  0
 60131  1  0  0  0
 60132  1  0  0  0
 61133  1  0  0  0
 61134  1  0  0  0
 61135  1  0  0  0
 62136  1  0  0  0
 62137  1  0  0  0
 62138  1  0  0  0
 63 65  1  0  0  0
 63139  1  0  0  0
 63140  1  0  0  0
 63141  1  0  0  0
 64142  1  0  0  0
 65143  1  0  0  0
 68 80  1  0  0  0
 71 73  2  0  0  0
 71 75  1  0  0  0
 71144  1  0  0  0
 72 74  2  0  0  0
 72 83  1  0  0  0
 72145  1  0  0  0
 73 74  1  0  0  0
 73 76  1  0  0  0
 74 81  1  0  0  0
 75 82  1  0  0  0
 75 83  2  0  0  0
 76146  1  0  0  0
 76147  1  0  0  0
 76148  1  0  0  0
 77149  1  0  0  0
 77150  1  0  0  0
 77151  1  0  0  0
 77 81  1  0  0  0
 78152  1  0  0  0
 78153  1  0  0  0
 78154  1  0  0  0
 78 82  1  0  0  0
 79 82  1  0  0  0
 79155  1  0  0  0
 79156  1  0  0  0
 79157  1  0  0  0
 80 82  1  0  0  0
 80158  1  0  0  0
 80159  1  0  0  0
 81 84  1  0  0  0
 81160  1  0  0  0
 84161  1  0  0  0
M  ISO  4   1 100  68 101  80 101  84 100
M  END
> <chiral flag>
0

> <version>
0

> <s_m_source_file>
/data/baiqing/PycharmProjects/Reinvent-master-3.2/result/LINK_invent/BTK/process_docking_weight1_custom_sum_contain_oxygen_bond_distance_aromatic_linkinvent_7_9_3/rearranged_h_0115.sdf

> <i_m_source_file_index>
1

> <r_mmod_Potential_Energy-OPLS-2005>
322.720001220703

> <r_mmod_Stretch_Energy-OPLS-2005>
216.195770263672

> <r_mmod_Bend_Energy-OPLS-2005>
262.784606933594

> <r_mmod_Torsional_Energy-OPLS-2005>
231.340133666992

> <r_mmod_Improper_Torsional_Energy-OPLS-2005>
8.62724113464355

> <r_mmod_Van_der_Waal_Energy-OPLS-2005>
141.614318847656

> <r_mmod_Electrostatic_Energy-OPLS-2005>
-476.193328857422

> <r_mmod_Solvation_Energy-OPLS-2005>
-211.150909423828

> <b_mmod_Minimization_Converged-OPLS-2005>
0

> <r_mmod_RMS_Derivative-OPLS-2005>
2.47179985046387

$$$$
1
                    3D
 Structure written by MMmdl.
176184  0  0  1  0            999 V2000
  -30.6808  -14.5763   20.5158 C   0  0  0  0  0  0
  -30.4221  -12.3613   19.4381 C   0  0  0  0  0  0
  -29.4948  -12.4965   18.2129 C   0  0  0  0  0  0
  -28.0192  -12.3468   18.6302 C   0  0  0  0  0  0
  -27.6505  -13.2182   19.8606 C   0  0  2  0  0  0
  -28.6975  -13.0749   20.9880 C   0  0  0  0  0  0
  -25.2535  -13.8153   20.5727 C   0  0  0  0  0  0
  -24.1818  -13.0415   20.9242 C   0  0  0  0  0  0
  -24.6397  -11.6895   20.8765 C   0  0  0  0  0  0
  -23.9068  -10.4277   21.0414 C   0  0  0  0  0  0
  -24.3619   -9.4193   21.9188 C   0  0  0  0  0  0
  -23.6294   -8.2232   22.0757 C   0  0  0  0  0  0
  -22.4278   -8.0277   21.3544 C   0  0  0  0  0  0
  -21.9911   -9.0250   20.4647 C   0  0  0  0  0  0
  -22.7242  -10.2126   20.3058 C   0  0  0  0  0  0
  -21.6850   -6.0735   22.5277 C   0  0  0  0  0  0
  -21.4013   -6.5638   23.8210 C   0  0  0  0  0  0
  -21.3655   -5.6793   24.9173 C   0  0  0  0  0  0
  -21.6043   -4.3056   24.7224 C   0  0  0  0  0  0
  -21.8820   -3.8146   23.4347 C   0  0  0  0  0  0
  -21.9195   -4.6963   22.3401 C   0  0  0  0  0  0
  -22.7841  -13.5213   21.1886 C   0  0  0  0  0  0
  -22.1665   -4.2148   21.0980 F   0  0  0  0  0  0
  -21.5626   -3.4539   25.7737 F   0  0  0  0  0  0
  -30.0161  -13.3868   20.4167 N   0  0  0  0  0  0
  -26.2968  -12.9358   20.3315 N   0  0  0  0  0  0
  -25.9320  -11.6508   20.5756 N   0  0  0  0  0  0
  -22.0470  -12.8201   22.0428 N   0  0  0  0  0  0
  -25.4191  -15.1865   20.4130 N   0  0  0  0  0  0
  -31.8402  -14.7080   20.1188 O   0  0  0  0  0  0
  -21.6638   -6.8879   21.4240 O   0  0  0  0  0  0
  -22.3543  -14.5526   20.6732 O   0  0  0  0  0  0
  -24.6199  -31.8648   23.2039 C   0  0  0  0  0  0
  -25.9070  -32.4809   23.8350 C   0  0  1  0  0  0
  -27.2336  -27.3671   20.0899 C   0  0  0  0  0  0
  -25.5905  -33.8606   24.2274 N   0  0  0  0  0  0
  -23.4128  -30.4861   21.5475 C   0  0  2  0  0  0
  -24.8584  -28.9465   20.1094 C   0  0  0  0  0  0
  -22.7448  -29.4641   22.4960 C   0  0  0  0  0  0
  -18.0279  -28.1396   22.8479 C   0  0  0  0  0  0
  -24.1500  -36.7300   23.2635 C   0  0  0  0  0  0
  -25.9495  -30.8021   21.3752 C   0  0  0  0  0  0
  -26.0207  -29.4325   20.7180 C   0  0  0  0  0  0
  -27.2045  -28.6476   20.7128 C   0  0  0  0  0  0
  -26.0508  -26.9285   19.4507 C   0  0  0  0  0  0
  -24.8708  -27.6955   19.4722 C   0  0  0  0  0  0
  -23.6244  -29.8199   20.1621 C   0  0  0  0  0  0
  -25.4129  -36.3101   24.0322 C   0  0  1  0  0  0
  -20.5875  -28.3694   23.1292 C   0  0  2  0  0  0
  -20.6782  -26.9425   22.5412 C   0  0  0  0  0  0
  -19.5759  -26.6392   21.5215 C   0  0  0  0  0  0
  -18.1933  -26.7935   22.1621 C   0  0  0  0  0  0
  -19.1532  -28.8859   23.2881 C   0  0  0  0  0  0
  -18.9468  -30.1466   23.8894 C   0  0  0  0  0  0
  -17.6468  -30.6596   24.0575 C   0  0  0  0  0  0
  -25.9058  -34.9474   23.5098 C   0  0  0  0  0  0
  -16.5355  -29.9105   23.6329 C   0  0  0  0  0  0
  -16.7269  -28.6530   23.0331 C   0  0  0  0  0  0
  -26.4457  -31.6629   25.0722 C   0  0  0  0  0  0
  -25.3678  -31.3786   26.1442 C   0  0  0  0  0  0
  -27.0319  -30.3057   24.6187 C   0  0  0  0  0  0
  -27.6010  -32.4379   25.7496 C   0  0  0  0  0  0
  -27.5600  -37.1807   24.8455 C   0  0  0  0  0  0
  -21.4169  -29.3054   22.3701 N   0  0  0  0  0  0
  -26.4315  -37.3792   23.9397 N   0  0  0  0  0  0
  -24.6789  -31.0677   22.0986 N   0  0  0  0  0  0
  -23.4190  -28.8183   23.3026 O   0  0  0  0  0  0
  -28.3885  -26.5845   20.1556 O   0  0  0  0  0  0
  -26.5640  -34.8925   22.4673 O   0  0  0  0  0  0
  -23.5374  -32.1447   23.7382 O   0  0  0  0  0  0
  -27.2930  -22.5745   22.4419 C   0  0  0  0  0  0
  -28.7008  -23.1052   22.4622 C   0  0  0  0  0  0
  -30.0501  -22.0502   20.6174 C   0  0  0  0  0  0
  -26.7264  -23.9106   20.6113 C   0  0  0  0  0  0
  -29.2711  -23.3456   21.0603 C   0  0  1  0  0  0
  -28.1891  -23.9303   20.0618 C   0  0  2  0  0  0
  -31.5450  -22.4608   18.5975 C   0  0  0  0  0  0
  -26.1506  -19.1747   19.7747 C   0  0  0  0  0  0
  -27.4532  -17.5553   18.3198 C   0  0  0  0  0  0
  -31.4627  -22.3830   20.1287 C   0  0  0  0  0  0
  -28.5316  -25.3361   19.4088 C   0  0  0  0  0  0
  -30.5074  -19.6513   20.5537 C   0  0  0  0  0  0
  -30.4788  -17.0526   21.1217 C   0  0  0  0  0  0
  -27.5502  -18.7043   19.3451 C   0  0  0  0  0  0
  -29.8237  -18.2438   20.3097 C   0  0  1  0  0  0
  -26.4233  -22.8248   21.5418 N   0  0  0  0  0  0
  -29.5984  -20.8292   20.7121 N   0  0  0  0  0  0
  -29.9596  -15.6591   20.9166 N   0  0  0  0  0  0
  -28.3664  -18.3460   20.5351 N   0  3  0  0  0  0
  -29.3675  -23.2801   23.4889 O   0  0  0  0  0  0
  -31.4649  -12.4629   19.1332 H   0  0  0  0  0  0
  -30.3357  -11.3668   19.8782 H   0  0  0  0  0  0
  -29.7465  -11.7433   17.4652 H   0  0  0  0  0  0
  -29.6474  -13.4651   17.7346 H   0  0  0  0  0  0
  -27.8501  -11.2946   18.8618 H   0  0  0  0  0  0
  -27.3625  -12.5805   17.7911 H   0  0  0  0  0  0
  -27.6699  -14.2534   19.5208 H   0  0  0  0  0  0
  -28.6948  -12.0597   21.3868 H   0  0  0  0  0  0
  -28.4541  -13.7259   21.8284 H   0  0  0  0  0  0
  -25.2764   -9.5666   22.4764 H   0  0  0  0  0  0
  -23.9999   -7.4622   22.7479 H   0  0  0  0  0  0
  -21.0840   -8.8775   19.8953 H   0  0  0  0  0  0
  -22.3706  -10.9672   19.6170 H   0  0  0  0  0  0
  -21.2007   -7.6147   23.9712 H   0  0  0  0  0  0
  -21.1473   -6.0523   25.9074 H   0  0  0  0  0  0
  -22.0604   -2.7609   23.2847 H   0  0  0  0  0  0
  -22.4077  -11.9850   22.4800 H   0  0  0  0  0  0
  -21.1090  -13.1230   22.2637 H   0  0  0  0  0  0
  -24.6136  -15.8016   20.4525 H   0  0  0  0  0  0
  -26.1945  -15.5768   19.8996 H   0  0  0  0  0  0
  -26.7139  -32.5483   23.1109 H   0  0  0  0  0  0
  -25.0009  -33.9757   25.0386 H   0  0  0  0  0  0
  -22.7053  -31.3061   21.4057 H   0  0  0  0  0  0
  -23.3770  -35.9625   23.3289 H   0  0  0  0  0  0
  -24.3577  -36.8928   22.2046 H   0  0  0  0  0  0
  -23.7247  -37.6493   23.6669 H   0  0  0  0  0  0
  -26.0830  -31.5686   20.6105 H   0  0  0  0  0  0
  -26.8289  -30.8452   22.0063 H   0  0  0  0  0  0
  -28.0971  -29.0135   21.2014 H   0  0  0  0  0  0
  -26.0012  -25.9806   18.9395 H   0  0  0  0  0  0
  -23.9793  -27.3199   18.9880 H   0  0  0  0  0  0
  -23.7371  -30.5964   19.4043 H   0  0  0  0  0  0
  -22.7474  -29.2431   19.8643 H   0  0  0  0  0  0
  -25.1320  -36.1965   25.0820 H   0  0  0  0  0  0
  -20.9961  -28.3288   24.1414 H   0  0  0  0  0  0
  -20.5727  -26.2308   23.3613 H   0  0  0  0  0  0
  -21.6652  -26.7502   22.1187 H   0  0  0  0  0  0
  -19.6927  -25.6308   21.1245 H   0  0  0  0  0  0
  -19.6689  -27.3206   20.6748 H   0  0  0  0  0  0
  -17.4209  -26.6674   21.4018 H   0  0  0  0  0  0
  -18.0326  -26.0090   22.9033 H   0  0  0  0  0  0
  -19.7954  -30.7276   24.2262 H   0  0  0  0  0  0
  -17.5035  -31.6271   24.5201 H   0  0  0  0  0  0
  -15.5364  -30.3011   23.7664 H   0  0  0  0  0  0
  -15.8667  -28.0873   22.7013 H   0  0  0  0  0  0
  -24.5802  -30.7214   25.7743 H   0  0  0  0  0  0
  -24.8925  -32.2977   26.4883 H   0  0  0  0  0  0
  -25.7945  -30.8918   27.0220 H   0  0  0  0  0  0
  -26.2928  -29.6796   24.1178 H   0  0  0  0  0  0
  -27.3990  -29.7319   25.4705 H   0  0  0  0  0  0
  -27.8788  -30.4336   23.9439 H   0  0  0  0  0  0
  -27.2590  -33.3658   26.2093 H   0  0  0  0  0  0
  -28.3788  -32.6988   25.0310 H   0  0  0  0  0  0
  -28.0714  -31.8513   26.5401 H   0  0  0  0  0  0
  -28.2604  -38.0121   24.7553 H   0  0  0  0  0  0
  -28.1118  -36.2661   24.6246 H   0  0  0  0  0  0
  -27.2309  -37.1392   25.8852 H   0  0  0  0  0  0
  -20.9356  -29.8765   21.6889 H   0  0  0  0  0  0
  -26.0202  -38.2872   24.1399 H   0  0  0  0  0  0
  -27.0330  -21.8986   23.2600 H   0  0  0  0  0  0
  -26.0268  -23.8713   19.7743 H   0  0  0  0  0  0
  -26.5180  -24.8513   21.1225 H   0  0  0  0  0  0
  -29.9993  -24.1411   21.2080 H   0  0  0  0  0  0
  -28.1850  -23.2289   19.2248 H   0  0  0  0  0  0
  -32.5709  -22.6459   18.2787 H   0  0  0  0  0  0
  -30.9313  -23.2748   18.2096 H   0  0  0  0  0  0
  -31.2126  -21.5384   18.1217 H   0  0  0  0  0  0
  -25.5679  -19.4994   18.9119 H   0  0  0  0  0  0
  -26.2085  -20.0226   20.4581 H   0  0  0  0  0  0
  -25.5904  -18.3809   20.2698 H   0  0  0  0  0  0
  -26.8058  -17.8359   17.4887 H   0  0  0  0  0  0
  -27.0420  -16.6489   18.7572 H   0  0  0  0  0  0
  -28.4192  -17.3021   17.8847 H   0  0  0  0  0  0
  -32.1827  -21.6622   20.5139 H   0  0  0  0  0  0
  -31.7950  -23.3327   20.5467 H   0  0  0  0  0  0
  -28.0156  -25.4217   18.4532 H   0  0  0  0  0  0
  -29.5806  -25.3018   19.1136 H   0  0  0  0  0  0
  -31.2240  -19.7965   19.7441 H   0  0  0  0  0  0
  -31.1149  -19.5747   21.4580 H   0  0  0  0  0  0
  -30.3900  -17.2675   22.1873 H   0  0  0  0  0  0
  -31.5522  -17.0721   20.9268 H   0  0  0  0  0  0
  -28.0292  -19.5516   18.8505 H   0  0  0  0  0  0
  -29.9893  -18.0039   19.2599 H   0  0  0  0  0  0
  -29.0178  -15.4534   21.2127 H   0  0  0  0  0  0
  -28.0173  -17.5173   20.9833 H   0  0  0  0  0  0
  -28.2896  -19.1178   21.1831 H   0  0  0  0  0  0
  1 25  1  0  0  0
  1 30  2  0  0  0
  1 88  1  0  0  0
  2  3  1  0  0  0
  2 25  1  0  0  0
  2 91  1  0  0  0
  2 92  1  0  0  0
  3  4  1  0  0  0
  3 93  1  0  0  0
  3 94  1  0  0  0
  4  5  1  0  0  0
  4 95  1  0  0  0
  4 96  1  0  0  0
  5  6  1  0  0  0
  5 26  1  0  0  0
  5 97  1  0  0  0
  6 25  1  0  0  0
  6 98  1  0  0  0
  6 99  1  0  0  0
  7  8  2  0  0  0
  7 26  1  0  0  0
  7 29  1  0  0  0
  8  9  1  0  0  0
  8 22  1  0  0  0
  9 10  1  0  0  0
  9 27  2  0  0  0
 10 11  2  0  0  0
 10 15  1  0  0  0
 11 12  1  0  0  0
 11100  1  0  0  0
 12 13  2  0  0  0
 12101  1  0  0  0
 13 14  1  0  0  0
 13 31  1  0  0  0
 14 15  2  0  0  0
 14102  1  0  0  0
 15103  1  0  0  0
 16 17  2  0  0  0
 16 21  1  0  0  0
 16 31  1  0  0  0
 17 18  1  0  0  0
 17104  1  0  0  0
 18 19  2  0  0  0
 18105  1  0  0  0
 19 20  1  0  0  0
 19 24  1  0  0  0
 20 21  2  0  0  0
 20106  1  0  0  0
 21 23  1  0  0  0
 22 28  1  0  0  0
 22 32  2  0  0  0
 26 27  1  0  0  0
 28107  1  0  0  0
 28108  1  0  0  0
 29109  1  0  0  0
 29110  1  0  0  0
 33 34  1  0  0  0
 33 66  1  0  0  0
 33 70  2  0  0  0
 34 36  1  0  0  0
 34 59  1  0  0  0
 34111  1  0  0  0
 35 44  2  0  0  0
 35 45  1  0  0  0
 35 68  1  0  0  0
 36 56  1  0  0  0
 36112  1  0  0  0
 37 39  1  0  0  0
 37 47  1  0  0  0
 37 66  1  0  0  0
 37113  1  0  0  0
 38 43  2  0  0  0
 38 46  1  0  0  0
 38 47  1  0  0  0
 39 64  1  0  0  0
 39 67  2  0  0  0
 40 52  1  0  0  0
 40 53  2  0  0  0
 40 58  1  0  0  0
 41114  1  0  0  0
 41115  1  0  0  0
 41116  1  0  0  0
 41 48  1  0  0  0
 42 43  1  0  0  0
 42 66  1  0  0  0
 42117  1  0  0  0
 42118  1  0  0  0
 43 44  1  0  0  0
 44119  1  0  0  0
 45 46  2  0  0  0
 45120  1  0  0  0
 46121  1  0  0  0
 47122  1  0  0  0
 47123  1  0  0  0
 48 56  1  0  0  0
 48 65  1  0  0  0
 48124  1  0  0  0
 49 50  1  0  0  0
 49 53  1  0  0  0
 49 64  1  0  0  0
 49125  1  0  0  0
 50 51  1  0  0  0
 50126  1  0  0  0
 50127  1  0  0  0
 51 52  1  0  0  0
 51128  1  0  0  0
 51129  1  0  0  0
 52130  1  0  0  0
 52131  1  0  0  0
 53 54  1  0  0  0
 54 55  2  0  0  0
 54132  1  0  0  0
 55 57  1  0  0  0
 55133  1  0  0  0
 56 69  2  0  0  0
 57 58  2  0  0  0
 57134  1  0  0  0
 58135  1  0  0  0
 59 60  1  0  0  0
 59 61  1  0  0  0
 59 62  1  0  0  0
 60136  1  0  0  0
 60137  1  0  0  0
 60138  1  0  0  0
 61139  1  0  0  0
 61140  1  0  0  0
 61141  1  0  0  0
 62142  1  0  0  0
 62143  1  0  0  0
 62144  1  0  0  0
 63 65  1  0  0  0
 63145  1  0  0  0
 63146  1  0  0  0
 63147  1  0  0  0
 64148  1  0  0  0
 65149  1  0  0  0
 68 81  1  0  0  0
 71 72  1  0  0  0
 71 86  2  0  0  0
 71150  1  0  0  0
 72 75  1  0  0  0
 72 90  2  0  0  0
 73 80  1  0  0  0
 73 87  2  0  0  0
 73 75  1  0  0  0
 74 76  1  0  0  0
 74 86  1  0  0  0
 74151  1  0  0  0
 74152  1  0  0  0
 75 76  1  0  0  0
 75153  1  0  0  0
 76 81  1  0  0  0
 76154  1  0  0  0
 77 80  1  0  0  0
 77155  1  0  0  0
 77156  1  0  0  0
 77157  1  0  0  0
 78158  1  0  0  0
 78159  1  0  0  0
 78160  1  0  0  0
 78 84  1  0  0  0
 79 84  1  0  0  0
 79161  1  0  0  0
 79162  1  0  0  0
 79163  1  0  0  0
 80164  1  0  0  0
 80165  1  0  0  0
 81166  1  0  0  0
 81167  1  0  0  0
 82 87  1  0  0  0
 82168  1  0  0  0
 82169  1  0  0  0
 82 85  1  0  0  0
 83 85  1  0  0  0
 83 88  1  0  0  0
 83170  1  0  0  0
 83171  1  0  0  0
 84 89  1  0  0  0
 84172  1  0  0  0
 85 89  1  0  0  0
 85173  1  0  0  0
 88174  1  0  0  0
 89175  1  0  0  0
 89176  1  0  0  0
M  CHG  1  89   1
M  ISO  4   1 100  68 101  81 101  88 100
M  END
> <chiral flag>
0

> <version>
0

> <s_m_source_file>
/data/baiqing/PycharmProjects/Reinvent-master-3.2/result/LINK_invent/BTK/process_docking_weight1_custom_sum_contain_oxygen_bond_distance_aromatic_linkinvent_7_9_3/rearranged_h_0115.sdf

> <i_m_source_file_index>
2

> <r_mmod_Potential_Energy-OPLS-2005>
-90.7724227905273

> <r_mmod_Stretch_Energy-OPLS-2005>
74.9092254638672

> <r_mmod_Bend_Energy-OPLS-2005>
155.371322631836

> <r_mmod_Torsional_Energy-OPLS-2005>
298.226654052734

> <r_mmod_Improper_Torsional_Energy-OPLS-2005>
5.7772650718689

> <r_mmod_Van_der_Waal_Energy-OPLS-2005>
142.969635009766

> <r_mmod_Electrostatic_Energy-OPLS-2005>
-336.888641357422

> <r_mmod_Solvation_Energy-OPLS-2005>
-462.790283203125

> <b_mmod_Minimization_Converged-OPLS-2005>
0

> <r_mmod_RMS_Derivative-OPLS-2005>
1.46947360038757

$$$$
2
                    3D
 Structure written by MMmdl.
164172  0  0  1  0            999 V2000
  -30.6453  -14.5240   20.5328 C   0  0  0  0  0  0
  -30.4273  -12.3352   19.4014 C   0  0  0  0  0  0
  -29.4859  -12.5116   18.1920 C   0  0  0  0  0  0
  -28.0132  -12.3465   18.6129 C   0  0  0  0  0  0
  -27.6563  -13.1946   19.8614 C   0  0  2  0  0  0
  -28.7023  -12.9914   20.9788 C   0  0  0  0  0  0
  -25.2577  -13.8153   20.5708 C   0  0  0  0  0  0
  -24.1810  -13.0467   20.9240 C   0  0  0  0  0  0
  -24.6338  -11.6930   20.8749 C   0  0  0  0  0  0
  -23.9012  -10.4316   21.0432 C   0  0  0  0  0  0
  -24.3570   -9.4238   21.9202 C   0  0  0  0  0  0
  -23.6300   -8.2249   22.0728 C   0  0  0  0  0  0
  -22.4278   -8.0299   21.3536 C   0  0  0  0  0  0
  -21.9903   -9.0268   20.4636 C   0  0  0  0  0  0
  -22.7197  -10.2172   20.3076 C   0  0  0  0  0  0
  -21.6846   -6.0750   22.5294 C   0  0  0  0  0  0
  -21.3993   -6.5644   23.8228 C   0  0  0  0  0  0
  -21.3668   -5.6783   24.9192 C   0  0  0  0  0  0
  -21.6046   -4.3040   24.7229 C   0  0  0  0  0  0
  -21.8817   -3.8150   23.4339 C   0  0  0  0  0  0
  -21.9189   -4.6982   22.3405 C   0  0  0  0  0  0
  -22.7834  -13.5314   21.1909 C   0  0  0  0  0  0
  -22.1668   -4.2178   21.0980 F   0  0  0  0  0  0
  -21.5647   -3.4519   25.7737 F   0  0  0  0  0  0
  -30.0229  -13.3159   20.4182 N   0  0  0  0  0  0
  -26.2983  -12.9294   20.3319 N   0  0  0  0  0  0
  -25.9252  -11.6482   20.5717 N   0  0  0  0  0  0
  -22.0399  -12.8342   22.0437 N   0  0  0  0  0  0
  -25.4272  -15.1881   20.4119 N   0  0  0  0  0  0
  -31.8068  -14.7203   20.1679 O   0  0  0  0  0  0
  -21.6630   -6.8905   21.4265 O   0  0  0  0  0  0
  -22.3551  -14.5641   20.6775 O   0  0  0  0  0  0
  -24.6236  -31.8665   23.2056 C   0  0  0  0  0  0
  -25.9105  -32.4824   23.8383 C   0  0  1  0  0  0
  -27.2267  -27.3811   20.1336 C   0  0  0  0  0  0
  -25.5953  -33.8605   24.2338 N   0  0  0  0  0  0
  -23.4116  -30.4923   21.5438 C   0  0  2  0  0  0
  -24.8592  -28.9501   20.1151 C   0  0  0  0  0  0
  -22.7451  -29.4650   22.4914 C   0  0  0  0  0  0
  -18.0270  -28.1427   22.8483 C   0  0  0  0  0  0
  -24.1464  -36.7277   23.2637 C   0  0  0  0  0  0
  -25.9429  -30.8212   21.3613 C   0  0  0  0  0  0
  -26.0215  -29.4472   20.7197 C   0  0  0  0  0  0
  -27.2098  -28.6774   20.7158 C   0  0  0  0  0  0
  -26.0492  -26.9151   19.5095 C   0  0  0  0  0  0
  -24.8720  -27.6874   19.4974 C   0  0  0  0  0  0
  -23.6280  -29.8279   20.1584 C   0  0  0  0  0  0
  -25.4081  -36.3101   24.0358 C   0  0  1  0  0  0
  -20.5866  -28.3702   23.1303 C   0  0  2  0  0  0
  -20.6747  -26.9426   22.5423 C   0  0  0  0  0  0
  -19.5722  -26.6415   21.5212 C   0  0  0  0  0  0
  -18.1899  -26.7977   22.1610 C   0  0  0  0  0  0
  -19.1512  -28.8874   23.2910 C   0  0  0  0  0  0
  -18.9455  -30.1476   23.8935 C   0  0  0  0  0  0
  -17.6462  -30.6627   24.0577 C   0  0  0  0  0  0
  -25.9025  -34.9470   23.5129 C   0  0  0  0  0  0
  -16.5340  -29.9146   23.6353 C   0  0  0  0  0  0
  -16.7265  -28.6555   23.0379 C   0  0  0  0  0  0
  -26.4511  -31.6612   25.0724 C   0  0  0  0  0  0
  -25.3783  -31.3737   26.1487 C   0  0  0  0  0  0
  -27.0349  -30.3059   24.6099 C   0  0  0  0  0  0
  -27.6115  -32.4309   25.7482 C   0  0  0  0  0  0
  -27.5559  -37.1798   24.8477 C   0  0  0  0  0  0
  -21.4155  -29.3061   22.3706 N   0  0  0  0  0  0
  -26.4255  -37.3804   23.9445 N   0  0  0  0  0  0
  -24.6780  -31.0743   22.0951 N   0  0  0  0  0  0
  -23.4208  -28.8200   23.2988 O   0  0  0  0  0  0
  -28.3798  -26.6113   20.1564 O   0  0  0  0  0  0
  -26.5566  -34.8943   22.4675 O   0  0  0  0  0  0
  -23.5414  -32.1397   23.7439 O   0  0  0  0  0  0
  -29.0528  -19.3265   20.4295 C   0  0  0  0  0  0
  -29.3484  -21.9850   20.7168 C   0  0  0  0  0  0
  -29.8257  -22.0628   18.3627 C   0  0  0  0  0  0
  -29.9567  -20.6043   20.2854 C   0  0  2  0  0  0
  -28.9403  -22.7580   19.4279 C   0  0  2  0  0  0
  -29.6736  -25.0676   17.0260 C   0  0  0  0  0  0
  -29.5815  -17.9367   19.9628 C   0  0  0  0  0  0
  -30.1314  -16.9854   21.0810 C   0  0  0  0  0  0
  -28.2691  -25.1808   20.4426 C   0  0  0  0  0  0
  -29.0688  -24.3472   19.3911 C   0  0  2  0  0  0
  -29.8305  -15.5418   20.8956 N   0  0  0  0  0  0
  -30.3487  -20.7735   18.8744 N   0  3  0  0  0  0
  -28.6469  -24.9078   18.0794 N   0  3  0  0  0  0
  -27.9139  -19.3772   20.9037 O   0  0  0  0  0  0
  -31.4615  -12.4746   19.0847 H   0  0  0  0  0  0
  -30.3606  -11.3187   19.7979 H   0  0  0  0  0  0
  -29.7319  -11.7930   17.4131 H   0  0  0  0  0  0
  -29.6340  -13.5037   17.7574 H   0  0  0  0  0  0
  -27.8363  -11.2890   18.8186 H   0  0  0  0  0  0
  -27.3527  -12.6039   17.7815 H   0  0  0  0  0  0
  -27.6963  -14.2350   19.5406 H   0  0  0  0  0  0
  -28.6955  -11.9587   21.3274 H   0  0  0  0  0  0
  -28.4654  -13.6008   21.8520 H   0  0  0  0  0  0
  -25.2713   -9.5751   22.4772 H   0  0  0  0  0  0
  -24.0032   -7.4622   22.7420 H   0  0  0  0  0  0
  -21.0829   -8.8785   19.8922 H   0  0  0  0  0  0
  -22.3643  -10.9723   19.6171 H   0  0  0  0  0  0
  -21.1940   -7.6135   23.9775 H   0  0  0  0  0  0
  -21.1498   -6.0474   25.9102 H   0  0  0  0  0  0
  -22.0570   -2.7622   23.2821 H   0  0  0  0  0  0
  -22.3932  -12.0017   22.4916 H   0  0  0  0  0  0
  -21.0998  -13.1397   22.2555 H   0  0  0  0  0  0
  -24.6513  -15.8311   20.5305 H   0  0  0  0  0  0
  -26.2661  -15.6429   20.0789 H   0  0  0  0  0  0
  -26.7173  -32.5547   23.1149 H   0  0  0  0  0  0
  -25.0257  -33.9726   25.0597 H   0  0  0  0  0  0
  -22.7030  -31.3110   21.4042 H   0  0  0  0  0  0
  -23.3743  -35.9589   23.3316 H   0  0  0  0  0  0
  -24.3542  -36.8863   22.2044 H   0  0  0  0  0  0
  -23.7184  -37.6486   23.6618 H   0  0  0  0  0  0
  -26.0529  -31.5734   20.5783 H   0  0  0  0  0  0
  -26.8344  -30.8886   21.9734 H   0  0  0  0  0  0
  -28.1038  -29.0584   21.1926 H   0  0  0  0  0  0
  -26.0196  -25.9492   19.0211 H   0  0  0  0  0  0
  -23.9857  -27.3061   19.0106 H   0  0  0  0  0  0
  -23.7495  -30.6022   19.4000 H   0  0  0  0  0  0
  -22.7523  -29.2566   19.8493 H   0  0  0  0  0  0
  -25.1253  -36.1949   25.0855 H   0  0  0  0  0  0
  -20.9959  -28.3265   24.1425 H   0  0  0  0  0  0
  -20.5610  -26.2318   23.3614 H   0  0  0  0  0  0
  -21.6637  -26.7443   22.1236 H   0  0  0  0  0  0
  -19.6843  -25.6325   21.1250 H   0  0  0  0  0  0
  -19.6681  -27.3223   20.6744 H   0  0  0  0  0  0
  -17.4177  -26.6743   21.4010 H   0  0  0  0  0  0
  -18.0273  -26.0132   22.9025 H   0  0  0  0  0  0
  -19.7935  -30.7287   24.2323 H   0  0  0  0  0  0
  -17.5030  -31.6318   24.5191 H   0  0  0  0  0  0
  -15.5349  -30.3085   23.7670 H   0  0  0  0  0  0
  -15.8638  -28.0901   22.7101 H   0  0  0  0  0  0
  -24.6003  -30.6993   25.7904 H   0  0  0  0  0  0
  -24.8913  -32.2899   26.4857 H   0  0  0  0  0  0
  -25.8184  -30.9037   27.0294 H   0  0  0  0  0  0
  -26.2887  -29.6817   24.1173 H   0  0  0  0  0  0
  -27.4181  -29.7297   25.4544 H   0  0  0  0  0  0
  -27.8707  -30.4440   23.9223 H   0  0  0  0  0  0
  -27.2783  -33.3632   26.2053 H   0  0  0  0  0  0
  -28.3947  -32.6810   25.0315 H   0  0  0  0  0  0
  -28.0754  -31.8415   26.5400 H   0  0  0  0  0  0
  -28.2623  -38.0066   24.7552 H   0  0  0  0  0  0
  -28.1000  -36.2608   24.6251 H   0  0  0  0  0  0
  -27.2289  -37.1433   25.8886 H   0  0  0  0  0  0
  -20.9301  -29.8857   21.6989 H   0  0  0  0  0  0
  -26.0124  -38.2871   24.1490 H   0  0  0  0  0  0
  -30.1262  -22.5346   21.2459 H   0  0  0  0  0  0
  -28.5145  -21.8900   21.4137 H   0  0  0  0  0  0
  -30.7063  -22.6701   18.1482 H   0  0  0  0  0  0
  -29.2940  -21.9191   17.4191 H   0  0  0  0  0  0
  -30.8620  -20.4333   20.8663 H   0  0  0  0  0  0
  -27.9026  -22.4840   19.2260 H   0  0  0  0  0  0
  -29.9445  -24.1181   16.5694 H   0  0  0  0  0  0
  -30.5774  -25.5474   17.4031 H   0  0  0  0  0  0
  -29.2749  -25.7057   16.2363 H   0  0  0  0  0  0
  -30.3432  -18.0752   19.1991 H   0  0  0  0  0  0
  -28.7491  -17.4465   19.4542 H   0  0  0  0  0  0
  -29.6877  -17.2570   22.0402 H   0  0  0  0  0  0
  -31.2074  -17.1376   21.2002 H   0  0  0  0  0  0
  -28.6728  -25.0075   21.4398 H   0  0  0  0  0  0
  -27.2376  -24.8338   20.4898 H   0  0  0  0  0  0
  -30.1179  -24.6042   19.5517 H   0  0  0  0  0  0
  -28.8831  -15.2577   21.0889 H   0  0  0  0  0  0
  -31.3551  -20.7780   18.8232 H   0  0  0  0  0  0
  -30.0129  -20.0017   18.3210 H   0  0  0  0  0  0
  -28.3660  -25.8524   18.3075 H   0  0  0  0  0  0
  -27.8348  -24.4355   17.7111 H   0  0  0  0  0  0
  1 25  1  0  0  0
  1 30  2  0  0  0
  1 81  1  0  0  0
  2  3  1  0  0  0
  2 25  1  0  0  0
  2 85  1  0  0  0
  2 86  1  0  0  0
  3  4  1  0  0  0
  3 87  1  0  0  0
  3 88  1  0  0  0
  4  5  1  0  0  0
  4 89  1  0  0  0
  4 90  1  0  0  0
  5  6  1  0  0  0
  5 26  1  0  0  0
  5 91  1  0  0  0
  6 25  1  0  0  0
  6 92  1  0  0  0
  6 93  1  0  0  0
  7  8  2  0  0  0
  7 26  1  0  0  0
  7 29  1  0  0  0
  8  9  1  0  0  0
  8 22  1  0  0  0
  9 10  1  0  0  0
  9 27  2  0  0  0
 10 11  2  0  0  0
 10 15  1  0  0  0
 11 12  1  0  0  0
 11 94  1  0  0  0
 12 13  2  0  0  0
 12 95  1  0  0  0
 13 14  1  0  0  0
 13 31  1  0  0  0
 14 15  2  0  0  0
 14 96  1  0  0  0
 15 97  1  0  0  0
 16 17  2  0  0  0
 16 21  1  0  0  0
 16 31  1  0  0  0
 17 18  1  0  0  0
 17 98  1  0  0  0
 18 19  2  0  0  0
 18 99  1  0  0  0
 19 20  1  0  0  0
 19 24  1  0  0  0
 20 21  2  0  0  0
 20100  1  0  0  0
 21 23  1  0  0  0
 22 28  1  0  0  0
 22 32  2  0  0  0
 26 27  1  0  0  0
 28101  1  0  0  0
 28102  1  0  0  0
 29103  1  0  0  0
 29104  1  0  0  0
 33 34  1  0  0  0
 33 66  1  0  0  0
 33 70  2  0  0  0
 34 36  1  0  0  0
 34 59  1  0  0  0
 34105  1  0  0  0
 35 44  2  0  0  0
 35 45  1  0  0  0
 35 68  1  0  0  0
 36 56  1  0  0  0
 36106  1  0  0  0
 37 39  1  0  0  0
 37 47  1  0  0  0
 37 66  1  0  0  0
 37107  1  0  0  0
 38 43  2  0  0  0
 38 46  1  0  0  0
 38 47  1  0  0  0
 39 64  1  0  0  0
 39 67  2  0  0  0
 40 52  1  0  0  0
 40 53  2  0  0  0
 40 58  1  0  0  0
 41108  1  0  0  0
 41109  1  0  0  0
 41110  1  0  0  0
 41 48  1  0  0  0
 42 43  1  0  0  0
 42 66  1  0  0  0
 42111  1  0  0  0
 42112  1  0  0  0
 43 44  1  0  0  0
 44113  1  0  0  0
 45 46  2  0  0  0
 45114  1  0  0  0
 46115  1  0  0  0
 47116  1  0  0  0
 47117  1  0  0  0
 48 56  1  0  0  0
 48 65  1  0  0  0
 48118  1  0  0  0
 49 50  1  0  0  0
 49 53  1  0  0  0
 49 64  1  0  0  0
 49119  1  0  0  0
 50 51  1  0  0  0
 50120  1  0  0  0
 50121  1  0  0  0
 51 52  1  0  0  0
 51122  1  0  0  0
 51123  1  0  0  0
 52124  1  0  0  0
 52125  1  0  0  0
 53 54  1  0  0  0
 54 55  2  0  0  0
 54126  1  0  0  0
 55 57  1  0  0  0
 55127  1  0  0  0
 56 69  2  0  0  0
 57 58  2  0  0  0
 57128  1  0  0  0
 58129  1  0  0  0
 59 60  1  0  0  0
 59 61  1  0  0  0
 59 62  1  0  0  0
 60130  1  0  0  0
 60131  1  0  0  0
 60132  1  0  0  0
 61133  1  0  0  0
 61134  1  0  0  0
 61135  1  0  0  0
 62136  1  0  0  0
 62137  1  0  0  0
 62138  1  0  0  0
 63 65  1  0  0  0
 63139  1  0  0  0
 63140  1  0  0  0
 63141  1  0  0  0
 64142  1  0  0  0
 65143  1  0  0  0
 68 79  1  0  0  0
 71 77  1  0  0  0
 71 84  2  0  0  0
 71 74  1  0  0  0
 72 74  1  0  0  0
 72144  1  0  0  0
 72145  1  0  0  0
 72 75  1  0  0  0
 73 75  1  0  0  0
 73 82  1  0  0  0
 73146  1  0  0  0
 73147  1  0  0  0
 74 82  1  0  0  0
 74148  1  0  0  0
 75 80  1  0  0  0
 75149  1  0  0  0
 76 83  1  0  0  0
 76150  1  0  0  0
 76151  1  0  0  0
 76152  1  0  0  0
 77 78  1  0  0  0
 77153  1  0  0  0
 77154  1  0  0  0
 78 81  1  0  0  0
 78155  1  0  0  0
 78156  1  0  0  0
 79157  1  0  0  0
 79158  1  0  0  0
 79 80  1  0  0  0
 80 83  1  0  0  0
 80159  1  0  0  0
 81160  1  0  0  0
 82161  1  0  0  0
 82162  1  0  0  0
 83163  1  0  0  0
 83164  1  0  0  0
M  CHG  2  82   1  83   1
M  ISO  4   1 100  68 101  79 101  81 100
M  END
> <chiral flag>
0

> <version>
0

> <s_m_source_file>
/data/baiqing/PycharmProjects/Reinvent-master-3.2/result/LINK_invent/BTK/process_docking_weight1_custom_sum_contain_oxygen_bond_distance_aromatic_linkinvent_7_9_3/rearranged_h_0115.sdf

> <i_m_source_file_index>
3

> <r_mmod_Potential_Energy-OPLS-2005>
-348.417755126953

> <r_mmod_Stretch_Energy-OPLS-2005>
54.0893478393555

> <r_mmod_Bend_Energy-OPLS-2005>
141.648284912109

> <r_mmod_Torsional_Energy-OPLS-2005>
257.628082275391

> <r_mmod_Improper_Torsional_Energy-OPLS-2005>
4.21913528442383

> <r_mmod_Van_der_Waal_Energy-OPLS-2005>
122.195457458496

> <r_mmod_Electrostatic_Energy-OPLS-2005>
60.1222915649414

> <r_mmod_Solvation_Energy-OPLS-2005>
-1012.0517578125

> <b_mmod_Minimization_Converged-OPLS-2005>
0

> <r_mmod_RMS_Derivative-OPLS-2005>
5.81606960296631

$$$$
3
                    3D
 Structure written by MMmdl.
165173  0  0  1  0            999 V2000
  -30.6204  -14.5283   20.5423 C   0  0  0  0  0  0
  -30.4447  -12.3419   19.3972 C   0  0  0  0  0  0
  -29.4918  -12.4994   18.1911 C   0  0  0  0  0  0
  -28.0156  -12.3514   18.6126 C   0  0  0  0  0  0
  -27.6598  -13.1894   19.8670 C   0  0  2  0  0  0
  -28.7081  -12.9574   20.9791 C   0  0  0  0  0  0
  -25.2623  -13.8123   20.5667 C   0  0  0  0  0  0
  -24.1860  -13.0436   20.9169 C   0  0  0  0  0  0
  -24.6384  -11.6886   20.8741 C   0  0  0  0  0  0
  -23.9051  -10.4289   21.0420 C   0  0  0  0  0  0
  -24.3606   -9.4207   21.9201 C   0  0  0  0  0  0
  -23.6288   -8.2246   22.0767 C   0  0  0  0  0  0
  -22.4278   -8.0293   21.3552 C   0  0  0  0  0  0
  -21.9911   -9.0260   20.4653 C   0  0  0  0  0  0
  -22.7225  -10.2128   20.3065 C   0  0  0  0  0  0
  -21.6849   -6.0737   22.5278 C   0  0  0  0  0  0
  -21.4014   -6.5647   23.8206 C   0  0  0  0  0  0
  -21.3650   -5.6806   24.9179 C   0  0  0  0  0  0
  -21.6038   -4.3064   24.7233 C   0  0  0  0  0  0
  -21.8820   -3.8150   23.4353 C   0  0  0  0  0  0
  -21.9199   -4.6969   22.3410 C   0  0  0  0  0  0
  -22.7901  -13.5262   21.1832 C   0  0  0  0  0  0
  -22.1665   -4.2161   21.0990 F   0  0  0  0  0  0
  -21.5626   -3.4544   25.7743 F   0  0  0  0  0  0
  -30.0263  -13.3086   20.4204 N   0  0  0  0  0  0
  -26.3026  -12.9246   20.3318 N   0  0  0  0  0  0
  -25.9297  -11.6428   20.5765 N   0  0  0  0  0  0
  -22.0514  -12.8260   22.0362 N   0  0  0  0  0  0
  -25.4371  -15.1840   20.4056 N   0  0  0  0  0  0
  -31.7678  -14.7720   20.1628 O   0  0  0  0  0  0
  -21.6640   -6.8884   21.4244 O   0  0  0  0  0  0
  -22.3616  -14.5573   20.6681 O   0  0  0  0  0  0
  -24.6218  -31.8656   23.2073 C   0  0  0  0  0  0
  -25.9085  -32.4807   23.8382 C   0  0  1  0  0  0
  -27.2287  -27.3961   20.0932 C   0  0  0  0  0  0
  -25.5909  -33.8597   24.2313 N   0  0  0  0  0  0
  -23.4080  -30.4897   21.5531 C   0  0  2  0  0  0
  -24.8492  -28.9450   20.1134 C   0  0  0  0  0  0
  -22.7430  -29.4661   22.5022 C   0  0  0  0  0  0
  -18.0276  -28.1376   22.8512 C   0  0  0  0  0  0
  -24.1480  -36.7308   23.2620 C   0  0  0  0  0  0
  -25.9392  -30.8167   21.3603 C   0  0  0  0  0  0
  -26.0126  -29.4484   20.7067 C   0  0  0  0  0  0
  -27.2024  -28.6799   20.6963 C   0  0  0  0  0  0
  -26.0394  -26.9096   19.5024 C   0  0  0  0  0  0
  -24.8575  -27.6755   19.5095 C   0  0  0  0  0  0
  -23.6130  -29.8163   20.1699 C   0  0  0  0  0  0
  -25.4094  -36.3091   24.0329 C   0  0  1  0  0  0
  -20.5869  -28.3674   23.1325 C   0  0  2  0  0  0
  -20.6750  -26.9413   22.5420 C   0  0  0  0  0  0
  -19.5730  -26.6383   21.5209 C   0  0  0  0  0  0
  -18.1914  -26.7932   22.1615 C   0  0  0  0  0  0
  -19.1528  -28.8849   23.2911 C   0  0  0  0  0  0
  -18.9448  -30.1445   23.8927 C   0  0  0  0  0  0
  -17.6434  -30.6593   24.0583 C   0  0  0  0  0  0
  -25.9040  -34.9465   23.5136 C   0  0  0  0  0  0
  -16.5338  -29.9085   23.6342 C   0  0  0  0  0  0
  -16.7262  -28.6496   23.0377 C   0  0  0  0  0  0
  -26.4469  -31.6618   25.0745 C   0  0  0  0  0  0
  -25.3710  -31.3704   26.1492 C   0  0  0  0  0  0
  -27.0304  -30.3056   24.6152 C   0  0  0  0  0  0
  -27.6068  -32.4317   25.7481 C   0  0  0  0  0  0
  -27.5582  -37.1787   24.8445 C   0  0  0  0  0  0
  -21.4156  -29.3021   22.3721 N   0  0  0  0  0  0
  -26.4269  -37.3795   23.9422 N   0  0  0  0  0  0
  -24.6750  -31.0710   22.0991 N   0  0  0  0  0  0
  -23.4190  -28.8190   23.3060 O   0  0  0  0  0  0
  -28.4045  -26.6619   20.1258 O   0  0  0  0  0  0
  -26.5609  -34.8950   22.4700 O   0  0  0  0  0  0
  -23.5406  -32.1421   23.7460 O   0  0  0  0  0  0
  -27.9824  -16.2562   16.5985 C   0  0  0  0  0  0
  -27.1973  -16.4638   17.7586 C   0  0  0  0  0  0
  -29.7973  -17.1801   17.6665 C   0  0  0  0  0  0
  -29.0184  -17.3756   18.8360 C   0  0  0  0  0  0
  -26.5672  -21.4125   20.1809 C   0  0  0  0  0  0
  -28.0821  -24.1259   20.2609 C   0  0  0  0  0  0
  -29.9146  -16.9301   21.2455 C   0  0  0  0  0  0
  -28.8715  -20.3854   19.6681 C   0  0  0  0  0  0
  -28.5209  -25.3881   19.4498 C   0  0  0  0  0  0
  -29.6483  -17.9736   20.0930 C   0  0  2  0  0  0
  -28.0937  -21.6193   20.2645 C   0  0  1  0  0  0
  -29.2864  -16.6181   16.5458 N   0  0  0  0  0  0
  -27.7060  -17.0257   18.8853 N   0  0  0  0  0  0
  -29.7632  -15.4878   20.9492 N   0  0  0  0  0  0
  -28.4493  -22.8712   19.5647 N   0  0  0  0  0  0
  -28.9296  -19.1991   20.5781 N   0  3  0  0  0  0
  -31.4785  -12.4987   19.0820 H   0  0  0  0  0  0
  -30.4024  -11.3284   19.7988 H   0  0  0  0  0  0
  -29.7336  -11.7614   17.4252 H   0  0  0  0  0  0
  -29.6436  -13.4759   17.7290 H   0  0  0  0  0  0
  -27.8288  -11.2960   18.8113 H   0  0  0  0  0  0
  -27.3618  -12.6226   17.7838 H   0  0  0  0  0  0
  -27.7037  -14.2336   19.5660 H   0  0  0  0  0  0
  -28.7084  -11.9113   21.2917 H   0  0  0  0  0  0
  -28.4686  -13.5278   21.8775 H   0  0  0  0  0  0
  -25.2744   -9.5696   22.4783 H   0  0  0  0  0  0
  -23.9992   -7.4653   22.7497 H   0  0  0  0  0  0
  -21.0842   -8.8792   19.8971 H   0  0  0  0  0  0
  -22.3697  -10.9686   19.6196 H   0  0  0  0  0  0
  -21.2004   -7.6158   23.9714 H   0  0  0  0  0  0
  -21.1465   -6.0538   25.9081 H   0  0  0  0  0  0
  -22.0606   -2.7619   23.2857 H   0  0  0  0  0  0
  -22.4111  -11.9899   22.4731 H   0  0  0  0  0  0
  -21.1159  -13.1310   22.2588 H   0  0  0  0  0  0
  -24.6632  -15.8295   20.5075 H   0  0  0  0  0  0
  -26.2751  -15.6302   20.0439 H   0  0  0  0  0  0
  -26.7170  -32.5520   23.1149 H   0  0  0  0  0  0
  -24.9992  -33.9710   25.0425 H   0  0  0  0  0  0
  -22.6986  -31.3089   21.4129 H   0  0  0  0  0  0
  -23.3758  -35.9620   23.3237 H   0  0  0  0  0  0
  -24.3556  -36.8987   22.2044 H   0  0  0  0  0  0
  -23.7257  -37.6492   23.6699 H   0  0  0  0  0  0
  -26.0567  -31.5736   20.5838 H   0  0  0  0  0  0
  -26.8237  -30.8702   21.9821 H   0  0  0  0  0  0
  -28.1018  -29.0632   21.1583 H   0  0  0  0  0  0
  -25.9954  -25.9333   19.0465 H   0  0  0  0  0  0
  -23.9600  -27.2770   19.0574 H   0  0  0  0  0  0
  -23.7159  -30.5874   19.4052 H   0  0  0  0  0  0
  -22.7345  -29.2319   19.8898 H   0  0  0  0  0  0
  -25.1291  -36.1896   25.0825 H   0  0  0  0  0  0
  -20.9965  -28.3242   24.1446 H   0  0  0  0  0  0
  -20.5639  -26.2276   23.3594 H   0  0  0  0  0  0
  -21.6622  -26.7449   22.1221 H   0  0  0  0  0  0
  -19.6881  -25.6294   21.1229 H   0  0  0  0  0  0
  -19.6690  -27.3195   20.6744 H   0  0  0  0  0  0
  -17.4192  -26.6731   21.4002 H   0  0  0  0  0  0
  -18.0286  -26.0071   22.9001 H   0  0  0  0  0  0
  -19.7914  -30.7261   24.2328 H   0  0  0  0  0  0
  -17.5002  -31.6294   24.5139 H   0  0  0  0  0  0
  -15.5338  -30.2992   23.7663 H   0  0  0  0  0  0
  -15.8652  -28.0827   22.7091 H   0  0  0  0  0  0
  -24.5962  -30.6958   25.7820 H   0  0  0  0  0  0
  -24.8768  -32.2803   26.4904 H   0  0  0  0  0  0
  -25.8038  -30.8939   27.0295 H   0  0  0  0  0  0
  -26.2849  -29.6792   24.1222 H   0  0  0  0  0  0
  -27.4081  -29.7352   25.4637 H   0  0  0  0  0  0
  -27.8680  -30.4381   23.9298 H   0  0  0  0  0  0
  -27.2788  -33.3679   26.2027 H   0  0  0  0  0  0
  -28.3869  -32.6774   25.0254 H   0  0  0  0  0  0
  -28.0752  -31.8456   26.5410 H   0  0  0  0  0  0
  -28.2566  -38.0134   24.7596 H   0  0  0  0  0  0
  -28.1151  -36.2678   24.6152 H   0  0  0  0  0  0
  -27.2318  -37.1273   25.8855 H   0  0  0  0  0  0
  -20.9327  -29.8744   21.6933 H   0  0  0  0  0  0
  -26.0157  -38.2850   24.1492 H   0  0  0  0  0  0
  -27.5665  -15.7874   15.7162 H   0  0  0  0  0  0
  -26.1627  -16.1583   17.7819 H   0  0  0  0  0  0
  -30.8403  -17.4646   17.6325 H   0  0  0  0  0  0
  -26.2486  -20.5557   20.7774 H   0  0  0  0  0  0
  -26.2389  -21.2328   19.1545 H   0  0  0  0  0  0
  -26.0022  -22.2657   20.5561 H   0  0  0  0  0  0
  -27.0090  -24.1716   20.4484 H   0  0  0  0  0  0
  -28.5639  -24.1422   21.2395 H   0  0  0  0  0  0
  -29.2123  -17.1164   22.0578 H   0  0  0  0  0  0
  -30.8992  -17.1081   21.6801 H   0  0  0  0  0  0
  -29.8998  -20.6804   19.4528 H   0  0  0  0  0  0
  -28.4322  -20.1018   18.7121 H   0  0  0  0  0  0
  -28.0435  -25.4172   18.4688 H   0  0  0  0  0  0
  -29.5838  -25.2835   19.2341 H   0  0  0  0  0  0
  -30.6339  -18.3279   19.7872 H   0  0  0  0  0  0
  -28.3844  -21.7391   21.3115 H   0  0  0  0  0  0
  -28.8400  -15.1259   21.1345 H   0  0  0  0  0  0
  -29.4555  -22.8893   19.4129 H   0  0  0  0  0  0
  -27.9850  -18.9205   20.7859 H   0  0  0  0  0  0
  -29.3600  -19.4974   21.4365 H   0  0  0  0  0  0
  1 25  1  0  0  0
  1 30  2  0  0  0
  1 84  1  0  0  0
  2  3  1  0  0  0
  2 25  1  0  0  0
  2 87  1  0  0  0
  2 88  1  0  0  0
  3  4  1  0  0  0
  3 89  1  0  0  0
  3 90  1  0  0  0
  4  5  1  0  0  0
  4 91  1  0  0  0
  4 92  1  0  0  0
  5  6  1  0  0  0
  5 26  1  0  0  0
  5 93  1  0  0  0
  6 25  1  0  0  0
  6 94  1  0  0  0
  6 95  1  0  0  0
  7  8  2  0  0  0
  7 26  1  0  0  0
  7 29  1  0  0  0
  8  9  1  0  0  0
  8 22  1  0  0  0
  9 10  1  0  0  0
  9 27  2  0  0  0
 10 11  2  0  0  0
 10 15  1  0  0  0
 11 12  1  0  0  0
 11 96  1  0  0  0
 12 13  2  0  0  0
 12 97  1  0  0  0
 13 14  1  0  0  0
 13 31  1  0  0  0
 14 15  2  0  0  0
 14 98  1  0  0  0
 15 99  1  0  0  0
 16 17  2  0  0  0
 16 21  1  0  0  0
 16 31  1  0  0  0
 17 18  1  0  0  0
 17100  1  0  0  0
 18 19  2  0  0  0
 18101  1  0  0  0
 19 20  1  0  0  0
 19 24  1  0  0  0
 20 21  2  0  0  0
 20102  1  0  0  0
 21 23  1  0  0  0
 22 28  1  0  0  0
 22 32  2  0  0  0
 26 27  1  0  0  0
 28103  1  0  0  0
 28104  1  0  0  0
 29105  1  0  0  0
 29106  1  0  0  0
 33 34  1  0  0  0
 33 66  1  0  0  0
 33 70  2  0  0  0
 34 36  1  0  0  0
 34 59  1  0  0  0
 34107  1  0  0  0
 35 44  2  0  0  0
 35 45  1  0  0  0
 35 68  1  0  0  0
 36 56  1  0  0  0
 36108  1  0  0  0
 37 39  1  0  0  0
 37 47  1  0  0  0
 37 66  1  0  0  0
 37109  1  0  0  0
 38 43  2  0  0  0
 38 46  1  0  0  0
 38 47  1  0  0  0
 39 64  1  0  0  0
 39 67  2  0  0  0
 40 52  1  0  0  0
 40 53  2  0  0  0
 40 58  1  0  0  0
 41110  1  0  0  0
 41111  1  0  0  0
 41112  1  0  0  0
 41 48  1  0  0  0
 42 43  1  0  0  0
 42 66  1  0  0  0
 42113  1  0  0  0
 42114  1  0  0  0
 43 44  1  0  0  0
 44115  1  0  0  0
 45 46  2  0  0  0
 45116  1  0  0  0
 46117  1  0  0  0
 47118  1  0  0  0
 47119  1  0  0  0
 48 56  1  0  0  0
 48 65  1  0  0  0
 48120  1  0  0  0
 49 50  1  0  0  0
 49 53  1  0  0  0
 49 64  1  0  0  0
 49121  1  0  0  0
 50 51  1  0  0  0
 50122  1  0  0  0
 50123  1  0  0  0
 51 52  1  0  0  0
 51124  1  0  0  0
 51125  1  0  0  0
 52126  1  0  0  0
 52127  1  0  0  0
 53 54  1  0  0  0
 54 55  2  0  0  0
 54128  1  0  0  0
 55 57  1  0  0  0
 55129  1  0  0  0
 56 69  2  0  0  0
 57 58  2  0  0  0
 57130  1  0  0  0
 58131  1  0  0  0
 59 60  1  0  0  0
 59 61  1  0  0  0
 59 62  1  0  0  0
 60132  1  0  0  0
 60133  1  0  0  0
 60134  1  0  0  0
 61135  1  0  0  0
 61136  1  0  0  0
 61137  1  0  0  0
 62138  1  0  0  0
 62139  1  0  0  0
 62140  1  0  0  0
 63 65  1  0  0  0
 63141  1  0  0  0
 63142  1  0  0  0
 63143  1  0  0  0
 64144  1  0  0  0
 65145  1  0  0  0
 68 79  1  0  0  0
 71 72  2  0  0  0
 71 82  1  0  0  0
 71146  1  0  0  0
 72 83  1  0  0  0
 72147  1  0  0  0
 73 74  1  0  0  0
 73 82  2  0  0  0
 73148  1  0  0  0
 74 80  1  0  0  0
 74 83  2  0  0  0
 75149  1  0  0  0
 75150  1  0  0  0
 75151  1  0  0  0
 75 81  1  0  0  0
 76 79  1  0  0  0
 76 85  1  0  0  0
 76152  1  0  0  0
 76153  1  0  0  0
 77 84  1  0  0  0
 77154  1  0  0  0
 77155  1  0  0  0
 77 80  1  0  0  0
 78 81  1  0  0  0
 78 86  1  0  0  0
 78156  1  0  0  0
 78157  1  0  0  0
 79158  1  0  0  0
 79159  1  0  0  0
 80 86  1  0  0  0
 80160  1  0  0  0
 81 85  1  0  0  0
 81161  1  0  0  0
 84162  1  0  0  0
 85163  1  0  0  0
 86164  1  0  0  0
 86165  1  0  0  0
M  CHG  1  86   1
M  ISO  4   1 100  68 101  79 101  84 100
M  END
> <chiral flag>
0

> <version>
0

> <s_m_source_file>
/data/baiqing/PycharmProjects/Reinvent-master-3.2/result/LINK_invent/BTK/process_docking_weight1_custom_sum_contain_oxygen_bond_distance_aromatic_linkinvent_7_9_3/rearranged_h_0115.sdf

> <i_m_source_file_index>
4

> <r_mmod_Potential_Energy-OPLS-2005>
-234.936645507812

> <r_mmod_Stretch_Energy-OPLS-2005>
50.8919868469238

> <r_mmod_Bend_Energy-OPLS-2005>
129.364730834961

> <r_mmod_Torsional_Energy-OPLS-2005>
212.364562988281

> <r_mmod_Improper_Torsional_Energy-OPLS-2005>
4.21594381332397

> <r_mmod_Van_der_Waal_Energy-OPLS-2005>
140.186019897461

> <r_mmod_Electrostatic_Energy-OPLS-2005>
-292.246826171875

> <r_mmod_Solvation_Energy-OPLS-2005>
-502.153991699219

> <b_mmod_Minimization_Converged-OPLS-2005>
0

> <r_mmod_RMS_Derivative-OPLS-2005>
3.82586717605591

$$$$
4
                    3D
 Structure written by MMmdl.
152160  0  0  1  0            999 V2000
  -30.4464  -15.3733   20.3490 C   0  0  0  0  0  0
  -30.4417  -12.8869   19.5222 C   0  0  0  0  0  0
  -29.5446  -12.6073   18.2898 C   0  0  0  0  0  0
  -28.0950  -12.3191   18.7197 C   0  0  0  0  0  0
  -27.6136  -13.2951   19.8209 C   0  0  2  0  0  0
  -28.6507  -13.5236   20.9458 C   0  0  0  0  0  0
  -25.2375  -13.8275   20.5776 C   0  0  0  0  0  0
  -24.1745  -13.0448   20.9272 C   0  0  0  0  0  0
  -24.6425  -11.6964   20.8761 C   0  0  0  0  0  0
  -23.9107  -10.4316   21.0415 C   0  0  0  0  0  0
  -24.3655   -9.4210   21.9183 C   0  0  0  0  0  0
  -23.6320   -8.2239   22.0769 C   0  0  0  0  0  0
  -22.4294   -8.0284   21.3560 C   0  0  0  0  0  0
  -21.9919   -9.0279   20.4683 C   0  0  0  0  0  0
  -22.7264  -10.2159   20.3077 C   0  0  0  0  0  0
  -21.6845   -6.0743   22.5282 C   0  0  0  0  0  0
  -21.4013   -6.5657   23.8216 C   0  0  0  0  0  0
  -21.3670   -5.6803   24.9172 C   0  0  0  0  0  0
  -21.6035   -4.3055   24.7205 C   0  0  0  0  0  0
  -21.8809   -3.8160   23.4318 C   0  0  0  0  0  0
  -21.9195   -4.6977   22.3389 C   0  0  0  0  0  0
  -22.7755  -13.5194   21.1881 C   0  0  0  0  0  0
  -22.1656   -4.2176   21.0954 F   0  0  0  0  0  0
  -21.5638   -3.4540   25.7714 F   0  0  0  0  0  0
  -29.8717  -14.0537   20.3075 N   0  0  0  0  0  0
  -26.2843  -12.9613   20.3251 N   0  0  0  0  0  0
  -25.9380  -11.6690   20.5709 N   0  0  0  0  0  0
  -22.0384  -12.8246   22.0453 N   0  0  0  0  0  0
  -25.3959  -15.2005   20.4226 N   0  0  0  0  0  0
  -31.6710  -15.3175   20.1604 O   0  0  0  0  0  0
  -21.6640   -6.8900   21.4256 O   0  0  0  0  0  0
  -22.3456  -14.5503   20.6712 O   0  0  0  0  0  0
  -24.6671  -31.8122   23.1644 C   0  0  0  0  0  0
  -25.9307  -32.4535   23.8149 C   0  0  1  0  0  0
  -27.2561  -26.8855   20.1694 C   0  0  0  0  0  0
  -25.5944  -33.8374   24.2022 N   0  0  0  0  0  0
  -23.4898  -30.4138   21.5135 C   0  0  2  0  0  0
  -24.9523  -28.7902   20.1072 C   0  0  0  0  0  0
  -22.7690  -29.4330   22.4758 C   0  0  0  0  0  0
  -18.0315  -28.1412   22.8450 C   0  0  0  0  0  0
  -24.1489  -36.7206   23.2632 C   0  0  0  0  0  0
  -26.0601  -30.6005   21.4049 C   0  0  0  0  0  0
  -26.1315  -29.1862   20.7481 C   0  0  0  0  0  0
  -27.2673  -28.2537   20.7570 C   0  0  0  0  0  0
  -26.0453  -26.6501   19.4751 C   0  0  0  0  0  0
  -24.9370  -27.5447   19.4519 C   0  0  0  0  0  0
  -23.7368  -29.7181   20.1437 C   0  0  0  0  0  0
  -25.4133  -36.2952   24.0279 C   0  0  1  0  0  0
  -20.5944  -28.3751   23.1186 C   0  0  2  0  0  0
  -20.6792  -26.9425   22.5411 C   0  0  0  0  0  0
  -19.5779  -26.6372   21.5207 C   0  0  0  0  0  0
  -18.1952  -26.7944   22.1599 C   0  0  0  0  0  0
  -19.1576  -28.8902   23.2802 C   0  0  0  0  0  0
  -18.9481  -30.1492   23.8839 C   0  0  0  0  0  0
  -17.6474  -30.6605   24.0548 C   0  0  0  0  0  0
  -25.9106  -34.9328   23.4980 C   0  0  0  0  0  0
  -16.5363  -29.9087   23.6350 C   0  0  0  0  0  0
  -16.7294  -28.6510   23.0358 C   0  0  0  0  0  0
  -26.4519  -31.6546   25.0737 C   0  0  0  0  0  0
  -25.3628  -31.3834   26.1384 C   0  0  0  0  0  0
  -27.0391  -30.2898   24.6533 C   0  0  0  0  0  0
  -27.6002  -32.4366   25.7538 C   0  0  0  0  0  0
  -27.5590  -37.1728   24.8415 C   0  0  0  0  0  0
  -21.4349  -29.3024   22.3527 N   0  0  0  0  0  0
  -26.4256  -37.3716   23.9412 N   0  0  0  0  0  0
  -24.7609  -30.9706   22.0817 N   0  0  0  0  0  0
  -23.4190  -28.7897   23.3032 O   0  0  0  0  0  0
  -28.2799  -25.7917   20.3070 O   0  0  0  0  0  0
  -26.5745  -34.8868   22.4596 O   0  0  0  0  0  0
  -23.5720  -32.1093   23.6699 O   0  0  0  0  0  0
  -31.6296  -19.9868   19.5274 C   0  0  0  0  0  0
  -31.2223  -18.6514   19.7680 C   0  0  0  0  0  0
  -30.8010  -21.1248   19.7260 C   0  0  0  0  0  0
  -29.4551  -20.9952   20.1609 C   0  0  0  0  0  0
  -29.9394  -18.3063   20.2341 C   0  0  0  0  0  0
  -31.4475  -22.4879   19.4973 C   0  0  0  0  0  0
  -28.5905  -22.6916   22.0206 C   0  0  0  0  0  0
  -28.4418  -24.1998   19.7975 C   0  0  0  0  0  0
  -28.5450  -22.4960   20.5017 C   0  0  1  0  0  0
  -29.1114  -19.5526   20.4042 N   0  0  0  0  0  0
  -29.7008  -16.6851   20.4263 N   0  0  0  0  0  0
  -31.4568  -13.0893   19.1803 H   0  0  0  0  0  0
  -30.5254  -11.9983   20.1470 H   0  0  0  0  0  0
  -29.9389  -11.7723   17.7067 H   0  0  0  0  0  0
  -29.5645  -13.4742   17.6267 H   0  0  0  0  0  0
  -28.0598  -11.2984   19.0995 H   0  0  0  0  0  0
  -27.4237  -12.3563   17.8603 H   0  0  0  0  0  0
  -27.5132  -14.2504   19.3047 H   0  0  0  0  0  0
  -28.8442  -12.6107   21.5106 H   0  0  0  0  0  0
  -28.2750  -14.2594   21.6577 H   0  0  0  0  0  0
  -25.2791   -9.5704   22.4757 H   0  0  0  0  0  0
  -24.0042   -7.4637   22.7482 H   0  0  0  0  0  0
  -21.0833   -8.8792   19.9008 H   0  0  0  0  0  0
  -22.3683  -10.9706   19.6196 H   0  0  0  0  0  0
  -21.2016   -7.6165   23.9730 H   0  0  0  0  0  0
  -21.1505   -6.0523   25.9077 H   0  0  0  0  0  0
  -22.0591   -2.7629   23.2789 H   0  0  0  0  0  0
  -22.3970  -11.9927   22.4881 H   0  0  0  0  0  0
  -21.1021  -13.1341   22.2639 H   0  0  0  0  0  0
  -24.6093  -15.8340   20.5139 H   0  0  0  0  0  0
  -26.2205  -15.6461   20.0447 H   0  0  0  0  0  0
  -26.7387  -32.5033   23.0862 H   0  0  0  0  0  0
  -25.0015  -33.9444   25.0114 H   0  0  0  0  0  0
  -22.8059  -31.2461   21.3319 H   0  0  0  0  0  0
  -23.3792  -35.9488   23.3174 H   0  0  0  0  0  0
  -24.3589  -36.8998   22.2078 H   0  0  0  0  0  0
  -23.7188  -37.6321   23.6798 H   0  0  0  0  0  0
  -26.2442  -31.3365   20.6230 H   0  0  0  0  0  0
  -26.9177  -30.6604   22.0638 H   0  0  0  0  0  0
  -28.1577  -28.5521   21.2921 H   0  0  0  0  0  0
  -25.9224  -25.6981   18.9793 H   0  0  0  0  0  0
  -24.0432  -27.2361   18.9278 H   0  0  0  0  0  0
  -23.8937  -30.4795   19.3789 H   0  0  0  0  0  0
  -22.8486  -29.1685   19.8311 H   0  0  0  0  0  0
  -25.1321  -36.1728   25.0772 H   0  0  0  0  0  0
  -21.0008  -28.3375   24.1325 H   0  0  0  0  0  0
  -20.5662  -26.2357   23.3651 H   0  0  0  0  0  0
  -21.6656  -26.7389   22.1226 H   0  0  0  0  0  0
  -19.6935  -25.6264   21.1293 H   0  0  0  0  0  0
  -19.6749  -27.3140   20.6713 H   0  0  0  0  0  0
  -17.4220  -26.6673   21.4014 H   0  0  0  0  0  0
  -18.0346  -26.0107   22.9024 H   0  0  0  0  0  0
  -19.7954  -30.7326   24.2186 H   0  0  0  0  0  0
  -17.5025  -31.6283   24.5152 H   0  0  0  0  0  0
  -15.5364  -30.2965   23.7724 H   0  0  0  0  0  0
  -15.8692  -28.0823   22.7106 H   0  0  0  0  0  0
  -24.5809  -30.7181   25.7696 H   0  0  0  0  0  0
  -24.8811  -32.3059   26.4671 H   0  0  0  0  0  0
  -25.7849  -30.9089   27.0262 H   0  0  0  0  0  0
  -26.3064  -29.6583   24.1512 H   0  0  0  0  0  0
  -27.3815  -29.7279   25.5231 H   0  0  0  0  0  0
  -27.9058  -30.4010   24.0014 H   0  0  0  0  0  0
  -27.2552  -33.3684   26.2022 H   0  0  0  0  0  0
  -28.3874  -32.6903   25.0433 H   0  0  0  0  0  0
  -28.0612  -31.8574   26.5538 H   0  0  0  0  0  0
  -28.2457  -38.0166   24.7639 H   0  0  0  0  0  0
  -28.1232  -36.2707   24.6011 H   0  0  0  0  0  0
  -27.2340  -37.1091   25.8811 H   0  0  0  0  0  0
  -20.9621  -29.8701   21.6639 H   0  0  0  0  0  0
  -26.0087  -38.2736   24.1550 H   0  0  0  0  0  0
  -32.6445  -20.1443   19.1878 H   0  0  0  0  0  0
  -31.9412  -17.8679   19.5749 H   0  0  0  0  0  0
  -32.5353  -22.4263   19.5653 H   0  0  0  0  0  0
  -31.1404  -23.2075   20.2558 H   0  0  0  0  0  0
  -31.2058  -22.8762   18.5063 H   0  0  0  0  0  0
  -29.6102  -22.8245   22.3802 H   0  0  0  0  0  0
  -28.1667  -21.8241   22.5248 H   0  0  0  0  0  0
  -28.0132  -23.5677   22.3162 H   0  0  0  0  0  0
  -27.7812  -24.1229   18.9307 H   0  0  0  0  0  0
  -29.4131  -24.2985   19.3208 H   0  0  0  0  0  0
  -27.5297  -22.1507   20.3009 H   0  0  0  0  0  0
  -28.7353  -16.4892   20.6288 H   0  0  0  0  0  0
  1 25  1  0  0  0
  1 30  2  0  0  0
  1 81  1  0  0  0
  2  3  1  0  0  0
  2 25  1  0  0  0
  2 82  1  0  0  0
  2 83  1  0  0  0
  3  4  1  0  0  0
  3 84  1  0  0  0
  3 85  1  0  0  0
  4  5  1  0  0  0
  4 86  1  0  0  0
  4 87  1  0  0  0
  5  6  1  0  0  0
  5 26  1  0  0  0
  5 88  1  0  0  0
  6 25  1  0  0  0
  6 89  1  0  0  0
  6 90  1  0  0  0
  7  8  2  0  0  0
  7 26  1  0  0  0
  7 29  1  0  0  0
  8  9  1  0  0  0
  8 22  1  0  0  0
  9 10  1  0  0  0
  9 27  2  0  0  0
 10 11  2  0  0  0
 10 15  1  0  0  0
 11 12  1  0  0  0
 11 91  1  0  0  0
 12 13  2  0  0  0
 12 92  1  0  0  0
 13 14  1  0  0  0
 13 31  1  0  0  0
 14 15  2  0  0  0
 14 93  1  0  0  0
 15 94  1  0  0  0
 16 17  2  0  0  0
 16 21  1  0  0  0
 16 31  1  0  0  0
 17 18  1  0  0  0
 17 95  1  0  0  0
 18 19  2  0  0  0
 18 96  1  0  0  0
 19 20  1  0  0  0
 19 24  1  0  0  0
 20 21  2  0  0  0
 20 97  1  0  0  0
 21 23  1  0  0  0
 22 28  1  0  0  0
 22 32  2  0  0  0
 26 27  1  0  0  0
 28 98  1  0  0  0
 28 99  1  0  0  0
 29100  1  0  0  0
 29101  1  0  0  0
 33 34  1  0  0  0
 33 66  1  0  0  0
 33 70  2  0  0  0
 34 36  1  0  0  0
 34 59  1  0  0  0
 34102  1  0  0  0
 35 44  2  0  0  0
 35 45  1  0  0  0
 35 68  1  0  0  0
 36 56  1  0  0  0
 36103  1  0  0  0
 37 39  1  0  0  0
 37 47  1  0  0  0
 37 66  1  0  0  0
 37104  1  0  0  0
 38 43  2  0  0  0
 38 46  1  0  0  0
 38 47  1  0  0  0
 39 64  1  0  0  0
 39 67  2  0  0  0
 40 52  1  0  0  0
 40 53  2  0  0  0
 40 58  1  0  0  0
 41105  1  0  0  0
 41106  1  0  0  0
 41107  1  0  0  0
 41 48  1  0  0  0
 42 43  1  0  0  0
 42 66  1  0  0  0
 42108  1  0  0  0
 42109  1  0  0  0
 43 44  1  0  0  0
 44110  1  0  0  0
 45 46  2  0  0  0
 45111  1  0  0  0
 46112  1  0  0  0
 47113  1  0  0  0
 47114  1  0  0  0
 48 56  1  0  0  0
 48 65  1  0  0  0
 48115  1  0  0  0
 49 50  1  0  0  0
 49 53  1  0  0  0
 49 64  1  0  0  0
 49116  1  0  0  0
 50 51  1  0  0  0
 50117  1  0  0  0
 50118  1  0  0  0
 51 52  1  0  0  0
 51119  1  0  0  0
 51120  1  0  0  0
 52121  1  0  0  0
 52122  1  0  0  0
 53 54  1  0  0  0
 54 55  2  0  0  0
 54123  1  0  0  0
 55 57  1  0  0  0
 55124  1  0  0  0
 56 69  2  0  0  0
 57 58  2  0  0  0
 57125  1  0  0  0
 58126  1  0  0  0
 59 60  1  0  0  0
 59 61  1  0  0  0
 59 62  1  0  0  0
 60127  1  0  0  0
 60128  1  0  0  0
 60129  1  0  0  0
 61130  1  0  0  0
 61131  1  0  0  0
 61132  1  0  0  0
 62133  1  0  0  0
 62134  1  0  0  0
 62135  1  0  0  0
 63 65  1  0  0  0
 63136  1  0  0  0
 63137  1  0  0  0
 63138  1  0  0  0
 64139  1  0  0  0
 65140  1  0  0  0
 68 78  1  0  0  0
 71 72  2  0  0  0
 71 73  1  0  0  0
 71141  1  0  0  0
 72 75  1  0  0  0
 72142  1  0  0  0
 73 74  2  0  0  0
 73 76  1  0  0  0
 74 79  1  0  0  0
 74 80  1  0  0  0
 75 80  2  0  0  0
 75 81  1  0  0  0
 76143  1  0  0  0
 76144  1  0  0  0
 76145  1  0  0  0
 77146  1  0  0  0
 77147  1  0  0  0
 77148  1  0  0  0
 77 79  1  0  0  0
 78 79  1  0  0  0
 78149  1  0  0  0
 78150  1  0  0  0
 79151  1  0  0  0
 81152  1  0  0  0
M  ISO  4   1 100  68 101  78 101  81 100
M  END
> <chiral flag>
0

> <version>
0

> <s_m_source_file>
/data/baiqing/PycharmProjects/Reinvent-master-3.2/result/LINK_invent/BTK/process_docking_weight1_custom_sum_contain_oxygen_bond_distance_aromatic_linkinvent_7_9_3/rearranged_h_0115.sdf

> <i_m_source_file_index>
5

> <r_mmod_Potential_Energy-OPLS-2005>
1377.12890625

> <r_mmod_Stretch_Energy-OPLS-2005>
711.700988769531

> <r_mmod_Bend_Energy-OPLS-2005>
503.597991943359

> <r_mmod_Torsional_Energy-OPLS-2005>
222.466018676758

> <r_mmod_Improper_Torsional_Energy-OPLS-2005>
4.44818592071533

> <r_mmod_Van_der_Waal_Energy-OPLS-2005>
123.498962402344

> <r_mmod_Electrostatic_Energy-OPLS-2005>
-511.317199707031

> <r_mmod_Solvation_Energy-OPLS-2005>
-224.665954589844

> <b_mmod_Minimization_Converged-OPLS-2005>
0

> <r_mmod_RMS_Derivative-OPLS-2005>
4.76589393615723

$$$$
5
                    3D
 Structure written by MMmdl.
168176  0  0  1  0            999 V2000
  -30.7285  -14.4632   20.5435 C   0  0  0  0  0  0
  -30.4106  -12.2947   19.4174 C   0  0  0  0  0  0
  -29.4799  -12.4882   18.2053 C   0  0  0  0  0  0
  -28.0050  -12.3424   18.6264 C   0  0  0  0  0  0
  -27.6572  -13.1829   19.8836 C   0  0  2  0  0  0
  -28.7104  -13.0094   21.0021 C   0  0  0  0  0  0
  -25.2633  -13.8065   20.5759 C   0  0  0  0  0  0
  -24.1866  -13.0401   20.9234 C   0  0  0  0  0  0
  -24.6385  -11.6854   20.8793 C   0  0  0  0  0  0
  -23.9009  -10.4279   21.0416 C   0  0  0  0  0  0
  -24.3567   -9.4198   21.9183 C   0  0  0  0  0  0
  -23.6293   -8.2208   22.0712 C   0  0  0  0  0  0
  -22.4274   -8.0258   21.3512 C   0  0  0  0  0  0
  -21.9898   -9.0219   20.4598 C   0  0  0  0  0  0
  -22.7195  -10.2121   20.3050 C   0  0  0  0  0  0
  -21.6849   -6.0744   22.5287 C   0  0  0  0  0  0
  -21.3992   -6.5632   23.8223 C   0  0  0  0  0  0
  -21.3672   -5.6779   24.9186 C   0  0  0  0  0  0
  -21.6056   -4.3046   24.7228 C   0  0  0  0  0  0
  -21.8826   -3.8154   23.4349 C   0  0  0  0  0  0
  -21.9196   -4.6976   22.3413 C   0  0  0  0  0  0
  -22.7887  -13.5221   21.1890 C   0  0  0  0  0  0
  -22.1668   -4.2171   21.0990 F   0  0  0  0  0  0
  -21.5644   -3.4520   25.7730 F   0  0  0  0  0  0
  -30.0365  -13.2986   20.4274 N   0  0  0  0  0  0
  -26.3025  -12.9176   20.3486 N   0  0  0  0  0  0
  -25.9305  -11.6368   20.5876 N   0  0  0  0  0  0
  -22.0506  -12.8200   22.0418 N   0  0  0  0  0  0
  -25.4467  -15.1772   20.4161 N   0  0  0  0  0  0
  -31.8672  -14.6108   20.0924 O   0  0  0  0  0  0
  -21.6631   -6.8869   21.4237 O   0  0  0  0  0  0
  -22.3602  -14.5559   20.6779 O   0  0  0  0  0  0
  -24.6182  -31.8680   23.2044 C   0  0  0  0  0  0
  -25.9061  -32.4815   23.8336 C   0  0  1  0  0  0
  -27.2113  -27.3778   20.0876 C   0  0  0  0  0  0
  -25.5896  -33.8609   24.2260 N   0  0  0  0  0  0
  -23.4047  -30.4976   21.5466 C   0  0  2  0  0  0
  -24.8467  -28.9641   20.1051 C   0  0  0  0  0  0
  -22.7429  -29.4706   22.4944 C   0  0  0  0  0  0
  -18.0277  -28.1424   22.8437 C   0  0  0  0  0  0
  -24.1496  -36.7318   23.2631 C   0  0  0  0  0  0
  -25.9429  -30.8107   21.3713 C   0  0  0  0  0  0
  -26.0139  -29.4427   20.7153 C   0  0  0  0  0  0
  -27.1975  -28.6569   20.7074 C   0  0  0  0  0  0
  -26.0209  -26.9477   19.4473 C   0  0  0  0  0  0
  -24.8494  -27.7181   19.4661 C   0  0  0  0  0  0
  -23.6105  -29.8328   20.1608 C   0  0  0  0  0  0
  -25.4123  -36.3111   24.0324 C   0  0  1  0  0  0
  -20.5865  -28.3727   23.1267 C   0  0  2  0  0  0
  -20.6772  -26.9458   22.5399 C   0  0  0  0  0  0
  -19.5764  -26.6408   21.5188 C   0  0  0  0  0  0
  -18.1935  -26.7955   22.1592 C   0  0  0  0  0  0
  -19.1521  -28.8884   23.2838 C   0  0  0  0  0  0
  -18.9473  -30.1484   23.8870 C   0  0  0  0  0  0
  -17.6479  -30.6614   24.0580 C   0  0  0  0  0  0
  -25.9063  -34.9485   23.5102 C   0  0  0  0  0  0
  -16.5362  -29.9135   23.6328 C   0  0  0  0  0  0
  -16.7266  -28.6563   23.0300 C   0  0  0  0  0  0
  -26.4419  -31.6622   25.0708 C   0  0  0  0  0  0
  -25.3606  -31.3820   26.1414 C   0  0  0  0  0  0
  -27.0253  -30.3042   24.6171 C   0  0  0  0  0  0
  -27.5981  -32.4348   25.7480 C   0  0  0  0  0  0
  -27.5605  -37.1812   24.8445 C   0  0  0  0  0  0
  -21.4159  -29.3085   22.3678 N   0  0  0  0  0  0
  -26.4302  -37.3815   23.9411 N   0  0  0  0  0  0
  -24.6734  -31.0750   22.0976 N   0  0  0  0  0  0
  -23.4203  -28.8238   23.2979 O   0  0  0  0  0  0
  -28.3437  -26.5634   20.1368 O   0  0  0  0  0  0
  -26.5660  -34.8950   22.4687 O   0  0  0  0  0  0
  -23.5368  -32.1479   23.7424 O   0  0  0  0  0  0
  -29.6327  -20.2038   18.5319 C   0  0  0  0  0  0
  -29.4572  -18.9285   17.9793 C   0  0  0  0  0  0
  -29.6524  -17.7928   18.8017 C   0  0  0  0  0  0
  -29.9982  -20.3517   19.8809 C   0  0  0  0  0  0
  -30.1208  -17.9952   20.1338 C   0  0  0  0  0  0
  -29.0496  -18.8360   16.5162 C   0  0  0  0  0  0
  -29.3113  -16.4193   18.2523 C   0  0  0  0  0  0
  -30.5555  -16.8917   21.1356 C   0  0  0  0  0  0
  -30.0874  -21.7371   22.0628 C   0  0  0  0  0  0
  -29.2006  -22.8406   19.8978 C   0  0  0  0  0  0
  -31.4381  -21.4057   22.7278 C   0  0  0  0  0  0
  -28.1506  -25.1935   19.7800 C   0  0  0  0  0  0
  -30.1792  -21.7670   20.5116 C   0  0  2  0  0  0
  -30.2790  -19.2520   20.6299 N   0  0  0  0  0  0
  -30.0418  -15.5145   21.0188 N   0  0  0  0  0  0
  -29.3282  -24.2571   20.3689 N   0  3  0  0  0  0
  -31.3579  -21.5997   24.1285 O   0  0  0  0  0  0
  -31.4551  -12.3697   19.1048 H   0  0  0  0  0  0
  -30.2963  -11.2904   19.8264 H   0  0  0  0  0  0
  -29.7189  -11.7653   17.4226 H   0  0  0  0  0  0
  -29.6374  -13.4744   17.7666 H   0  0  0  0  0  0
  -27.8110  -11.2862   18.8183 H   0  0  0  0  0  0
  -27.3484  -12.6242   17.8011 H   0  0  0  0  0  0
  -27.6799  -14.2204   19.5726 H   0  0  0  0  0  0
  -28.7017  -11.9908   21.3952 H   0  0  0  0  0  0
  -28.4848  -13.6542   21.8535 H   0  0  0  0  0  0
  -25.2693   -9.5704   22.4790 H   0  0  0  0  0  0
  -24.0047   -7.4579   22.7384 H   0  0  0  0  0  0
  -21.0846   -8.8705   19.8878 H   0  0  0  0  0  0
  -22.3619  -10.9677   19.6179 H   0  0  0  0  0  0
  -21.1949   -7.6134   23.9737 H   0  0  0  0  0  0
  -21.1487   -6.0496   25.9091 H   0  0  0  0  0  0
  -22.0599   -2.7617   23.2823 H   0  0  0  0  0  0
  -22.4066  -11.9837   22.4813 H   0  0  0  0  0  0
  -21.1114  -13.1205   22.2593 H   0  0  0  0  0  0
  -24.6859  -15.8400   20.5143 H   0  0  0  0  0  0
  -26.3108  -15.6053   20.1072 H   0  0  0  0  0  0
  -26.7119  -32.5484   23.1073 H   0  0  0  0  0  0
  -24.9914  -33.9736   25.0314 H   0  0  0  0  0  0
  -22.6925  -31.3145   21.4073 H   0  0  0  0  0  0
  -23.3784  -35.9623   23.3255 H   0  0  0  0  0  0
  -24.3593  -36.8990   22.2056 H   0  0  0  0  0  0
  -23.7220  -37.6496   23.6680 H   0  0  0  0  0  0
  -26.0665  -31.5742   20.6019 H   0  0  0  0  0  0
  -26.8281  -30.8573   21.9940 H   0  0  0  0  0  0
  -28.0905  -29.0142   21.2014 H   0  0  0  0  0  0
  -25.9530  -26.0080   18.9210 H   0  0  0  0  0  0
  -23.9580  -27.3532   18.9734 H   0  0  0  0  0  0
  -23.7120  -30.6044   19.3975 H   0  0  0  0  0  0
  -22.7304  -29.2550   19.8698 H   0  0  0  0  0  0
  -25.1309  -36.1947   25.0821 H   0  0  0  0  0  0
  -20.9927  -28.3316   24.1402 H   0  0  0  0  0  0
  -20.5649  -26.2366   23.3609 H   0  0  0  0  0  0
  -21.6652  -26.7484   22.1217 H   0  0  0  0  0  0
  -19.6945  -25.6308   21.1245 H   0  0  0  0  0  0
  -19.6707  -27.3190   20.6691 H   0  0  0  0  0  0
  -17.4200  -26.6631   21.4011 H   0  0  0  0  0  0
  -18.0380  -26.0123   22.9025 H   0  0  0  0  0  0
  -19.7965  -30.7285   24.2218 H   0  0  0  0  0  0
  -17.5066  -31.6281   24.5225 H   0  0  0  0  0  0
  -15.5374  -30.3052   23.7703 H   0  0  0  0  0  0
  -15.8649  -28.0932   22.6982 H   0  0  0  0  0  0
  -24.5712  -30.7258   25.7725 H   0  0  0  0  0  0
  -24.8857  -32.3030   26.4817 H   0  0  0  0  0  0
  -25.7843  -30.8960   27.0207 H   0  0  0  0  0  0
  -26.2855  -29.6835   24.1102 H   0  0  0  0  0  0
  -27.3845  -29.7260   25.4695 H   0  0  0  0  0  0
  -27.8756  -30.4332   23.9467 H   0  0  0  0  0  0
  -27.2575  -33.3634   26.2074 H   0  0  0  0  0  0
  -28.3776  -32.6947   25.0303 H   0  0  0  0  0  0
  -28.0651  -31.8456   26.5381 H   0  0  0  0  0  0
  -28.2583  -38.0154   24.7586 H   0  0  0  0  0  0
  -28.1143  -36.2699   24.6147 H   0  0  0  0  0  0
  -27.2331  -37.1314   25.8844 H   0  0  0  0  0  0
  -20.9357  -29.8806   21.6873 H   0  0  0  0  0  0
  -26.0185  -38.2885   24.1446 H   0  0  0  0  0  0
  -29.4657  -21.0512   17.8865 H   0  0  0  0  0  0
  -29.2560  -19.7730   15.9987 H   0  0  0  0  0  0
  -27.9811  -18.6333   16.4313 H   0  0  0  0  0  0
  -29.6054  -18.0606   15.9891 H   0  0  0  0  0  0
  -28.8067  -16.4316   17.2878 H   0  0  0  0  0  0
  -28.5931  -15.9760   18.9312 H   0  0  0  0  0  0
  -30.1892  -15.7809   18.1592 H   0  0  0  0  0  0
  -30.2749  -17.2226   22.1354 H   0  0  0  0  0  0
  -31.6486  -16.8822   21.1475 H   0  0  0  0  0  0
  -29.7805  -22.7131   22.4312 H   0  0  0  0  0  0
  -29.3045  -21.0504   22.3915 H   0  0  0  0  0  0
  -28.1715  -22.5066   20.0417 H   0  0  0  0  0  0
  -29.3606  -22.9049   18.8231 H   0  0  0  0  0  0
  -32.2323  -22.0463   22.3360 H   0  0  0  0  0  0
  -31.7302  -20.3764   22.5161 H   0  0  0  0  0  0
  -27.2265  -24.7950   20.2079 H   0  0  0  0  0  0
  -28.1175  -25.0938   18.6933 H   0  0  0  0  0  0
  -31.1881  -22.0761   20.2392 H   0  0  0  0  0  0
  -29.1062  -15.3423   21.3524 H   0  0  0  0  0  0
  -30.2290  -24.6102   20.0914 H   0  0  0  0  0  0
  -29.2966  -24.2725   21.3739 H   0  0  0  0  0  0
  -31.3698  -22.5391   24.3012 H   0  0  0  0  0  0
  1 25  1  0  0  0
  1 30  2  0  0  0
  1 85  1  0  0  0
  2  3  1  0  0  0
  2 25  1  0  0  0
  2 88  1  0  0  0
  2 89  1  0  0  0
  3  4  1  0  0  0
  3 90  1  0  0  0
  3 91  1  0  0  0
  4  5  1  0  0  0
  4 92  1  0  0  0
  4 93  1  0  0  0
  5  6  1  0  0  0
  5 26  1  0  0  0
  5 94  1  0  0  0
  6 25  1  0  0  0
  6 95  1  0  0  0
  6 96  1  0  0  0
  7  8  2  0  0  0
  7 26  1  0  0  0
  7 29  1  0  0  0
  8  9  1  0  0  0
  8 22  1  0  0  0
  9 10  1  0  0  0
  9 27  2  0  0  0
 10 11  2  0  0  0
 10 15  1  0  0  0
 11 12  1  0  0  0
 11 97  1  0  0  0
 12 13  2  0  0  0
 12 98  1  0  0  0
 13 14  1  0  0  0
 13 31  1  0  0  0
 14 15  2  0  0  0
 14 99  1  0  0  0
 15100  1  0  0  0
 16 17  2  0  0  0
 16 21  1  0  0  0
 16 31  1  0  0  0
 17 18  1  0  0  0
 17101  1  0  0  0
 18 19  2  0  0  0
 18102  1  0  0  0
 19 20  1  0  0  0
 19 24  1  0  0  0
 20 21  2  0  0  0
 20103  1  0  0  0
 21 23  1  0  0  0
 22 28  1  0  0  0
 22 32  2  0  0  0
 26 27  1  0  0  0
 28104  1  0  0  0
 28105  1  0  0  0
 29106  1  0  0  0
 29107  1  0  0  0
 33 34  1  0  0  0
 33 66  1  0  0  0
 33 70  2  0  0  0
 34 36  1  0  0  0
 34 59  1  0  0  0
 34108  1  0  0  0
 35 44  2  0  0  0
 35 45  1  0  0  0
 35 68  1  0  0  0
 36 56  1  0  0  0
 36109  1  0  0  0
 37 39  1  0  0  0
 37 47  1  0  0  0
 37 66  1  0  0  0
 37110  1  0  0  0
 38 43  2  0  0  0
 38 46  1  0  0  0
 38 47  1  0  0  0
 39 64  1  0  0  0
 39 67  2  0  0  0
 40 52  1  0  0  0
 40 53  2  0  0  0
 40 58  1  0  0  0
 41111  1  0  0  0
 41112  1  0  0  0
 41113  1  0  0  0
 41 48  1  0  0  0
 42 43  1  0  0  0
 42 66  1  0  0  0
 42114  1  0  0  0
 42115  1  0  0  0
 43 44  1  0  0  0
 44116  1  0  0  0
 45 46  2  0  0  0
 45117  1  0  0  0
 46118  1  0  0  0
 47119  1  0  0  0
 47120  1  0  0  0
 48 56  1  0  0  0
 48 65  1  0  0  0
 48121  1  0  0  0
 49 50  1  0  0  0
 49 53  1  0  0  0
 49 64  1  0  0  0
 49122  1  0  0  0
 50 51  1  0  0  0
 50123  1  0  0  0
 50124  1  0  0  0
 51 52  1  0  0  0
 51125  1  0  0  0
 51126  1  0  0  0
 52127  1  0  0  0
 52128  1  0  0  0
 53 54  1  0  0  0
 54 55  2  0  0  0
 54129  1  0  0  0
 55 57  1  0  0  0
 55130  1  0  0  0
 56 69  2  0  0  0
 57 58  2  0  0  0
 57131  1  0  0  0
 58132  1  0  0  0
 59 60  1  0  0  0
 59 61  1  0  0  0
 59 62  1  0  0  0
 60133  1  0  0  0
 60134  1  0  0  0
 60135  1  0  0  0
 61136  1  0  0  0
 61137  1  0  0  0
 61138  1  0  0  0
 62139  1  0  0  0
 62140  1  0  0  0
 62141  1  0  0  0
 63 65  1  0  0  0
 63142  1  0  0  0
 63143  1  0  0  0
 63144  1  0  0  0
 64145  1  0  0  0
 65146  1  0  0  0
 68 82  1  0  0  0
 71 72  2  0  0  0
 71 74  1  0  0  0
 71147  1  0  0  0
 72 73  1  0  0  0
 72 76  1  0  0  0
 73 75  2  0  0  0
 73 77  1  0  0  0
 74 83  1  0  0  0
 74 84  2  0  0  0
 75 78  1  0  0  0
 75 84  1  0  0  0
 76148  1  0  0  0
 76149  1  0  0  0
 76150  1  0  0  0
 77151  1  0  0  0
 77152  1  0  0  0
 77153  1  0  0  0
 78 85  1  0  0  0
 78154  1  0  0  0
 78155  1  0  0  0
 79 81  1  0  0  0
 79156  1  0  0  0
 79157  1  0  0  0
 79 83  1  0  0  0
 80 83  1  0  0  0
 80 86  1  0  0  0
 80158  1  0  0  0
 80159  1  0  0  0
 81 87  1  0  0  0
 81160  1  0  0  0
 81161  1  0  0  0
 82 86  1  0  0  0
 82162  1  0  0  0
 82163  1  0  0  0
 83164  1  0  0  0
 85165  1  0  0  0
 86166  1  0  0  0
 86167  1  0  0  0
 87168  1  0  0  0
M  CHG  1  86   1
M  ISO  4   1 100  68 101  82 101  85 100
M  END
> <chiral flag>
0

> <version>
0

> <s_m_source_file>
/data/baiqing/PycharmProjects/Reinvent-master-3.2/result/LINK_invent/BTK/process_docking_weight1_custom_sum_contain_oxygen_bond_distance_aromatic_linkinvent_7_9_3/rearranged_h_0115.sdf

> <i_m_source_file_index>
6

> <r_mmod_Potential_Energy-OPLS-2005>
-543.941589355469

> <r_mmod_Stretch_Energy-OPLS-2005>
52.1478042602539

> <r_mmod_Bend_Energy-OPLS-2005>
123.736473083496

> <r_mmod_Torsional_Energy-OPLS-2005>
209.788879394531

> <r_mmod_Improper_Torsional_Energy-OPLS-2005>
4.0587363243103

> <r_mmod_Van_der_Waal_Energy-OPLS-2005>
177.331237792969

> <r_mmod_Electrostatic_Energy-OPLS-2005>
-601.695434570312

> <r_mmod_Solvation_Energy-OPLS-2005>
-531.988037109375

> <b_mmod_Minimization_Converged-OPLS-2005>
0

> <r_mmod_RMS_Derivative-OPLS-2005>
4.53219699859619

$$$$
6
                    3D
 Structure written by MMmdl.
161169  0  0  1  0            999 V2000
  -30.5849  -14.6773   20.4650 C   0  0  0  0  0  0
  -30.4399  -12.4122   19.4382 C   0  0  0  0  0  0
  -29.5021  -12.4981   18.2119 C   0  0  0  0  0  0
  -28.0260  -12.3289   18.6294 C   0  0  0  0  0  0
  -27.6448  -13.2095   19.8494 C   0  0  2  0  0  0
  -28.6938  -13.0856   20.9774 C   0  0  0  0  0  0
  -25.2535  -13.8145   20.5652 C   0  0  0  0  0  0
  -24.1818  -13.0425   20.9210 C   0  0  0  0  0  0
  -24.6377  -11.6895   20.8756 C   0  0  0  0  0  0
  -23.9052  -10.4281   21.0415 C   0  0  0  0  0  0
  -24.3609   -9.4197   21.9188 C   0  0  0  0  0  0
  -23.6286   -8.2234   22.0752 C   0  0  0  0  0  0
  -22.4277   -8.0266   21.3533 C   0  0  0  0  0  0
  -21.9906   -9.0244   20.4641 C   0  0  0  0  0  0
  -22.7233  -10.2121   20.3055 C   0  0  0  0  0  0
  -21.6858   -6.0732   22.5286 C   0  0  0  0  0  0
  -21.4008   -6.5643   23.8213 C   0  0  0  0  0  0
  -21.3651   -5.6787   24.9167 C   0  0  0  0  0  0
  -21.6047   -4.3050   24.7225 C   0  0  0  0  0  0
  -21.8826   -3.8139   23.4351 C   0  0  0  0  0  0
  -21.9183   -4.6953   22.3411 C   0  0  0  0  0  0
  -22.7838  -13.5211   21.1879 C   0  0  0  0  0  0
  -22.1665   -4.2136   21.0992 F   0  0  0  0  0  0
  -21.5614   -3.4530   25.7739 F   0  0  0  0  0  0
  -29.9987  -13.4397   20.4004 N   0  0  0  0  0  0
  -26.2939  -12.9307   20.3251 N   0  0  0  0  0  0
  -25.9294  -11.6474   20.5749 N   0  0  0  0  0  0
  -22.0485  -12.8209   22.0428 N   0  0  0  0  0  0
  -25.4277  -15.1860   20.4027 N   0  0  0  0  0  0
  -31.7702  -14.8496   20.1716 O   0  0  0  0  0  0
  -21.6647   -6.8867   21.4241 O   0  0  0  0  0  0
  -22.3533  -14.5535   20.6740 O   0  0  0  0  0  0
  -24.6286  -31.8542   23.1969 C   0  0  0  0  0  0
  -25.9127  -32.4744   23.8293 C   0  0  1  0  0  0
  -27.2321  -27.3028   20.1122 C   0  0  0  0  0  0
  -25.5942  -33.8551   24.2216 N   0  0  0  0  0  0
  -23.4221  -30.4734   21.5414 C   0  0  2  0  0  0
  -24.8658  -28.9104   20.1203 C   0  0  0  0  0  0
  -22.7490  -29.4606   22.4976 C   0  0  0  0  0  0
  -18.0275  -28.1391   22.8483 C   0  0  0  0  0  0
  -24.1498  -36.7255   23.2650 C   0  0  0  0  0  0
  -25.9638  -30.7753   21.3741 C   0  0  0  0  0  0
  -26.0337  -29.3981   20.7228 C   0  0  0  0  0  0
  -27.2168  -28.6036   20.7109 C   0  0  0  0  0  0
  -26.0422  -26.8641   19.4958 C   0  0  0  0  0  0
  -24.8690  -27.6479   19.5037 C   0  0  0  0  0  0
  -23.6352  -29.7951   20.1622 C   0  0  0  0  0  0
  -25.4127  -36.3058   24.0338 C   0  0  1  0  0  0
  -20.5869  -28.3682   23.1310 C   0  0  2  0  0  0
  -20.6763  -26.9405   22.5420 C   0  0  0  0  0  0
  -19.5743  -26.6380   21.5231 C   0  0  0  0  0  0
  -18.1911  -26.7937   22.1616 C   0  0  0  0  0  0
  -19.1518  -28.8855   23.2878 C   0  0  0  0  0  0
  -18.9444  -30.1470   23.8874 C   0  0  0  0  0  0
  -17.6440  -30.6593   24.0563 C   0  0  0  0  0  0
  -25.9062  -34.9445   23.5065 C   0  0  0  0  0  0
  -16.5328  -29.9081   23.6357 C   0  0  0  0  0  0
  -16.7264  -28.6500   23.0372 C   0  0  0  0  0  0
  -26.4497  -31.6600   25.0695 C   0  0  0  0  0  0
  -25.3723  -31.3815   26.1422 C   0  0  0  0  0  0
  -27.0307  -30.3000   24.6202 C   0  0  0  0  0  0
  -27.6053  -32.4351   25.7448 C   0  0  0  0  0  0
  -27.5581  -37.1788   24.8473 C   0  0  0  0  0  0
  -21.4201  -29.3029   22.3714 N   0  0  0  0  0  0
  -26.4297  -37.3760   23.9421 N   0  0  0  0  0  0
  -24.6903  -31.0538   22.0930 N   0  0  0  0  0  0
  -23.4199  -28.8166   23.3078 O   0  0  0  0  0  0
  -28.3966  -26.5188   20.0571 O   0  0  0  0  0  0
  -26.5609  -34.8930   22.4624 O   0  0  0  0  0  0
  -23.5445  -32.1340   23.7296 O   0  0  0  0  0  0
  -27.6288  -24.2131   20.7748 C   0  0  0  0  0  0
  -29.7630  -23.2299   19.3924 C   0  0  0  0  0  0
  -27.9127  -22.8082   20.8376 C   0  0  0  0  0  0
  -29.0293  -22.2609   20.1301 C   0  0  0  0  0  0
  -28.4566  -25.1001   20.0405 C   0  0  0  0  0  0
  -27.0289  -21.9354   21.7114 C   0  0  0  0  0  0
  -28.4355  -20.1456   17.3861 C   0  0  0  0  0  0
  -29.5837  -20.7565   20.2200 C   0  0  0  0  0  0
  -29.8742  -17.2301   20.8165 C   0  0  0  0  0  0
  -27.7699  -19.8605   18.7491 C   0  0  0  0  0  0
  -29.3776  -18.1572   19.6120 C   0  0  0  0  0  0
  -29.5081  -24.5740   19.3616 N   0  0  0  0  0  0
  -29.7208  -15.7266   20.6582 N   0  0  0  0  0  0
  -28.7309  -19.5423   19.8515 N   0  3  1  0  0  0
  -31.4766  -12.5591   19.1300 H   0  0  0  0  0  0
  -30.3935  -11.4206   19.8932 H   0  0  0  0  0  0
  -29.7745  -11.7379   17.4777 H   0  0  0  0  0  0
  -29.6294  -13.4601   17.7115 H   0  0  0  0  0  0
  -27.8733  -11.2774   18.8725 H   0  0  0  0  0  0
  -27.3665  -12.5417   17.7865 H   0  0  0  0  0  0
  -27.6530  -14.2382   19.4898 H   0  0  0  0  0  0
  -28.7203  -12.0684   21.3715 H   0  0  0  0  0  0
  -28.4383  -13.7289   21.8217 H   0  0  0  0  0  0
  -25.2760   -9.5680   22.4749 H   0  0  0  0  0  0
  -24.0008   -7.4626   22.7466 H   0  0  0  0  0  0
  -21.0835   -8.8744   19.8952 H   0  0  0  0  0  0
  -22.3686  -10.9645   19.6152 H   0  0  0  0  0  0
  -21.2023   -7.6157   23.9709 H   0  0  0  0  0  0
  -21.1459   -6.0519   25.9062 H   0  0  0  0  0  0
  -22.0611   -2.7595   23.2849 H   0  0  0  0  0  0
  -22.4095  -11.9838   22.4772 H   0  0  0  0  0  0
  -21.1094  -13.1213   22.2636 H   0  0  0  0  0  0
  -24.6621  -15.8417   20.5093 H   0  0  0  0  0  0
  -26.2599  -15.6138   20.0221 H   0  0  0  0  0  0
  -26.7207  -32.5389   23.1046 H   0  0  0  0  0  0
  -25.0271  -33.9702   25.0482 H   0  0  0  0  0  0
  -22.7198  -31.2959   21.3930 H   0  0  0  0  0  0
  -23.3792  -35.9552   23.3283 H   0  0  0  0  0  0
  -24.3618  -36.8861   22.2065 H   0  0  0  0  0  0
  -23.7201  -37.6436   23.6672 H   0  0  0  0  0  0
  -26.1089  -31.5370   20.6076 H   0  0  0  0  0  0
  -26.8423  -30.8214   22.0054 H   0  0  0  0  0  0
  -28.1212  -28.9813   21.1636 H   0  0  0  0  0  0
  -26.0157  -25.9040   18.9993 H   0  0  0  0  0  0
  -23.9754  -27.2668   19.0281 H   0  0  0  0  0  0
  -23.7524  -30.5603   19.3959 H   0  0  0  0  0  0
  -22.7585  -29.2169   19.8658 H   0  0  0  0  0  0
  -25.1326  -36.1883   25.0832 H   0  0  0  0  0  0
  -20.9961  -28.3209   24.1438 H   0  0  0  0  0  0
  -20.5687  -26.2285   23.3612 H   0  0  0  0  0  0
  -21.6632  -26.7457   22.1195 H   0  0  0  0  0  0
  -19.6905  -25.6297   21.1261 H   0  0  0  0  0  0
  -19.6688  -27.3207   20.6777 H   0  0  0  0  0  0
  -17.4205  -26.6731   21.3980 H   0  0  0  0  0  0
  -18.0262  -26.0072   22.8997 H   0  0  0  0  0  0
  -19.7925  -30.7295   24.2204 H   0  0  0  0  0  0
  -17.5005  -31.6275   24.5175 H   0  0  0  0  0  0
  -15.5330  -30.2969   23.7727 H   0  0  0  0  0  0
  -15.8665  -28.0835   22.7090 H   0  0  0  0  0  0
  -24.5930  -30.7108   25.7807 H   0  0  0  0  0  0
  -24.8895  -32.3016   26.4738 H   0  0  0  0  0  0
  -25.8038  -30.9100   27.0262 H   0  0  0  0  0  0
  -26.2859  -29.6770   24.1249 H   0  0  0  0  0  0
  -27.3995  -29.7266   25.4719 H   0  0  0  0  0  0
  -27.8755  -30.4257   23.9431 H   0  0  0  0  0  0
  -27.2711  -33.3788   26.1792 H   0  0  0  0  0  0
  -28.3968  -32.6661   25.0307 H   0  0  0  0  0  0
  -28.0584  -31.8608   26.5535 H   0  0  0  0  0  0
  -28.2601  -38.0086   24.7522 H   0  0  0  0  0  0
  -28.1052  -36.2618   24.6274 H   0  0  0  0  0  0
  -27.2304  -37.1372   25.8874 H   0  0  0  0  0  0
  -20.9389  -29.8716   21.6883 H   0  0  0  0  0  0
  -26.0156  -38.2823   24.1423 H   0  0  0  0  0  0
  -26.8013  -24.6269   21.3317 H   0  0  0  0  0  0
  -30.6386  -22.9207   18.8378 H   0  0  0  0  0  0
  -26.2503  -22.5258   22.1961 H   0  0  0  0  0  0
  -27.6107  -21.4530   22.4971 H   0  0  0  0  0  0
  -26.5197  -21.1715   21.1271 H   0  0  0  0  0  0
  -27.6777  -20.4086   16.6472 H   0  0  0  0  0  0
  -28.9752  -19.2807   17.0022 H   0  0  0  0  0  0
  -29.1329  -20.9829   17.4314 H   0  0  0  0  0  0
  -29.9865  -20.6012   21.2224 H   0  0  0  0  0  0
  -30.4587  -20.7153   19.5688 H   0  0  0  0  0  0
  -29.3155  -17.4903   21.7159 H   0  0  0  0  0  0
  -30.9145  -17.4603   21.0461 H   0  0  0  0  0  0
  -27.0545  -19.0447   18.6381 H   0  0  0  0  0  0
  -27.1578  -20.7200   19.0163 H   0  0  0  0  0  0
  -28.6345  -17.5505   19.0931 H   0  0  0  0  0  0
  -30.1868  -18.2617   18.8885 H   0  0  0  0  0  0
  -28.7746  -15.4031   20.7926 H   0  0  0  0  0  0
  -28.1384  -19.3947   20.6551 H   0  0  0  0  0  0
  1 25  1  0  0  0
  1 30  2  0  0  0
  1 83  1  0  0  0
  2  3  1  0  0  0
  2 25  1  0  0  0
  2 85  1  0  0  0
  2 86  1  0  0  0
  3  4  1  0  0  0
  3 87  1  0  0  0
  3 88  1  0  0  0
  4  5  1  0  0  0
  4 89  1  0  0  0
  4 90  1  0  0  0
  5  6  1  0  0  0
  5 26  1  0  0  0
  5 91  1  0  0  0
  6 25  1  0  0  0
  6 92  1  0  0  0
  6 93  1  0  0  0
  7  8  2  0  0  0
  7 26  1  0  0  0
  7 29  1  0  0  0
  8  9  1  0  0  0
  8 22  1  0  0  0
  9 10  1  0  0  0
  9 27  2  0  0  0
 10 11  2  0  0  0
 10 15  1  0  0  0
 11 12  1  0  0  0
 11 94  1  0  0  0
 12 13  2  0  0  0
 12 95  1  0  0  0
 13 14  1  0  0  0
 13 31  1  0  0  0
 14 15  2  0  0  0
 14 96  1  0  0  0
 15 97  1  0  0  0
 16 17  2  0  0  0
 16 21  1  0  0  0
 16 31  1  0  0  0
 17 18  1  0  0  0
 17 98  1  0  0  0
 18 19  2  0  0  0
 18 99  1  0  0  0
 19 20  1  0  0  0
 19 24  1  0  0  0
 20 21  2  0  0  0
 20100  1  0  0  0
 21 23  1  0  0  0
 22 28  1  0  0  0
 22 32  2  0  0  0
 26 27  1  0  0  0
 28101  1  0  0  0
 28102  1  0  0  0
 29103  1  0  0  0
 29104  1  0  0  0
 33 34  1  0  0  0
 33 66  1  0  0  0
 33 70  2  0  0  0
 34 36  1  0  0  0
 34 59  1  0  0  0
 34105  1  0  0  0
 35 44  2  0  0  0
 35 45  1  0  0  0
 35 68  1  0  0  0
 36 56  1  0  0  0
 36106  1  0  0  0
 37 39  1  0  0  0
 37 47  1  0  0  0
 37 66  1  0  0  0
 37107  1  0  0  0
 38 43  2  0  0  0
 38 46  1  0  0  0
 38 47  1  0  0  0
 39 64  1  0  0  0
 39 67  2  0  0  0
 40 52  1  0  0  0
 40 53  2  0  0  0
 40 58  1  0  0  0
 41108  1  0  0  0
 41109  1  0  0  0
 41110  1  0  0  0
 41 48  1  0  0  0
 42 43  1  0  0  0
 42 66  1  0  0  0
 42111  1  0  0  0
 42112  1  0  0  0
 43 44  1  0  0  0
 44113  1  0  0  0
 45 46  2  0  0  0
 45114  1  0  0  0
 46115  1  0  0  0
 47116  1  0  0  0
 47117  1  0  0  0
 48 56  1  0  0  0
 48 65  1  0  0  0
 48118  1  0  0  0
 49 50  1  0  0  0
 49 53  1  0  0  0
 49 64  1  0  0  0
 49119  1  0  0  0
 50 51  1  0  0  0
 50120  1  0  0  0
 50121  1  0  0  0
 51 52  1  0  0  0
 51122  1  0  0  0
 51123  1  0  0  0
 52124  1  0  0  0
 52125  1  0  0  0
 53 54  1  0  0  0
 54 55  2  0  0  0
 54126  1  0  0  0
 55 57  1  0  0  0
 55127  1  0  0  0
 56 69  2  0  0  0
 57 58  2  0  0  0
 57128  1  0  0  0
 58129  1  0  0  0
 59 60  1  0  0  0
 59 61  1  0  0  0
 59 62  1  0  0  0
 60130  1  0  0  0
 60131  1  0  0  0
 60132  1  0  0  0
 61133  1  0  0  0
 61134  1  0  0  0
 61135  1  0  0  0
 62136  1  0  0  0
 62137  1  0  0  0
 62138  1  0  0  0
 63 65  1  0  0  0
 63139  1  0  0  0
 63140  1  0  0  0
 63141  1  0  0  0
 64142  1  0  0  0
 65143  1  0  0  0
 68 75  1  0  0  0
 71 73  2  0  0  0
 71 75  1  0  0  0
 71144  1  0  0  0
 72 74  2  0  0  0
 72 82  1  0  0  0
 72145  1  0  0  0
 73 74  1  0  0  0
 73 76  1  0  0  0
 74 78  1  0  0  0
 75 82  2  0  0  0
 76146  1  0  0  0
 76147  1  0  0  0
 76148  1  0  0  0
 77 80  1  0  0  0
 77149  1  0  0  0
 77150  1  0  0  0
 77151  1  0  0  0
 78152  1  0  0  0
 78153  1  0  0  0
 78 84  1  0  0  0
 79 81  1  0  0  0
 79 83  1  0  0  0
 79154  1  0  0  0
 79155  1  0  0  0
 80 84  1  0  0  0
 80156  1  0  0  0
 80157  1  0  0  0
 81 84  1  0  0  0
 81158  1  0  0  0
 81159  1  0  0  0
 83160  1  0  0  0
 84161  1  0  0  0
M  CHG  1  84   1
M  ISO  4   1 100  68 101  75 101  83 100
M  END
> <chiral flag>
0

> <version>
0

> <s_m_source_file>
/data/baiqing/PycharmProjects/Reinvent-master-3.2/result/LINK_invent/BTK/process_docking_weight1_custom_sum_contain_oxygen_bond_distance_aromatic_linkinvent_7_9_3/rearranged_h_0115.sdf

> <i_m_source_file_index>
7

> <r_mmod_Potential_Energy-OPLS-2005>
-138.683135986328

> <r_mmod_Stretch_Energy-OPLS-2005>
94.7279510498047

> <r_mmod_Bend_Energy-OPLS-2005>
174.079513549805

> <r_mmod_Torsional_Energy-OPLS-2005>
226.908508300781

> <r_mmod_Improper_Torsional_Energy-OPLS-2005>
6.2672004699707

> <r_mmod_Van_der_Waal_Energy-OPLS-2005>
136.468627929688

> <r_mmod_Electrostatic_Energy-OPLS-2005>
-352.859100341797

> <r_mmod_Solvation_Energy-OPLS-2005>
-480.741729736328

> <b_mmod_Minimization_Converged-OPLS-2005>
0

> <r_mmod_RMS_Derivative-OPLS-2005>
3.74714159965515

$$$$
7
                    3D
 Structure written by MMmdl.
168177  0  0  1  0            999 V2000
  -30.7315  -14.4840   20.5654 C   0  0  0  0  0  0
  -30.4215  -12.3203   19.4177 C   0  0  0  0  0  0
  -29.4903  -12.4939   18.2011 C   0  0  0  0  0  0
  -28.0141  -12.3351   18.6192 C   0  0  0  0  0  0
  -27.6494  -13.1896   19.8612 C   0  0  2  0  0  0
  -28.7021  -13.0284   20.9842 C   0  0  0  0  0  0
  -25.2564  -13.8095   20.5699 C   0  0  0  0  0  0
  -24.1809  -13.0402   20.9210 C   0  0  0  0  0  0
  -24.6346  -11.6865   20.8755 C   0  0  0  0  0  0
  -23.9009  -10.4270   21.0413 C   0  0  0  0  0  0
  -24.3581   -9.4191   21.9187 C   0  0  0  0  0  0
  -23.6279   -8.2215   22.0752 C   0  0  0  0  0  0
  -22.4266   -8.0254   21.3540 C   0  0  0  0  0  0
  -21.9882   -9.0220   20.4644 C   0  0  0  0  0  0
  -22.7187  -10.2111   20.3053 C   0  0  0  0  0  0
  -21.6851   -6.0716   22.5280 C   0  0  0  0  0  0
  -21.4004   -6.5623   23.8209 C   0  0  0  0  0  0
  -21.3662   -5.6774   24.9173 C   0  0  0  0  0  0
  -21.6052   -4.3039   24.7226 C   0  0  0  0  0  0
  -21.8823   -3.8128   23.4346 C   0  0  0  0  0  0
  -21.9198   -4.6943   22.3400 C   0  0  0  0  0  0
  -22.7837  -13.5229   21.1863 C   0  0  0  0  0  0
  -22.1667   -4.2132   21.0980 F   0  0  0  0  0  0
  -21.5645   -3.4526   25.7741 F   0  0  0  0  0  0
  -30.0309  -13.3222   20.4202 N   0  0  0  0  0  0
  -26.2962  -12.9215   20.3336 N   0  0  0  0  0  0
  -25.9262  -11.6402   20.5767 N   0  0  0  0  0  0
  -22.0456  -12.8239   22.0415 N   0  0  0  0  0  0
  -25.4279  -15.1816   20.4103 N   0  0  0  0  0  0
  -31.8804  -14.6317   20.1418 O   0  0  0  0  0  0
  -21.6632   -6.8852   21.4239 O   0  0  0  0  0  0
  -22.3535  -14.5532   20.6692 O   0  0  0  0  0  0
  -24.6120  -31.8695   23.2119 C   0  0  0  0  0  0
  -25.9018  -32.4832   23.8413 C   0  0  1  0  0  0
  -27.2408  -27.4605   20.1004 C   0  0  0  0  0  0
  -25.5887  -33.8628   24.2343 N   0  0  0  0  0  0
  -23.3994  -30.4921   21.5515 C   0  0  2  0  0  0
  -24.8488  -28.9594   20.1169 C   0  0  0  0  0  0
  -22.7402  -29.4658   22.5009 C   0  0  0  0  0  0
  -18.0264  -28.1371   22.8501 C   0  0  0  0  0  0
  -24.1485  -36.7322   23.2642 C   0  0  0  0  0  0
  -25.9255  -30.8439   21.3614 C   0  0  0  0  0  0
  -26.0064  -29.4793   20.7110 C   0  0  0  0  0  0
  -27.2075  -28.7375   20.6982 C   0  0  0  0  0  0
  -26.0707  -26.9490   19.4984 C   0  0  0  0  0  0
  -24.8743  -27.6921   19.5079 C   0  0  0  0  0  0
  -23.6076  -29.8216   20.1670 C   0  0  0  0  0  0
  -25.4101  -36.3120   24.0351 C   0  0  1  0  0  0
  -20.5856  -28.3649   23.1339 C   0  0  2  0  0  0
  -20.6755  -26.9390   22.5428 C   0  0  0  0  0  0
  -19.5737  -26.6382   21.5223 C   0  0  0  0  0  0
  -18.1914  -26.7921   22.1630 C   0  0  0  0  0  0
  -19.1512  -28.8827   23.2919 C   0  0  0  0  0  0
  -18.9441  -30.1436   23.8918 C   0  0  0  0  0  0
  -17.6445  -30.6584   24.0558 C   0  0  0  0  0  0
  -25.9026  -34.9485   23.5144 C   0  0  0  0  0  0
  -16.5335  -29.9086   23.6324 C   0  0  0  0  0  0
  -16.7257  -28.6501   23.0351 C   0  0  0  0  0  0
  -26.4461  -31.6605   25.0729 C   0  0  0  0  0  0
  -25.3744  -31.3719   26.1499 C   0  0  0  0  0  0
  -27.0283  -30.3050   24.6085 C   0  0  0  0  0  0
  -27.6056  -32.4317   25.7468 C   0  0  0  0  0  0
  -27.5586  -37.1807   24.8457 C   0  0  0  0  0  0
  -21.4133  -29.3022   22.3750 N   0  0  0  0  0  0
  -26.4288  -37.3803   23.9418 N   0  0  0  0  0  0
  -24.6637  -31.0828   22.1000 N   0  0  0  0  0  0
  -23.4191  -28.8207   23.3036 O   0  0  0  0  0  0
  -28.4045  -26.7303   20.0902 O   0  0  0  0  0  0
  -26.5596  -34.8936   22.4705 O   0  0  0  0  0  0
  -23.5321  -32.1423   23.7537 O   0  0  0  0  0  0
  -31.2034  -17.6345   21.9203 C   0  0  0  0  0  0
  -29.7619  -17.7225   19.8826 C   0  0  0  0  0  0
  -28.6310  -21.1001   21.4655 C   0  0  0  0  0  0
  -30.5758  -16.2639   22.2792 C   0  0  0  0  0  0
  -29.1688  -16.3490   20.2608 C   0  0  0  0  0  0
  -28.2594  -22.4932   20.9579 C   0  0  0  0  0  0
  -30.5570  -22.4205   20.8989 C   0  0  0  0  0  0
  -30.2211  -18.5209   21.1122 C   0  0  0  0  0  0
  -30.1710  -21.0342   21.4725 C   0  0  2  0  0  0
  -32.2023  -19.9567   20.5247 C   0  0  0  0  0  0
  -29.4594  -24.5494   20.4418 C   0  0  0  0  0  0
  -28.3453  -25.5309   20.8648 C   0  0  0  0  0  0
  -30.0634  -15.5349   21.1042 N   0  0  0  0  0  0
  -29.4395  -23.3064   21.2277 N   0  0  0  0  0  0
  -30.7271  -19.8778   20.6960 N   0  3  1  0  0  0
  -31.4639  -12.4203   19.1089 H   0  0  0  0  0  0
  -30.3303  -11.3166   19.8372 H   0  0  0  0  0  0
  -29.7399  -11.7633   17.4302 H   0  0  0  0  0  0
  -29.6438  -13.4765   17.7521 H   0  0  0  0  0  0
  -27.8420  -11.2796   18.8328 H   0  0  0  0  0  0
  -27.3579  -12.5848   17.7843 H   0  0  0  0  0  0
  -27.6515  -14.2179   19.5211 H   0  0  0  0  0  0
  -28.6890  -12.0095   21.3747 H   0  0  0  0  0  0
  -28.4626  -13.6734   21.8303 H   0  0  0  0  0  0
  -25.2729   -9.5692   22.4742 H   0  0  0  0  0  0
  -24.0011   -7.4603   22.7455 H   0  0  0  0  0  0
  -21.0820   -8.8711   19.8947 H   0  0  0  0  0  0
  -22.3635  -10.9638   19.6151 H   0  0  0  0  0  0
  -21.1974   -7.6127   23.9707 H   0  0  0  0  0  0
  -21.1491   -6.0504   25.9078 H   0  0  0  0  0  0
  -22.0604   -2.7592   23.2839 H   0  0  0  0  0  0
  -22.4067  -11.9923   22.4841 H   0  0  0  0  0  0
  -21.1057  -13.1261   22.2572 H   0  0  0  0  0  0
  -24.6604  -15.8349   20.5253 H   0  0  0  0  0  0
  -26.2814  -15.6225   20.0952 H   0  0  0  0  0  0
  -26.7092  -32.5560   23.1193 H   0  0  0  0  0  0
  -25.0038  -33.9790   25.0488 H   0  0  0  0  0  0
  -22.6866  -31.3080   21.4133 H   0  0  0  0  0  0
  -23.3755  -35.9647   23.3289 H   0  0  0  0  0  0
  -24.3590  -36.8943   22.2060 H   0  0  0  0  0  0
  -23.7223  -37.6524   23.6651 H   0  0  0  0  0  0
  -26.0351  -31.6110   20.5938 H   0  0  0  0  0  0
  -26.8143  -30.8979   21.9784 H   0  0  0  0  0  0
  -28.1029  -29.1352   21.1545 H   0  0  0  0  0  0
  -26.0856  -25.9799   19.0201 H   0  0  0  0  0  0
  -23.9853  -27.2867   19.0450 H   0  0  0  0  0  0
  -23.7123  -30.5949   19.4056 H   0  0  0  0  0  0
  -22.7333  -29.2379   19.8742 H   0  0  0  0  0  0
  -25.1275  -36.1992   25.0848 H   0  0  0  0  0  0
  -20.9953  -28.3203   24.1459 H   0  0  0  0  0  0
  -20.5664  -26.2256   23.3609 H   0  0  0  0  0  0
  -21.6624  -26.7438   22.1211 H   0  0  0  0  0  0
  -19.6892  -25.6300   21.1233 H   0  0  0  0  0  0
  -19.6684  -27.3209   20.6766 H   0  0  0  0  0  0
  -17.4195  -26.6692   21.4015 H   0  0  0  0  0  0
  -18.0293  -26.0049   22.9008 H   0  0  0  0  0  0
  -19.7921  -30.7236   24.2303 H   0  0  0  0  0  0
  -17.5006  -31.6267   24.5153 H   0  0  0  0  0  0
  -15.5334  -30.2990   23.7640 H   0  0  0  0  0  0
  -15.8661  -28.0821   22.7055 H   0  0  0  0  0  0
  -24.5855  -30.7141   25.7831 H   0  0  0  0  0  0
  -24.9015  -32.2886   26.5030 H   0  0  0  0  0  0
  -25.8099  -30.8804   27.0207 H   0  0  0  0  0  0
  -26.2811  -29.6815   24.1158 H   0  0  0  0  0  0
  -27.4080  -29.7287   25.4534 H   0  0  0  0  0  0
  -27.8639  -30.4376   23.9208 H   0  0  0  0  0  0
  -27.2679  -33.3594   26.2104 H   0  0  0  0  0  0
  -28.3824  -32.6913   25.0260 H   0  0  0  0  0  0
  -28.0775  -31.8405   26.5329 H   0  0  0  0  0  0
  -28.2595  -38.0115   24.7540 H   0  0  0  0  0  0
  -28.1092  -36.2654   24.6229 H   0  0  0  0  0  0
  -27.2320  -37.1401   25.8863 H   0  0  0  0  0  0
  -20.9291  -29.8747   21.6978 H   0  0  0  0  0  0
  -26.0186  -38.2883   24.1430 H   0  0  0  0  0  0
  -32.1154  -17.4432   21.3556 H   0  0  0  0  0  0
  -31.5025  -18.1474   22.8354 H   0  0  0  0  0  0
  -29.0118  -18.2873   19.3263 H   0  0  0  0  0  0
  -30.6031  -17.5761   19.2034 H   0  0  0  0  0  0
  -28.1582  -20.3490   20.8326 H   0  0  0  0  0  0
  -28.2511  -20.9533   22.4772 H   0  0  0  0  0  0
  -29.7464  -16.4082   22.9726 H   0  0  0  0  0  0
  -31.3087  -15.6555   22.8135 H   0  0  0  0  0  0
  -28.9519  -15.8425   19.3209 H   0  0  0  0  0  0
  -28.2181  -16.4721   20.7808 H   0  0  0  0  0  0
  -27.3646  -22.8791   21.4496 H   0  0  0  0  0  0
  -28.0628  -22.4524   19.8841 H   0  0  0  0  0  0
  -30.6603  -22.3651   19.8130 H   0  0  0  0  0  0
  -31.5008  -22.7924   21.3019 H   0  0  0  0  0  0
  -29.3441  -18.6499   21.7467 H   0  0  0  0  0  0
  -30.5216  -20.9693   22.5041 H   0  0  0  0  0  0
  -32.5714  -19.1411   19.9028 H   0  0  0  0  0  0
  -32.7142  -19.9201   21.4867 H   0  0  0  0  0  0
  -32.5073  -20.8766   20.0276 H   0  0  0  0  0  0
  -30.4263  -25.0398   20.5717 H   0  0  0  0  0  0
  -29.3670  -24.3267   19.3772 H   0  0  0  0  0  0
  -28.4612  -25.7932   21.9174 H   0  0  0  0  0  0
  -27.3719  -25.0498   20.7684 H   0  0  0  0  0  0
  -30.3557  -20.0083   19.7675 H   0  0  0  0  0  0
  1 25  1  0  0  0
  1 30  2  0  0  0
  1 83  1  0  0  0
  2  3  1  0  0  0
  2 25  1  0  0  0
  2 86  1  0  0  0
  2 87  1  0  0  0
  3  4  1  0  0  0
  3 88  1  0  0  0
  3 89  1  0  0  0
  4  5  1  0  0  0
  4 90  1  0  0  0
  4 91  1  0  0  0
  5  6  1  0  0  0
  5 26  1  0  0  0
  5 92  1  0  0  0
  6 25  1  0  0  0
  6 93  1  0  0  0
  6 94  1  0  0  0
  7  8  2  0  0  0
  7 26  1  0  0  0
  7 29  1  0  0  0
  8  9  1  0  0  0
  8 22  1  0  0  0
  9 10  1  0  0  0
  9 27  2  0  0  0
 10 11  2  0  0  0
 10 15  1  0  0  0
 11 12  1  0  0  0
 11 95  1  0  0  0
 12 13  2  0  0  0
 12 96  1  0  0  0
 13 14  1  0  0  0
 13 31  1  0  0  0
 14 15  2  0  0  0
 14 97  1  0  0  0
 15 98  1  0  0  0
 16 17  2  0  0  0
 16 21  1  0  0  0
 16 31  1  0  0  0
 17 18  1  0  0  0
 17 99  1  0  0  0
 18 19  2  0  0  0
 18100  1  0  0  0
 19 20  1  0  0  0
 19 24  1  0  0  0
 20 21  2  0  0  0
 20101  1  0  0  0
 21 23  1  0  0  0
 22 28  1  0  0  0
 22 32  2  0  0  0
 26 27  1  0  0  0
 28102  1  0  0  0
 28103  1  0  0  0
 29104  1  0  0  0
 29105  1  0  0  0
 33 34  1  0  0  0
 33 66  1  0  0  0
 33 70  2  0  0  0
 34 36  1  0  0  0
 34 59  1  0  0  0
 34106  1  0  0  0
 35 44  2  0  0  0
 35 45  1  0  0  0
 35 68  1  0  0  0
 36 56  1  0  0  0
 36107  1  0  0  0
 37 39  1  0  0  0
 37 47  1  0  0  0
 37 66  1  0  0  0
 37108  1  0  0  0
 38 43  2  0  0  0
 38 46  1  0  0  0
 38 47  1  0  0  0
 39 64  1  0  0  0
 39 67  2  0  0  0
 40 52  1  0  0  0
 40 53  2  0  0  0
 40 58  1  0  0  0
 41109  1  0  0  0
 41110  1  0  0  0
 41111  1  0  0  0
 41 48  1  0  0  0
 42 43  1  0  0  0
 42 66  1  0  0  0
 42112  1  0  0  0
 42113  1  0  0  0
 43 44  1  0  0  0
 44114  1  0  0  0
 45 46  2  0  0  0
 45115  1  0  0  0
 46116  1  0  0  0
 47117  1  0  0  0
 47118  1  0  0  0
 48 56  1  0  0  0
 48 65  1  0  0  0
 48119  1  0  0  0
 49 50  1  0  0  0
 49 53  1  0  0  0
 49 64  1  0  0  0
 49120  1  0  0  0
 50 51  1  0  0  0
 50121  1  0  0  0
 50122  1  0  0  0
 51 52  1  0  0  0
 51123  1  0  0  0
 51124  1  0  0  0
 52125  1  0  0  0
 52126  1  0  0  0
 53 54  1  0  0  0
 54 55  2  0  0  0
 54127  1  0  0  0
 55 57  1  0  0  0
 55128  1  0  0  0
 56 69  2  0  0  0
 57 58  2  0  0  0
 57129  1  0  0  0
 58130  1  0  0  0
 59 60  1  0  0  0
 59 61  1  0  0  0
 59 62  1  0  0  0
 60131  1  0  0  0
 60132  1  0  0  0
 60133  1  0  0  0
 61134  1  0  0  0
 61135  1  0  0  0
 61136  1  0  0  0
 62137  1  0  0  0
 62138  1  0  0  0
 62139  1  0  0  0
 63 65  1  0  0  0
 63140  1  0  0  0
 63141  1  0  0  0
 63142  1  0  0  0
 64143  1  0  0  0
 65144  1  0  0  0
 68 82  1  0  0  0
 71 74  1  0  0  0
 71145  1  0  0  0
 71146  1  0  0  0
 71 78  1  0  0  0
 72 75  1  0  0  0
 72 78  1  0  0  0
 72147  1  0  0  0
 72148  1  0  0  0
 73 76  1  0  0  0
 73149  1  0  0  0
 73150  1  0  0  0
 73 79  1  0  0  0
 74 83  1  0  0  0
 74151  1  0  0  0
 74152  1  0  0  0
 75 83  1  0  0  0
 75153  1  0  0  0
 75154  1  0  0  0
 76 84  1  0  0  0
 76155  1  0  0  0
 76156  1  0  0  0
 77 79  1  0  0  0
 77 84  1  0  0  0
 77157  1  0  0  0
 77158  1  0  0  0
 78 85  1  0  0  0
 78159  1  0  0  0
 79 85  1  0  0  0
 79160  1  0  0  0
 80161  1  0  0  0
 80162  1  0  0  0
 80163  1  0  0  0
 80 85  1  0  0  0
 81 82  1  0  0  0
 81 84  1  0  0  0
 81164  1  0  0  0
 81165  1  0  0  0
 82166  1  0  0  0
 82167  1  0  0  0
 85168  1  0  0  0
M  CHG  1  85   1
M  ISO  4   1 100  68 101  82 101  83 100
M  END
> <chiral flag>
0

> <version>
0

> <s_m_source_file>
/data/baiqing/PycharmProjects/Reinvent-master-3.2/result/LINK_invent/BTK/process_docking_weight1_custom_sum_contain_oxygen_bond_distance_aromatic_linkinvent_7_9_3/rearranged_h_0115.sdf

> <i_m_source_file_index>
8

> <r_mmod_Potential_Energy-OPLS-2005>
207.254470825195

> <r_mmod_Stretch_Energy-OPLS-2005>
39.5991897583008

> <r_mmod_Bend_Energy-OPLS-2005>
119.172431945801

> <r_mmod_Torsional_Energy-OPLS-2005>
422.294647216797

> <r_mmod_Improper_Torsional_Energy-OPLS-2005>
4.12190914154053

> <r_mmod_Van_der_Waal_Energy-OPLS-2005>
142.28108215332

> <r_mmod_Electrostatic_Energy-OPLS-2005>
-103.864921569824

> <r_mmod_Solvation_Energy-OPLS-2005>
-430.912078857422

> <b_mmod_Minimization_Converged-OPLS-2005>
0

> <r_mmod_RMS_Derivative-OPLS-2005>
1.59177136421204

$$$$
8
                    3D
 Structure written by MMmdl.
168177  0  0  1  0            999 V2000
  -30.6265  -14.6658   20.4984 C   0  0  0  0  0  0
  -30.4411  -12.4135   19.4683 C   0  0  0  0  0  0
  -29.5080  -12.5129   18.2381 C   0  0  0  0  0  0
  -28.0317  -12.3499   18.6467 C   0  0  0  0  0  0
  -27.6558  -13.2257   19.8714 C   0  0  2  0  0  0
  -28.6990  -13.0974   21.0047 C   0  0  0  0  0  0
  -25.2578  -13.8232   20.5727 C   0  0  0  0  0  0
  -24.1817  -13.0424   20.9196 C   0  0  0  0  0  0
  -24.6415  -11.6939   20.8768 C   0  0  0  0  0  0
  -23.9073  -10.4295   21.0407 C   0  0  0  0  0  0
  -24.3628   -9.4221   21.9178 C   0  0  0  0  0  0
  -23.6303   -8.2233   22.0748 C   0  0  0  0  0  0
  -22.4286   -8.0276   21.3517 C   0  0  0  0  0  0
  -21.9927   -9.0260   20.4643 C   0  0  0  0  0  0
  -22.7246  -10.2139   20.3058 C   0  0  0  0  0  0
  -21.6848   -6.0737   22.5285 C   0  0  0  0  0  0
  -21.3999   -6.5640   23.8214 C   0  0  0  0  0  0
  -21.3663   -5.6796   24.9177 C   0  0  0  0  0  0
  -21.6059   -4.3060   24.7213 C   0  0  0  0  0  0
  -21.8827   -3.8146   23.4335 C   0  0  0  0  0  0
  -21.9188   -4.6969   22.3392 C   0  0  0  0  0  0
  -22.7868  -13.5269   21.1841 C   0  0  0  0  0  0
  -22.1666   -4.2162   21.0971 F   0  0  0  0  0  0
  -21.5631   -3.4540   25.7719 F   0  0  0  0  0  0
  -30.0173  -13.4367   20.4471 N   0  0  0  0  0  0
  -26.2998  -12.9395   20.3403 N   0  0  0  0  0  0
  -25.9351  -11.6554   20.5805 N   0  0  0  0  0  0
  -22.0488  -12.8226   22.0402 N   0  0  0  0  0  0
  -25.4324  -15.1894   20.4192 N   0  0  0  0  0  0
  -31.7651  -14.8230   20.0466 O   0  0  0  0  0  0
  -21.6652   -6.8866   21.4226 O   0  0  0  0  0  0
  -22.3564  -14.5550   20.6722 O   0  0  0  0  0  0
  -24.6404  -31.8347   23.1914 C   0  0  0  0  0  0
  -25.9180  -32.4669   23.8221 C   0  0  1  0  0  0
  -27.2649  -27.2970   20.0697 C   0  0  0  0  0  0
  -25.5935  -33.8500   24.2135 N   0  0  0  0  0  0
  -23.4430  -30.4435   21.5390 C   0  0  2  0  0  0
  -24.8752  -28.8729   20.1023 C   0  0  0  0  0  0
  -22.7565  -29.4422   22.4953 C   0  0  0  0  0  0
  -18.0293  -28.1413   22.8496 C   0  0  0  0  0  0
  -24.1487  -36.7347   23.2618 C   0  0  0  0  0  0
  -25.9753  -30.7352   21.3640 C   0  0  0  0  0  0
  -26.0374  -29.3589   20.7168 C   0  0  0  0  0  0
  -27.2219  -28.5775   20.6972 C   0  0  0  0  0  0
  -26.0748  -26.8217   19.4762 C   0  0  0  0  0  0
  -24.8990  -27.6110   19.4626 C   0  0  0  0  0  0
  -23.6503  -29.7662   20.1513 C   0  0  0  0  0  0
  -25.4101  -36.3089   24.0314 C   0  0  1  0  0  0
  -20.5902  -28.3703   23.1328 C   0  0  2  0  0  0
  -20.6802  -26.9427   22.5449 C   0  0  0  0  0  0
  -19.5783  -26.6375   21.5252 C   0  0  0  0  0  0
  -18.1938  -26.7971   22.1589 C   0  0  0  0  0  0
  -19.1547  -28.8872   23.2900 C   0  0  0  0  0  0
  -18.9452  -30.1486   23.8899 C   0  0  0  0  0  0
  -17.6467  -30.6618   24.0610 C   0  0  0  0  0  0
  -25.9040  -34.9452   23.5045 C   0  0  0  0  0  0
  -16.5356  -29.9135   23.6368 C   0  0  0  0  0  0
  -16.7294  -28.6568   23.0336 C   0  0  0  0  0  0
  -26.4476  -31.6603   25.0740 C   0  0  0  0  0  0
  -25.3730  -31.3882   26.1539 C   0  0  0  0  0  0
  -27.0205  -30.2982   24.6247 C   0  0  0  0  0  0
  -27.6032  -32.4341   25.7535 C   0  0  0  0  0  0
  -27.5577  -37.1812   24.8445 C   0  0  0  0  0  0
  -21.4249  -29.3024   22.3739 N   0  0  0  0  0  0
  -26.4258  -37.3807   23.9442 N   0  0  0  0  0  0
  -24.7081  -31.0239   22.0911 N   0  0  0  0  0  0
  -23.4225  -28.7882   23.3017 O   0  0  0  0  0  0
  -28.4694  -26.5767   20.0939 O   0  0  0  0  0  0
  -26.5631  -34.8969   22.4628 O   0  0  0  0  0  0
  -23.5556  -32.1126   23.7223 O   0  0  0  0  0  0
  -29.3876  -19.4255   21.5497 C   0  0  0  0  0  0
  -29.6824  -18.0457   21.7659 C   0  0  0  0  0  0
  -29.5037  -18.9766   19.2321 C   0  0  0  0  0  0
  -29.2537  -19.9585   20.2382 C   0  0  0  0  0  0
  -29.8366  -17.1285   20.6979 C   0  0  0  0  0  0
  -28.7644  -21.3773   19.8640 C   0  0  0  0  0  0
  -30.1585  -22.6623   21.4767 C   0  0  0  0  0  0
  -29.6650  -23.2163   22.8325 C   0  0  0  0  0  0
  -27.7970  -24.3718   21.7557 C   0  0  0  0  0  0
  -28.2341  -23.9224   20.3420 C   0  0  1  0  0  0
  -26.8523  -22.8553   17.0798 C   0  0  0  0  0  0
  -28.7555  -25.2229   19.5510 C   0  0  0  0  0  0
  -28.1245  -22.1705   17.5679 C   0  0  0  0  0  0
  -29.7522  -17.6427   19.4425 N   0  0  0  0  0  0
  -29.0780  -22.6142   20.4587 N   0  0  0  0  0  0
  -29.8985  -15.7028   21.0223 N   0  0  0  0  0  0
  -27.9194  -21.3891   18.8031 N   0  3  0  0  0  0
  -28.9382  -24.4880   22.6812 N   0  3  0  0  0  0
  -31.4803  -12.5471   19.1627 H   0  0  0  0  0  0
  -30.3920  -11.4211   19.9202 H   0  0  0  0  0  0
  -29.7767  -11.7497   17.5055 H   0  0  0  0  0  0
  -29.6466  -13.4796   17.7450 H   0  0  0  0  0  0
  -27.8708  -11.2984   18.8764 H   0  0  0  0  0  0
  -27.3759  -12.5808   17.8070 H   0  0  0  0  0  0
  -27.6670  -14.2626   19.5307 H   0  0  0  0  0  0
  -28.7143  -12.0848   21.4088 H   0  0  0  0  0  0
  -28.4348  -13.7418   21.8453 H   0  0  0  0  0  0
  -25.2753   -9.5701   22.4775 H   0  0  0  0  0  0
  -24.0012   -7.4611   22.7475 H   0  0  0  0  0  0
  -21.0845   -8.8777   19.8945 H   0  0  0  0  0  0
  -22.3696  -10.9683   19.6188 H   0  0  0  0  0  0
  -21.1988   -7.6155   23.9714 H   0  0  0  0  0  0
  -21.1484   -6.0528   25.9084 H   0  0  0  0  0  0
  -22.0602   -2.7611   23.2812 H   0  0  0  0  0  0
  -22.4112  -11.9881   22.4743 H   0  0  0  0  0  0
  -21.1105  -13.1270   22.2603 H   0  0  0  0  0  0
  -24.6815  -15.8562   20.5524 H   0  0  0  0  0  0
  -26.2964  -15.6204   20.1081 H   0  0  0  0  0  0
  -26.7249  -32.5167   23.0926 H   0  0  0  0  0  0
  -25.0264  -33.9555   25.0416 H   0  0  0  0  0  0
  -22.7568  -31.2767   21.3929 H   0  0  0  0  0  0
  -23.3736  -35.9692   23.3271 H   0  0  0  0  0  0
  -24.3594  -36.9000   22.2037 H   0  0  0  0  0  0
  -23.7205  -37.6539   23.6641 H   0  0  0  0  0  0
  -26.1123  -31.4639   20.5653 H   0  0  0  0  0  0
  -26.8682  -30.7717   21.9782 H   0  0  0  0  0  0
  -28.1270  -28.9305   21.1749 H   0  0  0  0  0  0
  -26.0630  -25.8368   19.0245 H   0  0  0  0  0  0
  -24.0341  -27.2389   18.9248 H   0  0  0  0  0  0
  -23.7874  -30.5462   19.4013 H   0  0  0  0  0  0
  -22.7682  -29.2025   19.8404 H   0  0  0  0  0  0
  -25.1268  -36.1925   25.0792 H   0  0  0  0  0  0
  -20.9916  -28.3251   24.1473 H   0  0  0  0  0  0
  -20.5712  -26.2294   23.3624 H   0  0  0  0  0  0
  -21.6661  -26.7470   22.1195 H   0  0  0  0  0  0
  -19.6985  -25.6278   21.1257 H   0  0  0  0  0  0
  -19.6783  -27.3220   20.6820 H   0  0  0  0  0  0
  -17.4231  -26.6780   21.3965 H   0  0  0  0  0  0
  -18.0329  -26.0117   22.8947 H   0  0  0  0  0  0
  -19.7929  -30.7313   24.2247 H   0  0  0  0  0  0
  -17.5033  -31.6305   24.5184 H   0  0  0  0  0  0
  -15.5364  -30.3037   23.7754 H   0  0  0  0  0  0
  -15.8674  -28.0941   22.6990 H   0  0  0  0  0  0
  -24.5995  -30.7045   25.8031 H   0  0  0  0  0  0
  -24.8814  -32.3090   26.4756 H   0  0  0  0  0  0
  -25.8111  -30.9332   27.0446 H   0  0  0  0  0  0
  -26.2705  -29.6861   24.1253 H   0  0  0  0  0  0
  -27.3767  -29.7159   25.4728 H   0  0  0  0  0  0
  -27.8679  -30.4210   23.9532 H   0  0  0  0  0  0
  -27.2663  -33.3721   26.2004 H   0  0  0  0  0  0
  -28.3987  -32.6746   25.0476 H   0  0  0  0  0  0
  -28.0578  -31.8533   26.5579 H   0  0  0  0  0  0
  -28.2571  -38.0133   24.7521 H   0  0  0  0  0  0
  -28.1067  -36.2658   24.6180 H   0  0  0  0  0  0
  -27.2352  -37.1428   25.8861 H   0  0  0  0  0  0
  -20.9501  -29.8752   21.6902 H   0  0  0  0  0  0
  -26.0144  -38.2871   24.1479 H   0  0  0  0  0  0
  -29.2123  -20.0345   22.4215 H   0  0  0  0  0  0
  -29.7594  -17.6813   22.7805 H   0  0  0  0  0  0
  -29.3967  -19.2423   18.1916 H   0  0  0  0  0  0
  -30.5660  -21.6695   21.6512 H   0  0  0  0  0  0
  -30.9950  -23.2607   21.1074 H   0  0  0  0  0  0
  -30.5072  -23.3739   23.5051 H   0  0  0  0  0  0
  -29.0148  -22.5011   23.3351 H   0  0  0  0  0  0
  -27.0610  -23.6726   22.1509 H   0  0  0  0  0  0
  -27.2683  -25.3192   21.7526 H   0  0  0  0  0  0
  -27.3066  -23.6337   19.8601 H   0  0  0  0  0  0
  -26.9079  -23.0233   16.0048 H   0  0  0  0  0  0
  -26.6872  -23.8336   17.5294 H   0  0  0  0  0  0
  -25.9989  -22.2070   17.2669 H   0  0  0  0  0  0
  -28.4689  -25.1459   18.4960 H   0  0  0  0  0  0
  -29.8501  -25.2358   19.5223 H   0  0  0  0  0  0
  -28.9557  -22.8714   17.6157 H   0  0  0  0  0  0
  -28.3881  -21.4354   16.8051 H   0  0  0  0  0  0
  -29.1350  -15.3849   21.5996 H   0  0  0  0  0  0
  -27.3006  -20.5997   18.6715 H   0  0  0  0  0  0
  -29.5777  -25.2185   22.4071 H   0  0  0  0  0  0
  -28.5672  -24.7609   23.5765 H   0  0  0  0  0  0
  1 25  1  0  0  0
  1 30  2  0  0  0
  1 86  1  0  0  0
  2  3  1  0  0  0
  2 25  1  0  0  0
  2 89  1  0  0  0
  2 90  1  0  0  0
  3  4  1  0  0  0
  3 91  1  0  0  0
  3 92  1  0  0  0
  4  5  1  0  0  0
  4 93  1  0  0  0
  4 94  1  0  0  0
  5  6  1  0  0  0
  5 26  1  0  0  0
  5 95  1  0  0  0
  6 25  1  0  0  0
  6 96  1  0  0  0
  6 97  1  0  0  0
  7  8  2  0  0  0
  7 26  1  0  0  0
  7 29  1  0  0  0
  8  9  1  0  0  0
  8 22  1  0  0  0
  9 10  1  0  0  0
  9 27  2  0  0  0
 10 11  2  0  0  0
 10 15  1  0  0  0
 11 12  1  0  0  0
 11 98  1  0  0  0
 12 13  2  0  0  0
 12 99  1  0  0  0
 13 14  1  0  0  0
 13 31  1  0  0  0
 14 15  2  0  0  0
 14100  1  0  0  0
 15101  1  0  0  0
 16 17  2  0  0  0
 16 21  1  0  0  0
 16 31  1  0  0  0
 17 18  1  0  0  0
 17102  1  0  0  0
 18 19  2  0  0  0
 18103  1  0  0  0
 19 20  1  0  0  0
 19 24  1  0  0  0
 20 21  2  0  0  0
 20104  1  0  0  0
 21 23  1  0  0  0
 22 28  1  0  0  0
 22 32  2  0  0  0
 26 27  1  0  0  0
 28105  1  0  0  0
 28106  1  0  0  0
 29107  1  0  0  0
 29108  1  0  0  0
 33 34  1  0  0  0
 33 66  1  0  0  0
 33 70  2  0  0  0
 34 36  1  0  0  0
 34 59  1  0  0  0
 34109  1  0  0  0
 35 44  2  0  0  0
 35 45  1  0  0  0
 35 68  1  0  0  0
 36 56  1  0  0  0
 36110  1  0  0  0
 37 39  1  0  0  0
 37 47  1  0  0  0
 37 66  1  0  0  0
 37111  1  0  0  0
 38 43  2  0  0  0
 38 46  1  0  0  0
 38 47  1  0  0  0
 39 64  1  0  0  0
 39 67  2  0  0  0
 40 52  1  0  0  0
 40 53  2  0  0  0
 40 58  1  0  0  0
 41112  1  0  0  0
 41113  1  0  0  0
 41114  1  0  0  0
 41 48  1  0  0  0
 42 43  1  0  0  0
 42 66  1  0  0  0
 42115  1  0  0  0
 42116  1  0  0  0
 43 44  1  0  0  0
 44117  1  0  0  0
 45 46  2  0  0  0
 45118  1  0  0  0
 46119  1  0  0  0
 47120  1  0  0  0
 47121  1  0  0  0
 48 56  1  0  0  0
 48 65  1  0  0  0
 48122  1  0  0  0
 49 50  1  0  0  0
 49 53  1  0  0  0
 49 64  1  0  0  0
 49123  1  0  0  0
 50 51  1  0  0  0
 50124  1  0  0  0
 50125  1  0  0  0
 51 52  1  0  0  0
 51126  1  0  0  0
 51127  1  0  0  0
 52128  1  0  0  0
 52129  1  0  0  0
 53 54  1  0  0  0
 54 55  2  0  0  0
 54130  1  0  0  0
 55 57  1  0  0  0
 55131  1  0  0  0
 56 69  2  0  0  0
 57 58  2  0  0  0
 57132  1  0  0  0
 58133  1  0  0  0
 59 60  1  0  0  0
 59 61  1  0  0  0
 59 62  1  0  0  0
 60134  1  0  0  0
 60135  1  0  0  0
 60136  1  0  0  0
 61137  1  0  0  0
 61138  1  0  0  0
 61139  1  0  0  0
 62140  1  0  0  0
 62141  1  0  0  0
 62142  1  0  0  0
 63 65  1  0  0  0
 63143  1  0  0  0
 63144  1  0  0  0
 63145  1  0  0  0
 64146  1  0  0  0
 65147  1  0  0  0
 68 82  1  0  0  0
 71 72  2  0  0  0
 71 74  1  0  0  0
 71148  1  0  0  0
 72 75  1  0  0  0
 72149  1  0  0  0
 73 74  2  0  0  0
 73 84  1  0  0  0
 73150  1  0  0  0
 74 76  1  0  0  0
 75 84  2  0  0  0
 75 86  1  0  0  0
 76 85  1  0  0  0
 76 87  2  0  0  0
 77 78  1  0  0  0
 77 85  1  0  0  0
 77151  1  0  0  0
 77152  1  0  0  0
 78 88  1  0  0  0
 78153  1  0  0  0
 78154  1  0  0  0
 79 80  1  0  0  0
 79 88  1  0  0  0
 79155  1  0  0  0
 79156  1  0  0  0
 80 82  1  0  0  0
 80 85  1  0  0  0
 80157  1  0  0  0
 81 83  1  0  0  0
 81158  1  0  0  0
 81159  1  0  0  0
 81160  1  0  0  0
 82161  1  0  0  0
 82162  1  0  0  0
 83 87  1  0  0  0
 83163  1  0  0  0
 83164  1  0  0  0
 86165  1  0  0  0
 87166  1  0  0  0
 88167  1  0  0  0
 88168  1  0  0  0
M  CHG  2  87   1  88   1
M  ISO  4   1 100  68 101  82 101  86 100
M  END
> <chiral flag>
0

> <version>
0

> <s_m_source_file>
/data/baiqing/PycharmProjects/Reinvent-master-3.2/result/LINK_invent/BTK/process_docking_weight1_custom_sum_contain_oxygen_bond_distance_aromatic_linkinvent_7_9_3/rearranged_h_0115.sdf

> <i_m_source_file_index>
9

> <r_mmod_Potential_Energy-OPLS-2005>
-155.405151367188

> <r_mmod_Stretch_Energy-OPLS-2005>
107.328353881836

> <r_mmod_Bend_Energy-OPLS-2005>
202.002105712891

> <r_mmod_Torsional_Energy-OPLS-2005>
368.071044921875

> <r_mmod_Improper_Torsional_Energy-OPLS-2005>
5.27862071990967

> <r_mmod_Van_der_Waal_Energy-OPLS-2005>
140.864700317383

> <r_mmod_Electrostatic_Energy-OPLS-2005>
-35.5804481506348

> <r_mmod_Solvation_Energy-OPLS-2005>
-1000.84637451172

> <b_mmod_Minimization_Converged-OPLS-2005>
0

> <r_mmod_RMS_Derivative-OPLS-2005>
11.8472442626953

$$$$
9
                    3D
 Structure written by MMmdl.
154162  0  0  1  0            999 V2000
  -30.5470  -15.0005   20.4190 C   0  0  0  0  0  0
  -30.4353  -12.6256   19.5057 C   0  0  0  0  0  0
  -29.5234  -12.5476   18.2599 C   0  0  0  0  0  0
  -28.0587  -12.3218   18.6781 C   0  0  0  0  0  0
  -27.6246  -13.2591   19.8343 C   0  0  2  0  0  0
  -28.6670  -13.3177   20.9710 C   0  0  0  0  0  0
  -25.2442  -13.8224   20.5751 C   0  0  0  0  0  0
  -24.1762  -13.0436   20.9247 C   0  0  0  0  0  0
  -24.6403  -11.6931   20.8750 C   0  0  0  0  0  0
  -23.9083  -10.4294   21.0406 C   0  0  0  0  0  0
  -24.3629   -9.4205   21.9187 C   0  0  0  0  0  0
  -23.6294   -8.2243   22.0765 C   0  0  0  0  0  0
  -22.4279   -8.0286   21.3552 C   0  0  0  0  0  0
  -21.9917   -9.0256   20.4653 C   0  0  0  0  0  0
  -22.7253  -10.2129   20.3054 C   0  0  0  0  0  0
  -21.6852   -6.0741   22.5283 C   0  0  0  0  0  0
  -21.4019   -6.5640   23.8218 C   0  0  0  0  0  0
  -21.3656   -5.6791   24.9175 C   0  0  0  0  0  0
  -21.6040   -4.3053   24.7224 C   0  0  0  0  0  0
  -21.8813   -3.8150   23.4342 C   0  0  0  0  0  0
  -21.9197   -4.6967   22.3403 C   0  0  0  0  0  0
  -22.7781  -13.5208   21.1880 C   0  0  0  0  0  0
  -22.1666   -4.2161   21.0975 F   0  0  0  0  0  0
  -21.5621   -3.4534   25.7728 F   0  0  0  0  0  0
  -29.9368  -13.7410   20.3662 N   0  0  0  0  0  0
  -26.2870  -12.9480   20.3246 N   0  0  0  0  0  0
  -25.9334  -11.6595   20.5713 N   0  0  0  0  0  0
  -22.0422  -12.8202   22.0432 N   0  0  0  0  0  0
  -25.4069  -15.1957   20.4208 N   0  0  0  0  0  0
  -31.7566  -15.0306   20.1695 O   0  0  0  0  0  0
  -21.6641   -6.8884   21.4246 O   0  0  0  0  0  0
  -22.3462  -14.5510   20.6715 O   0  0  0  0  0  0
  -24.6484  -31.8419   23.1832 C   0  0  0  0  0  0
  -25.9250  -32.4681   23.8234 C   0  0  1  0  0  0
  -27.2227  -27.0932   20.1602 C   0  0  0  0  0  0
  -25.5980  -33.8481   24.2163 N   0  0  0  0  0  0
  -23.4523  -30.4602   21.5298 C   0  0  2  0  0  0
  -24.9026  -28.8759   20.1120 C   0  0  0  0  0  0
  -22.7578  -29.4558   22.4842 C   0  0  0  0  0  0
  -18.0311  -28.1446   22.8489 C   0  0  0  0  0  0
  -24.1465  -36.7215   23.2643 C   0  0  0  0  0  0
  -26.0116  -30.7011   21.3871 C   0  0  0  0  0  0
  -26.0823  -29.3077   20.7310 C   0  0  0  0  0  0
  -27.2404  -28.4350   20.7339 C   0  0  0  0  0  0
  -26.0086  -26.7693   19.5126 C   0  0  0  0  0  0
  -24.8815  -27.6204   19.4872 C   0  0  0  0  0  0
  -23.6825  -29.7854   20.1508 C   0  0  0  0  0  0
  -25.4107  -36.3016   24.0318 C   0  0  1  0  0  0
  -20.5929  -28.3768   23.1231 C   0  0  2  0  0  0
  -20.6788  -26.9465   22.5423 C   0  0  0  0  0  0
  -19.5750  -26.6419   21.5236 C   0  0  0  0  0  0
  -18.1938  -26.7983   22.1643 C   0  0  0  0  0  0
  -19.1575  -28.8922   23.2852 C   0  0  0  0  0  0
  -18.9494  -30.1509   23.8885 C   0  0  0  0  0  0
  -17.6502  -30.6638   24.0581 C   0  0  0  0  0  0
  -25.9081  -34.9402   23.5053 C   0  0  0  0  0  0
  -16.5388  -29.9143   23.6360 C   0  0  0  0  0  0
  -16.7304  -28.6565   23.0374 C   0  0  0  0  0  0
  -26.4550  -31.6565   25.0701 C   0  0  0  0  0  0
  -25.3716  -31.3783   26.1387 C   0  0  0  0  0  0
  -27.0422  -30.2958   24.6302 C   0  0  0  0  0  0
  -27.6060  -32.4327   25.7512 C   0  0  0  0  0  0
  -27.5555  -37.1770   24.8479 C   0  0  0  0  0  0
  -21.4272  -29.3066   22.3573 N   0  0  0  0  0  0
  -26.4261  -37.3751   23.9429 N   0  0  0  0  0  0
  -24.7242  -31.0242   22.0882 N   0  0  0  0  0  0
  -23.4194  -28.8138   23.3043 O   0  0  0  0  0  0
  -28.2766  -26.0920   20.2525 O   0  0  0  0  0  0
  -26.5666  -34.8915   22.4628 O   0  0  0  0  0  0
  -23.5601  -32.1321   23.7039 O   0  0  0  0  0  0
  -27.8893  -20.8357   19.7614 C   0  0  0  0  0  0
  -28.1921  -19.4154   19.7864 C   0  0  0  0  0  0
  -28.8879  -21.5971   20.3244 C   0  0  0  0  0  0
  -29.4130  -19.1532   20.3603 C   0  0  0  0  0  0
  -28.2446  -24.4410   18.4172 C   0  0  0  0  0  0
  -31.0849  -20.7849   21.3633 C   0  0  0  0  0  0
  -29.0172  -23.2451   20.5914 C   0  0  0  0  0  0
  -30.2830  -17.7464   20.5696 C   0  0  0  0  0  0
  -28.1118  -24.5476   19.9448 C   0  0  1  0  0  0
  -29.8194  -20.5237   20.6971 N   0  0  0  0  0  0
  -29.8088  -16.2230   20.5508 N   0  0  0  0  0  0
  -31.4705  -12.7779   19.1980 H   0  0  0  0  0  0
  -30.4245  -11.6813   20.0528 H   0  0  0  0  0  0
  -29.8542  -11.7495   17.5932 H   0  0  0  0  0  0
  -29.6040  -13.4747   17.6898 H   0  0  0  0  0  0
  -27.9652  -11.2824   18.9932 H   0  0  0  0  0  0
  -27.3969  -12.4406   17.8204 H   0  0  0  0  0  0
  -27.5748  -14.2544   19.3915 H   0  0  0  0  0  0
  -28.7664  -12.3508   21.4667 H   0  0  0  0  0  0
  -28.3596  -14.0295   21.7381 H   0  0  0  0  0  0
  -25.2772   -9.5675   22.4768 H   0  0  0  0  0  0
  -24.0000   -7.4634   22.7489 H   0  0  0  0  0  0
  -21.0856   -8.8779   19.8957 H   0  0  0  0  0  0
  -22.3724  -10.9669   19.6163 H   0  0  0  0  0  0
  -21.2019   -7.6151   23.9724 H   0  0  0  0  0  0
  -21.1484   -6.0522   25.9079 H   0  0  0  0  0  0
  -22.0596   -2.7619   23.2839 H   0  0  0  0  0  0
  -22.4040  -11.9871   22.4837 H   0  0  0  0  0  0
  -21.1036  -13.1225   22.2616 H   0  0  0  0  0  0
  -24.6358  -15.8433   20.5355 H   0  0  0  0  0  0
  -26.2463  -15.6421   20.0763 H   0  0  0  0  0  0
  -26.7325  -32.5278   23.0959 H   0  0  0  0  0  0
  -25.0101  -33.9578   25.0301 H   0  0  0  0  0  0
  -22.7582  -31.2886   21.3720 H   0  0  0  0  0  0
  -23.3753  -35.9525   23.3306 H   0  0  0  0  0  0
  -24.3540  -36.8834   22.2058 H   0  0  0  0  0  0
  -23.7189  -37.6397   23.6671 H   0  0  0  0  0  0
  -26.1711  -31.4500   20.6090 H   0  0  0  0  0  0
  -26.8805  -30.7558   22.0310 H   0  0  0  0  0  0
  -28.1365  -28.7614   21.2426 H   0  0  0  0  0  0
  -25.8819  -25.8037   19.0486 H   0  0  0  0  0  0
  -23.9797  -27.2767   19.0002 H   0  0  0  0  0  0
  -23.8314  -30.5582   19.3957 H   0  0  0  0  0  0
  -22.7940  -29.2351   19.8342 H   0  0  0  0  0  0
  -25.1291  -36.1828   25.0812 H   0  0  0  0  0  0
  -21.0027  -28.3385   24.1348 H   0  0  0  0  0  0
  -20.5689  -26.2396   23.3657 H   0  0  0  0  0  0
  -21.6653  -26.7480   22.1210 H   0  0  0  0  0  0
  -19.6896  -25.6321   21.1281 H   0  0  0  0  0  0
  -19.6675  -27.3213   20.6750 H   0  0  0  0  0  0
  -17.4203  -26.6751   21.4048 H   0  0  0  0  0  0
  -18.0321  -26.0137   22.9046 H   0  0  0  0  0  0
  -19.7974  -30.7325   24.2246 H   0  0  0  0  0  0
  -17.5072  -31.6313   24.5184 H   0  0  0  0  0  0
  -15.5392  -30.3056   23.7698 H   0  0  0  0  0  0
  -15.8698  -28.0886   22.7109 H   0  0  0  0  0  0
  -24.5915  -30.7097   25.7725 H   0  0  0  0  0  0
  -24.8893  -32.2982   26.4703 H   0  0  0  0  0  0
  -25.8005  -30.9053   27.0232 H   0  0  0  0  0  0
  -26.3071  -29.6672   24.1268 H   0  0  0  0  0  0
  -27.3978  -29.7259   25.4894 H   0  0  0  0  0  0
  -27.8993  -30.4184   23.9672 H   0  0  0  0  0  0
  -27.2648  -33.3651   26.2024 H   0  0  0  0  0  0
  -28.3944  -32.6842   25.0403 H   0  0  0  0  0  0
  -28.0644  -31.8487   26.5498 H   0  0  0  0  0  0
  -28.2600  -38.0047   24.7526 H   0  0  0  0  0  0
  -28.1018  -36.2578   24.6303 H   0  0  0  0  0  0
  -27.2279  -37.1430   25.8886 H   0  0  0  0  0  0
  -20.9508  -29.8734   21.6697 H   0  0  0  0  0  0
  -26.0106  -38.2807   24.1460 H   0  0  0  0  0  0
  -26.9835  -21.2639   19.3535 H   0  0  0  0  0  0
  -27.5546  -18.6403   19.3838 H   0  0  0  0  0  0
  -27.9632  -23.4478   18.0653 H   0  0  0  0  0  0
  -29.2761  -24.6172   18.1140 H   0  0  0  0  0  0
  -27.6270  -25.1633   17.8885 H   0  0  0  0  0  0
  -31.9014  -20.3180   20.8107 H   0  0  0  0  0  0
  -31.0638  -20.3730   22.3721 H   0  0  0  0  0  0
  -31.2810  -21.8533   21.4325 H   0  0  0  0  0  0
  -30.0528  -23.5015   20.3692 H   0  0  0  0  0  0
  -28.9528  -23.3719   21.6724 H   0  0  0  0  0  0
  -30.8182  -17.8480   21.5142 H   0  0  0  0  0  0
  -31.0774  -17.7777   19.8224 H   0  0  0  0  0  0
  -27.0815  -24.3121   20.2102 H   0  0  0  0  0  0
  -28.8184  -16.0947   20.6935 H   0  0  0  0  0  0
  1 25  1  0  0  0
  1 30  2  0  0  0
  1 81  1  0  0  0
  2  3  1  0  0  0
  2 25  1  0  0  0
  2 82  1  0  0  0
  2 83  1  0  0  0
  3  4  1  0  0  0
  3 84  1  0  0  0
  3 85  1  0  0  0
  4  5  1  0  0  0
  4 86  1  0  0  0
  4 87  1  0  0  0
  5  6  1  0  0  0
  5 26  1  0  0  0
  5 88  1  0  0  0
  6 25  1  0  0  0
  6 89  1  0  0  0
  6 90  1  0  0  0
  7  8  2  0  0  0
  7 26  1  0  0  0
  7 29  1  0  0  0
  8  9  1  0  0  0
  8 22  1  0  0  0
  9 10  1  0  0  0
  9 27  2  0  0  0
 10 11  2  0  0  0
 10 15  1  0  0  0
 11 12  1  0  0  0
 11 91  1  0  0  0
 12 13  2  0  0  0
 12 92  1  0  0  0
 13 14  1  0  0  0
 13 31  1  0  0  0
 14 15  2  0  0  0
 14 93  1  0  0  0
 15 94  1  0  0  0
 16 17  2  0  0  0
 16 21  1  0  0  0
 16 31  1  0  0  0
 17 18  1  0  0  0
 17 95  1  0  0  0
 18 19  2  0  0  0
 18 96  1  0  0  0
 19 20  1  0  0  0
 19 24  1  0  0  0
 20 21  2  0  0  0
 20 97  1  0  0  0
 21 23  1  0  0  0
 22 28  1  0  0  0
 22 32  2  0  0  0
 26 27  1  0  0  0
 28 98  1  0  0  0
 28 99  1  0  0  0
 29100  1  0  0  0
 29101  1  0  0  0
 33 34  1  0  0  0
 33 66  1  0  0  0
 33 70  2  0  0  0
 34 36  1  0  0  0
 34 59  1  0  0  0
 34102  1  0  0  0
 35 44  2  0  0  0
 35 45  1  0  0  0
 35 68  1  0  0  0
 36 56  1  0  0  0
 36103  1  0  0  0
 37 39  1  0  0  0
 37 47  1  0  0  0
 37 66  1  0  0  0
 37104  1  0  0  0
 38 43  2  0  0  0
 38 46  1  0  0  0
 38 47  1  0  0  0
 39 64  1  0  0  0
 39 67  2  0  0  0
 40 52  1  0  0  0
 40 53  2  0  0  0
 40 58  1  0  0  0
 41105  1  0  0  0
 41106  1  0  0  0
 41107  1  0  0  0
 41 48  1  0  0  0
 42 43  1  0  0  0
 42 66  1  0  0  0
 42108  1  0  0  0
 42109  1  0  0  0
 43 44  1  0  0  0
 44110  1  0  0  0
 45 46  2  0  0  0
 45111  1  0  0  0
 46112  1  0  0  0
 47113  1  0  0  0
 47114  1  0  0  0
 48 56  1  0  0  0
 48 65  1  0  0  0
 48115  1  0  0  0
 49 50  1  0  0  0
 49 53  1  0  0  0
 49 64  1  0  0  0
 49116  1  0  0  0
 50 51  1  0  0  0
 50117  1  0  0  0
 50118  1  0  0  0
 51 52  1  0  0  0
 51119  1  0  0  0
 51120  1  0  0  0
 52121  1  0  0  0
 52122  1  0  0  0
 53 54  1  0  0  0
 54 55  2  0  0  0
 54123  1  0  0  0
 55 57  1  0  0  0
 55124  1  0  0  0
 56 69  2  0  0  0
 57 58  2  0  0  0
 57125  1  0  0  0
 58126  1  0  0  0
 59 60  1  0  0  0
 59 61  1  0  0  0
 59 62  1  0  0  0
 60127  1  0  0  0
 60128  1  0  0  0
 60129  1  0  0  0
 61130  1  0  0  0
 61131  1  0  0  0
 61132  1  0  0  0
 62133  1  0  0  0
 62134  1  0  0  0
 62135  1  0  0  0
 63 65  1  0  0  0
 63136  1  0  0  0
 63137  1  0  0  0
 63138  1  0  0  0
 64139  1  0  0  0
 65140  1  0  0  0
 68 79  1  0  0  0
 71 72  1  0  0  0
 71 73  2  0  0  0
 71141  1  0  0  0
 72 74  2  0  0  0
 72142  1  0  0  0
 73 77  1  0  0  0
 73 80  1  0  0  0
 74 78  1  0  0  0
 74 80  1  0  0  0
 75143  1  0  0  0
 75144  1  0  0  0
 75145  1  0  0  0
 75 79  1  0  0  0
 76 80  1  0  0  0
 76146  1  0  0  0
 76147  1  0  0  0
 76148  1  0  0  0
 77 79  1  0  0  0
 77149  1  0  0  0
 77150  1  0  0  0
 78 81  1  0  0  0
 78151  1  0  0  0
 78152  1  0  0  0
 79153  1  0  0  0
 81154  1  0  0  0
M  ISO  4   1 100  68 101  79 101  81 100
M  END
> <chiral flag>
0

> <version>
0

> <s_m_source_file>
/data/baiqing/PycharmProjects/Reinvent-master-3.2/result/LINK_invent/BTK/process_docking_weight1_custom_sum_contain_oxygen_bond_distance_aromatic_linkinvent_7_9_3/rearranged_h_0115.sdf

> <i_m_source_file_index>
10

> <r_mmod_Potential_Energy-OPLS-2005>
505.023651123047

> <r_mmod_Stretch_Energy-OPLS-2005>
311.286590576172

> <r_mmod_Bend_Energy-OPLS-2005>
279.705993652344

> <r_mmod_Torsional_Energy-OPLS-2005>
195.436614990234

> <r_mmod_Improper_Torsional_Energy-OPLS-2005>
4.22221803665161

> <r_mmod_Van_der_Waal_Energy-OPLS-2005>
109.087303161621

> <r_mmod_Electrostatic_Energy-OPLS-2005>
-410.676116943359

> <r_mmod_Solvation_Energy-OPLS-2005>
-214.640472412109

> <b_mmod_Minimization_Converged-OPLS-2005>
0

> <r_mmod_RMS_Derivative-OPLS-2005>
2.04266333580017

$$$$
10
                    3D
 Structure written by MMmdl.
164172  0  0  1  0            999 V2000
  -30.5587  -14.8904   20.4552 C   0  0  0  0  0  0
  -30.4347  -12.5554   19.4929 C   0  0  0  0  0  0
  -29.5150  -12.5303   18.2495 C   0  0  0  0  0  0
  -28.0436  -12.3316   18.6595 C   0  0  0  0  0  0
  -27.6302  -13.2473   19.8420 C   0  0  2  0  0  0
  -28.6714  -13.2437   20.9814 C   0  0  0  0  0  0
  -25.2457  -13.8211   20.5713 C   0  0  0  0  0  0
  -24.1777  -13.0450   20.9236 C   0  0  0  0  0  0
  -24.6385  -11.6929   20.8763 C   0  0  0  0  0  0
  -23.9067  -10.4310   21.0422 C   0  0  0  0  0  0
  -24.3625   -9.4219   21.9194 C   0  0  0  0  0  0
  -23.6307   -8.2249   22.0748 C   0  0  0  0  0  0
  -22.4281   -8.0283   21.3546 C   0  0  0  0  0  0
  -21.9922   -9.0250   20.4643 C   0  0  0  0  0  0
  -22.7245  -10.2140   20.3058 C   0  0  0  0  0  0
  -21.6856   -6.0737   22.5280 C   0  0  0  0  0  0
  -21.4016   -6.5641   23.8212 C   0  0  0  0  0  0
  -21.3666   -5.6793   24.9178 C   0  0  0  0  0  0
  -21.6045   -4.3053   24.7226 C   0  0  0  0  0  0
  -21.8821   -3.8148   23.4347 C   0  0  0  0  0  0
  -21.9197   -4.6965   22.3405 C   0  0  0  0  0  0
  -22.7802  -13.5220   21.1900 C   0  0  0  0  0  0
  -22.1668   -4.2152   21.0982 F   0  0  0  0  0  0
  -21.5634   -3.4531   25.7741 F   0  0  0  0  0  0
  -29.9560  -13.6401   20.3920 N   0  0  0  0  0  0
  -26.2877  -12.9446   20.3246 N   0  0  0  0  0  0
  -25.9314  -11.6574   20.5738 N   0  0  0  0  0  0
  -22.0452  -12.8196   22.0436 N   0  0  0  0  0  0
  -25.4129  -15.1938   20.4113 N   0  0  0  0  0  0
  -31.7573  -14.9704   20.1704 O   0  0  0  0  0  0
  -21.6649   -6.8877   21.4241 O   0  0  0  0  0  0
  -22.3497  -14.5539   20.6759 O   0  0  0  0  0  0
  -24.6402  -31.8464   23.1875 C   0  0  0  0  0  0
  -25.9183  -32.4711   23.8272 C   0  0  1  0  0  0
  -27.2208  -27.1699   20.1697 C   0  0  0  0  0  0
  -25.5960  -33.8512   24.2206 N   0  0  0  0  0  0
  -23.4436  -30.4653   21.5300 C   0  0  2  0  0  0
  -24.8947  -28.8894   20.1171 C   0  0  0  0  0  0
  -22.7552  -29.4574   22.4834 C   0  0  0  0  0  0
  -18.0313  -28.1411   22.8486 C   0  0  0  0  0  0
  -24.1474  -36.7252   23.2642 C   0  0  0  0  0  0
  -25.9941  -30.7341   21.3789 C   0  0  0  0  0  0
  -26.0689  -29.3429   20.7336 C   0  0  0  0  0  0
  -27.2379  -28.4984   20.7413 C   0  0  0  0  0  0
  -26.0248  -26.8011   19.5226 C   0  0  0  0  0  0
  -24.8811  -27.6292   19.4974 C   0  0  0  0  0  0
  -23.6713  -29.7896   20.1510 C   0  0  0  0  0  0
  -25.4107  -36.3043   24.0321 C   0  0  1  0  0  0
  -20.5926  -28.3739   23.1234 C   0  0  2  0  0  0
  -20.6802  -26.9447   22.5401 C   0  0  0  0  0  0
  -19.5772  -26.6406   21.5218 C   0  0  0  0  0  0
  -18.1952  -26.7955   22.1630 C   0  0  0  0  0  0
  -19.1566  -28.8898   23.2865 C   0  0  0  0  0  0
  -18.9486  -30.1497   23.8892 C   0  0  0  0  0  0
  -17.6480  -30.6613   24.0574 C   0  0  0  0  0  0
  -25.9062  -34.9419   23.5070 C   0  0  0  0  0  0
  -16.5372  -29.9104   23.6346 C   0  0  0  0  0  0
  -16.7300  -28.6521   23.0374 C   0  0  0  0  0  0
  -26.4512  -31.6548   25.0688 C   0  0  0  0  0  0
  -25.3708  -31.3724   26.1383 C   0  0  0  0  0  0
  -27.0360  -30.2947   24.6232 C   0  0  0  0  0  0
  -27.6054  -32.4282   25.7495 C   0  0  0  0  0  0
  -27.5563  -37.1788   24.8476 C   0  0  0  0  0  0
  -21.4248  -29.3058   22.3584 N   0  0  0  0  0  0
  -26.4270  -37.3758   23.9421 N   0  0  0  0  0  0
  -24.7122  -31.0368   22.0878 N   0  0  0  0  0  0
  -23.4208  -28.8134   23.2984 O   0  0  0  0  0  0
  -28.2852  -26.2115   20.1508 O   0  0  0  0  0  0
  -26.5636  -34.8921   22.4639 O   0  0  0  0  0  0
  -23.5527  -32.1316   23.7116 O   0  0  0  0  0  0
  -29.9814  -21.2529   20.5436 C   0  0  0  0  0  0
  -29.8318  -22.6941   20.6321 C   0  0  0  0  0  0
  -28.8710  -20.3584   20.4172 C   0  0  0  0  0  0
  -28.5684  -23.3636   20.5620 C   0  0  0  0  0  0
  -27.6350  -21.1177   20.3406 C   0  0  0  0  0  0
  -25.7845  -19.9248   21.6417 C   0  0  0  0  0  0
  -26.0255  -19.4643   19.1154 C   0  0  0  0  0  0
  -27.2222  -25.0000   22.1229 C   0  0  0  0  0  0
  -30.5785  -17.9157   22.1383 C   0  0  0  0  0  0
  -28.9327  -18.7091   20.2823 C   0  0  0  0  0  0
  -26.2464  -20.4573   20.2729 C   0  0  0  0  0  0
  -28.2901  -24.9326   21.0133 C   0  0  2  0  0  0
  -30.0869  -17.5937   20.7190 C   0  0  1  0  0  0
  -27.5180  -22.5032   20.3996 N   0  0  0  0  0  0
  -29.7727  -16.0522   20.6438 N   0  0  0  0  0  0
  -31.4702  -12.7091   19.1861 H   0  0  0  0  0  0
  -30.4157  -11.5947   20.0099 H   0  0  0  0  0  0
  -29.8256  -11.7419   17.5630 H   0  0  0  0  0  0
  -29.6164  -13.4695   17.7039 H   0  0  0  0  0  0
  -27.9174  -11.2848   18.9384 H   0  0  0  0  0  0
  -27.3859  -12.4986   17.8051 H   0  0  0  0  0  0
  -27.6032  -14.2578   19.4342 H   0  0  0  0  0  0
  -28.7399  -12.2597   21.4468 H   0  0  0  0  0  0
  -28.3763  -13.9385   21.7696 H   0  0  0  0  0  0
  -25.2752   -9.5712   22.4780 H   0  0  0  0  0  0
  -24.0018   -7.4629   22.7450 H   0  0  0  0  0  0
  -21.0859   -8.8757   19.8933 H   0  0  0  0  0  0
  -22.3669  -10.9681   19.6179 H   0  0  0  0  0  0
  -21.1995   -7.6142   23.9717 H   0  0  0  0  0  0
  -21.1494   -6.0525   25.9085 H   0  0  0  0  0  0
  -22.0591   -2.7608   23.2841 H   0  0  0  0  0  0
  -22.4063  -11.9831   22.4787 H   0  0  0  0  0  0
  -21.1060  -13.1207   22.2648 H   0  0  0  0  0  0
  -24.6350  -15.8372   20.5027 H   0  0  0  0  0  0
  -26.2391  -15.6237   20.0202 H   0  0  0  0  0  0
  -26.7238  -32.5350   23.1008 H   0  0  0  0  0  0
  -25.0141  -33.9616   25.0378 H   0  0  0  0  0  0
  -22.7451  -31.2895   21.3718 H   0  0  0  0  0  0
  -23.3751  -35.9574   23.3299 H   0  0  0  0  0  0
  -24.3555  -36.8886   22.2059 H   0  0  0  0  0  0
  -23.7216  -37.6445   23.6662 H   0  0  0  0  0  0
  -26.1350  -31.4820   20.5984 H   0  0  0  0  0  0
  -26.8702  -30.7957   22.0131 H   0  0  0  0  0  0
  -28.1395  -28.8448   21.2262 H   0  0  0  0  0  0
  -25.9688  -25.8296   19.0512 H   0  0  0  0  0  0
  -23.9842  -27.2755   19.0076 H   0  0  0  0  0  0
  -23.8138  -30.5600   19.3929 H   0  0  0  0  0  0
  -22.7887  -29.2300   19.8358 H   0  0  0  0  0  0
  -25.1292  -36.1868   25.0813 H   0  0  0  0  0  0
  -21.0049  -28.3339   24.1344 H   0  0  0  0  0  0
  -20.5723  -26.2347   23.3623 H   0  0  0  0  0  0
  -21.6659  -26.7468   22.1182 H   0  0  0  0  0  0
  -19.6925  -25.6316   21.1259 H   0  0  0  0  0  0
  -19.6699  -27.3210   20.6746 H   0  0  0  0  0  0
  -17.4221  -26.6737   21.4029 H   0  0  0  0  0  0
  -18.0340  -26.0087   22.9015 H   0  0  0  0  0  0
  -19.7962  -30.7336   24.2234 H   0  0  0  0  0  0
  -17.5031  -31.6286   24.5190 H   0  0  0  0  0  0
  -15.5375  -30.3012   23.7673 H   0  0  0  0  0  0
  -15.8703  -28.0850   22.7085 H   0  0  0  0  0  0
  -24.5917  -30.7044   25.7684 H   0  0  0  0  0  0
  -24.8874  -32.2908   26.4728 H   0  0  0  0  0  0
  -25.8005  -30.8945   27.0204 H   0  0  0  0  0  0
  -26.2953  -29.6689   24.1241 H   0  0  0  0  0  0
  -27.3982  -29.7227   25.4788 H   0  0  0  0  0  0
  -27.8854  -30.4167   23.9512 H   0  0  0  0  0  0
  -27.2651  -33.3596   26.2025 H   0  0  0  0  0  0
  -28.3916  -32.6812   25.0366 H   0  0  0  0  0  0
  -28.0657  -31.8427   26.5472 H   0  0  0  0  0  0
  -28.2597  -38.0073   24.7525 H   0  0  0  0  0  0
  -28.1053  -36.2613   24.6306 H   0  0  0  0  0  0
  -27.2284  -37.1436   25.8882 H   0  0  0  0  0  0
  -20.9441  -29.8730   21.6745 H   0  0  0  0  0  0
  -26.0148  -38.2826   24.1455 H   0  0  0  0  0  0
  -30.9770  -20.8347   20.6030 H   0  0  0  0  0  0
  -30.7165  -23.2899   20.8105 H   0  0  0  0  0  0
  -25.7546  -20.7305   22.3755 H   0  0  0  0  0  0
  -26.4424  -19.1535   22.0368 H   0  0  0  0  0  0
  -24.7826  -19.4998   21.5827 H   0  0  0  0  0  0
  -26.3702  -19.8842   18.1701 H   0  0  0  0  0  0
  -24.9628  -19.2484   19.0053 H   0  0  0  0  0  0
  -26.5059  -18.5018   19.2617 H   0  0  0  0  0  0
  -27.1809  -25.9872   22.5813 H   0  0  0  0  0  0
  -27.4426  -24.2849   22.9151 H   0  0  0  0  0  0
  -26.2323  -24.7636   21.7343 H   0  0  0  0  0  0
  -31.4268  -17.2898   22.4187 H   0  0  0  0  0  0
  -29.7895  -17.7505   22.8723 H   0  0  0  0  0  0
  -30.8960  -18.9537   22.2273 H   0  0  0  0  0  0
  -28.7339  -18.5136   19.2281 H   0  0  0  0  0  0
  -28.0529  -18.3625   20.8173 H   0  0  0  0  0  0
  -25.5429  -21.2627   20.0464 H   0  0  0  0  0  0
  -29.2092  -25.1216   21.5689 H   0  0  0  0  0  0
  -30.9363  -17.7553   20.0523 H   0  0  0  0  0  0
  -28.7974  -15.8352   20.7847 H   0  0  0  0  0  0
  1 25  1  0  0  0
  1 30  2  0  0  0
  1 85  1  0  0  0
  2  3  1  0  0  0
  2 25  1  0  0  0
  2 86  1  0  0  0
  2 87  1  0  0  0
  3  4  1  0  0  0
  3 88  1  0  0  0
  3 89  1  0  0  0
  4  5  1  0  0  0
  4 90  1  0  0  0
  4 91  1  0  0  0
  5  6  1  0  0  0
  5 26  1  0  0  0
  5 92  1  0  0  0
  6 25  1  0  0  0
  6 93  1  0  0  0
  6 94  1  0  0  0
  7  8  2  0  0  0
  7 26  1  0  0  0
  7 29  1  0  0  0
  8  9  1  0  0  0
  8 22  1  0  0  0
  9 10  1  0  0  0
  9 27  2  0  0  0
 10 11  2  0  0  0
 10 15  1  0  0  0
 11 12  1  0  0  0
 11 95  1  0  0  0
 12 13  2  0  0  0
 12 96  1  0  0  0
 13 14  1  0  0  0
 13 31  1  0  0  0
 14 15  2  0  0  0
 14 97  1  0  0  0
 15 98  1  0  0  0
 16 17  2  0  0  0
 16 21  1  0  0  0
 16 31  1  0  0  0
 17 18  1  0  0  0
 17 99  1  0  0  0
 18 19  2  0  0  0
 18100  1  0  0  0
 19 20  1  0  0  0
 19 24  1  0  0  0
 20 21  2  0  0  0
 20101  1  0  0  0
 21 23  1  0  0  0
 22 28  1  0  0  0
 22 32  2  0  0  0
 26 27  1  0  0  0
 28102  1  0  0  0
 28103  1  0  0  0
 29104  1  0  0  0
 29105  1  0  0  0
 33 34  1  0  0  0
 33 66  1  0  0  0
 33 70  2  0  0  0
 34 36  1  0  0  0
 34 59  1  0  0  0
 34106  1  0  0  0
 35 44  2  0  0  0
 35 45  1  0  0  0
 35 68  1  0  0  0
 36 56  1  0  0  0
 36107  1  0  0  0
 37 39  1  0  0  0
 37 47  1  0  0  0
 37 66  1  0  0  0
 37108  1  0  0  0
 38 43  2  0  0  0
 38 46  1  0  0  0
 38 47  1  0  0  0
 39 64  1  0  0  0
 39 67  2  0  0  0
 40 52  1  0  0  0
 40 53  2  0  0  0
 40 58  1  0  0  0
 41109  1  0  0  0
 41110  1  0  0  0
 41111  1  0  0  0
 41 48  1  0  0  0
 42 43  1  0  0  0
 42 66  1  0  0  0
 42112  1  0  0  0
 42113  1  0  0  0
 43 44  1  0  0  0
 44114  1  0  0  0
 45 46  2  0  0  0
 45115  1  0  0  0
 46116  1  0  0  0
 47117  1  0  0  0
 47118  1  0  0  0
 48 56  1  0  0  0
 48 65  1  0  0  0
 48119  1  0  0  0
 49 50  1  0  0  0
 49 53  1  0  0  0
 49 64  1  0  0  0
 49120  1  0  0  0
 50 51  1  0  0  0
 50121  1  0  0  0
 50122  1  0  0  0
 51 52  1  0  0  0
 51123  1  0  0  0
 51124  1  0  0  0
 52125  1  0  0  0
 52126  1  0  0  0
 53 54  1  0  0  0
 54 55  2  0  0  0
 54127  1  0  0  0
 55 57  1  0  0  0
 55128  1  0  0  0
 56 69  2  0  0  0
 57 58  2  0  0  0
 57129  1  0  0  0
 58130  1  0  0  0
 59 60  1  0  0  0
 59 61  1  0  0  0
 59 62  1  0  0  0
 60131  1  0  0  0
 60132  1  0  0  0
 60133  1  0  0  0
 61134  1  0  0  0
 61135  1  0  0  0
 61136  1  0  0  0
 62137  1  0  0  0
 62138  1  0  0  0
 62139  1  0  0  0
 63 65  1  0  0  0
 63140  1  0  0  0
 63141  1  0  0  0
 63142  1  0  0  0
 64143  1  0  0  0
 65144  1  0  0  0
 68 82  1  0  0  0
 71 72  2  0  0  0
 71 73  1  0  0  0
 71145  1  0  0  0
 72 74  1  0  0  0
 72146  1  0  0  0
 73 75  2  0  0  0
 73 80  1  0  0  0
 74 82  1  0  0  0
 74 84  2  0  0  0
 75 81  1  0  0  0
 75 84  1  0  0  0
 76147  1  0  0  0
 76148  1  0  0  0
 76149  1  0  0  0
 76 81  1  0  0  0
 77 81  1  0  0  0
 77150  1  0  0  0
 77151  1  0  0  0
 77152  1  0  0  0
 78153  1  0  0  0
 78154  1  0  0  0
 78155  1  0  0  0
 78 82  1  0  0  0
 79156  1  0  0  0
 79157  1  0  0  0
 79158  1  0  0  0
 79 83  1  0  0  0
 80 83  1  0  0  0
 80159  1  0  0  0
 80160  1  0  0  0
 81161  1  0  0  0
 82162  1  0  0  0
 83 85  1  0  0  0
 83163  1  0  0  0
 85164  1  0  0  0
M  ISO  4   1 100  68 101  82 101  85 100
M  END
> <chiral flag>
0

> <version>
0

> <s_m_source_file>
/data/baiqing/PycharmProjects/Reinvent-master-3.2/result/LINK_invent/BTK/process_docking_weight1_custom_sum_contain_oxygen_bond_distance_aromatic_linkinvent_7_9_3/rearranged_h_0115.sdf

> <i_m_source_file_index>
11

> <r_mmod_Potential_Energy-OPLS-2005>
238.962020874023

> <r_mmod_Stretch_Energy-OPLS-2005>
213.954513549805

> <r_mmod_Bend_Energy-OPLS-2005>
276.713745117188

> <r_mmod_Torsional_Energy-OPLS-2005>
235.515640258789

> <r_mmod_Improper_Torsional_Energy-OPLS-2005>
6.75448131561279

> <r_mmod_Van_der_Waal_Energy-OPLS-2005>
128.481338500977

> <r_mmod_Electrostatic_Energy-OPLS-2005>
-568.160705566406

> <r_mmod_Solvation_Energy-OPLS-2005>
-210.672866821289

> <b_mmod_Minimization_Converged-OPLS-2005>
0

> <r_mmod_RMS_Derivative-OPLS-2005>
2.43477439880371

$$$$
11
                    3D
 Structure written by MMmdl.
167175  0  0  1  0            999 V2000
  -30.6712  -14.5031   20.5602 C   0  0  0  0  0  0
  -30.4269  -12.3218   19.4294 C   0  0  0  0  0  0
  -29.4969  -12.5073   18.2106 C   0  0  0  0  0  0
  -28.0177  -12.3622   18.6214 C   0  0  0  0  0  0
  -27.6586  -13.2064   19.8734 C   0  0  2  0  0  0
  -28.6990  -12.9952   20.9962 C   0  0  0  0  0  0
  -25.2592  -13.8163   20.5693 C   0  0  0  0  0  0
  -24.1830  -13.0440   20.9162 C   0  0  0  0  0  0
  -24.6380  -11.6908   20.8708 C   0  0  0  0  0  0
  -23.9046  -10.4295   21.0386 C   0  0  0  0  0  0
  -24.3602   -9.4222   21.9174 C   0  0  0  0  0  0
  -23.6286   -8.2253   22.0753 C   0  0  0  0  0  0
  -22.4271   -8.0278   21.3545 C   0  0  0  0  0  0
  -21.9896   -9.0247   20.4649 C   0  0  0  0  0  0
  -22.7213  -10.2132   20.3051 C   0  0  0  0  0  0
  -21.6855   -6.0730   22.5285 C   0  0  0  0  0  0
  -21.4017   -6.5637   23.8217 C   0  0  0  0  0  0
  -21.3667   -5.6794   24.9182 C   0  0  0  0  0  0
  -21.6049   -4.3056   24.7231 C   0  0  0  0  0  0
  -21.8818   -3.8144   23.4353 C   0  0  0  0  0  0
  -21.9196   -4.6959   22.3408 C   0  0  0  0  0  0
  -22.7864  -13.5252   21.1841 C   0  0  0  0  0  0
  -22.1657   -4.2146   21.0982 F   0  0  0  0  0  0
  -21.5641   -3.4540   25.7743 F   0  0  0  0  0  0
  -30.0274  -13.3096   20.4445 N   0  0  0  0  0  0
  -26.3008  -12.9324   20.3354 N   0  0  0  0  0  0
  -25.9306  -11.6486   20.5745 N   0  0  0  0  0  0
  -22.0506  -12.8246   22.0399 N   0  0  0  0  0  0
  -25.4331  -15.1883   20.4178 N   0  0  0  0  0  0
  -31.7994  -14.7022   20.1018 O   0  0  0  0  0  0
  -21.6644   -6.8869   21.4243 O   0  0  0  0  0  0
  -22.3548  -14.5564   20.6708 O   0  0  0  0  0  0
  -24.6159  -31.8662   23.2085 C   0  0  0  0  0  0
  -25.9054  -32.4808   23.8374 C   0  0  1  0  0  0
  -27.2303  -27.4175   20.1051 C   0  0  0  0  0  0
  -25.5909  -33.8605   24.2321 N   0  0  0  0  0  0
  -23.4040  -30.4893   21.5484 C   0  0  2  0  0  0
  -24.8508  -28.9497   20.1147 C   0  0  0  0  0  0
  -22.7404  -29.4668   22.4985 C   0  0  0  0  0  0
  -18.0290  -28.1369   22.8482 C   0  0  0  0  0  0
  -24.1489  -36.7310   23.2637 C   0  0  0  0  0  0
  -25.9331  -30.8285   21.3621 C   0  0  0  0  0  0
  -26.0111  -29.4608   20.7106 C   0  0  0  0  0  0
  -27.2071  -28.7042   20.6981 C   0  0  0  0  0  0
  -26.0584  -26.9250   19.4994 C   0  0  0  0  0  0
  -24.8702  -27.6813   19.5054 C   0  0  0  0  0  0
  -23.6123  -29.8168   20.1644 C   0  0  0  0  0  0
  -25.4107  -36.3100   24.0339 C   0  0  1  0  0  0
  -20.5875  -28.3662   23.1330 C   0  0  2  0  0  0
  -20.6788  -26.9402   22.5421 C   0  0  0  0  0  0
  -19.5783  -26.6416   21.5190 C   0  0  0  0  0  0
  -18.1940  -26.7942   22.1562 C   0  0  0  0  0  0
  -19.1534  -28.8823   23.2913 C   0  0  0  0  0  0
  -18.9455  -30.1425   23.8934 C   0  0  0  0  0  0
  -17.6453  -30.6558   24.0596 C   0  0  0  0  0  0
  -25.9035  -34.9469   23.5129 C   0  0  0  0  0  0
  -16.5352  -29.9062   23.6337 C   0  0  0  0  0  0
  -16.7279  -28.6494   23.0329 C   0  0  0  0  0  0
  -26.4482  -31.6583   25.0702 C   0  0  0  0  0  0
  -25.3753  -31.3690   26.1456 C   0  0  0  0  0  0
  -27.0311  -30.3026   24.6070 C   0  0  0  0  0  0
  -27.6060  -32.4298   25.7470 C   0  0  0  0  0  0
  -27.5580  -37.1809   24.8463 C   0  0  0  0  0  0
  -21.4134  -29.3032   22.3725 N   0  0  0  0  0  0
  -26.4294  -37.3784   23.9408 N   0  0  0  0  0  0
  -24.6690  -31.0757   22.0985 N   0  0  0  0  0  0
  -23.4174  -28.8224   23.3043 O   0  0  0  0  0  0
  -28.3802  -26.6530   20.0827 O   0  0  0  0  0  0
  -26.5591  -34.8926   22.4689 O   0  0  0  0  0  0
  -23.5354  -32.1423   23.7484 O   0  0  0  0  0  0
  -29.3143  -23.2161   21.3284 C   0  0  0  0  0  0
  -28.4615  -24.1931   20.7518 C   0  0  0  0  0  0
  -27.2147  -22.4738   19.7994 C   0  0  0  0  0  0
  -28.0687  -21.4887   20.4003 C   0  0  0  0  0  0
  -28.9618  -17.7451   20.4897 C   0  0  0  0  0  0
  -26.1308  -22.6153   17.5063 C   0  0  0  0  0  0
  -24.6879  -22.6729   19.6025 C   0  0  0  0  0  0
  -26.6210  -19.6545   21.3549 C   0  0  0  0  0  0
  -27.8078  -25.9694   22.4383 C   0  0  0  0  0  0
  -30.2022  -16.9584   20.9684 C   0  0  0  0  0  0
  -25.9784  -22.1346   18.9589 C   0  0  0  0  0  0
  -27.7679  -19.9665   20.3694 C   0  0  2  0  0  0
  -28.5988  -25.6820   21.1437 C   0  0  1  0  0  0
  -29.1266  -21.8790   21.1598 N   0  0  0  0  0  0
  -27.4216  -23.8110   19.9728 N   0  0  0  0  0  0
  -28.9178  -19.0843   20.6768 N   0  0  0  0  0  0
  -29.9306  -15.5087   21.0632 N   0  0  0  0  0  0
  -28.0321  -17.1261   19.9633 O   0  0  0  0  0  0
  -31.4709  -12.4313   19.1305 H   0  0  0  0  0  0
  -30.3380  -11.3129   19.8352 H   0  0  0  0  0  0
  -29.7423  -11.7846   17.4309 H   0  0  0  0  0  0
  -29.6569  -13.4942   17.7730 H   0  0  0  0  0  0
  -27.8304  -11.3066   18.8211 H   0  0  0  0  0  0
  -27.3672  -12.6321   17.7883 H   0  0  0  0  0  0
  -27.6992  -14.2528   19.5703 H   0  0  0  0  0  0
  -28.6827  -11.9607   21.3417 H   0  0  0  0  0  0
  -28.4548  -13.5977   21.8720 H   0  0  0  0  0  0
  -25.2736   -9.5718   22.4763 H   0  0  0  0  0  0
  -24.0011   -7.4649   22.7471 H   0  0  0  0  0  0
  -21.0835   -8.8753   19.8948 H   0  0  0  0  0  0
  -22.3648  -10.9676   19.6176 H   0  0  0  0  0  0
  -21.2001   -7.6146   23.9716 H   0  0  0  0  0  0
  -21.1492   -6.0525   25.9084 H   0  0  0  0  0  0
  -22.0587   -2.7605   23.2855 H   0  0  0  0  0  0
  -22.4105  -11.9899   22.4786 H   0  0  0  0  0  0
  -21.1141  -13.1316   22.2605 H   0  0  0  0  0  0
  -24.6674  -15.8406   20.5418 H   0  0  0  0  0  0
  -26.3022  -15.6463   20.1564 H   0  0  0  0  0  0
  -26.7117  -32.5522   23.1129 H   0  0  0  0  0  0
  -25.0075  -33.9746   25.0477 H   0  0  0  0  0  0
  -22.6939  -31.3070   21.4079 H   0  0  0  0  0  0
  -23.3741  -35.9653   23.3306 H   0  0  0  0  0  0
  -24.3579  -36.8918   22.2048 H   0  0  0  0  0  0
  -23.7258  -37.6525   23.6646 H   0  0  0  0  0  0
  -26.0449  -31.5939   20.5927 H   0  0  0  0  0  0
  -26.8204  -30.8826   21.9814 H   0  0  0  0  0  0
  -28.1059  -29.0941   21.1553 H   0  0  0  0  0  0
  -26.0665  -25.9512   19.0296 H   0  0  0  0  0  0
  -23.9788  -27.2824   19.0417 H   0  0  0  0  0  0
  -23.7168  -30.5900   19.4028 H   0  0  0  0  0  0
  -22.7362  -29.2353   19.8730 H   0  0  0  0  0  0
  -25.1285  -36.1961   25.0830 H   0  0  0  0  0  0
  -20.9964  -28.3232   24.1452 H   0  0  0  0  0  0
  -20.5692  -26.2249   23.3586 H   0  0  0  0  0  0
  -21.6666  -26.7455   22.1217 H   0  0  0  0  0  0
  -19.6753  -27.3294   20.6774 H   0  0  0  0  0  0
  -19.6970  -25.6349   21.1159 H   0  0  0  0  0  0
  -17.4245  -26.6769   21.3916 H   0  0  0  0  0  0
  -18.0281  -26.0035   22.8890 H   0  0  0  0  0  0
  -19.7926  -30.7246   24.2307 H   0  0  0  0  0  0
  -17.4995  -31.6237   24.5195 H   0  0  0  0  0  0
  -15.5346  -30.2962   23.7617 H   0  0  0  0  0  0
  -15.8693  -28.0826   22.6981 H   0  0  0  0  0  0
  -24.5916  -30.7047   25.7793 H   0  0  0  0  0  0
  -24.8954  -32.2846   26.4926 H   0  0  0  0  0  0
  -25.8111  -30.8843   27.0200 H   0  0  0  0  0  0
  -26.2851  -29.6784   24.1133 H   0  0  0  0  0  0
  -27.4095  -29.7262   25.4519 H   0  0  0  0  0  0
  -27.8679  -30.4337   23.9204 H   0  0  0  0  0  0
  -27.2677  -33.3578   26.2091 H   0  0  0  0  0  0
  -28.3855  -32.6886   25.0293 H   0  0  0  0  0  0
  -28.0742  -31.8392   26.5353 H   0  0  0  0  0  0
  -28.2600  -38.0101   24.7497 H   0  0  0  0  0  0
  -28.1071  -36.2633   24.6301 H   0  0  0  0  0  0
  -27.2293  -37.1477   25.8864 H   0  0  0  0  0  0
  -20.9281  -29.8708   21.6919 H   0  0  0  0  0  0
  -26.0183  -38.2865   24.1407 H   0  0  0  0  0  0
  -30.1282  -23.5093   21.9764 H   0  0  0  0  0  0
  -27.0184  -22.1841   17.0428 H   0  0  0  0  0  0
  -26.2207  -23.7006   17.4513 H   0  0  0  0  0  0
  -25.2704  -22.3245   16.9021 H   0  0  0  0  0  0
  -24.5770  -22.3127   20.6250 H   0  0  0  0  0  0
  -23.8062  -22.3541   19.0457 H   0  0  0  0  0  0
  -24.6804  -23.7628   19.6344 H   0  0  0  0  0  0
  -25.7308  -20.2412   21.1346 H   0  0  0  0  0  0
  -26.9102  -19.8801   22.3816 H   0  0  0  0  0  0
  -26.3204  -18.6077   21.3150 H   0  0  0  0  0  0
  -26.7366  -25.8279   22.2901 H   0  0  0  0  0  0
  -27.9754  -26.9853   22.7956 H   0  0  0  0  0  0
  -28.1149  -25.2941   23.2370 H   0  0  0  0  0  0
  -30.5133  -17.3254   21.9466 H   0  0  0  0  0  0
  -31.0223  -17.1602   20.2786 H   0  0  0  0  0  0
  -25.8555  -21.0550   18.9066 H   0  0  0  0  0  0
  -27.4611  -19.7106   19.3550 H   0  0  0  0  0  0
  -29.6506  -25.8190   21.3976 H   0  0  0  0  0  0
  -29.7192  -19.5468   21.0862 H   0  0  0  0  0  0
  -28.9963  -15.2680   21.3571 H   0  0  0  0  0  0
  1 25  1  0  0  0
  1 30  2  0  0  0
  1 87  1  0  0  0
  2  3  1  0  0  0
  2 25  1  0  0  0
  2 89  1  0  0  0
  2 90  1  0  0  0
  3  4  1  0  0  0
  3 91  1  0  0  0
  3 92  1  0  0  0
  4  5  1  0  0  0
  4 93  1  0  0  0
  4 94  1  0  0  0
  5  6  1  0  0  0
  5 26  1  0  0  0
  5 95  1  0  0  0
  6 25  1  0  0  0
  6 96  1  0  0  0
  6 97  1  0  0  0
  7  8  2  0  0  0
  7 26  1  0  0  0
  7 29  1  0  0  0
  8  9  1  0  0  0
  8 22  1  0  0  0
  9 10  1  0  0  0
  9 27  2  0  0  0
 10 11  2  0  0  0
 10 15  1  0  0  0
 11 12  1  0  0  0
 11 98  1  0  0  0
 12 13  2  0  0  0
 12 99  1  0  0  0
 13 14  1  0  0  0
 13 31  1  0  0  0
 14 15  2  0  0  0
 14100  1  0  0  0
 15101  1  0  0  0
 16 17  2  0  0  0
 16 21  1  0  0  0
 16 31  1  0  0  0
 17 18  1  0  0  0
 17102  1  0  0  0
 18 19  2  0  0  0
 18103  1  0  0  0
 19 20  1  0  0  0
 19 24  1  0  0  0
 20 21  2  0  0  0
 20104  1  0  0  0
 21 23  1  0  0  0
 22 28  1  0  0  0
 22 32  2  0  0  0
 26 27  1  0  0  0
 28105  1  0  0  0
 28106  1  0  0  0
 29107  1  0  0  0
 29108  1  0  0  0
 33 34  1  0  0  0
 33 66  1  0  0  0
 33 70  2  0  0  0
 34 36  1  0  0  0
 34 59  1  0  0  0
 34109  1  0  0  0
 35 44  2  0  0  0
 35 45  1  0  0  0
 35 68  1  0  0  0
 36 56  1  0  0  0
 36110  1  0  0  0
 37 39  1  0  0  0
 37 47  1  0  0  0
 37 66  1  0  0  0
 37111  1  0  0  0
 38 43  2  0  0  0
 38 46  1  0  0  0
 38 47  1  0  0  0
 39 64  1  0  0  0
 39 67  2  0  0  0
 40 52  1  0  0  0
 40 53  2  0  0  0
 40 58  1  0  0  0
 41112  1  0  0  0
 41113  1  0  0  0
 41114  1  0  0  0
 41 48  1  0  0  0
 42 43  1  0  0  0
 42 66  1  0  0  0
 42115  1  0  0  0
 42116  1  0  0  0
 43 44  1  0  0  0
 44117  1  0  0  0
 45 46  2  0  0  0
 45118  1  0  0  0
 46119  1  0  0  0
 47120  1  0  0  0
 47121  1  0  0  0
 48 56  1  0  0  0
 48 65  1  0  0  0
 48122  1  0  0  0
 49 50  1  0  0  0
 49 53  1  0  0  0
 49 64  1  0  0  0
 49123  1  0  0  0
 50 51  1  0  0  0
 50124  1  0  0  0
 50125  1  0  0  0
 51 52  1  0  0  0
 51126  1  0  0  0
 51127  1  0  0  0
 52128  1  0  0  0
 52129  1  0  0  0
 53 54  1  0  0  0
 54 55  2  0  0  0
 54130  1  0  0  0
 55 57  1  0  0  0
 55131  1  0  0  0
 56 69  2  0  0  0
 57 58  2  0  0  0
 57132  1  0  0  0
 58133  1  0  0  0
 59 60  1  0  0  0
 59 61  1  0  0  0
 59 62  1  0  0  0
 60134  1  0  0  0
 60135  1  0  0  0
 60136  1  0  0  0
 61137  1  0  0  0
 61138  1  0  0  0
 61139  1  0  0  0
 62140  1  0  0  0
 62141  1  0  0  0
 62142  1  0  0  0
 63 65  1  0  0  0
 63143  1  0  0  0
 63144  1  0  0  0
 63145  1  0  0  0
 64146  1  0  0  0
 65147  1  0  0  0
 68 83  1  0  0  0
 71 72  2  0  0  0
 71 84  1  0  0  0
 71148  1  0  0  0
 72 83  1  0  0  0
 72 85  1  0  0  0
 73 74  1  0  0  0
 73 81  1  0  0  0
 73 85  2  0  0  0
 74 82  1  0  0  0
 74 84  2  0  0  0
 75 80  1  0  0  0
 75 86  1  0  0  0
 75 88  2  0  0  0
 76149  1  0  0  0
 76150  1  0  0  0
 76151  1  0  0  0
 76 81  1  0  0  0
 77 81  1  0  0  0
 77152  1  0  0  0
 77153  1  0  0  0
 77154  1  0  0  0
 78155  1  0  0  0
 78156  1  0  0  0
 78157  1  0  0  0
 78 82  1  0  0  0
 79158  1  0  0  0
 79159  1  0  0  0
 79160  1  0  0  0
 79 83  1  0  0  0
 80 87  1  0  0  0
 80161  1  0  0  0
 80162  1  0  0  0
 81163  1  0  0  0
 82 86  1  0  0  0
 82164  1  0  0  0
 83165  1  0  0  0
 86166  1  0  0  0
 87167  1  0  0  0
M  ISO  4   1 100  68 101  83 101  87 100
M  END
> <chiral flag>
0

> <version>
0

> <s_m_source_file>
/data/baiqing/PycharmProjects/Reinvent-master-3.2/result/LINK_invent/BTK/process_docking_weight1_custom_sum_contain_oxygen_bond_distance_aromatic_linkinvent_7_9_3/rearranged_h_0115.sdf

> <i_m_source_file_index>
12

> <r_mmod_Potential_Energy-OPLS-2005>
-201.395858764648

> <r_mmod_Stretch_Energy-OPLS-2005>
49.2742042541504

> <r_mmod_Bend_Energy-OPLS-2005>
108.361938476562

> <r_mmod_Torsional_Energy-OPLS-2005>
199.570770263672

> <r_mmod_Improper_Torsional_Energy-OPLS-2005>
5.12489604949951

> <r_mmod_Van_der_Waal_Energy-OPLS-2005>
148.815887451172

> <r_mmod_Electrostatic_Energy-OPLS-2005>
-508.682159423828

> <r_mmod_Solvation_Energy-OPLS-2005>
-219.298370361328

> <b_mmod_Minimization_Converged-OPLS-2005>
0

> <r_mmod_RMS_Derivative-OPLS-2005>
1.37179040908813

$$$$
12
                    3D
 Structure written by MMmdl.
185193  0  0  1  0            999 V2000
  -30.7717  -14.3297   20.6568 C   0  0  0  0  0  0
  -30.4240  -12.2575   19.3857 C   0  0  0  0  0  0
  -29.4863  -12.4982   18.1880 C   0  0  0  0  0  0
  -28.0063  -12.3804   18.6040 C   0  0  0  0  0  0
  -27.6759  -13.1904   19.8860 C   0  0  2  0  0  0
  -28.7166  -12.9142   20.9971 C   0  0  0  0  0  0
  -25.2684  -13.8136   20.5684 C   0  0  0  0  0  0
  -24.1886  -13.0441   20.9173 C   0  0  0  0  0  0
  -24.6393  -11.6907   20.8722 C   0  0  0  0  0  0
  -23.9020  -10.4300   21.0384 C   0  0  0  0  0  0
  -24.3577   -9.4224   21.9160 C   0  0  0  0  0  0
  -23.6279   -8.2247   22.0741 C   0  0  0  0  0  0
  -22.4274   -8.0262   21.3524 C   0  0  0  0  0  0
  -21.9875   -9.0237   20.4626 C   0  0  0  0  0  0
  -22.7184  -10.2132   20.3039 C   0  0  0  0  0  0
  -21.6835   -6.0708   22.5273 C   0  0  0  0  0  0
  -21.3997   -6.5611   23.8203 C   0  0  0  0  0  0
  -21.3675   -5.6769   24.9173 C   0  0  0  0  0  0
  -21.6064   -4.3038   24.7211 C   0  0  0  0  0  0
  -21.8834   -3.8121   23.4327 C   0  0  0  0  0  0
  -21.9195   -4.6941   22.3386 C   0  0  0  0  0  0
  -22.7925  -13.5288   21.1809 C   0  0  0  0  0  0
  -22.1669   -4.2123   21.0966 F   0  0  0  0  0  0
  -21.5640   -3.4525   25.7722 F   0  0  0  0  0  0
  -30.0612  -13.1946   20.4586 N   0  0  0  0  0  0
  -26.3108  -12.9254   20.3434 N   0  0  0  0  0  0
  -25.9321  -11.6433   20.5781 N   0  0  0  0  0  0
  -22.0501  -12.8330   22.0362 N   0  0  0  0  0  0
  -25.4456  -15.1831   20.4123 N   0  0  0  0  0  0
  -31.7920  -14.6214   20.0277 O   0  0  0  0  0  0
  -21.6636   -6.8857   21.4240 O   0  0  0  0  0  0
  -22.3656  -14.5600   20.6639 O   0  0  0  0  0  0
  -24.6066  -31.8700   23.2137 C   0  0  0  0  0  0
  -25.8995  -32.4822   23.8396 C   0  0  1  0  0  0
  -27.2407  -27.4934   20.0741 C   0  0  0  0  0  0
  -25.5851  -33.8622   24.2317 N   0  0  0  0  0  0
  -23.3905  -30.4961   21.5519 C   0  0  2  0  0  0
  -24.8401  -28.9648   20.1174 C   0  0  0  0  0  0
  -22.7333  -29.4678   22.4993 C   0  0  0  0  0  0
  -18.0251  -28.1391   22.8506 C   0  0  0  0  0  0
  -24.1466  -36.7340   23.2630 C   0  0  0  0  0  0
  -25.9148  -30.8516   21.3634 C   0  0  0  0  0  0
  -25.9959  -29.4875   20.7137 C   0  0  0  0  0  0
  -27.1982  -28.7516   20.7060 C   0  0  0  0  0  0
  -26.0659  -26.9629   19.4989 C   0  0  0  0  0  0
  -24.8652  -27.6954   19.5147 C   0  0  0  0  0  0
  -23.5956  -29.8209   20.1677 C   0  0  0  0  0  0
  -25.4082  -36.3107   24.0330 C   0  0  1  0  0  0
  -20.5834  -28.3667   23.1336 C   0  0  2  0  0  0
  -20.6727  -26.9405   22.5431 C   0  0  0  0  0  0
  -19.5713  -26.6403   21.5213 C   0  0  0  0  0  0
  -18.1900  -26.7936   22.1639 C   0  0  0  0  0  0
  -19.1494  -28.8846   23.2923 C   0  0  0  0  0  0
  -18.9425  -30.1454   23.8933 C   0  0  0  0  0  0
  -17.6425  -30.6609   24.0569 C   0  0  0  0  0  0
  -25.9023  -34.9479   23.5126 C   0  0  0  0  0  0
  -16.5323  -29.9118   23.6306 C   0  0  0  0  0  0
  -16.7232  -28.6523   23.0346 C   0  0  0  0  0  0
  -26.4448  -31.6601   25.0717 C   0  0  0  0  0  0
  -25.3722  -31.3769   26.1467 C   0  0  0  0  0  0
  -27.0255  -30.3005   24.6166 C   0  0  0  0  0  0
  -27.6009  -32.4338   25.7511 C   0  0  0  0  0  0
  -27.5568  -37.1790   24.8434 C   0  0  0  0  0  0
  -21.4072  -29.3025   22.3729 N   0  0  0  0  0  0
  -26.4267  -37.3800   23.9406 N   0  0  0  0  0  0
  -24.6541  -31.0855   22.1012 N   0  0  0  0  0  0
  -23.4131  -28.8194   23.3004 O   0  0  0  0  0  0
  -28.4257  -26.8096   19.9872 O   0  0  0  0  0  0
  -26.5611  -34.8927   22.4704 O   0  0  0  0  0  0
  -23.5285  -32.1442   23.7596 O   0  0  0  0  0  0
  -30.7561  -23.3812   19.5794 C   0  0  0  0  0  0
  -30.2600  -22.0901   19.3472 C   0  0  0  0  0  0
  -31.1754  -21.0030   19.3105 C   0  0  0  0  0  0
  -32.1353  -23.5803   19.6947 C   0  0  0  0  0  0
  -32.5630  -21.3121   19.4331 C   0  0  0  0  0  0
  -28.7626  -21.9255   19.1332 C   0  0  0  0  0  0
  -33.6850  -20.2895   19.3764 C   0  0  0  0  0  0
  -30.7587  -18.9983   17.7779 C   0  0  0  0  0  0
  -29.9987  -17.1780   22.9193 C   0  0  0  0  0  0
  -32.7078  -24.9745   19.8662 C   0  0  0  0  0  0
  -33.4582  -25.4677   18.6132 C   0  0  0  0  0  0
  -30.1440  -27.5049   18.4116 C   0  0  0  0  0  0
  -32.6028  -25.5961   17.3325 C   0  0  0  0  0  0
  -30.7601  -27.2828   17.0111 C   0  0  0  0  0  0
  -31.1622  -18.6596   20.3511 C   0  0  0  0  0  0
  -28.8893  -26.6497   18.6440 C   0  0  0  0  0  0
  -30.6405  -19.5640   19.2083 C   0  0  1  0  0  0
  -30.6559  -16.5828   21.6600 C   0  0  1  0  0  0
  -33.0162  -22.5674   19.6236 N   0  0  0  0  0  0
  -30.2441  -15.1888   21.5356 N   0  0  0  0  0  0
  -32.2125  -26.9908   17.0147 N   0  3  0  0  0  0
  -30.3873  -17.4117   20.4582 N   0  3  0  0  0  0
  -31.4627  -12.3646   19.0658 H   0  0  0  0  0  0
  -30.3311  -11.2312   19.7434 H   0  0  0  0  0  0
  -29.7090  -11.7816   17.3951 H   0  0  0  0  0  0
  -29.6775  -13.4841   17.7648 H   0  0  0  0  0  0
  -27.7951  -11.3237   18.7694 H   0  0  0  0  0  0
  -27.3599  -12.6952   17.7828 H   0  0  0  0  0  0
  -27.7413  -14.2481   19.6294 H   0  0  0  0  0  0
  -28.6698  -11.8701   21.3086 H   0  0  0  0  0  0
  -28.4771  -13.4840   21.8946 H   0  0  0  0  0  0
  -25.2700   -9.5731   22.4742 H   0  0  0  0  0  0
  -23.9986   -7.4652   22.7474 H   0  0  0  0  0  0
  -21.0783   -8.8725   19.8956 H   0  0  0  0  0  0
  -22.3588  -10.9658   19.6160 H   0  0  0  0  0  0
  -21.1966   -7.6116   23.9699 H   0  0  0  0  0  0
  -21.1506   -6.0487   25.9075 H   0  0  0  0  0  0
  -22.0606   -2.7581   23.2818 H   0  0  0  0  0  0
  -22.4031  -11.9994   22.4806 H   0  0  0  0  0  0
  -21.1121  -13.1424   22.2471 H   0  0  0  0  0  0
  -24.6874  -15.8438   20.5388 H   0  0  0  0  0  0
  -26.2985  -15.6212   20.0915 H   0  0  0  0  0  0
  -26.7056  -32.5564   23.1154 H   0  0  0  0  0  0
  -24.9827  -33.9786   25.0335 H   0  0  0  0  0  0
  -22.6750  -31.3100   21.4107 H   0  0  0  0  0  0
  -23.3705  -35.9685   23.3287 H   0  0  0  0  0  0
  -24.3566  -36.8984   22.2042 H   0  0  0  0  0  0
  -23.7258  -37.6550   23.6681 H   0  0  0  0  0  0
  -26.0228  -31.6227   20.5981 H   0  0  0  0  0  0
  -26.8010  -30.9054   21.9832 H   0  0  0  0  0  0
  -28.0943  -29.1585   21.1539 H   0  0  0  0  0  0
  -26.0859  -25.9915   19.0290 H   0  0  0  0  0  0
  -23.9761  -27.2806   19.0593 H   0  0  0  0  0  0
  -23.6922  -30.5881   19.4004 H   0  0  0  0  0  0
  -22.7235  -29.2288   19.8815 H   0  0  0  0  0  0
  -25.1279  -36.1936   25.0826 H   0  0  0  0  0  0
  -20.9957  -28.3230   24.1447 H   0  0  0  0  0  0
  -20.5598  -26.2278   23.3625 H   0  0  0  0  0  0
  -21.6601  -26.7435   22.1237 H   0  0  0  0  0  0
  -19.6866  -25.6316   21.1231 H   0  0  0  0  0  0
  -19.6652  -27.3211   20.6738 H   0  0  0  0  0  0
  -17.4164  -26.6660   21.4050 H   0  0  0  0  0  0
  -18.0313  -26.0104   22.9063 H   0  0  0  0  0  0
  -19.7901  -30.7255   24.2320 H   0  0  0  0  0  0
  -17.4992  -31.6287   24.5170 H   0  0  0  0  0  0
  -15.5327  -30.3029   23.7656 H   0  0  0  0  0  0
  -15.8626  -28.0871   22.7054 H   0  0  0  0  0  0
  -24.5848  -30.7162   25.7816 H   0  0  0  0  0  0
  -24.8976  -32.2963   26.4887 H   0  0  0  0  0  0
  -25.8051  -30.8933   27.0223 H   0  0  0  0  0  0
  -26.2818  -29.6797   24.1143 H   0  0  0  0  0  0
  -27.3824  -29.7244   25.4713 H   0  0  0  0  0  0
  -27.8753  -30.4224   23.9457 H   0  0  0  0  0  0
  -27.2551  -33.3587   26.2151 H   0  0  0  0  0  0
  -28.3801  -32.6974   25.0353 H   0  0  0  0  0  0
  -28.0682  -31.8419   26.5387 H   0  0  0  0  0  0
  -28.2550  -38.0123   24.7523 H   0  0  0  0  0  0
  -28.1111  -36.2649   24.6205 H   0  0  0  0  0  0
  -27.2306  -37.1385   25.8846 H   0  0  0  0  0  0
  -20.9207  -29.8751   21.6962 H   0  0  0  0  0  0
  -26.0146  -38.2865   24.1438 H   0  0  0  0  0  0
  -30.0837  -24.2183   19.6715 H   0  0  0  0  0  0
  -28.2732  -22.8904   18.9955 H   0  0  0  0  0  0
  -28.2944  -21.4269   19.9797 H   0  0  0  0  0  0
  -28.5747  -21.3415   18.2326 H   0  0  0  0  0  0
  -33.4703  -19.4574   18.7103 H   0  0  0  0  0  0
  -33.8793  -19.8985   20.3738 H   0  0  0  0  0  0
  -34.6115  -20.7443   19.0229 H   0  0  0  0  0  0
  -30.1946  -19.6213   17.0821 H   0  0  0  0  0  0
  -30.3373  -17.9960   17.6932 H   0  0  0  0  0  0
  -31.7829  -18.9578   17.4101 H   0  0  0  0  0  0
  -30.1392  -16.5237   23.7810 H   0  0  0  0  0  0
  -28.9256  -17.3283   22.7882 H   0  0  0  0  0  0
  -30.4344  -18.1411   23.1865 H   0  0  0  0  0  0
  -33.3781  -24.9735   20.7275 H   0  0  0  0  0  0
  -31.9069  -25.6623   20.1250 H   0  0  0  0  0  0
  -34.2574  -24.7519   18.4170 H   0  0  0  0  0  0
  -33.9671  -26.4068   18.8293 H   0  0  0  0  0  0
  -29.8600  -28.5537   18.5139 H   0  0  0  0  0  0
  -30.8747  -27.3360   19.1986 H   0  0  0  0  0  0
  -31.7470  -24.9217   17.3382 H   0  0  0  0  0  0
  -33.2120  -25.2648   16.4908 H   0  0  0  0  0  0
  -30.6120  -28.1886   16.4226 H   0  0  0  0  0  0
  -30.2326  -26.4986   16.4631 H   0  0  0  0  0  0
  -31.0812  -19.2151   21.2869 H   0  0  0  0  0  0
  -32.2049  -18.3750   20.2357 H   0  0  0  0  0  0
  -29.0929  -25.5980   18.4619 H   0  0  0  0  0  0
  -28.1399  -26.9268   17.9014 H   0  0  0  0  0  0
  -29.5692  -19.5918   19.3979 H   0  0  0  0  0  0
  -31.7353  -16.5763   21.8265 H   0  0  0  0  0  0
  -29.4473  -14.8801   22.0709 H   0  0  0  0  0  0
  -32.5077  -27.1230   16.0593 H   0  0  0  0  0  0
  -32.7285  -27.6580   17.5642 H   0  0  0  0  0  0
  -30.6354  -16.8633   19.6468 H   0  0  0  0  0  0
  -29.4035  -17.6256   20.4060 H   0  0  0  0  0  0
  1 25  1  0  0  0
  1 30  2  0  0  0
  1 90  1  0  0  0
  2  3  1  0  0  0
  2 25  1  0  0  0
  2 93  1  0  0  0
  2 94  1  0  0  0
  3  4  1  0  0  0
  3 95  1  0  0  0
  3 96  1  0  0  0
  4  5  1  0  0  0
  4 97  1  0  0  0
  4 98  1  0  0  0
  5  6  1  0  0  0
  5 26  1  0  0  0
  5 99  1  0  0  0
  6 25  1  0  0  0
  6100  1  0  0  0
  6101  1  0  0  0
  7  8  2  0  0  0
  7 26  1  0  0  0
  7 29  1  0  0  0
  8  9  1  0  0  0
  8 22  1  0  0  0
  9 10  1  0  0  0
  9 27  2  0  0  0
 10 11  2  0  0  0
 10 15  1  0  0  0
 11 12  1  0  0  0
 11102  1  0  0  0
 12 13  2  0  0  0
 12103  1  0  0  0
 13 14  1  0  0  0
 13 31  1  0  0  0
 14 15  2  0  0  0
 14104  1  0  0  0
 15105  1  0  0  0
 16 17  2  0  0  0
 16 21  1  0  0  0
 16 31  1  0  0  0
 17 18  1  0  0  0
 17106  1  0  0  0
 18 19  2  0  0  0
 18107  1  0  0  0
 19 20  1  0  0  0
 19 24  1  0  0  0
 20 21  2  0  0  0
 20108  1  0  0  0
 21 23  1  0  0  0
 22 28  1  0  0  0
 22 32  2  0  0  0
 26 27  1  0  0  0
 28109  1  0  0  0
 28110  1  0  0  0
 29111  1  0  0  0
 29112  1  0  0  0
 33 34  1  0  0  0
 33 66  1  0  0  0
 33 70  2  0  0  0
 34 36  1  0  0  0
 34 59  1  0  0  0
 34113  1  0  0  0
 35 44  2  0  0  0
 35 45  1  0  0  0
 35 68  1  0  0  0
 36 56  1  0  0  0
 36114  1  0  0  0
 37 39  1  0  0  0
 37 47  1  0  0  0
 37 66  1  0  0  0
 37115  1  0  0  0
 38 43  2  0  0  0
 38 46  1  0  0  0
 38 47  1  0  0  0
 39 64  1  0  0  0
 39 67  2  0  0  0
 40 52  1  0  0  0
 40 53  2  0  0  0
 40 58  1  0  0  0
 41116  1  0  0  0
 41117  1  0  0  0
 41118  1  0  0  0
 41 48  1  0  0  0
 42 43  1  0  0  0
 42 66  1  0  0  0
 42119  1  0  0  0
 42120  1  0  0  0
 43 44  1  0  0  0
 44121  1  0  0  0
 45 46  2  0  0  0
 45122  1  0  0  0
 46123  1  0  0  0
 47124  1  0  0  0
 47125  1  0  0  0
 48 56  1  0  0  0
 48 65  1  0  0  0
 48126  1  0  0  0
 49 50  1  0  0  0
 49 53  1  0  0  0
 49 64  1  0  0  0
 49127  1  0  0  0
 50 51  1  0  0  0
 50128  1  0  0  0
 50129  1  0  0  0
 51 52  1  0  0  0
 51130  1  0  0  0
 51131  1  0  0  0
 52132  1  0  0  0
 52133  1  0  0  0
 53 54  1  0  0  0
 54 55  2  0  0  0
 54134  1  0  0  0
 55 57  1  0  0  0
 55135  1  0  0  0
 56 69  2  0  0  0
 57 58  2  0  0  0
 57136  1  0  0  0
 58137  1  0  0  0
 59 60  1  0  0  0
 59 61  1  0  0  0
 59 62  1  0  0  0
 60138  1  0  0  0
 60139  1  0  0  0
 60140  1  0  0  0
 61141  1  0  0  0
 61142  1  0  0  0
 61143  1  0  0  0
 62144  1  0  0  0
 62145  1  0  0  0
 62146  1  0  0  0
 63 65  1  0  0  0
 63147  1  0  0  0
 63148  1  0  0  0
 63149  1  0  0  0
 64150  1  0  0  0
 65151  1  0  0  0
 68 86  1  0  0  0
 71 72  2  0  0  0
 71 74  1  0  0  0
 71152  1  0  0  0
 72 73  1  0  0  0
 72 76  1  0  0  0
 73 75  2  0  0  0
 73 87  1  0  0  0
 74 80  1  0  0  0
 74 89  2  0  0  0
 75 77  1  0  0  0
 75 89  1  0  0  0
 76153  1  0  0  0
 76154  1  0  0  0
 76155  1  0  0  0
 77156  1  0  0  0
 77157  1  0  0  0
 77158  1  0  0  0
 78159  1  0  0  0
 78160  1  0  0  0
 78161  1  0  0  0
 78 87  1  0  0  0
 79162  1  0  0  0
 79163  1  0  0  0
 79164  1  0  0  0
 79 88  1  0  0  0
 80 81  1  0  0  0
 80165  1  0  0  0
 80166  1  0  0  0
 81 83  1  0  0  0
 81167  1  0  0  0
 81168  1  0  0  0
 82 84  1  0  0  0
 82 86  1  0  0  0
 82169  1  0  0  0
 82170  1  0  0  0
 83 91  1  0  0  0
 83171  1  0  0  0
 83172  1  0  0  0
 84 91  1  0  0  0
 84173  1  0  0  0
 84174  1  0  0  0
 85 87  1  0  0  0
 85 92  1  0  0  0
 85175  1  0  0  0
 85176  1  0  0  0
 86177  1  0  0  0
 86178  1  0  0  0
 87179  1  0  0  0
 88 90  1  0  0  0
 88 92  1  0  0  0
 88180  1  0  0  0
 90181  1  0  0  0
 91182  1  0  0  0
 91183  1  0  0  0
 92184  1  0  0  0
 92185  1  0  0  0
M  CHG  2  91   1  92   1
M  ISO  4   1 100  68 101  86 101  90 100
M  END
> <chiral flag>
0

> <version>
0

> <s_m_source_file>
/data/baiqing/PycharmProjects/Reinvent-master-3.2/result/LINK_invent/BTK/process_docking_weight1_custom_sum_contain_oxygen_bond_distance_aromatic_linkinvent_7_9_3/rearranged_h_0115.sdf

> <i_m_source_file_index>
13

> <r_mmod_Potential_Energy-OPLS-2005>
-569.865478515625

> <r_mmod_Stretch_Energy-OPLS-2005>
34.9848556518555

> <r_mmod_Bend_Energy-OPLS-2005>
109.373954772949

> <r_mmod_Torsional_Energy-OPLS-2005>
264.475646972656

> <r_mmod_Improper_Torsional_Energy-OPLS-2005>
2.63347983360291

> <r_mmod_Van_der_Waal_Energy-OPLS-2005>
161.145965576172

> <r_mmod_Electrostatic_Energy-OPLS-2005>
-299.107666015625

> <r_mmod_Solvation_Energy-OPLS-2005>
-850.670837402344

> <b_mmod_Minimization_Converged-OPLS-2005>
0

> <r_mmod_RMS_Derivative-OPLS-2005>
4.01710844039917

$$$$
13
                    3D
 Structure written by MMmdl.
173182  0  0  1  0            999 V2000
  -30.6848  -14.4213   20.6282 C   0  0  0  0  0  0
  -30.4486  -12.3096   19.3860 C   0  0  0  0  0  0
  -29.5001  -12.5541   18.1955 C   0  0  0  0  0  0
  -28.0191  -12.4132   18.6100 C   0  0  0  0  0  0
  -27.6739  -13.2044   19.9007 C   0  0  2  0  0  0
  -28.7195  -12.8942   20.9971 C   0  0  0  0  0  0
  -25.2581  -13.8111   20.5702 C   0  0  0  0  0  0
  -24.1838  -13.0375   20.9179 C   0  0  0  0  0  0
  -24.6396  -11.6831   20.8695 C   0  0  0  0  0  0
  -23.9073  -10.4240   21.0364 C   0  0  0  0  0  0
  -24.3608   -9.4153   21.9152 C   0  0  0  0  0  0
  -23.6266   -8.2196   22.0714 C   0  0  0  0  0  0
  -22.4251   -8.0254   21.3526 C   0  0  0  0  0  0
  -21.9901   -9.0219   20.4623 C   0  0  0  0  0  0
  -22.7228  -10.2086   20.3021 C   0  0  0  0  0  0
  -21.6844   -6.0687   22.5253 C   0  0  0  0  0  0
  -21.4013   -6.5598   23.8190 C   0  0  0  0  0  0
  -21.3672   -5.6763   24.9175 C   0  0  0  0  0  0
  -21.6061   -4.3029   24.7238 C   0  0  0  0  0  0
  -21.8832   -3.8105   23.4372 C   0  0  0  0  0  0
  -21.9190   -4.6912   22.3411 C   0  0  0  0  0  0
  -22.7860  -13.5123   21.1885 C   0  0  0  0  0  0
  -22.1646   -4.2073   21.1002 F   0  0  0  0  0  0
  -21.5660   -3.4535   25.7777 F   0  0  0  0  0  0
  -30.0570  -13.2275   20.4638 N   0  0  0  0  0  0
  -26.3083  -12.9269   20.3479 N   0  0  0  0  0  0
  -25.9337  -11.6425   20.5754 N   0  0  0  0  0  0
  -22.0546  -12.8059   22.0459 N   0  0  0  0  0  0
  -25.4283  -15.1829   20.4156 N   0  0  0  0  0  0
  -31.7575  -14.7183   20.0908 O   0  0  0  0  0  0
  -21.6632   -6.8828   21.4215 O   0  0  0  0  0  0
  -22.3484  -14.5419   20.6765 O   0  0  0  0  0  0
  -24.6076  -31.8686   23.2138 C   0  0  0  0  0  0
  -25.9012  -32.4815   23.8405 C   0  0  1  0  0  0
  -27.2396  -27.4601   20.0688 C   0  0  0  0  0  0
  -25.5881  -33.8608   24.2338 N   0  0  0  0  0  0
  -23.3997  -30.4912   21.5538 C   0  0  2  0  0  0
  -24.8436  -28.9605   20.1153 C   0  0  0  0  0  0
  -22.7340  -29.4687   22.5017 C   0  0  0  0  0  0
  -18.0217  -28.1374   22.8562 C   0  0  0  0  0  0
  -24.1510  -36.7327   23.2641 C   0  0  0  0  0  0
  -25.9245  -30.8346   21.3703 C   0  0  0  0  0  0
  -26.0019  -29.4748   20.7102 C   0  0  0  0  0  0
  -27.1999  -28.7274   20.6915 C   0  0  0  0  0  0
  -26.0614  -26.9653   19.4617 C   0  0  0  0  0  0
  -24.8634  -27.7009   19.4940 C   0  0  0  0  0  0
  -23.6050  -29.8203   20.1689 C   0  0  0  0  0  0
  -25.4129  -36.3094   24.0338 C   0  0  1  0  0  0
  -20.5793  -28.3714   23.1308 C   0  0  2  0  0  0
  -20.6782  -26.9497   22.5324 C   0  0  0  0  0  0
  -19.5702  -26.6443   21.5225 C   0  0  0  0  0  0
  -18.1919  -26.7882   22.1796 C   0  0  0  0  0  0
  -19.1482  -28.8862   23.2893 C   0  0  0  0  0  0
  -18.9456  -30.1460   23.8871 C   0  0  0  0  0  0
  -17.6482  -30.6611   24.0565 C   0  0  0  0  0  0
  -25.9041  -34.9450   23.5133 C   0  0  0  0  0  0
  -16.5332  -29.9130   23.6404 C   0  0  0  0  0  0
  -16.7214  -28.6528   23.0439 C   0  0  0  0  0  0
  -26.4456  -31.6573   25.0708 C   0  0  0  0  0  0
  -25.3767  -31.3653   26.1492 C   0  0  0  0  0  0
  -27.0299  -30.3019   24.6086 C   0  0  0  0  0  0
  -27.6029  -32.4293   25.7480 C   0  0  0  0  0  0
  -27.5597  -37.1828   24.8454 C   0  0  0  0  0  0
  -21.4065  -29.3152   22.3774 N   0  0  0  0  0  0
  -26.4323  -37.3761   23.9368 N   0  0  0  0  0  0
  -24.6619  -31.0758   22.1068 N   0  0  0  0  0  0
  -23.4087  -28.8133   23.3016 O   0  0  0  0  0  0
  -28.4351  -26.7686   20.0589 O   0  0  0  0  0  0
  -26.5589  -34.8905   22.4689 O   0  0  0  0  0  0
  -23.5265  -32.1470   23.7492 O   0  0  0  0  0  0
  -27.7227  -17.4064   24.2289 C   0  0  0  0  0  0
  -28.9444  -16.8992   23.7181 C   0  0  0  0  0  0
  -27.0664  -17.9966   23.1926 C   0  0  0  0  0  0
  -29.0173  -17.1937   22.3830 C   0  0  0  0  0  0
  -26.2413  -22.3335   17.7777 C   0  0  0  0  0  0
  -27.1635  -23.4320   17.2414 C   0  0  0  0  0  0
  -28.1707  -22.4693   19.2109 C   0  0  0  0  0  0
  -27.1224  -21.4688   18.7001 C   0  0  1  0  0  0
  -25.2252  -21.4203   20.4984 C   0  0  0  0  0  0
  -30.0760  -16.7353   21.4198 C   0  0  0  0  0  0
  -27.2946  -20.0126   20.8626 C   0  0  0  0  0  0
  -27.4442  -18.4793   20.7751 C   0  0  0  0  0  0
  -28.8117  -24.8548   18.5312 C   0  0  0  0  0  0
  -28.3895  -25.3437   19.9388 C   0  0  0  0  0  0
  -26.3597  -20.6488   19.7905 C   0  0  2  0  0  0
  -27.8587  -17.9109   22.0556 N   0  0  0  0  0  0
  -29.9711  -15.2901   21.3498 N   0  0  0  0  0  0
  -28.3403  -23.4867   18.1406 N   0  3  2  0  0  0
  -31.4825  -12.4568   19.0693 H   0  0  0  0  0  0
  -30.3889  -11.2758   19.7300 H   0  0  0  0  0  0
  -29.7338  -11.8622   17.3861 H   0  0  0  0  0  0
  -29.6739  -13.5535   17.7918 H   0  0  0  0  0  0
  -27.8169  -11.3528   18.7625 H   0  0  0  0  0  0
  -27.3725  -12.7412   17.7963 H   0  0  0  0  0  0
  -27.7364  -14.2683   19.6716 H   0  0  0  0  0  0
  -28.6877  -11.8324   21.2368 H   0  0  0  0  0  0
  -28.4733  -13.4015   21.9337 H   0  0  0  0  0  0
  -25.2758   -9.5612   22.4717 H   0  0  0  0  0  0
  -23.9978   -7.4582   22.7400 H   0  0  0  0  0  0
  -21.0845   -8.8735   19.8928 H   0  0  0  0  0  0
  -22.3688  -10.9620   19.6131 H   0  0  0  0  0  0
  -21.1988   -7.6105   23.9667 H   0  0  0  0  0  0
  -21.1490   -6.0515   25.9070 H   0  0  0  0  0  0
  -22.0607   -2.7560   23.2912 H   0  0  0  0  0  0
  -22.4235  -11.9764   22.4855 H   0  0  0  0  0  0
  -21.1136  -13.0958   22.2692 H   0  0  0  0  0  0
  -24.6734  -15.8345   20.6019 H   0  0  0  0  0  0
  -26.3047  -15.6353   20.1889 H   0  0  0  0  0  0
  -26.7090  -32.5497   23.1166 H   0  0  0  0  0  0
  -25.0020  -33.9788   25.0466 H   0  0  0  0  0  0
  -22.6861  -31.3081   21.4107 H   0  0  0  0  0  0
  -23.3744  -35.9689   23.3304 H   0  0  0  0  0  0
  -24.3627  -36.8945   22.2062 H   0  0  0  0  0  0
  -23.7318  -37.6553   23.6657 H   0  0  0  0  0  0
  -26.0380  -31.6073   20.6096 H   0  0  0  0  0  0
  -26.8088  -30.8790   21.9920 H   0  0  0  0  0  0
  -28.0956  -29.1119   21.1574 H   0  0  0  0  0  0
  -26.0471  -26.0215   18.9415 H   0  0  0  0  0  0
  -23.9744  -27.2983   19.0275 H   0  0  0  0  0  0
  -23.7003  -30.5902   19.4040 H   0  0  0  0  0  0
  -22.7287  -29.2383   19.8792 H   0  0  0  0  0  0
  -25.1321  -36.1988   25.0846 H   0  0  0  0  0  0
  -20.9757  -28.3208   24.1465 H   0  0  0  0  0  0
  -20.5719  -26.2364   23.3504 H   0  0  0  0  0  0
  -21.6657  -26.7538   22.1135 H   0  0  0  0  0  0
  -19.6884  -25.6353   21.1326 H   0  0  0  0  0  0
  -19.6488  -27.3155   20.6655 H   0  0  0  0  0  0
  -17.4114  -26.6368   21.4352 H   0  0  0  0  0  0
  -18.0621  -26.0120   22.9350 H   0  0  0  0  0  0
  -19.7987  -30.7304   24.2153 H   0  0  0  0  0  0
  -17.5038  -31.6337   24.5088 H   0  0  0  0  0  0
  -15.5363  -30.3080   23.7766 H   0  0  0  0  0  0
  -15.8572  -28.0899   22.7143 H   0  0  0  0  0  0
  -24.5897  -30.7049   25.7841 H   0  0  0  0  0  0
  -24.9007  -32.2787   26.5062 H   0  0  0  0  0  0
  -25.8180  -30.8726   27.0171 H   0  0  0  0  0  0
  -26.2826  -29.6763   24.1203 H   0  0  0  0  0  0
  -27.4125  -29.7286   25.4543 H   0  0  0  0  0  0
  -27.8615  -30.4310   23.9165 H   0  0  0  0  0  0
  -27.2627  -33.3551   26.2135 H   0  0  0  0  0  0
  -28.3805  -32.6968   25.0310 H   0  0  0  0  0  0
  -28.0735  -31.8382   26.5353 H   0  0  0  0  0  0
  -28.2621  -38.0116   24.7484 H   0  0  0  0  0  0
  -28.1094  -36.2659   24.6310 H   0  0  0  0  0  0
  -27.2285  -37.1488   25.8843 H   0  0  0  0  0  0
  -20.9123  -29.9065   21.7225 H   0  0  0  0  0  0
  -26.0226  -38.2843   24.1338 H   0  0  0  0  0  0
  -27.3484  -17.3306   25.2416 H   0  0  0  0  0  0
  -29.6932  -16.3394   24.2623 H   0  0  0  0  0  0
  -26.0965  -18.4765   23.1669 H   0  0  0  0  0  0
  -25.7688  -21.7569   16.9804 H   0  0  0  0  0  0
  -25.4467  -22.8387   18.3257 H   0  0  0  0  0  0
  -26.6295  -24.3812   17.1793 H   0  0  0  0  0  0
  -27.5021  -23.1901   16.2329 H   0  0  0  0  0  0
  -29.1306  -21.9926   19.4245 H   0  0  0  0  0  0
  -27.8020  -22.8764   20.1495 H   0  0  0  0  0  0
  -27.6541  -20.7498   18.0730 H   0  0  0  0  0  0
  -25.5938  -22.3070   21.0143 H   0  0  0  0  0  0
  -24.7425  -20.7891   21.2423 H   0  0  0  0  0  0
  -24.4259  -21.7160   19.8180 H   0  0  0  0  0  0
  -31.0683  -17.0297   21.7739 H   0  0  0  0  0  0
  -29.9609  -17.1609   20.4247 H   0  0  0  0  0  0
  -28.2922  -20.4460   20.8572 H   0  0  0  0  0  0
  -26.9177  -20.2778   21.8531 H   0  0  0  0  0  0
  -28.1497  -18.2327   19.9871 H   0  0  0  0  0  0
  -26.4989  -18.0151   20.4958 H   0  0  0  0  0  0
  -29.9014  -24.8533   18.4777 H   0  0  0  0  0  0
  -28.4959  -25.5766   17.7764 H   0  0  0  0  0  0
  -29.0827  -24.9420   20.6788 H   0  0  0  0  0  0
  -27.4172  -24.9567   20.2364 H   0  0  0  0  0  0
  -25.8515  -19.8387   19.2651 H   0  0  0  0  0  0
  -29.1540  -14.9167   21.8039 H   0  0  0  0  0  0
  -29.0816  -23.1160   17.5591 H   0  0  0  0  0  0
  1 25  1  0  0  0
  1 30  2  0  0  0
  1 87  1  0  0  0
  2  3  1  0  0  0
  2 25  1  0  0  0
  2 89  1  0  0  0
  2 90  1  0  0  0
  3  4  1  0  0  0
  3 91  1  0  0  0
  3 92  1  0  0  0
  4  5  1  0  0  0
  4 93  1  0  0  0
  4 94  1  0  0  0
  5  6  1  0  0  0
  5 26  1  0  0  0
  5 95  1  0  0  0
  6 25  1  0  0  0
  6 96  1  0  0  0
  6 97  1  0  0  0
  7  8  2  0  0  0
  7 26  1  0  0  0
  7 29  1  0  0  0
  8  9  1  0  0  0
  8 22  1  0  0  0
  9 10  1  0  0  0
  9 27  2  0  0  0
 10 11  2  0  0  0
 10 15  1  0  0  0
 11 12  1  0  0  0
 11 98  1  0  0  0
 12 13  2  0  0  0
 12 99  1  0  0  0
 13 14  1  0  0  0
 13 31  1  0  0  0
 14 15  2  0  0  0
 14100  1  0  0  0
 15101  1  0  0  0
 16 17  2  0  0  0
 16 21  1  0  0  0
 16 31  1  0  0  0
 17 18  1  0  0  0
 17102  1  0  0  0
 18 19  2  0  0  0
 18103  1  0  0  0
 19 20  1  0  0  0
 19 24  1  0  0  0
 20 21  2  0  0  0
 20104  1  0  0  0
 21 23  1  0  0  0
 22 28  1  0  0  0
 22 32  2  0  0  0
 26 27  1  0  0  0
 28105  1  0  0  0
 28106  1  0  0  0
 29107  1  0  0  0
 29108  1  0  0  0
 33 34  1  0  0  0
 33 66  1  0  0  0
 33 70  2  0  0  0
 34 36  1  0  0  0
 34 59  1  0  0  0
 34109  1  0  0  0
 35 44  2  0  0  0
 35 45  1  0  0  0
 35 68  1  0  0  0
 36 56  1  0  0  0
 36110  1  0  0  0
 37 39  1  0  0  0
 37 47  1  0  0  0
 37 66  1  0  0  0
 37111  1  0  0  0
 38 43  2  0  0  0
 38 46  1  0  0  0
 38 47  1  0  0  0
 39 64  1  0  0  0
 39 67  2  0  0  0
 40 52  1  0  0  0
 40 53  2  0  0  0
 40 58  1  0  0  0
 41112  1  0  0  0
 41113  1  0  0  0
 41114  1  0  0  0
 41 48  1  0  0  0
 42 43  1  0  0  0
 42 66  1  0  0  0
 42115  1  0  0  0
 42116  1  0  0  0
 43 44  1  0  0  0
 44117  1  0  0  0
 45 46  2  0  0  0
 45118  1  0  0  0
 46119  1  0  0  0
 47120  1  0  0  0
 47121  1  0  0  0
 48 56  1  0  0  0
 48 65  1  0  0  0
 48122  1  0  0  0
 49 50  1  0  0  0
 49 53  1  0  0  0
 49 64  1  0  0  0
 49123  1  0  0  0
 50 51  1  0  0  0
 50124  1  0  0  0
 50125  1  0  0  0
 51 52  1  0  0  0
 51126  1  0  0  0
 51127  1  0  0  0
 52128  1  0  0  0
 52129  1  0  0  0
 53 54  1  0  0  0
 54 55  2  0  0  0
 54130  1  0  0  0
 55 57  1  0  0  0
 55131  1  0  0  0
 56 69  2  0  0  0
 57 58  2  0  0  0
 57132  1  0  0  0
 58133  1  0  0  0
 59 60  1  0  0  0
 59 61  1  0  0  0
 59 62  1  0  0  0
 60134  1  0  0  0
 60135  1  0  0  0
 60136  1  0  0  0
 61137  1  0  0  0
 61138  1  0  0  0
 61139  1  0  0  0
 62140  1  0  0  0
 62141  1  0  0  0
 62142  1  0  0  0
 63 65  1  0  0  0
 63143  1  0  0  0
 63144  1  0  0  0
 63145  1  0  0  0
 64146  1  0  0  0
 65147  1  0  0  0
 68 84  1  0  0  0
 71 72  1  0  0  0
 71 73  2  0  0  0
 71148  1  0  0  0
 72 74  2  0  0  0
 72149  1  0  0  0
 73 86  1  0  0  0
 73150  1  0  0  0
 74 80  1  0  0  0
 74 86  1  0  0  0
 75 76  1  0  0  0
 75151  1  0  0  0
 75152  1  0  0  0
 75 78  1  0  0  0
 76 88  1  0  0  0
 76153  1  0  0  0
 76154  1  0  0  0
 77 78  1  0  0  0
 77 88  1  0  0  0
 77155  1  0  0  0
 77156  1  0  0  0
 78 85  1  0  0  0
 78157  1  0  0  0
 79158  1  0  0  0
 79159  1  0  0  0
 79160  1  0  0  0
 79 85  1  0  0  0
 80 87  1  0  0  0
 80161  1  0  0  0
 80162  1  0  0  0
 81 82  1  0  0  0
 81 85  1  0  0  0
 81163  1  0  0  0
 81164  1  0  0  0
 82 86  1  0  0  0
 82165  1  0  0  0
 82166  1  0  0  0
 83 84  1  0  0  0
 83167  1  0  0  0
 83168  1  0  0  0
 83 88  1  0  0  0
 84169  1  0  0  0
 84170  1  0  0  0
 85171  1  0  0  0
 87172  1  0  0  0
 88173  1  0  0  0
M  CHG  1  88   1
M  ISO  4   1 100  68 101  84 101  87 100
M  END
> <chiral flag>
0

> <version>
0

> <s_m_source_file>
/data/baiqing/PycharmProjects/Reinvent-master-3.2/result/LINK_invent/BTK/process_docking_weight1_custom_sum_contain_oxygen_bond_distance_aromatic_linkinvent_7_9_3/rearranged_h_0115.sdf

> <i_m_source_file_index>
14

> <r_mmod_Potential_Energy-OPLS-2005>
-55.4691429138184

> <r_mmod_Stretch_Energy-OPLS-2005>
36.7949600219727

> <r_mmod_Bend_Energy-OPLS-2005>
142.196884155273

> <r_mmod_Torsional_Energy-OPLS-2005>
317.649475097656

> <r_mmod_Improper_Torsional_Energy-OPLS-2005>
3.38278698921204

> <r_mmod_Van_der_Waal_Energy-OPLS-2005>
138.361114501953

> <r_mmod_Electrostatic_Energy-OPLS-2005>
-270.533935546875

> <r_mmod_Solvation_Energy-OPLS-2005>
-433.191589355469

> <b_mmod_Minimization_Converged-OPLS-2005>
0

> <r_mmod_RMS_Derivative-OPLS-2005>
5.91263103485107

$$$$
14
                    3D
 Structure written by MMmdl.
162170  0  0  1  0            999 V2000
  -30.6670  -14.5573   20.4458 C   0  0  0  0  0  0
  -30.4234  -12.3212   19.4587 C   0  0  0  0  0  0
  -29.5149  -12.4668   18.2199 C   0  0  0  0  0  0
  -28.0288  -12.3452   18.6152 C   0  0  0  0  0  0
  -27.6542  -13.2136   19.8504 C   0  0  2  0  0  0
  -28.6964  -13.0751   20.9872 C   0  0  0  0  0  0
  -25.2572  -13.8168   20.5619 C   0  0  0  0  0  0
  -24.1849  -13.0432   20.9153 C   0  0  0  0  0  0
  -24.6411  -11.6917   20.8718 C   0  0  0  0  0  0
  -23.9093  -10.4302   21.0374 C   0  0  0  0  0  0
  -24.3651   -9.4222   21.9151 C   0  0  0  0  0  0
  -23.6316   -8.2272   22.0734 C   0  0  0  0  0  0
  -22.4283   -8.0289   21.3548 C   0  0  0  0  0  0
  -21.9928   -9.0257   20.4646 C   0  0  0  0  0  0
  -22.7261  -10.2135   20.3032 C   0  0  0  0  0  0
  -21.6870   -6.0734   22.5276 C   0  0  0  0  0  0
  -21.4022   -6.5630   23.8209 C   0  0  0  0  0  0
  -21.3671   -5.6783   24.9179 C   0  0  0  0  0  0
  -21.6049   -4.3047   24.7226 C   0  0  0  0  0  0
  -21.8838   -3.8139   23.4346 C   0  0  0  0  0  0
  -21.9212   -4.6962   22.3404 C   0  0  0  0  0  0
  -22.7892  -13.5245   21.1821 C   0  0  0  0  0  0
  -22.1667   -4.2148   21.0985 F   0  0  0  0  0  0
  -21.5640   -3.4526   25.7735 F   0  0  0  0  0  0
  -30.0210  -13.3596   20.4226 N   0  0  0  0  0  0
  -26.3001  -12.9345   20.3240 N   0  0  0  0  0  0
  -25.9331  -11.6512   20.5704 N   0  0  0  0  0  0
  -22.0534  -12.8273   22.0392 N   0  0  0  0  0  0
  -25.4283  -15.1880   20.4022 N   0  0  0  0  0  0
  -31.8501  -14.6720   20.1186 O   0  0  0  0  0  0
  -21.6665   -6.8868   21.4225 O   0  0  0  0  0  0
  -22.3605  -14.5555   20.6644 O   0  0  0  0  0  0
  -24.6166  -31.8650   23.2110 C   0  0  0  0  0  0
  -25.9060  -32.4800   23.8393 C   0  0  1  0  0  0
  -27.2224  -27.3978   20.0839 C   0  0  0  0  0  0
  -25.5904  -33.8591   24.2324 N   0  0  0  0  0  0
  -23.4042  -30.4928   21.5507 C   0  0  2  0  0  0
  -24.8461  -28.9574   20.1126 C   0  0  0  0  0  0
  -22.7405  -29.4648   22.4948 C   0  0  0  0  0  0
  -18.0264  -28.1393   22.8492 C   0  0  0  0  0  0
  -24.1493  -36.7304   23.2643 C   0  0  0  0  0  0
  -25.9414  -30.8102   21.3788 C   0  0  0  0  0  0
  -26.0078  -29.4470   20.7177 C   0  0  0  0  0  0
  -27.1926  -28.6708   20.7088 C   0  0  0  0  0  0
  -26.0364  -26.9370   19.4630 C   0  0  0  0  0  0
  -24.8536  -27.6994   19.4889 C   0  0  0  0  0  0
  -23.6144  -29.8325   20.1634 C   0  0  0  0  0  0
  -25.4118  -36.3087   24.0335 C   0  0  1  0  0  0
  -20.5864  -28.3666   23.1307 C   0  0  2  0  0  0
  -20.6781  -26.9400   22.5413 C   0  0  0  0  0  0
  -19.5766  -26.6383   21.5218 C   0  0  0  0  0  0
  -18.1935  -26.7948   22.1611 C   0  0  0  0  0  0
  -19.1526  -28.8843   23.2911 C   0  0  0  0  0  0
  -18.9465  -30.1451   23.8921 C   0  0  0  0  0  0
  -17.6472  -30.6600   24.0574 C   0  0  0  0  0  0
  -25.9036  -34.9460   23.5120 C   0  0  0  0  0  0
  -16.5355  -29.9113   23.6319 C   0  0  0  0  0  0
  -16.7266  -28.6527   23.0337 C   0  0  0  0  0  0
  -26.4489  -31.6601   25.0738 C   0  0  0  0  0  0
  -25.3763  -31.3742   26.1492 C   0  0  0  0  0  0
  -27.0313  -30.3027   24.6154 C   0  0  0  0  0  0
  -27.6034  -32.4342   25.7502 C   0  0  0  0  0  0
  -27.5591  -37.1800   24.8459 C   0  0  0  0  0  0
  -21.4126  -29.3034   22.3700 N   0  0  0  0  0  0
  -26.4302  -37.3768   23.9410 N   0  0  0  0  0  0
  -24.6716  -31.0711   22.1033 N   0  0  0  0  0  0
  -23.4175  -28.8159   23.2975 O   0  0  0  0  0  0
  -28.4014  -26.6651   20.1102 O   0  0  0  0  0  0
  -26.5594  -34.8906   22.4681 O   0  0  0  0  0  0
  -23.5343  -32.1430   23.7473 O   0  0  0  0  0  0
  -30.8427  -21.3744   19.2436 C   0  0  0  0  0  0
  -29.5981  -20.8370   19.6791 C   0  0  0  0  0  0
  -30.8738  -22.7177   19.4952 C   0  0  0  0  0  0
  -28.9069  -21.9008   20.2278 C   0  0  0  0  0  0
  -29.5977  -18.2272   20.3372 C   0  0  0  0  0  0
  -31.9514  -23.7160   19.1876 C   0  0  0  0  0  0
  -27.5390  -21.9283   20.8400 C   0  0  0  0  0  0
  -29.4728  -16.6244   18.2711 C   0  0  0  0  0  0
  -29.1160  -19.3962   19.4207 C   0  0  0  0  0  0
  -29.3496  -24.4315   20.6067 C   0  0  0  0  0  0
  -28.4332  -25.2789   19.6841 C   0  0  0  0  0  0
  -30.0671  -16.8802   19.6744 C   0  0  2  0  0  0
  -29.6817  -23.0675   20.1187 N   0  0  0  0  0  0
  -29.8656  -15.6506   20.4960 N   0  0  0  0  0  0
  -29.5745  -18.3672   21.5633 O   0  0  0  0  0  0
  -31.4742  -12.4007   19.1725 H   0  0  0  0  0  0
  -30.3056  -11.3293   19.9011 H   0  0  0  0  0  0
  -29.7682  -11.7049   17.4808 H   0  0  0  0  0  0
  -29.6973  -13.4249   17.7344 H   0  0  0  0  0  0
  -27.8366  -11.2920   18.8315 H   0  0  0  0  0  0
  -27.3964  -12.5990   17.7631 H   0  0  0  0  0  0
  -27.6686  -14.2487   19.5075 H   0  0  0  0  0  0
  -28.6805  -12.0651   21.4004 H   0  0  0  0  0  0
  -28.4652  -13.7456   21.8159 H   0  0  0  0  0  0
  -25.2788   -9.5731   22.4718 H   0  0  0  0  0  0
  -24.0036   -7.4689   22.7460 H   0  0  0  0  0  0
  -21.0844   -8.8777   19.8974 H   0  0  0  0  0  0
  -22.3681  -10.9668   19.6153 H   0  0  0  0  0  0
  -21.1979   -7.6128   23.9713 H   0  0  0  0  0  0
  -21.1478   -6.0507   25.9090 H   0  0  0  0  0  0
  -22.0598   -2.7592   23.2852 H   0  0  0  0  0  0
  -22.4136  -11.9955   22.4841 H   0  0  0  0  0  0
  -21.1134  -13.1296   22.2508 H   0  0  0  0  0  0
  -24.6549  -15.8340   20.5078 H   0  0  0  0  0  0
  -26.2693  -15.6318   20.0593 H   0  0  0  0  0  0
  -26.7111  -32.5451   23.1124 H   0  0  0  0  0  0
  -25.0059  -33.9770   25.0467 H   0  0  0  0  0  0
  -22.6951  -31.3127   21.4139 H   0  0  0  0  0  0
  -23.3739  -35.9650   23.3290 H   0  0  0  0  0  0
  -24.3607  -36.8934   22.2062 H   0  0  0  0  0  0
  -23.7264  -37.6515   23.6662 H   0  0  0  0  0  0
  -26.0774  -31.5757   20.6146 H   0  0  0  0  0  0
  -26.8224  -30.8437   22.0102 H   0  0  0  0  0  0
  -28.0839  -29.0392   21.1962 H   0  0  0  0  0  0
  -25.9826  -25.9961   18.9390 H   0  0  0  0  0  0
  -23.9597  -27.3147   19.0194 H   0  0  0  0  0  0
  -23.7348  -30.6122   19.4105 H   0  0  0  0  0  0
  -22.7350  -29.2641   19.8557 H   0  0  0  0  0  0
  -25.1291  -36.1939   25.0828 H   0  0  0  0  0  0
  -20.9971  -28.3249   24.1425 H   0  0  0  0  0  0
  -20.5686  -26.2275   23.3599 H   0  0  0  0  0  0
  -21.6652  -26.7454   22.1198 H   0  0  0  0  0  0
  -19.6925  -25.6289   21.1249 H   0  0  0  0  0  0
  -19.6741  -27.3192   20.6750 H   0  0  0  0  0  0
  -17.4214  -26.6689   21.4009 H   0  0  0  0  0  0
  -18.0329  -26.0107   22.9011 H   0  0  0  0  0  0
  -19.7954  -30.7264   24.2301 H   0  0  0  0  0  0
  -17.5035  -31.6282   24.5170 H   0  0  0  0  0  0
  -15.5357  -30.3032   23.7658 H   0  0  0  0  0  0
  -15.8655  -28.0872   22.7034 H   0  0  0  0  0  0
  -24.5881  -30.7151   25.7854 H   0  0  0  0  0  0
  -24.9029  -32.2915   26.4988 H   0  0  0  0  0  0
  -25.8112  -30.8869   27.0231 H   0  0  0  0  0  0
  -26.2868  -29.6798   24.1181 H   0  0  0  0  0  0
  -27.4037  -29.7250   25.4629 H   0  0  0  0  0  0
  -27.8729  -30.4333   23.9351 H   0  0  0  0  0  0
  -27.2611  -33.3592   26.2162 H   0  0  0  0  0  0
  -28.3801  -32.7013   25.0324 H   0  0  0  0  0  0
  -28.0768  -31.8451   26.5374 H   0  0  0  0  0  0
  -28.2569  -38.0126   24.7482 H   0  0  0  0  0  0
  -28.1116  -36.2638   24.6281 H   0  0  0  0  0  0
  -27.2308  -37.1450   25.8865 H   0  0  0  0  0  0
  -20.9264  -29.8807   21.6984 H   0  0  0  0  0  0
  -26.0167  -38.2840   24.1425 H   0  0  0  0  0  0
  -31.6343  -20.8298   18.7460 H   0  0  0  0  0  0
  -32.7291  -23.2770   18.5625 H   0  0  0  0  0  0
  -32.4277  -24.0739   20.1005 H   0  0  0  0  0  0
  -31.5521  -24.5751   18.6486 H   0  0  0  0  0  0
  -27.0200  -20.9826   20.6868 H   0  0  0  0  0  0
  -26.9141  -22.7043   20.3981 H   0  0  0  0  0  0
  -27.5923  -22.1037   21.9146 H   0  0  0  0  0  0
  -29.8239  -17.3495   17.5386 H   0  0  0  0  0  0
  -28.3838  -16.6449   18.2780 H   0  0  0  0  0  0
  -29.7798  -15.6557   17.8817 H   0  0  0  0  0  0
  -29.3944  -19.1837   18.3913 H   0  0  0  0  0  0
  -28.0275  -19.3931   19.4224 H   0  0  0  0  0  0
  -28.9021  -24.3570   21.5985 H   0  0  0  0  0  0
  -30.2779  -24.9837   20.7555 H   0  0  0  0  0  0
  -27.4602  -24.7969   19.6886 H   0  0  0  0  0  0
  -28.8047  -25.2470   18.6587 H   0  0  0  0  0  0
  -31.1413  -16.9993   19.5319 H   0  0  0  0  0  0
  -28.9303  -15.4952   20.8369 H   0  0  0  0  0  0
  1 25  1  0  0  0
  1 30  2  0  0  0
  1 84  1  0  0  0
  2  3  1  0  0  0
  2 25  1  0  0  0
  2 86  1  0  0  0
  2 87  1  0  0  0
  3  4  1  0  0  0
  3 88  1  0  0  0
  3 89  1  0  0  0
  4  5  1  0  0  0
  4 90  1  0  0  0
  4 91  1  0  0  0
  5  6  1  0  0  0
  5 26  1  0  0  0
  5 92  1  0  0  0
  6 25  1  0  0  0
  6 93  1  0  0  0
  6 94  1  0  0  0
  7  8  2  0  0  0
  7 26  1  0  0  0
  7 29  1  0  0  0
  8  9  1  0  0  0
  8 22  1  0  0  0
  9 10  1  0  0  0
  9 27  2  0  0  0
 10 11  2  0  0  0
 10 15  1  0  0  0
 11 12  1  0  0  0
 11 95  1  0  0  0
 12 13  2  0  0  0
 12 96  1  0  0  0
 13 14  1  0  0  0
 13 31  1  0  0  0
 14 15  2  0  0  0
 14 97  1  0  0  0
 15 98  1  0  0  0
 16 17  2  0  0  0
 16 21  1  0  0  0
 16 31  1  0  0  0
 17 18  1  0  0  0
 17 99  1  0  0  0
 18 19  2  0  0  0
 18100  1  0  0  0
 19 20  1  0  0  0
 19 24  1  0  0  0
 20 21  2  0  0  0
 20101  1  0  0  0
 21 23  1  0  0  0
 22 28  1  0  0  0
 22 32  2  0  0  0
 26 27  1  0  0  0
 28102  1  0  0  0
 28103  1  0  0  0
 29104  1  0  0  0
 29105  1  0  0  0
 33 34  1  0  0  0
 33 66  1  0  0  0
 33 70  2  0  0  0
 34 36  1  0  0  0
 34 59  1  0  0  0
 34106  1  0  0  0
 35 44  2  0  0  0
 35 45  1  0  0  0
 35 68  1  0  0  0
 36 56  1  0  0  0
 36107  1  0  0  0
 37 39  1  0  0  0
 37 47  1  0  0  0
 37 66  1  0  0  0
 37108  1  0  0  0
 38 43  2  0  0  0
 38 46  1  0  0  0
 38 47  1  0  0  0
 39 64  1  0  0  0
 39 67  2  0  0  0
 40 52  1  0  0  0
 40 53  2  0  0  0
 40 58  1  0  0  0
 41109  1  0  0  0
 41110  1  0  0  0
 41111  1  0  0  0
 41 48  1  0  0  0
 42 43  1  0  0  0
 42 66  1  0  0  0
 42112  1  0  0  0
 42113  1  0  0  0
 43 44  1  0  0  0
 44114  1  0  0  0
 45 46  2  0  0  0
 45115  1  0  0  0
 46116  1  0  0  0
 47117  1  0  0  0
 47118  1  0  0  0
 48 56  1  0  0  0
 48 65  1  0  0  0
 48119  1  0  0  0
 49 50  1  0  0  0
 49 53  1  0  0  0
 49 64  1  0  0  0
 49120  1  0  0  0
 50 51  1  0  0  0
 50121  1  0  0  0
 50122  1  0  0  0
 51 52  1  0  0  0
 51123  1  0  0  0
 51124  1  0  0  0
 52125  1  0  0  0
 52126  1  0  0  0
 53 54  1  0  0  0
 54 55  2  0  0  0
 54127  1  0  0  0
 55 57  1  0  0  0
 55128  1  0  0  0
 56 69  2  0  0  0
 57 58  2  0  0  0
 57129  1  0  0  0
 58130  1  0  0  0
 59 60  1  0  0  0
 59 61  1  0  0  0
 59 62  1  0  0  0
 60131  1  0  0  0
 60132  1  0  0  0
 60133  1  0  0  0
 61134  1  0  0  0
 61135  1  0  0  0
 61136  1  0  0  0
 62137  1  0  0  0
 62138  1  0  0  0
 62139  1  0  0  0
 63 65  1  0  0  0
 63140  1  0  0  0
 63141  1  0  0  0
 63142  1  0  0  0
 64143  1  0  0  0
 65144  1  0  0  0
 68 81  1  0  0  0
 71 72  1  0  0  0
 71 73  2  0  0  0
 71145  1  0  0  0
 72 74  2  0  0  0
 72 79  1  0  0  0
 73 76  1  0  0  0
 73 83  1  0  0  0
 74 77  1  0  0  0
 74 83  1  0  0  0
 75 79  1  0  0  0
 75 82  1  0  0  0
 75 85  2  0  0  0
 76146  1  0  0  0
 76147  1  0  0  0
 76148  1  0  0  0
 77149  1  0  0  0
 77150  1  0  0  0
 77151  1  0  0  0
 78152  1  0  0  0
 78153  1  0  0  0
 78154  1  0  0  0
 78 82  1  0  0  0
 79155  1  0  0  0
 79156  1  0  0  0
 80 81  1  0  0  0
 80 83  1  0  0  0
 80157  1  0  0  0
 80158  1  0  0  0
 81159  1  0  0  0
 81160  1  0  0  0
 82 84  1  0  0  0
 82161  1  0  0  0
 84162  1  0  0  0
M  ISO  4   1 100  68 101  81 101  84 100
M  END
> <chiral flag>
0

> <version>
0

> <s_m_source_file>
/data/baiqing/PycharmProjects/Reinvent-master-3.2/result/LINK_invent/BTK/process_docking_weight1_custom_sum_contain_oxygen_bond_distance_aromatic_linkinvent_7_9_3/rearranged_h_0115.sdf

> <i_m_source_file_index>
15

> <r_mmod_Potential_Energy-OPLS-2005>
-51.8502388000488

> <r_mmod_Stretch_Energy-OPLS-2005>
49.050853729248

> <r_mmod_Bend_Energy-OPLS-2005>
119.720550537109

> <r_mmod_Torsional_Energy-OPLS-2005>
240.17658996582

> <r_mmod_Improper_Torsional_Energy-OPLS-2005>
11.4046306610107

> <r_mmod_Van_der_Waal_Energy-OPLS-2005>
125.579216003418

> <r_mmod_Electrostatic_Energy-OPLS-2005>
-393.250244140625

> <r_mmod_Solvation_Energy-OPLS-2005>
-232.476867675781

> <b_mmod_Minimization_Converged-OPLS-2005>
0

> <r_mmod_RMS_Derivative-OPLS-2005>
3.72444438934326

$$$$
15
                    3D
 Structure written by MMmdl.
159167  0  0  1  0            999 V2000
  -30.6155  -14.7115   20.4917 C   0  0  0  0  0  0
  -30.4432  -12.4444   19.4500 C   0  0  0  0  0  0
  -29.5075  -12.5047   18.2224 C   0  0  0  0  0  0
  -28.0342  -12.3275   18.6423 C   0  0  0  0  0  0
  -27.6455  -13.2215   19.8495 C   0  0  2  0  0  0
  -28.6952  -13.1288   20.9779 C   0  0  0  0  0  0
  -25.2534  -13.8171   20.5678 C   0  0  0  0  0  0
  -24.1817  -13.0433   20.9208 C   0  0  0  0  0  0
  -24.6394  -11.6907   20.8749 C   0  0  0  0  0  0
  -23.9065  -10.4288   21.0412 C   0  0  0  0  0  0
  -24.3615   -9.4203   21.9188 C   0  0  0  0  0  0
  -23.6291   -8.2239   22.0754 C   0  0  0  0  0  0
  -22.4273   -8.0277   21.3544 C   0  0  0  0  0  0
  -21.9910   -9.0251   20.4645 C   0  0  0  0  0  0
  -22.7239  -10.2131   20.3058 C   0  0  0  0  0  0
  -21.6852   -6.0733   22.5280 C   0  0  0  0  0  0
  -21.4011   -6.5638   23.8211 C   0  0  0  0  0  0
  -21.3659   -5.6791   24.9174 C   0  0  0  0  0  0
  -21.6045   -4.3055   24.7227 C   0  0  0  0  0  0
  -21.8819   -3.8145   23.4347 C   0  0  0  0  0  0
  -21.9192   -4.6960   22.3404 C   0  0  0  0  0  0
  -22.7838  -13.5223   21.1868 C   0  0  0  0  0  0
  -22.1661   -4.2145   21.0981 F   0  0  0  0  0  0
  -21.5630   -3.4539   25.7740 F   0  0  0  0  0  0
  -29.9969  -13.4879   20.3957 N   0  0  0  0  0  0
  -26.2955  -12.9360   20.3275 N   0  0  0  0  0  0
  -25.9322  -11.6513   20.5751 N   0  0  0  0  0  0
  -22.0479  -12.8209   22.0419 N   0  0  0  0  0  0
  -25.4227  -15.1893   20.4063 N   0  0  0  0  0  0
  -31.8064  -14.8455   20.2014 O   0  0  0  0  0  0
  -21.6638   -6.8874   21.4240 O   0  0  0  0  0  0
  -22.3527  -14.5534   20.6724 O   0  0  0  0  0  0
  -24.6341  -31.8575   23.2026 C   0  0  0  0  0  0
  -25.9165  -32.4771   23.8362 C   0  0  1  0  0  0
  -27.2095  -27.2571   20.1050 C   0  0  0  0  0  0
  -25.5961  -33.8573   24.2273 N   0  0  0  0  0  0
  -23.4294  -30.4873   21.5484 C   0  0  2  0  0  0
  -24.8722  -28.9485   20.1113 C   0  0  0  0  0  0
  -22.7518  -29.4625   22.4914 C   0  0  0  0  0  0
  -18.0297  -28.1390   22.8484 C   0  0  0  0  0  0
  -24.1492  -36.7282   23.2637 C   0  0  0  0  0  0
  -25.9820  -30.7677   21.3874 C   0  0  0  0  0  0
  -26.0517  -29.3947   20.7209 C   0  0  0  0  0  0
  -27.2237  -28.5636   20.7088 C   0  0  0  0  0  0
  -25.9930  -26.8987   19.4653 C   0  0  0  0  0  0
  -24.8488  -27.7069   19.4749 C   0  0  0  0  0  0
  -23.6464  -29.8363   20.1615 C   0  0  0  0  0  0
  -25.4119  -36.3074   24.0322 C   0  0  1  0  0  0
  -20.5906  -28.3706   23.1256 C   0  0  2  0  0  0
  -20.6787  -26.9423   22.5396 C   0  0  0  0  0  0
  -19.5757  -26.6386   21.5208 C   0  0  0  0  0  0
  -18.1939  -26.7932   22.1624 C   0  0  0  0  0  0
  -19.1553  -28.8865   23.2865 C   0  0  0  0  0  0
  -18.9472  -30.1465   23.8885 C   0  0  0  0  0  0
  -17.6471  -30.6589   24.0567 C   0  0  0  0  0  0
  -25.9063  -34.9446   23.5092 C   0  0  0  0  0  0
  -16.5360  -29.9083   23.6339 C   0  0  0  0  0  0
  -16.7283  -28.6504   23.0355 C   0  0  0  0  0  0
  -26.4515  -31.6592   25.0753 C   0  0  0  0  0  0
  -25.3722  -31.3750   26.1461 C   0  0  0  0  0  0
  -27.0368  -30.3004   24.6258 C   0  0  0  0  0  0
  -27.6063  -32.4339   25.7528 C   0  0  0  0  0  0
  -27.5576  -37.1802   24.8466 C   0  0  0  0  0  0
  -21.4224  -29.3059   22.3651 N   0  0  0  0  0  0
  -26.4291  -37.3774   23.9407 N   0  0  0  0  0  0
  -24.7014  -31.0541   22.1015 N   0  0  0  0  0  0
  -23.4216  -28.8140   23.2997 O   0  0  0  0  0  0
  -28.2811  -26.3162   20.1530 O   0  0  0  0  0  0
  -26.5627  -34.8916   22.4656 O   0  0  0  0  0  0
  -23.5484  -32.1401   23.7310 O   0  0  0  0  0  0
  -29.6472  -23.0502   18.8012 C   0  0  0  0  0  0
  -29.7940  -21.5053   18.9733 C   0  0  0  0  0  0
  -29.0061  -22.4632   21.0741 C   0  0  0  0  0  0
  -28.6378  -23.4350   19.8849 C   0  0  1  0  0  0
  -29.8490  -21.2155   20.4986 C   0  0  2  0  0  0
  -31.3115  -21.3576   20.9709 C   0  0  0  0  0  0
  -27.8895  -24.8807   19.9181 C   0  0  0  0  0  0
  -30.0852  -17.2379   21.1706 C   0  0  0  0  0  0
  -29.7380  -18.5047   20.2267 C   0  0  0  0  0  0
  -29.8077  -15.8014   20.7391 N   0  0  0  0  0  0
  -29.3593  -19.8195   20.9291 N   0  3  0  0  0  0
  -31.4795  -12.5888   19.1400 H   0  0  0  0  0  0
  -30.4032  -11.4613   19.9218 H   0  0  0  0  0  0
  -29.7844  -11.7362   17.4993 H   0  0  0  0  0  0
  -29.6297  -13.4617   17.7130 H   0  0  0  0  0  0
  -27.8910  -11.2778   18.9012 H   0  0  0  0  0  0
  -27.3730  -12.5234   17.7972 H   0  0  0  0  0  0
  -27.6459  -14.2462   19.4780 H   0  0  0  0  0  0
  -28.7292  -12.1199   21.3921 H   0  0  0  0  0  0
  -28.4333  -13.7870   21.8081 H   0  0  0  0  0  0
  -25.2759   -9.5678   22.4762 H   0  0  0  0  0  0
  -24.0001   -7.4627   22.7470 H   0  0  0  0  0  0
  -21.0843   -8.8768   19.8947 H   0  0  0  0  0  0
  -22.3699  -10.9669   19.6163 H   0  0  0  0  0  0
  -21.2000   -7.6146   23.9713 H   0  0  0  0  0  0
  -21.1482   -6.0523   25.9077 H   0  0  0  0  0  0
  -22.0599   -2.7607   23.2851 H   0  0  0  0  0  0
  -22.4094  -11.9866   22.4802 H   0  0  0  0  0  0
  -21.1094  -13.1226   22.2623 H   0  0  0  0  0  0
  -24.6486  -15.8376   20.5021 H   0  0  0  0  0  0
  -26.2562  -15.6245   20.0337 H   0  0  0  0  0  0
  -26.7234  -32.5411   23.1102 H   0  0  0  0  0  0
  -25.0125  -33.9722   25.0430 H   0  0  0  0  0  0
  -22.7265  -31.3111   21.4091 H   0  0  0  0  0  0
  -23.3755  -35.9614   23.3304 H   0  0  0  0  0  0
  -24.3580  -36.8899   22.2051 H   0  0  0  0  0  0
  -23.7243  -37.6482   23.6661 H   0  0  0  0  0  0
  -26.1290  -31.5319   20.6231 H   0  0  0  0  0  0
  -26.8566  -30.8076   22.0248 H   0  0  0  0  0  0
  -28.1230  -28.9013   21.2047 H   0  0  0  0  0  0
  -25.8482  -25.9636   18.9513 H   0  0  0  0  0  0
  -23.9472  -27.3580   18.9904 H   0  0  0  0  0  0
  -23.7747  -30.6194   19.4133 H   0  0  0  0  0  0
  -22.7630  -29.2758   19.8506 H   0  0  0  0  0  0
  -25.1297  -36.1923   25.0815 H   0  0  0  0  0  0
  -20.9999  -28.3281   24.1375 H   0  0  0  0  0  0
  -20.5694  -26.2317   23.3603 H   0  0  0  0  0  0
  -21.6652  -26.7448   22.1184 H   0  0  0  0  0  0
  -19.6919  -25.6294   21.1242 H   0  0  0  0  0  0
  -19.6688  -27.3197   20.6739 H   0  0  0  0  0  0
  -17.4204  -26.6680   21.4030 H   0  0  0  0  0  0
  -18.0340  -26.0074   22.9024 H   0  0  0  0  0  0
  -19.7947  -30.7290   24.2242 H   0  0  0  0  0  0
  -17.5024  -31.6269   24.5170 H   0  0  0  0  0  0
  -15.5361  -30.2984   23.7670 H   0  0  0  0  0  0
  -15.8682  -28.0824   22.7072 H   0  0  0  0  0  0
  -24.5905  -30.7093   25.7780 H   0  0  0  0  0  0
  -24.8907  -32.2925   26.4857 H   0  0  0  0  0  0
  -25.8023  -30.8942   27.0258 H   0  0  0  0  0  0
  -26.2966  -29.6753   24.1251 H   0  0  0  0  0  0
  -27.4004  -29.7270   25.4796 H   0  0  0  0  0  0
  -27.8868  -30.4265   23.9547 H   0  0  0  0  0  0
  -27.2666  -33.3650   26.2078 H   0  0  0  0  0  0
  -28.3890  -32.6885   25.0368 H   0  0  0  0  0  0
  -28.0717  -31.8483   26.5468 H   0  0  0  0  0  0
  -28.2594  -38.0099   24.7511 H   0  0  0  0  0  0
  -28.1072  -36.2629   24.6296 H   0  0  0  0  0  0
  -27.2294  -37.1449   25.8870 H   0  0  0  0  0  0
  -20.9401  -29.8808   21.6883 H   0  0  0  0  0  0
  -26.0166  -38.2846   24.1410 H   0  0  0  0  0  0
  -29.3010  -23.3129   17.8006 H   0  0  0  0  0  0
  -30.5973  -23.5593   18.9661 H   0  0  0  0  0  0
  -30.6640  -21.1190   18.4408 H   0  0  0  0  0  0
  -28.9215  -21.0170   18.5364 H   0  0  0  0  0  0
  -28.0956  -22.1292   21.5733 H   0  0  0  0  0  0
  -29.5790  -23.0069   21.8263 H   0  0  0  0  0  0
  -27.7679  -22.8855   19.5153 H   0  0  0  0  0  0
  -31.7319  -22.3261   20.6986 H   0  0  0  0  0  0
  -31.9535  -20.5943   20.5305 H   0  0  0  0  0  0
  -31.3915  -21.2682   22.0548 H   0  0  0  0  0  0
  -27.0073  -24.7113   20.5386 H   0  0  0  0  0  0
  -27.5551  -24.9077   18.8817 H   0  0  0  0  0  0
  -29.5180  -17.3556   22.0941 H   0  0  0  0  0  0
  -31.1302  -17.3102   21.4764 H   0  0  0  0  0  0
  -28.9059  -18.2480   19.5709 H   0  0  0  0  0  0
  -30.5848  -18.6864   19.5643 H   0  0  0  0  0  0
  -28.8377  -15.5389   20.8269 H   0  0  0  0  0  0
  -28.3519  -19.8431   20.9092 H   0  0  0  0  0  0
  -29.6039  -19.7172   21.9004 H   0  0  0  0  0  0
  1 25  1  0  0  0
  1 30  2  0  0  0
  1 80  1  0  0  0
  2  3  1  0  0  0
  2 25  1  0  0  0
  2 82  1  0  0  0
  2 83  1  0  0  0
  3  4  1  0  0  0
  3 84  1  0  0  0
  3 85  1  0  0  0
  4  5  1  0  0  0
  4 86  1  0  0  0
  4 87  1  0  0  0
  5  6  1  0  0  0
  5 26  1  0  0  0
  5 88  1  0  0  0
  6 25  1  0  0  0
  6 89  1  0  0  0
  6 90  1  0  0  0
  7  8  2  0  0  0
  7 26  1  0  0  0
  7 29  1  0  0  0
  8  9  1  0  0  0
  8 22  1  0  0  0
  9 10  1  0  0  0
  9 27  2  0  0  0
 10 11  2  0  0  0
 10 15  1  0  0  0
 11 12  1  0  0  0
 11 91  1  0  0  0
 12 13  2  0  0  0
 12 92  1  0  0  0
 13 14  1  0  0  0
 13 31  1  0  0  0
 14 15  2  0  0  0
 14 93  1  0  0  0
 15 94  1  0  0  0
 16 17  2  0  0  0
 16 21  1  0  0  0
 16 31  1  0  0  0
 17 18  1  0  0  0
 17 95  1  0  0  0
 18 19  2  0  0  0
 18 96  1  0  0  0
 19 20  1  0  0  0
 19 24  1  0  0  0
 20 21  2  0  0  0
 20 97  1  0  0  0
 21 23  1  0  0  0
 22 28  1  0  0  0
 22 32  2  0  0  0
 26 27  1  0  0  0
 28 98  1  0  0  0
 28 99  1  0  0  0
 29100  1  0  0  0
 29101  1  0  0  0
 33 34  1  0  0  0
 33 66  1  0  0  0
 33 70  2  0  0  0
 34 36  1  0  0  0
 34 59  1  0  0  0
 34102  1  0  0  0
 35 44  2  0  0  0
 35 45  1  0  0  0
 35 68  1  0  0  0
 36 56  1  0  0  0
 36103  1  0  0  0
 37 39  1  0  0  0
 37 47  1  0  0  0
 37 66  1  0  0  0
 37104  1  0  0  0
 38 43  2  0  0  0
 38 46  1  0  0  0
 38 47  1  0  0  0
 39 64  1  0  0  0
 39 67  2  0  0  0
 40 52  1  0  0  0
 40 53  2  0  0  0
 40 58  1  0  0  0
 41105  1  0  0  0
 41106  1  0  0  0
 41107  1  0  0  0
 41 48  1  0  0  0
 42 43  1  0  0  0
 42 66  1  0  0  0
 42108  1  0  0  0
 42109  1  0  0  0
 43 44  1  0  0  0
 44110  1  0  0  0
 45 46  2  0  0  0
 45111  1  0  0  0
 46112  1  0  0  0
 47113  1  0  0  0
 47114  1  0  0  0
 48 56  1  0  0  0
 48 65  1  0  0  0
 48115  1  0  0  0
 49 50  1  0  0  0
 49 53  1  0  0  0
 49 64  1  0  0  0
 49116  1  0  0  0
 50 51  1  0  0  0
 50117  1  0  0  0
 50118  1  0  0  0
 51 52  1  0  0  0
 51119  1  0  0  0
 51120  1  0  0  0
 52121  1  0  0  0
 52122  1  0  0  0
 53 54  1  0  0  0
 54 55  2  0  0  0
 54123  1  0  0  0
 55 57  1  0  0  0
 55124  1  0  0  0
 56 69  2  0  0  0
 57 58  2  0  0  0
 57125  1  0  0  0
 58126  1  0  0  0
 59 60  1  0  0  0
 59 61  1  0  0  0
 59 62  1  0  0  0
 60127  1  0  0  0
 60128  1  0  0  0
 60129  1  0  0  0
 61130  1  0  0  0
 61131  1  0  0  0
 61132  1  0  0  0
 62133  1  0  0  0
 62134  1  0  0  0
 62135  1  0  0  0
 63 65  1  0  0  0
 63136  1  0  0  0
 63137  1  0  0  0
 63138  1  0  0  0
 64139  1  0  0  0
 65140  1  0  0  0
 68 77  1  0  0  0
 71 72  1  0  0  0
 71 74  1  0  0  0
 71141  1  0  0  0
 71142  1  0  0  0
 72 75  1  0  0  0
 72143  1  0  0  0
 72144  1  0  0  0
 73 74  1  0  0  0
 73 75  1  0  0  0
 73145  1  0  0  0
 73146  1  0  0  0
 74 77  1  0  0  0
 74147  1  0  0  0
 75 76  1  0  0  0
 75 81  1  0  0  0
 76148  1  0  0  0
 76149  1  0  0  0
 76150  1  0  0  0
 77151  1  0  0  0
 77152  1  0  0  0
 78 79  1  0  0  0
 78 80  1  0  0  0
 78153  1  0  0  0
 78154  1  0  0  0
 79 81  1  0  0  0
 79155  1  0  0  0
 79156  1  0  0  0
 80157  1  0  0  0
 81158  1  0  0  0
 81159  1  0  0  0
M  CHG  1  81   1
M  ISO  4   1 100  68 101  77 101  80 100
M  END
> <chiral flag>
0

> <version>
0

> <s_m_source_file>
/data/baiqing/PycharmProjects/Reinvent-master-3.2/result/LINK_invent/BTK/process_docking_weight1_custom_sum_contain_oxygen_bond_distance_aromatic_linkinvent_7_9_3/rearranged_h_0115.sdf

> <i_m_source_file_index>
16

> <r_mmod_Potential_Energy-OPLS-2005>
139.81022644043

> <r_mmod_Stretch_Energy-OPLS-2005>
117.299407958984

> <r_mmod_Bend_Energy-OPLS-2005>
288.078460693359

> <r_mmod_Torsional_Energy-OPLS-2005>
285.642669677734

> <r_mmod_Improper_Torsional_Energy-OPLS-2005>
4.56461000442505

> <r_mmod_Van_der_Waal_Energy-OPLS-2005>
133.540664672852

> <r_mmod_Electrostatic_Energy-OPLS-2005>
-291.488800048828

> <r_mmod_Solvation_Energy-OPLS-2005>
-481.693145751953

> <b_mmod_Minimization_Converged-OPLS-2005>
0

> <r_mmod_RMS_Derivative-OPLS-2005>
0.564929902553558

$$$$
16
                    3D
 Structure written by MMmdl.
163171  0  0  1  0            999 V2000
  -28.2928  -16.8406   20.7369 C   0  0  0  0  0  0
  -29.7834  -14.3177   19.7184 C   0  0  0  0  0  0
  -29.4297  -13.1849   18.6102 C   0  0  0  0  0  0
  -28.2033  -12.3601   18.9915 C   0  0  0  0  0  0
  -27.3853  -13.3162   19.8491 C   0  0  2  0  0  0
  -28.0808  -13.9803   21.0527 C   0  0  0  0  0  0
  -25.1092  -13.7989   20.5536 C   0  0  0  0  0  0
  -24.0814  -13.0120   20.9363 C   0  0  0  0  0  0
  -24.5701  -11.6679   20.8876 C   0  0  0  0  0  0
  -23.8668  -10.4081   21.0528 C   0  0  0  0  0  0
  -24.3392   -9.4068   21.9261 C   0  0  0  0  0  0
  -23.6166   -8.2067   22.0768 C   0  0  0  0  0  0
  -22.4162   -8.0105   21.3532 C   0  0  0  0  0  0
  -21.9708   -9.0028   20.4637 C   0  0  0  0  0  0
  -22.6932  -10.1933   20.3094 C   0  0  0  0  0  0
  -21.6791   -6.0645   22.5299 C   0  0  0  0  0  0
  -21.3970   -6.5587   23.8221 C   0  0  0  0  0  0
  -21.3642   -5.6757   24.9194 C   0  0  0  0  0  0
  -21.6041   -4.3021   24.7254 C   0  0  0  0  0  0
  -21.8830   -3.8096   23.4385 C   0  0  0  0  0  0
  -21.9177   -4.6892   22.3431 C   0  0  0  0  0  0
  -22.6983  -13.4942   21.2103 C   0  0  0  0  0  0
  -22.1657   -4.2089   21.1006 F   0  0  0  0  0  0
  -21.5633   -3.4519   25.7775 F   0  0  0  0  0  0
  -28.5967  -15.2410   20.4638 N   0  0  0  0  0  0
  -26.1241  -12.9147   20.2849 N   0  0  0  0  0  0
  -25.8504  -11.6294   20.5581 N   0  0  0  0  0  0
  -21.9751  -12.7981   22.0741 N   0  0  0  0  0  0
  -25.2612  -15.1766   20.3860 N   0  0  0  0  0  0
  -29.6031  -16.9186   20.5867 O   0  0  0  0  0  0
  -21.6546   -6.8725   21.4239 O   0  0  0  0  0  0
  -22.2769  -14.5300   20.6964 O   0  0  0  0  0  0
  -24.6332  -31.9834   23.0065 C   0  0  0  0  0  0
  -25.9044  -32.5205   23.7660 C   0  0  1  0  0  0
  -26.5742  -27.4626   20.9994 C   0  0  0  0  0  0
  -25.5774  -33.8803   24.1958 N   0  0  0  0  0  0
  -23.5510  -30.5128   21.2147 C   0  0  2  0  0  0
  -25.0115  -29.1879   19.7118 C   0  0  0  0  0  0
  -23.6005  -29.1782   21.9853 C   0  0  0  0  0  0
  -18.6063  -26.9535   23.0963 C   0  0  0  0  0  0
  -24.1450  -36.7494   23.2651 C   0  0  0  0  0  0
  -26.0180  -31.0637   21.1100 C   0  0  0  0  0  0
  -26.1058  -29.6771   20.4601 C   0  0  0  0  0  0
  -27.0672  -28.7685   20.9114 C   0  0  0  0  0  0
  -25.8214  -26.9295   19.9309 C   0  0  0  0  0  0
  -24.9516  -27.8355   19.3067 C   0  0  0  0  0  0
  -23.7649  -30.0533   19.7650 C   0  0  0  0  0  0
  -25.4075  -36.3285   24.0341 C   0  0  1  0  0  0
  -21.9671  -26.9029   22.9160 C   0  0  2  0  0  0
  -22.0446  -26.3474   20.8458 C   0  0  0  0  0  0
  -20.1148  -25.6145   20.4825 C   0  0  0  0  0  0
  -18.7442  -25.7821   21.8238 C   0  0  0  0  0  0
  -19.9391  -27.3255   23.8486 C   0  0  0  0  0  0
  -19.4212  -28.6109   24.5937 C   0  0  0  0  0  0
  -18.2636  -29.5115   24.3978 C   0  0  0  0  0  0
  -25.9021  -34.9741   23.4980 C   0  0  0  0  0  0
  -17.1940  -29.1115   23.6005 C   0  0  0  0  0  0
  -17.3814  -27.8211   23.0280 C   0  0  0  0  0  0
  -26.4240  -31.6777   25.0124 C   0  0  0  0  0  0
  -25.3447  -31.3906   26.0804 C   0  0  0  0  0  0
  -27.0499  -30.3366   24.5672 C   0  0  0  0  0  0
  -27.5712  -32.4446   25.7189 C   0  0  0  0  0  0
  -27.5591  -37.1879   24.8460 C   0  0  0  0  0  0
  -22.8783  -27.9701   21.9304 N   0  0  0  0  0  0
  -26.4258  -37.3981   23.9483 N   0  0  0  0  0  0
  -24.7116  -31.3622   21.7616 N   0  0  0  0  0  0
  -24.4318  -29.3006   22.8067 O   0  0  0  0  0  0
  -26.3678  -27.0623   22.3474 O   0  0  0  0  0  0
  -26.5661  -34.9290   22.4584 O   0  0  0  0  0  0
  -23.5456  -32.0927   23.5969 O   0  0  0  0  0  0
  -21.0522  -23.5683   23.0410 C   0  0  0  0  0  0
  -21.6463  -22.1974   23.2036 C   0  0  0  0  0  0
  -21.4969  -24.6495   22.1742 C   0  0  0  0  0  0
  -23.7400  -21.8557   21.7567 C   0  0  0  0  0  0
  -23.2071  -27.2034   25.8203 C   0  0  0  0  0  0
  -24.8729  -25.5249   23.5763 C   0  0  0  0  0  0
  -20.3803  -27.5661   21.5863 C   0  0  0  0  0  0
  -25.5645  -20.2093   21.2123 C   0  0  0  0  0  0
  -20.9678  -29.1727   22.6567 C   0  0  0  0  0  0
  -23.5645  -28.0102   24.5487 C   0  0  1  0  0  0
  -25.0211  -27.0480   23.4968 C   0  0  2  0  0  0
  -22.7740  -21.4669   22.6693 N   0  0  0  0  0  0
  -22.9053  -23.4994   21.6261 N   0  0  0  0  0  0
  -26.8860  -18.2153   21.0032 N   0  0  0  0  0  0
  -22.1163  -29.0509   24.1068 N   0  3  0  0  0  0
  -30.4224  -15.0265   19.1900 H   0  0  0  0  0  0
  -30.4683  -13.9067   20.4626 H   0  0  0  0  0  0
  -30.2897  -12.5429   18.4143 H   0  0  0  0  0  0
  -29.2126  -13.6928   17.6693 H   0  0  0  0  0  0
  -28.4959  -11.4887   19.5792 H   0  0  0  0  0  0
  -27.6559  -12.0080   18.1160 H   0  0  0  0  0  0
  -27.1349  -14.0800   19.1066 H   0  0  0  0  0  0
  -28.7805  -13.3242   21.5754 H   0  0  0  0  0  0
  -27.3836  -14.2849   21.8354 H   0  0  0  0  0  0
  -25.2519   -9.5637   22.4839 H   0  0  0  0  0  0
  -23.9914   -7.4457   22.7459 H   0  0  0  0  0  0
  -21.0655   -8.8481   19.8938 H   0  0  0  0  0  0
  -22.3359  -10.9479   19.6224 H   0  0  0  0  0  0
  -21.1945   -7.6096   23.9703 H   0  0  0  0  0  0
  -21.1460   -6.0496   25.9090 H   0  0  0  0  0  0
  -22.0632   -2.7563   23.2897 H   0  0  0  0  0  0
  -22.3396  -11.9633   22.5086 H   0  0  0  0  0  0
  -21.0414  -13.1051   22.3070 H   0  0  0  0  0  0
  -24.4756  -15.8102   20.4894 H   0  0  0  0  0  0
  -26.0400  -15.5912   19.8951 H   0  0  0  0  0  0
  -26.7493  -32.6132   23.0926 H   0  0  0  0  0  0
  -24.9901  -33.9783   25.0107 H   0  0  0  0  0  0
  -22.6541  -31.1187   21.2994 H   0  0  0  0  0  0
  -23.3741  -35.9801   23.3267 H   0  0  0  0  0  0
  -24.3516  -36.9170   22.2070 H   0  0  0  0  0  0
  -23.7187  -37.6675   23.6704 H   0  0  0  0  0  0
  -26.2093  -31.8183   20.3481 H   0  0  0  0  0  0
  -26.8578  -31.1075   21.7898 H   0  0  0  0  0  0
  -27.7488  -29.1098   21.6775 H   0  0  0  0  0  0
  -25.5458  -25.8836   19.8996 H   0  0  0  0  0  0
  -24.1222  -27.4638   18.7223 H   0  0  0  0  0  0
  -23.8936  -30.9151   19.1090 H   0  0  0  0  0  0
  -22.8971  -29.5152   19.3820 H   0  0  0  0  0  0
  -25.1280  -36.2063   25.0844 H   0  0  0  0  0  0
  -22.5150  -26.2037   23.5291 H   0  0  0  0  0  0
  -22.8888  -25.7000   20.5843 H   0  0  0  0  0  0
  -22.2393  -27.0641   20.0310 H   0  0  0  0  0  0
  -20.1339  -24.5842   20.1125 H   0  0  0  0  0  0
  -19.7555  -26.1238   19.5826 H   0  0  0  0  0  0
  -17.7975  -25.8100   21.2836 H   0  0  0  0  0  0
  -18.6903  -24.8246   22.3384 H   0  0  0  0  0  0
  -20.0815  -29.0372   25.3302 H   0  0  0  0  0  0
  -18.2035  -30.4382   24.9548 H   0  0  0  0  0  0
  -16.3000  -29.7036   23.4550 H   0  0  0  0  0  0
  -16.5795  -27.4771   22.3872 H   0  0  0  0  0  0
  -24.5081  -30.8274   25.6767 H   0  0  0  0  0  0
  -24.9372  -32.3136   26.4933 H   0  0  0  0  0  0
  -25.7466  -30.8146   26.9145 H   0  0  0  0  0  0
  -26.3276  -29.6543   24.1410 H   0  0  0  0  0  0
  -27.5040  -29.8091   25.4068 H   0  0  0  0  0  0
  -27.8367  -30.4852   23.8275 H   0  0  0  0  0  0
  -27.2298  -33.3777   26.1688 H   0  0  0  0  0  0
  -28.3705  -32.6921   25.0193 H   0  0  0  0  0  0
  -28.0167  -31.8564   26.5225 H   0  0  0  0  0  0
  -28.2596  -38.0198   24.7622 H   0  0  0  0  0  0
  -28.1101  -36.2753   24.6128 H   0  0  0  0  0  0
  -27.2344  -37.1391   25.8867 H   0  0  0  0  0  0
  -22.5521  -27.8507   20.9844 H   0  0  0  0  0  0
  -26.0164  -38.3040   24.1634 H   0  0  0  0  0  0
  -20.1725  -23.7612   23.6389 H   0  0  0  0  0  0
  -21.1033  -21.5655   23.8905 H   0  0  0  0  0  0
  -24.0839  -26.6942   26.2210 H   0  0  0  0  0  0
  -22.4321  -26.4522   25.6703 H   0  0  0  0  0  0
  -22.8467  -27.8672   26.6074 H   0  0  0  0  0  0
  -24.2354  -25.1836   24.3892 H   0  0  0  0  0  0
  -25.8428  -25.0537   23.7382 H   0  0  0  0  0  0
  -24.4904  -25.1454   22.6341 H   0  0  0  0  0  0
  -19.4017  -27.8283   21.1565 H   0  0  0  0  0  0
  -20.6288  -28.0390   20.6237 H   0  0  0  0  0  0
  -26.3566  -20.8074   21.6638 H   0  0  0  0  0  0
  -25.6096  -20.4715   20.1541 H   0  0  0  0  0  0
  -20.1568  -29.8739   22.8208 H   0  0  0  0  0  0
  -21.2549  -29.8749   21.9001 H   0  0  0  0  0  0
  -24.1707  -28.7661   25.0483 H   0  0  0  0  0  0
  -25.7263  -27.2138   24.3120 H   0  0  0  0  0  0
  -27.6853  -18.8295   21.0933 H   0  0  0  0  0  0
  -21.5022  -28.9987   24.9030 H   0  0  0  0  0  0
  -22.4955  -29.9878   24.1517 H   0  0  0  0  0  0
  1 25  1  0  0  0
  1 30  2  0  0  0
  1 84  1  0  0  0
  2  3  1  0  0  0
  2 25  1  0  0  0
  2 86  1  0  0  0
  2 87  1  0  0  0
  3  4  1  0  0  0
  3 88  1  0  0  0
  3 89  1  0  0  0
  4  5  1  0  0  0
  4 90  1  0  0  0
  4 91  1  0  0  0
  5  6  1  0  0  0
  5 26  1  0  0  0
  5 92  1  0  0  0
  6 25  1  0  0  0
  6 93  1  0  0  0
  6 94  1  0  0  0
  7  8  2  0  0  0
  7 26  1  0  0  0
  7 29  1  0  0  0
  8  9  1  0  0  0
  8 22  1  0  0  0
  9 10  1  0  0  0
  9 27  2  0  0  0
 10 11  2  0  0  0
 10 15  1  0  0  0
 11 12  1  0  0  0
 11 95  1  0  0  0
 12 13  2  0  0  0
 12 96  1  0  0  0
 13 14  1  0  0  0
 13 31  1  0  0  0
 14 15  2  0  0  0
 14 97  1  0  0  0
 15 98  1  0  0  0
 16 17  2  0  0  0
 16 21  1  0  0  0
 16 31  1  0  0  0
 17 18  1  0  0  0
 17 99  1  0  0  0
 18 19  2  0  0  0
 18100  1  0  0  0
 19 20  1  0  0  0
 19 24  1  0  0  0
 20 21  2  0  0  0
 20101  1  0  0  0
 21 23  1  0  0  0
 22 28  1  0  0  0
 22 32  2  0  0  0
 26 27  1  0  0  0
 28102  1  0  0  0
 28103  1  0  0  0
 29104  1  0  0  0
 29105  1  0  0  0
 33 34  1  0  0  0
 33 66  1  0  0  0
 33 70  2  0  0  0
 34 36  1  0  0  0
 34 59  1  0  0  0
 34106  1  0  0  0
 35 44  2  0  0  0
 35 45  1  0  0  0
 35 68  1  0  0  0
 36 56  1  0  0  0
 36107  1  0  0  0
 37 39  1  0  0  0
 37 47  1  0  0  0
 37 66  1  0  0  0
 37108  1  0  0  0
 38 43  2  0  0  0
 38 46  1  0  0  0
 38 47  1  0  0  0
 39 64  1  0  0  0
 39 67  2  0  0  0
 40 52  1  0  0  0
 40 53  2  0  0  0
 40 58  1  0  0  0
 41109  1  0  0  0
 41110  1  0  0  0
 41111  1  0  0  0
 41 48  1  0  0  0
 42 43  1  0  0  0
 42 66  1  0  0  0
 42112  1  0  0  0
 42113  1  0  0  0
 43 44  1  0  0  0
 44114  1  0  0  0
 45 46  2  0  0  0
 45115  1  0  0  0
 46116  1  0  0  0
 47117  1  0  0  0
 47118  1  0  0  0
 48 56  1  0  0  0
 48 65  1  0  0  0
 48119  1  0  0  0
 49 50  1  0  0  0
 49 53  1  0  0  0
 49 64  1  0  0  0
 49120  1  0  0  0
 50 51  1  0  0  0
 50121  1  0  0  0
 50122  1  0  0  0
 51 52  1  0  0  0
 51123  1  0  0  0
 51124  1  0  0  0
 52125  1  0  0  0
 52126  1  0  0  0
 53 54  1  0  0  0
 54 55  2  0  0  0
 54127  1  0  0  0
 55 57  1  0  0  0
 55128  1  0  0  0
 56 69  2  0  0  0
 57 58  2  0  0  0
 57129  1  0  0  0
 58130  1  0  0  0
 59 60  1  0  0  0
 59 61  1  0  0  0
 59 62  1  0  0  0
 60131  1  0  0  0
 60132  1  0  0  0
 60133  1  0  0  0
 61134  1  0  0  0
 61135  1  0  0  0
 61136  1  0  0  0
 62137  1  0  0  0
 62138  1  0  0  0
 62139  1  0  0  0
 63 65  1  0  0  0
 63140  1  0  0  0
 63141  1  0  0  0
 63142  1  0  0  0
 64143  1  0  0  0
 65144  1  0  0  0
 68 81  1  0  0  0
 71 72  2  0  0  0
 71 73  1  0  0  0
 71145  1  0  0  0
 72 82  1  0  0  0
 72146  1  0  0  0
 73 77  1  0  0  0
 73 83  2  0  0  0
 74 78  1  0  0  0
 74 82  2  0  0  0
 74 83  1  0  0  0
 75147  1  0  0  0
 75148  1  0  0  0
 75149  1  0  0  0
 75 80  1  0  0  0
 76150  1  0  0  0
 76151  1  0  0  0
 76152  1  0  0  0
 76 81  1  0  0  0
 77 79  1  0  0  0
 77153  1  0  0  0
 77154  1  0  0  0
 78 84  1  0  0  0
 78155  1  0  0  0
 78156  1  0  0  0
 79 85  1  0  0  0
 79157  1  0  0  0
 79158  1  0  0  0
 80 81  1  0  0  0
 80 85  1  0  0  0
 80159  1  0  0  0
 81160  1  0  0  0
 84161  1  0  0  0
 85162  1  0  0  0
 85163  1  0  0  0
M  CHG  1  85   1
M  ISO  4   1 100  68 101  81 101  84 100
M  END
> <chiral flag>
0

> <version>
0

> <s_m_source_file>
/data/baiqing/PycharmProjects/Reinvent-master-3.2/result/LINK_invent/BTK/process_docking_weight1_custom_sum_contain_oxygen_bond_distance_aromatic_linkinvent_7_9_3/rearranged_h_0115.sdf

> <i_m_source_file_index>
17

> <r_mmod_Potential_Energy-OPLS-2005>
24975.470703125

> <r_mmod_Stretch_Energy-OPLS-2005>
12042.619140625

> <r_mmod_Bend_Energy-OPLS-2005>
2620.30688476562

> <r_mmod_Torsional_Energy-OPLS-2005>
594.610229492188

> <r_mmod_Improper_Torsional_Energy-OPLS-2005>
46.7596092224121

> <r_mmod_Van_der_Waal_Energy-OPLS-2005>
2879.294921875

> <r_mmod_Electrostatic_Energy-OPLS-2005>
-804.658081054688

> <r_mmod_Solvation_Energy-OPLS-2005>
-454.601135253906

> <b_mmod_Minimization_Converged-OPLS-2005>
0

> <r_mmod_RMS_Derivative-OPLS-2005>
5.25520801544189

$$$$
17
                    3D
 Structure written by MMmdl.
160168  0  0  1  0            999 V2000
  -30.6361  -14.5107   20.5864 C   0  0  0  0  0  0
  -30.4354  -12.3323   19.4436 C   0  0  0  0  0  0
  -29.5051  -12.5073   18.2209 C   0  0  0  0  0  0
  -28.0230  -12.3691   18.6311 C   0  0  0  0  0  0
  -27.6563  -13.2082   19.8843 C   0  0  2  0  0  0
  -28.6903  -12.9694   21.0076 C   0  0  0  0  0  0
  -25.2528  -13.8162   20.5671 C   0  0  0  0  0  0
  -24.1818  -13.0440   20.9219 C   0  0  0  0  0  0
  -24.6388  -11.6904   20.8796 C   0  0  0  0  0  0
  -23.9083  -10.4289   21.0485 C   0  0  0  0  0  0
  -24.3619   -9.4185   21.9244 C   0  0  0  0  0  0
  -23.6260   -8.2246   22.0799 C   0  0  0  0  0  0
  -22.4240   -8.0305   21.3603 C   0  0  0  0  0  0
  -21.9904   -9.0290   20.4712 C   0  0  0  0  0  0
  -22.7269  -10.2144   20.3131 C   0  0  0  0  0  0
  -21.6856   -6.0744   22.5291 C   0  0  0  0  0  0
  -21.4001   -6.5640   23.8218 C   0  0  0  0  0  0
  -21.3659   -5.6798   24.9181 C   0  0  0  0  0  0
  -21.6057   -4.3062   24.7233 C   0  0  0  0  0  0
  -21.8812   -3.8157   23.4351 C   0  0  0  0  0  0
  -21.9169   -4.6970   22.3409 C   0  0  0  0  0  0
  -22.7847  -13.5243   21.1851 C   0  0  0  0  0  0
  -22.1640   -4.2148   21.0984 F   0  0  0  0  0  0
  -21.5616   -3.4547   25.7751 F   0  0  0  0  0  0
  -30.0195  -13.3020   20.4707 N   0  0  0  0  0  0
  -26.2959  -12.9344   20.3364 N   0  0  0  0  0  0
  -25.9294  -11.6511   20.5810 N   0  0  0  0  0  0
  -22.0459  -12.8286   22.0416 N   0  0  0  0  0  0
  -25.4234  -15.1868   20.3981 N   0  0  0  0  0  0
  -31.7555  -14.7357   20.1204 O   0  0  0  0  0  0
  -21.6626   -6.8889   21.4262 O   0  0  0  0  0  0
  -22.3575  -14.5572   20.6699 O   0  0  0  0  0  0
  -24.6169  -31.8688   23.2084 C   0  0  0  0  0  0
  -25.9091  -32.4817   23.8390 C   0  0  1  0  0  0
  -27.2119  -27.3935   20.1306 C   0  0  0  0  0  0
  -25.5951  -33.8621   24.2320 N   0  0  0  0  0  0
  -23.4048  -30.4942   21.5486 C   0  0  2  0  0  0
  -24.8523  -28.9563   20.1158 C   0  0  0  0  0  0
  -22.7386  -29.4699   22.4977 C   0  0  0  0  0  0
  -18.0286  -28.1391   22.8422 C   0  0  0  0  0  0
  -24.1502  -36.7281   23.2632 C   0  0  0  0  0  0
  -25.9406  -30.8214   21.3744 C   0  0  0  0  0  0
  -26.0156  -29.4561   20.7171 C   0  0  0  0  0  0
  -27.2043  -28.6840   20.7177 C   0  0  0  0  0  0
  -26.0419  -26.9252   19.5052 C   0  0  0  0  0  0
  -24.8606  -27.6897   19.5051 C   0  0  0  0  0  0
  -23.6193  -29.8301   20.1630 C   0  0  0  0  0  0
  -25.4133  -36.3089   24.0327 C   0  0  1  0  0  0
  -20.5847  -28.3694   23.1338 C   0  0  2  0  0  0
  -20.6743  -26.9366   22.5612 C   0  0  0  0  0  0
  -19.5858  -26.6331   21.5297 C   0  0  0  0  0  0
  -18.1951  -26.7962   22.1519 C   0  0  0  0  0  0
  -19.1507  -28.8869   23.2874 C   0  0  0  0  0  0
  -18.9377  -30.1454   23.8906 C   0  0  0  0  0  0
  -17.6360  -30.6552   24.0529 C   0  0  0  0  0  0
  -25.9054  -34.9471   23.5113 C   0  0  0  0  0  0
  -16.5269  -29.9022   23.6267 C   0  0  0  0  0  0
  -16.7250  -28.6470   23.0267 C   0  0  0  0  0  0
  -26.4495  -31.6599   25.0740 C   0  0  0  0  0  0
  -25.3713  -31.3768   26.1455 C   0  0  0  0  0  0
  -27.0362  -30.3023   24.6222 C   0  0  0  0  0  0
  -27.6078  -32.4338   25.7463 C   0  0  0  0  0  0
  -27.5591  -37.1800   24.8468 C   0  0  0  0  0  0
  -21.4119  -29.3010   22.3674 N   0  0  0  0  0  0
  -26.4322  -37.3782   23.9399 N   0  0  0  0  0  0
  -24.6715  -31.0766   22.1010 N   0  0  0  0  0  0
  -23.4157  -28.8298   23.3093 O   0  0  0  0  0  0
  -28.3274  -26.5802   20.1567 O   0  0  0  0  0  0
  -26.5605  -34.8913   22.4654 O   0  0  0  0  0  0
  -23.5358  -32.1495   23.7432 O   0  0  0  0  0  0
  -28.7932  -22.8269   20.9981 C   0  0  0  0  0  0
  -26.6300  -23.4519   20.1777 C   0  0  0  0  0  0
  -28.0718  -24.0058   20.2934 C   0  0  1  0  0  0
  -28.0943  -21.5346   20.4935 C   0  0  1  0  0  0
  -26.8455  -19.8418   22.0428 C   0  0  0  0  0  0
  -28.2165  -25.4021   21.0020 C   0  0  0  0  0  0
  -30.0324  -16.9535   20.7806 C   0  0  0  0  0  0
  -28.9672  -17.8947   21.4296 C   0  0  0  0  0  0
  -28.2029  -20.2600   21.4246 C   0  0  1  0  0  0
  -29.8530  -15.5091   21.0591 N   0  0  0  0  0  0
  -26.7034  -21.9714   20.2172 N   0  3  0  0  0  0
  -28.8333  -19.1550   20.7284 O   0  0  0  0  0  0
  -31.4791  -12.4613   19.1504 H   0  0  0  0  0  0
  -30.3674  -11.3213   19.8412 H   0  0  0  0  0  0
  -29.7516  -11.7783   17.4459 H   0  0  0  0  0  0
  -29.6724  -13.4885   17.7749 H   0  0  0  0  0  0
  -27.8251  -11.3161   18.8303 H   0  0  0  0  0  0
  -27.3780  -12.6412   17.7965 H   0  0  0  0  0  0
  -27.7033  -14.2586   19.5950 H   0  0  0  0  0  0
  -28.6679  -11.9244   21.3183 H   0  0  0  0  0  0
  -28.4553  -13.5396   21.9080 H   0  0  0  0  0  0
  -25.2756   -9.5604   22.4848 H   0  0  0  0  0  0
  -23.9938   -7.4624   22.7511 H   0  0  0  0  0  0
  -21.0838   -8.8884   19.9003 H   0  0  0  0  0  0
  -22.3787  -10.9719   19.6255 H   0  0  0  0  0  0
  -21.2019   -7.6151   23.9726 H   0  0  0  0  0  0
  -21.1477   -6.0531   25.9080 H   0  0  0  0  0  0
  -22.0582   -2.7620   23.2866 H   0  0  0  0  0  0
  -22.3966  -11.9849   22.4746 H   0  0  0  0  0  0
  -21.1133  -13.1447   22.2681 H   0  0  0  0  0  0
  -24.6599  -15.8435   20.4974 H   0  0  0  0  0  0
  -26.2549  -15.6062   20.0020 H   0  0  0  0  0  0
  -26.7173  -32.5499   23.1159 H   0  0  0  0  0  0
  -25.0211  -33.9825   25.0537 H   0  0  0  0  0  0
  -22.6938  -31.3117   21.4067 H   0  0  0  0  0  0
  -23.3777  -35.9601   23.3325 H   0  0  0  0  0  0
  -24.3598  -36.8870   22.2036 H   0  0  0  0  0  0
  -23.7259  -37.6493   23.6637 H   0  0  0  0  0  0
  -26.0856  -31.5910   20.6148 H   0  0  0  0  0  0
  -26.8167  -30.8553   22.0115 H   0  0  0  0  0  0
  -28.0998  -29.0615   21.1918 H   0  0  0  0  0  0
  -26.0404  -25.9658   19.0143 H   0  0  0  0  0  0
  -23.9696  -27.2995   19.0352 H   0  0  0  0  0  0
  -23.7435  -30.6062   19.4073 H   0  0  0  0  0  0
  -22.7404  -29.2608   19.8562 H   0  0  0  0  0  0
  -25.1311  -36.1947   25.0828 H   0  0  0  0  0  0
  -20.9922  -28.3374   24.1455 H   0  0  0  0  0  0
  -21.6665  -26.7258   22.1594 H   0  0  0  0  0  0
  -20.5430  -26.2346   23.3871 H   0  0  0  0  0  0
  -19.6936  -25.6153   21.1493 H   0  0  0  0  0  0
  -19.6998  -27.3027   20.6766 H   0  0  0  0  0  0
  -17.4372  -26.6824   21.3755 H   0  0  0  0  0  0
  -18.0197  -26.0077   22.8832 H   0  0  0  0  0  0
  -19.7820  -30.7276   24.2345 H   0  0  0  0  0  0
  -17.4869  -31.6223   24.5121 H   0  0  0  0  0  0
  -15.5236  -30.2880   23.7578 H   0  0  0  0  0  0
  -15.8682  -28.0754   22.6933 H   0  0  0  0  0  0
  -24.5875  -30.7155   25.7753 H   0  0  0  0  0  0
  -24.8921  -32.2951   26.4851 H   0  0  0  0  0  0
  -25.7981  -30.8935   27.0246 H   0  0  0  0  0  0
  -26.2960  -29.6744   24.1263 H   0  0  0  0  0  0
  -27.4076  -29.7331   25.4748 H   0  0  0  0  0  0
  -27.8805  -30.4325   23.9461 H   0  0  0  0  0  0
  -27.2738  -33.3657   26.2038 H   0  0  0  0  0  0
  -28.3840  -32.6887   25.0235 H   0  0  0  0  0  0
  -28.0809  -31.8484   26.5355 H   0  0  0  0  0  0
  -28.2626  -38.0077   24.7493 H   0  0  0  0  0  0
  -28.1069  -36.2610   24.6317 H   0  0  0  0  0  0
  -27.2307  -37.1474   25.8873 H   0  0  0  0  0  0
  -20.9286  -29.8516   21.6696 H   0  0  0  0  0  0
  -26.0193  -38.2863   24.1387 H   0  0  0  0  0  0
  -28.6732  -22.9144   22.0804 H   0  0  0  0  0  0
  -29.8653  -22.8155   20.7904 H   0  0  0  0  0  0
  -26.1376  -23.7661   19.2574 H   0  0  0  0  0  0
  -26.0040  -23.7813   21.0108 H   0  0  0  0  0  0
  -28.4952  -24.0864   19.2919 H   0  0  0  0  0  0
  -28.5210  -21.2891   19.5197 H   0  0  0  0  0  0
  -26.3488  -20.6764   22.5433 H   0  0  0  0  0  0
  -26.9593  -19.0629   22.7985 H   0  0  0  0  0  0
  -26.1639  -19.4519   21.2858 H   0  0  0  0  0  0
  -29.1396  -25.3834   21.5850 H   0  0  0  0  0  0
  -27.4283  -25.5210   21.7512 H   0  0  0  0  0  0
  -31.0296  -17.2778   21.0785 H   0  0  0  0  0  0
  -29.9777  -17.0778   19.7000 H   0  0  0  0  0  0
  -29.2274  -18.0604   22.4767 H   0  0  0  0  0  0
  -28.0002  -17.3931   21.4230 H   0  0  0  0  0  0
  -28.8707  -20.5161   22.2478 H   0  0  0  0  0  0
  -28.9635  -15.2225   21.4414 H   0  0  0  0  0  0
  -26.3712  -21.5837   19.3463 H   0  0  0  0  0  0
  -26.0943  -21.6389   20.9500 H   0  0  0  0  0  0
  1 25  1  0  0  0
  1 30  2  0  0  0
  1 80  1  0  0  0
  2  3  1  0  0  0
  2 25  1  0  0  0
  2 83  1  0  0  0
  2 84  1  0  0  0
  3  4  1  0  0  0
  3 85  1  0  0  0
  3 86  1  0  0  0
  4  5  1  0  0  0
  4 87  1  0  0  0
  4 88  1  0  0  0
  5  6  1  0  0  0
  5 26  1  0  0  0
  5 89  1  0  0  0
  6 25  1  0  0  0
  6 90  1  0  0  0
  6 91  1  0  0  0
  7  8  2  0  0  0
  7 26  1  0  0  0
  7 29  1  0  0  0
  8  9  1  0  0  0
  8 22  1  0  0  0
  9 10  1  0  0  0
  9 27  2  0  0  0
 10 11  2  0  0  0
 10 15  1  0  0  0
 11 12  1  0  0  0
 11 92  1  0  0  0
 12 13  2  0  0  0
 12 93  1  0  0  0
 13 14  1  0  0  0
 13 31  1  0  0  0
 14 15  2  0  0  0
 14 94  1  0  0  0
 15 95  1  0  0  0
 16 17  2  0  0  0
 16 21  1  0  0  0
 16 31  1  0  0  0
 17 18  1  0  0  0
 17 96  1  0  0  0
 18 19  2  0  0  0
 18 97  1  0  0  0
 19 20  1  0  0  0
 19 24  1  0  0  0
 20 21  2  0  0  0
 20 98  1  0  0  0
 21 23  1  0  0  0
 22 28  1  0  0  0
 22 32  2  0  0  0
 26 27  1  0  0  0
 28 99  1  0  0  0
 28100  1  0  0  0
 29101  1  0  0  0
 29102  1  0  0  0
 33 34  1  0  0  0
 33 66  1  0  0  0
 33 70  2  0  0  0
 34 36  1  0  0  0
 34 59  1  0  0  0
 34103  1  0  0  0
 35 44  2  0  0  0
 35 45  1  0  0  0
 35 68  1  0  0  0
 36 56  1  0  0  0
 36104  1  0  0  0
 37 39  1  0  0  0
 37 47  1  0  0  0
 37 66  1  0  0  0
 37105  1  0  0  0
 38 43  2  0  0  0
 38 46  1  0  0  0
 38 47  1  0  0  0
 39 64  1  0  0  0
 39 67  2  0  0  0
 40 52  1  0  0  0
 40 53  2  0  0  0
 40 58  1  0  0  0
 41106  1  0  0  0
 41107  1  0  0  0
 41108  1  0  0  0
 41 48  1  0  0  0
 42 43  1  0  0  0
 42 66  1  0  0  0
 42109  1  0  0  0
 42110  1  0  0  0
 43 44  1  0  0  0
 44111  1  0  0  0
 45 46  2  0  0  0
 45112  1  0  0  0
 46113  1  0  0  0
 47114  1  0  0  0
 47115  1  0  0  0
 48 56  1  0  0  0
 48 65  1  0  0  0
 48116  1  0  0  0
 49 50  1  0  0  0
 49 53  1  0  0  0
 49 64  1  0  0  0
 49117  1  0  0  0
 50 51  1  0  0  0
 50118  1  0  0  0
 50119  1  0  0  0
 51 52  1  0  0  0
 51120  1  0  0  0
 51121  1  0  0  0
 52122  1  0  0  0
 52123  1  0  0  0
 53 54  1  0  0  0
 54 55  2  0  0  0
 54124  1  0  0  0
 55 57  1  0  0  0
 55125  1  0  0  0
 56 69  2  0  0  0
 57 58  2  0  0  0
 57126  1  0  0  0
 58127  1  0  0  0
 59 60  1  0  0  0
 59 61  1  0  0  0
 59 62  1  0  0  0
 60128  1  0  0  0
 60129  1  0  0  0
 60130  1  0  0  0
 61131  1  0  0  0
 61132  1  0  0  0
 61133  1  0  0  0
 62134  1  0  0  0
 62135  1  0  0  0
 62136  1  0  0  0
 63 65  1  0  0  0
 63137  1  0  0  0
 63138  1  0  0  0
 63139  1  0  0  0
 64140  1  0  0  0
 65141  1  0  0  0
 68 76  1  0  0  0
 71 73  1  0  0  0
 71142  1  0  0  0
 71143  1  0  0  0
 71 74  1  0  0  0
 72 73  1  0  0  0
 72 81  1  0  0  0
 72144  1  0  0  0
 72145  1  0  0  0
 73 76  1  0  0  0
 73146  1  0  0  0
 74 79  1  0  0  0
 74 81  1  0  0  0
 74147  1  0  0  0
 75148  1  0  0  0
 75149  1  0  0  0
 75150  1  0  0  0
 75 79  1  0  0  0
 76151  1  0  0  0
 76152  1  0  0  0
 77 78  1  0  0  0
 77 80  1  0  0  0
 77153  1  0  0  0
 77154  1  0  0  0
 78 82  1  0  0  0
 78155  1  0  0  0
 78156  1  0  0  0
 79 82  1  0  0  0
 79157  1  0  0  0
 80158  1  0  0  0
 81159  1  0  0  0
 81160  1  0  0  0
M  CHG  1  81   1
M  ISO  4   1 100  68 101  76 101  80 100
M  END
> <chiral flag>
0

> <version>
0

> <s_m_source_file>
/data/baiqing/PycharmProjects/Reinvent-master-3.2/result/LINK_invent/BTK/process_docking_weight1_custom_sum_contain_oxygen_bond_distance_aromatic_linkinvent_7_9_3/rearranged_h_0115.sdf

> <i_m_source_file_index>
18

> <r_mmod_Potential_Energy-OPLS-2005>
-126.556297302246

> <r_mmod_Stretch_Energy-OPLS-2005>
48.558967590332

> <r_mmod_Bend_Energy-OPLS-2005>
124.232131958008

> <r_mmod_Torsional_Energy-OPLS-2005>
325.048400878906

> <r_mmod_Improper_Torsional_Energy-OPLS-2005>
5.67903137207031

> <r_mmod_Van_der_Waal_Energy-OPLS-2005>
128.695129394531

> <r_mmod_Electrostatic_Energy-OPLS-2005>
-324.724548339844

> <r_mmod_Solvation_Energy-OPLS-2005>
-456.234375

> <b_mmod_Minimization_Converged-OPLS-2005>
0

> <r_mmod_RMS_Derivative-OPLS-2005>
5.19719505310059

$$$$
18
                    3D
 Structure written by MMmdl.
167174  0  0  1  0            999 V2000
  -30.7108  -14.4632   20.6226 C   0  0  0  0  0  0
  -30.4289  -12.3304   19.3990 C   0  0  0  0  0  0
  -29.4864  -12.5221   18.1923 C   0  0  0  0  0  0
  -28.0115  -12.3707   18.6127 C   0  0  0  0  0  0
  -27.6617  -13.2036   19.8736 C   0  0  2  0  0  0
  -28.7061  -12.9723   20.9874 C   0  0  0  0  0  0
  -25.2599  -13.8142   20.5676 C   0  0  0  0  0  0
  -24.1840  -13.0425   20.9162 C   0  0  0  0  0  0
  -24.6380  -11.6894   20.8712 C   0  0  0  0  0  0
  -23.9033  -10.4289   21.0386 C   0  0  0  0  0  0
  -24.3598   -9.4210   21.9170 C   0  0  0  0  0  0
  -23.6280   -8.2241   22.0750 C   0  0  0  0  0  0
  -22.4264   -8.0269   21.3535 C   0  0  0  0  0  0
  -21.9889   -9.0239   20.4639 C   0  0  0  0  0  0
  -22.7203  -10.2125   20.3037 C   0  0  0  0  0  0
  -21.6858   -6.0722   22.5271 C   0  0  0  0  0  0
  -21.4015   -6.5632   23.8198 C   0  0  0  0  0  0
  -21.3656   -5.6791   24.9167 C   0  0  0  0  0  0
  -21.6045   -4.3049   24.7218 C   0  0  0  0  0  0
  -21.8832   -3.8133   23.4344 C   0  0  0  0  0  0
  -21.9199   -4.6945   22.3396 C   0  0  0  0  0  0
  -22.7872  -13.5227   21.1836 C   0  0  0  0  0  0
  -22.1675   -4.2129   21.0978 F   0  0  0  0  0  0
  -21.5631   -3.4543   25.7734 F   0  0  0  0  0  0
  -30.0352  -13.2965   20.4364 N   0  0  0  0  0  0
  -26.3030  -12.9307   20.3367 N   0  0  0  0  0  0
  -25.9308  -11.6467   20.5753 N   0  0  0  0  0  0
  -22.0529  -12.8207   22.0401 N   0  0  0  0  0  0
  -25.4329  -15.1855   20.4091 N   0  0  0  0  0  0
  -31.8122  -14.6968   20.1182 O   0  0  0  0  0  0
  -21.6639   -6.8854   21.4226 O   0  0  0  0  0  0
  -22.3560  -14.5548   20.6709 O   0  0  0  0  0  0
  -24.6130  -31.8695   23.2120 C   0  0  0  0  0  0
  -25.9027  -32.4840   23.8413 C   0  0  1  0  0  0
  -27.2448  -27.4424   20.0967 C   0  0  0  0  0  0
  -25.5888  -33.8633   24.2345 N   0  0  0  0  0  0
  -23.4034  -30.4926   21.5510 C   0  0  2  0  0  0
  -24.8569  -28.9598   20.1226 C   0  0  0  0  0  0
  -22.7409  -29.4669   22.4988 C   0  0  0  0  0  0
  -18.0275  -28.1377   22.8489 C   0  0  0  0  0  0
  -24.1489  -36.7327   23.2639 C   0  0  0  0  0  0
  -25.9326  -30.8357   21.3696 C   0  0  0  0  0  0
  -26.0167  -29.4664   20.7260 C   0  0  0  0  0  0
  -27.2168  -28.7124   20.7252 C   0  0  0  0  0  0
  -26.0698  -26.9564   19.4907 C   0  0  0  0  0  0
  -24.8758  -27.6984   19.5065 C   0  0  0  0  0  0
  -23.6170  -29.8247   20.1669 C   0  0  0  0  0  0
  -25.4111  -36.3126   24.0341 C   0  0  1  0  0  0
  -20.5863  -28.3667   23.1315 C   0  0  2  0  0  0
  -20.6771  -26.9404   22.5413 C   0  0  0  0  0  0
  -19.5751  -26.6384   21.5210 C   0  0  0  0  0  0
  -18.1929  -26.7926   22.1618 C   0  0  0  0  0  0
  -19.1523  -28.8837   23.2902 C   0  0  0  0  0  0
  -18.9455  -30.1445   23.8907 C   0  0  0  0  0  0
  -17.6457  -30.6585   24.0565 C   0  0  0  0  0  0
  -25.9029  -34.9487   23.5139 C   0  0  0  0  0  0
  -16.5348  -29.9090   23.6325 C   0  0  0  0  0  0
  -16.7264  -28.6505   23.0343 C   0  0  0  0  0  0
  -26.4461  -31.6603   25.0726 C   0  0  0  0  0  0
  -25.3727  -31.3709   26.1474 C   0  0  0  0  0  0
  -27.0298  -30.3047   24.6088 C   0  0  0  0  0  0
  -27.6042  -32.4311   25.7484 C   0  0  0  0  0  0
  -27.5587  -37.1823   24.8465 C   0  0  0  0  0  0
  -21.4137  -29.3036   22.3714 N   0  0  0  0  0  0
  -26.4304  -37.3800   23.9402 N   0  0  0  0  0  0
  -24.6671  -31.0800   22.1025 N   0  0  0  0  0  0
  -23.4184  -28.8207   23.3025 O   0  0  0  0  0  0
  -28.3402  -26.6137   19.9820 O   0  0  0  0  0  0
  -26.5589  -34.8928   22.4699 O   0  0  0  0  0  0
  -23.5321  -32.1445   23.7506 O   0  0  0  0  0  0
  -31.9013  -21.6199   22.7035 C   0  0  0  0  0  0
  -29.3552  -21.8218   22.7934 C   0  0  0  0  0  0
  -31.1720  -24.7892   22.7411 C   0  0  0  0  0  0
  -30.5790  -16.6746   21.8584 C   0  0  0  0  0  0
  -30.2217  -17.9309   21.0084 C   0  0  0  0  0  0
  -30.3916  -25.5145   20.5431 C   0  0  0  0  0  0
  -30.4600  -20.4768   20.9694 C   0  0  0  0  0  0
  -30.6768  -23.0596   20.9580 C   0  0  0  0  0  0
  -29.4590  -26.7263   20.8509 C   0  0  0  0  0  0
  -30.5973  -21.7662   21.8717 C   0  0  0  0  0  0
  -30.0632  -15.3916   21.3488 N   0  0  0  0  0  0
  -30.5541  -19.1925   21.7302 N   0  3  0  0  0  0
  -30.3543  -24.4101   21.5580 N   0  3  1  0  0  0
  -31.4680  -12.4562   19.0871 H   0  0  0  0  0  0
  -30.3561  -11.3130   19.7880 H   0  0  0  0  0  0
  -29.7253  -11.8035   17.4074 H   0  0  0  0  0  0
  -29.6418  -13.5098   17.7557 H   0  0  0  0  0  0
  -27.8276  -11.3128   18.8051 H   0  0  0  0  0  0
  -27.3543  -12.6473   17.7876 H   0  0  0  0  0  0
  -27.7072  -14.2530   19.5820 H   0  0  0  0  0  0
  -28.6915  -11.9293   21.3065 H   0  0  0  0  0  0
  -28.4579  -13.5481   21.8797 H   0  0  0  0  0  0
  -25.2744   -9.5700   22.4734 H   0  0  0  0  0  0
  -24.0002   -7.4633   22.7470 H   0  0  0  0  0  0
  -21.0825   -8.8729   19.8949 H   0  0  0  0  0  0
  -22.3636  -10.9655   19.6148 H   0  0  0  0  0  0
  -21.1999   -7.6142   23.9686 H   0  0  0  0  0  0
  -21.1477   -6.0529   25.9066 H   0  0  0  0  0  0
  -22.0611   -2.7594   23.2848 H   0  0  0  0  0  0
  -22.4172  -11.9858   22.4745 H   0  0  0  0  0  0
  -21.1143  -13.1204   22.2629 H   0  0  0  0  0  0
  -24.6643  -15.8403   20.5039 H   0  0  0  0  0  0
  -26.2886  -15.6232   20.0917 H   0  0  0  0  0  0
  -26.7099  -32.5577   23.1191 H   0  0  0  0  0  0
  -25.0050  -33.9801   25.0496 H   0  0  0  0  0  0
  -22.6919  -31.3088   21.4094 H   0  0  0  0  0  0
  -23.3744  -35.9670   23.3315 H   0  0  0  0  0  0
  -24.3587  -36.8920   22.2049 H   0  0  0  0  0  0
  -23.7252  -37.6543   23.6637 H   0  0  0  0  0  0
  -26.0420  -31.5982   20.5973 H   0  0  0  0  0  0
  -26.8212  -30.8956   21.9858 H   0  0  0  0  0  0
  -28.1042  -29.1176   21.1900 H   0  0  0  0  0  0
  -26.0814  -25.9908   19.0044 H   0  0  0  0  0  0
  -23.9872  -27.2998   19.0368 H   0  0  0  0  0  0
  -23.7241  -30.5983   19.4056 H   0  0  0  0  0  0
  -22.7429  -29.2411   19.8705 H   0  0  0  0  0  0
  -25.1285  -36.2000   25.0837 H   0  0  0  0  0  0
  -20.9958  -28.3234   24.1436 H   0  0  0  0  0  0
  -20.5681  -26.2274   23.3599 H   0  0  0  0  0  0
  -21.6646  -26.7456   22.1203 H   0  0  0  0  0  0
  -19.6918  -25.6297   21.1236 H   0  0  0  0  0  0
  -19.6699  -27.3197   20.6743 H   0  0  0  0  0  0
  -17.4202  -26.6670   21.4016 H   0  0  0  0  0  0
  -18.0333  -26.0066   22.9010 H   0  0  0  0  0  0
  -19.7930  -30.7252   24.2287 H   0  0  0  0  0  0
  -17.5015  -31.6265   24.5161 H   0  0  0  0  0  0
  -15.5350  -30.2996   23.7640 H   0  0  0  0  0  0
  -15.8666  -28.0832   22.7047 H   0  0  0  0  0  0
  -24.5883  -30.7080   25.7801 H   0  0  0  0  0  0
  -24.8947  -32.2872   26.4944 H   0  0  0  0  0  0
  -25.8079  -30.8847   27.0216 H   0  0  0  0  0  0
  -26.2848  -29.6816   24.1126 H   0  0  0  0  0  0
  -27.4055  -29.7270   25.4545 H   0  0  0  0  0  0
  -27.8687  -30.4376   23.9253 H   0  0  0  0  0  0
  -27.2661  -33.3589   26.2109 H   0  0  0  0  0  0
  -28.3828  -32.6904   25.0300 H   0  0  0  0  0  0
  -28.0734  -31.8406   26.5363 H   0  0  0  0  0  0
  -28.2610  -38.0110   24.7500 H   0  0  0  0  0  0
  -28.1071  -36.2643   24.6305 H   0  0  0  0  0  0
  -27.2299  -37.1490   25.8865 H   0  0  0  0  0  0
  -20.9289  -29.8760   21.6941 H   0  0  0  0  0  0
  -26.0195  -38.2885   24.1387 H   0  0  0  0  0  0
  -31.8880  -20.7404   23.3461 H   0  0  0  0  0  0
  -32.0903  -22.4486   23.3777 H   0  0  0  0  0  0
  -32.7755  -21.5324   22.0562 H   0  0  0  0  0  0
  -29.2794  -20.9384   23.4270 H   0  0  0  0  0  0
  -28.4332  -21.8830   22.2128 H   0  0  0  0  0  0
  -29.3631  -22.6710   23.4721 H   0  0  0  0  0  0
  -31.0250  -25.8345   23.0128 H   0  0  0  0  0  0
  -32.2375  -24.6575   22.5462 H   0  0  0  0  0  0
  -30.9034  -24.2218   23.6290 H   0  0  0  0  0  0
  -30.1674  -16.7892   22.8622 H   0  0  0  0  0  0
  -31.6608  -16.6093   21.9858 H   0  0  0  0  0  0
  -29.1582  -17.9339   20.7676 H   0  0  0  0  0  0
  -30.7621  -17.8964   20.0605 H   0  0  0  0  0  0
  -31.4202  -25.8693   20.4513 H   0  0  0  0  0  0
  -30.1427  -25.1306   19.5527 H   0  0  0  0  0  0
  -31.2305  -20.4724   20.1968 H   0  0  0  0  0  0
  -29.5054  -20.5002   20.4407 H   0  0  0  0  0  0
  -29.9779  -22.9197   20.1322 H   0  0  0  0  0  0
  -31.6609  -23.1126   20.4890 H   0  0  0  0  0  0
  -29.9789  -27.6604   20.6344 H   0  0  0  0  0  0
  -29.1463  -26.7561   21.8952 H   0  0  0  0  0  0
  -29.1487  -15.1156   21.6762 H   0  0  0  0  0  0
  -31.4947  -19.1124   22.0816 H   0  0  0  0  0  0
  -29.9381  -19.2549   22.5247 H   0  0  0  0  0  0
  -29.3948  -24.3512   21.8687 H   0  0  0  0  0  0
  1 25  1  0  0  0
  1 30  2  0  0  0
  1 81  1  0  0  0
  2  3  1  0  0  0
  2 25  1  0  0  0
  2 84  1  0  0  0
  2 85  1  0  0  0
  3  4  1  0  0  0
  3 86  1  0  0  0
  3 87  1  0  0  0
  4  5  1  0  0  0
  4 88  1  0  0  0
  4 89  1  0  0  0
  5  6  1  0  0  0
  5 26  1  0  0  0
  5 90  1  0  0  0
  6 25  1  0  0  0
  6 91  1  0  0  0
  6 92  1  0  0  0
  7  8  2  0  0  0
  7 26  1  0  0  0
  7 29  1  0  0  0
  8  9  1  0  0  0
  8 22  1  0  0  0
  9 10  1  0  0  0
  9 27  2  0  0  0
 10 11  2  0  0  0
 10 15  1  0  0  0
 11 12  1  0  0  0
 11 93  1  0  0  0
 12 13  2  0  0  0
 12 94  1  0  0  0
 13 14  1  0  0  0
 13 31  1  0  0  0
 14 15  2  0  0  0
 14 95  1  0  0  0
 15 96  1  0  0  0
 16 17  2  0  0  0
 16 21  1  0  0  0
 16 31  1  0  0  0
 17 18  1  0  0  0
 17 97  1  0  0  0
 18 19  2  0  0  0
 18 98  1  0  0  0
 19 20  1  0  0  0
 19 24  1  0  0  0
 20 21  2  0  0  0
 20 99  1  0  0  0
 21 23  1  0  0  0
 22 28  1  0  0  0
 22 32  2  0  0  0
 26 27  1  0  0  0
 28100  1  0  0  0
 28101  1  0  0  0
 29102  1  0  0  0
 29103  1  0  0  0
 33 34  1  0  0  0
 33 66  1  0  0  0
 33 70  2  0  0  0
 34 36  1  0  0  0
 34 59  1  0  0  0
 34104  1  0  0  0
 35 44  2  0  0  0
 35 45  1  0  0  0
 35 68  1  0  0  0
 36 56  1  0  0  0
 36105  1  0  0  0
 37 39  1  0  0  0
 37 47  1  0  0  0
 37 66  1  0  0  0
 37106  1  0  0  0
 38 43  2  0  0  0
 38 46  1  0  0  0
 38 47  1  0  0  0
 39 64  1  0  0  0
 39 67  2  0  0  0
 40 52  1  0  0  0
 40 53  2  0  0  0
 40 58  1  0  0  0
 41107  1  0  0  0
 41108  1  0  0  0
 41109  1  0  0  0
 41 48  1  0  0  0
 42 43  1  0  0  0
 42 66  1  0  0  0
 42110  1  0  0  0
 42111  1  0  0  0
 43 44  1  0  0  0
 44112  1  0  0  0
 45 46  2  0  0  0
 45113  1  0  0  0
 46114  1  0  0  0
 47115  1  0  0  0
 47116  1  0  0  0
 48 56  1  0  0  0
 48 65  1  0  0  0
 48117  1  0  0  0
 49 50  1  0  0  0
 49 53  1  0  0  0
 49 64  1  0  0  0
 49118  1  0  0  0
 50 51  1  0  0  0
 50119  1  0  0  0
 50120  1  0  0  0
 51 52  1  0  0  0
 51121  1  0  0  0
 51122  1  0  0  0
 52123  1  0  0  0
 52124  1  0  0  0
 53 54  1  0  0  0
 54 55  2  0  0  0
 54125  1  0  0  0
 55 57  1  0  0  0
 55126  1  0  0  0
 56 69  2  0  0  0
 57 58  2  0  0  0
 57127  1  0  0  0
 58128  1  0  0  0
 59 60  1  0  0  0
 59 61  1  0  0  0
 59 62  1  0  0  0
 60129  1  0  0  0
 60130  1  0  0  0
 60131  1  0  0  0
 61132  1  0  0  0
 61133  1  0  0  0
 61134  1  0  0  0
 62135  1  0  0  0
 62136  1  0  0  0
 62137  1  0  0  0
 63 65  1  0  0  0
 63138  1  0  0  0
 63139  1  0  0  0
 63140  1  0  0  0
 64141  1  0  0  0
 65142  1  0  0  0
 68 79  1  0  0  0
 71143  1  0  0  0
 71144  1  0  0  0
 71145  1  0  0  0
 71 80  1  0  0  0
 72 80  1  0  0  0
 72146  1  0  0  0
 72147  1  0  0  0
 72148  1  0  0  0
 73149  1  0  0  0
 73150  1  0  0  0
 73151  1  0  0  0
 73 83  1  0  0  0
 74 75  1  0  0  0
 74 81  1  0  0  0
 74152  1  0  0  0
 74153  1  0  0  0
 75 82  1  0  0  0
 75154  1  0  0  0
 75155  1  0  0  0
 76 79  1  0  0  0
 76 83  1  0  0  0
 76156  1  0  0  0
 76157  1  0  0  0
 77 80  1  0  0  0
 77 82  1  0  0  0
 77158  1  0  0  0
 77159  1  0  0  0
 78 80  1  0  0  0
 78 83  1  0  0  0
 78160  1  0  0  0
 78161  1  0  0  0
 79162  1  0  0  0
 79163  1  0  0  0
 81164  1  0  0  0
 82165  1  0  0  0
 82166  1  0  0  0
 83167  1  0  0  0
M  CHG  2  82   1  83   1
M  ISO  4   1 100  68 101  79 101  81 100
M  END
> <chiral flag>
0

> <version>
0

> <s_m_source_file>
/data/baiqing/PycharmProjects/Reinvent-master-3.2/result/LINK_invent/BTK/process_docking_weight1_custom_sum_contain_oxygen_bond_distance_aromatic_linkinvent_7_9_3/rearranged_h_0115.sdf

> <i_m_source_file_index>
19

> <r_mmod_Potential_Energy-OPLS-2005>
-311.673095703125

> <r_mmod_Stretch_Energy-OPLS-2005>
46.4839630126953

> <r_mmod_Bend_Energy-OPLS-2005>
126.103561401367

> <r_mmod_Torsional_Energy-OPLS-2005>
244.969299316406

> <r_mmod_Improper_Torsional_Energy-OPLS-2005>
2.20453095436096

> <r_mmod_Van_der_Waal_Energy-OPLS-2005>
139.432647705078

> <r_mmod_Electrostatic_Energy-OPLS-2005>
39.9257011413574

> <r_mmod_Solvation_Energy-OPLS-2005>
-922.947814941406

> <b_mmod_Minimization_Converged-OPLS-2005>
0

> <r_mmod_RMS_Derivative-OPLS-2005>
1.39201712608337

$$$$
19
                    3D
 Structure written by MMmdl.
157165  0  0  1  0            999 V2000
  -30.5133  -15.0137   20.4188 C   0  0  0  0  0  0
  -30.4404  -12.6381   19.4958 C   0  0  0  0  0  0
  -29.5177  -12.5267   18.2598 C   0  0  0  0  0  0
  -28.0577  -12.2927   18.6936 C   0  0  0  0  0  0
  -27.6222  -13.2459   19.8352 C   0  0  2  0  0  0
  -28.6664  -13.3089   20.9672 C   0  0  0  0  0  0
  -25.2441  -13.8201   20.5737 C   0  0  0  0  0  0
  -24.1746  -13.0422   20.9234 C   0  0  0  0  0  0
  -24.6358  -11.6909   20.8767 C   0  0  0  0  0  0
  -23.9041  -10.4281   21.0402 C   0  0  0  0  0  0
  -24.3589   -9.4206   21.9191 C   0  0  0  0  0  0
  -23.6275   -8.2236   22.0757 C   0  0  0  0  0  0
  -22.4270   -8.0259   21.3528 C   0  0  0  0  0  0
  -21.9888   -9.0228   20.4645 C   0  0  0  0  0  0
  -22.7203  -10.2120   20.3056 C   0  0  0  0  0  0
  -21.6845   -6.0715   22.5266 C   0  0  0  0  0  0
  -21.4018   -6.5627   23.8198 C   0  0  0  0  0  0
  -21.3661   -5.6791   24.9165 C   0  0  0  0  0  0
  -21.6039   -4.3049   24.7224 C   0  0  0  0  0  0
  -21.8818   -3.8132   23.4349 C   0  0  0  0  0  0
  -21.9195   -4.6947   22.3400 C   0  0  0  0  0  0
  -22.7777  -13.5207   21.1892 C   0  0  0  0  0  0
  -22.1661   -4.2123   21.0981 F   0  0  0  0  0  0
  -21.5627   -3.4543   25.7743 F   0  0  0  0  0  0
  -29.9230  -13.7480   20.3480 N   0  0  0  0  0  0
  -26.2848  -12.9419   20.3269 N   0  0  0  0  0  0
  -25.9289  -11.6555   20.5763 N   0  0  0  0  0  0
  -22.0435  -12.8192   22.0451 N   0  0  0  0  0  0
  -25.4138  -15.1922   20.4175 N   0  0  0  0  0  0
  -31.7348  -15.0578   20.2370 O   0  0  0  0  0  0
  -21.6637   -6.8853   21.4222 O   0  0  0  0  0  0
  -22.3469  -14.5509   20.6730 O   0  0  0  0  0  0
  -24.6448  -31.8408   23.1891 C   0  0  0  0  0  0
  -25.9206  -32.4684   23.8276 C   0  0  1  0  0  0
  -27.2037  -27.0862   20.1549 C   0  0  0  0  0  0
  -25.5958  -33.8495   24.2181 N   0  0  0  0  0  0
  -23.4488  -30.4618   21.5372 C   0  0  2  0  0  0
  -24.8936  -28.8861   20.1127 C   0  0  0  0  0  0
  -22.7581  -29.4502   22.4860 C   0  0  0  0  0  0
  -18.0318  -28.1368   22.8471 C   0  0  0  0  0  0
  -24.1498  -36.7264   23.2644 C   0  0  0  0  0  0
  -26.0100  -30.7013   21.3926 C   0  0  0  0  0  0
  -26.0789  -29.3112   20.7270 C   0  0  0  0  0  0
  -27.2322  -28.4311   20.7246 C   0  0  0  0  0  0
  -25.9746  -26.7651   19.5318 C   0  0  0  0  0  0
  -24.8567  -27.6254   19.5020 C   0  0  0  0  0  0
  -23.6753  -29.7986   20.1548 C   0  0  0  0  0  0
  -25.4140  -36.3035   24.0299 C   0  0  1  0  0  0
  -20.5926  -28.3677   23.1242 C   0  0  2  0  0  0
  -20.6796  -26.9374   22.5417 C   0  0  0  0  0  0
  -19.5778  -26.6346   21.5220 C   0  0  0  0  0  0
  -18.1948  -26.7901   22.1619 C   0  0  0  0  0  0
  -19.1570  -28.8847   23.2831 C   0  0  0  0  0  0
  -18.9496  -30.1457   23.8829 C   0  0  0  0  0  0
  -17.6483  -30.6559   24.0552 C   0  0  0  0  0  0
  -25.9088  -34.9403   23.5049 C   0  0  0  0  0  0
  -16.5367  -29.9048   23.6341 C   0  0  0  0  0  0
  -16.7301  -28.6477   23.0336 C   0  0  0  0  0  0
  -26.4512  -31.6566   25.0729 C   0  0  0  0  0  0
  -25.3690  -31.3729   26.1417 C   0  0  0  0  0  0
  -27.0385  -30.2961   24.6324 C   0  0  0  0  0  0
  -27.6038  -32.4352   25.7510 C   0  0  0  0  0  0
  -27.5587  -37.1781   24.8455 C   0  0  0  0  0  0
  -21.4270  -29.3005   22.3617 N   0  0  0  0  0  0
  -26.4298  -37.3750   23.9404 N   0  0  0  0  0  0
  -24.7218  -31.0231   22.0947 N   0  0  0  0  0  0
  -23.4217  -28.8019   23.2985 O   0  0  0  0  0  0
  -28.2554  -26.0788   20.2251 O   0  0  0  0  0  0
  -26.5676  -34.8887   22.4636 O   0  0  0  0  0  0
  -23.5563  -32.1315   23.7096 O   0  0  0  0  0  0
  -29.7062  -19.7231   18.9725 C   0  0  0  0  0  0
  -29.1931  -20.4492   20.9407 C   0  0  0  0  0  0
  -29.5856  -19.2280   20.3068 C   0  0  0  0  0  0
  -29.5443  -21.1038   18.8887 C   0  0  0  0  0  0
  -29.8808  -21.9175   17.6810 C   0  0  0  0  0  0
  -28.7795  -23.2823   22.0769 C   0  0  0  0  0  0
  -28.0654  -24.4534   18.3799 C   0  0  0  0  0  0
  -30.0530  -17.7222   20.9031 C   0  0  0  0  0  0
  -29.0166  -23.2367   20.5597 C   0  0  2  0  0  0
  -28.0816  -24.5336   19.9097 C   0  0  1  0  0  0
  -29.1506  -21.6675   20.1212 N   0  0  0  0  0  0
  -29.7311  -16.2154   20.4932 N   0  0  0  0  0  0
  -31.4679  -12.8182   19.1780 H   0  0  0  0  0  0
  -30.4585  -11.7005   20.0543 H   0  0  0  0  0  0
  -29.8488  -11.7138   17.6111 H   0  0  0  0  0  0
  -29.5811  -13.4405   17.6680 H   0  0  0  0  0  0
  -27.9846  -11.2610   19.0401 H   0  0  0  0  0  0
  -27.3814  -12.3746   17.8412 H   0  0  0  0  0  0
  -27.5733  -14.2377   19.3847 H   0  0  0  0  0  0
  -28.7801  -12.3400   21.4551 H   0  0  0  0  0  0
  -28.3563  -14.0121   21.7428 H   0  0  0  0  0  0
  -25.2718   -9.5695   22.4783 H   0  0  0  0  0  0
  -23.9971   -7.4637   22.7489 H   0  0  0  0  0  0
  -21.0812   -8.8735   19.8963 H   0  0  0  0  0  0
  -22.3630  -10.9656   19.6179 H   0  0  0  0  0  0
  -21.2012   -7.6137   23.9682 H   0  0  0  0  0  0
  -21.1484   -6.0532   25.9062 H   0  0  0  0  0  0
  -22.0597   -2.7593   23.2862 H   0  0  0  0  0  0
  -22.4059  -11.9858   22.4835 H   0  0  0  0  0  0
  -21.1050  -13.1217   22.2680 H   0  0  0  0  0  0
  -24.6466  -15.8471   20.5240 H   0  0  0  0  0  0
  -26.2596  -15.6278   20.0739 H   0  0  0  0  0  0
  -26.7259  -32.5254   23.0987 H   0  0  0  0  0  0
  -25.0049  -33.9621   25.0280 H   0  0  0  0  0  0
  -22.7498  -31.2873   21.3867 H   0  0  0  0  0  0
  -23.3764  -35.9586   23.3280 H   0  0  0  0  0  0
  -24.3576  -36.8951   22.2068 H   0  0  0  0  0  0
  -23.7249  -37.6442   23.6717 H   0  0  0  0  0  0
  -26.1710  -31.4598   20.6254 H   0  0  0  0  0  0
  -26.8779  -30.7467   22.0386 H   0  0  0  0  0  0
  -28.1335  -28.7549   21.2264 H   0  0  0  0  0  0
  -25.8171  -25.7927   19.0950 H   0  0  0  0  0  0
  -23.9430  -27.2827   19.0341 H   0  0  0  0  0  0
  -23.8199  -30.5813   19.4091 H   0  0  0  0  0  0
  -22.7852  -29.2541   19.8336 H   0  0  0  0  0  0
  -25.1321  -36.1869   25.0785 H   0  0  0  0  0  0
  -21.0007  -28.3262   24.1374 H   0  0  0  0  0  0
  -20.5718  -26.2254   23.3618 H   0  0  0  0  0  0
  -21.6649  -26.7395   22.1192 H   0  0  0  0  0  0
  -19.6939  -25.6263   21.1247 H   0  0  0  0  0  0
  -19.6740  -27.3145   20.6744 H   0  0  0  0  0  0
  -17.4229  -26.6664   21.4006 H   0  0  0  0  0  0
  -18.0329  -26.0036   22.9009 H   0  0  0  0  0  0
  -19.7971  -30.7306   24.2123 H   0  0  0  0  0  0
  -17.5038  -31.6231   24.5168 H   0  0  0  0  0  0
  -15.5365  -30.2917   23.7716 H   0  0  0  0  0  0
  -15.8702  -28.0804   22.7036 H   0  0  0  0  0  0
  -24.5918  -30.7020   25.7731 H   0  0  0  0  0  0
  -24.8801  -32.2880   26.4774 H   0  0  0  0  0  0
  -25.7967  -30.8971   27.0253 H   0  0  0  0  0  0
  -26.3005  -29.6664   24.1335 H   0  0  0  0  0  0
  -27.3986  -29.7281   25.4914 H   0  0  0  0  0  0
  -27.8916  -30.4187   23.9642 H   0  0  0  0  0  0
  -27.2647  -33.3718   26.1957 H   0  0  0  0  0  0
  -28.3893  -32.6827   25.0354 H   0  0  0  0  0  0
  -28.0631  -31.8570   26.5538 H   0  0  0  0  0  0
  -28.2554  -38.0123   24.7542 H   0  0  0  0  0  0
  -28.1137  -36.2648   24.6245 H   0  0  0  0  0  0
  -27.2292  -37.1375   25.8850 H   0  0  0  0  0  0
  -20.9459  -29.8760   21.6850 H   0  0  0  0  0  0
  -26.0163  -38.2804   24.1448 H   0  0  0  0  0  0
  -30.0415  -19.1231   18.1359 H   0  0  0  0  0  0
  -29.0148  -20.5749   21.9998 H   0  0  0  0  0  0
  -30.5554  -21.3649   17.0262 H   0  0  0  0  0  0
  -30.4027  -22.8318   17.9542 H   0  0  0  0  0  0
  -29.0015  -22.1501   17.0841 H   0  0  0  0  0  0
  -28.8422  -24.3016   22.4595 H   0  0  0  0  0  0
  -29.5207  -22.6945   22.6180 H   0  0  0  0  0  0
  -27.7901  -22.8977   22.3233 H   0  0  0  0  0  0
  -27.6381  -23.5063   18.0566 H   0  0  0  0  0  0
  -29.0687  -24.5664   17.9775 H   0  0  0  0  0  0
  -27.4782  -25.2375   17.9107 H   0  0  0  0  0  0
  -29.7841  -17.7694   21.9600 H   0  0  0  0  0  0
  -31.1420  -17.7708   20.9109 H   0  0  0  0  0  0
  -30.0345  -23.6014   20.4186 H   0  0  0  0  0  0
  -27.0688  -24.3031   20.2424 H   0  0  0  0  0  0
  -28.7406  -16.0255   20.4700 H   0  0  0  0  0  0
  1 25  1  0  0  0
  1 30  2  0  0  0
  1 82  1  0  0  0
  2  3  1  0  0  0
  2 25  1  0  0  0
  2 83  1  0  0  0
  2 84  1  0  0  0
  3  4  1  0  0  0
  3 85  1  0  0  0
  3 86  1  0  0  0
  4  5  1  0  0  0
  4 87  1  0  0  0
  4 88  1  0  0  0
  5  6  1  0  0  0
  5 26  1  0  0  0
  5 89  1  0  0  0
  6 25  1  0  0  0
  6 90  1  0  0  0
  6 91  1  0  0  0
  7  8  2  0  0  0
  7 26  1  0  0  0
  7 29  1  0  0  0
  8  9  1  0  0  0
  8 22  1  0  0  0
  9 10  1  0  0  0
  9 27  2  0  0  0
 10 11  2  0  0  0
 10 15  1  0  0  0
 11 12  1  0  0  0
 11 92  1  0  0  0
 12 13  2  0  0  0
 12 93  1  0  0  0
 13 14  1  0  0  0
 13 31  1  0  0  0
 14 15  2  0  0  0
 14 94  1  0  0  0
 15 95  1  0  0  0
 16 17  2  0  0  0
 16 21  1  0  0  0
 16 31  1  0  0  0
 17 18  1  0  0  0
 17 96  1  0  0  0
 18 19  2  0  0  0
 18 97  1  0  0  0
 19 20  1  0  0  0
 19 24  1  0  0  0
 20 21  2  0  0  0
 20 98  1  0  0  0
 21 23  1  0  0  0
 22 28  1  0  0  0
 22 32  2  0  0  0
 26 27  1  0  0  0
 28 99  1  0  0  0
 28100  1  0  0  0
 29101  1  0  0  0
 29102  1  0  0  0
 33 34  1  0  0  0
 33 66  1  0  0  0
 33 70  2  0  0  0
 34 36  1  0  0  0
 34 59  1  0  0  0
 34103  1  0  0  0
 35 44  2  0  0  0
 35 45  1  0  0  0
 35 68  1  0  0  0
 36 56  1  0  0  0
 36104  1  0  0  0
 37 39  1  0  0  0
 37 47  1  0  0  0
 37 66  1  0  0  0
 37105  1  0  0  0
 38 43  2  0  0  0
 38 46  1  0  0  0
 38 47  1  0  0  0
 39 64  1  0  0  0
 39 67  2  0  0  0
 40 52  1  0  0  0
 40 53  2  0  0  0
 40 58  1  0  0  0
 41106  1  0  0  0
 41107  1  0  0  0
 41108  1  0  0  0
 41 48  1  0  0  0
 42 43  1  0  0  0
 42 66  1  0  0  0
 42109  1  0  0  0
 42110  1  0  0  0
 43 44  1  0  0  0
 44111  1  0  0  0
 45 46  2  0  0  0
 45112  1  0  0  0
 46113  1  0  0  0
 47114  1  0  0  0
 47115  1  0  0  0
 48 56  1  0  0  0
 48 65  1  0  0  0
 48116  1  0  0  0
 49 50  1  0  0  0
 49 53  1  0  0  0
 49 64  1  0  0  0
 49117  1  0  0  0
 50 51  1  0  0  0
 50118  1  0  0  0
 50119  1  0  0  0
 51 52  1  0  0  0
 51120  1  0  0  0
 51121  1  0  0  0
 52122  1  0  0  0
 52123  1  0  0  0
 53 54  1  0  0  0
 54 55  2  0  0  0
 54124  1  0  0  0
 55 57  1  0  0  0
 55125  1  0  0  0
 56 69  2  0  0  0
 57 58  2  0  0  0
 57126  1  0  0  0
 58127  1  0  0  0
 59 60  1  0  0  0
 59 61  1  0  0  0
 59 62  1  0  0  0
 60128  1  0  0  0
 60129  1  0  0  0
 60130  1  0  0  0
 61131  1  0  0  0
 61132  1  0  0  0
 61133  1  0  0  0
 62134  1  0  0  0
 62135  1  0  0  0
 62136  1  0  0  0
 63 65  1  0  0  0
 63137  1  0  0  0
 63138  1  0  0  0
 63139  1  0  0  0
 64140  1  0  0  0
 65141  1  0  0  0
 68 80  1  0  0  0
 71 73  1  0  0  0
 71 74  2  0  0  0
 71142  1  0  0  0
 72 73  2  0  0  0
 72 81  1  0  0  0
 72143  1  0  0  0
 73 78  1  0  0  0
 74 75  1  0  0  0
 74 81  1  0  0  0
 75144  1  0  0  0
 75145  1  0  0  0
 75146  1  0  0  0
 76147  1  0  0  0
 76148  1  0  0  0
 76149  1  0  0  0
 76 79  1  0  0  0
 77150  1  0  0  0
 77151  1  0  0  0
 77152  1  0  0  0
 77 80  1  0  0  0
 78 82  1  0  0  0
 78153  1  0  0  0
 78154  1  0  0  0
 79 80  1  0  0  0
 79 81  1  0  0  0
 79155  1  0  0  0
 80156  1  0  0  0
 82157  1  0  0  0
M  ISO  4   1 100  68 101  80 101  82 100
M  END
> <chiral flag>
0

> <version>
0

> <s_m_source_file>
/data/baiqing/PycharmProjects/Reinvent-master-3.2/result/LINK_invent/BTK/process_docking_weight1_custom_sum_contain_oxygen_bond_distance_aromatic_linkinvent_7_9_3/rearranged_h_0115.sdf

> <i_m_source_file_index>
20

> <r_mmod_Potential_Energy-OPLS-2005>
630.718811035156

> <r_mmod_Stretch_Energy-OPLS-2005>
322.636535644531

> <r_mmod_Bend_Energy-OPLS-2005>
324.119964599609

> <r_mmod_Torsional_Energy-OPLS-2005>
238.649536132812

> <r_mmod_Improper_Torsional_Energy-OPLS-2005>
9.33787250518799

> <r_mmod_Van_der_Waal_Energy-OPLS-2005>
116.301399230957

> <r_mmod_Electrostatic_Energy-OPLS-2005>
-410.132110595703

> <r_mmod_Solvation_Energy-OPLS-2005>
-212.229827880859

> <b_mmod_Minimization_Converged-OPLS-2005>
0

> <r_mmod_RMS_Derivative-OPLS-2005>
2.49132895469666

$$$$
20
                    3D
 Structure written by MMmdl.
168176  0  0  1  0            999 V2000
  -30.6090  -14.6655   20.4536 C   0  0  0  0  0  0
  -30.4211  -12.4011   19.4621 C   0  0  0  0  0  0
  -29.4976  -12.5030   18.2288 C   0  0  0  0  0  0
  -28.0220  -12.3349   18.6415 C   0  0  0  0  0  0
  -27.6361  -13.2219   19.8549 C   0  0  2  0  0  0
  -28.6795  -13.1081   20.9866 C   0  0  0  0  0  0
  -25.2438  -13.8168   20.5708 C   0  0  0  0  0  0
  -24.1744  -13.0430   20.9225 C   0  0  0  0  0  0
  -24.6312  -11.6897   20.8740 C   0  0  0  0  0  0
  -23.8984  -10.4279   21.0398 C   0  0  0  0  0  0
  -24.3546   -9.4201   21.9178 C   0  0  0  0  0  0
  -23.6252   -8.2221   22.0740 C   0  0  0  0  0  0
  -22.4241   -8.0246   21.3524 C   0  0  0  0  0  0
  -21.9858   -9.0208   20.4627 C   0  0  0  0  0  0
  -22.7154  -10.2101   20.3049 C   0  0  0  0  0  0
  -21.6837   -6.0699   22.5272 C   0  0  0  0  0  0
  -21.4006   -6.5615   23.8203 C   0  0  0  0  0  0
  -21.3674   -5.6783   24.9172 C   0  0  0  0  0  0
  -21.6052   -4.3047   24.7236 C   0  0  0  0  0  0
  -21.8813   -3.8122   23.4363 C   0  0  0  0  0  0
  -21.9185   -4.6924   22.3408 C   0  0  0  0  0  0
  -22.7760  -13.5201   21.1923 C   0  0  0  0  0  0
  -22.1654   -4.2109   21.0983 F   0  0  0  0  0  0
  -21.5642   -3.4535   25.7756 F   0  0  0  0  0  0
  -29.9883  -13.4450   20.4132 N   0  0  0  0  0  0
  -26.2866  -12.9370   20.3281 N   0  0  0  0  0  0
  -25.9237  -11.6516   20.5740 N   0  0  0  0  0  0
  -22.0409  -12.8179   22.0465 N   0  0  0  0  0  0
  -25.4123  -15.1903   20.4110 N   0  0  0  0  0  0
  -31.7952  -14.7828   20.1369 O   0  0  0  0  0  0
  -21.6626   -6.8826   21.4228 O   0  0  0  0  0  0
  -22.3452  -14.5519   20.6778 O   0  0  0  0  0  0
  -24.6197  -31.8556   23.2034 C   0  0  0  0  0  0
  -25.9046  -32.4740   23.8352 C   0  0  1  0  0  0
  -27.2333  -27.3003   20.1215 C   0  0  0  0  0  0
  -25.5862  -33.8547   24.2255 N   0  0  0  0  0  0
  -23.4150  -30.4741   21.5476 C   0  0  2  0  0  0
  -24.8689  -28.9263   20.1139 C   0  0  0  0  0  0
  -22.7437  -29.4542   22.4964 C   0  0  0  0  0  0
  -18.0271  -28.1312   22.8514 C   0  0  0  0  0  0
  -24.1487  -36.7299   23.2627 C   0  0  0  0  0  0
  -25.9546  -30.7807   21.3785 C   0  0  0  0  0  0
  -26.0327  -29.4040   20.7244 C   0  0  0  0  0  0
  -27.2107  -28.5987   20.7281 C   0  0  0  0  0  0
  -26.0407  -26.8730   19.4947 C   0  0  0  0  0  0
  -24.8740  -27.6657   19.4947 C   0  0  0  0  0  0
  -23.6339  -29.8053   20.1637 C   0  0  0  0  0  0
  -25.4105  -36.3036   24.0295 C   0  0  1  0  0  0
  -20.5861  -28.3597   23.1325 C   0  0  2  0  0  0
  -20.6759  -26.9322   22.5439 C   0  0  0  0  0  0
  -19.5744  -26.6342   21.5226 C   0  0  0  0  0  0
  -18.1923  -26.7867   22.1631 C   0  0  0  0  0  0
  -19.1519  -28.8790   23.2906 C   0  0  0  0  0  0
  -18.9429  -30.1416   23.8883 C   0  0  0  0  0  0
  -17.6421  -30.6537   24.0543 C   0  0  0  0  0  0
  -25.9039  -34.9404   23.5081 C   0  0  0  0  0  0
  -16.5320  -29.9029   23.6312 C   0  0  0  0  0  0
  -16.7257  -28.6440   23.0354 C   0  0  0  0  0  0
  -26.4465  -31.6547   25.0713 C   0  0  0  0  0  0
  -25.3710  -31.3686   26.1450 C   0  0  0  0  0  0
  -27.0293  -30.2948   24.6175 C   0  0  0  0  0  0
  -27.5993  -32.4328   25.7502 C   0  0  0  0  0  0
  -27.5565  -37.1783   24.8440 C   0  0  0  0  0  0
  -21.4151  -29.2953   22.3721 N   0  0  0  0  0  0
  -26.4267  -37.3737   23.9387 N   0  0  0  0  0  0
  -24.6809  -31.0529   22.1005 N   0  0  0  0  0  0
  -23.4173  -28.8072   23.3029 O   0  0  0  0  0  0
  -28.3792  -26.4866   20.1957 O   0  0  0  0  0  0
  -26.5626  -34.8853   22.4667 O   0  0  0  0  0  0
  -23.5356  -32.1382   23.7343 O   0  0  0  0  0  0
  -24.5264  -19.4475   19.3805 C   0  0  0  0  0  0
  -25.2902  -20.2292   18.3004 C   0  0  0  0  0  0
  -24.7903  -20.0408   20.7773 C   0  0  0  0  0  0
  -26.8034  -20.2325   18.5935 C   0  0  0  0  0  0
  -26.2946  -20.1575   21.1054 C   0  0  0  0  0  0
  -27.0876  -20.8618   19.9812 C   0  0  0  0  0  0
  -29.1208  -18.3747   20.5197 C   0  0  0  0  0  0
  -28.4872  -23.7926   20.4760 C   0  0  0  0  0  0
  -30.2064  -17.2152   20.3095 C   0  0  0  0  0  0
  -29.4715  -19.8654   20.0101 C   0  0  0  0  0  0
  -29.0236  -22.4255   19.7969 C   0  0  0  0  0  0
  -28.5037  -25.1317   19.5906 C   0  0  0  0  0  0
  -29.8171  -15.7818   20.6046 N   0  0  0  0  0  0
  -28.5405  -21.0595   20.3170 N   0  3  1  0  0  0
  -31.4642  -12.5191   19.1655 H   0  0  0  0  0  0
  -30.3484  -11.4139   19.9214 H   0  0  0  0  0  0
  -29.7673  -11.7485   17.4882 H   0  0  0  0  0  0
  -29.6341  -13.4718   17.7460 H   0  0  0  0  0  0
  -27.8710  -11.2846   18.8947 H   0  0  0  0  0  0
  -27.3627  -12.5393   17.7972 H   0  0  0  0  0  0
  -27.6415  -14.2497   19.4942 H   0  0  0  0  0  0
  -28.6905  -12.0945   21.3893 H   0  0  0  0  0  0
  -28.4289  -13.7629   21.8225 H   0  0  0  0  0  0
  -25.2672   -9.5707   22.4780 H   0  0  0  0  0  0
  -23.9969   -7.4609   22.7459 H   0  0  0  0  0  0
  -21.0798   -8.8689   19.8935 H   0  0  0  0  0  0
  -22.3572  -10.9633   19.6181 H   0  0  0  0  0  0
  -21.1986   -7.6122   23.9690 H   0  0  0  0  0  0
  -21.1520   -6.0520   25.9075 H   0  0  0  0  0  0
  -22.0582   -2.7581   23.2875 H   0  0  0  0  0  0
  -22.4013  -11.9813   22.4833 H   0  0  0  0  0  0
  -21.1026  -13.1197   22.2708 H   0  0  0  0  0  0
  -24.6357  -15.8354   20.5021 H   0  0  0  0  0  0
  -26.2505  -15.6267   20.0535 H   0  0  0  0  0  0
  -26.7092  -32.5426   23.1083 H   0  0  0  0  0  0
  -24.9932  -33.9748   25.0334 H   0  0  0  0  0  0
  -22.7025  -31.2896   21.4020 H   0  0  0  0  0  0
  -23.3703  -35.9673   23.3275 H   0  0  0  0  0  0
  -24.3583  -36.8995   22.2051 H   0  0  0  0  0  0
  -23.7326  -37.6504   23.6718 H   0  0  0  0  0  0
  -26.0737  -31.5391   20.6053 H   0  0  0  0  0  0
  -26.8356  -30.8442   22.0043 H   0  0  0  0  0  0
  -28.0992  -28.9549   21.2315 H   0  0  0  0  0  0
  -25.9681  -25.9052   19.0236 H   0  0  0  0  0  0
  -23.9733  -27.2926   19.0267 H   0  0  0  0  0  0
  -23.7484  -30.5825   19.4076 H   0  0  0  0  0  0
  -22.7560  -29.2303   19.8648 H   0  0  0  0  0  0
  -25.1285  -36.1866   25.0783 H   0  0  0  0  0  0
  -20.9950  -28.3168   24.1445 H   0  0  0  0  0  0
  -20.5704  -26.2162   23.3608 H   0  0  0  0  0  0
  -21.6618  -26.7393   22.1184 H   0  0  0  0  0  0
  -19.6902  -25.6275   21.1213 H   0  0  0  0  0  0
  -19.6696  -27.3184   20.6776 H   0  0  0  0  0  0
  -17.4199  -26.6644   21.4025 H   0  0  0  0  0  0
  -18.0296  -25.9983   22.8992 H   0  0  0  0  0  0
  -19.7910  -30.7245   24.2239 H   0  0  0  0  0  0
  -17.4968  -31.6225   24.5125 H   0  0  0  0  0  0
  -15.5320  -30.2899   23.7639 H   0  0  0  0  0  0
  -15.8664  -28.0749   22.7044 H   0  0  0  0  0  0
  -24.5940  -30.6953   25.7825 H   0  0  0  0  0  0
  -24.8799  -32.2822   26.4777 H   0  0  0  0  0  0
  -25.8046  -30.8979   27.0286 H   0  0  0  0  0  0
  -26.2855  -29.6732   24.1162 H   0  0  0  0  0  0
  -27.3915  -29.7171   25.4689 H   0  0  0  0  0  0
  -27.8762  -30.4173   23.9429 H   0  0  0  0  0  0
  -27.2554  -33.3663   26.1966 H   0  0  0  0  0  0
  -28.3847  -32.6859   25.0375 H   0  0  0  0  0  0
  -28.0581  -31.8538   26.5526 H   0  0  0  0  0  0
  -28.2505  -38.0135   24.7469 H   0  0  0  0  0  0
  -28.1147  -36.2653   24.6279 H   0  0  0  0  0  0
  -27.2285  -37.1446   25.8844 H   0  0  0  0  0  0
  -20.9290  -29.8702   21.6977 H   0  0  0  0  0  0
  -26.0123  -38.2794   24.1430 H   0  0  0  0  0  0
  -24.8180  -18.3956   19.3497 H   0  0  0  0  0  0
  -23.4561  -19.4685   19.1671 H   0  0  0  0  0  0
  -24.9178  -21.2556   18.2599 H   0  0  0  0  0  0
  -25.0894  -19.7965   17.3195 H   0  0  0  0  0  0
  -24.2977  -19.4294   21.5347 H   0  0  0  0  0  0
  -24.3243  -21.0255   20.8417 H   0  0  0  0  0  0
  -27.3217  -20.7868   17.8110 H   0  0  0  0  0  0
  -27.1673  -19.2089   18.5327 H   0  0  0  0  0  0
  -26.6899  -19.1680   21.3147 H   0  0  0  0  0  0
  -26.4044  -20.7292   22.0269 H   0  0  0  0  0  0
  -26.6375  -21.8535   19.9311 H   0  0  0  0  0  0
  -28.8979  -18.4231   21.5853 H   0  0  0  0  0  0
  -28.2069  -18.0388   20.0337 H   0  0  0  0  0  0
  -29.0961  -23.9664   21.3654 H   0  0  0  0  0  0
  -27.4751  -23.6595   20.8560 H   0  0  0  0  0  0
  -31.0839  -17.4523   20.9123 H   0  0  0  0  0  0
  -30.5493  -17.2437   19.2727 H   0  0  0  0  0  0
  -29.6221  -19.8179   18.9302 H   0  0  0  0  0  0
  -30.4491  -20.1123   20.4272 H   0  0  0  0  0  0
  -30.1140  -22.4379   19.8537 H   0  0  0  0  0  0
  -28.8008  -22.4691   18.7295 H   0  0  0  0  0  0
  -27.8323  -25.0058   18.7441 H   0  0  0  0  0  0
  -29.4877  -25.1597   19.1233 H   0  0  0  0  0  0
  -28.8424  -15.6062   20.7983 H   0  0  0  0  0  0
  -28.5776  -21.1489   21.3217 H   0  0  0  0  0  0
  1 25  1  0  0  0
  1 30  2  0  0  0
  1 83  1  0  0  0
  2  3  1  0  0  0
  2 25  1  0  0  0
  2 85  1  0  0  0
  2 86  1  0  0  0
  3  4  1  0  0  0
  3 87  1  0  0  0
  3 88  1  0  0  0
  4  5  1  0  0  0
  4 89  1  0  0  0
  4 90  1  0  0  0
  5  6  1  0  0  0
  5 26  1  0  0  0
  5 91  1  0  0  0
  6 25  1  0  0  0
  6 92  1  0  0  0
  6 93  1  0  0  0
  7  8  2  0  0  0
  7 26  1  0  0  0
  7 29  1  0  0  0
  8  9  1  0  0  0
  8 22  1  0  0  0
  9 10  1  0  0  0
  9 27  2  0  0  0
 10 11  2  0  0  0
 10 15  1  0  0  0
 11 12  1  0  0  0
 11 94  1  0  0  0
 12 13  2  0  0  0
 12 95  1  0  0  0
 13 14  1  0  0  0
 13 31  1  0  0  0
 14 15  2  0  0  0
 14 96  1  0  0  0
 15 97  1  0  0  0
 16 17  2  0  0  0
 16 21  1  0  0  0
 16 31  1  0  0  0
 17 18  1  0  0  0
 17 98  1  0  0  0
 18 19  2  0  0  0
 18 99  1  0  0  0
 19 20  1  0  0  0
 19 24  1  0  0  0
 20 21  2  0  0  0
 20100  1  0  0  0
 21 23  1  0  0  0
 22 28  1  0  0  0
 22 32  2  0  0  0
 26 27  1  0  0  0
 28101  1  0  0  0
 28102  1  0  0  0
 29103  1  0  0  0
 29104  1  0  0  0
 33 34  1  0  0  0
 33 66  1  0  0  0
 33 70  2  0  0  0
 34 36  1  0  0  0
 34 59  1  0  0  0
 34105  1  0  0  0
 35 44  2  0  0  0
 35 45  1  0  0  0
 35 68  1  0  0  0
 36 56  1  0  0  0
 36106  1  0  0  0
 37 39  1  0  0  0
 37 47  1  0  0  0
 37 66  1  0  0  0
 37107  1  0  0  0
 38 43  2  0  0  0
 38 46  1  0  0  0
 38 47  1  0  0  0
 39 64  1  0  0  0
 39 67  2  0  0  0
 40 52  1  0  0  0
 40 53  2  0  0  0
 40 58  1  0  0  0
 41108  1  0  0  0
 41109  1  0  0  0
 41110  1  0  0  0
 41 48  1  0  0  0
 42 43  1  0  0  0
 42 66  1  0  0  0
 42111  1  0  0  0
 42112  1  0  0  0
 43 44  1  0  0  0
 44113  1  0  0  0
 45 46  2  0  0  0
 45114  1  0  0  0
 46115  1  0  0  0
 47116  1  0  0  0
 47117  1  0  0  0
 48 56  1  0  0  0
 48 65  1  0  0  0
 48118  1  0  0  0
 49 50  1  0  0  0
 49 53  1  0  0  0
 49 64  1  0  0  0
 49119  1  0  0  0
 50 51  1  0  0  0
 50120  1  0  0  0
 50121  1  0  0  0
 51 52  1  0  0  0
 51122  1  0  0  0
 51123  1  0  0  0
 52124  1  0  0  0
 52125  1  0  0  0
 53 54  1  0  0  0
 54 55  2  0  0  0
 54126  1  0  0  0
 55 57  1  0  0  0
 55127  1  0  0  0
 56 69  2  0  0  0
 57 58  2  0  0  0
 57128  1  0  0  0
 58129  1  0  0  0
 59 60  1  0  0  0
 59 61  1  0  0  0
 59 62  1  0  0  0
 60130  1  0  0  0
 60131  1  0  0  0
 60132  1  0  0  0
 61133  1  0  0  0
 61134  1  0  0  0
 61135  1  0  0  0
 62136  1  0  0  0
 62137  1  0  0  0
 62138  1  0  0  0
 63 65  1  0  0  0
 63139  1  0  0  0
 63140  1  0  0  0
 63141  1  0  0  0
 64142  1  0  0  0
 65143  1  0  0  0
 68 82  1  0  0  0
 71 72  1  0  0  0
 71 73  1  0  0  0
 71144  1  0  0  0
 71145  1  0  0  0
 72 74  1  0  0  0
 72146  1  0  0  0
 72147  1  0  0  0
 73 75  1  0  0  0
 73148  1  0  0  0
 73149  1  0  0  0
 74150  1  0  0  0
 74151  1  0  0  0
 74 76  1  0  0  0
 75 76  1  0  0  0
 75152  1  0  0  0
 75153  1  0  0  0
 76 84  1  0  0  0
 76154  1  0  0  0
 77 79  1  0  0  0
 77 80  1  0  0  0
 77155  1  0  0  0
 77156  1  0  0  0
 78 81  1  0  0  0
 78 82  1  0  0  0
 78157  1  0  0  0
 78158  1  0  0  0
 79 83  1  0  0  0
 79159  1  0  0  0
 79160  1  0  0  0
 80161  1  0  0  0
 80162  1  0  0  0
 80 84  1  0  0  0
 81 84  1  0  0  0
 81163  1  0  0  0
 81164  1  0  0  0
 82165  1  0  0  0
 82166  1  0  0  0
 83167  1  0  0  0
 84168  1  0  0  0
M  CHG  1  84   1
M  ISO  4   1 100  68 101  82 101  83 100
M  END
> <chiral flag>
0

> <version>
0

> <s_m_source_file>
/data/baiqing/PycharmProjects/Reinvent-master-3.2/result/LINK_invent/BTK/process_docking_weight1_custom_sum_contain_oxygen_bond_distance_aromatic_linkinvent_7_9_3/rearranged_h_0115.sdf

> <i_m_source_file_index>
21

> <r_mmod_Potential_Energy-OPLS-2005>
52.4209289550781

> <r_mmod_Stretch_Energy-OPLS-2005>
104.48664855957

> <r_mmod_Bend_Energy-OPLS-2005>
172.036102294922

> <r_mmod_Torsional_Energy-OPLS-2005>
241.432830810547

> <r_mmod_Improper_Torsional_Energy-OPLS-2005>
6.28822612762451

> <r_mmod_Van_der_Waal_Energy-OPLS-2005>
122.491439819336

> <r_mmod_Electrostatic_Energy-OPLS-2005>
-202.52653503418

> <r_mmod_Solvation_Energy-OPLS-2005>
-449.357543945312

> <b_mmod_Minimization_Converged-OPLS-2005>
0

> <r_mmod_RMS_Derivative-OPLS-2005>
3.67309379577637

$$$$
21
                    3D
 Structure written by MMmdl.
165172  0  0  1  0            999 V2000
  -30.7403  -14.4135   20.7957 C   0  0  0  0  0  0
  -30.4335  -12.3704   19.4144 C   0  0  0  0  0  0
  -29.4924  -12.5624   18.2073 C   0  0  0  0  0  0
  -28.0189  -12.3829   18.6159 C   0  0  0  0  0  0
  -27.6595  -13.2066   19.8791 C   0  0  2  0  0  0
  -28.6868  -12.9558   21.0020 C   0  0  0  0  0  0
  -25.2550  -13.8150   20.5643 C   0  0  0  0  0  0
  -24.1787  -13.0402   20.9161 C   0  0  0  0  0  0
  -24.6357  -11.6897   20.8719 C   0  0  0  0  0  0
  -23.9018  -10.4285   21.0391 C   0  0  0  0  0  0
  -24.3596   -9.4222   21.9168 C   0  0  0  0  0  0
  -23.6287   -8.2249   22.0739 C   0  0  0  0  0  0
  -22.4263   -8.0282   21.3542 C   0  0  0  0  0  0
  -21.9893   -9.0238   20.4641 C   0  0  0  0  0  0
  -22.7205  -10.2119   20.3041 C   0  0  0  0  0  0
  -21.6842   -6.0725   22.5281 C   0  0  0  0  0  0
  -21.4025   -6.5638   23.8206 C   0  0  0  0  0  0
  -21.3665   -5.6794   24.9176 C   0  0  0  0  0  0
  -21.6025   -4.3050   24.7228 C   0  0  0  0  0  0
  -21.8831   -3.8141   23.4348 C   0  0  0  0  0  0
  -21.9196   -4.6955   22.3406 C   0  0  0  0  0  0
  -22.7829  -13.5239   21.1854 C   0  0  0  0  0  0
  -22.1662   -4.2139   21.0979 F   0  0  0  0  0  0
  -21.5626   -3.4540   25.7738 F   0  0  0  0  0  0
  -30.0280  -13.2923   20.4904 N   0  0  0  0  0  0
  -26.2984  -12.9318   20.3338 N   0  0  0  0  0  0
  -25.9281  -11.6478   20.5723 N   0  0  0  0  0  0
  -22.0483  -12.8195   22.0427 N   0  0  0  0  0  0
  -25.4266  -15.1852   20.4033 N   0  0  0  0  0  0
  -31.7632  -14.7410   20.1832 O   0  0  0  0  0  0
  -21.6640   -6.8865   21.4236 O   0  0  0  0  0  0
  -22.3513  -14.5556   20.6728 O   0  0  0  0  0  0
  -24.6163  -31.8681   23.2021 C   0  0  0  0  0  0
  -25.9051  -32.4818   23.8362 C   0  0  1  0  0  0
  -27.2688  -27.4376   20.1345 C   0  0  0  0  0  0
  -25.5887  -33.8609   24.2289 N   0  0  0  0  0  0
  -23.4114  -30.4932   21.5305 C   0  0  2  0  0  0
  -24.8708  -28.9488   20.1163 C   0  0  0  0  0  0
  -22.7456  -29.4723   22.4841 C   0  0  0  0  0  0
  -18.0315  -28.1372   22.8468 C   0  0  0  0  0  0
  -24.1518  -36.7335   23.2653 C   0  0  0  0  0  0
  -25.9376  -30.8457   21.3489 C   0  0  0  0  0  0
  -26.0255  -29.4723   20.7097 C   0  0  0  0  0  0
  -27.2282  -28.7266   20.7096 C   0  0  0  0  0  0
  -26.0961  -26.9200   19.5429 C   0  0  0  0  0  0
  -24.9017  -27.6724   19.5215 C   0  0  0  0  0  0
  -23.6337  -29.8205   20.1495 C   0  0  0  0  0  0
  -25.4119  -36.3087   24.0347 C   0  0  1  0  0  0
  -20.5935  -28.3683   23.1248 C   0  0  2  0  0  0
  -20.6839  -26.9394   22.5381 C   0  0  0  0  0  0
  -19.5783  -26.6369   21.5198 C   0  0  0  0  0  0
  -18.1948  -26.7920   22.1597 C   0  0  0  0  0  0
  -19.1577  -28.8829   23.2871 C   0  0  0  0  0  0
  -18.9501  -30.1453   23.8872 C   0  0  0  0  0  0
  -17.6483  -30.6548   24.0562 C   0  0  0  0  0  0
  -25.9016  -34.9466   23.5092 C   0  0  0  0  0  0
  -16.5375  -29.9030   23.6342 C   0  0  0  0  0  0
  -16.7315  -28.6484   23.0312 C   0  0  0  0  0  0
  -26.4460  -31.6645   25.0711 C   0  0  0  0  0  0
  -25.3704  -31.3798   26.1445 C   0  0  0  0  0  0
  -27.0307  -30.3124   24.6032 C   0  0  0  0  0  0
  -27.6010  -32.4386   25.7465 C   0  0  0  0  0  0
  -27.5569  -37.1817   24.8455 C   0  0  0  0  0  0
  -21.4172  -29.3084   22.3627 N   0  0  0  0  0  0
  -26.4285  -37.3781   23.9391 N   0  0  0  0  0  0
  -24.6726  -31.0855   22.0870 N   0  0  0  0  0  0
  -23.4191  -28.8276   23.2917 O   0  0  0  0  0  0
  -28.4380  -26.7062   20.1087 O   0  0  0  0  0  0
  -26.5588  -34.8924   22.4659 O   0  0  0  0  0  0
  -23.5336  -32.1378   23.7404 O   0  0  0  0  0  0
  -29.2041  -21.2009   22.4712 C   0  0  0  0  0  0
  -29.2173  -20.5491   24.9591 C   0  0  0  0  0  0
  -29.3263  -26.0162   22.2258 C   0  0  0  0  0  0
  -29.1840  -24.3666   20.2848 C   0  0  0  0  0  0
  -28.7670  -22.9329   20.7313 C   0  0  0  0  0  0
  -30.9763  -16.1488   22.6469 C   0  0  0  0  0  0
  -30.0215  -17.2389   23.2131 C   0  0  0  0  0  0
  -31.0148  -19.5743   23.3222 C   0  0  0  0  0  0
  -30.0619  -20.7647   23.6814 C   0  0  1  0  0  0
  -28.5084  -25.5744   21.0010 C   0  0  2  0  0  0
  -29.3211  -22.4672   22.0169 N   0  0  0  0  0  0
  -30.2885  -15.0944   21.8755 N   0  0  0  0  0  0
  -30.7246  -18.2841   24.0073 N   0  3  0  0  0  0
  -28.4700  -20.3743   21.9284 O   0  0  0  0  0  0
  -31.4675  -12.5292   19.1033 H   0  0  0  0  0  0
  -30.3903  -11.3432   19.7791 H   0  0  0  0  0  0
  -29.7520  -11.8626   17.4128 H   0  0  0  0  0  0
  -29.6312  -13.5625   17.7939 H   0  0  0  0  0  0
  -27.8438  -11.3225   18.7997 H   0  0  0  0  0  0
  -27.3629  -12.6622   17.7904 H   0  0  0  0  0  0
  -27.7123  -14.2610   19.6074 H   0  0  0  0  0  0
  -28.6715  -11.9052   21.2990 H   0  0  0  0  0  0
  -28.4019  -13.5086   21.8968 H   0  0  0  0  0  0
  -25.2738   -9.5696   22.4748 H   0  0  0  0  0  0
  -24.0002   -7.4626   22.7457 H   0  0  0  0  0  0
  -21.0827   -8.8744   19.8939 H   0  0  0  0  0  0
  -22.3661  -10.9653   19.6155 H   0  0  0  0  0  0
  -21.2020   -7.6145   23.9712 H   0  0  0  0  0  0
  -21.1475   -6.0521   25.9073 H   0  0  0  0  0  0
  -22.0599   -2.7604   23.2852 H   0  0  0  0  0  0
  -22.4110  -11.9851   22.4787 H   0  0  0  0  0  0
  -21.1101  -13.1217   22.2655 H   0  0  0  0  0  0
  -24.6583  -15.8440   20.4983 H   0  0  0  0  0  0
  -26.2816  -15.6199   20.0748 H   0  0  0  0  0  0
  -26.7173  -32.5582   23.1180 H   0  0  0  0  0  0
  -25.0098  -33.9776   25.0474 H   0  0  0  0  0  0
  -22.7006  -31.3087   21.3771 H   0  0  0  0  0  0
  -23.3719  -35.9719   23.3295 H   0  0  0  0  0  0
  -24.3611  -36.8951   22.2067 H   0  0  0  0  0  0
  -23.7344  -37.6566   23.6679 H   0  0  0  0  0  0
  -26.0413  -31.6026   20.5684 H   0  0  0  0  0  0
  -26.8310  -30.9178   21.9594 H   0  0  0  0  0  0
  -28.1261  -29.1337   21.1522 H   0  0  0  0  0  0
  -26.1200  -25.9384   19.0930 H   0  0  0  0  0  0
  -24.0211  -27.2584   19.0500 H   0  0  0  0  0  0
  -23.7630  -30.5900   19.3885 H   0  0  0  0  0  0
  -22.7620  -29.2484   19.8387 H   0  0  0  0  0  0
  -25.1321  -36.1900   25.0842 H   0  0  0  0  0  0
  -21.0108  -28.3289   24.1336 H   0  0  0  0  0  0
  -20.5780  -26.2296   23.3591 H   0  0  0  0  0  0
  -21.6702  -26.7473   22.1130 H   0  0  0  0  0  0
  -19.6953  -25.6272   21.1228 H   0  0  0  0  0  0
  -19.6721  -27.3202   20.6721 H   0  0  0  0  0  0
  -17.4269  -26.6733   21.3939 H   0  0  0  0  0  0
  -18.0277  -26.0059   22.8979 H   0  0  0  0  0  0
  -19.7967  -30.7288   24.2207 H   0  0  0  0  0  0
  -17.5020  -31.6220   24.5156 H   0  0  0  0  0  0
  -15.5351  -30.2877   23.7700 H   0  0  0  0  0  0
  -15.8739  -28.0787   22.6957 H   0  0  0  0  0  0
  -24.5796  -30.7233   25.7779 H   0  0  0  0  0  0
  -24.8966  -32.2999   26.4901 H   0  0  0  0  0  0
  -25.7998  -30.8932   27.0212 H   0  0  0  0  0  0
  -26.2857  -29.6876   24.1067 H   0  0  0  0  0  0
  -27.4155  -29.7354   25.4449 H   0  0  0  0  0  0
  -27.8644  -30.4524   23.9135 H   0  0  0  0  0  0
  -27.2635  -33.3710   26.1988 H   0  0  0  0  0  0
  -28.3823  -32.6900   25.0297 H   0  0  0  0  0  0
  -28.0642  -31.8538   26.5404 H   0  0  0  0  0  0
  -28.2590  -38.0119   24.7466 H   0  0  0  0  0  0
  -28.1073  -36.2635   24.6308 H   0  0  0  0  0  0
  -27.2288  -37.1498   25.8867 H   0  0  0  0  0  0
  -20.9263  -29.8801   21.6875 H   0  0  0  0  0  0
  -26.0148  -38.2847   24.1336 H   0  0  0  0  0  0
  -28.6241  -21.4349   25.1879 H   0  0  0  0  0  0
  -29.8550  -20.3721   25.8275 H   0  0  0  0  0  0
  -28.5189  -19.7140   24.8696 H   0  0  0  0  0  0
  -28.9543  -26.9496   22.6446 H   0  0  0  0  0  0
  -29.2970  -25.2663   23.0135 H   0  0  0  0  0  0
  -30.3747  -26.1793   21.9721 H   0  0  0  0  0  0
  -30.2734  -24.4566   20.3070 H   0  0  0  0  0  0
  -28.9338  -24.4370   19.2243 H   0  0  0  0  0  0
  -29.1310  -22.2424   19.9657 H   0  0  0  0  0  0
  -27.6798  -22.8400   20.7212 H   0  0  0  0  0  0
  -31.4678  -15.6564   23.4890 H   0  0  0  0  0  0
  -31.7717  -16.6053   22.0569 H   0  0  0  0  0  0
  -29.3039  -16.7646   23.8826 H   0  0  0  0  0  0
  -29.4285  -17.7031   22.4252 H   0  0  0  0  0  0
  -32.0266  -19.8633   23.6123 H   0  0  0  0  0  0
  -31.0781  -19.4207   22.2428 H   0  0  0  0  0  0
  -30.7088  -21.6141   23.9059 H   0  0  0  0  0  0
  -27.5087  -25.2876   21.3335 H   0  0  0  0  0  0
  -29.9112  -23.1104   22.5307 H   0  0  0  0  0  0
  -29.4256  -14.7439   22.2670 H   0  0  0  0  0  0
  -31.5975  -17.9020   24.3356 H   0  0  0  0  0  0
  -30.1822  -18.4991   24.8286 H   0  0  0  0  0  0
  1 25  1  0  0  0
  1 30  2  0  0  0
  1 82  1  0  0  0
  2  3  1  0  0  0
  2 25  1  0  0  0
  2 85  1  0  0  0
  2 86  1  0  0  0
  3  4  1  0  0  0
  3 87  1  0  0  0
  3 88  1  0  0  0
  4  5  1  0  0  0
  4 89  1  0  0  0
  4 90  1  0  0  0
  5  6  1  0  0  0
  5 26  1  0  0  0
  5 91  1  0  0  0
  6 25  1  0  0  0
  6 92  1  0  0  0
  6 93  1  0  0  0
  7  8  2  0  0  0
  7 26  1  0  0  0
  7 29  1  0  0  0
  8  9  1  0  0  0
  8 22  1  0  0  0
  9 10  1  0  0  0
  9 27  2  0  0  0
 10 11  2  0  0  0
 10 15  1  0  0  0
 11 12  1  0  0  0
 11 94  1  0  0  0
 12 13  2  0  0  0
 12 95  1  0  0  0
 13 14  1  0  0  0
 13 31  1  0  0  0
 14 15  2  0  0  0
 14 96  1  0  0  0
 15 97  1  0  0  0
 16 17  2  0  0  0
 16 21  1  0  0  0
 16 31  1  0  0  0
 17 18  1  0  0  0
 17 98  1  0  0  0
 18 19  2  0  0  0
 18 99  1  0  0  0
 19 20  1  0  0  0
 19 24  1  0  0  0
 20 21  2  0  0  0
 20100  1  0  0  0
 21 23  1  0  0  0
 22 28  1  0  0  0
 22 32  2  0  0  0
 26 27  1  0  0  0
 28101  1  0  0  0
 28102  1  0  0  0
 29103  1  0  0  0
 29104  1  0  0  0
 33 34  1  0  0  0
 33 66  1  0  0  0
 33 70  2  0  0  0
 34 36  1  0  0  0
 34 59  1  0  0  0
 34105  1  0  0  0
 35 44  2  0  0  0
 35 45  1  0  0  0
 35 68  1  0  0  0
 36 56  1  0  0  0
 36106  1  0  0  0
 37 39  1  0  0  0
 37 47  1  0  0  0
 37 66  1  0  0  0
 37107  1  0  0  0
 38 43  2  0  0  0
 38 46  1  0  0  0
 38 47  1  0  0  0
 39 64  1  0  0  0
 39 67  2  0  0  0
 40 52  1  0  0  0
 40 53  2  0  0  0
 40 58  1  0  0  0
 41108  1  0  0  0
 41109  1  0  0  0
 41110  1  0  0  0
 41 48  1  0  0  0
 42 43  1  0  0  0
 42 66  1  0  0  0
 42111  1  0  0  0
 42112  1  0  0  0
 43 44  1  0  0  0
 44113  1  0  0  0
 45 46  2  0  0  0
 45114  1  0  0  0
 46115  1  0  0  0
 47116  1  0  0  0
 47117  1  0  0  0
 48 56  1  0  0  0
 48 65  1  0  0  0
 48118  1  0  0  0
 49 50  1  0  0  0
 49 53  1  0  0  0
 49 64  1  0  0  0
 49119  1  0  0  0
 50 51  1  0  0  0
 50120  1  0  0  0
 50121  1  0  0  0
 51 52  1  0  0  0
 51122  1  0  0  0
 51123  1  0  0  0
 52124  1  0  0  0
 52125  1  0  0  0
 53 54  1  0  0  0
 54 55  2  0  0  0
 54126  1  0  0  0
 55 57  1  0  0  0
 55127  1  0  0  0
 56 69  2  0  0  0
 57 58  2  0  0  0
 57128  1  0  0  0
 58129  1  0  0  0
 59 60  1  0  0  0
 59 61  1  0  0  0
 59 62  1  0  0  0
 60130  1  0  0  0
 60131  1  0  0  0
 60132  1  0  0  0
 61133  1  0  0  0
 61134  1  0  0  0
 61135  1  0  0  0
 62136  1  0  0  0
 62137  1  0  0  0
 62138  1  0  0  0
 63 65  1  0  0  0
 63139  1  0  0  0
 63140  1  0  0  0
 63141  1  0  0  0
 64142  1  0  0  0
 65143  1  0  0  0
 68 80  1  0  0  0
 71 79  1  0  0  0
 71 81  1  0  0  0
 71 84  2  0  0  0
 72144  1  0  0  0
 72145  1  0  0  0
 72146  1  0  0  0
 72 79  1  0  0  0
 73147  1  0  0  0
 73148  1  0  0  0
 73149  1  0  0  0
 73 80  1  0  0  0
 74 75  1  0  0  0
 74 80  1  0  0  0
 74150  1  0  0  0
 74151  1  0  0  0
 75 81  1  0  0  0
 75152  1  0  0  0
 75153  1  0  0  0
 76 77  1  0  0  0
 76 82  1  0  0  0
 76154  1  0  0  0
 76155  1  0  0  0
 77 83  1  0  0  0
 77156  1  0  0  0
 77157  1  0  0  0
 78 79  1  0  0  0
 78 83  1  0  0  0
 78158  1  0  0  0
 78159  1  0  0  0
 79160  1  0  0  0
 80161  1  0  0  0
 81162  1  0  0  0
 82163  1  0  0  0
 83164  1  0  0  0
 83165  1  0  0  0
M  CHG  1  83   1
M  ISO  4   1 100  68 101  80 101  82 100
M  END
> <chiral flag>
0

> <version>
0

> <s_m_source_file>
/data/baiqing/PycharmProjects/Reinvent-master-3.2/result/LINK_invent/BTK/process_docking_weight1_custom_sum_contain_oxygen_bond_distance_aromatic_linkinvent_7_9_3/rearranged_h_0115.sdf

> <i_m_source_file_index>
22

> <r_mmod_Potential_Energy-OPLS-2005>
-315.766845703125

> <r_mmod_Stretch_Energy-OPLS-2005>
41.9009437561035

> <r_mmod_Bend_Energy-OPLS-2005>
104.283103942871

> <r_mmod_Torsional_Energy-OPLS-2005>
263.553466796875

> <r_mmod_Improper_Torsional_Energy-OPLS-2005>
2.40261840820312

> <r_mmod_Van_der_Waal_Energy-OPLS-2005>
125.820571899414

> <r_mmod_Electrostatic_Energy-OPLS-2005>
-379.290100097656

> <r_mmod_Solvation_Energy-OPLS-2005>
-489.839813232422

> <b_mmod_Minimization_Converged-OPLS-2005>
0

> <r_mmod_RMS_Derivative-OPLS-2005>
6.97570419311523

$$$$
22
                    3D
 Structure written by MMmdl.
172180  0  0  1  0            999 V2000
  -30.5936  -14.6125   20.5649 C   0  0  0  0  0  0
  -30.4548  -12.3959   19.4294 C   0  0  0  0  0  0
  -29.5124  -12.5318   18.2113 C   0  0  0  0  0  0
  -28.0304  -12.3695   18.6193 C   0  0  0  0  0  0
  -27.6616  -13.2079   19.8712 C   0  0  2  0  0  0
  -28.7063  -12.9814   20.9829 C   0  0  0  0  0  0
  -25.2588  -13.8121   20.5614 C   0  0  0  0  0  0
  -24.1844  -13.0422   20.9174 C   0  0  0  0  0  0
  -24.6407  -11.6895   20.8741 C   0  0  0  0  0  0
  -23.9068  -10.4287   21.0415 C   0  0  0  0  0  0
  -24.3617   -9.4200   21.9192 C   0  0  0  0  0  0
  -23.6305   -8.2229   22.0756 C   0  0  0  0  0  0
  -22.4282   -8.0276   21.3544 C   0  0  0  0  0  0
  -21.9912   -9.0253   20.4653 C   0  0  0  0  0  0
  -22.7239  -10.2132   20.3068 C   0  0  0  0  0  0
  -21.6850   -6.0740   22.5282 C   0  0  0  0  0  0
  -21.4007   -6.5636   23.8214 C   0  0  0  0  0  0
  -21.3658   -5.6787   24.9174 C   0  0  0  0  0  0
  -21.6043   -4.3048   24.7218 C   0  0  0  0  0  0
  -21.8815   -3.8149   23.4332 C   0  0  0  0  0  0
  -21.9187   -4.6972   22.3399 C   0  0  0  0  0  0
  -22.7868  -13.5231   21.1846 C   0  0  0  0  0  0
  -22.1662   -4.2164   21.0978 F   0  0  0  0  0  0
  -21.5631   -3.4529   25.7728 F   0  0  0  0  0  0
  -30.0205  -13.3727   20.4486 N   0  0  0  0  0  0
  -26.3036  -12.9307   20.3332 N   0  0  0  0  0  0
  -25.9333  -11.6470   20.5743 N   0  0  0  0  0  0
  -22.0495  -12.8250   22.0412 N   0  0  0  0  0  0
  -25.4245  -15.1809   20.3851 N   0  0  0  0  0  0
  -31.7248  -14.8401   20.1204 O   0  0  0  0  0  0
  -21.6635   -6.8881   21.4246 O   0  0  0  0  0  0
  -22.3558  -14.5547   20.6705 O   0  0  0  0  0  0
  -24.6238  -31.8623   23.2054 C   0  0  0  0  0  0
  -25.9101  -32.4782   23.8370 C   0  0  1  0  0  0
  -27.2281  -27.3374   20.0980 C   0  0  0  0  0  0
  -25.5918  -33.8585   24.2281 N   0  0  0  0  0  0
  -23.4147  -30.4882   21.5476 C   0  0  2  0  0  0
  -24.8610  -28.9470   20.1123 C   0  0  0  0  0  0
  -22.7453  -29.4640   22.4940 C   0  0  0  0  0  0
  -18.0276  -28.1384   22.8472 C   0  0  0  0  0  0
  -24.1489  -36.7294   23.2641 C   0  0  0  0  0  0
  -25.9569  -30.7966   21.3750 C   0  0  0  0  0  0
  -26.0314  -29.4283   20.7102 C   0  0  0  0  0  0
  -27.2177  -28.6366   20.6907 C   0  0  0  0  0  0
  -26.0231  -26.8971   19.4997 C   0  0  0  0  0  0
  -24.8580  -27.6855   19.5010 C   0  0  0  0  0  0
  -23.6287  -29.8266   20.1617 C   0  0  0  0  0  0
  -25.4113  -36.3079   24.0326 C   0  0  1  0  0  0
  -20.5878  -28.3688   23.1287 C   0  0  2  0  0  0
  -20.6771  -26.9411   22.5416 C   0  0  0  0  0  0
  -19.5752  -26.6383   21.5208 C   0  0  0  0  0  0
  -18.1926  -26.7919   22.1614 C   0  0  0  0  0  0
  -19.1533  -28.8844   23.2875 C   0  0  0  0  0  0
  -18.9455  -30.1445   23.8895 C   0  0  0  0  0  0
  -17.6461  -30.6587   24.0555 C   0  0  0  0  0  0
  -25.9052  -34.9451   23.5101 C   0  0  0  0  0  0
  -16.5348  -29.9095   23.6324 C   0  0  0  0  0  0
  -16.7266  -28.6513   23.0340 C   0  0  0  0  0  0
  -26.4498  -31.6591   25.0730 C   0  0  0  0  0  0
  -25.3751  -31.3727   26.1471 C   0  0  0  0  0  0
  -27.0325  -30.3006   24.6185 C   0  0  0  0  0  0
  -27.6058  -32.4334   25.7490 C   0  0  0  0  0  0
  -27.5575  -37.1801   24.8461 C   0  0  0  0  0  0
  -21.4168  -29.3045   22.3683 N   0  0  0  0  0  0
  -26.4287  -37.3780   23.9407 N   0  0  0  0  0  0
  -24.6831  -31.0656   22.0989 N   0  0  0  0  0  0
  -23.4189  -28.8176   23.3005 O   0  0  0  0  0  0
  -28.3771  -26.5280   20.1306 O   0  0  0  0  0  0
  -26.5630  -34.8925   22.4671 O   0  0  0  0  0  0
  -23.5412  -32.1410   23.7408 O   0  0  0  0  0  0
  -30.3962  -17.8541   20.3026 C   0  0  0  0  0  0
  -30.0986  -19.2122   20.7196 C   0  0  0  0  0  0
  -29.3707  -19.0738   21.8781 C   0  0  0  0  0  0
  -29.8197  -16.9615   21.1819 C   0  0  0  0  0  0
  -28.8639  -20.1762   22.7663 C   0  0  0  0  0  0
  -31.4487  -20.2599   18.8488 C   0  0  0  0  0  0
  -28.5201  -15.8216   23.7735 C   0  0  0  0  0  0
  -26.8190  -17.5172   23.0067 C   0  0  0  0  0  0
  -28.3989  -24.9285   18.2748 C   0  0  0  0  0  0
  -29.4842  -21.6774   19.6856 C   0  0  0  0  0  0
  -29.4164  -24.1903   20.4861 C   0  0  0  0  0  0
  -30.5638  -20.5616   20.0725 C   0  0  1  0  0  0
  -28.3071  -17.2596   23.2901 C   0  0  0  0  0  0
  -28.3015  -25.0866   19.8034 C   0  0  1  0  0  0
  -29.1455  -17.7126   22.1566 N   0  0  0  0  0  0
  -29.7822  -15.5756   21.1105 N   0  0  0  0  0  0
  -29.1170  -22.7160   20.7178 N   0  3  0  0  0  0
  -31.4913  -12.5562   19.1257 H   0  0  0  0  0  0
  -30.4194  -11.3848   19.8355 H   0  0  0  0  0  0
  -29.7716  -11.7940   17.4498 H   0  0  0  0  0  0
  -29.6577  -13.5088   17.7462 H   0  0  0  0  0  0
  -27.8525  -11.3125   18.8181 H   0  0  0  0  0  0
  -27.3801  -12.6298   17.7835 H   0  0  0  0  0  0
  -27.7020  -14.2558   19.5754 H   0  0  0  0  0  0
  -28.7216  -11.9317   21.2816 H   0  0  0  0  0  0
  -28.4503  -13.5170   21.8884 H   0  0  0  0  0  0
  -25.2761   -9.5670   22.4761 H   0  0  0  0  0  0
  -24.0007   -7.4611   22.7460 H   0  0  0  0  0  0
  -21.0840   -8.8779   19.8964 H   0  0  0  0  0  0
  -22.3709  -10.9669   19.6172 H   0  0  0  0  0  0
  -21.2002   -7.6140   23.9728 H   0  0  0  0  0  0
  -21.1490   -6.0510   25.9080 H   0  0  0  0  0  0
  -22.0600   -2.7610   23.2825 H   0  0  0  0  0  0
  -22.4094  -11.9915   22.4830 H   0  0  0  0  0  0
  -21.1117  -13.1298   22.2608 H   0  0  0  0  0  0
  -24.6470  -15.8262   20.4672 H   0  0  0  0  0  0
  -26.2639  -15.6129   20.0204 H   0  0  0  0  0  0
  -26.7153  -32.5454   23.1111 H   0  0  0  0  0  0
  -25.0020  -33.9733   25.0392 H   0  0  0  0  0  0
  -22.7070  -31.3079   21.4082 H   0  0  0  0  0  0
  -23.3752  -35.9628   23.3305 H   0  0  0  0  0  0
  -24.3570  -36.8917   22.2053 H   0  0  0  0  0  0
  -23.7262  -37.6503   23.6667 H   0  0  0  0  0  0
  -26.0934  -31.5666   20.6146 H   0  0  0  0  0  0
  -26.8353  -30.8376   22.0072 H   0  0  0  0  0  0
  -28.1196  -29.0067   21.1590 H   0  0  0  0  0  0
  -25.9364  -25.9284   19.0329 H   0  0  0  0  0  0
  -23.9572  -27.3047   19.0404 H   0  0  0  0  0  0
  -23.7490  -30.6062   19.4087 H   0  0  0  0  0  0
  -22.7469  -29.2600   19.8563 H   0  0  0  0  0  0
  -25.1302  -36.1920   25.0822 H   0  0  0  0  0  0
  -20.9961  -28.3267   24.1412 H   0  0  0  0  0  0
  -20.5659  -26.2297   23.3616 H   0  0  0  0  0  0
  -21.6645  -26.7439   22.1221 H   0  0  0  0  0  0
  -19.6923  -25.6297   21.1233 H   0  0  0  0  0  0
  -19.6699  -27.3199   20.6741 H   0  0  0  0  0  0
  -17.4201  -26.6647   21.4019 H   0  0  0  0  0  0
  -18.0335  -26.0066   22.9017 H   0  0  0  0  0  0
  -19.7940  -30.7248   24.2273 H   0  0  0  0  0  0
  -17.5030  -31.6263   24.5164 H   0  0  0  0  0  0
  -15.5359  -30.3004   23.7655 H   0  0  0  0  0  0
  -15.8655  -28.0842   22.7059 H   0  0  0  0  0  0
  -24.5901  -30.7103   25.7811 H   0  0  0  0  0  0
  -24.8979  -32.2896   26.4943 H   0  0  0  0  0  0
  -25.8098  -30.8869   27.0216 H   0  0  0  0  0  0
  -26.2885  -29.6764   24.1221 H   0  0  0  0  0  0
  -27.4017  -29.7265   25.4698 H   0  0  0  0  0  0
  -27.8770  -30.4276   23.9404 H   0  0  0  0  0  0
  -27.2654  -33.3625   26.2081 H   0  0  0  0  0  0
  -28.3855  -32.6919   25.0310 H   0  0  0  0  0  0
  -28.0740  -31.8453   26.5396 H   0  0  0  0  0  0
  -28.2602  -38.0090   24.7495 H   0  0  0  0  0  0
  -28.1054  -36.2620   24.6293 H   0  0  0  0  0  0
  -27.2276  -37.1462   25.8860 H   0  0  0  0  0  0
  -20.9339  -29.8767   21.6898 H   0  0  0  0  0  0
  -26.0155  -38.2849   24.1426 H   0  0  0  0  0  0
  -30.9674  -17.5623   19.4325 H   0  0  0  0  0  0
  -29.5548  -21.0170   22.7609 H   0  0  0  0  0  0
  -28.7764  -19.8941   23.8121 H   0  0  0  0  0  0
  -27.8885  -20.5336   22.4353 H   0  0  0  0  0  0
  -32.2976  -19.6274   19.1138 H   0  0  0  0  0  0
  -31.8603  -21.1729   18.4159 H   0  0  0  0  0  0
  -30.8864  -19.7473   18.0686 H   0  0  0  0  0  0
  -27.9926  -15.1210   23.1351 H   0  0  0  0  0  0
  -29.5765  -15.5588   23.8380 H   0  0  0  0  0  0
  -28.0966  -15.6956   24.7713 H   0  0  0  0  0  0
  -26.2042  -17.2736   23.8734 H   0  0  0  0  0  0
  -26.4744  -16.9188   22.1680 H   0  0  0  0  0  0
  -26.6247  -18.5581   22.7566 H   0  0  0  0  0  0
  -28.3117  -23.8831   17.9808 H   0  0  0  0  0  0
  -29.3575  -25.2992   17.9142 H   0  0  0  0  0  0
  -27.6271  -25.4753   17.7386 H   0  0  0  0  0  0
  -28.5720  -21.1860   19.3439 H   0  0  0  0  0  0
  -29.8458  -22.2283   18.8177 H   0  0  0  0  0  0
  -29.5633  -24.6023   21.4845 H   0  0  0  0  0  0
  -30.3791  -24.3071   19.9867 H   0  0  0  0  0  0
  -31.2333  -21.0199   20.8020 H   0  0  0  0  0  0
  -28.5950  -17.8558   24.1534 H   0  0  0  0  0  0
  -27.3462  -24.7022   20.1599 H   0  0  0  0  0  0
  -28.9589  -15.1766   21.5312 H   0  0  0  0  0  0
  -29.6158  -22.4566   21.5525 H   0  0  0  0  0  0
  -28.1383  -22.6112   20.9344 H   0  0  0  0  0  0
  1 25  1  0  0  0
  1 30  2  0  0  0
  1 86  1  0  0  0
  2  3  1  0  0  0
  2 25  1  0  0  0
  2 88  1  0  0  0
  2 89  1  0  0  0
  3  4  1  0  0  0
  3 90  1  0  0  0
  3 91  1  0  0  0
  4  5  1  0  0  0
  4 92  1  0  0  0
  4 93  1  0  0  0
  5  6  1  0  0  0
  5 26  1  0  0  0
  5 94  1  0  0  0
  6 25  1  0  0  0
  6 95  1  0  0  0
  6 96  1  0  0  0
  7  8  2  0  0  0
  7 26  1  0  0  0
  7 29  1  0  0  0
  8  9  1  0  0  0
  8 22  1  0  0  0
  9 10  1  0  0  0
  9 27  2  0  0  0
 10 11  2  0  0  0
 10 15  1  0  0  0
 11 12  1  0  0  0
 11 97  1  0  0  0
 12 13  2  0  0  0
 12 98  1  0  0  0
 13 14  1  0  0  0
 13 31  1  0  0  0
 14 15  2  0  0  0
 14 99  1  0  0  0
 15100  1  0  0  0
 16 17  2  0  0  0
 16 21  1  0  0  0
 16 31  1  0  0  0
 17 18  1  0  0  0
 17101  1  0  0  0
 18 19  2  0  0  0
 18102  1  0  0  0
 19 20  1  0  0  0
 19 24  1  0  0  0
 20 21  2  0  0  0
 20103  1  0  0  0
 21 23  1  0  0  0
 22 28  1  0  0  0
 22 32  2  0  0  0
 26 27  1  0  0  0
 28104  1  0  0  0
 28105  1  0  0  0
 29106  1  0  0  0
 29107  1  0  0  0
 33 34  1  0  0  0
 33 66  1  0  0  0
 33 70  2  0  0  0
 34 36  1  0  0  0
 34 59  1  0  0  0
 34108  1  0  0  0
 35 44  2  0  0  0
 35 45  1  0  0  0
 35 68  1  0  0  0
 36 56  1  0  0  0
 36109  1  0  0  0
 37 39  1  0  0  0
 37 47  1  0  0  0
 37 66  1  0  0  0
 37110  1  0  0  0
 38 43  2  0  0  0
 38 46  1  0  0  0
 38 47  1  0  0  0
 39 64  1  0  0  0
 39 67  2  0  0  0
 40 52  1  0  0  0
 40 53  2  0  0  0
 40 58  1  0  0  0
 41111  1  0  0  0
 41112  1  0  0  0
 41113  1  0  0  0
 41 48  1  0  0  0
 42 43  1  0  0  0
 42 66  1  0  0  0
 42114  1  0  0  0
 42115  1  0  0  0
 43 44  1  0  0  0
 44116  1  0  0  0
 45 46  2  0  0  0
 45117  1  0  0  0
 46118  1  0  0  0
 47119  1  0  0  0
 47120  1  0  0  0
 48 56  1  0  0  0
 48 65  1  0  0  0
 48121  1  0  0  0
 49 50  1  0  0  0
 49 53  1  0  0  0
 49 64  1  0  0  0
 49122  1  0  0  0
 50 51  1  0  0  0
 50123  1  0  0  0
 50124  1  0  0  0
 51 52  1  0  0  0
 51125  1  0  0  0
 51126  1  0  0  0
 52127  1  0  0  0
 52128  1  0  0  0
 53 54  1  0  0  0
 54 55  2  0  0  0
 54129  1  0  0  0
 55 57  1  0  0  0
 55130  1  0  0  0
 56 69  2  0  0  0
 57 58  2  0  0  0
 57131  1  0  0  0
 58132  1  0  0  0
 59 60  1  0  0  0
 59 61  1  0  0  0
 59 62  1  0  0  0
 60133  1  0  0  0
 60134  1  0  0  0
 60135  1  0  0  0
 61136  1  0  0  0
 61137  1  0  0  0
 61138  1  0  0  0
 62139  1  0  0  0
 62140  1  0  0  0
 62141  1  0  0  0
 63 65  1  0  0  0
 63142  1  0  0  0
 63143  1  0  0  0
 63144  1  0  0  0
 64145  1  0  0  0
 65146  1  0  0  0
 68 84  1  0  0  0
 71 72  1  0  0  0
 71 74  2  0  0  0
 71147  1  0  0  0
 72 73  2  0  0  0
 72 82  1  0  0  0
 73 75  1  0  0  0
 73 85  1  0  0  0
 74 85  1  0  0  0
 74 86  1  0  0  0
 75148  1  0  0  0
 75149  1  0  0  0
 75150  1  0  0  0
 76151  1  0  0  0
 76152  1  0  0  0
 76153  1  0  0  0
 76 82  1  0  0  0
 77154  1  0  0  0
 77155  1  0  0  0
 77156  1  0  0  0
 77 83  1  0  0  0
 78 83  1  0  0  0
 78157  1  0  0  0
 78158  1  0  0  0
 78159  1  0  0  0
 79160  1  0  0  0
 79161  1  0  0  0
 79162  1  0  0  0
 79 84  1  0  0  0
 80 82  1  0  0  0
 80 87  1  0  0  0
 80163  1  0  0  0
 80164  1  0  0  0
 81 84  1  0  0  0
 81 87  1  0  0  0
 81165  1  0  0  0
 81166  1  0  0  0
 82167  1  0  0  0
 83 85  1  0  0  0
 83168  1  0  0  0
 84169  1  0  0  0
 86170  1  0  0  0
 87171  1  0  0  0
 87172  1  0  0  0
M  CHG  1  87   1
M  ISO  4   1 100  68 101  84 101  86 100
M  END
> <chiral flag>
0

> <version>
0

> <s_m_source_file>
/data/baiqing/PycharmProjects/Reinvent-master-3.2/result/LINK_invent/BTK/process_docking_weight1_custom_sum_contain_oxygen_bond_distance_aromatic_linkinvent_7_9_3/rearranged_h_0115.sdf

> <i_m_source_file_index>
23

> <r_mmod_Potential_Energy-OPLS-2005>
-42.2989044189453

> <r_mmod_Stretch_Energy-OPLS-2005>
77.9834671020508

> <r_mmod_Bend_Energy-OPLS-2005>
172.577194213867

> <r_mmod_Torsional_Energy-OPLS-2005>
278.158264160156

> <r_mmod_Improper_Torsional_Energy-OPLS-2005>
3.51423478126526

> <r_mmod_Van_der_Waal_Energy-OPLS-2005>
128.482162475586

> <r_mmod_Electrostatic_Energy-OPLS-2005>
-301.207122802734

> <r_mmod_Solvation_Energy-OPLS-2005>
-440.977661132812

> <b_mmod_Minimization_Converged-OPLS-2005>
0

> <r_mmod_RMS_Derivative-OPLS-2005>
2.47330212593079

$$$$
23
                    3D
 Structure written by MMmdl.
168176  0  0  1  0            999 V2000
  -30.0452  -16.3491   20.2499 C   0  0  0  0  0  0
  -30.3548  -13.6130   19.5551 C   0  0  0  0  0  0
  -29.5703  -12.8705   18.4057 C   0  0  0  0  0  0
  -28.2140  -12.3508   18.8883 C   0  0  0  0  0  0
  -27.5808  -13.3948   19.8233 C   0  0  2  0  0  0
  -28.5418  -14.0190   20.8916 C   0  0  0  0  0  0
  -25.2225  -13.8423   20.5957 C   0  0  0  0  0  0
  -24.1682  -13.0448   20.9315 C   0  0  0  0  0  0
  -24.6495  -11.6994   20.8741 C   0  0  0  0  0  0
  -23.9217  -10.4295   21.0352 C   0  0  0  0  0  0
  -24.3713   -9.4221   21.9165 C   0  0  0  0  0  0
  -23.6355   -8.2277   22.0762 C   0  0  0  0  0  0
  -22.4336   -8.0308   21.3554 C   0  0  0  0  0  0
  -21.9995   -9.0286   20.4649 C   0  0  0  0  0  0
  -22.7356  -10.2147   20.3041 C   0  0  0  0  0  0
  -21.6872   -6.0758   22.5268 C   0  0  0  0  0  0
  -21.4030   -6.5651   23.8202 C   0  0  0  0  0  0
  -21.3667   -5.6802   24.9165 C   0  0  0  0  0  0
  -21.6044   -4.3061   24.7213 C   0  0  0  0  0  0
  -21.8818   -3.8158   23.4327 C   0  0  0  0  0  0
  -21.9202   -4.6985   22.3387 C   0  0  0  0  0  0
  -22.7662  -13.5112   21.1910 C   0  0  0  0  0  0
  -22.1670   -4.2160   21.0966 F   0  0  0  0  0  0
  -21.5628   -3.4541   25.7723 F   0  0  0  0  0  0
  -29.6030  -14.8535   20.2009 N   0  0  0  0  0  0
  -26.2798  -12.9929   20.3460 N   0  0  0  0  0  0
  -25.9491  -11.6893   20.5723 N   0  0  0  0  0  0
  -22.0360  -12.8070   22.0475 N   0  0  0  0  0  0
  -25.3667  -15.2180   20.4361 N   0  0  0  0  0  0
  -31.2863  -16.1619   20.1073 O   0  0  0  0  0  0
  -21.6674   -6.8912   21.4246 O   0  0  0  0  0  0
  -22.3300  -14.5392   20.6722 O   0  0  0  0  0  0
  -24.7350  -31.7377   23.1107 C   0  0  0  0  0  0
  -25.9676  -32.4124   23.7842 C   0  0  1  0  0  0
  -27.2657  -26.1963   20.2222 C   0  0  0  0  0  0
  -25.6044  -33.7993   24.1667 N   0  0  0  0  0  0
  -23.5869  -30.3167   21.4750 C   0  0  2  0  0  0
  -25.0629  -28.5637   20.1296 C   0  0  0  0  0  0
  -22.7998  -29.3973   22.4545 C   0  0  0  0  0  0
  -18.0376  -28.1418   22.8416 C   0  0  0  0  0  0
  -24.1538  -36.7025   23.2652 C   0  0  0  0  0  0
  -26.1906  -30.2979   21.4620 C   0  0  0  0  0  0
  -26.2601  -28.8069   20.8153 C   0  0  0  0  0  0
  -27.3263  -27.6703   20.8308 C   0  0  0  0  0  0
  -26.0367  -26.3171   19.4757 C   0  0  0  0  0  0
  -25.0216  -27.3476   19.4333 C   0  0  0  0  0  0
  -23.8757  -29.5724   20.1320 C   0  0  0  0  0  0
  -25.4191  -36.2696   24.0239 C   0  0  1  0  0  0
  -20.6035  -28.3832   23.1010 C   0  0  2  0  0  0
  -20.6827  -26.9443   22.5394 C   0  0  0  0  0  0
  -19.5832  -26.6342   21.5184 C   0  0  0  0  0  0
  -18.2003  -26.7938   22.1571 C   0  0  0  0  0  0
  -19.1652  -28.8954   23.2676 C   0  0  0  0  0  0
  -18.9554  -30.1499   23.8776 C   0  0  0  0  0  0
  -17.6546  -30.6595   24.0519 C   0  0  0  0  0  0
  -25.9210  -34.9090   23.4837 C   0  0  0  0  0  0
  -16.5430  -29.9065   23.6342 C   0  0  0  0  0  0
  -16.7348  -28.6469   23.0389 C   0  0  0  0  0  0
  -26.4699  -31.6353   25.0673 C   0  0  0  0  0  0
  -25.3624  -31.3804   26.1175 C   0  0  0  0  0  0
  -27.0714  -30.2614   24.6981 C   0  0  0  0  0  0
  -27.6062  -32.4348   25.7488 C   0  0  0  0  0  0
  -27.5579  -37.1656   24.8457 C   0  0  0  0  0  0
  -21.4597  -29.2965   22.3266 N   0  0  0  0  0  0
  -26.4275  -37.3513   23.9405 N   0  0  0  0  0  0
  -24.8662  -30.8291   22.0680 N   0  0  0  0  0  0
  -23.4186  -28.7651   23.3131 O   0  0  0  0  0  0
  -27.9388  -24.6114   20.1621 O   0  0  0  0  0  0
  -26.5906  -34.8773   22.4502 O   0  0  0  0  0  0
  -23.6259  -32.0694   23.5704 O   0  0  0  0  0  0
  -29.3879  -23.2194   19.2438 C   0  0  0  0  0  0
  -29.3680  -24.6541   21.6446 C   0  0  0  0  0  0
  -29.9959  -24.7630   20.0420 C   0  0  0  0  0  0
  -28.7701  -22.0045   20.1664 C   0  0  0  0  0  0
  -31.1273  -25.5825   19.6828 C   0  0  0  0  0  0
  -27.8922  -23.3410   23.9435 C   0  0  0  0  0  0
  -27.9511  -21.0288   22.9396 C   0  0  0  0  0  0
  -33.9191  -22.2010   19.0936 C   0  0  0  0  0  0
  -29.3306  -19.9138   19.9528 C   0  0  0  0  0  0
  -32.3952  -24.8120   20.0360 C   0  0  0  0  0  0
  -30.6823  -22.9713   21.1171 C   0  0  0  0  0  0
  -27.6763  -22.5150   22.6730 C   0  0  0  0  0  0
  -32.1162  -23.3061   20.4412 C   0  0  1  0  0  0
  -28.4728  -23.0206   21.5634 N   0  0  0  0  0  0
  -29.3202  -17.9164   20.2874 N   0  0  0  0  0  0
  -32.4684  -22.3578   19.3398 N   0  3  0  0  0  0
  -31.0899  -26.7121   19.1908 O   0  0  0  0  0  0
  -31.2869  -13.9607   19.1088 H   0  0  0  0  0  0
  -30.6800  -12.9029   20.3175 H   0  0  0  0  0  0
  -30.1650  -12.0524   17.9956 H   0  0  0  0  0  0
  -29.4057  -13.5726   17.5864 H   0  0  0  0  0  0
  -28.3757  -11.4242   19.4431 H   0  0  0  0  0  0
  -27.5574  -12.1154   18.0485 H   0  0  0  0  0  0
  -27.3569  -14.2167   19.1416 H   0  0  0  0  0  0
  -28.9449  -13.2646   21.5688 H   0  0  0  0  0  0
  -27.9785  -14.6983   21.5307 H   0  0  0  0  0  0
  -25.2855   -9.5679   22.4749 H   0  0  0  0  0  0
  -24.0033   -7.4679   22.7506 H   0  0  0  0  0  0
  -21.0917   -8.8826   19.8959 H   0  0  0  0  0  0
  -22.3817  -10.9689   19.6149 H   0  0  0  0  0  0
  -21.2024   -7.6155   23.9702 H   0  0  0  0  0  0
  -21.1498   -6.0534   25.9066 H   0  0  0  0  0  0
  -22.0587   -2.7617   23.2819 H   0  0  0  0  0  0
  -22.4051  -11.9769   22.4858 H   0  0  0  0  0  0
  -21.0957  -13.1041   22.2689 H   0  0  0  0  0  0
  -24.5896  -15.8608   20.5483 H   0  0  0  0  0  0
  -26.2133  -15.6674   20.1142 H   0  0  0  0  0  0
  -26.7831  -32.4473   23.0606 H   0  0  0  0  0  0
  -25.0029  -33.8950   24.9707 H   0  0  0  0  0  0
  -22.9415  -31.1656   21.2381 H   0  0  0  0  0  0
  -23.3820  -35.9335   23.3184 H   0  0  0  0  0  0
  -24.3620  -36.8857   22.2103 H   0  0  0  0  0  0
  -23.7293  -37.6145   23.6867 H   0  0  0  0  0  0
  -26.4526  -30.9939   20.6630 H   0  0  0  0  0  0
  -27.0201  -30.3771   22.1492 H   0  0  0  0  0  0
  -28.2047  -27.8770   21.4243 H   0  0  0  0  0  0
  -25.7759  -25.4294   18.9177 H   0  0  0  0  0  0
  -24.1390  -27.1378   18.8414 H   0  0  0  0  0  0
  -24.0803  -30.3139   19.3581 H   0  0  0  0  0  0
  -22.9761  -29.0568   19.7968 H   0  0  0  0  0  0
  -25.1429  -36.1388   25.0729 H   0  0  0  0  0  0
  -21.0087  -28.3519   24.1143 H   0  0  0  0  0  0
  -20.5616  -26.2496   23.3705 H   0  0  0  0  0  0
  -21.6702  -26.7292   22.1276 H   0  0  0  0  0  0
  -19.7019  -25.6223   21.1285 H   0  0  0  0  0  0
  -19.6795  -27.3088   20.6666 H   0  0  0  0  0  0
  -17.4283  -26.6642   21.3953 H   0  0  0  0  0  0
  -18.0407  -26.0072   22.8978 H   0  0  0  0  0  0
  -19.8031  -30.7302   24.2146 H   0  0  0  0  0  0
  -17.5103  -31.6271   24.5143 H   0  0  0  0  0  0
  -15.5428  -30.2953   23.7717 H   0  0  0  0  0  0
  -15.8733  -28.0713   22.7253 H   0  0  0  0  0  0
  -24.5928  -30.7033   25.7444 H   0  0  0  0  0  0
  -24.8689  -32.3054   26.4169 H   0  0  0  0  0  0
  -25.7677  -30.9253   27.0219 H   0  0  0  0  0  0
  -26.3564  -29.6060   24.2010 H   0  0  0  0  0  0
  -27.3937  -29.7259   25.5921 H   0  0  0  0  0  0
  -27.9611  -30.3581   24.0757 H   0  0  0  0  0  0
  -27.2570  -33.3828   26.1573 H   0  0  0  0  0  0
  -28.4076  -32.6586   25.0440 H   0  0  0  0  0  0
  -28.0481  -31.8795   26.5764 H   0  0  0  0  0  0
  -28.2472  -38.0058   24.7547 H   0  0  0  0  0  0
  -28.1197  -36.2571   24.6237 H   0  0  0  0  0  0
  -27.2298  -37.1219   25.8853 H   0  0  0  0  0  0
  -21.0056  -29.8538   21.6159 H   0  0  0  0  0  0
  -26.0047  -38.2543   24.1406 H   0  0  0  0  0  0
  -29.7327  -22.9681   18.2516 H   0  0  0  0  0  0
  -29.4396  -25.2790   22.5261 H   0  0  0  0  0  0
  -27.2685  -22.9744   24.7599 H   0  0  0  0  0  0
  -27.6208  -24.3839   23.7813 H   0  0  0  0  0  0
  -28.9328  -23.2939   24.2710 H   0  0  0  0  0  0
  -27.3560  -20.6648   23.7781 H   0  0  0  0  0  0
  -29.0025  -20.8534   23.1731 H   0  0  0  0  0  0
  -27.6801  -20.4138   22.0833 H   0  0  0  0  0  0
  -34.0932  -21.5899   18.2050 H   0  0  0  0  0  0
  -34.4063  -21.7077   19.9334 H   0  0  0  0  0  0
  -34.4112  -23.1589   18.9354 H   0  0  0  0  0  0
  -29.0727  -19.7981   18.8988 H   0  0  0  0  0  0
  -30.4156  -20.0020   19.9270 H   0  0  0  0  0  0
  -32.8770  -25.3304   20.8655 H   0  0  0  0  0  0
  -33.0770  -24.8805   19.1900 H   0  0  0  0  0  0
  -30.7245  -21.8811   21.2379 H   0  0  0  0  0  0
  -30.9363  -23.1178   22.1807 H   0  0  0  0  0  0
  -26.6323  -22.6228   22.3708 H   0  0  0  0  0  0
  -32.8385  -23.0801   21.2273 H   0  0  0  0  0  0
  -28.3525  -17.7026   20.4814 H   0  0  0  0  0  0
  -32.1379  -21.4302   19.5632 H   0  0  0  0  0  0
  -32.0273  -22.6280   18.4758 H   0  0  0  0  0  0
  1 25  1  0  0  0
  1 30  2  0  0  0
  1 85  1  0  0  0
  2  3  1  0  0  0
  2 25  1  0  0  0
  2 88  1  0  0  0
  2 89  1  0  0  0
  3  4  1  0  0  0
  3 90  1  0  0  0
  3 91  1  0  0  0
  4  5  1  0  0  0
  4 92  1  0  0  0
  4 93  1  0  0  0
  5  6  1  0  0  0
  5 26  1  0  0  0
  5 94  1  0  0  0
  6 25  1  0  0  0
  6 95  1  0  0  0
  6 96  1  0  0  0
  7  8  2  0  0  0
  7 26  1  0  0  0
  7 29  1  0  0  0
  8  9  1  0  0  0
  8 22  1  0  0  0
  9 10  1  0  0  0
  9 27  2  0  0  0
 10 11  2  0  0  0
 10 15  1  0  0  0
 11 12  1  0  0  0
 11 97  1  0  0  0
 12 13  2  0  0  0
 12 98  1  0  0  0
 13 14  1  0  0  0
 13 31  1  0  0  0
 14 15  2  0  0  0
 14 99  1  0  0  0
 15100  1  0  0  0
 16 17  2  0  0  0
 16 21  1  0  0  0
 16 31  1  0  0  0
 17 18  1  0  0  0
 17101  1  0  0  0
 18 19  2  0  0  0
 18102  1  0  0  0
 19 20  1  0  0  0
 19 24  1  0  0  0
 20 21  2  0  0  0
 20103  1  0  0  0
 21 23  1  0  0  0
 22 28  1  0  0  0
 22 32  2  0  0  0
 26 27  1  0  0  0
 28104  1  0  0  0
 28105  1  0  0  0
 29106  1  0  0  0
 29107  1  0  0  0
 33 34  1  0  0  0
 33 66  1  0  0  0
 33 70  2  0  0  0
 34 36  1  0  0  0
 34 59  1  0  0  0
 34108  1  0  0  0
 35 44  2  0  0  0
 35 45  1  0  0  0
 35 68  1  0  0  0
 36 56  1  0  0  0
 36109  1  0  0  0
 37 39  1  0  0  0
 37 47  1  0  0  0
 37 66  1  0  0  0
 37110  1  0  0  0
 38 43  2  0  0  0
 38 46  1  0  0  0
 38 47  1  0  0  0
 39 64  1  0  0  0
 39 67  2  0  0  0
 40 52  1  0  0  0
 40 53  2  0  0  0
 40 58  1  0  0  0
 41111  1  0  0  0
 41112  1  0  0  0
 41113  1  0  0  0
 41 48  1  0  0  0
 42 43  1  0  0  0
 42 66  1  0  0  0
 42114  1  0  0  0
 42115  1  0  0  0
 43 44  1  0  0  0
 44116  1  0  0  0
 45 46  2  0  0  0
 45117  1  0  0  0
 46118  1  0  0  0
 47119  1  0  0  0
 47120  1  0  0  0
 48 56  1  0  0  0
 48 65  1  0  0  0
 48121  1  0  0  0
 49 50  1  0  0  0
 49 53  1  0  0  0
 49 64  1  0  0  0
 49122  1  0  0  0
 50 51  1  0  0  0
 50123  1  0  0  0
 50124  1  0  0  0
 51 52  1  0  0  0
 51125  1  0  0  0
 51126  1  0  0  0
 52127  1  0  0  0
 52128  1  0  0  0
 53 54  1  0  0  0
 54 55  2  0  0  0
 54129  1  0  0  0
 55 57  1  0  0  0
 55130  1  0  0  0
 56 69  2  0  0  0
 57 58  2  0  0  0
 57131  1  0  0  0
 58132  1  0  0  0
 59 60  1  0  0  0
 59 61  1  0  0  0
 59 62  1  0  0  0
 60133  1  0  0  0
 60134  1  0  0  0
 60135  1  0  0  0
 61136  1  0  0  0
 61137  1  0  0  0
 61138  1  0  0  0
 62139  1  0  0  0
 62140  1  0  0  0
 62141  1  0  0  0
 63 65  1  0  0  0
 63142  1  0  0  0
 63143  1  0  0  0
 63144  1  0  0  0
 64145  1  0  0  0
 65146  1  0  0  0
 68 81  1  0  0  0
 71 73  1  0  0  0
 71 74  2  0  0  0
 71147  1  0  0  0
 72 73  2  0  0  0
 72 84  1  0  0  0
 72148  1  0  0  0
 73 75  1  0  0  0
 74 79  1  0  0  0
 74 84  1  0  0  0
 75 80  1  0  0  0
 75 87  2  0  0  0
 76149  1  0  0  0
 76150  1  0  0  0
 76151  1  0  0  0
 76 82  1  0  0  0
 77 82  1  0  0  0
 77152  1  0  0  0
 77153  1  0  0  0
 77154  1  0  0  0
 78 86  1  0  0  0
 78155  1  0  0  0
 78156  1  0  0  0
 78157  1  0  0  0
 79 85  1  0  0  0
 79158  1  0  0  0
 79159  1  0  0  0
 80160  1  0  0  0
 80161  1  0  0  0
 80 83  1  0  0  0
 81 83  1  0  0  0
 81162  1  0  0  0
 81163  1  0  0  0
 82 84  1  0  0  0
 82164  1  0  0  0
 83 86  1  0  0  0
 83165  1  0  0  0
 85166  1  0  0  0
 86167  1  0  0  0
 86168  1  0  0  0
M  CHG  1  86   1
M  ISO  4   1 100  68 101  81 101  85 100
M  END
> <chiral flag>
0

> <version>
0

> <s_m_source_file>
/data/baiqing/PycharmProjects/Reinvent-master-3.2/result/LINK_invent/BTK/process_docking_weight1_custom_sum_contain_oxygen_bond_distance_aromatic_linkinvent_7_9_3/rearranged_h_0115.sdf

> <i_m_source_file_index>
24

> <r_mmod_Potential_Energy-OPLS-2005>
13582.271484375

> <r_mmod_Stretch_Energy-OPLS-2005>
8409.779296875

> <r_mmod_Bend_Energy-OPLS-2005>
1009.33477783203

> <r_mmod_Torsional_Energy-OPLS-2005>
385.641296386719

> <r_mmod_Improper_Torsional_Energy-OPLS-2005>
23.176441192627

> <r_mmod_Van_der_Waal_Energy-OPLS-2005>
2205.67456054688

> <r_mmod_Electrostatic_Energy-OPLS-2005>
-283.254852294922

> <r_mmod_Solvation_Energy-OPLS-2005>
-520.966735839844

> <b_mmod_Minimization_Converged-OPLS-2005>
0

> <r_mmod_RMS_Derivative-OPLS-2005>
7.45456027984619

$$$$
24
                    3D
 Structure written by MMmdl.
180188  0  0  1  0            999 V2000
  -31.1731  -14.0061   20.3437 C   0  0  0  0  0  0
  -30.2704  -12.0060   19.3398 C   0  0  0  0  0  0
  -29.4238  -12.4332   18.1457 C   0  0  0  0  0  0
  -27.9606  -12.4134   18.5815 C   0  0  0  0  0  0
  -27.6949  -13.2401   19.8665 C   0  0  2  0  0  0
  -28.8191  -13.1006   20.9488 C   0  0  0  0  0  0
  -25.2755  -13.8255   20.5809 C   0  0  0  0  0  0
  -24.1982  -13.0506   20.9174 C   0  0  0  0  0  0
  -24.6572  -11.6983   20.8747 C   0  0  0  0  0  0
  -23.9200  -10.4343   21.0369 C   0  0  0  0  0  0
  -24.3681   -9.4235   21.9158 C   0  0  0  0  0  0
  -23.6344   -8.2279   22.0743 C   0  0  0  0  0  0
  -22.4314   -8.0330   21.3548 C   0  0  0  0  0  0
  -21.9982   -9.0315   20.4640 C   0  0  0  0  0  0
  -22.7342  -10.2182   20.3052 C   0  0  0  0  0  0
  -21.6880   -6.0755   22.5263 C   0  0  0  0  0  0
  -21.4067   -6.5656   23.8207 C   0  0  0  0  0  0
  -21.3701   -5.6808   24.9165 C   0  0  0  0  0  0
  -21.6064   -4.3072   24.7206 C   0  0  0  0  0  0
  -21.8859   -3.8169   23.4325 C   0  0  0  0  0  0
  -21.9218   -4.6979   22.3375 C   0  0  0  0  0  0
  -22.7947  -13.5259   21.1732 C   0  0  0  0  0  0
  -22.1627   -4.2152   21.0941 F   0  0  0  0  0  0
  -21.5596   -3.4571   25.7723 F   0  0  0  0  0  0
  -30.1830  -13.0679   20.3470 N   0  0  0  0  0  0
  -26.3350  -12.9556   20.3635 N   0  0  0  0  0  0
  -25.9574  -11.6672   20.5927 N   0  0  0  0  0  0
  -22.0569  -12.8305   22.0278 N   0  0  0  0  0  0
  -25.4342  -15.1991   20.4216 N   0  0  0  0  0  0
  -31.0974  -15.1779   20.6040 O   0  0  0  0  0  0
  -21.6676   -6.8916   21.4229 O   0  0  0  0  0  0
  -22.3607  -14.5518   20.6530 O   0  0  0  0  0  0
  -24.6083  -31.8728   23.2140 C   0  0  0  0  0  0
  -25.9003  -32.4849   23.8412 C   0  0  1  0  0  0
  -27.2421  -27.4881   20.0641 C   0  0  0  0  0  0
  -25.5895  -33.8645   24.2345 N   0  0  0  0  0  0
  -23.3927  -30.4956   21.5549 C   0  0  2  0  0  0
  -24.8395  -28.9633   20.1184 C   0  0  0  0  0  0
  -22.7370  -29.4680   22.5039 C   0  0  0  0  0  0
  -18.0268  -28.1373   22.8503 C   0  0  0  0  0  0
  -24.1492  -36.7309   23.2635 C   0  0  0  0  0  0
  -25.9172  -30.8462   21.3634 C   0  0  0  0  0  0
  -25.9943  -29.4813   20.7176 C   0  0  0  0  0  0
  -27.1936  -28.7411   20.7066 C   0  0  0  0  0  0
  -26.0676  -26.9625   19.4821 C   0  0  0  0  0  0
  -24.8664  -27.6961   19.5083 C   0  0  0  0  0  0
  -23.5979  -29.8245   20.1694 C   0  0  0  0  0  0
  -25.4118  -36.3123   24.0334 C   0  0  1  0  0  0
  -20.5846  -28.3651   23.1350 C   0  0  2  0  0  0
  -20.6764  -26.9397   22.5440 C   0  0  0  0  0  0
  -19.5751  -26.6388   21.5225 C   0  0  0  0  0  0
  -18.1910  -26.7936   22.1607 C   0  0  0  0  0  0
  -19.1509  -28.8832   23.2925 C   0  0  0  0  0  0
  -18.9442  -30.1440   23.8930 C   0  0  0  0  0  0
  -17.6445  -30.6587   24.0573 C   0  0  0  0  0  0
  -25.9045  -34.9487   23.5135 C   0  0  0  0  0  0
  -16.5339  -29.9094   23.6329 C   0  0  0  0  0  0
  -16.7252  -28.6506   23.0355 C   0  0  0  0  0  0
  -26.4448  -31.6611   25.0716 C   0  0  0  0  0  0
  -25.3715  -31.3690   26.1462 C   0  0  0  0  0  0
  -27.0272  -30.3067   24.6045 C   0  0  0  0  0  0
  -27.6036  -32.4323   25.7472 C   0  0  0  0  0  0
  -27.5602  -37.1807   24.8457 C   0  0  0  0  0  0
  -21.4102  -29.3030   22.3768 N   0  0  0  0  0  0
  -26.4306  -37.3812   23.9414 N   0  0  0  0  0  0
  -24.6572  -31.0852   22.1028 N   0  0  0  0  0  0
  -23.4164  -28.8229   23.3063 O   0  0  0  0  0  0
  -28.4376  -26.8166   20.0233 O   0  0  0  0  0  0
  -26.5605  -34.8926   22.4692 O   0  0  0  0  0  0
  -23.5295  -32.1476   23.7574 O   0  0  0  0  0  0
  -31.6488  -17.8895   18.1810 C   0  0  0  0  0  0
  -31.6588  -19.0865   19.1174 C   0  0  0  0  0  0
  -31.6634  -20.4235   18.3582 C   0  0  0  0  0  0
  -30.7284  -19.3690   16.3583 C   0  0  0  0  0  0
  -30.5728  -17.9920   17.0679 C   0  0  2  0  0  0
  -28.1022  -17.6265   16.3867 C   0  0  0  0  0  0
  -28.8894  -16.6093   18.5339 C   0  0  0  0  0  0
  -29.4934  -24.1239   17.5971 C   0  0  0  0  0  0
  -29.4088  -22.5990   17.7072 C   0  0  0  0  0  0
  -28.7593  -24.7826   18.7722 C   0  0  0  0  0  0
  -33.5682  -14.7590   18.1030 C   0  0  0  0  0  0
  -32.4705  -15.7261   17.5975 C   0  0  0  0  0  0
  -33.5358  -14.3700   19.6057 C   0  0  0  0  0  0
  -30.3649  -21.8248   16.7782 C   0  0  0  0  0  0
  -28.8370  -26.3101   18.7538 C   0  0  0  0  0  0
  -29.0949  -17.7818   17.5598 C   0  0  0  0  0  0
  -32.4973  -16.9535   18.3702 N   0  0  0  0  0  0
  -32.3790  -13.5487   19.9770 N   0  0  0  0  0  0
  -30.5817  -20.4716   17.3411 N   0  3  2  0  0  0
  -31.2623  -11.7243   18.9872 H   0  0  0  0  0  0
  -29.8736  -11.0774   19.7553 H   0  0  0  0  0  0
  -29.5667  -11.7373   17.3194 H   0  0  0  0  0  0
  -29.7086  -13.4209   17.7816 H   0  0  0  0  0  0
  -27.6848  -11.3687   18.7404 H   0  0  0  0  0  0
  -27.3289  -12.7800   17.7698 H   0  0  0  0  0  0
  -27.7150  -14.2793   19.5480 H   0  0  0  0  0  0
  -28.6772  -12.1836   21.5205 H   0  0  0  0  0  0
  -28.7463  -13.9183   21.6685 H   0  0  0  0  0  0
  -25.2798   -9.5691   22.4784 H   0  0  0  0  0  0
  -24.0037   -7.4707   22.7527 H   0  0  0  0  0  0
  -21.0882   -8.8878   19.8957 H   0  0  0  0  0  0
  -22.3791  -10.9727   19.6183 H   0  0  0  0  0  0
  -21.2046   -7.6165   23.9717 H   0  0  0  0  0  0
  -21.1441   -6.0493   25.9066 H   0  0  0  0  0  0
  -22.0574   -2.7616   23.2793 H   0  0  0  0  0  0
  -22.4236  -12.0031   22.4729 H   0  0  0  0  0  0
  -21.1161  -13.1313   22.2401 H   0  0  0  0  0  0
  -24.6659  -15.8487   20.5422 H   0  0  0  0  0  0
  -26.3055  -15.6488   20.1750 H   0  0  0  0  0  0
  -26.7076  -32.5576   23.1185 H   0  0  0  0  0  0
  -25.0067  -33.9822   25.0501 H   0  0  0  0  0  0
  -22.6789  -31.3106   21.4182 H   0  0  0  0  0  0
  -23.3777  -35.9620   23.3285 H   0  0  0  0  0  0
  -24.3592  -36.8942   22.2055 H   0  0  0  0  0  0
  -23.7213  -37.6491   23.6662 H   0  0  0  0  0  0
  -26.0218  -31.6113   20.5930 H   0  0  0  0  0  0
  -26.8071  -30.9040   21.9773 H   0  0  0  0  0  0
  -28.0872  -29.1440   21.1616 H   0  0  0  0  0  0
  -26.0737  -25.9941   19.0064 H   0  0  0  0  0  0
  -23.9758  -27.2868   19.0525 H   0  0  0  0  0  0
  -23.6964  -30.5984   19.4078 H   0  0  0  0  0  0
  -22.7228  -29.2394   19.8800 H   0  0  0  0  0  0
  -25.1291  -36.1996   25.0830 H   0  0  0  0  0  0
  -20.9931  -28.3227   24.1472 H   0  0  0  0  0  0
  -20.5696  -26.2252   23.3617 H   0  0  0  0  0  0
  -21.6638  -26.7472   22.1222 H   0  0  0  0  0  0
  -19.6921  -25.6309   21.1229 H   0  0  0  0  0  0
  -19.6698  -27.3221   20.6776 H   0  0  0  0  0  0
  -17.4203  -26.6742   21.3979 H   0  0  0  0  0  0
  -18.0264  -26.0051   22.8963 H   0  0  0  0  0  0
  -19.7912  -30.7259   24.2320 H   0  0  0  0  0  0
  -17.4995  -31.6268   24.5164 H   0  0  0  0  0  0
  -15.5349  -30.3007   23.7635 H   0  0  0  0  0  0
  -15.8658  -28.0842   22.7057 H   0  0  0  0  0  0
  -24.5947  -30.6965   25.7799 H   0  0  0  0  0  0
  -24.8824  -32.2822   26.4861 H   0  0  0  0  0  0
  -25.8083  -30.8918   27.0242 H   0  0  0  0  0  0
  -26.2799  -29.6842   24.1110 H   0  0  0  0  0  0
  -27.4083  -29.7284   25.4469 H   0  0  0  0  0  0
  -27.8611  -30.4408   23.9149 H   0  0  0  0  0  0
  -27.2678  -33.3640   26.2034 H   0  0  0  0  0  0
  -28.3854  -32.6854   25.0296 H   0  0  0  0  0  0
  -28.0682  -31.8440   26.5394 H   0  0  0  0  0  0
  -28.2595  -38.0131   24.7567 H   0  0  0  0  0  0
  -28.1124  -36.2667   24.6211 H   0  0  0  0  0  0
  -27.2317  -37.1374   25.8856 H   0  0  0  0  0  0
  -20.9265  -29.8727   21.6974 H   0  0  0  0  0  0
  -26.0192  -38.2884   24.1444 H   0  0  0  0  0  0
  -32.5256  -19.0384   19.7794 H   0  0  0  0  0  0
  -30.7811  -19.0242   19.7606 H   0  0  0  0  0  0
  -32.6288  -20.5762   17.8730 H   0  0  0  0  0  0
  -31.5566  -21.2378   19.0733 H   0  0  0  0  0  0
  -30.0057  -19.4770   15.5509 H   0  0  0  0  0  0
  -31.7077  -19.4388   15.8818 H   0  0  0  0  0  0
  -30.7698  -17.2294   16.3149 H   0  0  0  0  0  0
  -27.9955  -18.5431   15.8072 H   0  0  0  0  0  0
  -27.1040  -17.3779   16.7508 H   0  0  0  0  0  0
  -28.4026  -16.8325   15.7005 H   0  0  0  0  0  0
  -29.4480  -16.7529   19.4579 H   0  0  0  0  0  0
  -29.1768  -15.6534   18.0955 H   0  0  0  0  0  0
  -27.8406  -16.5405   18.8275 H   0  0  0  0  0  0
  -29.0858  -24.4650   16.6445 H   0  0  0  0  0  0
  -30.5388  -24.4372   17.6173 H   0  0  0  0  0  0
  -28.3813  -22.2727   17.5303 H   0  0  0  0  0  0
  -29.6179  -22.3392   18.7461 H   0  0  0  0  0  0
  -29.2017  -24.4296   19.7050 H   0  0  0  0  0  0
  -27.7174  -24.4593   18.7854 H   0  0  0  0  0  0
  -34.5429  -15.2043   17.8947 H   0  0  0  0  0  0
  -33.5395  -13.8500   17.5012 H   0  0  0  0  0  0
  -31.4921  -15.2441   17.6578 H   0  0  0  0  0  0
  -32.6559  -15.9367   16.5420 H   0  0  0  0  0  0
  -33.5989  -15.2619   20.2326 H   0  0  0  0  0  0
  -34.4304  -13.7890   19.8330 H   0  0  0  0  0  0
  -31.3232  -22.3344   16.6666 H   0  0  0  0  0  0
  -29.9235  -21.7782   15.7809 H   0  0  0  0  0  0
  -28.2600  -26.7228   17.9235 H   0  0  0  0  0  0
  -29.8688  -26.6277   18.5907 H   0  0  0  0  0  0
  -28.7843  -18.6680   18.1170 H   0  0  0  0  0  0
  -32.4525  -12.5516   19.8348 H   0  0  0  0  0  0
  -29.7135  -20.2703   17.8144 H   0  0  0  0  0  0
  1 25  1  0  0  0
  1 30  2  0  0  0
  1 88  1  0  0  0
  2  3  1  0  0  0
  2 25  1  0  0  0
  2 90  1  0  0  0
  2 91  1  0  0  0
  3  4  1  0  0  0
  3 92  1  0  0  0
  3 93  1  0  0  0
  4  5  1  0  0  0
  4 94  1  0  0  0
  4 95  1  0  0  0
  5  6  1  0  0  0
  5 26  1  0  0  0
  5 96  1  0  0  0
  6 25  1  0  0  0
  6 97  1  0  0  0
  6 98  1  0  0  0
  7  8  2  0  0  0
  7 26  1  0  0  0
  7 29  1  0  0  0
  8  9  1  0  0  0
  8 22  1  0  0  0
  9 10  1  0  0  0
  9 27  2  0  0  0
 10 11  2  0  0  0
 10 15  1  0  0  0
 11 12  1  0  0  0
 11 99  1  0  0  0
 12 13  2  0  0  0
 12100  1  0  0  0
 13 14  1  0  0  0
 13 31  1  0  0  0
 14 15  2  0  0  0
 14101  1  0  0  0
 15102  1  0  0  0
 16 17  2  0  0  0
 16 21  1  0  0  0
 16 31  1  0  0  0
 17 18  1  0  0  0
 17103  1  0  0  0
 18 19  2  0  0  0
 18104  1  0  0  0
 19 20  1  0  0  0
 19 24  1  0  0  0
 20 21  2  0  0  0
 20105  1  0  0  0
 21 23  1  0  0  0
 22 28  1  0  0  0
 22 32  2  0  0  0
 26 27  1  0  0  0
 28106  1  0  0  0
 28107  1  0  0  0
 29108  1  0  0  0
 29109  1  0  0  0
 33 34  1  0  0  0
 33 66  1  0  0  0
 33 70  2  0  0  0
 34 36  1  0  0  0
 34 59  1  0  0  0
 34110  1  0  0  0
 35 44  2  0  0  0
 35 45  1  0  0  0
 35 68  1  0  0  0
 36 56  1  0  0  0
 36111  1  0  0  0
 37 39  1  0  0  0
 37 47  1  0  0  0
 37 66  1  0  0  0
 37112  1  0  0  0
 38 43  2  0  0  0
 38 46  1  0  0  0
 38 47  1  0  0  0
 39 64  1  0  0  0
 39 67  2  0  0  0
 40 52  1  0  0  0
 40 53  2  0  0  0
 40 58  1  0  0  0
 41113  1  0  0  0
 41114  1  0  0  0
 41115  1  0  0  0
 41 48  1  0  0  0
 42 43  1  0  0  0
 42 66  1  0  0  0
 42116  1  0  0  0
 42117  1  0  0  0
 43 44  1  0  0  0
 44118  1  0  0  0
 45 46  2  0  0  0
 45119  1  0  0  0
 46120  1  0  0  0
 47121  1  0  0  0
 47122  1  0  0  0
 48 56  1  0  0  0
 48 65  1  0  0  0
 48123  1  0  0  0
 49 50  1  0  0  0
 49 53  1  0  0  0
 49 64  1  0  0  0
 49124  1  0  0  0
 50 51  1  0  0  0
 50125  1  0  0  0
 50126  1  0  0  0
 51 52  1  0  0  0
 51127  1  0  0  0
 51128  1  0  0  0
 52129  1  0  0  0
 52130  1  0  0  0
 53 54  1  0  0  0
 54 55  2  0  0  0
 54131  1  0  0  0
 55 57  1  0  0  0
 55132  1  0  0  0
 56 69  2  0  0  0
 57 58  2  0  0  0
 57133  1  0  0  0
 58134  1  0  0  0
 59 60  1  0  0  0
 59 61  1  0  0  0
 59 62  1  0  0  0
 60135  1  0  0  0
 60136  1  0  0  0
 60137  1  0  0  0
 61138  1  0  0  0
 61139  1  0  0  0
 61140  1  0  0  0
 62141  1  0  0  0
 62142  1  0  0  0
 62143  1  0  0  0
 63 65  1  0  0  0
 63144  1  0  0  0
 63145  1  0  0  0
 63146  1  0  0  0
 64147  1  0  0  0
 65148  1  0  0  0
 68 85  1  0  0  0
 71 72  1  0  0  0
 71 75  1  0  0  0
 71 87  2  0  0  0
 72 73  1  0  0  0
 72149  1  0  0  0
 72150  1  0  0  0
 73 89  1  0  0  0
 73151  1  0  0  0
 73152  1  0  0  0
 74 89  1  0  0  0
 74153  1  0  0  0
 74154  1  0  0  0
 74 75  1  0  0  0
 75 86  1  0  0  0
 75155  1  0  0  0
 76156  1  0  0  0
 76157  1  0  0  0
 76158  1  0  0  0
 76 86  1  0  0  0
 77 86  1  0  0  0
 77159  1  0  0  0
 77160  1  0  0  0
 77161  1  0  0  0
 78 79  1  0  0  0
 78 80  1  0  0  0
 78162  1  0  0  0
 78163  1  0  0  0
 79 84  1  0  0  0
 79164  1  0  0  0
 79165  1  0  0  0
 80 85  1  0  0  0
 80166  1  0  0  0
 80167  1  0  0  0
 81 82  1  0  0  0
 81 83  1  0  0  0
 81168  1  0  0  0
 81169  1  0  0  0
 82 87  1  0  0  0
 82170  1  0  0  0
 82171  1  0  0  0
 83 88  1  0  0  0
 83172  1  0  0  0
 83173  1  0  0  0
 84174  1  0  0  0
 84175  1  0  0  0
 84 89  1  0  0  0
 85176  1  0  0  0
 85177  1  0  0  0
 86178  1  0  0  0
 88179  1  0  0  0
 89180  1  0  0  0
M  CHG  1  89   1
M  ISO  4   1 100  68 101  85 101  88 100
M  END
> <chiral flag>
0

> <version>
0

> <s_m_source_file>
/data/baiqing/PycharmProjects/Reinvent-master-3.2/result/LINK_invent/BTK/process_docking_weight1_custom_sum_contain_oxygen_bond_distance_aromatic_linkinvent_7_9_3/rearranged_h_0115.sdf

> <i_m_source_file_index>
25

> <r_mmod_Potential_Energy-OPLS-2005>
94.936393737793

> <r_mmod_Stretch_Energy-OPLS-2005>
43.8010520935059

> <r_mmod_Bend_Energy-OPLS-2005>
134.316040039062

> <r_mmod_Torsional_Energy-OPLS-2005>
267.951568603516

> <r_mmod_Improper_Torsional_Energy-OPLS-2005>
2.30324101448059

> <r_mmod_Van_der_Waal_Energy-OPLS-2005>
143.579437255859

> <r_mmod_Electrostatic_Energy-OPLS-2005>
-230.165557861328

> <r_mmod_Solvation_Energy-OPLS-2005>
-438.096374511719

> <b_mmod_Minimization_Converged-OPLS-2005>
0

> <r_mmod_RMS_Derivative-OPLS-2005>
3.47023415565491

$$$$
25
                    3D
 Structure written by MMmdl.
167176  0  0  1  0            999 V2000
  -30.5964  -14.6444   20.3854 C   0  0  0  0  0  0
  -30.4645  -12.3307   19.5048 C   0  0  0  0  0  0
  -29.5334  -12.2870   18.2655 C   0  0  0  0  0  0
  -28.0291  -12.2895   18.6339 C   0  0  0  0  0  0
  -27.6495  -13.1802   19.8483 C   0  0  2  0  0  0
  -28.6993  -13.0844   20.9774 C   0  0  0  0  0  0
  -25.2603  -13.8091   20.5673 C   0  0  0  0  0  0
  -24.1828  -13.0406   20.9196 C   0  0  0  0  0  0
  -24.6357  -11.6873   20.8788 C   0  0  0  0  0  0
  -23.9020  -10.4282   21.0447 C   0  0  0  0  0  0
  -24.3591   -9.4195   21.9207 C   0  0  0  0  0  0
  -23.6276   -8.2227   22.0773 C   0  0  0  0  0  0
  -22.4261   -8.0274   21.3552 C   0  0  0  0  0  0
  -21.9894   -9.0247   20.4652 C   0  0  0  0  0  0
  -22.7215  -10.2127   20.3076 C   0  0  0  0  0  0
  -21.6844   -6.0735   22.5287 C   0  0  0  0  0  0
  -21.4002   -6.5643   23.8220 C   0  0  0  0  0  0
  -21.3660   -5.6794   24.9184 C   0  0  0  0  0  0
  -21.6049   -4.3057   24.7229 C   0  0  0  0  0  0
  -21.8816   -3.8146   23.4346 C   0  0  0  0  0  0
  -21.9192   -4.6963   22.3404 C   0  0  0  0  0  0
  -22.7865  -13.5247   21.1836 C   0  0  0  0  0  0
  -22.1660   -4.2153   21.0975 F   0  0  0  0  0  0
  -21.5628   -3.4534   25.7738 F   0  0  0  0  0  0
  -30.0225  -13.3992   20.4182 N   0  0  0  0  0  0
  -26.2971  -12.9174   20.3287 N   0  0  0  0  0  0
  -25.9264  -11.6387   20.5830 N   0  0  0  0  0  0
  -22.0489  -12.8277   22.0409 N   0  0  0  0  0  0
  -25.4345  -15.1803   20.4082 N   0  0  0  0  0  0
  -31.8060  -14.7901   20.1908 O   0  0  0  0  0  0
  -21.6621   -6.8874   21.4251 O   0  0  0  0  0  0
  -22.3584  -14.5557   20.6678 O   0  0  0  0  0  0
  -24.6144  -31.8671   23.2096 C   0  0  0  0  0  0
  -25.9032  -32.4826   23.8392 C   0  0  1  0  0  0
  -27.2463  -27.4226   20.1203 C   0  0  0  0  0  0
  -25.5873  -33.8625   24.2312 N   0  0  0  0  0  0
  -23.4054  -30.4876   21.5490 C   0  0  2  0  0  0
  -24.8595  -28.9515   20.1193 C   0  0  0  0  0  0
  -22.7425  -29.4639   22.4984 C   0  0  0  0  0  0
  -18.0265  -28.1375   22.8491 C   0  0  0  0  0  0
  -24.1488  -36.7324   23.2644 C   0  0  0  0  0  0
  -25.9350  -30.8288   21.3688 C   0  0  0  0  0  0
  -26.0169  -29.4594   20.7257 C   0  0  0  0  0  0
  -27.2125  -28.7008   20.7316 C   0  0  0  0  0  0
  -26.0783  -26.9398   19.4963 C   0  0  0  0  0  0
  -24.8844  -27.6878   19.5038 C   0  0  0  0  0  0
  -23.6195  -29.8187   20.1640 C   0  0  0  0  0  0
  -25.4105  -36.3119   24.0340 C   0  0  1  0  0  0
  -20.5861  -28.3661   23.1308 C   0  0  2  0  0  0
  -20.6758  -26.9395   22.5417 C   0  0  0  0  0  0
  -19.5743  -26.6381   21.5205 C   0  0  0  0  0  0
  -18.1913  -26.7932   22.1605 C   0  0  0  0  0  0
  -19.1519  -28.8836   23.2899 C   0  0  0  0  0  0
  -18.9460  -30.1441   23.8918 C   0  0  0  0  0  0
  -17.6464  -30.6594   24.0568 C   0  0  0  0  0  0
  -25.9028  -34.9485   23.5124 C   0  0  0  0  0  0
  -16.5350  -29.9099   23.6324 C   0  0  0  0  0  0
  -16.7256  -28.6508   23.0349 C   0  0  0  0  0  0
  -26.4449  -31.6611   25.0724 C   0  0  0  0  0  0
  -25.3711  -31.3758   26.1478 C   0  0  0  0  0  0
  -27.0249  -30.3036   24.6106 C   0  0  0  0  0  0
  -27.6031  -32.4328   25.7480 C   0  0  0  0  0  0
  -27.5592  -37.1814   24.8452 C   0  0  0  0  0  0
  -21.4152  -29.3025   22.3724 N   0  0  0  0  0  0
  -26.4298  -37.3804   23.9407 N   0  0  0  0  0  0
  -24.6692  -31.0760   22.1005 N   0  0  0  0  0  0
  -23.4191  -28.8191   23.3039 O   0  0  0  0  0  0
  -28.3755  -26.6262   20.0649 O   0  0  0  0  0  0
  -26.5622  -34.8945   22.4703 O   0  0  0  0  0  0
  -23.5334  -32.1423   23.7480 O   0  0  0  0  0  0
  -28.6466  -22.5108   22.4957 C   0  0  0  0  0  0
  -30.1196  -22.5466   20.5760 C   0  0  0  0  0  0
  -28.5072  -23.9180   22.4161 C   0  0  0  0  0  0
  -29.9741  -23.9563   20.4932 C   0  0  0  0  0  0
  -29.4305  -21.7944   21.5602 C   0  0  0  0  0  0
  -29.1444  -24.6627   21.3973 C   0  0  0  0  0  0
  -30.6677  -19.4489   21.8931 C   0  0  0  0  0  0
  -28.8859  -19.7622   20.1663 C   0  0  0  0  0  0
  -30.4755  -17.8840   21.8235 C   0  0  0  0  0  0
  -28.6831  -18.2465   20.1378 C   0  0  0  0  0  0
  -29.3786  -20.2446   21.5323 C   0  0  2  0  0  0
  -29.9738  -17.4117   20.4296 C   0  0  2  0  0  0
  -30.2737  -26.9528   21.4917 C   0  0  0  0  0  0
  -29.3181  -15.8680   18.5939 C   0  0  0  0  0  0
  -28.9498  -26.1963   21.3111 C   0  0  1  0  0  0
  -29.6397  -15.8826   20.1211 C   0  0  1  0  0  0
  -31.5034  -12.4608   19.1956 H   0  0  0  0  0  0
  -30.4325  -11.3768   20.0341 H   0  0  0  0  0  0
  -29.7445  -11.3620   17.7274 H   0  0  0  0  0  0
  -29.7814  -13.0521   17.5390 H   0  0  0  0  0  0
  -27.7624  -11.2544   18.8489 H   0  0  0  0  0  0
  -27.4329  -12.5682   17.7638 H   0  0  0  0  0  0
  -27.6249  -14.1915   19.4719 H   0  0  0  0  0  0
  -28.7049  -12.0806   21.4049 H   0  0  0  0  0  0
  -28.4513  -13.7561   21.8003 H   0  0  0  0  0  0
  -25.2740   -9.5662   22.4769 H   0  0  0  0  0  0
  -23.9985   -7.4615   22.7492 H   0  0  0  0  0  0
  -21.0826   -8.8772   19.8952 H   0  0  0  0  0  0
  -22.3693  -10.9670   19.6185 H   0  0  0  0  0  0
  -21.1992   -7.6152   23.9728 H   0  0  0  0  0  0
  -21.1486   -6.0519   25.9089 H   0  0  0  0  0  0
  -22.0595   -2.7605   23.2842 H   0  0  0  0  0  0
  -22.4093  -11.9959   22.4837 H   0  0  0  0  0  0
  -21.1112  -13.1338   22.2591 H   0  0  0  0  0  0
  -24.6718  -15.8366   20.5337 H   0  0  0  0  0  0
  -26.2865  -15.6221   20.0878 H   0  0  0  0  0  0
  -26.7112  -32.5553   23.1168 H   0  0  0  0  0  0
  -24.9966  -33.9774   25.0421 H   0  0  0  0  0  0
  -22.6947  -31.3047   21.4066 H   0  0  0  0  0  0
  -23.3761  -35.9646   23.3291 H   0  0  0  0  0  0
  -24.3599  -36.8959   22.2064 H   0  0  0  0  0  0
  -23.7230  -37.6513   23.6685 H   0  0  0  0  0  0
  -26.0471  -31.5925   20.5979 H   0  0  0  0  0  0
  -26.8222  -30.8861   21.9880 H   0  0  0  0  0  0
  -28.1024  -29.0987   21.1976 H   0  0  0  0  0  0
  -26.0931  -25.9720   19.0153 H   0  0  0  0  0  0
  -23.9973  -27.2876   19.0310 H   0  0  0  0  0  0
  -23.7313  -30.5950   19.4056 H   0  0  0  0  0  0
  -22.7445  -29.2382   19.8646 H   0  0  0  0  0  0
  -25.1282  -36.1991   25.0835 H   0  0  0  0  0  0
  -20.9936  -28.3238   24.1432 H   0  0  0  0  0  0
  -20.5649  -26.2273   23.3609 H   0  0  0  0  0  0
  -21.6629  -26.7434   22.1215 H   0  0  0  0  0  0
  -19.6907  -25.6290   21.1231 H   0  0  0  0  0  0
  -19.6693  -27.3205   20.6752 H   0  0  0  0  0  0
  -17.4178  -26.6688   21.4002 H   0  0  0  0  0  0
  -18.0298  -26.0066   22.8991 H   0  0  0  0  0  0
  -19.7944  -30.7230   24.2311 H   0  0  0  0  0  0
  -17.5030  -31.6280   24.5167 H   0  0  0  0  0  0
  -15.5354  -30.3011   23.7654 H   0  0  0  0  0  0
  -15.8647  -28.0845   22.7055 H   0  0  0  0  0  0
  -24.5868  -30.7107   25.7847 H   0  0  0  0  0  0
  -24.8918  -32.2935   26.4903 H   0  0  0  0  0  0
  -25.8051  -30.8959   27.0259 H   0  0  0  0  0  0
  -26.2776  -29.6848   24.1117 H   0  0  0  0  0  0
  -27.3937  -29.7233   25.4577 H   0  0  0  0  0  0
  -27.8669  -30.4309   23.9291 H   0  0  0  0  0  0
  -27.2621  -33.3584   26.2135 H   0  0  0  0  0  0
  -28.3797  -32.6965   25.0285 H   0  0  0  0  0  0
  -28.0757  -31.8416   26.5334 H   0  0  0  0  0  0
  -28.2588  -38.0135   24.7530 H   0  0  0  0  0  0
  -28.1109  -36.2667   24.6226 H   0  0  0  0  0  0
  -27.2326  -37.1400   25.8861 H   0  0  0  0  0  0
  -20.9322  -29.8763   21.6951 H   0  0  0  0  0  0
  -26.0190  -38.2880   24.1441 H   0  0  0  0  0  0
  -28.1010  -21.9777   23.2615 H   0  0  0  0  0  0
  -30.7272  -22.0381   19.8396 H   0  0  0  0  0  0
  -27.8799  -24.4264   23.1358 H   0  0  0  0  0  0
  -30.4903  -24.4968   19.7125 H   0  0  0  0  0  0
  -31.4696  -19.7400   21.2132 H   0  0  0  0  0  0
  -31.0009  -19.7314   22.8932 H   0  0  0  0  0  0
  -27.9402  -20.2523   19.9285 H   0  0  0  0  0  0
  -29.5863  -20.0443   19.3796 H   0  0  0  0  0  0
  -29.7725  -17.5709   22.5962 H   0  0  0  0  0  0
  -31.4211  -17.3925   22.0560 H   0  0  0  0  0  0
  -28.2617  -18.0383   19.1578 H   0  0  0  0  0  0
  -27.9033  -17.9767   20.8524 H   0  0  0  0  0  0
  -28.6224  -19.9518   22.2632 H   0  0  0  0  0  0
  -30.7510  -17.7207   19.7281 H   0  0  0  0  0  0
  -30.7480  -26.6909   22.4370 H   0  0  0  0  0  0
  -30.1165  -28.0311   21.4936 H   0  0  0  0  0  0
  -30.9774  -26.7288   20.6898 H   0  0  0  0  0  0
  -28.2535  -15.9895   18.3975 H   0  0  0  0  0  0
  -29.6201  -14.9661   18.0891 H   0  0  0  0  0  0
  -29.8334  -16.6577   18.0472 H   0  0  0  0  0  0
  -28.2909  -26.4848   22.1331 H   0  0  0  0  0  0
  -28.7325  -15.6812   20.6856 H   0  0  0  0  0  0
  1 25  1  0  0  0
  1 30  2  0  0  0
  1 86  1  0  0  0
  2  3  1  0  0  0
  2 25  1  0  0  0
  2 87  1  0  0  0
  2 88  1  0  0  0
  3  4  1  0  0  0
  3 89  1  0  0  0
  3 90  1  0  0  0
  4  5  1  0  0  0
  4 91  1  0  0  0
  4 92  1  0  0  0
  5  6  1  0  0  0
  5 26  1  0  0  0
  5 93  1  0  0  0
  6 25  1  0  0  0
  6 94  1  0  0  0
  6 95  1  0  0  0
  7  8  2  0  0  0
  7 26  1  0  0  0
  7 29  1  0  0  0
  8  9  1  0  0  0
  8 22  1  0  0  0
  9 10  1  0  0  0
  9 27  2  0  0  0
 10 11  2  0  0  0
 10 15  1  0  0  0
 11 12  1  0  0  0
 11 96  1  0  0  0
 12 13  2  0  0  0
 12 97  1  0  0  0
 13 14  1  0  0  0
 13 31  1  0  0  0
 14 15  2  0  0  0
 14 98  1  0  0  0
 15 99  1  0  0  0
 16 17  2  0  0  0
 16 21  1  0  0  0
 16 31  1  0  0  0
 17 18  1  0  0  0
 17100  1  0  0  0
 18 19  2  0  0  0
 18101  1  0  0  0
 19 20  1  0  0  0
 19 24  1  0  0  0
 20 21  2  0  0  0
 20102  1  0  0  0
 21 23  1  0  0  0
 22 28  1  0  0  0
 22 32  2  0  0  0
 26 27  1  0  0  0
 28103  1  0  0  0
 28104  1  0  0  0
 29105  1  0  0  0
 29106  1  0  0  0
 33 34  1  0  0  0
 33 66  1  0  0  0
 33 70  2  0  0  0
 34 36  1  0  0  0
 34 59  1  0  0  0
 34107  1  0  0  0
 35 44  2  0  0  0
 35 45  1  0  0  0
 35 68  1  0  0  0
 36 56  1  0  0  0
 36108  1  0  0  0
 37 39  1  0  0  0
 37 47  1  0  0  0
 37 66  1  0  0  0
 37109  1  0  0  0
 38 43  2  0  0  0
 38 46  1  0  0  0
 38 47  1  0  0  0
 39 64  1  0  0  0
 39 67  2  0  0  0
 40 52  1  0  0  0
 40 53  2  0  0  0
 40 58  1  0  0  0
 41110  1  0  0  0
 41111  1  0  0  0
 41112  1  0  0  0
 41 48  1  0  0  0
 42 43  1  0  0  0
 42 66  1  0  0  0
 42113  1  0  0  0
 42114  1  0  0  0
 43 44  1  0  0  0
 44115  1  0  0  0
 45 46  2  0  0  0
 45116  1  0  0  0
 46117  1  0  0  0
 47118  1  0  0  0
 47119  1  0  0  0
 48 56  1  0  0  0
 48 65  1  0  0  0
 48120  1  0  0  0
 49 50  1  0  0  0
 49 53  1  0  0  0
 49 64  1  0  0  0
 49121  1  0  0  0
 50 51  1  0  0  0
 50122  1  0  0  0
 50123  1  0  0  0
 51 52  1  0  0  0
 51124  1  0  0  0
 51125  1  0  0  0
 52126  1  0  0  0
 52127  1  0  0  0
 53 54  1  0  0  0
 54 55  2  0  0  0
 54128  1  0  0  0
 55 57  1  0  0  0
 55129  1  0  0  0
 56 69  2  0  0  0
 57 58  2  0  0  0
 57130  1  0  0  0
 58131  1  0  0  0
 59 60  1  0  0  0
 59 61  1  0  0  0
 59 62  1  0  0  0
 60132  1  0  0  0
 60133  1  0  0  0
 60134  1  0  0  0
 61135  1  0  0  0
 61136  1  0  0  0
 61137  1  0  0  0
 62138  1  0  0  0
 62139  1  0  0  0
 62140  1  0  0  0
 63 65  1  0  0  0
 63141  1  0  0  0
 63142  1  0  0  0
 63143  1  0  0  0
 64144  1  0  0  0
 65145  1  0  0  0
 68 85  1  0  0  0
 71 73  2  0  0  0
 71 75  1  0  0  0
 71146  1  0  0  0
 72 74  1  0  0  0
 72 75  2  0  0  0
 72147  1  0  0  0
 73 76  1  0  0  0
 73148  1  0  0  0
 74 76  2  0  0  0
 74149  1  0  0  0
 75 81  1  0  0  0
 76 85  1  0  0  0
 77 79  1  0  0  0
 77 81  1  0  0  0
 77150  1  0  0  0
 77151  1  0  0  0
 78 80  1  0  0  0
 78 81  1  0  0  0
 78152  1  0  0  0
 78153  1  0  0  0
 79154  1  0  0  0
 79155  1  0  0  0
 79 82  1  0  0  0
 80 82  1  0  0  0
 80156  1  0  0  0
 80157  1  0  0  0
 81158  1  0  0  0
 82 86  1  0  0  0
 82159  1  0  0  0
 83160  1  0  0  0
 83161  1  0  0  0
 83162  1  0  0  0
 83 85  1  0  0  0
 84163  1  0  0  0
 84164  1  0  0  0
 84165  1  0  0  0
 84 86  1  0  0  0
 85166  1  0  0  0
 86167  1  0  0  0
M  ISO  4   1 100  68 101  85 101  86 100
M  END
> <chiral flag>
0

> <version>
0

> <s_m_source_file>
/data/baiqing/PycharmProjects/Reinvent-master-3.2/result/LINK_invent/BTK/process_docking_weight1_custom_sum_contain_oxygen_bond_distance_aromatic_linkinvent_7_9_3/rearranged_h_0115.sdf

> <i_m_source_file_index>
26

> <r_mmod_Potential_Energy-OPLS-2005>
189.835998535156

> <r_mmod_Stretch_Energy-OPLS-2005>
58.262622833252

> <r_mmod_Bend_Energy-OPLS-2005>
143.2861328125

> <r_mmod_Torsional_Energy-OPLS-2005>
258.864166259766

> <r_mmod_Improper_Torsional_Energy-OPLS-2005>
12.5021228790283

> <r_mmod_Van_der_Waal_Energy-OPLS-2005>
159.509201049805

> <r_mmod_Electrostatic_Energy-OPLS-2005>
-309.061645507812

> <r_mmod_Solvation_Energy-OPLS-2005>
-180.727386474609

> <b_mmod_Minimization_Converged-OPLS-2005>
0

> <r_mmod_RMS_Derivative-OPLS-2005>
1.9374543428421

$$$$
26
                    3D
 Structure written by MMmdl.
174182  0  0  1  0            999 V2000
  -30.7296  -14.4695   20.5178 C   0  0  0  0  0  0
  -30.4099  -12.2904   19.4259 C   0  0  0  0  0  0
  -29.4891  -12.4843   18.2055 C   0  0  0  0  0  0
  -28.0106  -12.3586   18.6219 C   0  0  0  0  0  0
  -27.6575  -13.2147   19.8695 C   0  0  2  0  0  0
  -28.7050  -13.0380   20.9923 C   0  0  0  0  0  0
  -25.2579  -13.8184   20.5697 C   0  0  0  0  0  0
  -24.1836  -13.0444   20.9189 C   0  0  0  0  0  0
  -24.6410  -11.6918   20.8756 C   0  0  0  0  0  0
  -23.9077  -10.4297   21.0420 C   0  0  0  0  0  0
  -24.3627   -9.4209   21.9192 C   0  0  0  0  0  0
  -23.6293   -8.2251   22.0758 C   0  0  0  0  0  0
  -22.4279   -8.0293   21.3547 C   0  0  0  0  0  0
  -21.9923   -9.0270   20.4650 C   0  0  0  0  0  0
  -22.7260  -10.2147   20.3059 C   0  0  0  0  0  0
  -21.6853   -6.0741   22.5280 C   0  0  0  0  0  0
  -21.4014   -6.5644   23.8213 C   0  0  0  0  0  0
  -21.3656   -5.6797   24.9178 C   0  0  0  0  0  0
  -21.6047   -4.3059   24.7227 C   0  0  0  0  0  0
  -21.8821   -3.8151   23.4349 C   0  0  0  0  0  0
  -21.9191   -4.6966   22.3403 C   0  0  0  0  0  0
  -22.7857  -13.5244   21.1834 C   0  0  0  0  0  0
  -22.1658   -4.2152   21.0976 F   0  0  0  0  0  0
  -21.5630   -3.4541   25.7739 F   0  0  0  0  0  0
  -30.0314  -13.3069   20.4182 N   0  0  0  0  0  0
  -26.3017  -12.9366   20.3390 N   0  0  0  0  0  0
  -25.9343  -11.6520   20.5805 N   0  0  0  0  0  0
  -22.0495  -12.8231   22.0391 N   0  0  0  0  0  0
  -25.4291  -15.1890   20.4110 N   0  0  0  0  0  0
  -31.8954  -14.5812   20.1258 O   0  0  0  0  0  0
  -21.6642   -6.8891   21.4244 O   0  0  0  0  0  0
  -22.3546  -14.5547   20.6683 O   0  0  0  0  0  0
  -24.6157  -31.8663   23.2120 C   0  0  0  0  0  0
  -25.9048  -32.4819   23.8406 C   0  0  1  0  0  0
  -27.2296  -27.4341   20.0998 C   0  0  0  0  0  0
  -25.5901  -33.8612   24.2351 N   0  0  0  0  0  0
  -23.4048  -30.4917   21.5520 C   0  0  2  0  0  0
  -24.8532  -28.9632   20.1113 C   0  0  0  0  0  0
  -22.7423  -29.4651   22.5000 C   0  0  0  0  0  0
  -18.0265  -28.1392   22.8487 C   0  0  0  0  0  0
  -24.1476  -36.7302   23.2643 C   0  0  0  0  0  0
  -25.9357  -30.8349   21.3663 C   0  0  0  0  0  0
  -26.0149  -29.4723   20.7068 C   0  0  0  0  0  0
  -27.2086  -28.7156   20.6977 C   0  0  0  0  0  0
  -26.0579  -26.9470   19.4828 C   0  0  0  0  0  0
  -24.8699  -27.7007   19.4932 C   0  0  0  0  0  0
  -23.6138  -29.8270   20.1663 C   0  0  0  0  0  0
  -25.4098  -36.3101   24.0348 C   0  0  1  0  0  0
  -20.5858  -28.3669   23.1316 C   0  0  2  0  0  0
  -20.6770  -26.9405   22.5426 C   0  0  0  0  0  0
  -19.5752  -26.6393   21.5225 C   0  0  0  0  0  0
  -18.1920  -26.7939   22.1628 C   0  0  0  0  0  0
  -19.1518  -28.8851   23.2891 C   0  0  0  0  0  0
  -18.9454  -30.1462   23.8902 C   0  0  0  0  0  0
  -17.6452  -30.6587   24.0570 C   0  0  0  0  0  0
  -25.9027  -34.9468   23.5141 C   0  0  0  0  0  0
  -16.5340  -29.9085   23.6349 C   0  0  0  0  0  0
  -16.7260  -28.6516   23.0355 C   0  0  0  0  0  0
  -26.4485  -31.6594   25.0728 C   0  0  0  0  0  0
  -25.3745  -31.3670   26.1473 C   0  0  0  0  0  0
  -27.0350  -30.3043   24.6105 C   0  0  0  0  0  0
  -27.6066  -32.4319   25.7483 C   0  0  0  0  0  0
  -27.5576  -37.1795   24.8472 C   0  0  0  0  0  0
  -21.4151  -29.3032   22.3731 N   0  0  0  0  0  0
  -26.4285  -37.3790   23.9422 N   0  0  0  0  0  0
  -24.6702  -31.0781   22.1008 N   0  0  0  0  0  0
  -23.4196  -28.8181   23.3041 O   0  0  0  0  0  0
  -28.3655  -26.6523   20.1330 O   0  0  0  0  0  0
  -26.5589  -34.8920   22.4702 O   0  0  0  0  0  0
  -23.5344  -32.1411   23.7503 O   0  0  0  0  0  0
  -28.7637  -17.6231   20.0164 C   0  0  0  0  0  0
  -29.5302  -17.4803   22.3880 C   0  0  0  0  0  0
  -29.7504  -16.4822   19.6845 C   0  0  0  0  0  0
  -30.5017  -16.3517   21.9876 C   0  0  0  0  0  0
  -29.2444  -18.4563   21.2252 C   0  0  0  0  0  0
  -26.8623  -19.1275   23.7080 C   0  0  0  0  0  0
  -26.8021  -22.4020   21.8981 C   0  0  0  0  0  0
  -28.4551  -25.8212   22.3861 C   0  0  0  0  0  0
  -26.9478  -19.1709   22.1733 C   0  0  0  0  0  0
  -28.1659  -20.7029   20.4615 C   0  0  0  0  0  0
  -29.2166  -24.3451   20.4232 C   0  0  0  0  0  0
  -28.3198  -19.6603   21.6214 C   0  0  2  0  0  0
  -27.8586  -22.2078   20.7945 C   0  0  2  0  0  0
  -28.2312  -25.4427   20.9121 C   0  0  2  0  0  0
  -30.0203  -15.5834   20.8275 N   0  0  0  0  0  0
  -29.0865  -23.0025   21.0833 N   0  3  0  0  0  0
  -31.4565  -12.3621   19.1255 H   0  0  0  0  0  0
  -30.2876  -11.2908   19.8468 H   0  0  0  0  0  0
  -29.7221  -11.7464   17.4369 H   0  0  0  0  0  0
  -29.6676  -13.4621   17.7552 H   0  0  0  0  0  0
  -27.8171  -11.3054   18.8295 H   0  0  0  0  0  0
  -27.3613  -12.6246   17.7875 H   0  0  0  0  0  0
  -27.6881  -14.2566   19.5522 H   0  0  0  0  0  0
  -28.6736  -12.0244   21.3943 H   0  0  0  0  0  0
  -28.4867  -13.7040   21.8297 H   0  0  0  0  0  0
  -25.2774   -9.5678   22.4774 H   0  0  0  0  0  0
  -23.9997   -7.4642   22.7483 H   0  0  0  0  0  0
  -21.0859   -8.8809   19.8950 H   0  0  0  0  0  0
  -22.3734  -10.9694   19.6173 H   0  0  0  0  0  0
  -21.2008   -7.6153   23.9720 H   0  0  0  0  0  0
  -21.1472   -6.0523   25.9080 H   0  0  0  0  0  0
  -22.0600   -2.7609   23.2850 H   0  0  0  0  0  0
  -22.4099  -11.9888   22.4770 H   0  0  0  0  0  0
  -21.1116  -13.1269   22.2587 H   0  0  0  0  0  0
  -24.6700  -15.8489   20.5344 H   0  0  0  0  0  0
  -26.2962  -15.6278   20.1295 H   0  0  0  0  0  0
  -26.7124  -32.5545   23.1170 H   0  0  0  0  0  0
  -25.0070  -33.9765   25.0517 H   0  0  0  0  0  0
  -22.6954  -31.3108   21.4156 H   0  0  0  0  0  0
  -23.3739  -35.9634   23.3318 H   0  0  0  0  0  0
  -24.3564  -36.8906   22.2054 H   0  0  0  0  0  0
  -23.7229  -37.6506   23.6657 H   0  0  0  0  0  0
  -26.0503  -31.6036   20.5998 H   0  0  0  0  0  0
  -26.8235  -30.8836   21.9871 H   0  0  0  0  0  0
  -28.1032  -29.0952   21.1734 H   0  0  0  0  0  0
  -26.0558  -25.9795   19.0001 H   0  0  0  0  0  0
  -23.9793  -27.3077   19.0235 H   0  0  0  0  0  0
  -23.7183  -30.6046   19.4095 H   0  0  0  0  0  0
  -22.7373  -29.2457   19.8719 H   0  0  0  0  0  0
  -25.1260  -36.1973   25.0839 H   0  0  0  0  0  0
  -20.9937  -28.3242   24.1442 H   0  0  0  0  0  0
  -20.5704  -26.2267   23.3602 H   0  0  0  0  0  0
  -21.6634  -26.7474   22.1199 H   0  0  0  0  0  0
  -19.6915  -25.6308   21.1240 H   0  0  0  0  0  0
  -19.6702  -27.3221   20.6763 H   0  0  0  0  0  0
  -17.4198  -26.6699   21.4016 H   0  0  0  0  0  0
  -18.0293  -26.0085   22.9021 H   0  0  0  0  0  0
  -19.7924  -30.7269   24.2276 H   0  0  0  0  0  0
  -17.5005  -31.6266   24.5165 H   0  0  0  0  0  0
  -15.5338  -30.2977   23.7686 H   0  0  0  0  0  0
  -15.8659  -28.0828   22.7063 H   0  0  0  0  0  0
  -24.5923  -30.7028   25.7787 H   0  0  0  0  0  0
  -24.8929  -32.2800   26.4963 H   0  0  0  0  0  0
  -25.8081  -30.8796   27.0214 H   0  0  0  0  0  0
  -26.2899  -29.6748   24.1219 H   0  0  0  0  0  0
  -27.4199  -29.7321   25.4560 H   0  0  0  0  0  0
  -27.8688  -30.4384   23.9217 H   0  0  0  0  0  0
  -27.2707  -33.3625   26.2069 H   0  0  0  0  0  0
  -28.3850  -32.6870   25.0284 H   0  0  0  0  0  0
  -28.0766  -31.8444   26.5379 H   0  0  0  0  0  0
  -28.2590  -38.0095   24.7511 H   0  0  0  0  0  0
  -28.1070  -36.2618   24.6301 H   0  0  0  0  0  0
  -27.2285  -37.1433   25.8873 H   0  0  0  0  0  0
  -20.9320  -29.8738   21.6926 H   0  0  0  0  0  0
  -26.0172  -38.2868   24.1428 H   0  0  0  0  0  0
  -27.7814  -17.1907   20.1991 H   0  0  0  0  0  0
  -28.6525  -18.2639   19.1407 H   0  0  0  0  0  0
  -29.9394  -18.0265   23.2399 H   0  0  0  0  0  0
  -28.6027  -17.0178   22.7260 H   0  0  0  0  0  0
  -30.6900  -16.9127   19.3304 H   0  0  0  0  0  0
  -29.3480  -15.9097   18.8459 H   0  0  0  0  0  0
  -30.6369  -15.6831   22.8394 H   0  0  0  0  0  0
  -31.4859  -16.7692   21.7675 H   0  0  0  0  0  0
  -30.2058  -18.8906   20.9438 H   0  0  0  0  0  0
  -25.8817  -18.7708   24.0262 H   0  0  0  0  0  0
  -27.0140  -20.1109   24.1508 H   0  0  0  0  0  0
  -27.6051  -18.4599   24.1421 H   0  0  0  0  0  0
  -25.8538  -21.9450   21.6197 H   0  0  0  0  0  0
  -26.5796  -23.4473   22.0940 H   0  0  0  0  0  0
  -27.1234  -21.9735   22.8461 H   0  0  0  0  0  0
  -28.4003  -24.9541   23.0410 H   0  0  0  0  0  0
  -27.6997  -26.5285   22.7282 H   0  0  0  0  0  0
  -29.4287  -26.2886   22.5272 H   0  0  0  0  0  0
  -26.1368  -19.7949   21.8064 H   0  0  0  0  0  0
  -26.6981  -18.1837   21.7889 H   0  0  0  0  0  0
  -27.3769  -20.3389   19.8000 H   0  0  0  0  0  0
  -29.0605  -20.6794   19.8387 H   0  0  0  0  0  0
  -30.2372  -24.6961   20.5811 H   0  0  0  0  0  0
  -29.1102  -24.2181   19.3457 H   0  0  0  0  0  0
  -28.8382  -20.1832   22.4272 H   0  0  0  0  0  0
  -27.4379  -22.6190   19.8754 H   0  0  0  0  0  0
  -27.2234  -25.0504   20.7948 H   0  0  0  0  0  0
  -29.2118  -23.0829   22.0804 H   0  0  0  0  0  0
  -29.8640  -22.4538   20.7496 H   0  0  0  0  0  0
  1 25  1  0  0  0
  1 30  2  0  0  0
  1 85  1  0  0  0
  2  3  1  0  0  0
  2 25  1  0  0  0
  2 87  1  0  0  0
  2 88  1  0  0  0
  3  4  1  0  0  0
  3 89  1  0  0  0
  3 90  1  0  0  0
  4  5  1  0  0  0
  4 91  1  0  0  0
  4 92  1  0  0  0
  5  6  1  0  0  0
  5 26  1  0  0  0
  5 93  1  0  0  0
  6 25  1  0  0  0
  6 94  1  0  0  0
  6 95  1  0  0  0
  7  8  2  0  0  0
  7 26  1  0  0  0
  7 29  1  0  0  0
  8  9  1  0  0  0
  8 22  1  0  0  0
  9 10  1  0  0  0
  9 27  2  0  0  0
 10 11  2  0  0  0
 10 15  1  0  0  0
 11 12  1  0  0  0
 11 96  1  0  0  0
 12 13  2  0  0  0
 12 97  1  0  0  0
 13 14  1  0  0  0
 13 31  1  0  0  0
 14 15  2  0  0  0
 14 98  1  0  0  0
 15 99  1  0  0  0
 16 17  2  0  0  0
 16 21  1  0  0  0
 16 31  1  0  0  0
 17 18  1  0  0  0
 17100  1  0  0  0
 18 19  2  0  0  0
 18101  1  0  0  0
 19 20  1  0  0  0
 19 24  1  0  0  0
 20 21  2  0  0  0
 20102  1  0  0  0
 21 23  1  0  0  0
 22 28  1  0  0  0
 22 32  2  0  0  0
 26 27  1  0  0  0
 28103  1  0  0  0
 28104  1  0  0  0
 29105  1  0  0  0
 29106  1  0  0  0
 33 34  1  0  0  0
 33 66  1  0  0  0
 33 70  2  0  0  0
 34 36  1  0  0  0
 34 59  1  0  0  0
 34107  1  0  0  0
 35 44  2  0  0  0
 35 45  1  0  0  0
 35 68  1  0  0  0
 36 56  1  0  0  0
 36108  1  0  0  0
 37 39  1  0  0  0
 37 47  1  0  0  0
 37 66  1  0  0  0
 37109  1  0  0  0
 38 43  2  0  0  0
 38 46  1  0  0  0
 38 47  1  0  0  0
 39 64  1  0  0  0
 39 67  2  0  0  0
 40 52  1  0  0  0
 40 53  2  0  0  0
 40 58  1  0  0  0
 41110  1  0  0  0
 41111  1  0  0  0
 41112  1  0  0  0
 41 48  1  0  0  0
 42 43  1  0  0  0
 42 66  1  0  0  0
 42113  1  0  0  0
 42114  1  0  0  0
 43 44  1  0  0  0
 44115  1  0  0  0
 45 46  2  0  0  0
 45116  1  0  0  0
 46117  1  0  0  0
 47118  1  0  0  0
 47119  1  0  0  0
 48 56  1  0  0  0
 48 65  1  0  0  0
 48120  1  0  0  0
 49 50  1  0  0  0
 49 53  1  0  0  0
 49 64  1  0  0  0
 49121  1  0  0  0
 50 51  1  0  0  0
 50122  1  0  0  0
 50123  1  0  0  0
 51 52  1  0  0  0
 51124  1  0  0  0
 51125  1  0  0  0
 52126  1  0  0  0
 52127  1  0  0  0
 53 54  1  0  0  0
 54 55  2  0  0  0
 54128  1  0  0  0
 55 57  1  0  0  0
 55129  1  0  0  0
 56 69  2  0  0  0
 57 58  2  0  0  0
 57130  1  0  0  0
 58131  1  0  0  0
 59 60  1  0  0  0
 59 61  1  0  0  0
 59 62  1  0  0  0
 60132  1  0  0  0
 60133  1  0  0  0
 60134  1  0  0  0
 61135  1  0  0  0
 61136  1  0  0  0
 61137  1  0  0  0
 62138  1  0  0  0
 62139  1  0  0  0
 62140  1  0  0  0
 63 65  1  0  0  0
 63141  1  0  0  0
 63142  1  0  0  0
 63143  1  0  0  0
 64144  1  0  0  0
 65145  1  0  0  0
 68 84  1  0  0  0
 71 73  1  0  0  0
 71146  1  0  0  0
 71147  1  0  0  0
 71 75  1  0  0  0
 72 74  1  0  0  0
 72 75  1  0  0  0
 72148  1  0  0  0
 72149  1  0  0  0
 73 85  1  0  0  0
 73150  1  0  0  0
 73151  1  0  0  0
 74 85  1  0  0  0
 74152  1  0  0  0
 74153  1  0  0  0
 75 82  1  0  0  0
 75154  1  0  0  0
 76 79  1  0  0  0
 76155  1  0  0  0
 76156  1  0  0  0
 76157  1  0  0  0
 77158  1  0  0  0
 77159  1  0  0  0
 77160  1  0  0  0
 77 83  1  0  0  0
 78161  1  0  0  0
 78162  1  0  0  0
 78163  1  0  0  0
 78 84  1  0  0  0
 79164  1  0  0  0
 79165  1  0  0  0
 79 82  1  0  0  0
 80 82  1  0  0  0
 80 83  1  0  0  0
 80166  1  0  0  0
 80167  1  0  0  0
 81 84  1  0  0  0
 81 86  1  0  0  0
 81168  1  0  0  0
 81169  1  0  0  0
 82170  1  0  0  0
 83 86  1  0  0  0
 83171  1  0  0  0
 84172  1  0  0  0
 86173  1  0  0  0
 86174  1  0  0  0
M  CHG  1  86   1
M  ISO  4   1 100  68 101  84 101  85 100
M  END
> <chiral flag>
0

> <version>
0

> <s_m_source_file>
/data/baiqing/PycharmProjects/Reinvent-master-3.2/result/LINK_invent/BTK/process_docking_weight1_custom_sum_contain_oxygen_bond_distance_aromatic_linkinvent_7_9_3/rearranged_h_0115.sdf

> <i_m_source_file_index>
27

> <r_mmod_Potential_Energy-OPLS-2005>
109.400581359863

> <r_mmod_Stretch_Energy-OPLS-2005>
44.4069938659668

> <r_mmod_Bend_Energy-OPLS-2005>
118.267379760742

> <r_mmod_Torsional_Energy-OPLS-2005>
391.309661865234

> <r_mmod_Improper_Torsional_Energy-OPLS-2005>
10.3353357315063

> <r_mmod_Van_der_Waal_Energy-OPLS-2005>
132.304397583008

> <r_mmod_Electrostatic_Energy-OPLS-2005>
-194.849761962891

> <r_mmod_Solvation_Energy-OPLS-2005>
-410.375518798828

> <b_mmod_Minimization_Converged-OPLS-2005>
0

> <r_mmod_RMS_Derivative-OPLS-2005>
2.0384693145752

$$$$
27
                    3D
 Structure written by MMmdl.
159167  0  0  1  0            999 V2000
  -30.7130  -14.4419   20.5984 C   0  0  0  0  0  0
  -30.4303  -12.3042   19.4064 C   0  0  0  0  0  0
  -29.4944  -12.5119   18.1987 C   0  0  0  0  0  0
  -28.0153  -12.3748   18.6126 C   0  0  0  0  0  0
  -27.6655  -13.2056   19.8766 C   0  0  2  0  0  0
  -28.7079  -12.9646   20.9914 C   0  0  0  0  0  0
  -25.2599  -13.8175   20.5657 C   0  0  0  0  0  0
  -24.1851  -13.0454   20.9166 C   0  0  0  0  0  0
  -24.6409  -11.6922   20.8740 C   0  0  0  0  0  0
  -23.9079  -10.4305   21.0415 C   0  0  0  0  0  0
  -24.3631   -9.4221   21.9183 C   0  0  0  0  0  0
  -23.6309   -8.2257   22.0761 C   0  0  0  0  0  0
  -22.4290   -8.0296   21.3555 C   0  0  0  0  0  0
  -21.9924   -9.0272   20.4660 C   0  0  0  0  0  0
  -22.7259  -10.2150   20.3061 C   0  0  0  0  0  0
  -21.6853   -6.0748   22.5289 C   0  0  0  0  0  0
  -21.4015   -6.5647   23.8223 C   0  0  0  0  0  0
  -21.3657   -5.6797   24.9180 C   0  0  0  0  0  0
  -21.6042   -4.3059   24.7226 C   0  0  0  0  0  0
  -21.8817   -3.8156   23.4345 C   0  0  0  0  0  0
  -21.9193   -4.6976   22.3407 C   0  0  0  0  0  0
  -22.7868  -13.5252   21.1823 C   0  0  0  0  0  0
  -22.1659   -4.2167   21.0979 F   0  0  0  0  0  0
  -21.5626   -3.4540   25.7731 F   0  0  0  0  0  0
  -30.0422  -13.2710   20.4421 N   0  0  0  0  0  0
  -26.3046  -12.9345   20.3369 N   0  0  0  0  0  0
  -25.9334  -11.6504   20.5770 N   0  0  0  0  0  0
  -22.0501  -12.8257   22.0383 N   0  0  0  0  0  0
  -25.4300  -15.1899   20.4050 N   0  0  0  0  0  0
  -31.8214  -14.6635   20.1049 O   0  0  0  0  0  0
  -21.6647   -6.8901   21.4255 O   0  0  0  0  0  0
  -22.3553  -14.5555   20.6676 O   0  0  0  0  0  0
  -24.6119  -31.8694   23.2121 C   0  0  0  0  0  0
  -25.9022  -32.4827   23.8405 C   0  0  1  0  0  0
  -27.2347  -27.4596   20.1002 C   0  0  0  0  0  0
  -25.5890  -33.8622   24.2339 N   0  0  0  0  0  0
  -23.3991  -30.4925   21.5522 C   0  0  2  0  0  0
  -24.8469  -28.9604   20.1171 C   0  0  0  0  0  0
  -22.7392  -29.4663   22.5004 C   0  0  0  0  0  0
  -18.0265  -28.1375   22.8496 C   0  0  0  0  0  0
  -24.1485  -36.7314   23.2638 C   0  0  0  0  0  0
  -25.9248  -30.8435   21.3616 C   0  0  0  0  0  0
  -26.0054  -29.4794   20.7109 C   0  0  0  0  0  0
  -27.2053  -28.7354   20.6998 C   0  0  0  0  0  0
  -26.0646  -26.9485   19.4995 C   0  0  0  0  0  0
  -24.8700  -27.6923   19.5096 C   0  0  0  0  0  0
  -23.6070  -29.8238   20.1665 C   0  0  0  0  0  0
  -25.4107  -36.3116   24.0341 C   0  0  1  0  0  0
  -20.5848  -28.3653   23.1333 C   0  0  2  0  0  0
  -20.6762  -26.9396   22.5423 C   0  0  0  0  0  0
  -19.5745  -26.6388   21.5215 C   0  0  0  0  0  0
  -18.1922  -26.7924   22.1624 C   0  0  0  0  0  0
  -19.1513  -28.8835   23.2910 C   0  0  0  0  0  0
  -18.9444  -30.1443   23.8917 C   0  0  0  0  0  0
  -17.6449  -30.6586   24.0567 C   0  0  0  0  0  0
  -25.9030  -34.9478   23.5137 C   0  0  0  0  0  0
  -16.5338  -29.9090   23.6326 C   0  0  0  0  0  0
  -16.7257  -28.6503   23.0354 C   0  0  0  0  0  0
  -26.4467  -31.6592   25.0715 C   0  0  0  0  0  0
  -25.3747  -31.3683   26.1468 C   0  0  0  0  0  0
  -27.0283  -30.3042   24.6060 C   0  0  0  0  0  0
  -27.6051  -32.4298   25.7476 C   0  0  0  0  0  0
  -27.5580  -37.1814   24.8469 C   0  0  0  0  0  0
  -21.4124  -29.3025   22.3742 N   0  0  0  0  0  0
  -26.4296  -37.3799   23.9408 N   0  0  0  0  0  0
  -24.6633  -31.0815   22.1013 N   0  0  0  0  0  0
  -23.4174  -28.8210   23.3037 O   0  0  0  0  0  0
  -28.3873  -26.7144   20.0902 O   0  0  0  0  0  0
  -26.5591  -34.8925   22.4696 O   0  0  0  0  0  0
  -23.5322  -32.1427   23.7538 O   0  0  0  0  0  0
  -30.7845  -23.3692   18.9552 C   0  0  0  0  0  0
  -30.1361  -22.1854   20.9801 C   0  0  0  0  0  0
  -29.9845  -24.4672   19.3346 C   0  0  0  0  0  0
  -29.3332  -23.2822   21.3576 C   0  0  0  0  0  0
  -30.8623  -22.2188   19.7712 C   0  0  0  0  0  0
  -29.2469  -24.4277   20.5369 C   0  0  0  0  0  0
  -30.3348  -17.7220   20.2078 C   0  0  0  0  0  0
  -29.5072  -17.2002   19.0335 C   0  0  0  0  0  0
  -31.7302  -21.0360   19.3482 C   0  0  0  0  0  0
  -28.3302  -25.5730   20.9511 C   0  0  0  0  0  0
  -30.4348  -16.7973   21.4310 C   0  0  0  0  0  0
  -30.9496  -19.7292   19.0721 C   0  0  0  0  0  0
  -30.9329  -18.8527   20.2403 N   0  0  0  0  0  0
  -30.0228  -15.4024   21.2271 N   0  0  0  0  0  0
  -31.4718  -12.4208   19.1003 H   0  0  0  0  0  0
  -30.3467  -11.2886   19.7942 H   0  0  0  0  0  0
  -29.7313  -11.7947   17.4120 H   0  0  0  0  0  0
  -29.6647  -13.5008   17.7698 H   0  0  0  0  0  0
  -27.8202  -11.3182   18.7980 H   0  0  0  0  0  0
  -27.3670  -12.6634   17.7836 H   0  0  0  0  0  0
  -27.7152  -14.2572   19.5925 H   0  0  0  0  0  0
  -28.6802  -11.9226   21.3153 H   0  0  0  0  0  0
  -28.4674  -13.5475   21.8809 H   0  0  0  0  0  0
  -25.2784   -9.5691   22.4742 H   0  0  0  0  0  0
  -24.0025   -7.4649   22.7478 H   0  0  0  0  0  0
  -21.0854   -8.8806   19.8966 H   0  0  0  0  0  0
  -22.3739  -10.9685   19.6160 H   0  0  0  0  0  0
  -21.2008   -7.6154   23.9739 H   0  0  0  0  0  0
  -21.1476   -6.0516   25.9088 H   0  0  0  0  0  0
  -22.0596   -2.7617   23.2837 H   0  0  0  0  0  0
  -22.4106  -11.9926   22.4798 H   0  0  0  0  0  0
  -21.1123  -13.1308   22.2585 H   0  0  0  0  0  0
  -24.6592  -15.8422   20.5035 H   0  0  0  0  0  0
  -26.2801  -15.6329   20.0806 H   0  0  0  0  0  0
  -26.7093  -32.5562   23.1176 H   0  0  0  0  0  0
  -25.0053  -33.9787   25.0493 H   0  0  0  0  0  0
  -22.6876  -31.3091   21.4148 H   0  0  0  0  0  0
  -23.3740  -35.9653   23.3322 H   0  0  0  0  0  0
  -24.3578  -36.8905   22.2046 H   0  0  0  0  0  0
  -23.7242  -37.6532   23.6631 H   0  0  0  0  0  0
  -26.0316  -31.6106   20.5928 H   0  0  0  0  0  0
  -26.8150  -30.9001   21.9763 H   0  0  0  0  0  0
  -28.1015  -29.1288   21.1591 H   0  0  0  0  0  0
  -26.0807  -25.9752   19.0278 H   0  0  0  0  0  0
  -23.9787  -27.2870   19.0496 H   0  0  0  0  0  0
  -23.7128  -30.5994   19.4071 H   0  0  0  0  0  0
  -22.7323  -29.2419   19.8705 H   0  0  0  0  0  0
  -25.1284  -36.1988   25.0835 H   0  0  0  0  0  0
  -20.9945  -28.3217   24.1449 H   0  0  0  0  0  0
  -20.5679  -26.2257   23.3600 H   0  0  0  0  0  0
  -21.6637  -26.7457   22.1211 H   0  0  0  0  0  0
  -19.6914  -25.6307   21.1232 H   0  0  0  0  0  0
  -19.6691  -27.3210   20.6756 H   0  0  0  0  0  0
  -17.4194  -26.6666   21.4025 H   0  0  0  0  0  0
  -18.0327  -26.0060   22.9015 H   0  0  0  0  0  0
  -19.7923  -30.7252   24.2297 H   0  0  0  0  0  0
  -17.5006  -31.6270   24.5160 H   0  0  0  0  0  0
  -15.5343  -30.3003   23.7644 H   0  0  0  0  0  0
  -15.8650  -28.0832   22.7068 H   0  0  0  0  0  0
  -24.5931  -30.7016   25.7813 H   0  0  0  0  0  0
  -24.8920  -32.2827   26.4923 H   0  0  0  0  0  0
  -25.8112  -30.8858   27.0219 H   0  0  0  0  0  0
  -26.2809  -29.6816   24.1127 H   0  0  0  0  0  0
  -27.4084  -29.7261   25.4492 H   0  0  0  0  0  0
  -27.8633  -30.4369   23.9175 H   0  0  0  0  0  0
  -27.2684  -33.3595   26.2072 H   0  0  0  0  0  0
  -28.3854  -32.6854   25.0297 H   0  0  0  0  0  0
  -28.0717  -31.8400   26.5376 H   0  0  0  0  0  0
  -28.2619  -38.0094   24.7506 H   0  0  0  0  0  0
  -28.1058  -36.2626   24.6311 H   0  0  0  0  0  0
  -27.2294  -37.1489   25.8873 H   0  0  0  0  0  0
  -20.9278  -29.8728   21.6951 H   0  0  0  0  0  0
  -26.0188  -38.2881   24.1406 H   0  0  0  0  0  0
  -31.3363  -23.4206   18.0265 H   0  0  0  0  0  0
  -30.1840  -21.3126   21.6163 H   0  0  0  0  0  0
  -29.9347  -25.3349   18.6912 H   0  0  0  0  0  0
  -28.7714  -23.2376   22.2816 H   0  0  0  0  0  0
  -29.1417  -17.9926   18.3840 H   0  0  0  0  0  0
  -28.6249  -16.6730   19.3939 H   0  0  0  0  0  0
  -30.1012  -16.5125   18.4299 H   0  0  0  0  0  0
  -32.5114  -20.8757   20.0932 H   0  0  0  0  0  0
  -32.2579  -21.3204   18.4368 H   0  0  0  0  0  0
  -28.6028  -25.8935   21.9577 H   0  0  0  0  0  0
  -27.3200  -25.1633   21.0215 H   0  0  0  0  0  0
  -31.4594  -16.8158   21.8087 H   0  0  0  0  0  0
  -29.8160  -17.2159   22.2255 H   0  0  0  0  0  0
  -31.4441  -19.2107   18.2478 H   0  0  0  0  0  0
  -29.9464  -19.9813   18.7233 H   0  0  0  0  0  0
  -29.1085  -15.1475   21.5678 H   0  0  0  0  0  0
  1 25  1  0  0  0
  1 30  2  0  0  0
  1 84  1  0  0  0
  2  3  1  0  0  0
  2 25  1  0  0  0
  2 85  1  0  0  0
  2 86  1  0  0  0
  3  4  1  0  0  0
  3 87  1  0  0  0
  3 88  1  0  0  0
  4  5  1  0  0  0
  4 89  1  0  0  0
  4 90  1  0  0  0
  5  6  1  0  0  0
  5 26  1  0  0  0
  5 91  1  0  0  0
  6 25  1  0  0  0
  6 92  1  0  0  0
  6 93  1  0  0  0
  7  8  2  0  0  0
  7 26  1  0  0  0
  7 29  1  0  0  0
  8  9  1  0  0  0
  8 22  1  0  0  0
  9 10  1  0  0  0
  9 27  2  0  0  0
 10 11  2  0  0  0
 10 15  1  0  0  0
 11 12  1  0  0  0
 11 94  1  0  0  0
 12 13  2  0  0  0
 12 95  1  0  0  0
 13 14  1  0  0  0
 13 31  1  0  0  0
 14 15  2  0  0  0
 14 96  1  0  0  0
 15 97  1  0  0  0
 16 17  2  0  0  0
 16 21  1  0  0  0
 16 31  1  0  0  0
 17 18  1  0  0  0
 17 98  1  0  0  0
 18 19  2  0  0  0
 18 99  1  0  0  0
 19 20  1  0  0  0
 19 24  1  0  0  0
 20 21  2  0  0  0
 20100  1  0  0  0
 21 23  1  0  0  0
 22 28  1  0  0  0
 22 32  2  0  0  0
 26 27  1  0  0  0
 28101  1  0  0  0
 28102  1  0  0  0
 29103  1  0  0  0
 29104  1  0  0  0
 33 34  1  0  0  0
 33 66  1  0  0  0
 33 70  2  0  0  0
 34 36  1  0  0  0
 34 59  1  0  0  0
 34105  1  0  0  0
 35 44  2  0  0  0
 35 45  1  0  0  0
 35 68  1  0  0  0
 36 56  1  0  0  0
 36106  1  0  0  0
 37 39  1  0  0  0
 37 47  1  0  0  0
 37 66  1  0  0  0
 37107  1  0  0  0
 38 43  2  0  0  0
 38 46  1  0  0  0
 38 47  1  0  0  0
 39 64  1  0  0  0
 39 67  2  0  0  0
 40 52  1  0  0  0
 40 53  2  0  0  0
 40 58  1  0  0  0
 41108  1  0  0  0
 41109  1  0  0  0
 41110  1  0  0  0
 41 48  1  0  0  0
 42 43  1  0  0  0
 42 66  1  0  0  0
 42111  1  0  0  0
 42112  1  0  0  0
 43 44  1  0  0  0
 44113  1  0  0  0
 45 46  2  0  0  0
 45114  1  0  0  0
 46115  1  0  0  0
 47116  1  0  0  0
 47117  1  0  0  0
 48 56  1  0  0  0
 48 65  1  0  0  0
 48118  1  0  0  0
 49 50  1  0  0  0
 49 53  1  0  0  0
 49 64  1  0  0  0
 49119  1  0  0  0
 50 51  1  0  0  0
 50120  1  0  0  0
 50121  1  0  0  0
 51 52  1  0  0  0
 51122  1  0  0  0
 51123  1  0  0  0
 52124  1  0  0  0
 52125  1  0  0  0
 53 54  1  0  0  0
 54 55  2  0  0  0
 54126  1  0  0  0
 55 57  1  0  0  0
 55127  1  0  0  0
 56 69  2  0  0  0
 57 58  2  0  0  0
 57128  1  0  0  0
 58129  1  0  0  0
 59 60  1  0  0  0
 59 61  1  0  0  0
 59 62  1  0  0  0
 60130  1  0  0  0
 60131  1  0  0  0
 60132  1  0  0  0
 61133  1  0  0  0
 61134  1  0  0  0
 61135  1  0  0  0
 62136  1  0  0  0
 62137  1  0  0  0
 62138  1  0  0  0
 63 65  1  0  0  0
 63139  1  0  0  0
 63140  1  0  0  0
 63141  1  0  0  0
 64142  1  0  0  0
 65143  1  0  0  0
 68 80  1  0  0  0
 71 73  2  0  0  0
 71 75  1  0  0  0
 71144  1  0  0  0
 72 74  1  0  0  0
 72 75  2  0  0  0
 72145  1  0  0  0
 73 76  1  0  0  0
 73146  1  0  0  0
 74 76  2  0  0  0
 74147  1  0  0  0
 75 79  1  0  0  0
 76 80  1  0  0  0
 77 78  1  0  0  0
 77 81  1  0  0  0
 77 83  2  0  0  0
 78148  1  0  0  0
 78149  1  0  0  0
 78150  1  0  0  0
 79 82  1  0  0  0
 79151  1  0  0  0
 79152  1  0  0  0
 80153  1  0  0  0
 80154  1  0  0  0
 81 84  1  0  0  0
 81155  1  0  0  0
 81156  1  0  0  0
 82 83  1  0  0  0
 82157  1  0  0  0
 82158  1  0  0  0
 84159  1  0  0  0
M  ISO  4   1 100  68 101  80 101  84 100
M  END
> <chiral flag>
0

> <version>
0

> <s_m_source_file>
/data/baiqing/PycharmProjects/Reinvent-master-3.2/result/LINK_invent/BTK/process_docking_weight1_custom_sum_contain_oxygen_bond_distance_aromatic_linkinvent_7_9_3/rearranged_h_0115.sdf

> <i_m_source_file_index>
28

> <r_mmod_Potential_Energy-OPLS-2005>
-126.258651733398

> <r_mmod_Stretch_Energy-OPLS-2005>
35.095272064209

> <r_mmod_Bend_Energy-OPLS-2005>
93.6629104614258

> <r_mmod_Torsional_Energy-OPLS-2005>
233.408065795898

> <r_mmod_Improper_Torsional_Energy-OPLS-2005>
2.92937302589417

> <r_mmod_Van_der_Waal_Energy-OPLS-2005>
157.703918457031

> <r_mmod_Electrostatic_Energy-OPLS-2005>
-441.738922119141

> <r_mmod_Solvation_Energy-OPLS-2005>
-216.596893310547

> <b_mmod_Minimization_Converged-OPLS-2005>
0

> <r_mmod_RMS_Derivative-OPLS-2005>
1.71592962741852

$$$$
28
                    3D
 Structure written by MMmdl.
154162  0  0  1  0            999 V2000
  -30.3842  -15.2868   20.3858 C   0  0  0  0  0  0
  -30.4501  -12.8108   19.5460 C   0  0  0  0  0  0
  -29.5487  -12.6002   18.3002 C   0  0  0  0  0  0
  -28.0936  -12.3142   18.7137 C   0  0  0  0  0  0
  -27.6180  -13.2757   19.8296 C   0  0  2  0  0  0
  -28.6467  -13.4215   20.9704 C   0  0  0  0  0  0
  -25.2410  -13.8250   20.5727 C   0  0  0  0  0  0
  -24.1757  -13.0433   20.9245 C   0  0  0  0  0  0
  -24.6414  -11.6934   20.8746 C   0  0  0  0  0  0
  -23.9105  -10.4292   21.0398 C   0  0  0  0  0  0
  -24.3647   -9.4208   21.9177 C   0  0  0  0  0  0
  -23.6314   -8.2244   22.0747 C   0  0  0  0  0  0
  -22.4291   -8.0289   21.3542 C   0  0  0  0  0  0
  -21.9938   -9.0260   20.4634 C   0  0  0  0  0  0
  -22.7278  -10.2134   20.3046 C   0  0  0  0  0  0
  -21.6853   -6.0744   22.5286 C   0  0  0  0  0  0
  -21.4012   -6.5643   23.8223 C   0  0  0  0  0  0
  -21.3666   -5.6793   24.9182 C   0  0  0  0  0  0
  -21.6047   -4.3058   24.7226 C   0  0  0  0  0  0
  -21.8819   -3.8150   23.4348 C   0  0  0  0  0  0
  -21.9192   -4.6971   22.3405 C   0  0  0  0  0  0
  -22.7770  -13.5177   21.1904 C   0  0  0  0  0  0
  -22.1659   -4.2159   21.0982 F   0  0  0  0  0  0
  -21.5633   -3.4537   25.7738 F   0  0  0  0  0  0
  -29.8894  -13.9438   20.3746 N   0  0  0  0  0  0
  -26.2839  -12.9522   20.3198 N   0  0  0  0  0  0
  -25.9351  -11.6626   20.5687 N   0  0  0  0  0  0
  -22.0433  -12.8150   22.0458 N   0  0  0  0  0  0
  -25.4062  -15.1984   20.4192 N   0  0  0  0  0  0
  -31.5821  -15.3245   20.0584 O   0  0  0  0  0  0
  -21.6644   -6.8893   21.4250 O   0  0  0  0  0  0
  -22.3436  -14.5479   20.6759 O   0  0  0  0  0  0
  -24.6644  -31.8207   23.1680 C   0  0  0  0  0  0
  -25.9311  -32.4576   23.8161 C   0  0  1  0  0  0
  -27.2242  -26.9053   20.1900 C   0  0  0  0  0  0
  -25.5973  -33.8388   24.2063 N   0  0  0  0  0  0
  -23.4818  -30.4285   21.5175 C   0  0  2  0  0  0
  -24.9382  -28.8099   20.1146 C   0  0  0  0  0  0
  -22.7701  -29.4404   22.4788 C   0  0  0  0  0  0
  -18.0320  -28.1418   22.8463 C   0  0  0  0  0  0
  -24.1501  -36.7192   23.2643 C   0  0  0  0  0  0
  -26.0523  -30.6202   21.4021 C   0  0  0  0  0  0
  -26.1217  -29.2067   20.7487 C   0  0  0  0  0  0
  -27.2587  -28.2764   20.7583 C   0  0  0  0  0  0
  -26.0096  -26.6634   19.5092 C   0  0  0  0  0  0
  -24.9099  -27.5617   19.4709 C   0  0  0  0  0  0
  -23.7239  -29.7376   20.1465 C   0  0  0  0  0  0
  -25.4146  -36.2950   24.0290 C   0  0  1  0  0  0
  -20.5951  -28.3754   23.1191 C   0  0  2  0  0  0
  -20.6800  -26.9437   22.5410 C   0  0  0  0  0  0
  -19.5772  -26.6379   21.5225 C   0  0  0  0  0  0
  -18.1951  -26.7950   22.1622 C   0  0  0  0  0  0
  -19.1586  -28.8913   23.2807 C   0  0  0  0  0  0
  -18.9488  -30.1501   23.8844 C   0  0  0  0  0  0
  -17.6480  -30.6605   24.0552 C   0  0  0  0  0  0
  -25.9106  -34.9335   23.4997 C   0  0  0  0  0  0
  -16.5372  -29.9088   23.6345 C   0  0  0  0  0  0
  -16.7301  -28.6510   23.0364 C   0  0  0  0  0  0
  -26.4564  -31.6531   25.0695 C   0  0  0  0  0  0
  -25.3676  -31.3777   26.1338 C   0  0  0  0  0  0
  -27.0466  -30.2899   24.6436 C   0  0  0  0  0  0
  -27.6062  -32.4344   25.7492 C   0  0  0  0  0  0
  -27.5575  -37.1758   24.8462 C   0  0  0  0  0  0
  -21.4370  -29.3026   22.3545 N   0  0  0  0  0  0
  -26.4286  -37.3692   23.9401 N   0  0  0  0  0  0
  -24.7540  -30.9857   22.0817 N   0  0  0  0  0  0
  -23.4241  -28.7972   23.3033 O   0  0  0  0  0  0
  -28.2331  -25.8004   20.2718 O   0  0  0  0  0  0
  -26.5718  -34.8867   22.4594 O   0  0  0  0  0  0
  -23.5709  -32.1171   23.6769 O   0  0  0  0  0  0
  -28.6773  -20.3220   19.1199 C   0  0  0  0  0  0
  -29.4332  -18.4930   20.3262 C   0  0  0  0  0  0
  -29.5110  -19.8197   20.9790 C   0  0  0  0  0  0
  -30.0157  -20.0266   22.3701 C   0  0  0  0  0  0
  -31.6977  -22.3568   20.0270 C   0  0  0  0  0  0
  -29.5249  -16.7818   20.7912 C   0  0  0  0  0  0
  -30.4350  -23.1817   19.7261 C   0  0  0  0  0  0
  -28.0382  -24.1537   20.1096 C   0  0  0  0  0  0
  -29.1281  -22.7339   20.4223 C   0  0  1  0  0  0
  -28.8479  -18.9565   19.1218 N   0  0  0  0  0  0
  -29.0391  -21.0441   20.2125 N   0  0  0  0  0  0
  -31.4717  -13.0169   19.2241 H   0  0  0  0  0  0
  -30.5140  -11.8939   20.1347 H   0  0  0  0  0  0
  -29.9318  -11.7879   17.6822 H   0  0  0  0  0  0
  -29.5801  -13.4989   17.6828 H   0  0  0  0  0  0
  -28.0455  -11.2848   19.0705 H   0  0  0  0  0  0
  -27.4322  -12.3701   17.8486 H   0  0  0  0  0  0
  -27.5424  -14.2514   19.3486 H   0  0  0  0  0  0
  -28.8064  -12.4692   21.4787 H   0  0  0  0  0  0
  -28.2773  -14.1137   21.7282 H   0  0  0  0  0  0
  -25.2794   -9.5672   22.4750 H   0  0  0  0  0  0
  -24.0026   -7.4623   22.7456 H   0  0  0  0  0  0
  -21.0877   -8.8783   19.8921 H   0  0  0  0  0  0
  -22.3755  -10.9670   19.6146 H   0  0  0  0  0  0
  -21.2003   -7.6150   23.9733 H   0  0  0  0  0  0
  -21.1488   -6.0517   25.9088 H   0  0  0  0  0  0
  -22.0591   -2.7612   23.2845 H   0  0  0  0  0  0
  -22.4070  -11.9833   22.4869 H   0  0  0  0  0  0
  -21.1033  -13.1135   22.2638 H   0  0  0  0  0  0
  -24.6387  -15.8512   20.5370 H   0  0  0  0  0  0
  -26.2524  -15.6415   20.0839 H   0  0  0  0  0  0
  -26.7377  -32.5114   23.0876 H   0  0  0  0  0  0
  -25.0088  -33.9477   25.0191 H   0  0  0  0  0  0
  -22.7934  -31.2579   21.3415 H   0  0  0  0  0  0
  -23.3779  -35.9507   23.3269 H   0  0  0  0  0  0
  -24.3567  -36.8882   22.2064 H   0  0  0  0  0  0
  -23.7257  -37.6364   23.6732 H   0  0  0  0  0  0
  -26.2359  -31.3576   20.6198 H   0  0  0  0  0  0
  -26.9111  -30.6808   22.0590 H   0  0  0  0  0  0
  -28.1563  -28.5788   21.2793 H   0  0  0  0  0  0
  -25.8781  -25.7061   19.0256 H   0  0  0  0  0  0
  -24.0125  -27.2563   18.9510 H   0  0  0  0  0  0
  -23.8821  -30.5001   19.3833 H   0  0  0  0  0  0
  -22.8353  -29.1884   19.8292 H   0  0  0  0  0  0
  -25.1359  -36.1734   25.0784 H   0  0  0  0  0  0
  -21.0024  -28.3361   24.1321 H   0  0  0  0  0  0
  -20.5701  -26.2374   23.3656 H   0  0  0  0  0  0
  -21.6659  -26.7427   22.1204 H   0  0  0  0  0  0
  -19.6935  -25.6279   21.1283 H   0  0  0  0  0  0
  -19.6708  -27.3170   20.6738 H   0  0  0  0  0  0
  -17.4232  -26.6698   21.4016 H   0  0  0  0  0  0
  -18.0323  -26.0111   22.9033 H   0  0  0  0  0  0
  -19.7960  -30.7333   24.2198 H   0  0  0  0  0  0
  -17.5023  -31.6273   24.5172 H   0  0  0  0  0  0
  -15.5369  -30.2967   23.7699 H   0  0  0  0  0  0
  -15.8700  -28.0805   22.7116 H   0  0  0  0  0  0
  -24.5890  -30.7099   25.7628 H   0  0  0  0  0  0
  -24.8821  -32.2969   26.4622 H   0  0  0  0  0  0
  -25.7885  -30.9030   27.0212 H   0  0  0  0  0  0
  -26.3130  -29.6573   24.1426 H   0  0  0  0  0  0
  -27.3980  -29.7266   25.5091 H   0  0  0  0  0  0
  -27.9080  -30.4080   23.9860 H   0  0  0  0  0  0
  -27.2652  -33.3708   26.1919 H   0  0  0  0  0  0
  -28.3949  -32.6809   25.0367 H   0  0  0  0  0  0
  -28.0649  -31.8568   26.5531 H   0  0  0  0  0  0
  -28.2568  -38.0077   24.7518 H   0  0  0  0  0  0
  -28.1102  -36.2603   24.6293 H   0  0  0  0  0  0
  -27.2276  -37.1395   25.8858 H   0  0  0  0  0  0
  -20.9662  -29.8695   21.6635 H   0  0  0  0  0  0
  -26.0125  -38.2743   24.1419 H   0  0  0  0  0  0
  -28.2853  -20.8235   18.2464 H   0  0  0  0  0  0
  -30.0252  -19.0903   22.9281 H   0  0  0  0  0  0
  -29.3851  -20.7258   22.9192 H   0  0  0  0  0  0
  -31.0330  -20.4166   22.3635 H   0  0  0  0  0  0
  -32.5705  -22.8257   19.5711 H   0  0  0  0  0  0
  -31.6384  -21.3437   19.6284 H   0  0  0  0  0  0
  -31.8840  -22.2949   21.0991 H   0  0  0  0  0  0
  -28.4955  -16.4383   20.7011 H   0  0  0  0  0  0
  -29.6705  -16.8018   21.8705 H   0  0  0  0  0  0
  -30.2724  -23.1874   18.6475 H   0  0  0  0  0  0
  -30.6374  -24.2186   19.9962 H   0  0  0  0  0  0
  -27.1307  -23.9401   20.6755 H   0  0  0  0  0  0
  -27.7317  -24.0378   19.0700 H   0  0  0  0  0  0
  -29.3171  -22.8269   21.4922 H   0  0  0  0  0  0
  1 25  1  0  0  0
  1 30  2  0  0  0
  1 76  1  0  0  0
  2  3  1  0  0  0
  2 25  1  0  0  0
  2 82  1  0  0  0
  2 83  1  0  0  0
  3  4  1  0  0  0
  3 84  1  0  0  0
  3 85  1  0  0  0
  4  5  1  0  0  0
  4 86  1  0  0  0
  4 87  1  0  0  0
  5  6  1  0  0  0
  5 26  1  0  0  0
  5 88  1  0  0  0
  6 25  1  0  0  0
  6 89  1  0  0  0
  6 90  1  0  0  0
  7  8  2  0  0  0
  7 26  1  0  0  0
  7 29  1  0  0  0
  8  9  1  0  0  0
  8 22  1  0  0  0
  9 10  1  0  0  0
  9 27  2  0  0  0
 10 11  2  0  0  0
 10 15  1  0  0  0
 11 12  1  0  0  0
 11 91  1  0  0  0
 12 13  2  0  0  0
 12 92  1  0  0  0
 13 14  1  0  0  0
 13 31  1  0  0  0
 14 15  2  0  0  0
 14 93  1  0  0  0
 15 94  1  0  0  0
 16 17  2  0  0  0
 16 21  1  0  0  0
 16 31  1  0  0  0
 17 18  1  0  0  0
 17 95  1  0  0  0
 18 19  2  0  0  0
 18 96  1  0  0  0
 19 20  1  0  0  0
 19 24  1  0  0  0
 20 21  2  0  0  0
 20 97  1  0  0  0
 21 23  1  0  0  0
 22 28  1  0  0  0
 22 32  2  0  0  0
 26 27  1  0  0  0
 28 98  1  0  0  0
 28 99  1  0  0  0
 29100  1  0  0  0
 29101  1  0  0  0
 33 34  1  0  0  0
 33 66  1  0  0  0
 33 70  2  0  0  0
 34 36  1  0  0  0
 34 59  1  0  0  0
 34102  1  0  0  0
 35 44  2  0  0  0
 35 45  1  0  0  0
 35 68  1  0  0  0
 36 56  1  0  0  0
 36103  1  0  0  0
 37 39  1  0  0  0
 37 47  1  0  0  0
 37 66  1  0  0  0
 37104  1  0  0  0
 38 43  2  0  0  0
 38 46  1  0  0  0
 38 47  1  0  0  0
 39 64  1  0  0  0
 39 67  2  0  0  0
 40 52  1  0  0  0
 40 53  2  0  0  0
 40 58  1  0  0  0
 41105  1  0  0  0
 41106  1  0  0  0
 41107  1  0  0  0
 41 48  1  0  0  0
 42 43  1  0  0  0
 42 66  1  0  0  0
 42108  1  0  0  0
 42109  1  0  0  0
 43 44  1  0  0  0
 44110  1  0  0  0
 45 46  2  0  0  0
 45111  1  0  0  0
 46112  1  0  0  0
 47113  1  0  0  0
 47114  1  0  0  0
 48 56  1  0  0  0
 48 65  1  0  0  0
 48115  1  0  0  0
 49 50  1  0  0  0
 49 53  1  0  0  0
 49 64  1  0  0  0
 49116  1  0  0  0
 50 51  1  0  0  0
 50117  1  0  0  0
 50118  1  0  0  0
 51 52  1  0  0  0
 51119  1  0  0  0
 51120  1  0  0  0
 52121  1  0  0  0
 52122  1  0  0  0
 53 54  1  0  0  0
 54 55  2  0  0  0
 54123  1  0  0  0
 55 57  1  0  0  0
 55124  1  0  0  0
 56 69  2  0  0  0
 57 58  2  0  0  0
 57125  1  0  0  0
 58126  1  0  0  0
 59 60  1  0  0  0
 59 61  1  0  0  0
 59 62  1  0  0  0
 60127  1  0  0  0
 60128  1  0  0  0
 60129  1  0  0  0
 61130  1  0  0  0
 61131  1  0  0  0
 61132  1  0  0  0
 62133  1  0  0  0
 62134  1  0  0  0
 62135  1  0  0  0
 63 65  1  0  0  0
 63136  1  0  0  0
 63137  1  0  0  0
 63138  1  0  0  0
 64139  1  0  0  0
 65140  1  0  0  0
 68 78  1  0  0  0
 71 80  2  0  0  0
 71 81  1  0  0  0
 71141  1  0  0  0
 72 73  2  0  0  0
 72 76  1  0  0  0
 72 80  1  0  0  0
 73 74  1  0  0  0
 73 81  1  0  0  0
 74142  1  0  0  0
 74143  1  0  0  0
 74144  1  0  0  0
 75 77  1  0  0  0
 75145  1  0  0  0
 75146  1  0  0  0
 75147  1  0  0  0
 76148  1  0  0  0
 76149  1  0  0  0
 77150  1  0  0  0
 77151  1  0  0  0
 77 79  1  0  0  0
 78 79  1  0  0  0
 78152  1  0  0  0
 78153  1  0  0  0
 79 81  1  0  0  0
 79154  1  0  0  0
M  ISO  4   1 100  68 101  76 100  78 101
M  END
> <chiral flag>
0

> <version>
0

> <s_m_source_file>
/data/baiqing/PycharmProjects/Reinvent-master-3.2/result/LINK_invent/BTK/process_docking_weight1_custom_sum_contain_oxygen_bond_distance_aromatic_linkinvent_7_9_3/rearranged_h_0115.sdf

> <i_m_source_file_index>
29

> <r_mmod_Potential_Energy-OPLS-2005>
1437.82495117188

> <r_mmod_Stretch_Energy-OPLS-2005>
639.212097167969

> <r_mmod_Bend_Energy-OPLS-2005>
482.830596923828

> <r_mmod_Torsional_Energy-OPLS-2005>
208.464233398438

> <r_mmod_Improper_Torsional_Energy-OPLS-2005>
4.92584466934204

> <r_mmod_Van_der_Waal_Energy-OPLS-2005>
99.5919342041016

> <r_mmod_Electrostatic_Energy-OPLS-2005>
-262.297821044922

> <r_mmod_Solvation_Energy-OPLS-2005>
-216.935485839844

> <b_mmod_Minimization_Converged-OPLS-2005>
0

> <r_mmod_RMS_Derivative-OPLS-2005>
1.48820948600769

$$$$
29
                    3D
 Structure written by MMmdl.
165173  0  0  1  0            999 V2000
  -30.7277  -14.4326   20.5033 C   0  0  0  0  0  0
  -30.4044  -12.2626   19.4354 C   0  0  0  0  0  0
  -29.4941  -12.4874   18.2114 C   0  0  0  0  0  0
  -28.0099  -12.3737   18.6129 C   0  0  0  0  0  0
  -27.6566  -13.2129   19.8708 C   0  0  2  0  0  0
  -28.6983  -13.0171   20.9975 C   0  0  0  0  0  0
  -25.2561  -13.8164   20.5678 C   0  0  0  0  0  0
  -24.1811  -13.0428   20.9200 C   0  0  0  0  0  0
  -24.6384  -11.6926   20.8741 C   0  0  0  0  0  0
  -23.9053  -10.4306   21.0415 C   0  0  0  0  0  0
  -24.3606   -9.4222   21.9189 C   0  0  0  0  0  0
  -23.6293   -8.2248   22.0758 C   0  0  0  0  0  0
  -22.4277   -8.0282   21.3544 C   0  0  0  0  0  0
  -21.9902   -9.0259   20.4648 C   0  0  0  0  0  0
  -22.7228  -10.2151   20.3067 C   0  0  0  0  0  0
  -21.6842   -6.0746   22.5287 C   0  0  0  0  0  0
  -21.4013   -6.5651   23.8221 C   0  0  0  0  0  0
  -21.3664   -5.6801   24.9181 C   0  0  0  0  0  0
  -21.6042   -4.3062   24.7224 C   0  0  0  0  0  0
  -21.8815   -3.8159   23.4344 C   0  0  0  0  0  0
  -21.9195   -4.6978   22.3408 C   0  0  0  0  0  0
  -22.7838  -13.5251   21.1869 C   0  0  0  0  0  0
  -22.1655   -4.2172   21.0976 F   0  0  0  0  0  0
  -21.5640   -3.4545   25.7730 F   0  0  0  0  0  0
  -30.0322  -13.2698   20.4363 N   0  0  0  0  0  0
  -26.2992  -12.9360   20.3339 N   0  0  0  0  0  0
  -25.9310  -11.6522   20.5754 N   0  0  0  0  0  0
  -22.0467  -12.8231   22.0418 N   0  0  0  0  0  0
  -25.4216  -15.1874   20.4051 N   0  0  0  0  0  0
  -31.9118  -14.5159   20.1728 O   0  0  0  0  0  0
  -21.6639   -6.8888   21.4247 O   0  0  0  0  0  0
  -22.3531  -14.5567   20.6736 O   0  0  0  0  0  0
  -24.6105  -31.8704   23.2172 C   0  0  0  0  0  0
  -25.9006  -32.4818   23.8450 C   0  0  1  0  0  0
  -27.2273  -27.4569   20.0747 C   0  0  0  0  0  0
  -25.5918  -33.8629   24.2344 N   0  0  0  0  0  0
  -23.3998  -30.4939   21.5574 C   0  0  2  0  0  0
  -24.8390  -28.9691   20.1206 C   0  0  0  0  0  0
  -22.7408  -29.4625   22.5012 C   0  0  0  0  0  0
  -18.0285  -28.1377   22.8471 C   0  0  0  0  0  0
  -24.1489  -36.7287   23.2649 C   0  0  0  0  0  0
  -25.9308  -30.8342   21.3802 C   0  0  0  0  0  0
  -26.0009  -29.4776   20.7132 C   0  0  0  0  0  0
  -27.1964  -28.7259   20.6908 C   0  0  0  0  0  0
  -26.0414  -26.9537   19.4916 C   0  0  0  0  0  0
  -24.8504  -27.6998   19.5179 C   0  0  0  0  0  0
  -23.6055  -29.8365   20.1692 C   0  0  0  0  0  0
  -25.4127  -36.3117   24.0346 C   0  0  1  0  0  0
  -20.5865  -28.3629   23.1343 C   0  0  2  0  0  0
  -20.6788  -26.9372   22.5426 C   0  0  0  0  0  0
  -19.5762  -26.6380   21.5228 C   0  0  0  0  0  0
  -18.1926  -26.7914   22.1613 C   0  0  0  0  0  0
  -19.1537  -28.8812   23.2879 C   0  0  0  0  0  0
  -18.9460  -30.1430   23.8868 C   0  0  0  0  0  0
  -17.6456  -30.6559   24.0550 C   0  0  0  0  0  0
  -25.9048  -34.9473   23.5125 C   0  0  0  0  0  0
  -16.5344  -29.9063   23.6341 C   0  0  0  0  0  0
  -16.7268  -28.6505   23.0328 C   0  0  0  0  0  0
  -26.4452  -31.6639   25.0793 C   0  0  0  0  0  0
  -25.3717  -31.3773   26.1537 C   0  0  0  0  0  0
  -27.0328  -30.3080   24.6235 C   0  0  0  0  0  0
  -27.6026  -32.4406   25.7530 C   0  0  0  0  0  0
  -27.5588  -37.1787   24.8483 C   0  0  0  0  0  0
  -21.4139  -29.2977   22.3740 N   0  0  0  0  0  0
  -26.4310  -37.3786   23.9416 N   0  0  0  0  0  0
  -24.6637  -31.0837   22.1065 N   0  0  0  0  0  0
  -23.4193  -28.8158   23.3038 O   0  0  0  0  0  0
  -28.4209  -26.7659   20.0493 O   0  0  0  0  0  0
  -26.5606  -34.8934   22.4679 O   0  0  0  0  0  0
  -23.5303  -32.1437   23.7573 O   0  0  0  0  0  0
  -28.3410  -19.6950   21.4510 C   0  0  0  0  0  0
  -30.6892  -20.3257   21.3880 C   0  0  0  0  0  0
  -28.6759  -18.3956   21.0072 C   0  0  0  0  0  0
  -31.0244  -19.0373   20.9414 C   0  0  0  0  0  0
  -29.3442  -20.6847   21.6096 C   0  0  0  0  0  0
  -30.0179  -18.0785   20.7059 C   0  0  0  0  0  0
  -27.2341  -23.6584   21.7378 C   0  0  0  0  0  0
  -25.7462  -23.9152   21.6745 C   0  0  0  0  0  0
  -29.5685  -22.4319   23.4154 C   0  0  0  0  0  0
  -29.9027  -16.8602   18.5204 C   0  0  0  0  0  0
  -28.0926  -24.9236   21.6140 C   0  0  0  0  0  0
  -28.3680  -25.3409   20.1556 C   0  0  0  0  0  0
  -29.0522  -22.1364   21.9960 C   0  0  2  0  0  0
  -30.4026  -16.8030   19.9757 C   0  0  2  0  0  0
  -27.6396  -22.4561   21.8980 N   0  0  0  0  0  0
  -29.9826  -15.5452   20.6112 N   0  0  0  0  0  0
  -31.4543  -12.3233   19.1441 H   0  0  0  0  0  0
  -30.2661  -11.2594   19.8405 H   0  0  0  0  0  0
  -29.7297  -11.7653   17.4279 H   0  0  0  0  0  0
  -29.6864  -13.4732   17.7832 H   0  0  0  0  0  0
  -27.7976  -11.3198   18.7903 H   0  0  0  0  0  0
  -27.3768  -12.6713   17.7767 H   0  0  0  0  0  0
  -27.6918  -14.2571   19.5637 H   0  0  0  0  0  0
  -28.6526  -11.9978   21.3849 H   0  0  0  0  0  0
  -28.4867  -13.6731   21.8441 H   0  0  0  0  0  0
  -25.2747   -9.5715   22.4765 H   0  0  0  0  0  0
  -24.0022   -7.4639   22.7464 H   0  0  0  0  0  0
  -21.0840   -8.8773   19.8935 H   0  0  0  0  0  0
  -22.3673  -10.9696   19.6189 H   0  0  0  0  0  0
  -21.1988   -7.6155   23.9735 H   0  0  0  0  0  0
  -21.1493   -6.0524   25.9089 H   0  0  0  0  0  0
  -22.0585   -2.7624   23.2829 H   0  0  0  0  0  0
  -22.4063  -11.9882   22.4805 H   0  0  0  0  0  0
  -21.1093  -13.1296   22.2634 H   0  0  0  0  0  0
  -24.6459  -15.8335   20.5039 H   0  0  0  0  0  0
  -26.2597  -15.6303   20.0500 H   0  0  0  0  0  0
  -26.7073  -32.5475   23.1221 H   0  0  0  0  0  0
  -25.0096  -33.9861   25.0508 H   0  0  0  0  0  0
  -22.6824  -31.3045   21.4254 H   0  0  0  0  0  0
  -23.3763  -35.9596   23.3340 H   0  0  0  0  0  0
  -24.3541  -36.8864   22.2053 H   0  0  0  0  0  0
  -23.7245  -37.6503   23.6628 H   0  0  0  0  0  0
  -26.0787  -31.6177   20.6344 H   0  0  0  0  0  0
  -26.8039  -30.8497   22.0213 H   0  0  0  0  0  0
  -28.0953  -29.1067   21.1527 H   0  0  0  0  0  0
  -26.0054  -25.9990   18.9913 H   0  0  0  0  0  0
  -23.9543  -27.2944   19.0676 H   0  0  0  0  0  0
  -23.7144  -30.6155   19.4125 H   0  0  0  0  0  0
  -22.7283  -29.2570   19.8759 H   0  0  0  0  0  0
  -25.1292  -36.1976   25.0837 H   0  0  0  0  0  0
  -20.9927  -28.3185   24.1482 H   0  0  0  0  0  0
  -20.5809  -26.2167   23.3565 H   0  0  0  0  0  0
  -21.6625  -26.7500   22.1138 H   0  0  0  0  0  0
  -19.6956  -25.6323   21.1218 H   0  0  0  0  0  0
  -19.6758  -27.3205   20.6780 H   0  0  0  0  0  0
  -17.4223  -26.6659   21.4008 H   0  0  0  0  0  0
  -18.0307  -26.0087   22.9035 H   0  0  0  0  0  0
  -19.7944  -30.7250   24.2207 H   0  0  0  0  0  0
  -17.5036  -31.6261   24.5112 H   0  0  0  0  0  0
  -15.5340  -30.2947   23.7733 H   0  0  0  0  0  0
  -15.8666  -28.0851   22.7023 H   0  0  0  0  0  0
  -24.5865  -30.7146   25.7878 H   0  0  0  0  0  0
  -24.8929  -32.2932   26.4995 H   0  0  0  0  0  0
  -25.8041  -30.8937   27.0287 H   0  0  0  0  0  0
  -26.2902  -29.6794   24.1281 H   0  0  0  0  0  0
  -27.4061  -29.7373   25.4749 H   0  0  0  0  0  0
  -27.8754  -30.4400   23.9429 H   0  0  0  0  0  0
  -27.2619  -33.3699   26.2108 H   0  0  0  0  0  0
  -28.3784  -32.6981   25.0315 H   0  0  0  0  0  0
  -28.0721  -31.8549   26.5433 H   0  0  0  0  0  0
  -28.2594  -38.0095   24.7508 H   0  0  0  0  0  0
  -28.1085  -36.2603   24.6310 H   0  0  0  0  0  0
  -27.2273  -37.1446   25.8881 H   0  0  0  0  0  0
  -20.9296  -29.8631   21.6909 H   0  0  0  0  0  0
  -26.0198  -38.2850   24.1439 H   0  0  0  0  0  0
  -27.3006  -19.9320   21.6324 H   0  0  0  0  0  0
  -31.4714  -21.0572   21.5286 H   0  0  0  0  0  0
  -27.8895  -17.6700   20.8434 H   0  0  0  0  0  0
  -32.0602  -18.8124   20.7268 H   0  0  0  0  0  0
  -25.3319  -23.5219   20.7458 H   0  0  0  0  0  0
  -25.5153  -24.9787   21.7329 H   0  0  0  0  0  0
  -25.2511  -23.4170   22.5078 H   0  0  0  0  0  0
  -29.2916  -23.4227   23.7763 H   0  0  0  0  0  0
  -30.6583  -22.3787   23.4413 H   0  0  0  0  0  0
  -29.1768  -21.7094   24.1310 H   0  0  0  0  0  0
  -30.2710  -17.7553   18.0189 H   0  0  0  0  0  0
  -28.8143  -16.8742   18.4595 H   0  0  0  0  0  0
  -30.2570  -16.0073   17.9422 H   0  0  0  0  0  0
  -29.0396  -24.8325   22.1399 H   0  0  0  0  0  0
  -27.5838  -25.7253   22.1469 H   0  0  0  0  0  0
  -27.6659  -24.8874   19.4560 H   0  0  0  0  0  0
  -29.3418  -24.9457   19.8536 H   0  0  0  0  0  0
  -29.6161  -22.7427   21.2812 H   0  0  0  0  0  0
  -31.4946  -16.8315   19.9204 H   0  0  0  0  0  0
  -29.0114  -15.4382   20.8560 H   0  0  0  0  0  0
  1 25  1  0  0  0
  1 30  2  0  0  0
  1 86  1  0  0  0
  2  3  1  0  0  0
  2 25  1  0  0  0
  2 87  1  0  0  0
  2 88  1  0  0  0
  3  4  1  0  0  0
  3 89  1  0  0  0
  3 90  1  0  0  0
  4  5  1  0  0  0
  4 91  1  0  0  0
  4 92  1  0  0  0
  5  6  1  0  0  0
  5 26  1  0  0  0
  5 93  1  0  0  0
  6 25  1  0  0  0
  6 94  1  0  0  0
  6 95  1  0  0  0
  7  8  2  0  0  0
  7 26  1  0  0  0
  7 29  1  0  0  0
  8  9  1  0  0  0
  8 22  1  0  0  0
  9 10  1  0  0  0
  9 27  2  0  0  0
 10 11  2  0  0  0
 10 15  1  0  0  0
 11 12  1  0  0  0
 11 96  1  0  0  0
 12 13  2  0  0  0
 12 97  1  0  0  0
 13 14  1  0  0  0
 13 31  1  0  0  0
 14 15  2  0  0  0
 14 98  1  0  0  0
 15 99  1  0  0  0
 16 17  2  0  0  0
 16 21  1  0  0  0
 16 31  1  0  0  0
 17 18  1  0  0  0
 17100  1  0  0  0
 18 19  2  0  0  0
 18101  1  0  0  0
 19 20  1  0  0  0
 19 24  1  0  0  0
 20 21  2  0  0  0
 20102  1  0  0  0
 21 23  1  0  0  0
 22 28  1  0  0  0
 22 32  2  0  0  0
 26 27  1  0  0  0
 28103  1  0  0  0
 28104  1  0  0  0
 29105  1  0  0  0
 29106  1  0  0  0
 33 34  1  0  0  0
 33 66  1  0  0  0
 33 70  2  0  0  0
 34 36  1  0  0  0
 34 59  1  0  0  0
 34107  1  0  0  0
 35 44  2  0  0  0
 35 45  1  0  0  0
 35 68  1  0  0  0
 36 56  1  0  0  0
 36108  1  0  0  0
 37 39  1  0  0  0
 37 47  1  0  0  0
 37 66  1  0  0  0
 37109  1  0  0  0
 38 43  2  0  0  0
 38 46  1  0  0  0
 38 47  1  0  0  0
 39 64  1  0  0  0
 39 67  2  0  0  0
 40 52  1  0  0  0
 40 53  2  0  0  0
 40 58  1  0  0  0
 41110  1  0  0  0
 41111  1  0  0  0
 41112  1  0  0  0
 41 48  1  0  0  0
 42 43  1  0  0  0
 42 66  1  0  0  0
 42113  1  0  0  0
 42114  1  0  0  0
 43 44  1  0  0  0
 44115  1  0  0  0
 45 46  2  0  0  0
 45116  1  0  0  0
 46117  1  0  0  0
 47118  1  0  0  0
 47119  1  0  0  0
 48 56  1  0  0  0
 48 65  1  0  0  0
 48120  1  0  0  0
 49 50  1  0  0  0
 49 53  1  0  0  0
 49 64  1  0  0  0
 49121  1  0  0  0
 50 51  1  0  0  0
 50122  1  0  0  0
 50123  1  0  0  0
 51 52  1  0  0  0
 51124  1  0  0  0
 51125  1  0  0  0
 52126  1  0  0  0
 52127  1  0  0  0
 53 54  1  0  0  0
 54 55  2  0  0  0
 54128  1  0  0  0
 55 57  1  0  0  0
 55129  1  0  0  0
 56 69  2  0  0  0
 57 58  2  0  0  0
 57130  1  0  0  0
 58131  1  0  0  0
 59 60  1  0  0  0
 59 61  1  0  0  0
 59 62  1  0  0  0
 60132  1  0  0  0
 60133  1  0  0  0
 60134  1  0  0  0
 61135  1  0  0  0
 61136  1  0  0  0
 61137  1  0  0  0
 62138  1  0  0  0
 62139  1  0  0  0
 62140  1  0  0  0
 63 65  1  0  0  0
 63141  1  0  0  0
 63142  1  0  0  0
 63143  1  0  0  0
 64144  1  0  0  0
 65145  1  0  0  0
 68 82  1  0  0  0
 71 73  2  0  0  0
 71 75  1  0  0  0
 71146  1  0  0  0
 72 74  1  0  0  0
 72 75  2  0  0  0
 72147  1  0  0  0
 73 76  1  0  0  0
 73148  1  0  0  0
 74 76  2  0  0  0
 74149  1  0  0  0
 75 83  1  0  0  0
 76 84  1  0  0  0
 77 78  1  0  0  0
 77 81  1  0  0  0
 77 85  2  0  0  0
 78150  1  0  0  0
 78151  1  0  0  0
 78152  1  0  0  0
 79153  1  0  0  0
 79154  1  0  0  0
 79155  1  0  0  0
 79 83  1  0  0  0
 80156  1  0  0  0
 80157  1  0  0  0
 80158  1  0  0  0
 80 84  1  0  0  0
 81 82  1  0  0  0
 81159  1  0  0  0
 81160  1  0  0  0
 82161  1  0  0  0
 82162  1  0  0  0
 83 85  1  0  0  0
 83163  1  0  0  0
 84 86  1  0  0  0
 84164  1  0  0  0
 86165  1  0  0  0
M  ISO  4   1 100  68 101  82 101  86 100
M  END
> <chiral flag>
0

> <version>
0

> <s_m_source_file>
/data/baiqing/PycharmProjects/Reinvent-master-3.2/result/LINK_invent/BTK/process_docking_weight1_custom_sum_contain_oxygen_bond_distance_aromatic_linkinvent_7_9_3/rearranged_h_0115.sdf

> <i_m_source_file_index>
30

> <r_mmod_Potential_Energy-OPLS-2005>
-98.3351287841797

> <r_mmod_Stretch_Energy-OPLS-2005>
33.6596984863281

> <r_mmod_Bend_Energy-OPLS-2005>
104.899673461914

> <r_mmod_Torsional_Energy-OPLS-2005>
225.719390869141

> <r_mmod_Improper_Torsional_Energy-OPLS-2005>
10.7254371643066

> <r_mmod_Van_der_Waal_Energy-OPLS-2005>
166.232574462891

> <r_mmod_Electrostatic_Energy-OPLS-2005>
-452.868743896484

> <r_mmod_Solvation_Energy-OPLS-2005>
-204.392593383789

> <b_mmod_Minimization_Converged-OPLS-2005>
0

> <r_mmod_RMS_Derivative-OPLS-2005>
4.46819829940796

$$$$
30
                    3D
 Structure written by MMmdl.
151159  0  0  1  0            999 V2000
  -30.3716  -15.4057   20.3108 C   0  0  0  0  0  0
  -30.4298  -12.8990   19.5356 C   0  0  0  0  0  0
  -29.5394  -12.6150   18.2989 C   0  0  0  0  0  0
  -28.0965  -12.3063   18.7268 C   0  0  0  0  0  0
  -27.6048  -13.2879   19.8174 C   0  0  2  0  0  0
  -28.6304  -13.5207   20.9487 C   0  0  0  0  0  0
  -25.2367  -13.8255   20.5725 C   0  0  0  0  0  0
  -24.1731  -13.0433   20.9234 C   0  0  0  0  0  0
  -24.6396  -11.6931   20.8740 C   0  0  0  0  0  0
  -23.9085  -10.4302   21.0398 C   0  0  0  0  0  0
  -24.3644   -9.4211   21.9174 C   0  0  0  0  0  0
  -23.6319   -8.2246   22.0756 C   0  0  0  0  0  0
  -22.4300   -8.0279   21.3539 C   0  0  0  0  0  0
  -21.9927   -9.0242   20.4628 C   0  0  0  0  0  0
  -22.7252  -10.2129   20.3043 C   0  0  0  0  0  0
  -21.6876   -6.0727   22.5261 C   0  0  0  0  0  0
  -21.4012   -6.5621   23.8192 C   0  0  0  0  0  0
  -21.3679   -5.6778   24.9159 C   0  0  0  0  0  0
  -21.6070   -4.3044   24.7214 C   0  0  0  0  0  0
  -21.8828   -3.8131   23.4335 C   0  0  0  0  0  0
  -21.9192   -4.6949   22.3386 C   0  0  0  0  0  0
  -22.7755  -13.5172   21.1897 C   0  0  0  0  0  0
  -22.1669   -4.2130   21.0968 F   0  0  0  0  0  0
  -21.5641   -3.4529   25.7733 F   0  0  0  0  0  0
  -29.8482  -14.0644   20.3172 N   0  0  0  0  0  0
  -26.2787  -12.9545   20.3187 N   0  0  0  0  0  0
  -25.9326  -11.6637   20.5676 N   0  0  0  0  0  0
  -22.0418  -12.8147   22.0450 N   0  0  0  0  0  0
  -25.4032  -15.2000   20.4199 N   0  0  0  0  0  0
  -31.5898  -15.3974   20.0702 O   0  0  0  0  0  0
  -21.6663   -6.8873   21.4226 O   0  0  0  0  0  0
  -22.3418  -14.5460   20.6725 O   0  0  0  0  0  0
  -24.6702  -31.8151   23.1653 C   0  0  0  0  0  0
  -25.9351  -32.4549   23.8153 C   0  0  1  0  0  0
  -27.2224  -26.8627   20.1672 C   0  0  0  0  0  0
  -25.5994  -33.8371   24.2044 N   0  0  0  0  0  0
  -23.4877  -30.4230   21.5167 C   0  0  2  0  0  0
  -24.9418  -28.7966   20.1089 C   0  0  0  0  0  0
  -22.7694  -29.4392   22.4778 C   0  0  0  0  0  0
  -18.0316  -28.1436   22.8464 C   0  0  0  0  0  0
  -24.1494  -36.7174   23.2646 C   0  0  0  0  0  0
  -26.0626  -30.5963   21.4086 C   0  0  0  0  0  0
  -26.1273  -29.1808   20.7474 C   0  0  0  0  0  0
  -27.2581  -28.2337   20.7514 C   0  0  0  0  0  0
  -26.0100  -26.6495   19.4733 C   0  0  0  0  0  0
  -24.9127  -27.5547   19.4533 C   0  0  0  0  0  0
  -23.7302  -29.7320   20.1454 C   0  0  0  0  0  0
  -25.4146  -36.2947   24.0289 C   0  0  1  0  0  0
  -20.5944  -28.3773   23.1185 C   0  0  2  0  0  0
  -20.6798  -26.9453   22.5402 C   0  0  0  0  0  0
  -19.5770  -26.6396   21.5216 C   0  0  0  0  0  0
  -18.1949  -26.7973   22.1615 C   0  0  0  0  0  0
  -19.1580  -28.8931   23.2816 C   0  0  0  0  0  0
  -18.9492  -30.1514   23.8863 C   0  0  0  0  0  0
  -17.6484  -30.6622   24.0553 C   0  0  0  0  0  0
  -25.9111  -34.9321   23.4992 C   0  0  0  0  0  0
  -16.5371  -29.9102   23.6357 C   0  0  0  0  0  0
  -16.7298  -28.6521   23.0382 C   0  0  0  0  0  0
  -26.4597  -31.6530   25.0708 C   0  0  0  0  0  0
  -25.3692  -31.3785   26.1334 C   0  0  0  0  0  0
  -27.0488  -30.2888   24.6485 C   0  0  0  0  0  0
  -27.6086  -32.4347   25.7501 C   0  0  0  0  0  0
  -27.5582  -37.1749   24.8472 C   0  0  0  0  0  0
  -21.4354  -29.3034   22.3527 N   0  0  0  0  0  0
  -26.4298  -37.3690   23.9400 N   0  0  0  0  0  0
  -24.7621  -30.9742   22.0834 N   0  0  0  0  0  0
  -23.4199  -28.7964   23.3056 O   0  0  0  0  0  0
  -28.2163  -25.7282   20.2686 O   0  0  0  0  0  0
  -26.5727  -34.8865   22.4591 O   0  0  0  0  0  0
  -23.5751  -32.1175   23.6695 O   0  0  0  0  0  0
  -28.9804  -19.5090   20.7919 C   0  0  0  0  0  0
  -30.0775  -18.9986   18.9845 C   0  0  0  0  0  0
  -29.5711  -18.3209   20.1586 C   0  0  0  0  0  0
  -29.7762  -20.3882   18.9719 C   0  0  0  0  0  0
  -30.8197  -18.2734   17.8896 C   0  0  0  0  0  0
  -30.1172  -21.3744   17.8925 C   0  0  0  0  0  0
  -28.7867  -22.5032   20.5926 C   0  0  0  0  0  0
  -28.1324  -24.0834   19.8854 C   0  0  0  0  0  0
  -29.0961  -20.8675   20.1202 N   0  0  0  0  0  0
  -29.5787  -16.6867   20.4626 N   0  0  0  0  0  0
  -31.4449  -13.1130   19.1971 H   0  0  0  0  0  0
  -30.5166  -12.0085   20.1592 H   0  0  0  0  0  0
  -29.9442  -11.7880   17.7151 H   0  0  0  0  0  0
  -29.5450  -13.4883   17.6434 H   0  0  0  0  0  0
  -28.0770  -11.2842   19.1078 H   0  0  0  0  0  0
  -27.4306  -12.3293   17.8638 H   0  0  0  0  0  0
  -27.5009  -14.2407   19.2956 H   0  0  0  0  0  0
  -28.8235  -12.6078   21.5148 H   0  0  0  0  0  0
  -28.2373  -14.2479   21.6603 H   0  0  0  0  0  0
  -25.2792   -9.5684   22.4737 H   0  0  0  0  0  0
  -24.0034   -7.4640   22.7484 H   0  0  0  0  0  0
  -21.0862   -8.8734   19.8929 H   0  0  0  0  0  0
  -22.3703  -10.9656   19.6144 H   0  0  0  0  0  0
  -21.1997   -7.6124   23.9677 H   0  0  0  0  0  0
  -21.1509   -6.0515   25.9060 H   0  0  0  0  0  0
  -22.0599   -2.7586   23.2834 H   0  0  0  0  0  0
  -22.4082  -11.9836   22.4852 H   0  0  0  0  0  0
  -21.1003  -13.1105   22.2626 H   0  0  0  0  0  0
  -24.6387  -15.8553   20.5408 H   0  0  0  0  0  0
  -26.2440  -15.6356   20.0636 H   0  0  0  0  0  0
  -26.7401  -32.5070   23.0848 H   0  0  0  0  0  0
  -25.0118  -33.9465   25.0181 H   0  0  0  0  0  0
  -22.8032  -31.2556   21.3390 H   0  0  0  0  0  0
  -23.3791  -35.9472   23.3285 H   0  0  0  0  0  0
  -24.3545  -36.8846   22.2059 H   0  0  0  0  0  0
  -23.7207  -37.6334   23.6720 H   0  0  0  0  0  0
  -26.2558  -31.3371   20.6315 H   0  0  0  0  0  0
  -26.9174  -30.6516   22.0713 H   0  0  0  0  0  0
  -28.1570  -28.5250   21.2781 H   0  0  0  0  0  0
  -25.8709  -25.7049   18.9677 H   0  0  0  0  0  0
  -24.0126  -27.2560   18.9318 H   0  0  0  0  0  0
  -23.8888  -30.4987   19.3860 H   0  0  0  0  0  0
  -22.8394  -29.1866   19.8272 H   0  0  0  0  0  0
  -25.1349  -36.1751   25.0788 H   0  0  0  0  0  0
  -21.0024  -28.3391   24.1315 H   0  0  0  0  0  0
  -20.5678  -26.2398   23.3649 H   0  0  0  0  0  0
  -21.6660  -26.7431   22.1210 H   0  0  0  0  0  0
  -19.6935  -25.6290   21.1292 H   0  0  0  0  0  0
  -19.6738  -27.3164   20.6714 H   0  0  0  0  0  0
  -17.4225  -26.6728   21.4007 H   0  0  0  0  0  0
  -18.0339  -26.0134   22.9026 H   0  0  0  0  0  0
  -19.7962  -30.7342   24.2236 H   0  0  0  0  0  0
  -17.5028  -31.6299   24.5153 H   0  0  0  0  0  0
  -15.5373  -30.2987   23.7721 H   0  0  0  0  0  0
  -15.8692  -28.0809   22.7160 H   0  0  0  0  0  0
  -24.5927  -30.7092   25.7622 H   0  0  0  0  0  0
  -24.8837  -32.2981   26.4608 H   0  0  0  0  0  0
  -25.7909  -30.9051   27.0210 H   0  0  0  0  0  0
  -26.3160  -29.6564   24.1472 H   0  0  0  0  0  0
  -27.3961  -29.7268   25.5165 H   0  0  0  0  0  0
  -27.9134  -30.4054   23.9945 H   0  0  0  0  0  0
  -27.2683  -33.3724   26.1911 H   0  0  0  0  0  0
  -28.3991  -32.6788   25.0383 H   0  0  0  0  0  0
  -28.0660  -31.8582   26.5558 H   0  0  0  0  0  0
  -28.2582  -38.0063   24.7518 H   0  0  0  0  0  0
  -28.1099  -36.2587   24.6320 H   0  0  0  0  0  0
  -27.2283  -37.1393   25.8871 H   0  0  0  0  0  0
  -20.9648  -29.8691   21.6605 H   0  0  0  0  0  0
  -26.0151  -38.2751   24.1416 H   0  0  0  0  0  0
  -28.4660  -19.5210   21.7439 H   0  0  0  0  0  0
  -31.5884  -17.6333   18.3224 H   0  0  0  0  0  0
  -31.3166  -18.9613   17.2057 H   0  0  0  0  0  0
  -30.1390  -17.6463   17.3133 H   0  0  0  0  0  0
  -30.1591  -20.8980   16.9110 H   0  0  0  0  0  0
  -31.0858  -21.8423   18.0737 H   0  0  0  0  0  0
  -29.3697  -22.1617   17.8136 H   0  0  0  0  0  0
  -28.2167  -22.3909   21.5154 H   0  0  0  0  0  0
  -29.7665  -22.8198   20.9479 H   0  0  0  0  0  0
  -27.0653  -23.8976   19.7602 H   0  0  0  0  0  0
  -28.5060  -24.0862   18.8617 H   0  0  0  0  0  0
  -28.6776  -16.4087   20.8262 H   0  0  0  0  0  0
  1 25  1  0  0  0
  1 30  2  0  0  0
  1 80  1  0  0  0
  2  3  1  0  0  0
  2 25  1  0  0  0
  2 81  1  0  0  0
  2 82  1  0  0  0
  3  4  1  0  0  0
  3 83  1  0  0  0
  3 84  1  0  0  0
  4  5  1  0  0  0
  4 85  1  0  0  0
  4 86  1  0  0  0
  5  6  1  0  0  0
  5 26  1  0  0  0
  5 87  1  0  0  0
  6 25  1  0  0  0
  6 88  1  0  0  0
  6 89  1  0  0  0
  7  8  2  0  0  0
  7 26  1  0  0  0
  7 29  1  0  0  0
  8  9  1  0  0  0
  8 22  1  0  0  0
  9 10  1  0  0  0
  9 27  2  0  0  0
 10 11  2  0  0  0
 10 15  1  0  0  0
 11 12  1  0  0  0
 11 90  1  0  0  0
 12 13  2  0  0  0
 12 91  1  0  0  0
 13 14  1  0  0  0
 13 31  1  0  0  0
 14 15  2  0  0  0
 14 92  1  0  0  0
 15 93  1  0  0  0
 16 17  2  0  0  0
 16 21  1  0  0  0
 16 31  1  0  0  0
 17 18  1  0  0  0
 17 94  1  0  0  0
 18 19  2  0  0  0
 18 95  1  0  0  0
 19 20  1  0  0  0
 19 24  1  0  0  0
 20 21  2  0  0  0
 20 96  1  0  0  0
 21 23  1  0  0  0
 22 28  1  0  0  0
 22 32  2  0  0  0
 26 27  1  0  0  0
 28 97  1  0  0  0
 28 98  1  0  0  0
 29 99  1  0  0  0
 29100  1  0  0  0
 33 34  1  0  0  0
 33 66  1  0  0  0
 33 70  2  0  0  0
 34 36  1  0  0  0
 34 59  1  0  0  0
 34101  1  0  0  0
 35 44  2  0  0  0
 35 45  1  0  0  0
 35 68  1  0  0  0
 36 56  1  0  0  0
 36102  1  0  0  0
 37 39  1  0  0  0
 37 47  1  0  0  0
 37 66  1  0  0  0
 37103  1  0  0  0
 38 43  2  0  0  0
 38 46  1  0  0  0
 38 47  1  0  0  0
 39 64  1  0  0  0
 39 67  2  0  0  0
 40 52  1  0  0  0
 40 53  2  0  0  0
 40 58  1  0  0  0
 41104  1  0  0  0
 41105  1  0  0  0
 41106  1  0  0  0
 41 48  1  0  0  0
 42 43  1  0  0  0
 42 66  1  0  0  0
 42107  1  0  0  0
 42108  1  0  0  0
 43 44  1  0  0  0
 44109  1  0  0  0
 45 46  2  0  0  0
 45110  1  0  0  0
 46111  1  0  0  0
 47112  1  0  0  0
 47113  1  0  0  0
 48 56  1  0  0  0
 48 65  1  0  0  0
 48114  1  0  0  0
 49 50  1  0  0  0
 49 53  1  0  0  0
 49 64  1  0  0  0
 49115  1  0  0  0
 50 51  1  0  0  0
 50116  1  0  0  0
 50117  1  0  0  0
 51 52  1  0  0  0
 51118  1  0  0  0
 51119  1  0  0  0
 52120  1  0  0  0
 52121  1  0  0  0
 53 54  1  0  0  0
 54 55  2  0  0  0
 54122  1  0  0  0
 55 57  1  0  0  0
 55123  1  0  0  0
 56 69  2  0  0  0
 57 58  2  0  0  0
 57124  1  0  0  0
 58125  1  0  0  0
 59 60  1  0  0  0
 59 61  1  0  0  0
 59 62  1  0  0  0
 60126  1  0  0  0
 60127  1  0  0  0
 60128  1  0  0  0
 61129  1  0  0  0
 61130  1  0  0  0
 61131  1  0  0  0
 62132  1  0  0  0
 62133  1  0  0  0
 62134  1  0  0  0
 63 65  1  0  0  0
 63135  1  0  0  0
 63136  1  0  0  0
 63137  1  0  0  0
 64138  1  0  0  0
 65139  1  0  0  0
 68 78  1  0  0  0
 71 73  2  0  0  0
 71 79  1  0  0  0
 71140  1  0  0  0
 72 73  1  0  0  0
 72 74  2  0  0  0
 72 75  1  0  0  0
 73 80  1  0  0  0
 74 76  1  0  0  0
 74 79  1  0  0  0
 75141  1  0  0  0
 75142  1  0  0  0
 75143  1  0  0  0
 76144  1  0  0  0
 76145  1  0  0  0
 76146  1  0  0  0
 77 78  1  0  0  0
 77 79  1  0  0  0
 77147  1  0  0  0
 77148  1  0  0  0
 78149  1  0  0  0
 78150  1  0  0  0
 80151  1  0  0  0
M  ISO  4   1 100  68 101  78 101  80 100
M  END
> <chiral flag>
0

> <version>
0

> <s_m_source_file>
/data/baiqing/PycharmProjects/Reinvent-master-3.2/result/LINK_invent/BTK/process_docking_weight1_custom_sum_contain_oxygen_bond_distance_aromatic_linkinvent_7_9_3/rearranged_h_0115.sdf

> <i_m_source_file_index>
31

> <r_mmod_Potential_Energy-OPLS-2005>
1566.89807128906

> <r_mmod_Stretch_Energy-OPLS-2005>
705.412963867188

> <r_mmod_Bend_Energy-OPLS-2005>
515.285034179688

> <r_mmod_Torsional_Energy-OPLS-2005>
241.804626464844

> <r_mmod_Improper_Torsional_Energy-OPLS-2005>
4.43942356109619

> <r_mmod_Van_der_Waal_Energy-OPLS-2005>
103.866256713867

> <r_mmod_Electrostatic_Energy-OPLS-2005>
-377.417907714844

> <r_mmod_Solvation_Energy-OPLS-2005>
-222.096649169922

> <b_mmod_Minimization_Converged-OPLS-2005>
0

> <r_mmod_RMS_Derivative-OPLS-2005>
3.13532090187073

$$$$
31
                    3D
 Structure written by MMmdl.
167175  0  0  1  0            999 V2000
  -30.6943  -14.4728   20.4887 C   0  0  0  0  0  0
  -30.4038  -12.2822   19.4320 C   0  0  0  0  0  0
  -29.4925  -12.4853   18.2058 C   0  0  0  0  0  0
  -28.0107  -12.3568   18.6124 C   0  0  0  0  0  0
  -27.6495  -13.2107   19.8588 C   0  0  2  0  0  0
  -28.6892  -13.0348   20.9873 C   0  0  0  0  0  0
  -25.2542  -13.8155   20.5663 C   0  0  0  0  0  0
  -24.1817  -13.0429   20.9179 C   0  0  0  0  0  0
  -24.6387  -11.6895   20.8734 C   0  0  0  0  0  0
  -23.9056  -10.4284   21.0402 C   0  0  0  0  0  0
  -24.3605   -9.4195   21.9175 C   0  0  0  0  0  0
  -23.6284   -8.2234   22.0755 C   0  0  0  0  0  0
  -22.4265   -8.0277   21.3548 C   0  0  0  0  0  0
  -21.9893   -9.0244   20.4639 C   0  0  0  0  0  0
  -22.7228  -10.2122   20.3048 C   0  0  0  0  0  0
  -21.6854   -6.0723   22.5276 C   0  0  0  0  0  0
  -21.4018   -6.5630   23.8206 C   0  0  0  0  0  0
  -21.3662   -5.6790   24.9169 C   0  0  0  0  0  0
  -21.6038   -4.3051   24.7227 C   0  0  0  0  0  0
  -21.8819   -3.8138   23.4351 C   0  0  0  0  0  0
  -21.9196   -4.6952   22.3403 C   0  0  0  0  0  0
  -22.7836  -13.5229   21.1844 C   0  0  0  0  0  0
  -22.1661   -4.2142   21.0981 F   0  0  0  0  0  0
  -21.5628   -3.4535   25.7740 F   0  0  0  0  0  0
  -30.0162  -13.3005   20.4199 N   0  0  0  0  0  0
  -26.2955  -12.9332   20.3278 N   0  0  0  0  0  0
  -25.9302  -11.6487   20.5715 N   0  0  0  0  0  0
  -22.0488  -12.8217   22.0400 N   0  0  0  0  0  0
  -25.4242  -15.1874   20.4074 N   0  0  0  0  0  0
  -31.8898  -14.5614   20.2070 O   0  0  0  0  0  0
  -21.6637   -6.8870   21.4238 O   0  0  0  0  0  0
  -22.3508  -14.5537   20.6705 O   0  0  0  0  0  0
  -24.6143  -31.8685   23.2100 C   0  0  0  0  0  0
  -25.9022  -32.4830   23.8386 C   0  0  1  0  0  0
  -27.2184  -27.4196   20.1017 C   0  0  0  0  0  0
  -25.5889  -33.8623   24.2323 N   0  0  0  0  0  0
  -23.4033  -30.4898   21.5505 C   0  0  2  0  0  0
  -24.8446  -28.9563   20.1161 C   0  0  0  0  0  0
  -22.7426  -29.4613   22.4961 C   0  0  0  0  0  0
  -18.0266  -28.1384   22.8444 C   0  0  0  0  0  0
  -24.1499  -36.7302   23.2642 C   0  0  0  0  0  0
  -25.9324  -30.8304   21.3634 C   0  0  0  0  0  0
  -26.0048  -29.4603   20.7175 C   0  0  0  0  0  0
  -27.1957  -28.6997   20.7090 C   0  0  0  0  0  0
  -26.0458  -26.9405   19.4808 C   0  0  0  0  0  0
  -24.8603  -27.6952   19.4937 C   0  0  0  0  0  0
  -23.6122  -29.8273   20.1631 C   0  0  0  0  0  0
  -25.4118  -36.3114   24.0359 C   0  0  1  0  0  0
  -20.5870  -28.3643   23.1318 C   0  0  2  0  0  0
  -20.6758  -26.9365   22.5436 C   0  0  0  0  0  0
  -19.5740  -26.6369   21.5225 C   0  0  0  0  0  0
  -18.1921  -26.7939   22.1612 C   0  0  0  0  0  0
  -19.1533  -28.8815   23.2876 C   0  0  0  0  0  0
  -18.9465  -30.1407   23.8888 C   0  0  0  0  0  0
  -17.6480  -30.6564   24.0539 C   0  0  0  0  0  0
  -25.9050  -34.9480   23.5131 C   0  0  0  0  0  0
  -16.5347  -29.9069   23.6344 C   0  0  0  0  0  0
  -16.7262  -28.6507   23.0326 C   0  0  0  0  0  0
  -26.4453  -31.6591   25.0705 C   0  0  0  0  0  0
  -25.3731  -31.3691   26.1458 C   0  0  0  0  0  0
  -27.0279  -30.3055   24.6020 C   0  0  0  0  0  0
  -27.6040  -32.4287   25.7472 C   0  0  0  0  0  0
  -27.5584  -37.1784   24.8459 C   0  0  0  0  0  0
  -21.4151  -29.3016   22.3726 N   0  0  0  0  0  0
  -26.4287  -37.3810   23.9440 N   0  0  0  0  0  0
  -24.6687  -31.0774   22.1001 N   0  0  0  0  0  0
  -23.4204  -28.8169   23.2988 O   0  0  0  0  0  0
  -28.3838  -26.6842   20.0553 O   0  0  0  0  0  0
  -26.5605  -34.8925   22.4693 O   0  0  0  0  0  0
  -23.5330  -32.1404   23.7480 O   0  0  0  0  0  0
  -28.1440  -18.1047   20.1284 C   0  0  0  0  0  0
  -27.3674  -19.2799   20.1881 C   0  0  0  0  0  0
  -29.4722  -18.1222   20.6068 C   0  0  0  0  0  0
  -27.9324  -20.4481   20.7381 C   0  0  0  0  0  0
  -29.9336  -19.3327   21.1951 C   0  0  0  0  0  0
  -31.4135  -18.8744   23.1985 C   0  0  0  0  0  0
  -30.8507  -17.0967   18.8227 C   0  0  0  0  0  0
  -28.2043  -25.7116   22.3009 C   0  0  0  0  0  0
  -31.3265  -19.4810   21.7929 C   0  0  0  0  0  0
  -27.2039  -21.7953   20.6836 C   0  0  0  0  0  0
  -27.6367  -24.2567   20.2705 C   0  0  0  0  0  0
  -30.4260  -16.9493   20.3029 C   0  0  2  0  0  0
  -28.4749  -25.4531   20.8085 C   0  0  1  0  0  0
  -29.1777  -20.4539   21.2655 N   0  0  0  0  0  0
  -29.9319  -15.5859   20.5946 N   0  0  0  0  0  0
  -28.1635  -22.9263   20.7015 N   0  3  0  0  0  0
  -31.4550  -12.3449   19.1459 H   0  0  0  0  0  0
  -30.2631  -11.2827   19.8470 H   0  0  0  0  0  0
  -29.7317  -11.7554   17.4323 H   0  0  0  0  0  0
  -29.6743  -13.4660   17.7637 H   0  0  0  0  0  0
  -27.8177  -11.3031   18.8173 H   0  0  0  0  0  0
  -27.3664  -12.6227   17.7749 H   0  0  0  0  0  0
  -27.6786  -14.2514   19.5371 H   0  0  0  0  0  0
  -28.6519  -12.0194   21.3857 H   0  0  0  0  0  0
  -28.4706  -13.6975   21.8271 H   0  0  0  0  0  0
  -25.2757   -9.5680   22.4742 H   0  0  0  0  0  0
  -23.9997   -7.4631   22.7474 H   0  0  0  0  0  0
  -21.0823   -8.8752   19.8944 H   0  0  0  0  0  0
  -22.3677  -10.9659   19.6150 H   0  0  0  0  0  0
  -21.2011   -7.6140   23.9712 H   0  0  0  0  0  0
  -21.1482   -6.0517   25.9078 H   0  0  0  0  0  0
  -22.0598   -2.7600   23.2854 H   0  0  0  0  0  0
  -22.4095  -11.9882   22.4804 H   0  0  0  0  0  0
  -21.1103  -13.1218   22.2611 H   0  0  0  0  0  0
  -24.6518  -15.8379   20.5062 H   0  0  0  0  0  0
  -26.2641  -15.6226   20.0544 H   0  0  0  0  0  0
  -26.7054  -32.5534   23.1113 H   0  0  0  0  0  0
  -25.0076  -33.9788   25.0480 H   0  0  0  0  0  0
  -22.6913  -31.3080   21.4154 H   0  0  0  0  0  0
  -23.3792  -35.9592   23.3299 H   0  0  0  0  0  0
  -24.3599  -36.8931   22.2053 H   0  0  0  0  0  0
  -23.7204  -37.6477   23.6652 H   0  0  0  0  0  0
  -26.0442  -31.5919   20.5893 H   0  0  0  0  0  0
  -26.8184  -30.8848   21.9822 H   0  0  0  0  0  0
  -28.0944  -29.0869   21.1716 H   0  0  0  0  0  0
  -26.0453  -25.9943   18.9648 H   0  0  0  0  0  0
  -23.9708  -27.3145   19.0094 H   0  0  0  0  0  0
  -23.7276  -30.6054   19.4073 H   0  0  0  0  0  0
  -22.7349  -29.2562   19.8548 H   0  0  0  0  0  0
  -25.1278  -36.1991   25.0856 H   0  0  0  0  0  0
  -20.9914  -28.3174   24.1449 H   0  0  0  0  0  0
  -20.5735  -26.2192   23.3587 H   0  0  0  0  0  0
  -21.6615  -26.7427   22.1180 H   0  0  0  0  0  0
  -19.6932  -25.6310   21.1198 H   0  0  0  0  0  0
  -19.6738  -27.3193   20.6778 H   0  0  0  0  0  0
  -17.4214  -26.6644   21.4005 H   0  0  0  0  0  0
  -18.0286  -26.0094   22.9015 H   0  0  0  0  0  0
  -19.7943  -30.7195   24.2259 H   0  0  0  0  0  0
  -17.5048  -31.6261   24.5104 H   0  0  0  0  0  0
  -15.5353  -30.2969   23.7680 H   0  0  0  0  0  0
  -15.8669  -28.0830   22.7042 H   0  0  0  0  0  0
  -24.5929  -30.7028   25.7789 H   0  0  0  0  0  0
  -24.8921  -32.2853   26.4881 H   0  0  0  0  0  0
  -25.8111  -30.8875   27.0228 H   0  0  0  0  0  0
  -26.2775  -29.6823   24.1138 H   0  0  0  0  0  0
  -27.4173  -29.7275   25.4410 H   0  0  0  0  0  0
  -27.8569  -30.4433   23.9079 H   0  0  0  0  0  0
  -27.2658  -33.3600   26.2021 H   0  0  0  0  0  0
  -28.3843  -32.6810   25.0290 H   0  0  0  0  0  0
  -28.0678  -31.8434   26.5404 H   0  0  0  0  0  0
  -28.2549  -38.0135   24.7578 H   0  0  0  0  0  0
  -28.1140  -36.2669   24.6201 H   0  0  0  0  0  0
  -27.2316  -37.1314   25.8861 H   0  0  0  0  0  0
  -20.9300  -29.8745   21.6973 H   0  0  0  0  0  0
  -26.0197  -38.2888   24.1514 H   0  0  0  0  0  0
  -27.7509  -17.2198   19.6458 H   0  0  0  0  0  0
  -26.3687  -19.2901   19.7705 H   0  0  0  0  0  0
  -32.4294  -18.9260   23.5855 H   0  0  0  0  0  0
  -31.1091  -17.8260   23.2027 H   0  0  0  0  0  0
  -30.7624  -19.4119   23.8862 H   0  0  0  0  0  0
  -31.3206  -18.0671   18.6560 H   0  0  0  0  0  0
  -29.9988  -17.0312   18.1463 H   0  0  0  0  0  0
  -31.5758  -16.3508   18.5013 H   0  0  0  0  0  0
  -28.4388  -24.8320   22.9006 H   0  0  0  0  0  0
  -27.1602  -25.9663   22.4858 H   0  0  0  0  0  0
  -28.8211  -26.5286   22.6730 H   0  0  0  0  0  0
  -31.5753  -20.5414   21.8580 H   0  0  0  0  0  0
  -32.0794  -19.0615   21.1290 H   0  0  0  0  0  0
  -26.5149  -21.8768   21.5247 H   0  0  0  0  0  0
  -26.6058  -21.8278   19.7729 H   0  0  0  0  0  0
  -27.6271  -24.2664   19.1800 H   0  0  0  0  0  0
  -26.6002  -24.3616   20.5950 H   0  0  0  0  0  0
  -31.3215  -17.0439   20.9150 H   0  0  0  0  0  0
  -29.5276  -25.1807   20.7150 H   0  0  0  0  0  0
  -28.9520  -15.4550   20.7914 H   0  0  0  0  0  0
  -28.9280  -22.6472   20.1075 H   0  0  0  0  0  0
  -28.5413  -22.9471   21.6348 H   0  0  0  0  0  0
  1 25  1  0  0  0
  1 30  2  0  0  0
  1 85  1  0  0  0
  2  3  1  0  0  0
  2 25  1  0  0  0
  2 87  1  0  0  0
  2 88  1  0  0  0
  3  4  1  0  0  0
  3 89  1  0  0  0
  3 90  1  0  0  0
  4  5  1  0  0  0
  4 91  1  0  0  0
  4 92  1  0  0  0
  5  6  1  0  0  0
  5 26  1  0  0  0
  5 93  1  0  0  0
  6 25  1  0  0  0
  6 94  1  0  0  0
  6 95  1  0  0  0
  7  8  2  0  0  0
  7 26  1  0  0  0
  7 29  1  0  0  0
  8  9  1  0  0  0
  8 22  1  0  0  0
  9 10  1  0  0  0
  9 27  2  0  0  0
 10 11  2  0  0  0
 10 15  1  0  0  0
 11 12  1  0  0  0
 11 96  1  0  0  0
 12 13  2  0  0  0
 12 97  1  0  0  0
 13 14  1  0  0  0
 13 31  1  0  0  0
 14 15  2  0  0  0
 14 98  1  0  0  0
 15 99  1  0  0  0
 16 17  2  0  0  0
 16 21  1  0  0  0
 16 31  1  0  0  0
 17 18  1  0  0  0
 17100  1  0  0  0
 18 19  2  0  0  0
 18101  1  0  0  0
 19 20  1  0  0  0
 19 24  1  0  0  0
 20 21  2  0  0  0
 20102  1  0  0  0
 21 23  1  0  0  0
 22 28  1  0  0  0
 22 32  2  0  0  0
 26 27  1  0  0  0
 28103  1  0  0  0
 28104  1  0  0  0
 29105  1  0  0  0
 29106  1  0  0  0
 33 34  1  0  0  0
 33 66  1  0  0  0
 33 70  2  0  0  0
 34 36  1  0  0  0
 34 59  1  0  0  0
 34107  1  0  0  0
 35 44  2  0  0  0
 35 45  1  0  0  0
 35 68  1  0  0  0
 36 56  1  0  0  0
 36108  1  0  0  0
 37 39  1  0  0  0
 37 47  1  0  0  0
 37 66  1  0  0  0
 37109  1  0  0  0
 38 43  2  0  0  0
 38 46  1  0  0  0
 38 47  1  0  0  0
 39 64  1  0  0  0
 39 67  2  0  0  0
 40 52  1  0  0  0
 40 53  2  0  0  0
 40 58  1  0  0  0
 41110  1  0  0  0
 41111  1  0  0  0
 41112  1  0  0  0
 41 48  1  0  0  0
 42 43  1  0  0  0
 42 66  1  0  0  0
 42113  1  0  0  0
 42114  1  0  0  0
 43 44  1  0  0  0
 44115  1  0  0  0
 45 46  2  0  0  0
 45116  1  0  0  0
 46117  1  0  0  0
 47118  1  0  0  0
 47119  1  0  0  0
 48 56  1  0  0  0
 48 65  1  0  0  0
 48120  1  0  0  0
 49 50  1  0  0  0
 49 53  1  0  0  0
 49 64  1  0  0  0
 49121  1  0  0  0
 50 51  1  0  0  0
 50122  1  0  0  0
 50123  1  0  0  0
 51 52  1  0  0  0
 51124  1  0  0  0
 51125  1  0  0  0
 52126  1  0  0  0
 52127  1  0  0  0
 53 54  1  0  0  0
 54 55  2  0  0  0
 54128  1  0  0  0
 55 57  1  0  0  0
 55129  1  0  0  0
 56 69  2  0  0  0
 57 58  2  0  0  0
 57130  1  0  0  0
 58131  1  0  0  0
 59 60  1  0  0  0
 59 61  1  0  0  0
 59 62  1  0  0  0
 60132  1  0  0  0
 60133  1  0  0  0
 60134  1  0  0  0
 61135  1  0  0  0
 61136  1  0  0  0
 61137  1  0  0  0
 62138  1  0  0  0
 62139  1  0  0  0
 62140  1  0  0  0
 63 65  1  0  0  0
 63141  1  0  0  0
 63142  1  0  0  0
 63143  1  0  0  0
 64144  1  0  0  0
 65145  1  0  0  0
 68 83  1  0  0  0
 71 72  2  0  0  0
 71 73  1  0  0  0
 71146  1  0  0  0
 72 74  1  0  0  0
 72147  1  0  0  0
 73 75  2  0  0  0
 73 82  1  0  0  0
 74 80  1  0  0  0
 74 84  2  0  0  0
 75 79  1  0  0  0
 75 84  1  0  0  0
 76 79  1  0  0  0
 76148  1  0  0  0
 76149  1  0  0  0
 76150  1  0  0  0
 77151  1  0  0  0
 77152  1  0  0  0
 77153  1  0  0  0
 77 82  1  0  0  0
 78154  1  0  0  0
 78155  1  0  0  0
 78156  1  0  0  0
 78 83  1  0  0  0
 79157  1  0  0  0
 79158  1  0  0  0
 80 86  1  0  0  0
 80159  1  0  0  0
 80160  1  0  0  0
 81 83  1  0  0  0
 81 86  1  0  0  0
 81161  1  0  0  0
 81162  1  0  0  0
 82 85  1  0  0  0
 82163  1  0  0  0
 83164  1  0  0  0
 85165  1  0  0  0
 86166  1  0  0  0
 86167  1  0  0  0
M  CHG  1  86   1
M  ISO  4   1 100  68 101  83 101  85 100
M  END
> <chiral flag>
0

> <version>
0

> <s_m_source_file>
/data/baiqing/PycharmProjects/Reinvent-master-3.2/result/LINK_invent/BTK/process_docking_weight1_custom_sum_contain_oxygen_bond_distance_aromatic_linkinvent_7_9_3/rearranged_h_0115.sdf

> <i_m_source_file_index>
32

> <r_mmod_Potential_Energy-OPLS-2005>
-399.532012939453

> <r_mmod_Stretch_Energy-OPLS-2005>
39.4142417907715

> <r_mmod_Bend_Energy-OPLS-2005>
105.68448638916

> <r_mmod_Torsional_Energy-OPLS-2005>
231.209625244141

> <r_mmod_Improper_Torsional_Energy-OPLS-2005>
8.40252017974854

> <r_mmod_Van_der_Waal_Energy-OPLS-2005>
153.45979309082

> <r_mmod_Electrostatic_Energy-OPLS-2005>
-527.192199707031

> <r_mmod_Solvation_Energy-OPLS-2005>
-430.854919433594

> <b_mmod_Minimization_Converged-OPLS-2005>
0

> <r_mmod_RMS_Derivative-OPLS-2005>
3.98937916755676

$$$$
32
                    3D
 Structure written by MMmdl.
163171  0  0  1  0            999 V2000
  -29.2209  -16.3422   20.2447 C   0  0  0  0  0  0
  -30.1668  -13.7542   19.5548 C   0  0  0  0  0  0
  -29.5172  -12.8860   18.4170 C   0  0  0  0  0  0
  -28.1763  -12.2902   18.8662 C   0  0  0  0  0  0
  -27.4624  -13.3086   19.7697 C   0  0  2  0  0  0
  -28.3083  -13.8931   20.9014 C   0  0  0  0  0  0
  -25.1653  -13.8126   20.5636 C   0  0  0  0  0  0
  -24.1230  -13.0263   20.9368 C   0  0  0  0  0  0
  -24.6041  -11.6807   20.8815 C   0  0  0  0  0  0
  -23.8891  -10.4181   21.0453 C   0  0  0  0  0  0
  -24.3544   -9.4128   21.9200 C   0  0  0  0  0  0
  -23.6264   -8.2154   22.0764 C   0  0  0  0  0  0
  -22.4237   -8.0201   21.3560 C   0  0  0  0  0  0
  -21.9826   -9.0133   20.4636 C   0  0  0  0  0  0
  -22.7113  -10.2013   20.3055 C   0  0  0  0  0  0
  -21.6821   -6.0687   22.5298 C   0  0  0  0  0  0
  -21.3994   -6.5613   23.8220 C   0  0  0  0  0  0
  -21.3666   -5.6774   24.9189 C   0  0  0  0  0  0
  -21.6045   -4.3038   24.7236 C   0  0  0  0  0  0
  -21.8823   -3.8121   23.4364 C   0  0  0  0  0  0
  -21.9190   -4.6928   22.3416 C   0  0  0  0  0  0
  -22.7324  -13.5028   21.2082 C   0  0  0  0  0  0
  -22.1665   -4.2128   21.0988 F   0  0  0  0  0  0
  -21.5646   -3.4527   25.7748 F   0  0  0  0  0  0
  -29.1911  -14.8183   20.1984 N   0  0  0  0  0  0
  -26.1880  -12.9338   20.2795 N   0  0  0  0  0  0
  -25.8871  -11.6476   20.5488 N   0  0  0  0  0  0
  -22.0047  -12.7998   22.0667 N   0  0  0  0  0  0
  -25.3103  -15.1904   20.3970 N   0  0  0  0  0  0
  -30.5041  -16.4140   20.1478 O   0  0  0  0  0  0
  -21.6611   -6.8805   21.4256 O   0  0  0  0  0  0
  -22.3015  -14.5350   20.6909 O   0  0  0  0  0  0
  -24.8000  -31.7476   22.7209 C   0  0  0  0  0  0
  -26.0004  -32.3857   23.6038 C   0  0  1  0  0  0
  -26.3505  -28.2099   21.7087 C   0  0  0  0  0  0
  -25.5818  -33.7514   24.0198 N   0  0  0  0  0  0
  -24.1821  -29.4203   20.7457 C   0  0  2  0  0  0
  -25.6360  -28.9601   19.3987 C   0  0  0  0  0  0
  -23.6881  -27.4726   22.0654 C   0  0  0  0  0  0
  -18.1766  -28.1070   22.7461 C   0  0  0  0  0  0
  -24.1444  -36.7085   23.2665 C   0  0  0  0  0  0
  -26.1360  -31.0970   20.7369 C   0  0  0  0  0  0
  -26.5440  -29.7357   20.2041 C   0  0  0  0  0  0
  -27.3027  -29.0246   21.1198 C   0  0  0  0  0  0
  -26.1368  -27.1598   20.7008 C   0  0  0  0  0  0
  -25.6418  -27.5671   19.4654 C   0  0  0  0  0  0
  -24.3165  -29.4506   19.2702 C   0  0  0  0  0  0
  -25.4146  -36.2389   23.9996 C   0  0  1  0  0  0
  -20.7956  -27.6103   23.0444 C   0  0  2  0  0  0
  -20.3269  -26.2667   22.5346 C   0  0  0  0  0  0
  -19.2877  -26.3058   21.4339 C   0  0  0  0  0  0
  -18.0083  -26.8156   21.9961 C   0  0  0  0  0  0
  -19.4764  -28.6582   23.0884 C   0  0  0  0  0  0
  -19.3312  -29.9605   23.6909 C   0  0  0  0  0  0
  -18.0612  -30.6006   23.9255 C   0  0  0  0  0  0
  -25.9253  -34.8976   23.4141 C   0  0  0  0  0  0
  -16.8437  -29.9554   23.6346 C   0  0  0  0  0  0
  -16.9271  -28.6800   23.0852 C   0  0  0  0  0  0
  -26.4205  -31.6325   24.9705 C   0  0  0  0  0  0
  -25.2786  -31.4929   26.0215 C   0  0  0  0  0  0
  -26.9394  -30.2042   24.7349 C   0  0  0  0  0  0
  -27.6223  -32.4040   25.6240 C   0  0  0  0  0  0
  -27.5523  -37.1591   24.8417 C   0  0  0  0  0  0
  -22.3726  -27.3567   22.7958 N   0  0  0  0  0  0
  -26.4102  -37.3395   23.9495 N   0  0  0  0  0  0
  -24.8669  -30.9579   21.4384 N   0  0  0  0  0  0
  -24.2400  -27.0660   23.0775 O   0  0  0  0  0  0
  -25.2964  -29.0302   22.6256 O   0  0  0  0  0  0
  -26.6535  -34.9061   22.4226 O   0  0  0  0  0  0
  -23.7425  -32.0729   23.3163 O   0  0  0  0  0  0
  -23.8331  -20.9341   21.8481 C   0  0  0  0  0  0
  -24.9281  -20.2247   21.3127 C   0  0  0  0  0  0
  -23.7281  -22.1941   21.3472 C   0  0  0  0  0  0
  -25.7452  -20.9428   20.4771 C   0  0  0  0  0  0
  -22.6037  -23.1148   21.7525 C   0  0  0  0  0  0
  -22.3398  -26.2654   18.4491 C   0  0  0  0  0  0
  -21.2870  -29.3415   19.6582 C   0  0  0  0  0  0
  -27.3127  -19.5185   20.1198 C   0  0  0  0  0  0
  -24.2214  -24.4466   19.9149 C   0  0  0  0  0  0
  -23.0289  -29.6014   22.5978 C   0  0  0  0  0  0
  -22.7764  -26.2238   19.9581 C   0  0  1  0  0  0
  -22.0696  -28.3466   20.6232 C   0  0  2  0  0  0
  -24.7442  -22.5382   20.4349 N   0  0  0  0  0  0
  -28.0283  -17.6017   20.2563 N   0  0  0  0  0  0
  -30.9804  -14.3036   19.0762 H   0  0  0  0  0  0
  -30.6476  -13.1497   20.3267 H   0  0  0  0  0  0
  -30.2161  -12.1182   18.0783 H   0  0  0  0  0  0
  -29.3323  -13.5353   17.5537 H   0  0  0  0  0  0
  -28.3769  -11.3777   19.4317 H   0  0  0  0  0  0
  -27.5636  -12.0148   18.0022 H   0  0  0  0  0  0
  -27.2217  -14.1155   19.0720 H   0  0  0  0  0  0
  -28.7988  -13.1626   21.5435 H   0  0  0  0  0  0
  -27.6895  -14.5103   21.5553 H   0  0  0  0  0  0
  -25.2711   -9.5645   22.4730 H   0  0  0  0  0  0
  -23.9997   -7.4549   22.7481 H   0  0  0  0  0  0
  -21.0762   -8.8623   19.8941 H   0  0  0  0  0  0
  -22.3594  -10.9544   19.6148 H   0  0  0  0  0  0
  -21.1963   -7.6121   23.9717 H   0  0  0  0  0  0
  -21.1493   -6.0502   25.9087 H   0  0  0  0  0  0
  -22.0592   -2.7591   23.2858 H   0  0  0  0  0  0
  -22.3733  -11.9688   22.5077 H   0  0  0  0  0  0
  -21.0635  -13.0957   22.2924 H   0  0  0  0  0  0
  -24.4726  -15.7627   20.4155 H   0  0  0  0  0  0
  -26.0414  -15.5865   19.8306 H   0  0  0  0  0  0
  -26.9280  -32.4507   23.0428 H   0  0  0  0  0  0
  -24.8994  -33.7709   24.7633 H   0  0  0  0  0  0
  -23.4230  -30.1923   20.4762 H   0  0  0  0  0  0
  -23.3656  -35.9443   23.2806 H   0  0  0  0  0  0
  -24.3411  -36.9628   22.2232 H   0  0  0  0  0  0
  -23.7269  -37.5999   23.7406 H   0  0  0  0  0  0
  -26.0331  -31.7312   19.8547 H   0  0  0  0  0  0
  -26.9906  -31.5314   21.2684 H   0  0  0  0  0  0
  -27.8012  -29.6518   21.8331 H   0  0  0  0  0  0
  -26.1306  -26.1296   21.0058 H   0  0  0  0  0  0
  -25.2583  -26.8817   18.7214 H   0  0  0  0  0  0
  -24.4278  -30.3824   18.7092 H   0  0  0  0  0  0
  -23.7472  -28.7606   18.6687 H   0  0  0  0  0  0
  -25.1458  -36.0715   25.0468 H   0  0  0  0  0  0
  -20.9134  -27.5587   24.1220 H   0  0  0  0  0  0
  -19.8711  -25.7607   23.3906 H   0  0  0  0  0  0
  -21.0889  -25.5601   22.2042 H   0  0  0  0  0  0
  -19.1142  -25.2900   21.0837 H   0  0  0  0  0  0
  -19.5654  -26.8612   20.5469 H   0  0  0  0  0  0
  -17.3262  -27.0183   21.1760 H   0  0  0  0  0  0
  -17.5282  -26.0687   22.6112 H   0  0  0  0  0  0
  -20.2178  -30.4760   24.0314 H   0  0  0  0  0  0
  -18.0886  -31.5983   24.3239 H   0  0  0  0  0  0
  -15.9120  -30.4319   23.8447 H   0  0  0  0  0  0
  -16.0404  -28.1036   22.8757 H   0  0  0  0  0  0
  -24.3217  -31.2490   25.5582 H   0  0  0  0  0  0
  -25.1076  -32.4234   26.5729 H   0  0  0  0  0  0
  -25.4499  -30.6960   26.7505 H   0  0  0  0  0  0
  -27.5569  -30.1001   23.8492 H   0  0  0  0  0  0
  -26.1223  -29.4805   24.7165 H   0  0  0  0  0  0
  -27.5322  -29.8629   25.5877 H   0  0  0  0  0  0
  -27.4039  -33.4536   25.8245 H   0  0  0  0  0  0
  -28.4968  -32.3974   24.9641 H   0  0  0  0  0  0
  -27.9638  -31.9754   26.5702 H   0  0  0  0  0  0
  -28.2317  -38.0126   24.7776 H   0  0  0  0  0  0
  -28.1202  -36.2700   24.5689 H   0  0  0  0  0  0
  -27.2406  -37.0672   25.8843 H   0  0  0  0  0  0
  -22.6870  -26.7679   23.5550 H   0  0  0  0  0  0
  -25.9728  -38.2332   24.1660 H   0  0  0  0  0  0
  -23.1408  -20.5418   22.5907 H   0  0  0  0  0  0
  -25.1678  -19.2041   21.6022 H   0  0  0  0  0  0
  -22.0038  -22.6905   22.5645 H   0  0  0  0  0  0
  -21.9298  -23.3160   20.9147 H   0  0  0  0  0  0
  -22.9743  -24.0718   22.1135 H   0  0  0  0  0  0
  -21.2918  -25.9557   18.2666 H   0  0  0  0  0  0
  -23.0018  -25.6820   17.7934 H   0  0  0  0  0  0
  -22.3799  -27.2719   18.0298 H   0  0  0  0  0  0
  -21.9301  -29.9970   19.0578 H   0  0  0  0  0  0
  -20.8589  -30.0628   20.3382 H   0  0  0  0  0  0
  -20.3176  -29.0342   19.1972 H   0  0  0  0  0  0
  -28.1215  -19.9956   20.6564 H   0  0  0  0  0  0
  -27.5633  -19.7373   19.0749 H   0  0  0  0  0  0
  -25.2053  -24.8483   19.7000 H   0  0  0  0  0  0
  -23.9161  -24.1741   18.8989 H   0  0  0  0  0  0
  -22.6249  -30.5412   22.2043 H   0  0  0  0  0  0
  -22.5486  -29.5109   23.6209 H   0  0  0  0  0  0
  -21.9314  -25.6622   20.3267 H   0  0  0  0  0  0
  -21.0859  -28.0173   20.8336 H   0  0  0  0  0  0
  -27.1760  -17.0771   20.2971 H   0  0  0  0  0  0
  1 25  1  0  0  0
  1 30  2  0  0  0
  1 84  1  0  0  0
  2  3  1  0  0  0
  2 25  1  0  0  0
  2 85  1  0  0  0
  2 86  1  0  0  0
  3  4  1  0  0  0
  3 87  1  0  0  0
  3 88  1  0  0  0
  4  5  1  0  0  0
  4 89  1  0  0  0
  4 90  1  0  0  0
  5  6  1  0  0  0
  5 26  1  0  0  0
  5 91  1  0  0  0
  6 25  1  0  0  0
  6 92  1  0  0  0
  6 93  1  0  0  0
  7  8  2  0  0  0
  7 26  1  0  0  0
  7 29  1  0  0  0
  8  9  1  0  0  0
  8 22  1  0  0  0
  9 10  1  0  0  0
  9 27  2  0  0  0
 10 11  2  0  0  0
 10 15  1  0  0  0
 11 12  1  0  0  0
 11 94  1  0  0  0
 12 13  2  0  0  0
 12 95  1  0  0  0
 13 14  1  0  0  0
 13 31  1  0  0  0
 14 15  2  0  0  0
 14 96  1  0  0  0
 15 97  1  0  0  0
 16 17  2  0  0  0
 16 21  1  0  0  0
 16 31  1  0  0  0
 17 18  1  0  0  0
 17 98  1  0  0  0
 18 19  2  0  0  0
 18 99  1  0  0  0
 19 20  1  0  0  0
 19 24  1  0  0  0
 20 21  2  0  0  0
 20100  1  0  0  0
 21 23  1  0  0  0
 22 28  1  0  0  0
 22 32  2  0  0  0
 26 27  1  0  0  0
 28101  1  0  0  0
 28102  1  0  0  0
 29103  1  0  0  0
 29104  1  0  0  0
 33 34  1  0  0  0
 33 66  1  0  0  0
 33 70  2  0  0  0
 34 36  1  0  0  0
 34 59  1  0  0  0
 34105  1  0  0  0
 35 44  2  0  0  0
 35 45  1  0  0  0
 35 68  1  0  0  0
 36 56  1  0  0  0
 36106  1  0  0  0
 37 39  1  0  0  0
 37 47  1  0  0  0
 37 66  1  0  0  0
 37107  1  0  0  0
 38 43  2  0  0  0
 38 46  1  0  0  0
 38 47  1  0  0  0
 39 64  1  0  0  0
 39 67  2  0  0  0
 40 52  1  0  0  0
 40 53  2  0  0  0
 40 58  1  0  0  0
 41108  1  0  0  0
 41109  1  0  0  0
 41110  1  0  0  0
 41 48  1  0  0  0
 42 43  1  0  0  0
 42 66  1  0  0  0
 42111  1  0  0  0
 42112  1  0  0  0
 43 44  1  0  0  0
 44113  1  0  0  0
 45 46  2  0  0  0
 45114  1  0  0  0
 46115  1  0  0  0
 47116  1  0  0  0
 47117  1  0  0  0
 48 56  1  0  0  0
 48 65  1  0  0  0
 48118  1  0  0  0
 49 50  1  0  0  0
 49 53  1  0  0  0
 49 64  1  0  0  0
 49119  1  0  0  0
 50 51  1  0  0  0
 50120  1  0  0  0
 50121  1  0  0  0
 51 52  1  0  0  0
 51122  1  0  0  0
 51123  1  0  0  0
 52124  1  0  0  0
 52125  1  0  0  0
 53 54  1  0  0  0
 54 55  2  0  0  0
 54126  1  0  0  0
 55 57  1  0  0  0
 55127  1  0  0  0
 56 69  2  0  0  0
 57 58  2  0  0  0
 57128  1  0  0  0
 58129  1  0  0  0
 59 60  1  0  0  0
 59 61  1  0  0  0
 59 62  1  0  0  0
 60130  1  0  0  0
 60131  1  0  0  0
 60132  1  0  0  0
 61133  1  0  0  0
 61134  1  0  0  0
 61135  1  0  0  0
 62136  1  0  0  0
 62137  1  0  0  0
 62138  1  0  0  0
 63 65  1  0  0  0
 63139  1  0  0  0
 63140  1  0  0  0
 63141  1  0  0  0
 64142  1  0  0  0
 65143  1  0  0  0
 68 80  1  0  0  0
 71 72  1  0  0  0
 71 73  2  0  0  0
 71144  1  0  0  0
 72 74  2  0  0  0
 72145  1  0  0  0
 73 75  1  0  0  0
 73 83  1  0  0  0
 74 78  1  0  0  0
 74 83  1  0  0  0
 75146  1  0  0  0
 75147  1  0  0  0
 75148  1  0  0  0
 76149  1  0  0  0
 76150  1  0  0  0
 76151  1  0  0  0
 76 81  1  0  0  0
 77152  1  0  0  0
 77153  1  0  0  0
 77154  1  0  0  0
 77 82  1  0  0  0
 78 84  1  0  0  0
 78155  1  0  0  0
 78156  1  0  0  0
 79 81  1  0  0  0
 79 83  1  0  0  0
 79157  1  0  0  0
 79158  1  0  0  0
 80 82  1  0  0  0
 80159  1  0  0  0
 80160  1  0  0  0
 81 82  1  0  0  0
 81161  1  0  0  0
 82162  1  0  0  0
 84163  1  0  0  0
M  ISO  4   1 100  68 101  80 101  84 100
M  END
> <chiral flag>
0

> <version>
0

> <s_m_source_file>
/data/baiqing/PycharmProjects/Reinvent-master-3.2/result/LINK_invent/BTK/process_docking_weight1_custom_sum_contain_oxygen_bond_distance_aromatic_linkinvent_7_9_3/rearranged_h_0115.sdf

> <i_m_source_file_index>
33

> <r_mmod_Potential_Energy-OPLS-2005>
19344.18359375

> <r_mmod_Stretch_Energy-OPLS-2005>
7724.1279296875

> <r_mmod_Bend_Energy-OPLS-2005>
2337.69287109375

> <r_mmod_Torsional_Energy-OPLS-2005>
680.398315429688

> <r_mmod_Improper_Torsional_Energy-OPLS-2005>
102.270576477051

> <r_mmod_Van_der_Waal_Energy-OPLS-2005>
2138.06323242188

> <r_mmod_Electrostatic_Energy-OPLS-2005>
-397.8916015625

> <r_mmod_Solvation_Energy-OPLS-2005>
-217.714447021484

> <b_mmod_Minimization_Converged-OPLS-2005>
0

> <r_mmod_RMS_Derivative-OPLS-2005>
50.6548347473145

$$$$
33
                    3D
 Structure written by MMmdl.
155163  0  0  1  0            999 V2000
  -30.4366  -15.2804   20.3660 C   0  0  0  0  0  0
  -30.4375  -12.8201   19.5239 C   0  0  0  0  0  0
  -29.5368  -12.5818   18.2868 C   0  0  0  0  0  0
  -28.0840  -12.3042   18.7097 C   0  0  0  0  0  0
  -27.6083  -13.2774   19.8180 C   0  0  2  0  0  0
  -28.6419  -13.4586   20.9502 C   0  0  0  0  0  0
  -25.2372  -13.8253   20.5747 C   0  0  0  0  0  0
  -24.1733  -13.0433   20.9259 C   0  0  0  0  0  0
  -24.6386  -11.6936   20.8741 C   0  0  0  0  0  0
  -23.9080  -10.4292   21.0390 C   0  0  0  0  0  0
  -24.3633   -9.4216   21.9164 C   0  0  0  0  0  0
  -23.6311   -8.2250   22.0741 C   0  0  0  0  0  0
  -22.4289   -8.0281   21.3543 C   0  0  0  0  0  0
  -21.9921   -9.0246   20.4637 C   0  0  0  0  0  0
  -22.7249  -10.2129   20.3042 C   0  0  0  0  0  0
  -21.6858   -6.0729   22.5282 C   0  0  0  0  0  0
  -21.4015   -6.5634   23.8212 C   0  0  0  0  0  0
  -21.3666   -5.6788   24.9176 C   0  0  0  0  0  0
  -21.6055   -4.3050   24.7229 C   0  0  0  0  0  0
  -21.8821   -3.8141   23.4347 C   0  0  0  0  0  0
  -21.9199   -4.6956   22.3405 C   0  0  0  0  0  0
  -22.7750  -13.5192   21.1925 C   0  0  0  0  0  0
  -22.1668   -4.2150   21.0976 F   0  0  0  0  0  0
  -21.5630   -3.4530   25.7735 F   0  0  0  0  0  0
  -29.8726  -13.9709   20.3234 N   0  0  0  0  0  0
  -26.2797  -12.9528   20.3192 N   0  0  0  0  0  0
  -25.9322  -11.6630   20.5678 N   0  0  0  0  0  0
  -22.0415  -12.8157   22.0479 N   0  0  0  0  0  0
  -25.4016  -15.1994   20.4206 N   0  0  0  0  0  0
  -31.6588  -15.2736   20.1595 O   0  0  0  0  0  0
  -21.6657   -6.8876   21.4243 O   0  0  0  0  0  0
  -22.3420  -14.5485   20.6761 O   0  0  0  0  0  0
  -24.6649  -31.8209   23.1675 C   0  0  0  0  0  0
  -25.9306  -32.4582   23.8172 C   0  0  1  0  0  0
  -27.2289  -26.9069   20.1971 C   0  0  0  0  0  0
  -25.5960  -33.8400   24.2079 N   0  0  0  0  0  0
  -23.4828  -30.4274   21.5175 C   0  0  2  0  0  0
  -24.9385  -28.8056   20.1175 C   0  0  0  0  0  0
  -22.7690  -29.4417   22.4791 C   0  0  0  0  0  0
  -18.0322  -28.1419   22.8466 C   0  0  0  0  0  0
  -24.1493  -36.7208   23.2659 C   0  0  0  0  0  0
  -26.0522  -30.6208   21.4003 C   0  0  0  0  0  0
  -26.1214  -29.2066   20.7497 C   0  0  0  0  0  0
  -27.2610  -28.2794   20.7595 C   0  0  0  0  0  0
  -26.0135  -26.6575   19.5211 C   0  0  0  0  0  0
  -24.9102  -27.5525   19.4820 C   0  0  0  0  0  0
  -23.7248  -29.7352   20.1469 C   0  0  0  0  0  0
  -25.4143  -36.2978   24.0304 C   0  0  1  0  0  0
  -20.5951  -28.3762   23.1188 C   0  0  2  0  0  0
  -20.6799  -26.9440   22.5410 C   0  0  0  0  0  0
  -19.5772  -26.6379   21.5224 C   0  0  0  0  0  0
  -18.1953  -26.7951   22.1626 C   0  0  0  0  0  0
  -19.1583  -28.8910   23.2812 C   0  0  0  0  0  0
  -18.9493  -30.1500   23.8849 C   0  0  0  0  0  0
  -17.6484  -30.6606   24.0550 C   0  0  0  0  0  0
  -25.9093  -34.9350   23.5022 C   0  0  0  0  0  0
  -16.5377  -29.9089   23.6344 C   0  0  0  0  0  0
  -16.7302  -28.6509   23.0364 C   0  0  0  0  0  0
  -26.4552  -31.6533   25.0709 C   0  0  0  0  0  0
  -25.3673  -31.3788   26.1364 C   0  0  0  0  0  0
  -27.0454  -30.2902   24.6455 C   0  0  0  0  0  0
  -27.6048  -32.4342   25.7513 C   0  0  0  0  0  0
  -27.5556  -37.1800   24.8494 C   0  0  0  0  0  0
  -21.4358  -29.3040   22.3536 N   0  0  0  0  0  0
  -26.4313  -37.3685   23.9367 N   0  0  0  0  0  0
  -24.7547  -30.9845   22.0821 N   0  0  0  0  0  0
  -23.4220  -28.8004   23.3060 O   0  0  0  0  0  0
  -28.2518  -25.8149   20.2593 O   0  0  0  0  0  0
  -26.5715  -34.8878   22.4625 O   0  0  0  0  0  0
  -23.5704  -32.1190   23.6740 O   0  0  0  0  0  0
  -30.4906  -23.7779   20.2419 C   0  0  0  0  0  0
  -31.7944  -23.2892   20.1885 C   0  0  0  0  0  0
  -29.3311  -22.9618   20.2590 C   0  0  0  0  0  0
  -31.9932  -21.9191   20.1478 C   0  0  0  0  0  0
  -29.6715  -21.3928   20.2786 C   0  0  0  0  0  0
  -34.0998  -21.2760   21.4026 C   0  0  0  0  0  0
  -28.0665  -24.1577   20.2276 C   0  0  0  0  0  0
  -33.3941  -21.3456   20.0445 C   0  0  0  0  0  0
  -29.0453  -19.7681   20.3433 C   0  0  0  0  0  0
  -30.0122  -18.2130   20.3465 C   0  0  0  0  0  0
  -30.9807  -21.0470   20.2187 N   0  0  0  0  0  0
  -29.6820  -16.5626   20.4393 N   0  0  0  0  0  0
  -31.4543  -13.0287   19.1862 H   0  0  0  0  0  0
  -30.5136  -11.9174   20.1313 H   0  0  0  0  0  0
  -29.9188  -11.7549   17.6879 H   0  0  0  0  0  0
  -29.5678  -13.4651   17.6468 H   0  0  0  0  0  0
  -28.0368  -11.2770   19.0743 H   0  0  0  0  0  0
  -27.4223  -12.3522   17.8446 H   0  0  0  0  0  0
  -27.5187  -14.2430   19.3183 H   0  0  0  0  0  0
  -28.8156  -12.5250   21.4873 H   0  0  0  0  0  0
  -28.2757  -14.1787   21.6842 H   0  0  0  0  0  0
  -25.2772   -9.5695   22.4748 H   0  0  0  0  0  0
  -24.0027   -7.4633   22.7447 H   0  0  0  0  0  0
  -21.0862   -8.8755   19.8932 H   0  0  0  0  0  0
  -22.3697  -10.9665   19.6152 H   0  0  0  0  0  0
  -21.2000   -7.6136   23.9718 H   0  0  0  0  0  0
  -21.1493   -6.0511   25.9082 H   0  0  0  0  0  0
  -22.0596   -2.7600   23.2847 H   0  0  0  0  0  0
  -22.4059  -11.9838   22.4883 H   0  0  0  0  0  0
  -21.1011  -13.1142   22.2662 H   0  0  0  0  0  0
  -24.6298  -15.8492   20.5305 H   0  0  0  0  0  0
  -26.2416  -15.6421   20.0728 H   0  0  0  0  0  0
  -26.7395  -32.5120   23.0907 H   0  0  0  0  0  0
  -25.0032  -33.9479   25.0182 H   0  0  0  0  0  0
  -22.7971  -31.2586   21.3404 H   0  0  0  0  0  0
  -23.3727  -35.9576   23.3418 H   0  0  0  0  0  0
  -24.3525  -36.8745   22.2048 H   0  0  0  0  0  0
  -23.7306  -37.6455   23.6645 H   0  0  0  0  0  0
  -26.2308  -31.3556   20.6139 H   0  0  0  0  0  0
  -26.9136  -30.6851   22.0539 H   0  0  0  0  0  0
  -28.1602  -28.5842   21.2769 H   0  0  0  0  0  0
  -25.8857  -25.6992   19.0391 H   0  0  0  0  0  0
  -24.0118  -27.2375   18.9687 H   0  0  0  0  0  0
  -23.8803  -30.4987   19.3833 H   0  0  0  0  0  0
  -22.8355  -29.1862   19.8322 H   0  0  0  0  0  0
  -25.1357  -36.1809   25.0802 H   0  0  0  0  0  0
  -21.0028  -28.3370   24.1317 H   0  0  0  0  0  0
  -20.5685  -26.2380   23.3653 H   0  0  0  0  0  0
  -21.6661  -26.7416   22.1212 H   0  0  0  0  0  0
  -19.6930  -25.6277   21.1284 H   0  0  0  0  0  0
  -19.6714  -27.3166   20.6732 H   0  0  0  0  0  0
  -17.4225  -26.6690   21.4030 H   0  0  0  0  0  0
  -18.0343  -26.0111   22.9038 H   0  0  0  0  0  0
  -19.7966  -30.7326   24.2206 H   0  0  0  0  0  0
  -17.5034  -31.6280   24.5163 H   0  0  0  0  0  0
  -15.5375  -30.2974   23.7700 H   0  0  0  0  0  0
  -15.8703  -28.0809   22.7119 H   0  0  0  0  0  0
  -24.5854  -30.7147   25.7669 H   0  0  0  0  0  0
  -24.8855  -32.2982   26.4698 H   0  0  0  0  0  0
  -25.7879  -30.9008   27.0217 H   0  0  0  0  0  0
  -26.3129  -29.6578   24.1426 H   0  0  0  0  0  0
  -27.3948  -29.7274   25.5124 H   0  0  0  0  0  0
  -27.9085  -30.4100   23.9902 H   0  0  0  0  0  0
  -27.2628  -33.3678   26.1999 H   0  0  0  0  0  0
  -28.3905  -32.6849   25.0371 H   0  0  0  0  0  0
  -28.0677  -31.8533   26.5504 H   0  0  0  0  0  0
  -28.2679  -37.9983   24.7353 H   0  0  0  0  0  0
  -28.0942  -36.2504   24.6581 H   0  0  0  0  0  0
  -27.2233  -37.1761   25.8891 H   0  0  0  0  0  0
  -20.9637  -29.8703   21.6625 H   0  0  0  0  0  0
  -26.0178  -38.2781   24.1238 H   0  0  0  0  0  0
  -30.4032  -24.8533   20.2499 H   0  0  0  0  0  0
  -32.6351  -23.9698   20.1680 H   0  0  0  0  0  0
  -35.0938  -20.8420   21.2960 H   0  0  0  0  0  0
  -33.5385  -20.6631   22.1081 H   0  0  0  0  0  0
  -34.2136  -22.2701   21.8366 H   0  0  0  0  0  0
  -27.4086  -23.9119   21.0611 H   0  0  0  0  0  0
  -27.4858  -23.9300   19.3347 H   0  0  0  0  0  0
  -33.9753  -21.9536   19.3496 H   0  0  0  0  0  0
  -33.3494  -20.3484   19.6045 H   0  0  0  0  0  0
  -28.3523  -19.7027   19.5046 H   0  0  0  0  0  0
  -28.4087  -19.7468   21.2278 H   0  0  0  0  0  0
  -30.7245  -18.3484   21.1602 H   0  0  0  0  0  0
  -30.6283  -18.2792   19.4490 H   0  0  0  0  0  0
  -28.6982  -16.3815   20.5753 H   0  0  0  0  0  0
  1 25  1  0  0  0
  1 30  2  0  0  0
  1 82  1  0  0  0
  2  3  1  0  0  0
  2 25  1  0  0  0
  2 83  1  0  0  0
  2 84  1  0  0  0
  3  4  1  0  0  0
  3 85  1  0  0  0
  3 86  1  0  0  0
  4  5  1  0  0  0
  4 87  1  0  0  0
  4 88  1  0  0  0
  5  6  1  0  0  0
  5 26  1  0  0  0
  5 89  1  0  0  0
  6 25  1  0  0  0
  6 90  1  0  0  0
  6 91  1  0  0  0
  7  8  2  0  0  0
  7 26  1  0  0  0
  7 29  1  0  0  0
  8  9  1  0  0  0
  8 22  1  0  0  0
  9 10  1  0  0  0
  9 27  2  0  0  0
 10 11  2  0  0  0
 10 15  1  0  0  0
 11 12  1  0  0  0
 11 92  1  0  0  0
 12 13  2  0  0  0
 12 93  1  0  0  0
 13 14  1  0  0  0
 13 31  1  0  0  0
 14 15  2  0  0  0
 14 94  1  0  0  0
 15 95  1  0  0  0
 16 17  2  0  0  0
 16 21  1  0  0  0
 16 31  1  0  0  0
 17 18  1  0  0  0
 17 96  1  0  0  0
 18 19  2  0  0  0
 18 97  1  0  0  0
 19 20  1  0  0  0
 19 24  1  0  0  0
 20 21  2  0  0  0
 20 98  1  0  0  0
 21 23  1  0  0  0
 22 28  1  0  0  0
 22 32  2  0  0  0
 26 27  1  0  0  0
 28 99  1  0  0  0
 28100  1  0  0  0
 29101  1  0  0  0
 29102  1  0  0  0
 33 34  1  0  0  0
 33 66  1  0  0  0
 33 70  2  0  0  0
 34 36  1  0  0  0
 34 59  1  0  0  0
 34103  1  0  0  0
 35 44  2  0  0  0
 35 45  1  0  0  0
 35 68  1  0  0  0
 36 56  1  0  0  0
 36104  1  0  0  0
 37 39  1  0  0  0
 37 47  1  0  0  0
 37 66  1  0  0  0
 37105  1  0  0  0
 38 43  2  0  0  0
 38 46  1  0  0  0
 38 47  1  0  0  0
 39 64  1  0  0  0
 39 67  2  0  0  0
 40 52  1  0  0  0
 40 53  2  0  0  0
 40 58  1  0  0  0
 41106  1  0  0  0
 41107  1  0  0  0
 41108  1  0  0  0
 41 48  1  0  0  0
 42 43  1  0  0  0
 42 66  1  0  0  0
 42109  1  0  0  0
 42110  1  0  0  0
 43 44  1  0  0  0
 44111  1  0  0  0
 45 46  2  0  0  0
 45112  1  0  0  0
 46113  1  0  0  0
 47114  1  0  0  0
 47115  1  0  0  0
 48 56  1  0  0  0
 48 65  1  0  0  0
 48116  1  0  0  0
 49 50  1  0  0  0
 49 53  1  0  0  0
 49 64  1  0  0  0
 49117  1  0  0  0
 50 51  1  0  0  0
 50118  1  0  0  0
 50119  1  0  0  0
 51 52  1  0  0  0
 51120  1  0  0  0
 51121  1  0  0  0
 52122  1  0  0  0
 52123  1  0  0  0
 53 54  1  0  0  0
 54 55  2  0  0  0
 54124  1  0  0  0
 55 57  1  0  0  0
 55125  1  0  0  0
 56 69  2  0  0  0
 57 58  2  0  0  0
 57126  1  0  0  0
 58127  1  0  0  0
 59 60  1  0  0  0
 59 61  1  0  0  0
 59 62  1  0  0  0
 60128  1  0  0  0
 60129  1  0  0  0
 60130  1  0  0  0
 61131  1  0  0  0
 61132  1  0  0  0
 61133  1  0  0  0
 62134  1  0  0  0
 62135  1  0  0  0
 62136  1  0  0  0
 63 65  1  0  0  0
 63137  1  0  0  0
 63138  1  0  0  0
 63139  1  0  0  0
 64140  1  0  0  0
 65141  1  0  0  0
 68 77  1  0  0  0
 71 72  2  0  0  0
 71 73  1  0  0  0
 71142  1  0  0  0
 72 74  1  0  0  0
 72143  1  0  0  0
 73 75  2  0  0  0
 73 77  1  0  0  0
 74 78  1  0  0  0
 74 81  2  0  0  0
 75 79  1  0  0  0
 75 81  1  0  0  0
 76 78  1  0  0  0
 76144  1  0  0  0
 76145  1  0  0  0
 76146  1  0  0  0
 77147  1  0  0  0
 77148  1  0  0  0
 78149  1  0  0  0
 78150  1  0  0  0
 79 80  1  0  0  0
 79151  1  0  0  0
 79152  1  0  0  0
 80 82  1  0  0  0
 80153  1  0  0  0
 80154  1  0  0  0
 82155  1  0  0  0
M  ISO  4   1 100  68 101  77 101  82 100
M  END
> <chiral flag>
0

> <version>
0

> <s_m_source_file>
/data/baiqing/PycharmProjects/Reinvent-master-3.2/result/LINK_invent/BTK/process_docking_weight1_custom_sum_contain_oxygen_bond_distance_aromatic_linkinvent_7_9_3/rearranged_h_0115.sdf

> <i_m_source_file_index>
34

> <r_mmod_Potential_Energy-OPLS-2005>
1295.41381835938

> <r_mmod_Stretch_Energy-OPLS-2005>
662.979797363281

> <r_mmod_Bend_Energy-OPLS-2005>
533.107543945312

> <r_mmod_Torsional_Energy-OPLS-2005>
214.331085205078

> <r_mmod_Improper_Torsional_Energy-OPLS-2005>
3.8464024066925

> <r_mmod_Van_der_Waal_Energy-OPLS-2005>
126.849487304688

> <r_mmod_Electrostatic_Energy-OPLS-2005>
-496.109252929688

> <r_mmod_Solvation_Energy-OPLS-2005>
-225.879684448242

> <b_mmod_Minimization_Converged-OPLS-2005>
0

> <r_mmod_RMS_Derivative-OPLS-2005>
2.10803294181824

$$$$
34
                    3D
 Structure written by MMmdl.
173181  0  0  1  0            999 V2000
  -30.6738  -14.4756   20.4791 C   0  0  0  0  0  0
  -30.4252  -12.2866   19.4214 C   0  0  0  0  0  0
  -29.4972  -12.4893   18.2046 C   0  0  0  0  0  0
  -28.0157  -12.3655   18.6131 C   0  0  0  0  0  0
  -27.6594  -13.2023   19.8704 C   0  0  2  0  0  0
  -28.7037  -12.9925   20.9902 C   0  0  0  0  0  0
  -25.2586  -13.8161   20.5601 C   0  0  0  0  0  0
  -24.1835  -13.0456   20.9192 C   0  0  0  0  0  0
  -24.6389  -11.6906   20.8753 C   0  0  0  0  0  0
  -23.9048  -10.4290   21.0412 C   0  0  0  0  0  0
  -24.3602   -9.4198   21.9194 C   0  0  0  0  0  0
  -23.6273   -8.2238   22.0757 C   0  0  0  0  0  0
  -22.4260   -8.0275   21.3546 C   0  0  0  0  0  0
  -21.9886   -9.0252   20.4647 C   0  0  0  0  0  0
  -22.7217  -10.2139   20.3058 C   0  0  0  0  0  0
  -21.6856   -6.0720   22.5275 C   0  0  0  0  0  0
  -21.3997   -6.5617   23.8204 C   0  0  0  0  0  0
  -21.3669   -5.6782   24.9170 C   0  0  0  0  0  0
  -21.6061   -4.3043   24.7225 C   0  0  0  0  0  0
  -21.8821   -3.8131   23.4339 C   0  0  0  0  0  0
  -21.9189   -4.6946   22.3395 C   0  0  0  0  0  0
  -22.7867  -13.5233   21.1858 C   0  0  0  0  0  0
  -22.1652   -4.2135   21.0976 F   0  0  0  0  0  0
  -21.5650   -3.4525   25.7737 F   0  0  0  0  0  0
  -30.0381  -13.2759   20.4343 N   0  0  0  0  0  0
  -26.3012  -12.9320   20.3331 N   0  0  0  0  0  0
  -25.9308  -11.6498   20.5775 N   0  0  0  0  0  0
  -22.0493  -12.8251   22.0418 N   0  0  0  0  0  0
  -25.4281  -15.1857   20.3859 N   0  0  0  0  0  0
  -31.8450  -14.6385   20.1185 O   0  0  0  0  0  0
  -21.6635   -6.8866   21.4237 O   0  0  0  0  0  0
  -22.3546  -14.5539   20.6690 O   0  0  0  0  0  0
  -24.6113  -31.8712   23.2068 C   0  0  0  0  0  0
  -25.9026  -32.4822   23.8351 C   0  0  1  0  0  0
  -27.2334  -27.4614   20.0877 C   0  0  0  0  0  0
  -25.5921  -33.8616   24.2292 N   0  0  0  0  0  0
  -23.3932  -30.4952   21.5486 C   0  0  2  0  0  0
  -24.8388  -28.9647   20.1118 C   0  0  0  0  0  0
  -22.7387  -29.4656   22.4977 C   0  0  0  0  0  0
  -18.0264  -28.1382   22.8491 C   0  0  0  0  0  0
  -24.1497  -36.7321   23.2636 C   0  0  0  0  0  0
  -25.9200  -30.8488   21.3498 C   0  0  0  0  0  0
  -25.9983  -29.4838   20.7005 C   0  0  0  0  0  0
  -27.1988  -28.7410   20.6806 C   0  0  0  0  0  0
  -26.0551  -26.9526   19.4912 C   0  0  0  0  0  0
  -24.8618  -27.7011   19.4997 C   0  0  0  0  0  0
  -23.5975  -29.8263   20.1632 C   0  0  0  0  0  0
  -25.4111  -36.3091   24.0314 C   0  0  1  0  0  0
  -20.5863  -28.3624   23.1364 C   0  0  2  0  0  0
  -20.6769  -26.9375   22.5428 C   0  0  0  0  0  0
  -19.5743  -26.6381   21.5232 C   0  0  0  0  0  0
  -18.1906  -26.7920   22.1633 C   0  0  0  0  0  0
  -19.1519  -28.8819   23.2927 C   0  0  0  0  0  0
  -18.9441  -30.1459   23.8897 C   0  0  0  0  0  0
  -17.6449  -30.6585   24.0575 C   0  0  0  0  0  0
  -25.9038  -34.9475   23.5093 C   0  0  0  0  0  0
  -16.5342  -29.9086   23.6340 C   0  0  0  0  0  0
  -16.7261  -28.6518   23.0314 C   0  0  0  0  0  0
  -26.4458  -31.6597   25.0681 C   0  0  0  0  0  0
  -25.3730  -31.3747   26.1442 C   0  0  0  0  0  0
  -27.0256  -30.3034   24.6013 C   0  0  0  0  0  0
  -27.6019  -32.4313   25.7472 C   0  0  0  0  0  0
  -27.5564  -37.1813   24.8464 C   0  0  0  0  0  0
  -21.4111  -29.3003   22.3772 N   0  0  0  0  0  0
  -26.4278  -37.3802   23.9402 N   0  0  0  0  0  0
  -24.6605  -31.0840   22.0956 N   0  0  0  0  0  0
  -23.4190  -28.8199   23.2989 O   0  0  0  0  0  0
  -28.4180  -26.7561   20.1024 O   0  0  0  0  0  0
  -26.5620  -34.8940   22.4657 O   0  0  0  0  0  0
  -23.5324  -32.1407   23.7517 O   0  0  0  0  0  0
  -29.0712  -18.7348   18.1845 C   0  0  0  0  0  0
  -29.9531  -17.8982   20.2713 C   0  0  0  0  0  0
  -29.6858  -18.9932   19.4178 C   0  0  0  0  0  0
  -28.8261  -17.4020   17.8145 C   0  0  0  0  0  0
  -29.6614  -16.5844   19.8438 C   0  0  0  0  0  0
  -29.3772  -17.2253   15.3577 C   0  0  0  0  0  0
  -31.2744  -20.8171   24.7460 C   0  0  0  0  0  0
  -28.2841  -17.0846   16.4318 C   0  0  0  0  0  0
  -31.6260  -22.0047   20.4060 C   0  0  0  0  0  0
  -30.4300  -21.7920   22.7201 C   0  0  0  0  0  0
  -29.6358  -24.7458   20.6684 C   0  0  0  0  0  0
  -31.3345  -20.5124   20.1467 C   0  0  0  0  0  0
  -28.3210  -25.3293   20.1269 C   0  0  0  0  0  0
  -30.7785  -22.6894   21.5083 C   0  0  2  0  0  0
  -29.1214  -16.3574   18.6202 N   0  0  0  0  0  0
  -29.8773  -15.5200   20.7576 N   0  0  0  0  0  0
  -31.6252  -21.3403   23.4299 N   0  0  0  0  0  0
  -29.5452  -23.2875   20.9463 N   0  3  0  0  0  0
  -29.9866  -20.2977   19.7359 O   0  0  0  0  0  0
  -31.4689  -12.3906   19.1179 H   0  0  0  0  0  0
  -30.3264  -11.2767   19.8211 H   0  0  0  0  0  0
  -29.7295  -11.7558   17.4313 H   0  0  0  0  0  0
  -29.6739  -13.4712   17.7611 H   0  0  0  0  0  0
  -27.8210  -11.3107   18.8056 H   0  0  0  0  0  0
  -27.3674  -12.6479   17.7816 H   0  0  0  0  0  0
  -27.6913  -14.2465   19.5683 H   0  0  0  0  0  0
  -28.6731  -11.9609   21.3469 H   0  0  0  0  0  0
  -28.4851  -13.6158   21.8574 H   0  0  0  0  0  0
  -25.2751   -9.5674   22.4763 H   0  0  0  0  0  0
  -24.0001   -7.4619   22.7452 H   0  0  0  0  0  0
  -21.0824   -8.8754   19.8938 H   0  0  0  0  0  0
  -22.3665  -10.9680   19.6159 H   0  0  0  0  0  0
  -21.1969   -7.6125   23.9705 H   0  0  0  0  0  0
  -21.1500   -6.0506   25.9087 H   0  0  0  0  0  0
  -22.0592   -2.7590   23.2840 H   0  0  0  0  0  0
  -22.4092  -11.9900   22.4805 H   0  0  0  0  0  0
  -21.1109  -13.1274   22.2621 H   0  0  0  0  0  0
  -24.6450  -15.8274   20.4460 H   0  0  0  0  0  0
  -26.2525  -15.6039   19.9731 H   0  0  0  0  0  0
  -26.7103  -32.5534   23.1125 H   0  0  0  0  0  0
  -25.0121  -33.9794   25.0464 H   0  0  0  0  0  0
  -22.6806  -31.3106   21.4108 H   0  0  0  0  0  0
  -23.3741  -35.9683   23.3320 H   0  0  0  0  0  0
  -24.3598  -36.8920   22.2047 H   0  0  0  0  0  0
  -23.7285  -37.6543   23.6650 H   0  0  0  0  0  0
  -26.0191  -31.6082   20.5748 H   0  0  0  0  0  0
  -26.8162  -30.9129   21.9545 H   0  0  0  0  0  0
  -28.0970  -29.1447   21.1271 H   0  0  0  0  0  0
  -26.0413  -25.9862   19.0074 H   0  0  0  0  0  0
  -23.9706  -27.3047   19.0337 H   0  0  0  0  0  0
  -23.6951  -30.6026   19.4024 H   0  0  0  0  0  0
  -22.7232  -29.2406   19.8684 H   0  0  0  0  0  0
  -25.1282  -36.1939   25.0804 H   0  0  0  0  0  0
  -20.9945  -28.3183   24.1490 H   0  0  0  0  0  0
  -20.5699  -26.2212   23.3595 H   0  0  0  0  0  0
  -21.6625  -26.7448   22.1192 H   0  0  0  0  0  0
  -19.6913  -25.6296   21.1230 H   0  0  0  0  0  0
  -19.6706  -27.3236   20.6808 H   0  0  0  0  0  0
  -17.4190  -26.6688   21.4027 H   0  0  0  0  0  0
  -18.0290  -26.0063   22.9017 H   0  0  0  0  0  0
  -19.7920  -30.7294   24.2209 H   0  0  0  0  0  0
  -17.5006  -31.6251   24.5195 H   0  0  0  0  0  0
  -15.5345  -30.2997   23.7671 H   0  0  0  0  0  0
  -15.8653  -28.0895   22.6961 H   0  0  0  0  0  0
  -24.5914  -30.7058   25.7831 H   0  0  0  0  0  0
  -24.8901  -32.2923   26.4802 H   0  0  0  0  0  0
  -25.8080  -30.9007   27.0246 H   0  0  0  0  0  0
  -26.2776  -29.6866   24.1018 H   0  0  0  0  0  0
  -27.4001  -29.7191   25.4430 H   0  0  0  0  0  0
  -27.8620  -30.4346   23.9153 H   0  0  0  0  0  0
  -27.2606  -33.3615   26.2027 H   0  0  0  0  0  0
  -28.3866  -32.6877   25.0343 H   0  0  0  0  0  0
  -28.0654  -31.8453   26.5420 H   0  0  0  0  0  0
  -28.2591  -38.0105   24.7480 H   0  0  0  0  0  0
  -28.1045  -36.2621   24.6300 H   0  0  0  0  0  0
  -27.2285  -37.1474   25.8879 H   0  0  0  0  0  0
  -20.9251  -29.8754   21.7038 H   0  0  0  0  0  0
  -26.0154  -38.2880   24.1400 H   0  0  0  0  0  0
  -28.8341  -19.5499   17.5133 H   0  0  0  0  0  0
  -30.3778  -18.0579   21.2508 H   0  0  0  0  0  0
  -28.9682  -17.0633   14.3615 H   0  0  0  0  0  0
  -30.1795  -16.5023   15.5121 H   0  0  0  0  0  0
  -29.8268  -18.2210   15.3671 H   0  0  0  0  0  0
  -32.1426  -20.3547   25.2185 H   0  0  0  0  0  0
  -30.4846  -20.0667   24.6864 H   0  0  0  0  0  0
  -30.9365  -21.6168   25.4073 H   0  0  0  0  0  0
  -27.4505  -17.7550   16.2121 H   0  0  0  0  0  0
  -27.8713  -16.0730   16.4133 H   0  0  0  0  0  0
  -31.5580  -22.5747   19.4770 H   0  0  0  0  0  0
  -32.6769  -22.0714   20.6919 H   0  0  0  0  0  0
  -29.8294  -20.9381   22.4051 H   0  0  0  0  0  0
  -29.8028  -22.3633   23.4084 H   0  0  0  0  0  0
  -29.8846  -25.2634   21.5963 H   0  0  0  0  0  0
  -30.4448  -24.9472   19.9635 H   0  0  0  0  0  0
  -31.5779  -19.9268   21.0327 H   0  0  0  0  0  0
  -32.0011  -20.1569   19.3587 H   0  0  0  0  0  0
  -28.1256  -24.9504   19.1234 H   0  0  0  0  0  0
  -27.4943  -25.0244   20.7722 H   0  0  0  0  0  0
  -31.3778  -23.5107   21.9039 H   0  0  0  0  0  0
  -29.0365  -15.2352   21.2336 H   0  0  0  0  0  0
  -32.0742  -20.6036   22.8869 H   0  0  0  0  0  0
  -29.2846  -22.7809   20.1146 H   0  0  0  0  0  0
  -28.8083  -23.1394   21.6191 H   0  0  0  0  0  0
  1 25  1  0  0  0
  1 30  2  0  0  0
  1 86  1  0  0  0
  2  3  1  0  0  0
  2 25  1  0  0  0
  2 90  1  0  0  0
  2 91  1  0  0  0
  3  4  1  0  0  0
  3 92  1  0  0  0
  3 93  1  0  0  0
  4  5  1  0  0  0
  4 94  1  0  0  0
  4 95  1  0  0  0
  5  6  1  0  0  0
  5 26  1  0  0  0
  5 96  1  0  0  0
  6 25  1  0  0  0
  6 97  1  0  0  0
  6 98  1  0  0  0
  7  8  2  0  0  0
  7 26  1  0  0  0
  7 29  1  0  0  0
  8  9  1  0  0  0
  8 22  1  0  0  0
  9 10  1  0  0  0
  9 27  2  0  0  0
 10 11  2  0  0  0
 10 15  1  0  0  0
 11 12  1  0  0  0
 11 99  1  0  0  0
 12 13  2  0  0  0
 12100  1  0  0  0
 13 14  1  0  0  0
 13 31  1  0  0  0
 14 15  2  0  0  0
 14101  1  0  0  0
 15102  1  0  0  0
 16 17  2  0  0  0
 16 21  1  0  0  0
 16 31  1  0  0  0
 17 18  1  0  0  0
 17103  1  0  0  0
 18 19  2  0  0  0
 18104  1  0  0  0
 19 20  1  0  0  0
 19 24  1  0  0  0
 20 21  2  0  0  0
 20105  1  0  0  0
 21 23  1  0  0  0
 22 28  1  0  0  0
 22 32  2  0  0  0
 26 27  1  0  0  0
 28106  1  0  0  0
 28107  1  0  0  0
 29108  1  0  0  0
 29109  1  0  0  0
 33 34  1  0  0  0
 33 66  1  0  0  0
 33 70  2  0  0  0
 34 36  1  0  0  0
 34 59  1  0  0  0
 34110  1  0  0  0
 35 44  2  0  0  0
 35 45  1  0  0  0
 35 68  1  0  0  0
 36 56  1  0  0  0
 36111  1  0  0  0
 37 39  1  0  0  0
 37 47  1  0  0  0
 37 66  1  0  0  0
 37112  1  0  0  0
 38 43  2  0  0  0
 38 46  1  0  0  0
 38 47  1  0  0  0
 39 64  1  0  0  0
 39 67  2  0  0  0
 40 52  1  0  0  0
 40 53  2  0  0  0
 40 58  1  0  0  0
 41113  1  0  0  0
 41114  1  0  0  0
 41115  1  0  0  0
 41 48  1  0  0  0
 42 43  1  0  0  0
 42 66  1  0  0  0
 42116  1  0  0  0
 42117  1  0  0  0
 43 44  1  0  0  0
 44118  1  0  0  0
 45 46  2  0  0  0
 45119  1  0  0  0
 46120  1  0  0  0
 47121  1  0  0  0
 47122  1  0  0  0
 48 56  1  0  0  0
 48 65  1  0  0  0
 48123  1  0  0  0
 49 50  1  0  0  0
 49 53  1  0  0  0
 49 64  1  0  0  0
 49124  1  0  0  0
 50 51  1  0  0  0
 50125  1  0  0  0
 50126  1  0  0  0
 51 52  1  0  0  0
 51127  1  0  0  0
 51128  1  0  0  0
 52129  1  0  0  0
 52130  1  0  0  0
 53 54  1  0  0  0
 54 55  2  0  0  0
 54131  1  0  0  0
 55 57  1  0  0  0
 55132  1  0  0  0
 56 69  2  0  0  0
 57 58  2  0  0  0
 57133  1  0  0  0
 58134  1  0  0  0
 59 60  1  0  0  0
 59 61  1  0  0  0
 59 62  1  0  0  0
 60135  1  0  0  0
 60136  1  0  0  0
 60137  1  0  0  0
 61138  1  0  0  0
 61139  1  0  0  0
 61140  1  0  0  0
 62141  1  0  0  0
 62142  1  0  0  0
 62143  1  0  0  0
 63 65  1  0  0  0
 63144  1  0  0  0
 63145  1  0  0  0
 63146  1  0  0  0
 64147  1  0  0  0
 65148  1  0  0  0
 68 83  1  0  0  0
 71 73  2  0  0  0
 71 74  1  0  0  0
 71149  1  0  0  0
 72 73  1  0  0  0
 72 75  2  0  0  0
 72150  1  0  0  0
 73 89  1  0  0  0
 74 78  1  0  0  0
 74 85  2  0  0  0
 75 85  1  0  0  0
 75 86  1  0  0  0
 76 78  1  0  0  0
 76151  1  0  0  0
 76152  1  0  0  0
 76153  1  0  0  0
 77 87  1  0  0  0
 77154  1  0  0  0
 77155  1  0  0  0
 77156  1  0  0  0
 78157  1  0  0  0
 78158  1  0  0  0
 79 82  1  0  0  0
 79159  1  0  0  0
 79160  1  0  0  0
 79 84  1  0  0  0
 80 84  1  0  0  0
 80 87  1  0  0  0
 80161  1  0  0  0
 80162  1  0  0  0
 81 83  1  0  0  0
 81 88  1  0  0  0
 81163  1  0  0  0
 81164  1  0  0  0
 82 89  1  0  0  0
 82165  1  0  0  0
 82166  1  0  0  0
 83167  1  0  0  0
 83168  1  0  0  0
 84 88  1  0  0  0
 84169  1  0  0  0
 86170  1  0  0  0
 87171  1  0  0  0
 88172  1  0  0  0
 88173  1  0  0  0
M  CHG  1  88   1
M  ISO  4   1 100  68 101  83 101  86 100
M  END
> <chiral flag>
0

> <version>
0

> <s_m_source_file>
/data/baiqing/PycharmProjects/Reinvent-master-3.2/result/LINK_invent/BTK/process_docking_weight1_custom_sum_contain_oxygen_bond_distance_aromatic_linkinvent_7_9_3/rearranged_h_0115.sdf

> <i_m_source_file_index>
35

> <r_mmod_Potential_Energy-OPLS-2005>
-273.219604492188

> <r_mmod_Stretch_Energy-OPLS-2005>
35.213451385498

> <r_mmod_Bend_Energy-OPLS-2005>
98.7198104858398

> <r_mmod_Torsional_Energy-OPLS-2005>
302.082946777344

> <r_mmod_Improper_Torsional_Energy-OPLS-2005>
9.03328704833984

> <r_mmod_Van_der_Waal_Energy-OPLS-2005>
148.934265136719

> <r_mmod_Electrostatic_Energy-OPLS-2005>
-432.702850341797

> <r_mmod_Solvation_Energy-OPLS-2005>
-449.748321533203

> <b_mmod_Minimization_Converged-OPLS-2005>
0

> <r_mmod_RMS_Derivative-OPLS-2005>
4.49262666702271

$$$$
35
                    3D
 Structure written by MMmdl.
159168  0  0  1  0            999 V2000
  -30.5484  -14.8352   20.4201 C   0  0  0  0  0  0
  -30.4409  -12.5028   19.4916 C   0  0  0  0  0  0
  -29.5164  -12.5080   18.2517 C   0  0  0  0  0  0
  -28.0474  -12.3012   18.6694 C   0  0  0  0  0  0
  -27.6396  -13.2072   19.8587 C   0  0  2  0  0  0
  -28.6848  -13.1847   20.9956 C   0  0  0  0  0  0
  -25.2533  -13.8132   20.5735 C   0  0  0  0  0  0
  -24.1791  -13.0413   20.9207 C   0  0  0  0  0  0
  -24.6349  -11.6878   20.8754 C   0  0  0  0  0  0
  -23.9034  -10.4269   21.0411 C   0  0  0  0  0  0
  -24.3600   -9.4189   21.9181 C   0  0  0  0  0  0
  -23.6281   -8.2231   22.0752 C   0  0  0  0  0  0
  -22.4268   -8.0272   21.3538 C   0  0  0  0  0  0
  -21.9889   -9.0248   20.4651 C   0  0  0  0  0  0
  -22.7210  -10.2126   20.3054 C   0  0  0  0  0  0
  -21.6850   -6.0731   22.5273 C   0  0  0  0  0  0
  -21.4017   -6.5634   23.8212 C   0  0  0  0  0  0
  -21.3656   -5.6785   24.9170 C   0  0  0  0  0  0
  -21.6044   -4.3051   24.7221 C   0  0  0  0  0  0
  -21.8820   -3.8143   23.4342 C   0  0  0  0  0  0
  -21.9191   -4.6960   22.3397 C   0  0  0  0  0  0
  -22.7817  -13.5231   21.1853 C   0  0  0  0  0  0
  -22.1657   -4.2149   21.0974 F   0  0  0  0  0  0
  -21.5626   -3.4531   25.7734 F   0  0  0  0  0  0
  -29.9775  -13.5719   20.4138 N   0  0  0  0  0  0
  -26.2919  -12.9269   20.3334 N   0  0  0  0  0  0
  -25.9277  -11.6448   20.5799 N   0  0  0  0  0  0
  -22.0457  -12.8240   22.0418 N   0  0  0  0  0  0
  -25.4265  -15.1862   20.4195 N   0  0  0  0  0  0
  -31.7157  -14.9561   20.0281 O   0  0  0  0  0  0
  -21.6630   -6.8868   21.4236 O   0  0  0  0  0  0
  -22.3515  -14.5533   20.6688 O   0  0  0  0  0  0
  -24.6308  -31.8486   23.1891 C   0  0  0  0  0  0
  -25.9117  -32.4716   23.8269 C   0  0  1  0  0  0
  -27.2406  -27.2319   20.1472 C   0  0  0  0  0  0
  -25.5900  -33.8522   24.2193 N   0  0  0  0  0  0
  -23.4311  -30.4618   21.5305 C   0  0  2  0  0  0
  -24.8844  -28.8923   20.0984 C   0  0  0  0  0  0
  -22.7503  -29.4550   22.4881 C   0  0  0  0  0  0
  -18.0286  -28.1394   22.8476 C   0  0  0  0  0  0
  -24.1491  -36.7276   23.2644 C   0  0  0  0  0  0
  -25.9723  -30.7525   21.3705 C   0  0  0  0  0  0
  -26.0454  -29.3712   20.7123 C   0  0  0  0  0  0
  -27.2159  -28.5510   20.7225 C   0  0  0  0  0  0
  -26.0642  -26.8133   19.4945 C   0  0  0  0  0  0
  -24.9007  -27.6264   19.4756 C   0  0  0  0  0  0
  -23.6508  -29.7800   20.1486 C   0  0  0  0  0  0
  -25.4119  -36.3049   24.0318 C   0  0  1  0  0  0
  -20.5889  -28.3698   23.1269 C   0  0  2  0  0  0
  -20.6769  -26.9412   22.5418 C   0  0  0  0  0  0
  -19.5750  -26.6378   21.5216 C   0  0  0  0  0  0
  -18.1927  -26.7936   22.1621 C   0  0  0  0  0  0
  -19.1540  -28.8862   23.2867 C   0  0  0  0  0  0
  -18.9466  -30.1459   23.8888 C   0  0  0  0  0  0
  -17.6468  -30.6596   24.0560 C   0  0  0  0  0  0
  -25.9060  -34.9422   23.5069 C   0  0  0  0  0  0
  -16.5358  -29.9092   23.6331 C   0  0  0  0  0  0
  -16.7274  -28.6512   23.0348 C   0  0  0  0  0  0
  -26.4482  -31.6570   25.0684 C   0  0  0  0  0  0
  -25.3691  -31.3754   26.1402 C   0  0  0  0  0  0
  -27.0337  -30.2978   24.6200 C   0  0  0  0  0  0
  -27.6025  -32.4328   25.7461 C   0  0  0  0  0  0
  -27.5582  -37.1788   24.8458 C   0  0  0  0  0  0
  -21.4206  -29.3021   22.3638 N   0  0  0  0  0  0
  -26.4289  -37.3753   23.9409 N   0  0  0  0  0  0
  -24.6965  -31.0416   22.0869 N   0  0  0  0  0  0
  -23.4201  -28.8125   23.3015 O   0  0  0  0  0  0
  -28.3751  -26.4099   20.3518 O   0  0  0  0  0  0
  -26.5655  -34.8914   22.4655 O   0  0  0  0  0  0
  -23.5449  -32.1328   23.7173 O   0  0  0  0  0  0
  -27.5981  -18.1844   18.7562 C   0  0  0  0  0  0
  -27.9620  -19.4849   19.1319 C   0  0  0  0  0  0
  -28.3172  -17.0810   19.2478 C   0  0  0  0  0  0
  -29.0724  -19.6861   19.9632 C   0  0  0  0  0  0
  -29.3812  -17.2259   20.1601 C   0  0  0  0  0  0
  -29.8506  -24.7837   21.0536 C   0  0  0  0  0  0
  -30.2780  -23.3092   21.0461 C   0  0  0  0  0  0
  -28.1586  -23.5177   20.0183 C   0  0  0  0  0  0
  -28.8125  -25.0104   19.9409 C   0  0  2  0  0  0
  -29.4654  -25.2075   18.5654 C   0  0  0  0  0  0
  -29.6789  -21.1754   19.9536 C   0  0  0  0  0  0
  -29.7419  -18.5517   20.4849 N   0  0  0  0  0  0
  -29.7771  -15.9348   20.8170 N   0  0  0  0  0  0
  -29.1242  -22.4671   20.6396 N   0  3  1  0  0  0
  -31.4790  -12.6452   19.1882 H   0  0  0  0  0  0
  -30.4111  -11.5336   19.9916 H   0  0  0  0  0  0
  -29.8208  -11.7269   17.5541 H   0  0  0  0  0  0
  -29.6184  -13.4539   17.7157 H   0  0  0  0  0  0
  -27.9299  -11.2543   18.9530 H   0  0  0  0  0  0
  -27.3828  -12.4618   17.8197 H   0  0  0  0  0  0
  -27.6157  -14.2084   19.4549 H   0  0  0  0  0  0
  -28.7475  -12.1929   21.4471 H   0  0  0  0  0  0
  -28.3957  -13.8644   21.7981 H   0  0  0  0  0  0
  -25.2750   -9.5682   22.4746 H   0  0  0  0  0  0
  -23.9999   -7.4627   22.7472 H   0  0  0  0  0  0
  -21.0818   -8.8758   19.8971 H   0  0  0  0  0  0
  -22.3658  -10.9663   19.6166 H   0  0  0  0  0  0
  -21.2012   -7.6144   23.9711 H   0  0  0  0  0  0
  -21.1473   -6.0516   25.9073 H   0  0  0  0  0  0
  -22.0604   -2.7608   23.2835 H   0  0  0  0  0  0
  -22.4072  -11.9913   22.4832 H   0  0  0  0  0  0
  -21.1080  -13.1282   22.2617 H   0  0  0  0  0  0
  -24.6639  -15.8408   20.5550 H   0  0  0  0  0  0
  -26.2831  -15.6352   20.1244 H   0  0  0  0  0  0
  -26.7183  -32.5360   23.1009 H   0  0  0  0  0  0
  -24.9984  -33.9642   25.0294 H   0  0  0  0  0  0
  -22.7281  -31.2836   21.3761 H   0  0  0  0  0  0
  -23.3758  -35.9604   23.3282 H   0  0  0  0  0  0
  -24.3581  -36.8927   22.2064 H   0  0  0  0  0  0
  -23.7242  -37.6462   23.6698 H   0  0  0  0  0  0
  -26.1129  -31.5106   20.6004 H   0  0  0  0  0  0
  -26.8484  -30.8043   22.0054 H   0  0  0  0  0  0
  -28.1014  -28.9053   21.2308 H   0  0  0  0  0  0
  -26.0243  -25.8325   19.0434 H   0  0  0  0  0  0
  -24.0082  -27.2539   18.9916 H   0  0  0  0  0  0
  -23.7731  -30.5512   19.3873 H   0  0  0  0  0  0
  -22.7701  -29.2087   19.8491 H   0  0  0  0  0  0
  -25.1309  -36.1878   25.0808 H   0  0  0  0  0  0
  -20.9986  -28.3293   24.1392 H   0  0  0  0  0  0
  -20.5665  -26.2314   23.3629 H   0  0  0  0  0  0
  -21.6639  -26.7428   22.1223 H   0  0  0  0  0  0
  -19.6913  -25.6283   21.1256 H   0  0  0  0  0  0
  -19.6702  -27.3182   20.6743 H   0  0  0  0  0  0
  -17.4202  -26.6681   21.4016 H   0  0  0  0  0  0
  -18.0326  -26.0086   22.9026 H   0  0  0  0  0  0
  -19.7939  -30.7264   24.2277 H   0  0  0  0  0  0
  -17.5022  -31.6280   24.5159 H   0  0  0  0  0  0
  -15.5358  -30.2993   23.7658 H   0  0  0  0  0  0
  -15.8675  -28.0829   22.7069 H   0  0  0  0  0  0
  -24.5838  -30.7141   25.7721 H   0  0  0  0  0  0
  -24.8920  -32.2945   26.4816 H   0  0  0  0  0  0
  -25.7977  -30.8917   27.0190 H   0  0  0  0  0  0
  -26.2932  -29.6719   24.1211 H   0  0  0  0  0  0
  -27.3982  -29.7249   25.4738 H   0  0  0  0  0  0
  -27.8822  -30.4234   23.9470 H   0  0  0  0  0  0
  -27.2612  -33.3616   26.2047 H   0  0  0  0  0  0
  -28.3829  -32.6917   25.0292 H   0  0  0  0  0  0
  -28.0716  -31.8465   26.5371 H   0  0  0  0  0  0
  -28.2579  -38.0104   24.7516 H   0  0  0  0  0  0
  -28.1092  -36.2632   24.6259 H   0  0  0  0  0  0
  -27.2305  -37.1404   25.8860 H   0  0  0  0  0  0
  -20.9410  -29.8712   21.6802 H   0  0  0  0  0  0
  -26.0157  -38.2821   24.1416 H   0  0  0  0  0  0
  -26.7754  -18.0326   18.0714 H   0  0  0  0  0  0
  -27.4475  -20.3294   18.6934 H   0  0  0  0  0  0
  -28.0003  -16.1114   18.9121 H   0  0  0  0  0  0
  -30.7060  -25.4548   20.9736 H   0  0  0  0  0  0
  -29.3842  -24.9915   22.0185 H   0  0  0  0  0  0
  -30.6841  -22.9964   22.0083 H   0  0  0  0  0  0
  -31.0830  -23.2154   20.3146 H   0  0  0  0  0  0
  -27.8067  -23.1850   19.0417 H   0  0  0  0  0  0
  -27.2752  -23.5597   20.6554 H   0  0  0  0  0  0
  -29.9890  -24.3116   18.2325 H   0  0  0  0  0  0
  -30.1904  -26.0218   18.5843 H   0  0  0  0  0  0
  -28.7149  -25.4513   17.8144 H   0  0  0  0  0  0
  -29.8770  -21.4305   18.9125 H   0  0  0  0  0  0
  -30.6713  -21.0046   20.3745 H   0  0  0  0  0  0
  -29.0075  -15.5817   21.3621 H   0  0  0  0  0  0
  -28.6906  -22.1440   21.4921 H   0  0  0  0  0  0
  1 25  1  0  0  0
  1 30  2  0  0  0
  1 83  1  0  0  0
  2  3  1  0  0  0
  2 25  1  0  0  0
  2 85  1  0  0  0
  2 86  1  0  0  0
  3  4  1  0  0  0
  3 87  1  0  0  0
  3 88  1  0  0  0
  4  5  1  0  0  0
  4 89  1  0  0  0
  4 90  1  0  0  0
  5  6  1  0  0  0
  5 26  1  0  0  0
  5 91  1  0  0  0
  6 25  1  0  0  0
  6 92  1  0  0  0
  6 93  1  0  0  0
  7  8  2  0  0  0
  7 26  1  0  0  0
  7 29  1  0  0  0
  8  9  1  0  0  0
  8 22  1  0  0  0
  9 10  1  0  0  0
  9 27  2  0  0  0
 10 11  2  0  0  0
 10 15  1  0  0  0
 11 12  1  0  0  0
 11 94  1  0  0  0
 12 13  2  0  0  0
 12 95  1  0  0  0
 13 14  1  0  0  0
 13 31  1  0  0  0
 14 15  2  0  0  0
 14 96  1  0  0  0
 15 97  1  0  0  0
 16 17  2  0  0  0
 16 21  1  0  0  0
 16 31  1  0  0  0
 17 18  1  0  0  0
 17 98  1  0  0  0
 18 19  2  0  0  0
 18 99  1  0  0  0
 19 20  1  0  0  0
 19 24  1  0  0  0
 20 21  2  0  0  0
 20100  1  0  0  0
 21 23  1  0  0  0
 22 28  1  0  0  0
 22 32  2  0  0  0
 26 27  1  0  0  0
 28101  1  0  0  0
 28102  1  0  0  0
 29103  1  0  0  0
 29104  1  0  0  0
 33 34  1  0  0  0
 33 66  1  0  0  0
 33 70  2  0  0  0
 34 36  1  0  0  0
 34 59  1  0  0  0
 34105  1  0  0  0
 35 44  2  0  0  0
 35 45  1  0  0  0
 35 68  1  0  0  0
 36 56  1  0  0  0
 36106  1  0  0  0
 37 39  1  0  0  0
 37 47  1  0  0  0
 37 66  1  0  0  0
 37107  1  0  0  0
 38 43  2  0  0  0
 38 46  1  0  0  0
 38 47  1  0  0  0
 39 64  1  0  0  0
 39 67  2  0  0  0
 40 52  1  0  0  0
 40 53  2  0  0  0
 40 58  1  0  0  0
 41108  1  0  0  0
 41109  1  0  0  0
 41110  1  0  0  0
 41 48  1  0  0  0
 42 43  1  0  0  0
 42 66  1  0  0  0
 42111  1  0  0  0
 42112  1  0  0  0
 43 44  1  0  0  0
 44113  1  0  0  0
 45 46  2  0  0  0
 45114  1  0  0  0
 46115  1  0  0  0
 47116  1  0  0  0
 47117  1  0  0  0
 48 56  1  0  0  0
 48 65  1  0  0  0
 48118  1  0  0  0
 49 50  1  0  0  0
 49 53  1  0  0  0
 49 64  1  0  0  0
 49119  1  0  0  0
 50 51  1  0  0  0
 50120  1  0  0  0
 50121  1  0  0  0
 51 52  1  0  0  0
 51122  1  0  0  0
 51123  1  0  0  0
 52124  1  0  0  0
 52125  1  0  0  0
 53 54  1  0  0  0
 54 55  2  0  0  0
 54126  1  0  0  0
 55 57  1  0  0  0
 55127  1  0  0  0
 56 69  2  0  0  0
 57 58  2  0  0  0
 57128  1  0  0  0
 58129  1  0  0  0
 59 60  1  0  0  0
 59 61  1  0  0  0
 59 62  1  0  0  0
 60130  1  0  0  0
 60131  1  0  0  0
 60132  1  0  0  0
 61133  1  0  0  0
 61134  1  0  0  0
 61135  1  0  0  0
 62136  1  0  0  0
 62137  1  0  0  0
 62138  1  0  0  0
 63 65  1  0  0  0
 63139  1  0  0  0
 63140  1  0  0  0
 63141  1  0  0  0
 64142  1  0  0  0
 65143  1  0  0  0
 68 79  1  0  0  0
 71 72  2  0  0  0
 71 73  1  0  0  0
 71144  1  0  0  0
 72 74  1  0  0  0
 72145  1  0  0  0
 73 75  2  0  0  0
 73146  1  0  0  0
 74 81  1  0  0  0
 74 82  2  0  0  0
 75 82  1  0  0  0
 75 83  1  0  0  0
 76 77  1  0  0  0
 76 79  1  0  0  0
 76147  1  0  0  0
 76148  1  0  0  0
 77 84  1  0  0  0
 77149  1  0  0  0
 77150  1  0  0  0
 78 79  1  0  0  0
 78 84  1  0  0  0
 78151  1  0  0  0
 78152  1  0  0  0
 79 80  1  0  0  0
 80153  1  0  0  0
 80154  1  0  0  0
 80155  1  0  0  0
 81156  1  0  0  0
 81157  1  0  0  0
 81 84  1  0  0  0
 83158  1  0  0  0
 84159  1  0  0  0
M  CHG  1  84   1
M  ISO  4   1 100  68 101  79 101  83 100
M  END
> <chiral flag>
0

> <version>
0

> <s_m_source_file>
/data/baiqing/PycharmProjects/Reinvent-master-3.2/result/LINK_invent/BTK/process_docking_weight1_custom_sum_contain_oxygen_bond_distance_aromatic_linkinvent_7_9_3/rearranged_h_0115.sdf

> <i_m_source_file_index>
36

> <r_mmod_Potential_Energy-OPLS-2005>
167.59587097168

> <r_mmod_Stretch_Energy-OPLS-2005>
159.76350402832

> <r_mmod_Bend_Energy-OPLS-2005>
355.345184326172

> <r_mmod_Torsional_Energy-OPLS-2005>
319.823150634766

> <r_mmod_Improper_Torsional_Energy-OPLS-2005>
9.42373180389404

> <r_mmod_Van_der_Waal_Energy-OPLS-2005>
124.925476074219

> <r_mmod_Electrostatic_Energy-OPLS-2005>
-462.304046630859

> <r_mmod_Solvation_Energy-OPLS-2005>
-460.217193603516

> <b_mmod_Minimization_Converged-OPLS-2005>
0

> <r_mmod_RMS_Derivative-OPLS-2005>
1.71872174739838

$$$$
36
                    3D
 Structure written by MMmdl.
152159  0  0  1  0            999 V2000
  -30.5441  -14.9732   20.4119 C   0  0  0  0  0  0
  -30.4378  -12.6059   19.4985 C   0  0  0  0  0  0
  -29.5213  -12.5292   18.2558 C   0  0  0  0  0  0
  -28.0553  -12.3128   18.6757 C   0  0  0  0  0  0
  -27.6263  -13.2520   19.8336 C   0  0  2  0  0  0
  -28.6691  -13.3003   20.9701 C   0  0  0  0  0  0
  -25.2448  -13.8223   20.5716 C   0  0  0  0  0  0
  -24.1770  -13.0438   20.9232 C   0  0  0  0  0  0
  -24.6395  -11.6927   20.8756 C   0  0  0  0  0  0
  -23.9083  -10.4293   21.0407 C   0  0  0  0  0  0
  -24.3630   -9.4206   21.9184 C   0  0  0  0  0  0
  -23.6300   -8.2244   22.0754 C   0  0  0  0  0  0
  -22.4280   -8.0285   21.3546 C   0  0  0  0  0  0
  -21.9919   -9.0261   20.4648 C   0  0  0  0  0  0
  -22.7255  -10.2136   20.3056 C   0  0  0  0  0  0
  -21.6854   -6.0739   22.5280 C   0  0  0  0  0  0
  -21.4019   -6.5642   23.8215 C   0  0  0  0  0  0
  -21.3659   -5.6793   24.9176 C   0  0  0  0  0  0
  -21.6040   -4.3055   24.7225 C   0  0  0  0  0  0
  -21.8819   -3.8148   23.4347 C   0  0  0  0  0  0
  -21.9194   -4.6966   22.3403 C   0  0  0  0  0  0
  -22.7790  -13.5206   21.1885 C   0  0  0  0  0  0
  -22.1660   -4.2153   21.0981 F   0  0  0  0  0  0
  -21.5626   -3.4538   25.7737 F   0  0  0  0  0  0
  -29.9399  -13.7154   20.3634 N   0  0  0  0  0  0
  -26.2873  -12.9464   20.3233 N   0  0  0  0  0  0
  -25.9328  -11.6588   20.5732 N   0  0  0  0  0  0
  -22.0442  -12.8198   22.0445 N   0  0  0  0  0  0
  -25.4095  -15.1955   20.4142 N   0  0  0  0  0  0
  -31.7539  -15.0175   20.1675 O   0  0  0  0  0  0
  -21.6641   -6.8882   21.4242 O   0  0  0  0  0  0
  -22.3472  -14.5509   20.6727 O   0  0  0  0  0  0
  -24.6467  -31.8417   23.1868 C   0  0  0  0  0  0
  -25.9227  -32.4681   23.8264 C   0  0  1  0  0  0
  -27.2130  -27.1055   20.1441 C   0  0  0  0  0  0
  -25.5960  -33.8489   24.2175 N   0  0  0  0  0  0
  -23.4512  -30.4622   21.5336 C   0  0  2  0  0  0
  -24.8995  -28.8884   20.1087 C   0  0  0  0  0  0
  -22.7583  -29.4535   22.4846 C   0  0  0  0  0  0
  -18.0307  -28.1400   22.8475 C   0  0  0  0  0  0
  -24.1493  -36.7248   23.2643 C   0  0  0  0  0  0
  -26.0108  -30.7051   21.3913 C   0  0  0  0  0  0
  -26.0802  -29.3152   20.7291 C   0  0  0  0  0  0
  -27.2360  -28.4406   20.7298 C   0  0  0  0  0  0
  -25.9988  -26.7898   19.4915 C   0  0  0  0  0  0
  -24.8739  -27.6398   19.4747 C   0  0  0  0  0  0
  -23.6789  -29.7945   20.1525 C   0  0  0  0  0  0
  -25.4127  -36.3021   24.0311 C   0  0  1  0  0  0
  -20.5921  -28.3728   23.1227 C   0  0  2  0  0  0
  -20.6793  -26.9428   22.5402 C   0  0  0  0  0  0
  -19.5766  -26.6381   21.5213 C   0  0  0  0  0  0
  -18.1947  -26.7936   22.1625 C   0  0  0  0  0  0
  -19.1565  -28.8883   23.2841 C   0  0  0  0  0  0
  -18.9480  -30.1478   23.8869 C   0  0  0  0  0  0
  -17.6476  -30.6595   24.0559 C   0  0  0  0  0  0
  -25.9079  -34.9399   23.5053 C   0  0  0  0  0  0
  -16.5367  -29.9086   23.6338 C   0  0  0  0  0  0
  -16.7290  -28.6506   23.0357 C   0  0  0  0  0  0
  -26.4535  -31.6563   25.0722 C   0  0  0  0  0  0
  -25.3706  -31.3765   26.1406 C   0  0  0  0  0  0
  -27.0407  -30.2951   24.6337 C   0  0  0  0  0  0
  -27.6052  -32.4341   25.7513 C   0  0  0  0  0  0
  -27.5574  -37.1782   24.8465 C   0  0  0  0  0  0
  -21.4272  -29.3048   22.3594 N   0  0  0  0  0  0
  -26.4286  -37.3737   23.9405 N   0  0  0  0  0  0
  -24.7231  -31.0245   22.0919 N   0  0  0  0  0  0
  -23.4214  -28.8082   23.3007 O   0  0  0  0  0  0
  -28.2544  -26.0955   20.2278 O   0  0  0  0  0  0
  -26.5667  -34.8900   22.4633 O   0  0  0  0  0  0
  -23.5578  -32.1308   23.7069 O   0  0  0  0  0  0
  -29.2210  -19.0278   20.3301 C   0  0  0  0  0  0
  -28.9556  -23.3324   20.4342 C   0  0  0  0  0  0
  -31.0137  -20.8344   19.6276 C   0  0  0  0  0  0
  -28.2188  -24.5481   18.2904 C   0  0  0  0  0  0
  -30.2328  -17.7092   20.4846 C   0  0  0  0  0  0
  -29.7113  -20.6650   20.4302 C   0  0  1  0  0  0
  -28.0419  -24.5896   19.8203 C   0  0  2  0  0  0
  -28.8053  -21.9418   20.1218 N   0  0  0  0  0  0
  -29.7911  -16.1802   20.5238 N   0  0  0  0  0  0
  -28.0323  -18.7719   20.1218 O   0  0  0  0  0  0
  -29.8633  -23.6508   21.2042 O   0  0  0  0  0  0
  -31.4712  -12.7635   19.1856 H   0  0  0  0  0  0
  -30.4338  -11.6605   20.0436 H   0  0  0  0  0  0
  -29.8453  -11.7251   17.5936 H   0  0  0  0  0  0
  -29.6061  -13.4528   17.6809 H   0  0  0  0  0  0
  -27.9559  -11.2736   18.9913 H   0  0  0  0  0  0
  -27.3919  -12.4351   17.8186 H   0  0  0  0  0  0
  -27.5836  -14.2498   19.3958 H   0  0  0  0  0  0
  -28.7630  -12.3319   21.4636 H   0  0  0  0  0  0
  -28.3658  -14.0133   21.7382 H   0  0  0  0  0  0
  -25.2774   -9.5681   22.4762 H   0  0  0  0  0  0
  -24.0007   -7.4632   22.7472 H   0  0  0  0  0  0
  -21.0850   -8.8786   19.8953 H   0  0  0  0  0  0
  -22.3715  -10.9678   19.6167 H   0  0  0  0  0  0
  -21.2016   -7.6150   23.9722 H   0  0  0  0  0  0
  -21.1477   -6.0521   25.9079 H   0  0  0  0  0  0
  -22.0598   -2.7610   23.2845 H   0  0  0  0  0  0
  -22.4062  -11.9868   22.4845 H   0  0  0  0  0  0
  -21.1055  -13.1215   22.2641 H   0  0  0  0  0  0
  -24.6380  -15.8439   20.5281 H   0  0  0  0  0  0
  -26.2499  -15.6420   20.0705 H   0  0  0  0  0  0
  -26.7290  -32.5277   23.0987 H   0  0  0  0  0  0
  -25.0075  -33.9600   25.0302 H   0  0  0  0  0  0
  -22.7549  -31.2892   21.3793 H   0  0  0  0  0  0
  -23.3759  -35.9576   23.3293 H   0  0  0  0  0  0
  -24.3574  -36.8897   22.2059 H   0  0  0  0  0  0
  -23.7249  -37.6439   23.6693 H   0  0  0  0  0  0
  -26.1729  -31.4606   20.6214 H   0  0  0  0  0  0
  -26.8781  -30.7517   22.0380 H   0  0  0  0  0  0
  -28.1331  -28.7622   21.2402 H   0  0  0  0  0  0
  -25.8646  -25.8355   19.0087 H   0  0  0  0  0  0
  -23.9715  -27.3059   18.9811 H   0  0  0  0  0  0
  -23.8188  -30.5703   19.3988 H   0  0  0  0  0  0
  -22.7925  -29.2402   19.8393 H   0  0  0  0  0  0
  -25.1318  -36.1841   25.0803 H   0  0  0  0  0  0
  -21.0009  -28.3322   24.1350 H   0  0  0  0  0  0
  -20.5690  -26.2342   23.3624 H   0  0  0  0  0  0
  -21.6660  -26.7436   22.1199 H   0  0  0  0  0  0
  -19.6929  -25.6284   21.1264 H   0  0  0  0  0  0
  -19.6705  -27.3175   20.6729 H   0  0  0  0  0  0
  -17.4215  -26.6674   21.4029 H   0  0  0  0  0  0
  -18.0349  -26.0087   22.9031 H   0  0  0  0  0  0
  -19.7955  -30.7302   24.2226 H   0  0  0  0  0  0
  -17.5029  -31.6272   24.5166 H   0  0  0  0  0  0
  -15.5366  -30.2981   23.7679 H   0  0  0  0  0  0
  -15.8689  -28.0817   22.7089 H   0  0  0  0  0  0
  -24.5891  -30.7110   25.7722 H   0  0  0  0  0  0
  -24.8892  -32.2953   26.4764 H   0  0  0  0  0  0
  -25.7975  -30.8979   27.0229 H   0  0  0  0  0  0
  -26.3038  -29.6663   24.1327 H   0  0  0  0  0  0
  -27.3981  -29.7264   25.4932 H   0  0  0  0  0  0
  -27.8963  -30.4171   23.9691 H   0  0  0  0  0  0
  -27.2631  -33.3661   26.2024 H   0  0  0  0  0  0
  -28.3898  -32.6873   25.0371 H   0  0  0  0  0  0
  -28.0682  -31.8516   26.5488 H   0  0  0  0  0  0
  -28.2582  -38.0085   24.7504 H   0  0  0  0  0  0
  -28.1077  -36.2613   24.6302 H   0  0  0  0  0  0
  -27.2287  -37.1441   25.8866 H   0  0  0  0  0  0
  -20.9487  -29.8758   21.6767 H   0  0  0  0  0  0
  -26.0149  -38.2802   24.1408 H   0  0  0  0  0  0
  -31.7414  -20.0584   19.8645 H   0  0  0  0  0  0
  -31.4941  -21.7885   19.8444 H   0  0  0  0  0  0
  -30.8218  -20.7937   18.5549 H   0  0  0  0  0  0
  -27.5854  -25.2655   17.7730 H   0  0  0  0  0  0
  -27.9857  -23.5625   17.8868 H   0  0  0  0  0  0
  -29.2490  -24.7787   18.0186 H   0  0  0  0  0  0
  -30.8134  -17.8856   21.3902 H   0  0  0  0  0  0
  -30.9517  -17.7931   19.6696 H   0  0  0  0  0  0
  -29.9864  -20.7965   21.4774 H   0  0  0  0  0  0
  -27.0171  -24.3197   20.0741 H   0  0  0  0  0  0
  -28.0081  -21.7317   19.5348 H   0  0  0  0  0  0
  -28.7984  -16.0474   20.6469 H   0  0  0  0  0  0
  1 25  1  0  0  0
  1 30  2  0  0  0
  1 79  1  0  0  0
  2  3  1  0  0  0
  2 25  1  0  0  0
  2 82  1  0  0  0
  2 83  1  0  0  0
  3  4  1  0  0  0
  3 84  1  0  0  0
  3 85  1  0  0  0
  4  5  1  0  0  0
  4 86  1  0  0  0
  4 87  1  0  0  0
  5  6  1  0  0  0
  5 26  1  0  0  0
  5 88  1  0  0  0
  6 25  1  0  0  0
  6 89  1  0  0  0
  6 90  1  0  0  0
  7  8  2  0  0  0
  7 26  1  0  0  0
  7 29  1  0  0  0
  8  9  1  0  0  0
  8 22  1  0  0  0
  9 10  1  0  0  0
  9 27  2  0  0  0
 10 11  2  0  0  0
 10 15  1  0  0  0
 11 12  1  0  0  0
 11 91  1  0  0  0
 12 13  2  0  0  0
 12 92  1  0  0  0
 13 14  1  0  0  0
 13 31  1  0  0  0
 14 15  2  0  0  0
 14 93  1  0  0  0
 15 94  1  0  0  0
 16 17  2  0  0  0
 16 21  1  0  0  0
 16 31  1  0  0  0
 17 18  1  0  0  0
 17 95  1  0  0  0
 18 19  2  0  0  0
 18 96  1  0  0  0
 19 20  1  0  0  0
 19 24  1  0  0  0
 20 21  2  0  0  0
 20 97  1  0  0  0
 21 23  1  0  0  0
 22 28  1  0  0  0
 22 32  2  0  0  0
 26 27  1  0  0  0
 28 98  1  0  0  0
 28 99  1  0  0  0
 29100  1  0  0  0
 29101  1  0  0  0
 33 34  1  0  0  0
 33 66  1  0  0  0
 33 70  2  0  0  0
 34 36  1  0  0  0
 34 59  1  0  0  0
 34102  1  0  0  0
 35 44  2  0  0  0
 35 45  1  0  0  0
 35 68  1  0  0  0
 36 56  1  0  0  0
 36103  1  0  0  0
 37 39  1  0  0  0
 37 47  1  0  0  0
 37 66  1  0  0  0
 37104  1  0  0  0
 38 43  2  0  0  0
 38 46  1  0  0  0
 38 47  1  0  0  0
 39 64  1  0  0  0
 39 67  2  0  0  0
 40 52  1  0  0  0
 40 53  2  0  0  0
 40 58  1  0  0  0
 41105  1  0  0  0
 41106  1  0  0  0
 41107  1  0  0  0
 41 48  1  0  0  0
 42 43  1  0  0  0
 42 66  1  0  0  0
 42108  1  0  0  0
 42109  1  0  0  0
 43 44  1  0  0  0
 44110  1  0  0  0
 45 46  2  0  0  0
 45111  1  0  0  0
 46112  1  0  0  0
 47113  1  0  0  0
 47114  1  0  0  0
 48 56  1  0  0  0
 48 65  1  0  0  0
 48115  1  0  0  0
 49 50  1  0  0  0
 49 53  1  0  0  0
 49 64  1  0  0  0
 49116  1  0  0  0
 50 51  1  0  0  0
 50117  1  0  0  0
 50118  1  0  0  0
 51 52  1  0  0  0
 51119  1  0  0  0
 51120  1  0  0  0
 52121  1  0  0  0
 52122  1  0  0  0
 53 54  1  0  0  0
 54 55  2  0  0  0
 54123  1  0  0  0
 55 57  1  0  0  0
 55124  1  0  0  0
 56 69  2  0  0  0
 57 58  2  0  0  0
 57125  1  0  0  0
 58126  1  0  0  0
 59 60  1  0  0  0
 59 61  1  0  0  0
 59 62  1  0  0  0
 60127  1  0  0  0
 60128  1  0  0  0
 60129  1  0  0  0
 61130  1  0  0  0
 61131  1  0  0  0
 61132  1  0  0  0
 62133  1  0  0  0
 62134  1  0  0  0
 62135  1  0  0  0
 63 65  1  0  0  0
 63136  1  0  0  0
 63137  1  0  0  0
 63138  1  0  0  0
 64139  1  0  0  0
 65140  1  0  0  0
 68 77  1  0  0  0
 71 75  1  0  0  0
 71 76  1  0  0  0
 71 80  2  0  0  0
 72 77  1  0  0  0
 72 78  1  0  0  0
 72 81  2  0  0  0
 73141  1  0  0  0
 73142  1  0  0  0
 73143  1  0  0  0
 73 76  1  0  0  0
 74144  1  0  0  0
 74145  1  0  0  0
 74146  1  0  0  0
 74 77  1  0  0  0
 75 79  1  0  0  0
 75147  1  0  0  0
 75148  1  0  0  0
 76 78  1  0  0  0
 76149  1  0  0  0
 77150  1  0  0  0
 78151  1  0  0  0
 79152  1  0  0  0
M  ISO  4   1 100  68 101  77 101  79 100
M  END
> <chiral flag>
0

> <version>
0

> <s_m_source_file>
/data/baiqing/PycharmProjects/Reinvent-master-3.2/result/LINK_invent/BTK/process_docking_weight1_custom_sum_contain_oxygen_bond_distance_aromatic_linkinvent_7_9_3/rearranged_h_0115.sdf

> <i_m_source_file_index>
37

> <r_mmod_Potential_Energy-OPLS-2005>
374.536651611328

> <r_mmod_Stretch_Energy-OPLS-2005>
297.146392822266

> <r_mmod_Bend_Energy-OPLS-2005>
260.004943847656

> <r_mmod_Torsional_Energy-OPLS-2005>
211.958023071289

> <r_mmod_Improper_Torsional_Energy-OPLS-2005>
4.49994802474976

> <r_mmod_Van_der_Waal_Energy-OPLS-2005>
112.529273986816

> <r_mmod_Electrostatic_Energy-OPLS-2005>
-471.290710449219

> <r_mmod_Solvation_Energy-OPLS-2005>
-257.147644042969

> <b_mmod_Minimization_Converged-OPLS-2005>
0

> <r_mmod_RMS_Derivative-OPLS-2005>
0.47802671790123

$$$$
37
                    3D
 Structure written by MMmdl.
163171  0  0  1  0            999 V2000
  -30.4191  -15.2258   20.3822 C   0  0  0  0  0  0
  -30.4387  -12.7847   19.5080 C   0  0  0  0  0  0
  -29.5241  -12.5549   18.2779 C   0  0  0  0  0  0
  -28.0748  -12.2829   18.7169 C   0  0  0  0  0  0
  -27.6102  -13.2602   19.8245 C   0  0  2  0  0  0
  -28.6466  -13.4098   20.9563 C   0  0  0  0  0  0
  -25.2411  -13.8219   20.5746 C   0  0  0  0  0  0
  -24.1742  -13.0436   20.9267 C   0  0  0  0  0  0
  -24.6357  -11.6917   20.8778 C   0  0  0  0  0  0
  -23.9058  -10.4291   21.0423 C   0  0  0  0  0  0
  -24.3619   -9.4207   21.9198 C   0  0  0  0  0  0
  -23.6301   -8.2239   22.0761 C   0  0  0  0  0  0
  -22.4289   -8.0278   21.3545 C   0  0  0  0  0  0
  -21.9914   -9.0246   20.4650 C   0  0  0  0  0  0
  -22.7236  -10.2122   20.3066 C   0  0  0  0  0  0
  -21.6842   -6.0732   22.5276 C   0  0  0  0  0  0
  -21.4015   -6.5648   23.8213 C   0  0  0  0  0  0
  -21.3665   -5.6799   24.9172 C   0  0  0  0  0  0
  -21.6027   -4.3059   24.7222 C   0  0  0  0  0  0
  -21.8832   -3.8152   23.4350 C   0  0  0  0  0  0
  -21.9195   -4.6962   22.3401 C   0  0  0  0  0  0
  -22.7768  -13.5205   21.1918 C   0  0  0  0  0  0
  -22.1667   -4.2150   21.0972 F   0  0  0  0  0  0
  -21.5625   -3.4540   25.7738 F   0  0  0  0  0  0
  -29.8719  -13.9181   20.3233 N   0  0  0  0  0  0
  -26.2799  -12.9449   20.3232 N   0  0  0  0  0  0
  -25.9288  -11.6576   20.5766 N   0  0  0  0  0  0
  -22.0415  -12.8167   22.0450 N   0  0  0  0  0  0
  -25.4071  -15.1948   20.4145 N   0  0  0  0  0  0
  -31.6468  -15.2492   20.2072 O   0  0  0  0  0  0
  -21.6649   -6.8873   21.4242 O   0  0  0  0  0  0
  -22.3444  -14.5496   20.6746 O   0  0  0  0  0  0
  -24.6585  -31.8290   23.1705 C   0  0  0  0  0  0
  -25.9281  -32.4611   23.8168 C   0  0  1  0  0  0
  -27.1970  -26.9519   20.1944 C   0  0  0  0  0  0
  -25.5983  -33.8415   24.2093 N   0  0  0  0  0  0
  -23.4729  -30.4444   21.5164 C   0  0  2  0  0  0
  -24.9178  -28.8328   20.1145 C   0  0  0  0  0  0
  -22.7641  -29.4500   22.4725 C   0  0  0  0  0  0
  -18.0327  -28.1433   22.8470 C   0  0  0  0  0  0
  -24.1488  -36.7209   23.2651 C   0  0  0  0  0  0
  -26.0372  -30.6453   21.3936 C   0  0  0  0  0  0
  -26.1028  -29.2348   20.7459 C   0  0  0  0  0  0
  -27.2403  -28.3154   20.7600 C   0  0  0  0  0  0
  -25.9866  -26.6951   19.5169 C   0  0  0  0  0  0
  -24.8817  -27.5812   19.4819 C   0  0  0  0  0  0
  -23.7121  -29.7644   20.1406 C   0  0  0  0  0  0
  -25.4123  -36.2974   24.0305 C   0  0  1  0  0  0
  -20.5950  -28.3770   23.1171 C   0  0  2  0  0  0
  -20.6803  -26.9456   22.5384 C   0  0  0  0  0  0
  -19.5775  -26.6399   21.5204 C   0  0  0  0  0  0
  -18.1960  -26.7977   22.1606 C   0  0  0  0  0  0
  -19.1599  -28.8916   23.2820 C   0  0  0  0  0  0
  -18.9523  -30.1497   23.8862 C   0  0  0  0  0  0
  -17.6531  -30.6626   24.0581 C   0  0  0  0  0  0
  -25.9093  -34.9355   23.5019 C   0  0  0  0  0  0
  -16.5403  -29.9139   23.6349 C   0  0  0  0  0  0
  -16.7321  -28.6555   23.0364 C   0  0  0  0  0  0
  -26.4548  -31.6531   25.0678 C   0  0  0  0  0  0
  -25.3688  -31.3795   26.1349 C   0  0  0  0  0  0
  -27.0445  -30.2915   24.6364 C   0  0  0  0  0  0
  -27.6046  -32.4324   25.7476 C   0  0  0  0  0  0
  -27.5550  -37.1769   24.8468 C   0  0  0  0  0  0
  -21.4308  -29.3106   22.3529 N   0  0  0  0  0  0
  -26.4264  -37.3707   23.9412 N   0  0  0  0  0  0
  -24.7451  -30.9987   22.0817 N   0  0  0  0  0  0
  -23.4208  -28.8038   23.2937 O   0  0  0  0  0  0
  -28.2075  -25.8673   20.2013 O   0  0  0  0  0  0
  -26.5691  -34.8882   22.4610 O   0  0  0  0  0  0
  -23.5659  -32.1220   23.6835 O   0  0  0  0  0  0
  -28.8830  -21.0449   18.0572 C   0  0  0  0  0  0
  -28.8538  -21.1626   20.8924 C   0  0  0  0  0  0
  -28.1223  -22.2486   18.7099 C   0  0  2  0  0  0
  -28.6717  -22.7161   20.0896 C   0  0  1  0  0  0
  -28.9610  -19.5763   20.1464 C   0  0  2  0  0  0
  -26.6083  -21.9592   18.7150 C   0  0  0  0  0  0
  -27.5844  -23.5618   24.3936 C   0  0  0  0  0  0
  -29.8864  -18.1047   20.5992 C   0  0  0  0  0  0
  -28.1432  -24.4346   22.1472 C   0  0  0  0  0  0
  -27.9733  -24.2976   20.6150 C   0  0  1  0  0  0
  -29.2241  -19.9230   18.7427 N   0  0  0  0  0  0
  -29.6232  -16.4711   20.4405 N   0  0  0  0  0  0
  -27.4253  -23.4024   22.9313 N   0  3  0  0  0  0
  -29.1545  -21.1170   16.8599 O   0  0  0  0  0  0
  -31.4518  -13.0057   19.1681 H   0  0  0  0  0  0
  -30.5203  -11.8752   20.1057 H   0  0  0  0  0  0
  -29.8939  -11.7224   17.6776 H   0  0  0  0  0  0
  -29.5507  -13.4347   17.6341 H   0  0  0  0  0  0
  -28.0318  -11.2594   19.0935 H   0  0  0  0  0  0
  -27.3980  -12.3179   17.8636 H   0  0  0  0  0  0
  -27.5331  -14.2310   19.3339 H   0  0  0  0  0  0
  -28.8164  -12.4621   21.4705 H   0  0  0  0  0  0
  -28.2959  -14.1158   21.7117 H   0  0  0  0  0  0
  -25.2754   -9.5676   22.4787 H   0  0  0  0  0  0
  -23.9999   -7.4621   22.7471 H   0  0  0  0  0  0
  -21.0852   -8.8761   19.8949 H   0  0  0  0  0  0
  -22.3698  -10.9668   19.6187 H   0  0  0  0  0  0
  -21.2017   -7.6161   23.9710 H   0  0  0  0  0  0
  -21.1467   -6.0532   25.9067 H   0  0  0  0  0  0
  -22.0603   -2.7613   23.2843 H   0  0  0  0  0  0
  -22.4048  -11.9821   22.4818 H   0  0  0  0  0  0
  -21.1031  -13.1176   22.2693 H   0  0  0  0  0  0
  -24.6341  -15.8442   20.5164 H   0  0  0  0  0  0
  -26.2401  -15.6270   20.0383 H   0  0  0  0  0  0
  -26.7342  -32.5148   23.0874 H   0  0  0  0  0  0
  -25.0112  -33.9490   25.0238 H   0  0  0  0  0  0
  -22.7873  -31.2772   21.3466 H   0  0  0  0  0  0
  -23.3742  -35.9547   23.3302 H   0  0  0  0  0  0
  -24.3594  -36.8857   22.2072 H   0  0  0  0  0  0
  -23.7232  -37.6394   23.6714 H   0  0  0  0  0  0
  -26.2085  -31.3842   20.6091 H   0  0  0  0  0  0
  -26.9013  -30.7072   22.0430 H   0  0  0  0  0  0
  -28.1407  -28.6277   21.2693 H   0  0  0  0  0  0
  -25.8731  -25.7442   19.0153 H   0  0  0  0  0  0
  -23.9788  -27.2720   18.9734 H   0  0  0  0  0  0
  -23.8769  -30.5331   19.3835 H   0  0  0  0  0  0
  -22.8206  -29.2241   19.8156 H   0  0  0  0  0  0
  -25.1331  -36.1764   25.0795 H   0  0  0  0  0  0
  -21.0049  -28.3375   24.1287 H   0  0  0  0  0  0
  -20.5654  -26.2412   23.3623 H   0  0  0  0  0  0
  -21.6678  -26.7437   22.1217 H   0  0  0  0  0  0
  -19.6940  -25.6301   21.1261 H   0  0  0  0  0  0
  -19.6719  -27.3187   20.6715 H   0  0  0  0  0  0
  -17.4236  -26.6719   21.4003 H   0  0  0  0  0  0
  -18.0351  -26.0143   22.9013 H   0  0  0  0  0  0
  -19.8018  -30.7324   24.2189 H   0  0  0  0  0  0
  -17.5111  -31.6297   24.5221 H   0  0  0  0  0  0
  -15.5412  -30.3056   23.7715 H   0  0  0  0  0  0
  -15.8704  -28.0885   22.7081 H   0  0  0  0  0  0
  -24.5884  -30.7131   25.7677 H   0  0  0  0  0  0
  -24.8848  -32.2992   26.4634 H   0  0  0  0  0  0
  -25.7916  -30.9069   27.0214 H   0  0  0  0  0  0
  -26.3120  -29.6594   24.1342 H   0  0  0  0  0  0
  -27.4006  -29.7276   25.4988 H   0  0  0  0  0  0
  -27.9034  -30.4157   23.9773 H   0  0  0  0  0  0
  -27.2651  -33.3681   26.1921 H   0  0  0  0  0  0
  -28.3925  -32.6764   25.0348 H   0  0  0  0  0  0
  -28.0632  -31.8518   26.5486 H   0  0  0  0  0  0
  -28.2569  -38.0064   24.7507 H   0  0  0  0  0  0
  -28.1038  -36.2586   24.6312 H   0  0  0  0  0  0
  -27.2283  -37.1447   25.8880 H   0  0  0  0  0  0
  -20.9509  -29.8877   21.6750 H   0  0  0  0  0  0
  -26.0101  -38.2756   24.1437 H   0  0  0  0  0  0
  -28.0176  -21.0764   21.5855 H   0  0  0  0  0  0
  -29.7189  -21.2557   21.5472 H   0  0  0  0  0  0
  -28.2651  -23.0892   18.0270 H   0  0  0  0  0  0
  -29.7102  -22.9887   19.9030 H   0  0  0  0  0  0
  -27.9278  -19.2287   20.1378 H   0  0  0  0  0  0
  -26.3261  -21.3041   19.5393 H   0  0  0  0  0  0
  -26.2903  -21.4760   17.7915 H   0  0  0  0  0  0
  -26.0272  -22.8767   18.8042 H   0  0  0  0  0  0
  -28.6305  -23.4589   24.6840 H   0  0  0  0  0  0
  -27.0067  -22.8090   24.9304 H   0  0  0  0  0  0
  -27.2371  -24.5445   24.7165 H   0  0  0  0  0  0
  -29.9871  -18.1993   21.6803 H   0  0  0  0  0  0
  -30.9031  -18.2595   20.2342 H   0  0  0  0  0  0
  -27.7388  -25.3975   22.4683 H   0  0  0  0  0  0
  -29.2031  -24.4490   22.4038 H   0  0  0  0  0  0
  -26.9023  -24.1747   20.4588 H   0  0  0  0  0  0
  -29.6769  -19.2029   18.1970 H   0  0  0  0  0  0
  -28.6376  -16.2547   20.4719 H   0  0  0  0  0  0
  -26.4403  -23.4409   22.7185 H   0  0  0  0  0  0
  -27.7563  -22.4861   22.6750 H   0  0  0  0  0  0
  1 25  1  0  0  0
  1 30  2  0  0  0
  1 82  1  0  0  0
  2  3  1  0  0  0
  2 25  1  0  0  0
  2 85  1  0  0  0
  2 86  1  0  0  0
  3  4  1  0  0  0
  3 87  1  0  0  0
  3 88  1  0  0  0
  4  5  1  0  0  0
  4 89  1  0  0  0
  4 90  1  0  0  0
  5  6  1  0  0  0
  5 26  1  0  0  0
  5 91  1  0  0  0
  6 25  1  0  0  0
  6 92  1  0  0  0
  6 93  1  0  0  0
  7  8  2  0  0  0
  7 26  1  0  0  0
  7 29  1  0  0  0
  8  9  1  0  0  0
  8 22  1  0  0  0
  9 10  1  0  0  0
  9 27  2  0  0  0
 10 11  2  0  0  0
 10 15  1  0  0  0
 11 12  1  0  0  0
 11 94  1  0  0  0
 12 13  2  0  0  0
 12 95  1  0  0  0
 13 14  1  0  0  0
 13 31  1  0  0  0
 14 15  2  0  0  0
 14 96  1  0  0  0
 15 97  1  0  0  0
 16 17  2  0  0  0
 16 21  1  0  0  0
 16 31  1  0  0  0
 17 18  1  0  0  0
 17 98  1  0  0  0
 18 19  2  0  0  0
 18 99  1  0  0  0
 19 20  1  0  0  0
 19 24  1  0  0  0
 20 21  2  0  0  0
 20100  1  0  0  0
 21 23  1  0  0  0
 22 28  1  0  0  0
 22 32  2  0  0  0
 26 27  1  0  0  0
 28101  1  0  0  0
 28102  1  0  0  0
 29103  1  0  0  0
 29104  1  0  0  0
 33 34  1  0  0  0
 33 66  1  0  0  0
 33 70  2  0  0  0
 34 36  1  0  0  0
 34 59  1  0  0  0
 34105  1  0  0  0
 35 44  2  0  0  0
 35 45  1  0  0  0
 35 68  1  0  0  0
 36 56  1  0  0  0
 36106  1  0  0  0
 37 39  1  0  0  0
 37 47  1  0  0  0
 37 66  1  0  0  0
 37107  1  0  0  0
 38 43  2  0  0  0
 38 46  1  0  0  0
 38 47  1  0  0  0
 39 64  1  0  0  0
 39 67  2  0  0  0
 40 52  1  0  0  0
 40 53  2  0  0  0
 40 58  1  0  0  0
 41108  1  0  0  0
 41109  1  0  0  0
 41110  1  0  0  0
 41 48  1  0  0  0
 42 43  1  0  0  0
 42 66  1  0  0  0
 42111  1  0  0  0
 42112  1  0  0  0
 43 44  1  0  0  0
 44113  1  0  0  0
 45 46  2  0  0  0
 45114  1  0  0  0
 46115  1  0  0  0
 47116  1  0  0  0
 47117  1  0  0  0
 48 56  1  0  0  0
 48 65  1  0  0  0
 48118  1  0  0  0
 49 50  1  0  0  0
 49 53  1  0  0  0
 49 64  1  0  0  0
 49119  1  0  0  0
 50 51  1  0  0  0
 50120  1  0  0  0
 50121  1  0  0  0
 51 52  1  0  0  0
 51122  1  0  0  0
 51123  1  0  0  0
 52124  1  0  0  0
 52125  1  0  0  0
 53 54  1  0  0  0
 54 55  2  0  0  0
 54126  1  0  0  0
 55 57  1  0  0  0
 55127  1  0  0  0
 56 69  2  0  0  0
 57 58  2  0  0  0
 57128  1  0  0  0
 58129  1  0  0  0
 59 60  1  0  0  0
 59 61  1  0  0  0
 59 62  1  0  0  0
 60130  1  0  0  0
 60131  1  0  0  0
 60132  1  0  0  0
 61133  1  0  0  0
 61134  1  0  0  0
 61135  1  0  0  0
 62136  1  0  0  0
 62137  1  0  0  0
 62138  1  0  0  0
 63 65  1  0  0  0
 63139  1  0  0  0
 63140  1  0  0  0
 63141  1  0  0  0
 64142  1  0  0  0
 65143  1  0  0  0
 68 80  1  0  0  0
 71 73  1  0  0  0
 71 81  1  0  0  0
 71 84  2  0  0  0
 72 75  1  0  0  0
 72144  1  0  0  0
 72145  1  0  0  0
 72 74  1  0  0  0
 73 74  1  0  0  0
 73 76  1  0  0  0
 73146  1  0  0  0
 74 80  1  0  0  0
 74147  1  0  0  0
 75 78  1  0  0  0
 75 81  1  0  0  0
 75148  1  0  0  0
 76149  1  0  0  0
 76150  1  0  0  0
 76151  1  0  0  0
 77 83  1  0  0  0
 77152  1  0  0  0
 77153  1  0  0  0
 77154  1  0  0  0
 78 82  1  0  0  0
 78155  1  0  0  0
 78156  1  0  0  0
 79 83  1  0  0  0
 79157  1  0  0  0
 79158  1  0  0  0
 79 80  1  0  0  0
 80159  1  0  0  0
 81160  1  0  0  0
 82161  1  0  0  0
 83162  1  0  0  0
 83163  1  0  0  0
M  CHG  1  83   1
M  ISO  4   1 100  68 101  80 101  82 100
M  END
> <chiral flag>
0

> <version>
0

> <s_m_source_file>
/data/baiqing/PycharmProjects/Reinvent-master-3.2/result/LINK_invent/BTK/process_docking_weight1_custom_sum_contain_oxygen_bond_distance_aromatic_linkinvent_7_9_3/rearranged_h_0115.sdf

> <i_m_source_file_index>
38

> <r_mmod_Potential_Energy-OPLS-2005>
957.606140136719

> <r_mmod_Stretch_Energy-OPLS-2005>
566.238098144531

> <r_mmod_Bend_Energy-OPLS-2005>
433.59765625

> <r_mmod_Torsional_Energy-OPLS-2005>
302.163787841797

> <r_mmod_Improper_Torsional_Energy-OPLS-2005>
4.05475950241089

> <r_mmod_Van_der_Waal_Energy-OPLS-2005>
111.036354064941

> <r_mmod_Electrostatic_Energy-OPLS-2005>
-373.739135742188

> <r_mmod_Solvation_Energy-OPLS-2005>
-505.633728027344

> <b_mmod_Minimization_Converged-OPLS-2005>
0

> <r_mmod_RMS_Derivative-OPLS-2005>
3.73833155632019

$$$$
38
                    3D
 Structure written by MMmdl.
160168  0  0  1  0            999 V2000
  -30.6285  -14.6734   20.4682 C   0  0  0  0  0  0
  -30.4327  -12.4031   19.4748 C   0  0  0  0  0  0
  -29.5113  -12.5061   18.2388 C   0  0  0  0  0  0
  -28.0347  -12.3382   18.6484 C   0  0  0  0  0  0
  -27.6510  -13.2238   19.8632 C   0  0  2  0  0  0
  -28.6952  -13.1177   21.0008 C   0  0  0  0  0  0
  -25.2549  -13.8184   20.5700 C   0  0  0  0  0  0
  -24.1820  -13.0444   20.9201 C   0  0  0  0  0  0
  -24.6387  -11.6912   20.8756 C   0  0  0  0  0  0
  -23.9053  -10.4293   21.0409 C   0  0  0  0  0  0
  -24.3599   -9.4215   21.9187 C   0  0  0  0  0  0
  -23.6282   -8.2248   22.0759 C   0  0  0  0  0  0
  -22.4271   -8.0272   21.3542 C   0  0  0  0  0  0
  -21.9900   -9.0248   20.4651 C   0  0  0  0  0  0
  -22.7223  -10.2129   20.3064 C   0  0  0  0  0  0
  -21.6856   -6.0735   22.5276 C   0  0  0  0  0  0
  -21.4018   -6.5642   23.8211 C   0  0  0  0  0  0
  -21.3664   -5.6791   24.9176 C   0  0  0  0  0  0
  -21.6047   -4.3055   24.7224 C   0  0  0  0  0  0
  -21.8818   -3.8146   23.4349 C   0  0  0  0  0  0
  -21.9191   -4.6962   22.3403 C   0  0  0  0  0  0
  -22.7843  -13.5239   21.1840 C   0  0  0  0  0  0
  -22.1654   -4.2149   21.0981 F   0  0  0  0  0  0
  -21.5632   -3.4535   25.7738 F   0  0  0  0  0  0
  -30.0109  -13.4478   20.4339 N   0  0  0  0  0  0
  -26.2980  -12.9374   20.3331 N   0  0  0  0  0  0
  -25.9322  -11.6522   20.5771 N   0  0  0  0  0  0
  -22.0461  -12.8257   22.0399 N   0  0  0  0  0  0
  -25.4262  -15.1908   20.4118 N   0  0  0  0  0  0
  -31.7875  -14.8096   20.0700 O   0  0  0  0  0  0
  -21.6642   -6.8870   21.4235 O   0  0  0  0  0  0
  -22.3538  -14.5533   20.6665 O   0  0  0  0  0  0
  -24.6287  -31.8573   23.2032 C   0  0  0  0  0  0
  -25.9126  -32.4771   23.8358 C   0  0  1  0  0  0
  -27.2260  -27.2966   20.1191 C   0  0  0  0  0  0
  -25.5939  -33.8573   24.2284 N   0  0  0  0  0  0
  -23.4239  -30.4814   21.5449 C   0  0  2  0  0  0
  -24.8722  -28.9384   20.1065 C   0  0  0  0  0  0
  -22.7471  -29.4610   22.4914 C   0  0  0  0  0  0
  -18.0274  -28.1400   22.8474 C   0  0  0  0  0  0
  -24.1485  -36.7297   23.2639 C   0  0  0  0  0  0
  -25.9674  -30.7802   21.3794 C   0  0  0  0  0  0
  -26.0401  -29.4069   20.7202 C   0  0  0  0  0  0
  -27.2174  -28.5964   20.7208 C   0  0  0  0  0  0
  -26.0400  -26.9018   19.4553 C   0  0  0  0  0  0
  -24.8762  -27.6933   19.4623 C   0  0  0  0  0  0
  -23.6404  -29.8199   20.1587 C   0  0  0  0  0  0
  -25.4113  -36.3088   24.0332 C   0  0  1  0  0  0
  -20.5872  -28.3699   23.1276 C   0  0  2  0  0  0
  -20.6767  -26.9422   22.5403 C   0  0  0  0  0  0
  -19.5748  -26.6393   21.5207 C   0  0  0  0  0  0
  -18.1927  -26.7941   22.1616 C   0  0  0  0  0  0
  -19.1524  -28.8869   23.2869 C   0  0  0  0  0  0
  -18.9451  -30.1474   23.8886 C   0  0  0  0  0  0
  -17.6451  -30.6599   24.0566 C   0  0  0  0  0  0
  -25.9049  -34.9451   23.5107 C   0  0  0  0  0  0
  -16.5343  -29.9097   23.6337 C   0  0  0  0  0  0
  -16.7261  -28.6518   23.0350 C   0  0  0  0  0  0
  -26.4506  -31.6591   25.0735 C   0  0  0  0  0  0
  -25.3737  -31.3723   26.1463 C   0  0  0  0  0  0
  -27.0353  -30.3016   24.6206 C   0  0  0  0  0  0
  -27.6057  -32.4330   25.7499 C   0  0  0  0  0  0
  -27.5577  -37.1809   24.8466 C   0  0  0  0  0  0
  -21.4178  -29.3058   22.3673 N   0  0  0  0  0  0
  -26.4289  -37.3786   23.9410 N   0  0  0  0  0  0
  -24.6921  -31.0561   22.0998 N   0  0  0  0  0  0
  -23.4181  -28.8132   23.2990 O   0  0  0  0  0  0
  -28.3311  -26.4217   20.2018 O   0  0  0  0  0  0
  -26.5603  -34.8918   22.4665 O   0  0  0  0  0  0
  -23.5446  -32.1377   23.7353 O   0  0  0  0  0  0
  -31.2370  -18.6166   21.7697 C   0  0  0  0  0  0
  -29.9225  -18.4329   22.4582 C   0  0  0  0  0  0
  -29.9725  -18.5010   20.9319 C   0  0  0  0  0  0
  -27.7895  -20.8389   21.5085 C   0  0  0  0  0  0
  -29.9054  -17.1535   20.0958 C   0  0  0  0  0  0
  -29.5718  -19.8208   20.1082 C   0  0  0  0  0  0
  -28.9615  -22.3529   19.9386 C   0  0  0  0  0  0
  -28.1168  -24.9660   19.9485 C   0  0  0  0  0  0
  -29.0621  -23.8333   20.5837 C   0  0  1  0  0  0
  -29.8401  -15.7697   20.7216 N   0  0  0  0  0  0
  -29.0827  -21.0949   20.8178 N   0  3  1  0  0  0
  -28.7615  -23.7761   21.9681 O   0  0  0  0  0  0
  -31.4760  -12.5117   19.1764 H   0  0  0  0  0  0
  -30.3575  -11.4150   19.9317 H   0  0  0  0  0  0
  -29.7839  -11.7527   17.4985 H   0  0  0  0  0  0
  -29.6512  -13.4722   17.7528 H   0  0  0  0  0  0
  -27.8810  -11.2876   18.8970 H   0  0  0  0  0  0
  -27.3795  -12.5515   17.8023 H   0  0  0  0  0  0
  -27.6582  -14.2522   19.5012 H   0  0  0  0  0  0
  -28.7070  -12.1116   21.4214 H   0  0  0  0  0  0
  -28.4396  -13.7869   21.8248 H   0  0  0  0  0  0
  -25.2742   -9.5706   22.4764 H   0  0  0  0  0  0
  -23.9998   -7.4650   22.7491 H   0  0  0  0  0  0
  -21.0833   -8.8765   19.8957 H   0  0  0  0  0  0
  -22.3676  -10.9667   19.6180 H   0  0  0  0  0  0
  -21.2004   -7.6145   23.9713 H   0  0  0  0  0  0
  -21.1494   -6.0521   25.9074 H   0  0  0  0  0  0
  -22.0592   -2.7612   23.2846 H   0  0  0  0  0  0
  -22.4031  -11.9915   22.4823 H   0  0  0  0  0  0
  -21.1075  -13.1315   22.2543 H   0  0  0  0  0  0
  -24.6615  -15.8475   20.5239 H   0  0  0  0  0  0
  -26.2754  -15.6274   20.0757 H   0  0  0  0  0  0
  -26.7181  -32.5426   23.1093 H   0  0  0  0  0  0
  -25.0123  -33.9717   25.0455 H   0  0  0  0  0  0
  -22.7203  -31.3045   21.4029 H   0  0  0  0  0  0
  -23.3747  -35.9629   23.3302 H   0  0  0  0  0  0
  -24.3572  -36.8917   22.2050 H   0  0  0  0  0  0
  -23.7232  -37.6503   23.6653 H   0  0  0  0  0  0
  -26.1030  -31.5430   20.6116 H   0  0  0  0  0  0
  -26.8467  -30.8272   22.0105 H   0  0  0  0  0  0
  -28.1089  -28.9483   21.2204 H   0  0  0  0  0  0
  -25.9794  -25.9626   18.9270 H   0  0  0  0  0  0
  -23.9863  -27.3380   18.9609 H   0  0  0  0  0  0
  -23.7607  -30.5995   19.4054 H   0  0  0  0  0  0
  -22.7597  -29.2523   19.8527 H   0  0  0  0  0  0
  -25.1291  -36.1942   25.0824 H   0  0  0  0  0  0
  -20.9965  -28.3285   24.1398 H   0  0  0  0  0  0
  -20.5677  -26.2310   23.3602 H   0  0  0  0  0  0
  -21.6638  -26.7462   22.1200 H   0  0  0  0  0  0
  -19.6914  -25.6302   21.1250 H   0  0  0  0  0  0
  -19.6699  -27.3191   20.6728 H   0  0  0  0  0  0
  -17.4197  -26.6674   21.4024 H   0  0  0  0  0  0
  -18.0341  -26.0093   22.9018 H   0  0  0  0  0  0
  -19.7926  -30.7290   24.2255 H   0  0  0  0  0  0
  -17.5007  -31.6277   24.5171 H   0  0  0  0  0  0
  -15.5346  -30.2999   23.7680 H   0  0  0  0  0  0
  -15.8653  -28.0842   22.7073 H   0  0  0  0  0  0
  -24.5912  -30.7077   25.7794 H   0  0  0  0  0  0
  -24.8933  -32.2883   26.4905 H   0  0  0  0  0  0
  -25.8072  -30.8888   27.0226 H   0  0  0  0  0  0
  -26.2934  -29.6754   24.1246 H   0  0  0  0  0  0
  -27.4058  -29.7292   25.4719 H   0  0  0  0  0  0
  -27.8797  -30.4303   23.9435 H   0  0  0  0  0  0
  -27.2671  -33.3632   26.2073 H   0  0  0  0  0  0
  -28.3871  -32.6891   25.0330 H   0  0  0  0  0  0
  -28.0725  -31.8456   26.5421 H   0  0  0  0  0  0
  -28.2605  -38.0097   24.7515 H   0  0  0  0  0  0
  -28.1063  -36.2632   24.6293 H   0  0  0  0  0  0
  -27.2290  -37.1465   25.8867 H   0  0  0  0  0  0
  -20.9362  -29.8793   21.6889 H   0  0  0  0  0  0
  -26.0170  -38.2862   24.1416 H   0  0  0  0  0  0
  -31.9229  -17.7708   21.7686 H   0  0  0  0  0  0
  -31.7125  -19.5919   21.8490 H   0  0  0  0  0  0
  -29.5899  -19.2841   23.0458 H   0  0  0  0  0  0
  -29.7322  -17.4659   22.9194 H   0  0  0  0  0  0
  -27.5733  -21.5939   22.2616 H   0  0  0  0  0  0
  -27.7587  -19.8784   22.0163 H   0  0  0  0  0  0
  -26.9619  -20.8325   20.7987 H   0  0  0  0  0  0
  -30.7370  -17.1717   19.3879 H   0  0  0  0  0  0
  -29.0163  -17.2152   19.4681 H   0  0  0  0  0  0
  -28.8063  -19.5472   19.3823 H   0  0  0  0  0  0
  -30.4429  -20.0902   19.5094 H   0  0  0  0  0  0
  -29.7320  -22.3005   19.1685 H   0  0  0  0  0  0
  -28.0275  -22.2816   19.3798 H   0  0  0  0  0  0
  -27.1040  -24.6872   20.2413 H   0  0  0  0  0  0
  -28.1568  -24.8502   18.8648 H   0  0  0  0  0  0
  -30.0984  -24.1619   20.4906 H   0  0  0  0  0  0
  -28.9416  -15.5350   21.1161 H   0  0  0  0  0  0
  -29.7642  -21.3215   21.5265 H   0  0  0  0  0  0
  -28.8367  -24.6654   22.3046 H   0  0  0  0  0  0
  1 25  1  0  0  0
  1 30  2  0  0  0
  1 80  1  0  0  0
  2  3  1  0  0  0
  2 25  1  0  0  0
  2 83  1  0  0  0
  2 84  1  0  0  0
  3  4  1  0  0  0
  3 85  1  0  0  0
  3 86  1  0  0  0
  4  5  1  0  0  0
  4 87  1  0  0  0
  4 88  1  0  0  0
  5  6  1  0  0  0
  5 26  1  0  0  0
  5 89  1  0  0  0
  6 25  1  0  0  0
  6 90  1  0  0  0
  6 91  1  0  0  0
  7  8  2  0  0  0
  7 26  1  0  0  0
  7 29  1  0  0  0
  8  9  1  0  0  0
  8 22  1  0  0  0
  9 10  1  0  0  0
  9 27  2  0  0  0
 10 11  2  0  0  0
 10 15  1  0  0  0
 11 12  1  0  0  0
 11 92  1  0  0  0
 12 13  2  0  0  0
 12 93  1  0  0  0
 13 14  1  0  0  0
 13 31  1  0  0  0
 14 15  2  0  0  0
 14 94  1  0  0  0
 15 95  1  0  0  0
 16 17  2  0  0  0
 16 21  1  0  0  0
 16 31  1  0  0  0
 17 18  1  0  0  0
 17 96  1  0  0  0
 18 19  2  0  0  0
 18 97  1  0  0  0
 19 20  1  0  0  0
 19 24  1  0  0  0
 20 21  2  0  0  0
 20 98  1  0  0  0
 21 23  1  0  0  0
 22 28  1  0  0  0
 22 32  2  0  0  0
 26 27  1  0  0  0
 28 99  1  0  0  0
 28100  1  0  0  0
 29101  1  0  0  0
 29102  1  0  0  0
 33 34  1  0  0  0
 33 66  1  0  0  0
 33 70  2  0  0  0
 34 36  1  0  0  0
 34 59  1  0  0  0
 34103  1  0  0  0
 35 44  2  0  0  0
 35 45  1  0  0  0
 35 68  1  0  0  0
 36 56  1  0  0  0
 36104  1  0  0  0
 37 39  1  0  0  0
 37 47  1  0  0  0
 37 66  1  0  0  0
 37105  1  0  0  0
 38 43  2  0  0  0
 38 46  1  0  0  0
 38 47  1  0  0  0
 39 64  1  0  0  0
 39 67  2  0  0  0
 40 52  1  0  0  0
 40 53  2  0  0  0
 40 58  1  0  0  0
 41106  1  0  0  0
 41107  1  0  0  0
 41108  1  0  0  0
 41 48  1  0  0  0
 42 43  1  0  0  0
 42 66  1  0  0  0
 42109  1  0  0  0
 42110  1  0  0  0
 43 44  1  0  0  0
 44111  1  0  0  0
 45 46  2  0  0  0
 45112  1  0  0  0
 46113  1  0  0  0
 47114  1  0  0  0
 47115  1  0  0  0
 48 56  1  0  0  0
 48 65  1  0  0  0
 48116  1  0  0  0
 49 50  1  0  0  0
 49 53  1  0  0  0
 49 64  1  0  0  0
 49117  1  0  0  0
 50 51  1  0  0  0
 50118  1  0  0  0
 50119  1  0  0  0
 51 52  1  0  0  0
 51120  1  0  0  0
 51121  1  0  0  0
 52122  1  0  0  0
 52123  1  0  0  0
 53 54  1  0  0  0
 54 55  2  0  0  0
 54124  1  0  0  0
 55 57  1  0  0  0
 55125  1  0  0  0
 56 69  2  0  0  0
 57 58  2  0  0  0
 57126  1  0  0  0
 58127  1  0  0  0
 59 60  1  0  0  0
 59 61  1  0  0  0
 59 62  1  0  0  0
 60128  1  0  0  0
 60129  1  0  0  0
 60130  1  0  0  0
 61131  1  0  0  0
 61132  1  0  0  0
 61133  1  0  0  0
 62134  1  0  0  0
 62135  1  0  0  0
 62136  1  0  0  0
 63 65  1  0  0  0
 63137  1  0  0  0
 63138  1  0  0  0
 63139  1  0  0  0
 64140  1  0  0  0
 65141  1  0  0  0
 68 78  1  0  0  0
 71 72  1  0  0  0
 71 73  1  0  0  0
 71142  1  0  0  0
 71143  1  0  0  0
 72 73  1  0  0  0
 72144  1  0  0  0
 72145  1  0  0  0
 73 75  1  0  0  0
 73 76  1  0  0  0
 74146  1  0  0  0
 74147  1  0  0  0
 74148  1  0  0  0
 74 81  1  0  0  0
 75 80  1  0  0  0
 75149  1  0  0  0
 75150  1  0  0  0
 76 81  1  0  0  0
 76151  1  0  0  0
 76152  1  0  0  0
 77 79  1  0  0  0
 77 81  1  0  0  0
 77153  1  0  0  0
 77154  1  0  0  0
 78 79  1  0  0  0
 78155  1  0  0  0
 78156  1  0  0  0
 79 82  1  0  0  0
 79157  1  0  0  0
 80158  1  0  0  0
 81159  1  0  0  0
 82160  1  0  0  0
M  CHG  1  81   1
M  ISO  4   1 100  68 101  78 101  80 100
M  END
> <chiral flag>
0

> <version>
0

> <s_m_source_file>
/data/baiqing/PycharmProjects/Reinvent-master-3.2/result/LINK_invent/BTK/process_docking_weight1_custom_sum_contain_oxygen_bond_distance_aromatic_linkinvent_7_9_3/rearranged_h_0115.sdf

> <i_m_source_file_index>
39

> <r_mmod_Potential_Energy-OPLS-2005>
31.3669490814209

> <r_mmod_Stretch_Energy-OPLS-2005>
108.450225830078

> <r_mmod_Bend_Energy-OPLS-2005>
158.988220214844

> <r_mmod_Torsional_Energy-OPLS-2005>
326.549896240234

> <r_mmod_Improper_Torsional_Energy-OPLS-2005>
6.98964071273804

> <r_mmod_Van_der_Waal_Energy-OPLS-2005>
130.641479492188

> <r_mmod_Electrostatic_Energy-OPLS-2005>
-313.367889404297

> <r_mmod_Solvation_Energy-OPLS-2005>
-448.938079833984

> <b_mmod_Minimization_Converged-OPLS-2005>
0

> <r_mmod_RMS_Derivative-OPLS-2005>
1.7017582654953

$$$$
39
                    3D
 Structure written by MMmdl.
157166  0  0  1  0            999 V2000
  -30.5938  -14.9764   20.2777 C   0  0  0  0  0  0
  -30.4365  -12.5927   19.4706 C   0  0  0  0  0  0
  -29.5058  -12.4515   18.2466 C   0  0  0  0  0  0
  -28.0494  -12.2166   18.6945 C   0  0  0  0  0  0
  -27.6051  -13.1811   19.8188 C   0  0  2  0  0  0
  -28.6722  -13.3604   20.9216 C   0  0  0  0  0  0
  -25.2485  -13.8006   20.5830 C   0  0  0  0  0  0
  -24.1739  -13.0326   20.9299 C   0  0  0  0  0  0
  -24.6285  -11.6794   20.8857 C   0  0  0  0  0  0
  -23.8966  -10.4213   21.0479 C   0  0  0  0  0  0
  -24.3545   -9.4129   21.9223 C   0  0  0  0  0  0
  -23.6232   -8.2170   22.0760 C   0  0  0  0  0  0
  -22.4219   -8.0229   21.3542 C   0  0  0  0  0  0
  -21.9855   -9.0199   20.4644 C   0  0  0  0  0  0
  -22.7171  -10.2081   20.3083 C   0  0  0  0  0  0
  -21.6822   -6.0703   22.5283 C   0  0  0  0  0  0
  -21.3989   -6.5616   23.8210 C   0  0  0  0  0  0
  -21.3653   -5.6777   24.9174 C   0  0  0  0  0  0
  -21.6048   -4.3037   24.7232 C   0  0  0  0  0  0
  -21.8824   -3.8126   23.4354 C   0  0  0  0  0  0
  -21.9184   -4.6939   22.3412 C   0  0  0  0  0  0
  -22.7777  -13.5171   21.1902 C   0  0  0  0  0  0
  -22.1663   -4.2131   21.0990 F   0  0  0  0  0  0
  -21.5634   -3.4524   25.7742 F   0  0  0  0  0  0
  -29.9428  -13.7387   20.2795 N   0  0  0  0  0  0
  -26.2804  -12.9066   20.3367 N   0  0  0  0  0  0
  -25.9192  -11.6286   20.5892 N   0  0  0  0  0  0
  -22.0398  -12.8184   22.0447 N   0  0  0  0  0  0
  -25.4222  -15.1730   20.4263 N   0  0  0  0  0  0
  -31.8209  -14.9056   20.3913 O   0  0  0  0  0  0
  -21.6591   -6.8831   21.4234 O   0  0  0  0  0  0
  -22.3515  -14.5496   20.6733 O   0  0  0  0  0  0
  -24.6381  -31.8484   23.1909 C   0  0  0  0  0  0
  -25.9170  -32.4719   23.8282 C   0  0  1  0  0  0
  -27.2226  -27.1853   20.1452 C   0  0  0  0  0  0
  -25.5930  -33.8527   24.2195 N   0  0  0  0  0  0
  -23.4382  -30.4688   21.5371 C   0  0  2  0  0  0
  -24.8875  -28.9029   20.1137 C   0  0  0  0  0  0
  -22.7526  -29.4579   22.4889 C   0  0  0  0  0  0
  -18.0292  -28.1392   22.8487 C   0  0  0  0  0  0
  -24.1493  -36.7273   23.2639 C   0  0  0  0  0  0
  -25.9905  -30.7405   21.3796 C   0  0  0  0  0  0
  -26.0650  -29.3559   20.7223 C   0  0  0  0  0  0
  -27.2349  -28.5139   20.7197 C   0  0  0  0  0  0
  -26.0132  -26.8210   19.5079 C   0  0  0  0  0  0
  -24.8714  -27.6463   19.4941 C   0  0  0  0  0  0
  -23.6592  -29.7952   20.1577 C   0  0  0  0  0  0
  -25.4123  -36.3045   24.0314 C   0  0  1  0  0  0
  -20.5900  -28.3720   23.1250 C   0  0  2  0  0  0
  -20.6778  -26.9432   22.5399 C   0  0  0  0  0  0
  -19.5756  -26.6387   21.5204 C   0  0  0  0  0  0
  -18.1936  -26.7935   22.1618 C   0  0  0  0  0  0
  -19.1548  -28.8875   23.2861 C   0  0  0  0  0  0
  -18.9470  -30.1465   23.8892 C   0  0  0  0  0  0
  -17.6468  -30.6601   24.0549 C   0  0  0  0  0  0
  -25.9067  -34.9423   23.5065 C   0  0  0  0  0  0
  -16.5360  -29.9089   23.6338 C   0  0  0  0  0  0
  -16.7277  -28.6493   23.0383 C   0  0  0  0  0  0
  -26.4500  -31.6581   25.0711 C   0  0  0  0  0  0
  -25.3694  -31.3772   26.1413 C   0  0  0  0  0  0
  -27.0351  -30.2978   24.6269 C   0  0  0  0  0  0
  -27.6022  -32.4352   25.7514 C   0  0  0  0  0  0
  -27.5582  -37.1788   24.8464 C   0  0  0  0  0  0
  -21.4224  -29.3058   22.3637 N   0  0  0  0  0  0
  -26.4291  -37.3750   23.9408 N   0  0  0  0  0  0
  -24.7084  -31.0385   22.0915 N   0  0  0  0  0  0
  -23.4190  -28.8127   23.3021 O   0  0  0  0  0  0
  -28.2953  -26.2340   20.2096 O   0  0  0  0  0  0
  -26.5654  -34.8914   22.4648 O   0  0  0  0  0  0
  -23.5509  -32.1341   23.7159 O   0  0  0  0  0  0
  -30.6910  -19.0835   20.1013 C   0  0  0  0  0  0
  -28.1694  -19.5714   20.7663 C   0  0  0  0  0  0
  -29.8368  -17.9127   20.2295 C   0  0  0  0  0  0
  -28.9911  -20.7148   20.5004 C   0  0  0  0  0  0
  -31.2083  -17.6038   17.3591 C   0  0  0  0  0  0
  -32.3504  -16.9807   18.1444 C   0  0  0  0  0  0
  -30.9488  -16.4217   18.2722 C   0  0  0  0  0  0
  -28.6793  -16.1664   18.8660 C   0  0  0  0  0  0
  -28.0034  -24.7249   20.1178 C   0  0  0  0  0  0
  -29.0316  -23.4275   20.3165 C   0  0  0  0  0  0
  -30.0427  -16.3955   19.5464 C   0  0  1  0  0  0
  -28.5703  -18.2504   20.6556 N   0  0  0  0  0  0
  -30.2974  -20.4245   20.2112 N   0  0  0  0  0  0
  -28.4250  -22.0531   20.5233 O   0  0  0  0  0  0
  -31.4629  -12.7459   19.1343 H   0  0  0  0  0  0
  -30.4445  -11.6783   20.0660 H   0  0  0  0  0  0
  -29.8350  -11.6204   17.6216 H   0  0  0  0  0  0
  -29.5706  -13.3401   17.6203 H   0  0  0  0  0  0
  -27.9819  -11.1893   19.0549 H   0  0  0  0  0  0
  -27.3704  -12.2829   17.8439 H   0  0  0  0  0  0
  -27.4552  -14.0964   19.2896 H   0  0  0  0  0  0
  -28.7910  -12.4419   21.4984 H   0  0  0  0  0  0
  -28.3655  -14.1341   21.6267 H   0  0  0  0  0  0
  -25.2686   -9.5597   22.4800 H   0  0  0  0  0  0
  -23.9935   -7.4544   22.7462 H   0  0  0  0  0  0
  -21.0802   -8.8712   19.8937 H   0  0  0  0  0  0
  -22.3637  -10.9633   19.6197 H   0  0  0  0  0  0
  -21.1974   -7.6121   23.9699 H   0  0  0  0  0  0
  -21.1476   -6.0514   25.9079 H   0  0  0  0  0  0
  -22.0616   -2.7592   23.2854 H   0  0  0  0  0  0
  -22.3995  -11.9828   22.4814 H   0  0  0  0  0  0
  -21.1029  -13.1226   22.2664 H   0  0  0  0  0  0
  -24.6645  -15.8328   20.5634 H   0  0  0  0  0  0
  -26.2835  -15.6161   20.1358 H   0  0  0  0  0  0
  -26.7234  -32.5343   23.1015 H   0  0  0  0  0  0
  -25.0041  -33.9653   25.0314 H   0  0  0  0  0  0
  -22.7377  -31.2926   21.3835 H   0  0  0  0  0  0
  -23.3755  -35.9606   23.3284 H   0  0  0  0  0  0
  -24.3574  -36.8924   22.2059 H   0  0  0  0  0  0
  -23.7251  -37.6466   23.6688 H   0  0  0  0  0  0
  -26.1357  -31.4965   20.6070 H   0  0  0  0  0  0
  -26.8650  -30.7915   22.0171 H   0  0  0  0  0  0
  -28.1341  -28.8588   21.2108 H   0  0  0  0  0  0
  -25.9060  -25.8610   19.0290 H   0  0  0  0  0  0
  -23.9690  -27.2895   19.0167 H   0  0  0  0  0  0
  -23.7812  -30.5651   19.3951 H   0  0  0  0  0  0
  -22.7767  -29.2261   19.8584 H   0  0  0  0  0  0
  -25.1306  -36.1872   25.0803 H   0  0  0  0  0  0
  -20.9990  -28.3302   24.1371 H   0  0  0  0  0  0
  -20.5675  -26.2333   23.3608 H   0  0  0  0  0  0
  -21.6646  -26.7443   22.1204 H   0  0  0  0  0  0
  -19.6920  -25.6289   21.1261 H   0  0  0  0  0  0
  -19.6693  -27.3171   20.6715 H   0  0  0  0  0  0
  -17.4201  -26.6680   21.4024 H   0  0  0  0  0  0
  -18.0339  -26.0077   22.9015 H   0  0  0  0  0  0
  -19.7944  -30.7273   24.2274 H   0  0  0  0  0  0
  -17.5027  -31.6295   24.5130 H   0  0  0  0  0  0
  -15.5361  -30.2991   23.7672 H   0  0  0  0  0  0
  -15.8673  -28.0795   22.7144 H   0  0  0  0  0  0
  -24.5874  -30.7116   25.7736 H   0  0  0  0  0  0
  -24.8883  -32.2962   26.4772 H   0  0  0  0  0  0
  -25.7984  -30.8993   27.0228 H   0  0  0  0  0  0
  -26.2957  -29.6733   24.1245 H   0  0  0  0  0  0
  -27.3923  -29.7247   25.4831 H   0  0  0  0  0  0
  -27.8878  -30.4202   23.9592 H   0  0  0  0  0  0
  -27.2586  -33.3659   26.2044 H   0  0  0  0  0  0
  -28.3869  -32.6916   25.0384 H   0  0  0  0  0  0
  -28.0651  -31.8519   26.5483 H   0  0  0  0  0  0
  -28.2576  -38.0106   24.7518 H   0  0  0  0  0  0
  -28.1100  -36.2631   24.6279 H   0  0  0  0  0  0
  -27.2299  -37.1423   25.8865 H   0  0  0  0  0  0
  -20.9423  -29.8768   21.6821 H   0  0  0  0  0  0
  -26.0159  -38.2820   24.1409 H   0  0  0  0  0  0
  -31.7135  -18.9922   19.7918 H   0  0  0  0  0  0
  -27.1339  -19.7192   21.0331 H   0  0  0  0  0  0
  -31.1715  -17.4052   16.2901 H   0  0  0  0  0  0
  -30.8536  -18.5915   17.6332 H   0  0  0  0  0  0
  -32.7851  -17.4914   18.9949 H   0  0  0  0  0  0
  -33.0634  -16.3781   17.5850 H   0  0  0  0  0  0
  -30.8670  -15.4786   17.7323 H   0  0  0  0  0  0
  -28.4120  -17.0150   18.2339 H   0  0  0  0  0  0
  -27.8842  -16.0757   19.6003 H   0  0  0  0  0  0
  -28.6796  -15.3119   18.1944 H   0  0  0  0  0  0
  -27.1896  -24.5577   20.8237 H   0  0  0  0  0  0
  -27.5687  -24.5609   19.1331 H   0  0  0  0  0  0
  -29.6655  -23.6212   21.1814 H   0  0  0  0  0  0
  -29.7036  -23.3768   19.4589 H   0  0  0  0  0  0
  1 25  1  0  0  0
  1 30  2  0  0  0
  1 81  1  0  0  0
  2  3  1  0  0  0
  2 25  1  0  0  0
  2 85  1  0  0  0
  2 86  1  0  0  0
  3  4  1  0  0  0
  3 87  1  0  0  0
  3 88  1  0  0  0
  4  5  1  0  0  0
  4 89  1  0  0  0
  4 90  1  0  0  0
  5  6  1  0  0  0
  5 26  1  0  0  0
  5 91  1  0  0  0
  6 25  1  0  0  0
  6 92  1  0  0  0
  6 93  1  0  0  0
  7  8  2  0  0  0
  7 26  1  0  0  0
  7 29  1  0  0  0
  8  9  1  0  0  0
  8 22  1  0  0  0
  9 10  1  0  0  0
  9 27  2  0  0  0
 10 11  2  0  0  0
 10 15  1  0  0  0
 11 12  1  0  0  0
 11 94  1  0  0  0
 12 13  2  0  0  0
 12 95  1  0  0  0
 13 14  1  0  0  0
 13 31  1  0  0  0
 14 15  2  0  0  0
 14 96  1  0  0  0
 15 97  1  0  0  0
 16 17  2  0  0  0
 16 21  1  0  0  0
 16 31  1  0  0  0
 17 18  1  0  0  0
 17 98  1  0  0  0
 18 19  2  0  0  0
 18 99  1  0  0  0
 19 20  1  0  0  0
 19 24  1  0  0  0
 20 21  2  0  0  0
 20100  1  0  0  0
 21 23  1  0  0  0
 22 28  1  0  0  0
 22 32  2  0  0  0
 26 27  1  0  0  0
 28101  1  0  0  0
 28102  1  0  0  0
 29103  1  0  0  0
 29104  1  0  0  0
 33 34  1  0  0  0
 33 66  1  0  0  0
 33 70  2  0  0  0
 34 36  1  0  0  0
 34 59  1  0  0  0
 34105  1  0  0  0
 35 44  2  0  0  0
 35 45  1  0  0  0
 35 68  1  0  0  0
 36 56  1  0  0  0
 36106  1  0  0  0
 37 39  1  0  0  0
 37 47  1  0  0  0
 37 66  1  0  0  0
 37107  1  0  0  0
 38 43  2  0  0  0
 38 46  1  0  0  0
 38 47  1  0  0  0
 39 64  1  0  0  0
 39 67  2  0  0  0
 40 52  1  0  0  0
 40 53  2  0  0  0
 40 58  1  0  0  0
 41108  1  0  0  0
 41109  1  0  0  0
 41110  1  0  0  0
 41 48  1  0  0  0
 42 43  1  0  0  0
 42 66  1  0  0  0
 42111  1  0  0  0
 42112  1  0  0  0
 43 44  1  0  0  0
 44113  1  0  0  0
 45 46  2  0  0  0
 45114  1  0  0  0
 46115  1  0  0  0
 47116  1  0  0  0
 47117  1  0  0  0
 48 56  1  0  0  0
 48 65  1  0  0  0
 48118  1  0  0  0
 49 50  1  0  0  0
 49 53  1  0  0  0
 49 64  1  0  0  0
 49119  1  0  0  0
 50 51  1  0  0  0
 50120  1  0  0  0
 50121  1  0  0  0
 51 52  1  0  0  0
 51122  1  0  0  0
 51123  1  0  0  0
 52124  1  0  0  0
 52125  1  0  0  0
 53 54  1  0  0  0
 54 55  2  0  0  0
 54126  1  0  0  0
 55 57  1  0  0  0
 55127  1  0  0  0
 56 69  2  0  0  0
 57 58  2  0  0  0
 57128  1  0  0  0
 58129  1  0  0  0
 59 60  1  0  0  0
 59 61  1  0  0  0
 59 62  1  0  0  0
 60130  1  0  0  0
 60131  1  0  0  0
 60132  1  0  0  0
 61133  1  0  0  0
 61134  1  0  0  0
 61135  1  0  0  0
 62136  1  0  0  0
 62137  1  0  0  0
 62138  1  0  0  0
 63 65  1  0  0  0
 63139  1  0  0  0
 63140  1  0  0  0
 63141  1  0  0  0
 64142  1  0  0  0
 65143  1  0  0  0
 68 79  1  0  0  0
 71 73  2  0  0  0
 71 83  1  0  0  0
 71144  1  0  0  0
 72 74  1  0  0  0
 72 82  2  0  0  0
 72145  1  0  0  0
 73 81  1  0  0  0
 73 82  1  0  0  0
 74 83  2  0  0  0
 74 84  1  0  0  0
 75 76  1  0  0  0
 75146  1  0  0  0
 75147  1  0  0  0
 75 77  1  0  0  0
 76 77  1  0  0  0
 76148  1  0  0  0
 76149  1  0  0  0
 77 81  1  0  0  0
 77150  1  0  0  0
 78151  1  0  0  0
 78152  1  0  0  0
 78153  1  0  0  0
 78 81  1  0  0  0
 79 80  1  0  0  0
 79154  1  0  0  0
 79155  1  0  0  0
 80 84  1  0  0  0
 80156  1  0  0  0
 80157  1  0  0  0
M  ISO  4   1 100  68 101  79 101  81 100
M  END
> <chiral flag>
0

> <version>
0

> <s_m_source_file>
/data/baiqing/PycharmProjects/Reinvent-master-3.2/result/LINK_invent/BTK/process_docking_weight1_custom_sum_contain_oxygen_bond_distance_aromatic_linkinvent_7_9_3/rearranged_h_0115.sdf

> <i_m_source_file_index>
40

> <r_mmod_Potential_Energy-OPLS-2005>
838.470581054688

> <r_mmod_Stretch_Energy-OPLS-2005>
233.892135620117

> <r_mmod_Bend_Energy-OPLS-2005>
326.465454101562

> <r_mmod_Torsional_Energy-OPLS-2005>
270.377807617188

> <r_mmod_Improper_Torsional_Energy-OPLS-2005>
21.8781566619873

> <r_mmod_Van_der_Waal_Energy-OPLS-2005>
170.226196289062

> <r_mmod_Electrostatic_Energy-OPLS-2005>
-194.787582397461

> <r_mmod_Solvation_Energy-OPLS-2005>
-195.385375976562

> <b_mmod_Minimization_Converged-OPLS-2005>
0

> <r_mmod_RMS_Derivative-OPLS-2005>
1.60837340354919

$$$$
40
                    3D
 Structure written by MMmdl.
163171  0  0  1  0            999 V2000
  -30.7094  -14.4572   20.5348 C   0  0  0  0  0  0
  -30.4154  -12.2848   19.4312 C   0  0  0  0  0  0
  -29.4936  -12.4923   18.2114 C   0  0  0  0  0  0
  -28.0134  -12.3624   18.6204 C   0  0  0  0  0  0
  -27.6602  -13.2066   19.8746 C   0  0  2  0  0  0
  -28.7020  -13.0010   21.0012 C   0  0  0  0  0  0
  -25.2583  -13.8159   20.5687 C   0  0  0  0  0  0
  -24.1830  -13.0435   20.9176 C   0  0  0  0  0  0
  -24.6388  -11.6904   20.8734 C   0  0  0  0  0  0
  -23.9053  -10.4295   21.0407 C   0  0  0  0  0  0
  -24.3611   -9.4213   21.9181 C   0  0  0  0  0  0
  -23.6295   -8.2247   22.0754 C   0  0  0  0  0  0
  -22.4279   -8.0275   21.3545 C   0  0  0  0  0  0
  -21.9910   -9.0245   20.4647 C   0  0  0  0  0  0
  -22.7228  -10.2129   20.3057 C   0  0  0  0  0  0
  -21.6847   -6.0739   22.5279 C   0  0  0  0  0  0
  -21.4012   -6.5643   23.8212 C   0  0  0  0  0  0
  -21.3664   -5.6796   24.9174 C   0  0  0  0  0  0
  -21.6047   -4.3060   24.7225 C   0  0  0  0  0  0
  -21.8818   -3.8153   23.4345 C   0  0  0  0  0  0
  -21.9198   -4.6971   22.3404 C   0  0  0  0  0  0
  -22.7859  -13.5233   21.1844 C   0  0  0  0  0  0
  -22.1662   -4.2155   21.0981 F   0  0  0  0  0  0
  -21.5640   -3.4545   25.7741 F   0  0  0  0  0  0
  -30.0358  -13.2804   20.4460 N   0  0  0  0  0  0
  -26.3013  -12.9332   20.3361 N   0  0  0  0  0  0
  -25.9312  -11.6489   20.5763 N   0  0  0  0  0  0
  -22.0504  -12.8215   22.0400 N   0  0  0  0  0  0
  -25.4300  -15.1877   20.4112 N   0  0  0  0  0  0
  -31.8550  -14.6036   20.1032 O   0  0  0  0  0  0
  -21.6638   -6.8881   21.4241 O   0  0  0  0  0  0
  -22.3546  -14.5553   20.6714 O   0  0  0  0  0  0
  -24.6147  -31.8670   23.2117 C   0  0  0  0  0  0
  -25.9048  -32.4806   23.8398 C   0  0  1  0  0  0
  -27.2211  -27.4293   20.0984 C   0  0  0  0  0  0
  -25.5920  -33.8606   24.2319 N   0  0  0  0  0  0
  -23.4013  -30.4941   21.5524 C   0  0  2  0  0  0
  -24.8456  -28.9678   20.1083 C   0  0  0  0  0  0
  -22.7419  -29.4647   22.4982 C   0  0  0  0  0  0
  -18.0272  -28.1367   22.8451 C   0  0  0  0  0  0
  -24.1509  -36.7310   23.2636 C   0  0  0  0  0  0
  -25.9315  -30.8349   21.3634 C   0  0  0  0  0  0
  -26.0081  -29.4729   20.7038 C   0  0  0  0  0  0
  -27.2014  -28.7134   20.6909 C   0  0  0  0  0  0
  -26.0441  -26.9493   19.4799 C   0  0  0  0  0  0
  -24.8607  -27.7071   19.4894 C   0  0  0  0  0  0
  -23.6082  -29.8344   20.1639 C   0  0  0  0  0  0
  -25.4125  -36.3095   24.0331 C   0  0  1  0  0  0
  -20.5861  -28.3647   23.1314 C   0  0  2  0  0  0
  -20.6775  -26.9386   22.5410 C   0  0  0  0  0  0
  -19.5764  -26.6374   21.5194 C   0  0  0  0  0  0
  -18.1935  -26.7911   22.1593 C   0  0  0  0  0  0
  -19.1519  -28.8825   23.2876 C   0  0  0  0  0  0
  -18.9448  -30.1434   23.8880 C   0  0  0  0  0  0
  -17.6455  -30.6570   24.0552 C   0  0  0  0  0  0
  -25.9050  -34.9459   23.5113 C   0  0  0  0  0  0
  -16.5342  -29.9068   23.6325 C   0  0  0  0  0  0
  -16.7265  -28.6499   23.0317 C   0  0  0  0  0  0
  -26.4476  -31.6588   25.0726 C   0  0  0  0  0  0
  -25.3746  -31.3697   26.1488 C   0  0  0  0  0  0
  -27.0319  -30.3039   24.6091 C   0  0  0  0  0  0
  -27.6048  -32.4315   25.7484 C   0  0  0  0  0  0
  -27.5596  -37.1805   24.8462 C   0  0  0  0  0  0
  -21.4142  -29.3009   22.3728 N   0  0  0  0  0  0
  -26.4307  -37.3784   23.9400 N   0  0  0  0  0  0
  -24.6674  -31.0791   22.1007 N   0  0  0  0  0  0
  -23.4206  -28.8190   23.3015 O   0  0  0  0  0  0
  -28.3622  -26.6519   20.1666 O   0  0  0  0  0  0
  -26.5605  -34.8911   22.4669 O   0  0  0  0  0  0
  -23.5344  -32.1420   23.7525 O   0  0  0  0  0  0
  -29.0249  -19.2156   22.8432 C   0  0  0  0  0  0
  -29.0016  -17.9668   22.2820 C   0  0  0  0  0  0
  -30.4450  -19.2323   21.1274 C   0  0  0  0  0  0
  -29.9606  -20.0284   22.1325 C   0  0  0  0  0  0
  -31.8524  -21.7572   22.1471 C   0  0  0  0  0  0
  -27.5807  -25.2283   21.9944 C   0  0  0  0  0  0
  -29.5261  -24.5173   20.4664 C   0  0  0  0  0  0
  -29.4790  -22.9633   20.6018 C   0  0  0  0  0  0
  -30.2389  -16.8599   20.3334 C   0  0  0  0  0  0
  -30.3754  -21.4546   22.4808 C   0  0  1  0  0  0
  -28.1743  -25.2729   20.5662 C   0  0  2  0  0  0
  -29.9030  -17.9595   21.2333 N   0  0  0  0  0  0
  -29.9669  -15.5219   20.8805 N   0  0  0  0  0  0
  -29.4212  -22.4944   22.0130 N   0  3  0  0  0  0
  -31.4621  -12.3633   19.1328 H   0  0  0  0  0  0
  -30.2986  -11.2780   19.8346 H   0  0  0  0  0  0
  -29.7316  -11.7673   17.4309 H   0  0  0  0  0  0
  -29.6685  -13.4762   17.7746 H   0  0  0  0  0  0
  -27.8163  -11.3081   18.8159 H   0  0  0  0  0  0
  -27.3668  -12.6423   17.7871 H   0  0  0  0  0  0
  -27.7006  -14.2511   19.5655 H   0  0  0  0  0  0
  -28.6685  -11.9742   21.3692 H   0  0  0  0  0  0
  -28.4775  -13.6318   21.8629 H   0  0  0  0  0  0
  -25.2759   -9.5698   22.4744 H   0  0  0  0  0  0
  -24.0017   -7.4645   22.7465 H   0  0  0  0  0  0
  -21.0852   -8.8753   19.8942 H   0  0  0  0  0  0
  -22.3683  -10.9667   19.6167 H   0  0  0  0  0  0
  -21.1986   -7.6147   23.9716 H   0  0  0  0  0  0
  -21.1491   -6.0525   25.9078 H   0  0  0  0  0  0
  -22.0595   -2.7615   23.2838 H   0  0  0  0  0  0
  -22.4132  -11.9871   22.4773 H   0  0  0  0  0  0
  -21.1123  -13.1230   22.2615 H   0  0  0  0  0  0
  -24.6615  -15.8406   20.5188 H   0  0  0  0  0  0
  -26.2798  -15.6292   20.0825 H   0  0  0  0  0  0
  -26.7119  -32.5519   23.1164 H   0  0  0  0  0  0
  -25.0086  -33.9763   25.0478 H   0  0  0  0  0  0
  -22.6880  -31.3096   21.4198 H   0  0  0  0  0  0
  -23.3764  -35.9658   23.3297 H   0  0  0  0  0  0
  -24.3601  -36.8924   22.2053 H   0  0  0  0  0  0
  -23.7285  -37.6519   23.6654 H   0  0  0  0  0  0
  -26.0488  -31.6065   20.6015 H   0  0  0  0  0  0
  -26.8173  -30.8798   21.9847 H   0  0  0  0  0  0
  -28.0961  -29.0927   21.1643 H   0  0  0  0  0  0
  -26.0210  -25.9882   18.9886 H   0  0  0  0  0  0
  -23.9693  -27.3142   19.0197 H   0  0  0  0  0  0
  -23.7175  -30.6157   19.4110 H   0  0  0  0  0  0
  -22.7296  -29.2597   19.8632 H   0  0  0  0  0  0
  -25.1306  -36.1949   25.0827 H   0  0  0  0  0  0
  -20.9923  -28.3212   24.1445 H   0  0  0  0  0  0
  -20.5696  -26.2234   23.3581 H   0  0  0  0  0  0
  -21.6649  -26.7452   22.1192 H   0  0  0  0  0  0
  -19.6939  -25.6291   21.1214 H   0  0  0  0  0  0
  -19.6734  -27.3182   20.6726 H   0  0  0  0  0  0
  -17.4211  -26.6624   21.3995 H   0  0  0  0  0  0
  -18.0354  -26.0068   22.9002 H   0  0  0  0  0  0
  -19.7937  -30.7235   24.2248 H   0  0  0  0  0  0
  -17.5021  -31.6249   24.5150 H   0  0  0  0  0  0
  -15.5345  -30.2961   23.7677 H   0  0  0  0  0  0
  -15.8660  -28.0832   22.7016 H   0  0  0  0  0  0
  -24.5908  -30.7047   25.7846 H   0  0  0  0  0  0
  -24.8945  -32.2854   26.4954 H   0  0  0  0  0  0
  -25.8107  -30.8866   27.0241 H   0  0  0  0  0  0
  -26.2866  -29.6781   24.1169 H   0  0  0  0  0  0
  -27.4136  -29.7289   25.4536 H   0  0  0  0  0  0
  -27.8676  -30.4374   23.9218 H   0  0  0  0  0  0
  -27.2661  -33.3609   26.2080 H   0  0  0  0  0  0
  -28.3847  -32.6877   25.0302 H   0  0  0  0  0  0
  -28.0728  -31.8428   26.5385 H   0  0  0  0  0  0
  -28.2592  -38.0124   24.7513 H   0  0  0  0  0  0
  -28.1101  -36.2641   24.6270 H   0  0  0  0  0  0
  -27.2294  -37.1431   25.8860 H   0  0  0  0  0  0
  -20.9310  -29.8723   21.6937 H   0  0  0  0  0  0
  -26.0188  -38.2859   24.1401 H   0  0  0  0  0  0
  -28.4443  -19.5072   23.7084 H   0  0  0  0  0  0
  -28.4368  -17.0836   22.5511 H   0  0  0  0  0  0
  -31.1734  -19.4472   20.3551 H   0  0  0  0  0  0
  -32.0852  -21.6223   21.0919 H   0  0  0  0  0  0
  -32.5101  -21.0875   22.7015 H   0  0  0  0  0  0
  -32.1239  -22.7760   22.4234 H   0  0  0  0  0  0
  -27.3480  -24.2120   22.3064 H   0  0  0  0  0  0
  -26.6408  -25.7768   22.0689 H   0  0  0  0  0  0
  -28.2636  -25.6631   22.7254 H   0  0  0  0  0  0
  -30.2525  -24.9400   21.1615 H   0  0  0  0  0  0
  -29.9308  -24.7326   19.4761 H   0  0  0  0  0  0
  -30.3541  -22.5526   20.1008 H   0  0  0  0  0  0
  -28.6302  -22.5557   20.0529 H   0  0  0  0  0  0
  -29.6702  -16.9855   19.4109 H   0  0  0  0  0  0
  -31.2904  -16.9781   20.0654 H   0  0  0  0  0  0
  -30.3041  -21.4959   23.5690 H   0  0  0  0  0  0
  -27.4927  -24.7705   19.8801 H   0  0  0  0  0  0
  -29.0348  -15.3407   21.2173 H   0  0  0  0  0  0
  -28.4920  -22.1549   22.2056 H   0  0  0  0  0  0
  -29.5686  -23.2938   22.6061 H   0  0  0  0  0  0
  1 25  1  0  0  0
  1 30  2  0  0  0
  1 83  1  0  0  0
  2  3  1  0  0  0
  2 25  1  0  0  0
  2 85  1  0  0  0
  2 86  1  0  0  0
  3  4  1  0  0  0
  3 87  1  0  0  0
  3 88  1  0  0  0
  4  5  1  0  0  0
  4 89  1  0  0  0
  4 90  1  0  0  0
  5  6  1  0  0  0
  5 26  1  0  0  0
  5 91  1  0  0  0
  6 25  1  0  0  0
  6 92  1  0  0  0
  6 93  1  0  0  0
  7  8  2  0  0  0
  7 26  1  0  0  0
  7 29  1  0  0  0
  8  9  1  0  0  0
  8 22  1  0  0  0
  9 10  1  0  0  0
  9 27  2  0  0  0
 10 11  2  0  0  0
 10 15  1  0  0  0
 11 12  1  0  0  0
 11 94  1  0  0  0
 12 13  2  0  0  0
 12 95  1  0  0  0
 13 14  1  0  0  0
 13 31  1  0  0  0
 14 15  2  0  0  0
 14 96  1  0  0  0
 15 97  1  0  0  0
 16 17  2  0  0  0
 16 21  1  0  0  0
 16 31  1  0  0  0
 17 18  1  0  0  0
 17 98  1  0  0  0
 18 19  2  0  0  0
 18 99  1  0  0  0
 19 20  1  0  0  0
 19 24  1  0  0  0
 20 21  2  0  0  0
 20100  1  0  0  0
 21 23  1  0  0  0
 22 28  1  0  0  0
 22 32  2  0  0  0
 26 27  1  0  0  0
 28101  1  0  0  0
 28102  1  0  0  0
 29103  1  0  0  0
 29104  1  0  0  0
 33 34  1  0  0  0
 33 66  1  0  0  0
 33 70  2  0  0  0
 34 36  1  0  0  0
 34 59  1  0  0  0
 34105  1  0  0  0
 35 44  2  0  0  0
 35 45  1  0  0  0
 35 68  1  0  0  0
 36 56  1  0  0  0
 36106  1  0  0  0
 37 39  1  0  0  0
 37 47  1  0  0  0
 37 66  1  0  0  0
 37107  1  0  0  0
 38 43  2  0  0  0
 38 46  1  0  0  0
 38 47  1  0  0  0
 39 64  1  0  0  0
 39 67  2  0  0  0
 40 52  1  0  0  0
 40 53  2  0  0  0
 40 58  1  0  0  0
 41108  1  0  0  0
 41109  1  0  0  0
 41110  1  0  0  0
 41 48  1  0  0  0
 42 43  1  0  0  0
 42 66  1  0  0  0
 42111  1  0  0  0
 42112  1  0  0  0
 43 44  1  0  0  0
 44113  1  0  0  0
 45 46  2  0  0  0
 45114  1  0  0  0
 46115  1  0  0  0
 47116  1  0  0  0
 47117  1  0  0  0
 48 56  1  0  0  0
 48 65  1  0  0  0
 48118  1  0  0  0
 49 50  1  0  0  0
 49 53  1  0  0  0
 49 64  1  0  0  0
 49119  1  0  0  0
 50 51  1  0  0  0
 50120  1  0  0  0
 50121  1  0  0  0
 51 52  1  0  0  0
 51122  1  0  0  0
 51123  1  0  0  0
 52124  1  0  0  0
 52125  1  0  0  0
 53 54  1  0  0  0
 54 55  2  0  0  0
 54126  1  0  0  0
 55 57  1  0  0  0
 55127  1  0  0  0
 56 69  2  0  0  0
 57 58  2  0  0  0
 57128  1  0  0  0
 58129  1  0  0  0
 59 60  1  0  0  0
 59 61  1  0  0  0
 59 62  1  0  0  0
 60130  1  0  0  0
 60131  1  0  0  0
 60132  1  0  0  0
 61133  1  0  0  0
 61134  1  0  0  0
 61135  1  0  0  0
 62136  1  0  0  0
 62137  1  0  0  0
 62138  1  0  0  0
 63 65  1  0  0  0
 63139  1  0  0  0
 63140  1  0  0  0
 63141  1  0  0  0
 64142  1  0  0  0
 65143  1  0  0  0
 68 81  1  0  0  0
 71 72  2  0  0  0
 71 74  1  0  0  0
 71144  1  0  0  0
 72 82  1  0  0  0
 72145  1  0  0  0
 73 74  2  0  0  0
 73 82  1  0  0  0
 73146  1  0  0  0
 74 80  1  0  0  0
 75147  1  0  0  0
 75148  1  0  0  0
 75149  1  0  0  0
 75 80  1  0  0  0
 76150  1  0  0  0
 76151  1  0  0  0
 76152  1  0  0  0
 76 81  1  0  0  0
 77 78  1  0  0  0
 77 81  1  0  0  0
 77153  1  0  0  0
 77154  1  0  0  0
 78 84  1  0  0  0
 78155  1  0  0  0
 78156  1  0  0  0
 79 82  1  0  0  0
 79 83  1  0  0  0
 79157  1  0  0  0
 79158  1  0  0  0
 80 84  1  0  0  0
 80159  1  0  0  0
 81160  1  0  0  0
 83161  1  0  0  0
 84162  1  0  0  0
 84163  1  0  0  0
M  CHG  1  84   1
M  ISO  4   1 100  68 101  81 101  83 100
M  END
> <chiral flag>
0

> <version>
0

> <s_m_source_file>
/data/baiqing/PycharmProjects/Reinvent-master-3.2/result/LINK_invent/BTK/process_docking_weight1_custom_sum_contain_oxygen_bond_distance_aromatic_linkinvent_7_9_3/rearranged_h_0115.sdf

> <i_m_source_file_index>
41

> <r_mmod_Potential_Energy-OPLS-2005>
-287.341766357422

> <r_mmod_Stretch_Energy-OPLS-2005>
36.6420440673828

> <r_mmod_Bend_Energy-OPLS-2005>
105.057159423828

> <r_mmod_Torsional_Energy-OPLS-2005>
239.477676391602

> <r_mmod_Improper_Torsional_Energy-OPLS-2005>
7.62777423858643

> <r_mmod_Van_der_Waal_Energy-OPLS-2005>
133.780227661133

> <r_mmod_Electrostatic_Energy-OPLS-2005>
-372.345336914062

> <r_mmod_Solvation_Energy-OPLS-2005>
-453.845367431641

> <b_mmod_Minimization_Converged-OPLS-2005>
0

> <r_mmod_RMS_Derivative-OPLS-2005>
1.76695764064789

$$$$
41
                    3D
 Structure written by MMmdl.
160168  0  0  1  0            999 V2000
  -30.5385  -14.9800   20.4176 C   0  0  0  0  0  0
  -30.4346  -12.6086   19.5080 C   0  0  0  0  0  0
  -29.5233  -12.5345   18.2616 C   0  0  0  0  0  0
  -28.0591  -12.3078   18.6810 C   0  0  0  0  0  0
  -27.6277  -13.2461   19.8393 C   0  0  2  0  0  0
  -28.6666  -13.2996   20.9794 C   0  0  0  0  0  0
  -25.2479  -13.8142   20.5761 C   0  0  0  0  0  0
  -24.1783  -13.0394   20.9250 C   0  0  0  0  0  0
  -24.6397  -11.6888   20.8757 C   0  0  0  0  0  0
  -23.9071  -10.4275   21.0412 C   0  0  0  0  0  0
  -24.3617   -9.4203   21.9202 C   0  0  0  0  0  0
  -23.6287   -8.2239   22.0770 C   0  0  0  0  0  0
  -22.4274   -8.0273   21.3556 C   0  0  0  0  0  0
  -21.9904   -9.0253   20.4664 C   0  0  0  0  0  0
  -22.7233  -10.2128   20.3068 C   0  0  0  0  0  0
  -21.6861   -6.0729   22.5278 C   0  0  0  0  0  0
  -21.4021   -6.5639   23.8212 C   0  0  0  0  0  0
  -21.3657   -5.6791   24.9173 C   0  0  0  0  0  0
  -21.6038   -4.3051   24.7228 C   0  0  0  0  0  0
  -21.8818   -3.8146   23.4350 C   0  0  0  0  0  0
  -21.9196   -4.6956   22.3403 C   0  0  0  0  0  0
  -22.7815  -13.5197   21.1877 C   0  0  0  0  0  0
  -22.1661   -4.2135   21.0981 F   0  0  0  0  0  0
  -21.5621   -3.4543   25.7746 F   0  0  0  0  0  0
  -29.9367  -13.7197   20.3757 N   0  0  0  0  0  0
  -26.2887  -12.9393   20.3251 N   0  0  0  0  0  0
  -25.9323  -11.6522   20.5730 N   0  0  0  0  0  0
  -22.0434  -12.8217   22.0428 N   0  0  0  0  0  0
  -25.4142  -15.1856   20.4222 N   0  0  0  0  0  0
  -31.7442  -15.0185   20.1500 O   0  0  0  0  0  0
  -21.6643   -6.8869   21.4242 O   0  0  0  0  0  0
  -22.3533  -14.5511   20.6707 O   0  0  0  0  0  0
  -24.6474  -31.8405   23.1848 C   0  0  0  0  0  0
  -25.9232  -32.4673   23.8238 C   0  0  1  0  0  0
  -27.2130  -27.0969   20.1582 C   0  0  0  0  0  0
  -25.5972  -33.8478   24.2152 N   0  0  0  0  0  0
  -23.4504  -30.4602   21.5326 C   0  0  2  0  0  0
  -24.8996  -28.8773   20.1101 C   0  0  0  0  0  0
  -22.7571  -29.4541   22.4850 C   0  0  0  0  0  0
  -18.0314  -28.1395   22.8464 C   0  0  0  0  0  0
  -24.1496  -36.7246   23.2640 C   0  0  0  0  0  0
  -26.0090  -30.7007   21.3882 C   0  0  0  0  0  0
  -26.0794  -29.3088   20.7289 C   0  0  0  0  0  0
  -27.2367  -28.4363   20.7331 C   0  0  0  0  0  0
  -26.0049  -26.7734   19.5020 C   0  0  0  0  0  0
  -24.8772  -27.6246   19.4800 C   0  0  0  0  0  0
  -23.6782  -29.7871   20.1531 C   0  0  0  0  0  0
  -25.4133  -36.3012   24.0301 C   0  0  1  0  0  0
  -20.5923  -28.3718   23.1226 C   0  0  2  0  0  0
  -20.6797  -26.9427   22.5384 C   0  0  0  0  0  0
  -19.5772  -26.6400   21.5188 C   0  0  0  0  0  0
  -18.1955  -26.7939   22.1598 C   0  0  0  0  0  0
  -19.1566  -28.8877   23.2838 C   0  0  0  0  0  0
  -18.9481  -30.1474   23.8863 C   0  0  0  0  0  0
  -17.6476  -30.6584   24.0555 C   0  0  0  0  0  0
  -25.9089  -34.9391   23.5037 C   0  0  0  0  0  0
  -16.5370  -29.9078   23.6326 C   0  0  0  0  0  0
  -16.7297  -28.6501   23.0340 C   0  0  0  0  0  0
  -26.4543  -31.6549   25.0690 C   0  0  0  0  0  0
  -25.3708  -31.3761   26.1373 C   0  0  0  0  0  0
  -27.0408  -30.2930   24.6310 C   0  0  0  0  0  0
  -27.6061  -32.4331   25.7490 C   0  0  0  0  0  0
  -27.5576  -37.1785   24.8466 C   0  0  0  0  0  0
  -21.4264  -29.3052   22.3603 N   0  0  0  0  0  0
  -26.4293  -37.3732   23.9397 N   0  0  0  0  0  0
  -24.7222  -31.0222   22.0904 N   0  0  0  0  0  0
  -23.4212  -28.8095   23.3015 O   0  0  0  0  0  0
  -28.2652  -26.0987   20.2206 O   0  0  0  0  0  0
  -26.5677  -34.8907   22.4618 O   0  0  0  0  0  0
  -23.5589  -32.1308   23.7048 O   0  0  0  0  0  0
  -29.9571  -20.5128   20.3378 C   0  0  0  0  0  0
  -27.8318  -20.8525   20.5109 C   0  0  0  0  0  0
  -28.9635  -21.6240   20.3675 C   0  0  0  0  0  0
  -29.4705  -19.1779   20.4375 C   0  0  0  0  0  0
  -26.1802  -18.4398   19.4233 C   0  0  0  0  0  0
  -26.2012  -18.6879   21.9619 C   0  0  0  0  0  0
  -30.2665  -17.7068   20.3862 C   0  0  0  0  0  0
  -27.9998  -24.5419   20.1968 C   0  0  0  0  0  0
  -29.1618  -23.2974   20.2693 C   0  0  2  0  0  0
  -27.0421  -18.4562   20.6948 C   0  0  0  0  0  0
  -28.0985  -19.4517   20.5644 N   0  0  0  0  0  0
  -29.7907  -16.1954   20.5478 N   0  0  0  0  0  0
  -30.0802  -23.5218   19.1414 N   0  3  0  0  0  0
  -31.4712  -12.7568   19.1997 H   0  0  0  0  0  0
  -30.4257  -11.6615   20.0520 H   0  0  0  0  0  0
  -29.8535  -11.7342   17.5981 H   0  0  0  0  0  0
  -29.6062  -13.4624   17.6929 H   0  0  0  0  0  0
  -27.9709  -11.2675   18.9967 H   0  0  0  0  0  0
  -27.3929  -12.4250   17.8246 H   0  0  0  0  0  0
  -27.5853  -14.2435   19.4016 H   0  0  0  0  0  0
  -28.7669  -12.3310   21.4720 H   0  0  0  0  0  0
  -28.3556  -14.0094   21.7477 H   0  0  0  0  0  0
  -25.2753   -9.5681   22.4794 H   0  0  0  0  0  0
  -23.9998   -7.4629   22.7481 H   0  0  0  0  0  0
  -21.0843   -8.8772   19.8969 H   0  0  0  0  0  0
  -22.3693  -10.9680   19.6190 H   0  0  0  0  0  0
  -21.2019   -7.6149   23.9707 H   0  0  0  0  0  0
  -21.1480   -6.0527   25.9072 H   0  0  0  0  0  0
  -22.0602   -2.7608   23.2857 H   0  0  0  0  0  0
  -22.4032  -11.9898   22.4861 H   0  0  0  0  0  0
  -21.1037  -13.1266   22.2565 H   0  0  0  0  0  0
  -24.6338  -15.8228   20.5296 H   0  0  0  0  0  0
  -26.2340  -15.6202   20.0258 H   0  0  0  0  0  0
  -26.7295  -32.5271   23.0961 H   0  0  0  0  0  0
  -25.0069  -33.9584   25.0268 H   0  0  0  0  0  0
  -22.7532  -31.2871   21.3770 H   0  0  0  0  0  0
  -23.3761  -35.9579   23.3291 H   0  0  0  0  0  0
  -24.3568  -36.8893   22.2059 H   0  0  0  0  0  0
  -23.7264  -37.6439   23.6689 H   0  0  0  0  0  0
  -26.1691  -31.4530   20.6154 H   0  0  0  0  0  0
  -26.8774  -30.7501   22.0332 H   0  0  0  0  0  0
  -28.1356  -28.7644   21.2357 H   0  0  0  0  0  0
  -25.8909  -25.8202   19.0092 H   0  0  0  0  0  0
  -23.9759  -27.2884   18.9844 H   0  0  0  0  0  0
  -23.8176  -30.5609   19.3975 H   0  0  0  0  0  0
  -22.7905  -29.2342   19.8415 H   0  0  0  0  0  0
  -25.1331  -36.1819   25.0793 H   0  0  0  0  0  0
  -21.0016  -28.3302   24.1345 H   0  0  0  0  0  0
  -20.5668  -26.2325   23.3593 H   0  0  0  0  0  0
  -21.6672  -26.7428   22.1203 H   0  0  0  0  0  0
  -19.6932  -25.6316   21.1223 H   0  0  0  0  0  0
  -19.6707  -27.3198   20.6714 H   0  0  0  0  0  0
  -17.4226  -26.6699   21.3998 H   0  0  0  0  0  0
  -18.0355  -26.0074   22.8990 H   0  0  0  0  0  0
  -19.7953  -30.7307   24.2220 H   0  0  0  0  0  0
  -17.5024  -31.6248   24.5191 H   0  0  0  0  0  0
  -15.5367  -30.2963   23.7680 H   0  0  0  0  0  0
  -15.8702  -28.0812   22.7061 H   0  0  0  0  0  0
  -24.5897  -30.7102   25.7686 H   0  0  0  0  0  0
  -24.8901  -32.2957   26.4718 H   0  0  0  0  0  0
  -25.7983  -30.8980   27.0192 H   0  0  0  0  0  0
  -26.3029  -29.6647   24.1312 H   0  0  0  0  0  0
  -27.3981  -29.7248   25.4907 H   0  0  0  0  0  0
  -27.8952  -30.4139   23.9650 H   0  0  0  0  0  0
  -27.2629  -33.3648   26.2003 H   0  0  0  0  0  0
  -28.3910  -32.6872   25.0349 H   0  0  0  0  0  0
  -28.0676  -31.8492   26.5463 H   0  0  0  0  0  0
  -28.2594  -38.0082   24.7499 H   0  0  0  0  0  0
  -28.1076  -36.2613   24.6314 H   0  0  0  0  0  0
  -27.2283  -37.1444   25.8865 H   0  0  0  0  0  0
  -20.9460  -29.8760   21.6791 H   0  0  0  0  0  0
  -26.0147  -38.2794   24.1400 H   0  0  0  0  0  0
  -31.0206  -20.6829   20.2347 H   0  0  0  0  0  0
  -26.8045  -21.1849   20.5891 H   0  0  0  0  0  0
  -25.3434  -17.7498   19.5133 H   0  0  0  0  0  0
  -26.7713  -18.1348   18.5594 H   0  0  0  0  0  0
  -25.7604  -19.4218   19.2066 H   0  0  0  0  0  0
  -25.4976  -17.8691   22.1156 H   0  0  0  0  0  0
  -25.6228  -19.6106   21.9069 H   0  0  0  0  0  0
  -26.8343  -18.7429   22.8486 H   0  0  0  0  0  0
  -31.0860  -17.7910   21.1010 H   0  0  0  0  0  0
  -30.7818  -17.6997   19.4256 H   0  0  0  0  0  0
  -27.3066  -24.3620   21.0193 H   0  0  0  0  0  0
  -27.4250  -24.3376   19.2935 H   0  0  0  0  0  0
  -29.7367  -23.5237   21.1666 H   0  0  0  0  0  0
  -27.5046  -17.4779   20.8031 H   0  0  0  0  0  0
  -28.8098  -16.0657   20.7347 H   0  0  0  0  0  0
  -29.6364  -23.2835   18.2721 H   0  0  0  0  0  0
  -30.9038  -22.9581   19.2400 H   0  0  0  0  0  0
  -30.3579  -24.4870   19.1065 H   0  0  0  0  0  0
  1 25  1  0  0  0
  1 30  2  0  0  0
  1 82  1  0  0  0
  2  3  1  0  0  0
  2 25  1  0  0  0
  2 84  1  0  0  0
  2 85  1  0  0  0
  3  4  1  0  0  0
  3 86  1  0  0  0
  3 87  1  0  0  0
  4  5  1  0  0  0
  4 88  1  0  0  0
  4 89  1  0  0  0
  5  6  1  0  0  0
  5 26  1  0  0  0
  5 90  1  0  0  0
  6 25  1  0  0  0
  6 91  1  0  0  0
  6 92  1  0  0  0
  7  8  2  0  0  0
  7 26  1  0  0  0
  7 29  1  0  0  0
  8  9  1  0  0  0
  8 22  1  0  0  0
  9 10  1  0  0  0
  9 27  2  0  0  0
 10 11  2  0  0  0
 10 15  1  0  0  0
 11 12  1  0  0  0
 11 93  1  0  0  0
 12 13  2  0  0  0
 12 94  1  0  0  0
 13 14  1  0  0  0
 13 31  1  0  0  0
 14 15  2  0  0  0
 14 95  1  0  0  0
 15 96  1  0  0  0
 16 17  2  0  0  0
 16 21  1  0  0  0
 16 31  1  0  0  0
 17 18  1  0  0  0
 17 97  1  0  0  0
 18 19  2  0  0  0
 18 98  1  0  0  0
 19 20  1  0  0  0
 19 24  1  0  0  0
 20 21  2  0  0  0
 20 99  1  0  0  0
 21 23  1  0  0  0
 22 28  1  0  0  0
 22 32  2  0  0  0
 26 27  1  0  0  0
 28100  1  0  0  0
 28101  1  0  0  0
 29102  1  0  0  0
 29103  1  0  0  0
 33 34  1  0  0  0
 33 66  1  0  0  0
 33 70  2  0  0  0
 34 36  1  0  0  0
 34 59  1  0  0  0
 34104  1  0  0  0
 35 44  2  0  0  0
 35 45  1  0  0  0
 35 68  1  0  0  0
 36 56  1  0  0  0
 36105  1  0  0  0
 37 39  1  0  0  0
 37 47  1  0  0  0
 37 66  1  0  0  0
 37106  1  0  0  0
 38 43  2  0  0  0
 38 46  1  0  0  0
 38 47  1  0  0  0
 39 64  1  0  0  0
 39 67  2  0  0  0
 40 52  1  0  0  0
 40 53  2  0  0  0
 40 58  1  0  0  0
 41107  1  0  0  0
 41108  1  0  0  0
 41109  1  0  0  0
 41 48  1  0  0  0
 42 43  1  0  0  0
 42 66  1  0  0  0
 42110  1  0  0  0
 42111  1  0  0  0
 43 44  1  0  0  0
 44112  1  0  0  0
 45 46  2  0  0  0
 45113  1  0  0  0
 46114  1  0  0  0
 47115  1  0  0  0
 47116  1  0  0  0
 48 56  1  0  0  0
 48 65  1  0  0  0
 48117  1  0  0  0
 49 50  1  0  0  0
 49 53  1  0  0  0
 49 64  1  0  0  0
 49118  1  0  0  0
 50 51  1  0  0  0
 50119  1  0  0  0
 50120  1  0  0  0
 51 52  1  0  0  0
 51121  1  0  0  0
 51122  1  0  0  0
 52123  1  0  0  0
 52124  1  0  0  0
 53 54  1  0  0  0
 54 55  2  0  0  0
 54125  1  0  0  0
 55 57  1  0  0  0
 55126  1  0  0  0
 56 69  2  0  0  0
 57 58  2  0  0  0
 57127  1  0  0  0
 58128  1  0  0  0
 59 60  1  0  0  0
 59 61  1  0  0  0
 59 62  1  0  0  0
 60129  1  0  0  0
 60130  1  0  0  0
 60131  1  0  0  0
 61132  1  0  0  0
 61133  1  0  0  0
 61134  1  0  0  0
 62135  1  0  0  0
 62136  1  0  0  0
 62137  1  0  0  0
 63 65  1  0  0  0
 63138  1  0  0  0
 63139  1  0  0  0
 63140  1  0  0  0
 64141  1  0  0  0
 65142  1  0  0  0
 68 78  1  0  0  0
 71 73  1  0  0  0
 71 74  2  0  0  0
 71143  1  0  0  0
 72 73  2  0  0  0
 72 81  1  0  0  0
 72144  1  0  0  0
 73 79  1  0  0  0
 74 77  1  0  0  0
 74 81  1  0  0  0
 75145  1  0  0  0
 75146  1  0  0  0
 75147  1  0  0  0
 75 80  1  0  0  0
 76 80  1  0  0  0
 76148  1  0  0  0
 76149  1  0  0  0
 76150  1  0  0  0
 77 82  1  0  0  0
 77151  1  0  0  0
 77152  1  0  0  0
 78 79  1  0  0  0
 78153  1  0  0  0
 78154  1  0  0  0
 79 83  1  0  0  0
 79155  1  0  0  0
 80 81  1  0  0  0
 80156  1  0  0  0
 82157  1  0  0  0
 83158  1  0  0  0
 83159  1  0  0  0
 83160  1  0  0  0
M  CHG  1  83   1
M  ISO  4   1 100  68 101  78 101  82 100
M  END
> <chiral flag>
0

> <version>
0

> <s_m_source_file>
/data/baiqing/PycharmProjects/Reinvent-master-3.2/result/LINK_invent/BTK/process_docking_weight1_custom_sum_contain_oxygen_bond_distance_aromatic_linkinvent_7_9_3/rearranged_h_0115.sdf

> <i_m_source_file_index>
42

> <r_mmod_Potential_Energy-OPLS-2005>
266.163604736328

> <r_mmod_Stretch_Energy-OPLS-2005>
294.463928222656

> <r_mmod_Bend_Energy-OPLS-2005>
292.384613037109

> <r_mmod_Torsional_Energy-OPLS-2005>
232.323669433594

> <r_mmod_Improper_Torsional_Energy-OPLS-2005>
4.60924482345581

> <r_mmod_Van_der_Waal_Energy-OPLS-2005>
103.847312927246

> <r_mmod_Electrostatic_Energy-OPLS-2005>
-412.708129882812

> <r_mmod_Solvation_Energy-OPLS-2005>
-468.125915527344

> <b_mmod_Minimization_Converged-OPLS-2005>
0

> <r_mmod_RMS_Derivative-OPLS-2005>
2.07163667678833

$$$$
42
                    3D
 Structure written by MMmdl.
168176  0  0  1  0            999 V2000
  -30.6329  -14.6075   20.5040 C   0  0  0  0  0  0
  -30.4316  -12.3714   19.4512 C   0  0  0  0  0  0
  -29.5054  -12.5026   18.2223 C   0  0  0  0  0  0
  -28.0261  -12.3500   18.6311 C   0  0  0  0  0  0
  -27.6530  -13.2152   19.8644 C   0  0  2  0  0  0
  -28.6957  -13.0614   20.9945 C   0  0  0  0  0  0
  -25.2559  -13.8169   20.5683 C   0  0  0  0  0  0
  -24.1829  -13.0438   20.9196 C   0  0  0  0  0  0
  -24.6389  -11.6909   20.8742 C   0  0  0  0  0  0
  -23.9057  -10.4293   21.0408 C   0  0  0  0  0  0
  -24.3611   -9.4210   21.9185 C   0  0  0  0  0  0
  -23.6291   -8.2244   22.0754 C   0  0  0  0  0  0
  -22.4272   -8.0279   21.3544 C   0  0  0  0  0  0
  -21.9906   -9.0254   20.4646 C   0  0  0  0  0  0
  -22.7231  -10.2136   20.3056 C   0  0  0  0  0  0
  -21.6853   -6.0735   22.5280 C   0  0  0  0  0  0
  -21.4012   -6.5639   23.8214 C   0  0  0  0  0  0
  -21.3660   -5.6790   24.9176 C   0  0  0  0  0  0
  -21.6043   -4.3052   24.7224 C   0  0  0  0  0  0
  -21.8821   -3.8145   23.4345 C   0  0  0  0  0  0
  -21.9192   -4.6964   22.3400 C   0  0  0  0  0  0
  -22.7851  -13.5238   21.1854 C   0  0  0  0  0  0
  -22.1663   -4.2150   21.0978 F   0  0  0  0  0  0
  -21.5628   -3.4534   25.7737 F   0  0  0  0  0  0
  -30.0131  -13.3908   20.4321 N   0  0  0  0  0  0
  -26.2982  -12.9347   20.3318 N   0  0  0  0  0  0
  -25.9317  -11.6503   20.5758 N   0  0  0  0  0  0
  -22.0484  -12.8237   22.0405 N   0  0  0  0  0  0
  -25.4267  -15.1888   20.4076 N   0  0  0  0  0  0
  -31.7942  -14.7667   20.1184 O   0  0  0  0  0  0
  -21.6636   -6.8878   21.4241 O   0  0  0  0  0  0
  -22.3545  -14.5544   20.6695 O   0  0  0  0  0  0
  -24.6230  -31.8611   23.2027 C   0  0  0  0  0  0
  -25.9092  -32.4780   23.8348 C   0  0  1  0  0  0
  -27.2312  -27.3462   20.1106 C   0  0  0  0  0  0
  -25.5919  -33.8580   24.2286 N   0  0  0  0  0  0
  -23.4144  -30.4837   21.5447 C   0  0  2  0  0  0
  -24.8594  -28.9347   20.1147 C   0  0  0  0  0  0
  -22.7451  -29.4634   22.4950 C   0  0  0  0  0  0
  -18.0284  -28.1378   22.8494 C   0  0  0  0  0  0
  -24.1491  -36.7294   23.2643 C   0  0  0  0  0  0
  -25.9514  -30.8002   21.3670 C   0  0  0  0  0  0
  -26.0249  -29.4278   20.7125 C   0  0  0  0  0  0
  -27.2102  -28.6443   20.7000 C   0  0  0  0  0  0
  -26.0370  -26.8842   19.5105 C   0  0  0  0  0  0
  -24.8655  -27.6674   19.5096 C   0  0  0  0  0  0
  -23.6266  -29.8131   20.1610 C   0  0  0  0  0  0
  -25.4116  -36.3086   24.0335 C   0  0  1  0  0  0
  -20.5880  -28.3679   23.1299 C   0  0  2  0  0  0
  -20.6775  -26.9405   22.5418 C   0  0  0  0  0  0
  -19.5751  -26.6385   21.5216 C   0  0  0  0  0  0
  -18.1928  -26.7929   22.1621 C   0  0  0  0  0  0
  -19.1535  -28.8846   23.2893 C   0  0  0  0  0  0
  -18.9460  -30.1452   23.8902 C   0  0  0  0  0  0
  -17.6460  -30.6585   24.0564 C   0  0  0  0  0  0
  -25.9047  -34.9453   23.5111 C   0  0  0  0  0  0
  -16.5350  -29.9083   23.6329 C   0  0  0  0  0  0
  -16.7271  -28.6498   23.0354 C   0  0  0  0  0  0
  -26.4494  -31.6574   25.0703 C   0  0  0  0  0  0
  -25.3743  -31.3700   26.1439 C   0  0  0  0  0  0
  -27.0337  -30.3004   24.6126 C   0  0  0  0  0  0
  -27.6063  -32.4302   25.7467 C   0  0  0  0  0  0
  -27.5582  -37.1805   24.8467 C   0  0  0  0  0  0
  -21.4168  -29.3036   22.3696 N   0  0  0  0  0  0
  -26.4295  -37.3773   23.9407 N   0  0  0  0  0  0
  -24.6817  -31.0649   22.0954 N   0  0  0  0  0  0
  -23.4193  -28.8179   23.3017 O   0  0  0  0  0  0
  -28.4014  -26.5838   20.1488 O   0  0  0  0  0  0
  -26.5611  -34.8917   22.4674 O   0  0  0  0  0  0
  -23.5404  -32.1394   23.7381 O   0  0  0  0  0  0
  -29.0741  -17.8421   19.6869 C   0  0  0  0  0  0
  -30.0110  -17.9410   21.9641 C   0  0  0  0  0  0
  -29.2650  -19.3977   19.5432 C   0  0  0  0  0  0
  -30.2192  -19.4828   21.7857 C   0  0  0  0  0  0
  -30.0937  -17.1463   20.6372 C   0  0  1  0  0  0
  -26.9541  -21.9078   21.4205 C   0  0  0  0  0  0
  -28.2967  -25.2665   23.1514 C   0  0  0  0  0  0
  -29.4197  -21.6524   20.7530 C   0  0  0  0  0  0
  -28.4582  -25.1612   19.7728 C   0  0  0  0  0  0
  -28.1019  -22.5415   20.6002 C   0  0  2  0  0  0
  -28.1429  -24.1244   20.9239 C   0  0  1  0  0  0
  -29.8354  -15.6740   20.8148 N   0  0  0  0  0  0
  -29.2499  -20.1354   20.8455 N   0  3  1  0  0  0
  -28.9624  -24.4303   22.1284 N   0  3  0  0  0  0
  -31.4747  -12.4874   19.1524 H   0  0  0  0  0  0
  -30.3556  -11.3741   19.8871 H   0  0  0  0  0  0
  -29.7650  -11.7534   17.4731 H   0  0  0  0  0  0
  -29.6567  -13.4738   17.7486 H   0  0  0  0  0  0
  -27.8528  -11.2965   18.8536 H   0  0  0  0  0  0
  -27.3755  -12.5930   17.7902 H   0  0  0  0  0  0
  -27.6748  -14.2521   19.5287 H   0  0  0  0  0  0
  -28.6990  -12.0399   21.3774 H   0  0  0  0  0  0
  -28.4492  -13.6979   21.8455 H   0  0  0  0  0  0
  -25.2757   -9.5686   22.4761 H   0  0  0  0  0  0
  -24.0000   -7.4632   22.7472 H   0  0  0  0  0  0
  -21.0836   -8.8770   19.8954 H   0  0  0  0  0  0
  -22.3687  -10.9673   19.6164 H   0  0  0  0  0  0
  -21.2004   -7.6148   23.9718 H   0  0  0  0  0  0
  -21.1481   -6.0519   25.9080 H   0  0  0  0  0  0
  -22.0599   -2.7608   23.2841 H   0  0  0  0  0  0
  -22.4088  -11.9894   22.4795 H   0  0  0  0  0  0
  -21.1098  -13.1270   22.2598 H   0  0  0  0  0  0
  -24.6533  -15.8377   20.5036 H   0  0  0  0  0  0
  -26.2643  -15.6230   20.0429 H   0  0  0  0  0  0
  -26.7159  -32.5455   23.1099 H   0  0  0  0  0  0
  -25.0090  -33.9728   25.0447 H   0  0  0  0  0  0
  -22.7069  -31.3032   21.4016 H   0  0  0  0  0  0
  -23.3750  -35.9629   23.3307 H   0  0  0  0  0  0
  -24.3585  -36.8904   22.2055 H   0  0  0  0  0  0
  -23.7244  -37.6500   23.6657 H   0  0  0  0  0  0
  -26.0777  -31.5633   20.5980 H   0  0  0  0  0  0
  -26.8344  -30.8504   21.9925 H   0  0  0  0  0  0
  -28.1089  -29.0248   21.1663 H   0  0  0  0  0  0
  -25.9728  -25.9134   19.0444 H   0  0  0  0  0  0
  -23.9672  -27.2811   19.0471 H   0  0  0  0  0  0
  -23.7436  -30.5868   19.4013 H   0  0  0  0  0  0
  -22.7471  -29.2404   19.8615 H   0  0  0  0  0  0
  -25.1294  -36.1942   25.0829 H   0  0  0  0  0  0
  -20.9980  -28.3250   24.1414 H   0  0  0  0  0  0
  -20.5678  -26.2283   23.3611 H   0  0  0  0  0  0
  -21.6647  -26.7438   22.1211 H   0  0  0  0  0  0
  -19.6907  -25.6298   21.1237 H   0  0  0  0  0  0
  -19.6693  -27.3204   20.6752 H   0  0  0  0  0  0
  -17.4208  -26.6694   21.4012 H   0  0  0  0  0  0
  -18.0313  -26.0060   22.9002 H   0  0  0  0  0  0
  -19.7933  -30.7271   24.2268 H   0  0  0  0  0  0
  -17.5011  -31.6263   24.5166 H   0  0  0  0  0  0
  -15.5351  -30.2986   23.7649 H   0  0  0  0  0  0
  -15.8671  -28.0818   22.7066 H   0  0  0  0  0  0
  -24.5932  -30.7024   25.7779 H   0  0  0  0  0  0
  -24.8920  -32.2860   26.4858 H   0  0  0  0  0  0
  -25.8090  -30.8895   27.0213 H   0  0  0  0  0  0
  -26.2895  -29.6740   24.1193 H   0  0  0  0  0  0
  -27.4100  -29.7266   25.4606 H   0  0  0  0  0  0
  -27.8732  -30.4302   23.9294 H   0  0  0  0  0  0
  -27.2683  -33.3607   26.2040 H   0  0  0  0  0  0
  -28.3875  -32.6846   25.0290 H   0  0  0  0  0  0
  -28.0727  -31.8422   26.5383 H   0  0  0  0  0  0
  -28.2609  -38.0093   24.7508 H   0  0  0  0  0  0
  -28.1069  -36.2627   24.6303 H   0  0  0  0  0  0
  -27.2303  -37.1464   25.8870 H   0  0  0  0  0  0
  -20.9339  -29.8747   21.6903 H   0  0  0  0  0  0
  -26.0179  -38.2852   24.1396 H   0  0  0  0  0  0
  -29.1360  -17.3878   18.6973 H   0  0  0  0  0  0
  -28.0598  -17.6457   20.0374 H   0  0  0  0  0  0
  -29.0454  -17.7643   22.4403 H   0  0  0  0  0  0
  -30.7594  -17.5615   22.6607 H   0  0  0  0  0  0
  -28.4831  -19.8018   18.8991 H   0  0  0  0  0  0
  -30.2105  -19.5951   19.0353 H   0  0  0  0  0  0
  -31.2349  -19.6701   21.4331 H   0  0  0  0  0  0
  -30.1449  -19.9566   22.7655 H   0  0  0  0  0  0
  -31.0948  -17.2765   20.2206 H   0  0  0  0  0  0
  -26.7482  -20.8802   21.1207 H   0  0  0  0  0  0
  -26.0162  -22.4464   21.2776 H   0  0  0  0  0  0
  -27.1696  -21.9097   22.4900 H   0  0  0  0  0  0
  -28.9739  -25.4495   23.9863 H   0  0  0  0  0  0
  -27.4102  -24.7697   23.5471 H   0  0  0  0  0  0
  -27.9966  -26.2337   22.7492 H   0  0  0  0  0  0
  -29.9144  -21.9672   21.6711 H   0  0  0  0  0  0
  -30.1295  -21.8941   19.9602 H   0  0  0  0  0  0
  -27.8466  -24.9578   18.8954 H   0  0  0  0  0  0
  -29.4770  -24.9791   19.4302 H   0  0  0  0  0  0
  -27.7917  -22.4517   19.5578 H   0  0  0  0  0  0
  -27.1155  -24.3871   21.1805 H   0  0  0  0  0  0
  -28.9062  -15.4205   21.1157 H   0  0  0  0  0  0
  -28.3359  -19.9971   21.2524 H   0  0  0  0  0  0
  -29.2391  -23.5811   22.5915 H   0  0  0  0  0  0
  -29.8052  -24.9071   21.8434 H   0  0  0  0  0  0
  1 25  1  0  0  0
  1 30  2  0  0  0
  1 82  1  0  0  0
  2  3  1  0  0  0
  2 25  1  0  0  0
  2 85  1  0  0  0
  2 86  1  0  0  0
  3  4  1  0  0  0
  3 87  1  0  0  0
  3 88  1  0  0  0
  4  5  1  0  0  0
  4 89  1  0  0  0
  4 90  1  0  0  0
  5  6  1  0  0  0
  5 26  1  0  0  0
  5 91  1  0  0  0
  6 25  1  0  0  0
  6 92  1  0  0  0
  6 93  1  0  0  0
  7  8  2  0  0  0
  7 26  1  0  0  0
  7 29  1  0  0  0
  8  9  1  0  0  0
  8 22  1  0  0  0
  9 10  1  0  0  0
  9 27  2  0  0  0
 10 11  2  0  0  0
 10 15  1  0  0  0
 11 12  1  0  0  0
 11 94  1  0  0  0
 12 13  2  0  0  0
 12 95  1  0  0  0
 13 14  1  0  0  0
 13 31  1  0  0  0
 14 15  2  0  0  0
 14 96  1  0  0  0
 15 97  1  0  0  0
 16 17  2  0  0  0
 16 21  1  0  0  0
 16 31  1  0  0  0
 17 18  1  0  0  0
 17 98  1  0  0  0
 18 19  2  0  0  0
 18 99  1  0  0  0
 19 20  1  0  0  0
 19 24  1  0  0  0
 20 21  2  0  0  0
 20100  1  0  0  0
 21 23  1  0  0  0
 22 28  1  0  0  0
 22 32  2  0  0  0
 26 27  1  0  0  0
 28101  1  0  0  0
 28102  1  0  0  0
 29103  1  0  0  0
 29104  1  0  0  0
 33 34  1  0  0  0
 33 66  1  0  0  0
 33 70  2  0  0  0
 34 36  1  0  0  0
 34 59  1  0  0  0
 34105  1  0  0  0
 35 44  2  0  0  0
 35 45  1  0  0  0
 35 68  1  0  0  0
 36 56  1  0  0  0
 36106  1  0  0  0
 37 39  1  0  0  0
 37 47  1  0  0  0
 37 66  1  0  0  0
 37107  1  0  0  0
 38 43  2  0  0  0
 38 46  1  0  0  0
 38 47  1  0  0  0
 39 64  1  0  0  0
 39 67  2  0  0  0
 40 52  1  0  0  0
 40 53  2  0  0  0
 40 58  1  0  0  0
 41108  1  0  0  0
 41109  1  0  0  0
 41110  1  0  0  0
 41 48  1  0  0  0
 42 43  1  0  0  0
 42 66  1  0  0  0
 42111  1  0  0  0
 42112  1  0  0  0
 43 44  1  0  0  0
 44113  1  0  0  0
 45 46  2  0  0  0
 45114  1  0  0  0
 46115  1  0  0  0
 47116  1  0  0  0
 47117  1  0  0  0
 48 56  1  0  0  0
 48 65  1  0  0  0
 48118  1  0  0  0
 49 50  1  0  0  0
 49 53  1  0  0  0
 49 64  1  0  0  0
 49119  1  0  0  0
 50 51  1  0  0  0
 50120  1  0  0  0
 50121  1  0  0  0
 51 52  1  0  0  0
 51122  1  0  0  0
 51123  1  0  0  0
 52124  1  0  0  0
 52125  1  0  0  0
 53 54  1  0  0  0
 54 55  2  0  0  0
 54126  1  0  0  0
 55 57  1  0  0  0
 55127  1  0  0  0
 56 69  2  0  0  0
 57 58  2  0  0  0
 57128  1  0  0  0
 58129  1  0  0  0
 59 60  1  0  0  0
 59 61  1  0  0  0
 59 62  1  0  0  0
 60130  1  0  0  0
 60131  1  0  0  0
 60132  1  0  0  0
 61133  1  0  0  0
 61134  1  0  0  0
 61135  1  0  0  0
 62136  1  0  0  0
 62137  1  0  0  0
 62138  1  0  0  0
 63 65  1  0  0  0
 63139  1  0  0  0
 63140  1  0  0  0
 63141  1  0  0  0
 64142  1  0  0  0
 65143  1  0  0  0
 68 79  1  0  0  0
 71 73  1  0  0  0
 71 75  1  0  0  0
 71144  1  0  0  0
 71145  1  0  0  0
 72 74  1  0  0  0
 72 75  1  0  0  0
 72146  1  0  0  0
 72147  1  0  0  0
 73 83  1  0  0  0
 73148  1  0  0  0
 73149  1  0  0  0
 74 83  1  0  0  0
 74150  1  0  0  0
 74151  1  0  0  0
 75 82  1  0  0  0
 75152  1  0  0  0
 76153  1  0  0  0
 76154  1  0  0  0
 76155  1  0  0  0
 76 80  1  0  0  0
 77 84  1  0  0  0
 77156  1  0  0  0
 77157  1  0  0  0
 77158  1  0  0  0
 78 80  1  0  0  0
 78159  1  0  0  0
 78160  1  0  0  0
 78 83  1  0  0  0
 79161  1  0  0  0
 79162  1  0  0  0
 79 81  1  0  0  0
 80 81  1  0  0  0
 80163  1  0  0  0
 81 84  1  0  0  0
 81164  1  0  0  0
 82165  1  0  0  0
 83166  1  0  0  0
 84167  1  0  0  0
 84168  1  0  0  0
M  CHG  2  83   1  84   1
M  ISO  4   1 100  68 101  79 101  82 100
M  END
> <chiral flag>
0

> <version>
0

> <s_m_source_file>
/data/baiqing/PycharmProjects/Reinvent-master-3.2/result/LINK_invent/BTK/process_docking_weight1_custom_sum_contain_oxygen_bond_distance_aromatic_linkinvent_7_9_3/rearranged_h_0115.sdf

> <i_m_source_file_index>
43

> <r_mmod_Potential_Energy-OPLS-2005>
-130.005264282227

> <r_mmod_Stretch_Energy-OPLS-2005>
76.9771423339844

> <r_mmod_Bend_Energy-OPLS-2005>
146.522842407227

> <r_mmod_Torsional_Energy-OPLS-2005>
279.228698730469

> <r_mmod_Improper_Torsional_Energy-OPLS-2005>
5.11809301376343

> <r_mmod_Van_der_Waal_Energy-OPLS-2005>
122.752426147461

> <r_mmod_Electrostatic_Energy-OPLS-2005>
154.288070678711

> <r_mmod_Solvation_Energy-OPLS-2005>
-950.78564453125

> <b_mmod_Minimization_Converged-OPLS-2005>
0

> <r_mmod_RMS_Derivative-OPLS-2005>
0.766036093235016

$$$$
43
                    3D
 Structure written by MMmdl.
170178  0  0  1  0            999 V2000
  -30.7329  -14.6011   20.4796 C   0  0  0  0  0  0
  -30.4136  -12.3889   19.4152 C   0  0  0  0  0  0
  -29.4756  -12.4554   18.1947 C   0  0  0  0  0  0
  -28.0074  -12.2835   18.6275 C   0  0  0  0  0  0
  -27.6319  -13.1729   19.8359 C   0  0  2  0  0  0
  -28.7021  -13.0954   20.9534 C   0  0  0  0  0  0
  -25.2543  -13.8032   20.5692 C   0  0  0  0  0  0
  -24.1793  -13.0374   20.9248 C   0  0  0  0  0  0
  -24.6305  -11.6826   20.8830 C   0  0  0  0  0  0
  -23.8977  -10.4239   21.0469 C   0  0  0  0  0  0
  -24.3546   -9.4143   21.9226 C   0  0  0  0  0  0
  -23.6246   -8.2168   22.0769 C   0  0  0  0  0  0
  -22.4222   -8.0221   21.3558 C   0  0  0  0  0  0
  -21.9856   -9.0181   20.4639 C   0  0  0  0  0  0
  -22.7175  -10.2068   20.3084 C   0  0  0  0  0  0
  -21.6809   -6.0696   22.5275 C   0  0  0  0  0  0
  -21.3954   -6.5618   23.8192 C   0  0  0  0  0  0
  -21.3679   -5.6802   24.9178 C   0  0  0  0  0  0
  -21.6061   -4.3059   24.7253 C   0  0  0  0  0  0
  -21.8815   -3.8129   23.4374 C   0  0  0  0  0  0
  -21.9160   -4.6931   22.3417 C   0  0  0  0  0  0
  -22.7828  -13.5210   21.1918 C   0  0  0  0  0  0
  -22.1637   -4.2126   21.0998 F   0  0  0  0  0  0
  -21.5682   -3.4559   25.7772 F   0  0  0  0  0  0
  -29.9817  -13.4598   20.3326 N   0  0  0  0  0  0
  -26.2878  -12.9107   20.3281 N   0  0  0  0  0  0
  -25.9208  -11.6322   20.5832 N   0  0  0  0  0  0
  -22.0423  -12.8185   22.0417 N   0  0  0  0  0  0
  -25.4331  -15.1741   20.4064 N   0  0  0  0  0  0
  -31.9569  -14.5074   20.4044 O   0  0  0  0  0  0
  -21.6587   -6.8822   21.4232 O   0  0  0  0  0  0
  -22.3543  -14.5530   20.6765 O   0  0  0  0  0  0
  -24.6185  -31.8662   23.2089 C   0  0  0  0  0  0
  -25.9001  -32.4837   23.8440 C   0  0  1  0  0  0
  -27.2343  -27.3930   20.1124 C   0  0  0  0  0  0
  -25.5850  -33.8640   24.2358 N   0  0  0  0  0  0
  -23.4120  -30.4894   21.5515 C   0  0  2  0  0  0
  -24.8617  -28.9679   20.0963 C   0  0  0  0  0  0
  -22.7448  -29.4634   22.4995 C   0  0  0  0  0  0
  -18.0262  -28.1329   22.8494 C   0  0  0  0  0  0
  -24.1458  -36.7264   23.2636 C   0  0  0  0  0  0
  -25.9456  -30.8239   21.3711 C   0  0  0  0  0  0
  -26.0246  -29.4589   20.7050 C   0  0  0  0  0  0
  -27.2152  -28.6836   20.7027 C   0  0  0  0  0  0
  -26.0513  -26.9398   19.4815 C   0  0  0  0  0  0
  -24.8745  -27.7074   19.4747 C   0  0  0  0  0  0
  -23.6195  -29.8309   20.1604 C   0  0  0  0  0  0
  -25.4094  -36.3155   24.0398 C   0  0  1  0  0  0
  -20.5857  -28.3627   23.1324 C   0  0  2  0  0  0
  -20.6774  -26.9383   22.5391 C   0  0  0  0  0  0
  -19.5741  -26.6354   21.5207 C   0  0  0  0  0  0
  -18.1904  -26.7864   22.1624 C   0  0  0  0  0  0
  -19.1513  -28.8794   23.2878 C   0  0  0  0  0  0
  -18.9454  -30.1369   23.8935 C   0  0  0  0  0  0
  -17.6483  -30.6564   24.0545 C   0  0  0  0  0  0
  -25.9055  -34.9498   23.5198 C   0  0  0  0  0  0
  -16.5366  -29.9061   23.6351 C   0  0  0  0  0  0
  -16.7264  -28.6445   23.0436 C   0  0  0  0  0  0
  -26.4470  -31.6632   25.0765 C   0  0  0  0  0  0
  -25.3753  -31.3618   26.1490 C   0  0  0  0  0  0
  -27.0307  -30.3132   24.6078 C   0  0  0  0  0  0
  -27.6049  -32.4369   25.7498 C   0  0  0  0  0  0
  -27.5592  -37.1743   24.8487 C   0  0  0  0  0  0
  -21.4186  -29.3007   22.3737 N   0  0  0  0  0  0
  -26.4291  -37.3821   23.9471 N   0  0  0  0  0  0
  -24.6780  -31.0696   22.1029 N   0  0  0  0  0  0
  -23.4209  -28.8172   23.3046 O   0  0  0  0  0  0
  -28.3726  -26.5925   20.1791 O   0  0  0  0  0  0
  -26.5614  -34.8949   22.4773 O   0  0  0  0  0  0
  -23.5369  -32.1445   23.7421 O   0  0  0  0  0  0
  -32.7844  -17.2970   17.8026 C   0  0  0  0  0  0
  -32.4629  -18.7875   17.7252 C   0  0  0  0  0  0
  -31.5403  -16.5232   18.2396 C   0  0  0  0  0  0
  -31.8637  -19.3072   19.0457 C   0  0  0  0  0  0
  -31.0856  -16.9433   19.6726 C   0  0  1  0  0  0
  -30.6535  -18.4799   19.5788 C   0  0  1  0  0  0
  -30.5927  -21.8415   22.3107 C   0  0  0  0  0  0
  -28.7634  -16.2245   20.3061 C   0  0  0  0  0  0
  -29.3288  -24.2131   20.6261 C   0  0  0  0  0  0
  -29.2482  -20.3195   20.7095 C   0  0  0  0  0  0
  -28.1504  -25.1519   20.1838 C   0  0  0  0  0  0
  -29.9018  -21.7427   20.9301 C   0  0  1  0  0  0
  -28.8778  -22.8079   20.7826 N   0  0  0  0  0  0
  -30.1842  -15.8565   20.2291 N   0  0  0  0  0  0
  -30.1562  -19.1270   20.8388 N   0  3  0  0  0  0
  -31.4498  -12.4999   19.0873 H   0  0  0  0  0  0
  -30.3547  -11.4118   19.8977 H   0  0  0  0  0  0
  -29.7381  -11.6827   17.4731 H   0  0  0  0  0  0
  -29.6016  -13.4111   17.6820 H   0  0  0  0  0  0
  -27.8557  -11.2358   18.8840 H   0  0  0  0  0  0
  -27.3407  -12.4863   17.7887 H   0  0  0  0  0  0
  -27.6036  -14.1640   19.4077 H   0  0  0  0  0  0
  -28.7481  -12.0806   21.3499 H   0  0  0  0  0  0
  -28.4692  -13.7194   21.8152 H   0  0  0  0  0  0
  -25.2655   -9.5622   22.4843 H   0  0  0  0  0  0
  -23.9943   -7.4537   22.7480 H   0  0  0  0  0  0
  -21.0801   -8.8691   19.8919 H   0  0  0  0  0  0
  -22.3626  -10.9631   19.6226 H   0  0  0  0  0  0
  -21.1878   -7.6106   23.9697 H   0  0  0  0  0  0
  -21.1545   -6.0528   25.9093 H   0  0  0  0  0  0
  -22.0568   -2.7586   23.2888 H   0  0  0  0  0  0
  -22.3999  -11.9826   22.4799 H   0  0  0  0  0  0
  -21.1022  -13.1224   22.2586 H   0  0  0  0  0  0
  -24.6779  -15.8408   20.5236 H   0  0  0  0  0  0
  -26.2843  -15.5950   20.0670 H   0  0  0  0  0  0
  -26.7068  -32.5586   23.1191 H   0  0  0  0  0  0
  -25.0083  -33.9806   25.0560 H   0  0  0  0  0  0
  -22.7041  -31.3081   21.4140 H   0  0  0  0  0  0
  -23.3809  -35.9506   23.3314 H   0  0  0  0  0  0
  -24.3518  -36.8894   22.2036 H   0  0  0  0  0  0
  -23.7082  -37.6426   23.6643 H   0  0  0  0  0  0
  -26.0599  -31.6044   20.6173 H   0  0  0  0  0  0
  -26.8279  -30.8707   21.9976 H   0  0  0  0  0  0
  -28.1036  -29.0463   21.1954 H   0  0  0  0  0  0
  -26.0143  -25.9779   18.9951 H   0  0  0  0  0  0
  -23.9854  -27.3281   18.9889 H   0  0  0  0  0  0
  -23.7019  -30.6162   19.4078 H   0  0  0  0  0  0
  -22.7489  -29.2392   19.8765 H   0  0  0  0  0  0
  -25.1232  -36.2078   25.0891 H   0  0  0  0  0  0
  -20.9921  -28.3128   24.1454 H   0  0  0  0  0  0
  -20.5717  -26.2222   23.3565 H   0  0  0  0  0  0
  -21.6625  -26.7467   22.1118 H   0  0  0  0  0  0
  -19.6961  -25.6269   21.1204 H   0  0  0  0  0  0
  -19.6667  -27.3218   20.6780 H   0  0  0  0  0  0
  -17.4184  -26.6664   21.4006 H   0  0  0  0  0  0
  -18.0253  -25.9999   22.9008 H   0  0  0  0  0  0
  -19.7949  -30.7094   24.2412 H   0  0  0  0  0  0
  -17.5065  -31.6296   24.5004 H   0  0  0  0  0  0
  -15.5348  -30.2969   23.7652 H   0  0  0  0  0  0
  -15.8660  -28.0710   22.7260 H   0  0  0  0  0  0
  -24.6036  -30.6867   25.7767 H   0  0  0  0  0  0
  -24.8763  -32.2679   26.4966 H   0  0  0  0  0  0
  -25.8103  -30.8781   27.0245 H   0  0  0  0  0  0
  -26.2813  -29.6859   24.1239 H   0  0  0  0  0  0
  -27.4270  -29.7405   25.4454 H   0  0  0  0  0  0
  -27.8572  -30.4519   23.9113 H   0  0  0  0  0  0
  -27.2750  -33.3763   26.1958 H   0  0  0  0  0  0
  -28.3886  -32.6786   25.0302 H   0  0  0  0  0  0
  -28.0690  -31.8584   26.5497 H   0  0  0  0  0  0
  -28.2554  -38.0085   24.7679 H   0  0  0  0  0  0
  -28.1146  -36.2624   24.6195 H   0  0  0  0  0  0
  -27.2284  -37.1296   25.8872 H   0  0  0  0  0  0
  -20.9366  -29.8684   21.6929 H   0  0  0  0  0  0
  -26.0239  -38.2909   24.1561 H   0  0  0  0  0  0
  -33.5958  -17.1148   18.5106 H   0  0  0  0  0  0
  -33.1368  -16.9361   16.8350 H   0  0  0  0  0  0
  -31.7706  -18.9651   16.8994 H   0  0  0  0  0  0
  -33.3690  -19.3427   17.4793 H   0  0  0  0  0  0
  -31.7748  -15.4632   18.1512 H   0  0  0  0  0  0
  -30.7275  -16.6810   17.5278 H   0  0  0  0  0  0
  -31.5787  -20.3450   18.8896 H   0  0  0  0  0  0
  -32.6536  -19.3193   19.7988 H   0  0  0  0  0  0
  -31.9616  -16.9504   20.3250 H   0  0  0  0  0  0
  -29.8455  -18.5374   18.8458 H   0  0  0  0  0  0
  -31.4607  -21.1828   22.3672 H   0  0  0  0  0  0
  -29.9365  -21.5562   23.1350 H   0  0  0  0  0  0
  -30.9725  -22.8434   22.5261 H   0  0  0  0  0  0
  -28.5720  -17.2257   20.6750 H   0  0  0  0  0  0
  -28.1878  -15.6076   20.9860 H   0  0  0  0  0  0
  -28.3301  -16.1792   19.3061 H   0  0  0  0  0  0
  -29.7499  -24.5720   21.5685 H   0  0  0  0  0  0
  -30.1329  -24.2701   19.8901 H   0  0  0  0  0  0
  -28.7139  -20.2840   19.7560 H   0  0  0  0  0  0
  -28.4637  -20.1921   21.4596 H   0  0  0  0  0  0
  -27.3011  -24.9428   20.8388 H   0  0  0  0  0  0
  -27.8656  -24.8528   19.1762 H   0  0  0  0  0  0
  -30.6495  -21.9083   20.1537 H   0  0  0  0  0  0
  -28.1899  -22.7493   21.5334 H   0  0  0  0  0  0
  -30.9230  -19.3499   21.4543 H   0  0  0  0  0  0
  -29.6070  -18.4277   21.3120 H   0  0  0  0  0  0
  1 25  1  0  0  0
  1 30  2  0  0  0
  1 84  1  0  0  0
  2  3  1  0  0  0
  2 25  1  0  0  0
  2 86  1  0  0  0
  2 87  1  0  0  0
  3  4  1  0  0  0
  3 88  1  0  0  0
  3 89  1  0  0  0
  4  5  1  0  0  0
  4 90  1  0  0  0
  4 91  1  0  0  0
  5  6  1  0  0  0
  5 26  1  0  0  0
  5 92  1  0  0  0
  6 25  1  0  0  0
  6 93  1  0  0  0
  6 94  1  0  0  0
  7  8  2  0  0  0
  7 26  1  0  0  0
  7 29  1  0  0  0
  8  9  1  0  0  0
  8 22  1  0  0  0
  9 10  1  0  0  0
  9 27  2  0  0  0
 10 11  2  0  0  0
 10 15  1  0  0  0
 11 12  1  0  0  0
 11 95  1  0  0  0
 12 13  2  0  0  0
 12 96  1  0  0  0
 13 14  1  0  0  0
 13 31  1  0  0  0
 14 15  2  0  0  0
 14 97  1  0  0  0
 15 98  1  0  0  0
 16 17  2  0  0  0
 16 21  1  0  0  0
 16 31  1  0  0  0
 17 18  1  0  0  0
 17 99  1  0  0  0
 18 19  2  0  0  0
 18100  1  0  0  0
 19 20  1  0  0  0
 19 24  1  0  0  0
 20 21  2  0  0  0
 20101  1  0  0  0
 21 23  1  0  0  0
 22 28  1  0  0  0
 22 32  2  0  0  0
 26 27  1  0  0  0
 28102  1  0  0  0
 28103  1  0  0  0
 29104  1  0  0  0
 29105  1  0  0  0
 33 34  1  0  0  0
 33 66  1  0  0  0
 33 70  2  0  0  0
 34 36  1  0  0  0
 34 59  1  0  0  0
 34106  1  0  0  0
 35 44  2  0  0  0
 35 45  1  0  0  0
 35 68  1  0  0  0
 36 56  1  0  0  0
 36107  1  0  0  0
 37 39  1  0  0  0
 37 47  1  0  0  0
 37 66  1  0  0  0
 37108  1  0  0  0
 38 43  2  0  0  0
 38 46  1  0  0  0
 38 47  1  0  0  0
 39 64  1  0  0  0
 39 67  2  0  0  0
 40 52  1  0  0  0
 40 53  2  0  0  0
 40 58  1  0  0  0
 41109  1  0  0  0
 41110  1  0  0  0
 41111  1  0  0  0
 41 48  1  0  0  0
 42 43  1  0  0  0
 42 66  1  0  0  0
 42112  1  0  0  0
 42113  1  0  0  0
 43 44  1  0  0  0
 44114  1  0  0  0
 45 46  2  0  0  0
 45115  1  0  0  0
 46116  1  0  0  0
 47117  1  0  0  0
 47118  1  0  0  0
 48 56  1  0  0  0
 48 65  1  0  0  0
 48119  1  0  0  0
 49 50  1  0  0  0
 49 53  1  0  0  0
 49 64  1  0  0  0
 49120  1  0  0  0
 50 51  1  0  0  0
 50121  1  0  0  0
 50122  1  0  0  0
 51 52  1  0  0  0
 51123  1  0  0  0
 51124  1  0  0  0
 52125  1  0  0  0
 52126  1  0  0  0
 53 54  1  0  0  0
 54 55  2  0  0  0
 54127  1  0  0  0
 55 57  1  0  0  0
 55128  1  0  0  0
 56 69  2  0  0  0
 57 58  2  0  0  0
 57129  1  0  0  0
 58130  1  0  0  0
 59 60  1  0  0  0
 59 61  1  0  0  0
 59 62  1  0  0  0
 60131  1  0  0  0
 60132  1  0  0  0
 60133  1  0  0  0
 61134  1  0  0  0
 61135  1  0  0  0
 61136  1  0  0  0
 62137  1  0  0  0
 62138  1  0  0  0
 62139  1  0  0  0
 63 65  1  0  0  0
 63140  1  0  0  0
 63141  1  0  0  0
 63142  1  0  0  0
 64143  1  0  0  0
 65144  1  0  0  0
 68 81  1  0  0  0
 71 72  1  0  0  0
 71 73  1  0  0  0
 71145  1  0  0  0
 71146  1  0  0  0
 72 74  1  0  0  0
 72147  1  0  0  0
 72148  1  0  0  0
 73 75  1  0  0  0
 73149  1  0  0  0
 73150  1  0  0  0
 74 76  1  0  0  0
 74151  1  0  0  0
 74152  1  0  0  0
 75 76  1  0  0  0
 75 84  1  0  0  0
 75153  1  0  0  0
 76 85  1  0  0  0
 76154  1  0  0  0
 77155  1  0  0  0
 77156  1  0  0  0
 77157  1  0  0  0
 77 82  1  0  0  0
 78 84  1  0  0  0
 78158  1  0  0  0
 78159  1  0  0  0
 78160  1  0  0  0
 79 81  1  0  0  0
 79 83  1  0  0  0
 79161  1  0  0  0
 79162  1  0  0  0
 80 82  1  0  0  0
 80 85  1  0  0  0
 80163  1  0  0  0
 80164  1  0  0  0
 81165  1  0  0  0
 81166  1  0  0  0
 82 83  1  0  0  0
 82167  1  0  0  0
 83168  1  0  0  0
 85169  1  0  0  0
 85170  1  0  0  0
M  CHG  1  85   1
M  ISO  4   1 100  68 101  81 101  84 100
M  END
> <chiral flag>
0

> <version>
0

> <s_m_source_file>
/data/baiqing/PycharmProjects/Reinvent-master-3.2/result/LINK_invent/BTK/process_docking_weight1_custom_sum_contain_oxygen_bond_distance_aromatic_linkinvent_7_9_3/rearranged_h_0115.sdf

> <i_m_source_file_index>
44

> <r_mmod_Potential_Energy-OPLS-2005>
175.751602172852

> <r_mmod_Stretch_Energy-OPLS-2005>
71.0206298828125

> <r_mmod_Bend_Energy-OPLS-2005>
166.616760253906

> <r_mmod_Torsional_Energy-OPLS-2005>
353.082489013672

> <r_mmod_Improper_Torsional_Energy-OPLS-2005>
14.7722396850586

> <r_mmod_Van_der_Waal_Energy-OPLS-2005>
158.061920166016

> <r_mmod_Electrostatic_Energy-OPLS-2005>
-196.372955322266

> <r_mmod_Solvation_Energy-OPLS-2005>
-448.343231201172

> <b_mmod_Minimization_Converged-OPLS-2005>
0

> <r_mmod_RMS_Derivative-OPLS-2005>
5.639479637146

$$$$
44
                    3D
 Structure written by MMmdl.
164172  0  0  1  0            999 V2000
  -30.6831  -14.5640   20.4975 C   0  0  0  0  0  0
  -30.4177  -12.3459   19.4484 C   0  0  0  0  0  0
  -29.5006  -12.4986   18.2177 C   0  0  0  0  0  0
  -28.0212  -12.3542   18.6250 C   0  0  0  0  0  0
  -27.6516  -13.2207   19.8586 C   0  0  2  0  0  0
  -28.6955  -13.0791   20.9915 C   0  0  0  0  0  0
  -25.2538  -13.8180   20.5653 C   0  0  0  0  0  0
  -24.1832  -13.0442   20.9229 C   0  0  0  0  0  0
  -24.6411  -11.6916   20.8757 C   0  0  0  0  0  0
  -23.9072  -10.4297   21.0395 C   0  0  0  0  0  0
  -24.3631   -9.4228   21.9182 C   0  0  0  0  0  0
  -23.6319   -8.2254   22.0743 C   0  0  0  0  0  0
  -22.4299   -8.0284   21.3540 C   0  0  0  0  0  0
  -21.9929   -9.0254   20.4642 C   0  0  0  0  0  0
  -22.7237  -10.2144   20.3053 C   0  0  0  0  0  0
  -21.6859   -6.0738   22.5281 C   0  0  0  0  0  0
  -21.4003   -6.5642   23.8212 C   0  0  0  0  0  0
  -21.3678   -5.6799   24.9180 C   0  0  0  0  0  0
  -21.6053   -4.3059   24.7228 C   0  0  0  0  0  0
  -21.8821   -3.8153   23.4349 C   0  0  0  0  0  0
  -21.9198   -4.6968   22.3406 C   0  0  0  0  0  0
  -22.7852  -13.5232   21.1898 C   0  0  0  0  0  0
  -22.1653   -4.2151   21.0982 F   0  0  0  0  0  0
  -21.5650   -3.4542   25.7740 F   0  0  0  0  0  0
  -30.0158  -13.3755   20.4224 N   0  0  0  0  0  0
  -26.2986  -12.9380   20.3300 N   0  0  0  0  0  0
  -25.9347  -11.6533   20.5786 N   0  0  0  0  0  0
  -22.0477  -12.8214   22.0433 N   0  0  0  0  0  0
  -25.4216  -15.1895   20.3981 N   0  0  0  0  0  0
  -31.8545  -14.6764   20.1278 O   0  0  0  0  0  0
  -21.6661   -6.8883   21.4241 O   0  0  0  0  0  0
  -22.3526  -14.5533   20.6750 O   0  0  0  0  0  0
  -24.6203  -31.8648   23.2096 C   0  0  0  0  0  0
  -25.9080  -32.4803   23.8399 C   0  0  1  0  0  0
  -27.2228  -27.3852   20.0917 C   0  0  0  0  0  0
  -25.5912  -33.8602   24.2329 N   0  0  0  0  0  0
  -23.4108  -30.4943   21.5491 C   0  0  2  0  0  0
  -24.8541  -28.9603   20.1092 C   0  0  0  0  0  0
  -22.7441  -29.4674   22.4938 C   0  0  0  0  0  0
  -18.0284  -28.1368   22.8492 C   0  0  0  0  0  0
  -24.1481  -36.7312   23.2643 C   0  0  0  0  0  0
  -25.9482  -30.8158   21.3722 C   0  0  0  0  0  0
  -26.0211  -29.4514   20.7075 C   0  0  0  0  0  0
  -27.2105  -28.6747   20.6892 C   0  0  0  0  0  0
  -26.0325  -26.9346   19.4720 C   0  0  0  0  0  0
  -24.8583  -27.7034   19.4870 C   0  0  0  0  0  0
  -23.6219  -29.8340   20.1617 C   0  0  0  0  0  0
  -25.4103  -36.3109   24.0345 C   0  0  1  0  0  0
  -20.5886  -28.3686   23.1275 C   0  0  2  0  0  0
  -20.6760  -26.9408   22.5400 C   0  0  0  0  0  0
  -19.5736  -26.6375   21.5202 C   0  0  0  0  0  0
  -18.1928  -26.7917   22.1624 C   0  0  0  0  0  0
  -19.1537  -28.8840   23.2893 C   0  0  0  0  0  0
  -18.9460  -30.1435   23.8916 C   0  0  0  0  0  0
  -17.6461  -30.6571   24.0573 C   0  0  0  0  0  0
  -25.9030  -34.9468   23.5136 C   0  0  0  0  0  0
  -16.5354  -29.9076   23.6314 C   0  0  0  0  0  0
  -16.7276  -28.6488   23.0352 C   0  0  0  0  0  0
  -26.4488  -31.6585   25.0738 C   0  0  0  0  0  0
  -25.3745  -31.3690   26.1479 C   0  0  0  0  0  0
  -27.0329  -30.3014   24.6158 C   0  0  0  0  0  0
  -27.6059  -32.4309   25.7496 C   0  0  0  0  0  0
  -27.5585  -37.1813   24.8467 C   0  0  0  0  0  0
  -21.4167  -29.3067   22.3678 N   0  0  0  0  0  0
  -26.4293  -37.3791   23.9412 N   0  0  0  0  0  0
  -24.6780  -31.0728   22.1011 N   0  0  0  0  0  0
  -23.4197  -28.8189   23.2980 O   0  0  0  0  0  0
  -28.3606  -26.5824   20.1280 O   0  0  0  0  0  0
  -26.5609  -34.8920   22.4704 O   0  0  0  0  0  0
  -23.5378  -32.1424   23.7462 O   0  0  0  0  0  0
  -32.9307  -21.0286   21.5864 C   0  0  0  0  0  0
  -32.3754  -22.1704   22.1608 C   0  0  0  0  0  0
  -32.1480  -20.2381   20.7332 C   0  0  0  0  0  0
  -30.7822  -20.5874   20.5179 C   0  0  0  0  0  0
  -30.3838  -21.8975   20.9772 C   0  0  0  0  0  0
  -32.8610  -19.0943   20.0293 C   0  0  0  0  0  0
  -28.0324  -17.7998   20.0346 C   0  0  0  0  0  0
  -29.8449  -19.5881   19.7837 C   0  0  0  0  0  0
  -29.1267  -22.6987   20.5525 C   0  0  0  0  0  0
  -29.3678  -24.2611   20.4282 C   0  0  0  0  0  0
  -30.4399  -17.0638   20.5159 C   0  0  0  0  0  0
  -28.1582  -25.1416   20.0033 C   0  0  0  0  0  0
  -29.4121  -18.2605   20.5469 C   0  0  2  0  0  0
  -31.1473  -22.6031   21.8406 N   0  0  0  0  0  0
  -29.9498  -15.6748   20.7646 N   0  0  0  0  0  0
  -31.4647  -12.4356   19.1521 H   0  0  0  0  0  0
  -30.3140  -11.3505   19.8824 H   0  0  0  0  0  0
  -29.7533  -11.7511   17.4640 H   0  0  0  0  0  0
  -29.6639  -13.4707   17.7488 H   0  0  0  0  0  0
  -27.8462  -11.3018   18.8449 H   0  0  0  0  0  0
  -27.3715  -12.5989   17.7821 H   0  0  0  0  0  0
  -27.6671  -14.2580   19.5229 H   0  0  0  0  0  0
  -28.6911  -12.0682   21.4014 H   0  0  0  0  0  0
  -28.4631  -13.7434   21.8249 H   0  0  0  0  0  0
  -25.2773   -9.5725   22.4768 H   0  0  0  0  0  0
  -24.0048   -7.4646   22.7457 H   0  0  0  0  0  0
  -21.0863   -8.8768   19.8945 H   0  0  0  0  0  0
  -22.3681  -10.9693   19.6176 H   0  0  0  0  0  0
  -21.1953   -7.6139   23.9718 H   0  0  0  0  0  0
  -21.1504   -6.0519   25.9089 H   0  0  0  0  0  0
  -22.0583   -2.7609   23.2852 H   0  0  0  0  0  0
  -22.4080  -11.9880   22.4839 H   0  0  0  0  0  0
  -21.1082  -13.1229   22.2603 H   0  0  0  0  0  0
  -24.6476  -15.8401   20.4849 H   0  0  0  0  0  0
  -26.2568  -15.6213   20.0245 H   0  0  0  0  0  0
  -26.7156  -32.5482   23.1155 H   0  0  0  0  0  0
  -25.0045  -33.9747   25.0466 H   0  0  0  0  0  0
  -22.7018  -31.3133   21.4103 H   0  0  0  0  0  0
  -23.3739  -35.9647   23.3301 H   0  0  0  0  0  0
  -24.3591  -36.8928   22.2059 H   0  0  0  0  0  0
  -23.7217  -37.6510   23.6656 H   0  0  0  0  0  0
  -26.0794  -31.5892   20.6138 H   0  0  0  0  0  0
  -26.8292  -30.8561   22.0012 H   0  0  0  0  0  0
  -28.1095  -29.0539   21.1549 H   0  0  0  0  0  0
  -25.9824  -25.9810   18.9699 H   0  0  0  0  0  0
  -23.9642  -27.3229   19.0133 H   0  0  0  0  0  0
  -23.7392  -30.6135   19.4076 H   0  0  0  0  0  0
  -22.7429  -29.2635   19.8583 H   0  0  0  0  0  0
  -25.1273  -36.1987   25.0839 H   0  0  0  0  0  0
  -21.0011  -28.3264   24.1384 H   0  0  0  0  0  0
  -20.5625  -26.2317   23.3618 H   0  0  0  0  0  0
  -21.6632  -26.7406   22.1215 H   0  0  0  0  0  0
  -19.6890  -25.6289   21.1228 H   0  0  0  0  0  0
  -19.6649  -27.3183   20.6736 H   0  0  0  0  0  0
  -17.4193  -26.6684   21.4031 H   0  0  0  0  0  0
  -18.0323  -26.0043   22.9001 H   0  0  0  0  0  0
  -19.7939  -30.7246   24.2298 H   0  0  0  0  0  0
  -17.5015  -31.6253   24.5169 H   0  0  0  0  0  0
  -15.5357  -30.2987   23.7595 H   0  0  0  0  0  0
  -15.8687  -28.0797   22.7056 H   0  0  0  0  0  0
  -24.5919  -30.7037   25.7806 H   0  0  0  0  0  0
  -24.8932  -32.2839   26.4944 H   0  0  0  0  0  0
  -25.8092  -30.8838   27.0227 H   0  0  0  0  0  0
  -26.2888  -29.6757   24.1210 H   0  0  0  0  0  0
  -27.4073  -29.7271   25.4642 H   0  0  0  0  0  0
  -27.8741  -30.4307   23.9343 H   0  0  0  0  0  0
  -27.2680  -33.3597   26.2105 H   0  0  0  0  0  0
  -28.3852  -32.6888   25.0311 H   0  0  0  0  0  0
  -28.0757  -31.8416   26.5384 H   0  0  0  0  0  0
  -28.2606  -38.0108   24.7522 H   0  0  0  0  0  0
  -28.1080  -36.2646   24.6276 H   0  0  0  0  0  0
  -27.2326  -37.1443   25.8876 H   0  0  0  0  0  0
  -20.9320  -29.8847   21.6951 H   0  0  0  0  0  0
  -26.0190  -38.2877   24.1384 H   0  0  0  0  0  0
  -33.9589  -20.7702   21.8016 H   0  0  0  0  0  0
  -32.9483  -22.7905   22.8341 H   0  0  0  0  0  0
  -33.8535  -19.4249   19.7214 H   0  0  0  0  0  0
  -32.3625  -18.7593   19.1233 H   0  0  0  0  0  0
  -33.0170  -18.2507   20.6977 H   0  0  0  0  0  0
  -27.3057  -18.6140   20.0493 H   0  0  0  0  0  0
  -27.6201  -17.0038   20.6541 H   0  0  0  0  0  0
  -28.0918  -17.4329   19.0099 H   0  0  0  0  0  0
  -30.2673  -19.3362   18.8106 H   0  0  0  0  0  0
  -28.9373  -20.1361   19.5336 H   0  0  0  0  0  0
  -28.3291  -22.4960   21.2676 H   0  0  0  0  0  0
  -28.7796  -22.3322   19.5865 H   0  0  0  0  0  0
  -30.1889  -24.4389   19.7342 H   0  0  0  0  0  0
  -29.7011  -24.6456   21.3913 H   0  0  0  0  0  0
  -31.2051  -17.2567   21.2645 H   0  0  0  0  0  0
  -30.9337  -17.0580   19.5440 H   0  0  0  0  0  0
  -27.3054  -24.8498   20.6186 H   0  0  0  0  0  0
  -27.9091  -24.9019   18.9693 H   0  0  0  0  0  0
  -29.2512  -18.5353   21.5902 H   0  0  0  0  0  0
  -28.9849  -15.5473   21.0284 H   0  0  0  0  0  0
  1 25  1  0  0  0
  1 30  2  0  0  0
  1 85  1  0  0  0
  2  3  1  0  0  0
  2 25  1  0  0  0
  2 86  1  0  0  0
  2 87  1  0  0  0
  3  4  1  0  0  0
  3 88  1  0  0  0
  3 89  1  0  0  0
  4  5  1  0  0  0
  4 90  1  0  0  0
  4 91  1  0  0  0
  5  6  1  0  0  0
  5 26  1  0  0  0
  5 92  1  0  0  0
  6 25  1  0  0  0
  6 93  1  0  0  0
  6 94  1  0  0  0
  7  8  2  0  0  0
  7 26  1  0  0  0
  7 29  1  0  0  0
  8  9  1  0  0  0
  8 22  1  0  0  0
  9 10  1  0  0  0
  9 27  2  0  0  0
 10 11  2  0  0  0
 10 15  1  0  0  0
 11 12  1  0  0  0
 11 95  1  0  0  0
 12 13  2  0  0  0
 12 96  1  0  0  0
 13 14  1  0  0  0
 13 31  1  0  0  0
 14 15  2  0  0  0
 14 97  1  0  0  0
 15 98  1  0  0  0
 16 17  2  0  0  0
 16 21  1  0  0  0
 16 31  1  0  0  0
 17 18  1  0  0  0
 17 99  1  0  0  0
 18 19  2  0  0  0
 18100  1  0  0  0
 19 20  1  0  0  0
 19 24  1  0  0  0
 20 21  2  0  0  0
 20101  1  0  0  0
 21 23  1  0  0  0
 22 28  1  0  0  0
 22 32  2  0  0  0
 26 27  1  0  0  0
 28102  1  0  0  0
 28103  1  0  0  0
 29104  1  0  0  0
 29105  1  0  0  0
 33 34  1  0  0  0
 33 66  1  0  0  0
 33 70  2  0  0  0
 34 36  1  0  0  0
 34 59  1  0  0  0
 34106  1  0  0  0
 35 44  2  0  0  0
 35 45  1  0  0  0
 35 68  1  0  0  0
 36 56  1  0  0  0
 36107  1  0  0  0
 37 39  1  0  0  0
 37 47  1  0  0  0
 37 66  1  0  0  0
 37108  1  0  0  0
 38 43  2  0  0  0
 38 46  1  0  0  0
 38 47  1  0  0  0
 39 64  1  0  0  0
 39 67  2  0  0  0
 40 52  1  0  0  0
 40 53  2  0  0  0
 40 58  1  0  0  0
 41109  1  0  0  0
 41110  1  0  0  0
 41111  1  0  0  0
 41 48  1  0  0  0
 42 43  1  0  0  0
 42 66  1  0  0  0
 42112  1  0  0  0
 42113  1  0  0  0
 43 44  1  0  0  0
 44114  1  0  0  0
 45 46  2  0  0  0
 45115  1  0  0  0
 46116  1  0  0  0
 47117  1  0  0  0
 47118  1  0  0  0
 48 56  1  0  0  0
 48 65  1  0  0  0
 48119  1  0  0  0
 49 50  1  0  0  0
 49 53  1  0  0  0
 49 64  1  0  0  0
 49120  1  0  0  0
 50 51  1  0  0  0
 50121  1  0  0  0
 50122  1  0  0  0
 51 52  1  0  0  0
 51123  1  0  0  0
 51124  1  0  0  0
 52125  1  0  0  0
 52126  1  0  0  0
 53 54  1  0  0  0
 54 55  2  0  0  0
 54127  1  0  0  0
 55 57  1  0  0  0
 55128  1  0  0  0
 56 69  2  0  0  0
 57 58  2  0  0  0
 57129  1  0  0  0
 58130  1  0  0  0
 59 60  1  0  0  0
 59 61  1  0  0  0
 59 62  1  0  0  0
 60131  1  0  0  0
 60132  1  0  0  0
 60133  1  0  0  0
 61134  1  0  0  0
 61135  1  0  0  0
 61136  1  0  0  0
 62137  1  0  0  0
 62138  1  0  0  0
 62139  1  0  0  0
 63 65  1  0  0  0
 63140  1  0  0  0
 63141  1  0  0  0
 63142  1  0  0  0
 64143  1  0  0  0
 65144  1  0  0  0
 68 82  1  0  0  0
 71 72  2  0  0  0
 71 73  1  0  0  0
 71145  1  0  0  0
 72 84  1  0  0  0
 72146  1  0  0  0
 73 74  2  0  0  0
 73 76  1  0  0  0
 74 75  1  0  0  0
 74 78  1  0  0  0
 75 79  1  0  0  0
 75 84  2  0  0  0
 76147  1  0  0  0
 76148  1  0  0  0
 76149  1  0  0  0
 77150  1  0  0  0
 77151  1  0  0  0
 77152  1  0  0  0
 77 83  1  0  0  0
 78 83  1  0  0  0
 78153  1  0  0  0
 78154  1  0  0  0
 79 80  1  0  0  0
 79155  1  0  0  0
 79156  1  0  0  0
 80 82  1  0  0  0
 80157  1  0  0  0
 80158  1  0  0  0
 81 83  1  0  0  0
 81 85  1  0  0  0
 81159  1  0  0  0
 81160  1  0  0  0
 82161  1  0  0  0
 82162  1  0  0  0
 83163  1  0  0  0
 85164  1  0  0  0
M  ISO  4   1 100  68 101  82 101  85 100
M  END
> <chiral flag>
0

> <version>
0

> <s_m_source_file>
/data/baiqing/PycharmProjects/Reinvent-master-3.2/result/LINK_invent/BTK/process_docking_weight1_custom_sum_contain_oxygen_bond_distance_aromatic_linkinvent_7_9_3/rearranged_h_0115.sdf

> <i_m_source_file_index>
45

> <r_mmod_Potential_Energy-OPLS-2005>
-167.020690917969

> <r_mmod_Stretch_Energy-OPLS-2005>
62.0304832458496

> <r_mmod_Bend_Energy-OPLS-2005>
124.500076293945

> <r_mmod_Torsional_Energy-OPLS-2005>
232.783935546875

> <r_mmod_Improper_Torsional_Energy-OPLS-2005>
5.98393678665161

> <r_mmod_Van_der_Waal_Energy-OPLS-2005>
161.994369506836

> <r_mmod_Electrostatic_Energy-OPLS-2005>
-562.846618652344

> <r_mmod_Solvation_Energy-OPLS-2005>
-220.586395263672

> <b_mmod_Minimization_Converged-OPLS-2005>
0

> <r_mmod_RMS_Derivative-OPLS-2005>
2.6747145652771

$$$$
45
                    3D
 Structure written by MMmdl.
167175  0  0  1  0            999 V2000
  -30.7417  -14.4575   20.5255 C   0  0  0  0  0  0
  -30.4231  -12.2939   19.4059 C   0  0  0  0  0  0
  -29.4914  -12.5111   18.1985 C   0  0  0  0  0  0
  -28.0167  -12.3901   18.6252 C   0  0  0  0  0  0
  -27.6716  -13.2031   19.9049 C   0  0  2  0  0  0
  -28.7338  -12.9981   21.0078 C   0  0  0  0  0  0
  -25.2590  -13.8091   20.5794 C   0  0  0  0  0  0
  -24.1844  -13.0395   20.9251 C   0  0  0  0  0  0
  -24.6405  -11.6858   20.8844 C   0  0  0  0  0  0
  -23.9059  -10.4246   21.0497 C   0  0  0  0  0  0
  -24.3577   -9.4129   21.9271 C   0  0  0  0  0  0
  -23.6245   -8.2167   22.0784 C   0  0  0  0  0  0
  -22.4227   -8.0234   21.3556 C   0  0  0  0  0  0
  -21.9881   -9.0246   20.4665 C   0  0  0  0  0  0
  -22.7243  -10.2118   20.3115 C   0  0  0  0  0  0
  -21.6836   -6.0654   22.5281 C   0  0  0  0  0  0
  -21.3984   -6.5579   23.8204 C   0  0  0  0  0  0
  -21.3671   -5.6769   24.9198 C   0  0  0  0  0  0
  -21.6081   -4.3037   24.7271 C   0  0  0  0  0  0
  -21.8826   -3.8088   23.4399 C   0  0  0  0  0  0
  -21.9180   -4.6874   22.3423 C   0  0  0  0  0  0
  -22.7855  -13.5195   21.1867 C   0  0  0  0  0  0
  -22.1661   -4.2031   21.1010 F   0  0  0  0  0  0
  -21.5640   -3.4560   25.7794 F   0  0  0  0  0  0
  -30.0536  -13.2874   20.4258 N   0  0  0  0  0  0
  -26.3100  -12.9295   20.3636 N   0  0  0  0  0  0
  -25.9355  -11.6453   20.5920 N   0  0  0  0  0  0
  -22.0462  -12.8230   22.0418 N   0  0  0  0  0  0
  -25.4198  -15.1818   20.4086 N   0  0  0  0  0  0
  -31.8845  -14.6032   20.0916 O   0  0  0  0  0  0
  -21.6598   -6.8814   21.4249 O   0  0  0  0  0  0
  -22.3569  -14.5514   20.6678 O   0  0  0  0  0  0
  -24.6134  -31.8719   23.2115 C   0  0  0  0  0  0
  -25.9041  -32.4838   23.8407 C   0  0  1  0  0  0
  -27.2082  -27.4443   20.1039 C   0  0  0  0  0  0
  -25.5903  -33.8625   24.2362 N   0  0  0  0  0  0
  -23.3968  -30.5001   21.5495 C   0  0  2  0  0  0
  -24.8369  -28.9755   20.1045 C   0  0  0  0  0  0
  -22.7420  -29.4696   22.4942 C   0  0  0  0  0  0
  -18.0300  -28.1388   22.8508 C   0  0  0  0  0  0
  -24.1470  -36.7334   23.2628 C   0  0  0  0  0  0
  -25.9237  -30.8458   21.3547 C   0  0  0  0  0  0
  -25.9962  -29.4809   20.7049 C   0  0  0  0  0  0
  -27.1884  -28.7252   20.6974 C   0  0  0  0  0  0
  -26.0314  -26.9508   19.4921 C   0  0  0  0  0  0
  -24.8517  -27.7144   19.4884 C   0  0  0  0  0  0
  -23.6000  -29.8415   20.1579 C   0  0  0  0  0  0
  -25.4078  -36.3124   24.0354 C   0  0  1  0  0  0
  -20.5894  -28.3663   23.1327 C   0  0  2  0  0  0
  -20.6768  -26.9392   22.5426 C   0  0  0  0  0  0
  -19.5728  -26.6402   21.5219 C   0  0  0  0  0  0
  -18.1924  -26.7949   22.1630 C   0  0  0  0  0  0
  -19.1548  -28.8843   23.2930 C   0  0  0  0  0  0
  -18.9469  -30.1462   23.8912 C   0  0  0  0  0  0
  -17.6462  -30.6586   24.0583 C   0  0  0  0  0  0
  -25.9020  -34.9490   23.5162 C   0  0  0  0  0  0
  -16.5364  -29.9098   23.6309 C   0  0  0  0  0  0
  -16.7293  -28.6523   23.0336 C   0  0  0  0  0  0
  -26.4453  -31.6586   25.0733 C   0  0  0  0  0  0
  -25.3756  -31.3675   26.1511 C   0  0  0  0  0  0
  -27.0235  -30.3036   24.6037 C   0  0  0  0  0  0
  -27.6059  -32.4272   25.7515 C   0  0  0  0  0  0
  -27.5570  -37.1826   24.8465 C   0  0  0  0  0  0
  -21.4153  -29.3045   22.3718 N   0  0  0  0  0  0
  -26.4267  -37.3816   23.9433 N   0  0  0  0  0  0
  -24.6638  -31.0873   22.0969 N   0  0  0  0  0  0
  -23.4247  -28.8232   23.2933 O   0  0  0  0  0  0
  -28.3707  -26.7090   20.1405 O   0  0  0  0  0  0
  -26.5599  -34.8923   22.4724 O   0  0  0  0  0  0
  -23.5354  -32.1446   23.7554 O   0  0  0  0  0  0
  -27.9702  -19.8848   20.9904 C   0  0  0  0  0  0
  -26.9717  -19.3852   20.1421 C   0  0  0  0  0  0
  -29.1841  -19.1809   21.1200 C   0  0  0  0  0  0
  -29.3000  -17.9288   20.4456 C   0  0  0  0  0  0
  -28.3248  -17.6380   19.4544 C   0  0  0  0  0  0
  -28.5316  -16.6140   18.3528 C   0  0  0  0  0  0
  -30.3736  -24.7174   19.3243 C   0  0  0  0  0  0
  -30.3329  -19.7522   21.9572 C   0  0  0  0  0  0
  -30.4463  -16.9396   20.7558 C   0  0  0  0  0  0
  -30.3090  -21.2603   22.3582 C   0  0  0  0  0  0
  -29.2291  -23.0882   20.9728 C   0  0  0  0  0  0
  -28.1871  -25.3112   20.3843 C   0  0  0  0  0  0
  -29.5203  -24.5691   20.5968 C   0  0  2  0  0  0
  -27.1678  -18.3232   19.3426 N   0  0  0  0  0  0
  -30.0256  -15.5280   20.9170 N   0  0  0  0  0  0
  -30.4359  -22.2677   21.2627 N   0  3  0  0  0  0
  -31.4661  -12.3775   19.0930 H   0  0  0  0  0  0
  -30.3139  -11.2843   19.8041 H   0  0  0  0  0  0
  -29.7166  -11.7867   17.4140 H   0  0  0  0  0  0
  -29.6705  -13.4941   17.7610 H   0  0  0  0  0  0
  -27.8320  -11.3305   18.8037 H   0  0  0  0  0  0
  -27.3626  -12.6768   17.8030 H   0  0  0  0  0  0
  -27.7072  -14.2564   19.6581 H   0  0  0  0  0  0
  -28.7110  -11.9711   21.3743 H   0  0  0  0  0  0
  -28.5273  -13.6264   21.8758 H   0  0  0  0  0  0
  -25.2702   -9.5544   22.4882 H   0  0  0  0  0  0
  -23.9931   -7.4509   22.7461 H   0  0  0  0  0  0
  -21.0810   -8.8794   19.8944 H   0  0  0  0  0  0
  -22.3748  -10.9683   19.6214 H   0  0  0  0  0  0
  -21.1950   -7.6085   23.9678 H   0  0  0  0  0  0
  -21.1530   -6.0515   25.9101 H   0  0  0  0  0  0
  -22.0589   -2.7533   23.2971 H   0  0  0  0  0  0
  -22.4025  -11.9917   22.4891 H   0  0  0  0  0  0
  -21.1079  -13.1281   22.2605 H   0  0  0  0  0  0
  -24.6387  -15.8222   20.4987 H   0  0  0  0  0  0
  -26.2567  -15.6395   20.0776 H   0  0  0  0  0  0
  -26.7135  -32.5552   23.1189 H   0  0  0  0  0  0
  -25.0081  -33.9764   25.0524 H   0  0  0  0  0  0
  -22.6830  -31.3176   21.4217 H   0  0  0  0  0  0
  -23.3729  -35.9673   23.3312 H   0  0  0  0  0  0
  -24.3577  -36.8914   22.2042 H   0  0  0  0  0  0
  -23.7221  -37.6546   23.6622 H   0  0  0  0  0  0
  -26.0298  -31.6047   20.5792 H   0  0  0  0  0  0
  -26.8148  -30.9041   21.9668 H   0  0  0  0  0  0
  -28.0819  -29.1078   21.1716 H   0  0  0  0  0  0
  -25.9933  -25.9839   19.0084 H   0  0  0  0  0  0
  -23.9622  -27.3346   19.0062 H   0  0  0  0  0  0
  -23.7008  -30.6195   19.3996 H   0  0  0  0  0  0
  -22.7223  -29.2635   19.8623 H   0  0  0  0  0  0
  -25.1245  -36.1997   25.0855 H   0  0  0  0  0  0
  -21.0005  -28.3217   24.1431 H   0  0  0  0  0  0
  -20.5638  -26.2260   23.3612 H   0  0  0  0  0  0
  -21.6651  -26.7411   22.1220 H   0  0  0  0  0  0
  -19.6860  -25.6324   21.1222 H   0  0  0  0  0  0
  -19.6670  -27.3225   20.6765 H   0  0  0  0  0  0
  -17.4204  -26.6737   21.4035 H   0  0  0  0  0  0
  -18.0313  -26.0085   22.9017 H   0  0  0  0  0  0
  -19.7949  -30.7305   24.2249 H   0  0  0  0  0  0
  -17.5017  -31.6240   24.5232 H   0  0  0  0  0  0
  -15.5368  -30.3006   23.7593 H   0  0  0  0  0  0
  -15.8709  -28.0843   22.6999 H   0  0  0  0  0  0
  -24.6014  -30.6873   25.7916 H   0  0  0  0  0  0
  -24.8831  -32.2801   26.4900 H   0  0  0  0  0  0
  -25.8194  -30.8984   27.0302 H   0  0  0  0  0  0
  -26.2726  -29.6872   24.1075 H   0  0  0  0  0  0
  -27.3997  -29.7176   25.4423 H   0  0  0  0  0  0
  -27.8581  -30.4381   23.9154 H   0  0  0  0  0  0
  -27.2724  -33.3591   26.2088 H   0  0  0  0  0  0
  -28.3920  -32.6763   25.0383 H   0  0  0  0  0  0
  -28.0653  -31.8372   26.5450 H   0  0  0  0  0  0
  -28.2618  -38.0098   24.7527 H   0  0  0  0  0  0
  -28.1050  -36.2653   24.6286 H   0  0  0  0  0  0
  -27.2327  -37.1465   25.8874 H   0  0  0  0  0  0
  -20.9280  -29.8830   21.7013 H   0  0  0  0  0  0
  -26.0170  -38.2903   24.1425 H   0  0  0  0  0  0
  -27.7680  -20.7902   21.5418 H   0  0  0  0  0  0
  -26.0184  -19.8862   20.0561 H   0  0  0  0  0  0
  -28.4940  -17.1127   17.3840 H   0  0  0  0  0  0
  -27.7363  -15.8731   18.3516 H   0  0  0  0  0  0
  -29.4992  -16.1196   18.3994 H   0  0  0  0  0  0
  -31.3359  -24.2188   19.4060 H   0  0  0  0  0  0
  -30.5764  -25.7721   19.1237 H   0  0  0  0  0  0
  -29.8564  -24.3155   18.4504 H   0  0  0  0  0  0
  -31.2770  -19.5414   21.4560 H   0  0  0  0  0  0
  -30.3412  -19.1689   22.8780 H   0  0  0  0  0  0
  -31.1922  -17.0390   19.9670 H   0  0  0  0  0  0
  -30.9575  -17.2144   21.6783 H   0  0  0  0  0  0
  -31.1732  -21.4311   23.0039 H   0  0  0  0  0  0
  -29.4461  -21.4555   22.9906 H   0  0  0  0  0  0
  -28.6575  -22.6013   20.1818 H   0  0  0  0  0  0
  -28.5857  -23.0923   21.8546 H   0  0  0  0  0  0
  -27.6770  -24.8390   19.5459 H   0  0  0  0  0  0
  -27.5424  -25.1865   21.2588 H   0  0  0  0  0  0
  -30.0441  -25.0490   21.4271 H   0  0  0  0  0  0
  -29.0853  -15.3497   21.2316 H   0  0  0  0  0  0
  -30.7577  -21.8344   20.4111 H   0  0  0  0  0  0
  -31.1486  -22.9150   21.5604 H   0  0  0  0  0  0
  1 25  1  0  0  0
  1 30  2  0  0  0
  1 85  1  0  0  0
  2  3  1  0  0  0
  2 25  1  0  0  0
  2 87  1  0  0  0
  2 88  1  0  0  0
  3  4  1  0  0  0
  3 89  1  0  0  0
  3 90  1  0  0  0
  4  5  1  0  0  0
  4 91  1  0  0  0
  4 92  1  0  0  0
  5  6  1  0  0  0
  5 26  1  0  0  0
  5 93  1  0  0  0
  6 25  1  0  0  0
  6 94  1  0  0  0
  6 95  1  0  0  0
  7  8  2  0  0  0
  7 26  1  0  0  0
  7 29  1  0  0  0
  8  9  1  0  0  0
  8 22  1  0  0  0
  9 10  1  0  0  0
  9 27  2  0  0  0
 10 11  2  0  0  0
 10 15  1  0  0  0
 11 12  1  0  0  0
 11 96  1  0  0  0
 12 13  2  0  0  0
 12 97  1  0  0  0
 13 14  1  0  0  0
 13 31  1  0  0  0
 14 15  2  0  0  0
 14 98  1  0  0  0
 15 99  1  0  0  0
 16 17  2  0  0  0
 16 21  1  0  0  0
 16 31  1  0  0  0
 17 18  1  0  0  0
 17100  1  0  0  0
 18 19  2  0  0  0
 18101  1  0  0  0
 19 20  1  0  0  0
 19 24  1  0  0  0
 20 21  2  0  0  0
 20102  1  0  0  0
 21 23  1  0  0  0
 22 28  1  0  0  0
 22 32  2  0  0  0
 26 27  1  0  0  0
 28103  1  0  0  0
 28104  1  0  0  0
 29105  1  0  0  0
 29106  1  0  0  0
 33 34  1  0  0  0
 33 66  1  0  0  0
 33 70  2  0  0  0
 34 36  1  0  0  0
 34 59  1  0  0  0
 34107  1  0  0  0
 35 44  2  0  0  0
 35 45  1  0  0  0
 35 68  1  0  0  0
 36 56  1  0  0  0
 36108  1  0  0  0
 37 39  1  0  0  0
 37 47  1  0  0  0
 37 66  1  0  0  0
 37109  1  0  0  0
 38 43  2  0  0  0
 38 46  1  0  0  0
 38 47  1  0  0  0
 39 64  1  0  0  0
 39 67  2  0  0  0
 40 52  1  0  0  0
 40 53  2  0  0  0
 40 58  1  0  0  0
 41110  1  0  0  0
 41111  1  0  0  0
 41112  1  0  0  0
 41 48  1  0  0  0
 42 43  1  0  0  0
 42 66  1  0  0  0
 42113  1  0  0  0
 42114  1  0  0  0
 43 44  1  0  0  0
 44115  1  0  0  0
 45 46  2  0  0  0
 45116  1  0  0  0
 46117  1  0  0  0
 47118  1  0  0  0
 47119  1  0  0  0
 48 56  1  0  0  0
 48 65  1  0  0  0
 48120  1  0  0  0
 49 50  1  0  0  0
 49 53  1  0  0  0
 49 64  1  0  0  0
 49121  1  0  0  0
 50 51  1  0  0  0
 50122  1  0  0  0
 50123  1  0  0  0
 51 52  1  0  0  0
 51124  1  0  0  0
 51125  1  0  0  0
 52126  1  0  0  0
 52127  1  0  0  0
 53 54  1  0  0  0
 54 55  2  0  0  0
 54128  1  0  0  0
 55 57  1  0  0  0
 55129  1  0  0  0
 56 69  2  0  0  0
 57 58  2  0  0  0
 57130  1  0  0  0
 58131  1  0  0  0
 59 60  1  0  0  0
 59 61  1  0  0  0
 59 62  1  0  0  0
 60132  1  0  0  0
 60133  1  0  0  0
 60134  1  0  0  0
 61135  1  0  0  0
 61136  1  0  0  0
 61137  1  0  0  0
 62138  1  0  0  0
 62139  1  0  0  0
 62140  1  0  0  0
 63 65  1  0  0  0
 63141  1  0  0  0
 63142  1  0  0  0
 63143  1  0  0  0
 64144  1  0  0  0
 65145  1  0  0  0
 68 82  1  0  0  0
 71 72  2  0  0  0
 71 73  1  0  0  0
 71146  1  0  0  0
 72 84  1  0  0  0
 72147  1  0  0  0
 73 74  2  0  0  0
 73 78  1  0  0  0
 74 75  1  0  0  0
 74 79  1  0  0  0
 75 76  1  0  0  0
 75 84  2  0  0  0
 76148  1  0  0  0
 76149  1  0  0  0
 76150  1  0  0  0
 77151  1  0  0  0
 77152  1  0  0  0
 77153  1  0  0  0
 77 83  1  0  0  0
 78 80  1  0  0  0
 78154  1  0  0  0
 78155  1  0  0  0
 79 85  1  0  0  0
 79156  1  0  0  0
 79157  1  0  0  0
 80 86  1  0  0  0
 80158  1  0  0  0
 80159  1  0  0  0
 81 83  1  0  0  0
 81 86  1  0  0  0
 81160  1  0  0  0
 81161  1  0  0  0
 82 83  1  0  0  0
 82162  1  0  0  0
 82163  1  0  0  0
 83164  1  0  0  0
 85165  1  0  0  0
 86166  1  0  0  0
 86167  1  0  0  0
M  CHG  1  86   1
M  ISO  4   1 100  68 101  82 101  85 100
M  END
> <chiral flag>
0

> <version>
0

> <s_m_source_file>
/data/baiqing/PycharmProjects/Reinvent-master-3.2/result/LINK_invent/BTK/process_docking_weight1_custom_sum_contain_oxygen_bond_distance_aromatic_linkinvent_7_9_3/rearranged_h_0115.sdf

> <i_m_source_file_index>
46

> <r_mmod_Potential_Energy-OPLS-2005>
-307.402313232422

> <r_mmod_Stretch_Energy-OPLS-2005>
40.7761726379395

> <r_mmod_Bend_Energy-OPLS-2005>
109.836814880371

> <r_mmod_Torsional_Energy-OPLS-2005>
261.658264160156

> <r_mmod_Improper_Torsional_Energy-OPLS-2005>
5.59663915634155

> <r_mmod_Van_der_Waal_Energy-OPLS-2005>
156.06315612793

> <r_mmod_Electrostatic_Energy-OPLS-2005>
-410.9189453125

> <r_mmod_Solvation_Energy-OPLS-2005>
-485.844177246094

> <b_mmod_Minimization_Converged-OPLS-2005>
0

> <r_mmod_RMS_Derivative-OPLS-2005>
5.75580263137817

$$$$
46
                    3D
 Structure written by MMmdl.
164172  0  0  1  0            999 V2000
  -30.5526  -14.7973   20.4540 C   0  0  0  0  0  0
  -30.4485  -12.4916   19.4605 C   0  0  0  0  0  0
  -29.5128  -12.5206   18.2283 C   0  0  0  0  0  0
  -28.0385  -12.3340   18.6421 C   0  0  0  0  0  0
  -27.6395  -13.2284   19.8457 C   0  0  2  0  0  0
  -28.6892  -13.1578   20.9755 C   0  0  0  0  0  0
  -25.2502  -13.8182   20.5680 C   0  0  0  0  0  0
  -24.1806  -13.0424   20.9217 C   0  0  0  0  0  0
  -24.6404  -11.6907   20.8745 C   0  0  0  0  0  0
  -23.9083  -10.4292   21.0418 C   0  0  0  0  0  0
  -24.3629   -9.4204   21.9190 C   0  0  0  0  0  0
  -23.6302   -8.2244   22.0755 C   0  0  0  0  0  0
  -22.4285   -8.0287   21.3550 C   0  0  0  0  0  0
  -21.9927   -9.0260   20.4650 C   0  0  0  0  0  0
  -22.7252  -10.2134   20.3068 C   0  0  0  0  0  0
  -21.6851   -6.0741   22.5291 C   0  0  0  0  0  0
  -21.4011   -6.5644   23.8224 C   0  0  0  0  0  0
  -21.3661   -5.6792   24.9187 C   0  0  0  0  0  0
  -21.6049   -4.3057   24.7233 C   0  0  0  0  0  0
  -21.8820   -3.8148   23.4349 C   0  0  0  0  0  0
  -21.9199   -4.6968   22.3406 C   0  0  0  0  0  0
  -22.7824  -13.5204   21.1890 C   0  0  0  0  0  0
  -22.1665   -4.2156   21.0977 F   0  0  0  0  0  0
  -21.5632   -3.4536   25.7744 F   0  0  0  0  0  0
  -29.9827  -13.5433   20.3926 N   0  0  0  0  0  0
  -26.2927  -12.9374   20.3257 N   0  0  0  0  0  0
  -25.9330  -11.6521   20.5730 N   0  0  0  0  0  0
  -22.0475  -12.8183   22.0439 N   0  0  0  0  0  0
  -25.4144  -15.1907   20.4070 N   0  0  0  0  0  0
  -31.7421  -14.9615   20.1731 O   0  0  0  0  0  0
  -21.6644   -6.8884   21.4251 O   0  0  0  0  0  0
  -22.3518  -14.5515   20.6744 O   0  0  0  0  0  0
  -24.6343  -31.8538   23.1962 C   0  0  0  0  0  0
  -25.9158  -32.4751   23.8324 C   0  0  1  0  0  0
  -27.2220  -27.2276   20.1496 C   0  0  0  0  0  0
  -25.5944  -33.8557   24.2247 N   0  0  0  0  0  0
  -23.4334  -30.4734   21.5412 C   0  0  2  0  0  0
  -24.8822  -28.9054   20.1240 C   0  0  0  0  0  0
  -22.7514  -29.4597   22.4918 C   0  0  0  0  0  0
  -18.0291  -28.1398   22.8474 C   0  0  0  0  0  0
  -24.1485  -36.7272   23.2642 C   0  0  0  0  0  0
  -25.9827  -30.7512   21.3854 C   0  0  0  0  0  0
  -26.0541  -29.3656   20.7396 C   0  0  0  0  0  0
  -27.2290  -28.5402   20.7401 C   0  0  0  0  0  0
  -26.0311  -26.8410   19.5050 C   0  0  0  0  0  0
  -24.8766  -27.6500   19.4960 C   0  0  0  0  0  0
  -23.6578  -29.8023   20.1608 C   0  0  0  0  0  0
  -25.4121  -36.3073   24.0323 C   0  0  1  0  0  0
  -20.5890  -28.3721   23.1255 C   0  0  2  0  0  0
  -20.6782  -26.9436   22.5408 C   0  0  0  0  0  0
  -19.5760  -26.6392   21.5215 C   0  0  0  0  0  0
  -18.1937  -26.7940   22.1618 C   0  0  0  0  0  0
  -19.1545  -28.8877   23.2858 C   0  0  0  0  0  0
  -18.9470  -30.1473   23.8882 C   0  0  0  0  0  0
  -17.6471  -30.6596   24.0565 C   0  0  0  0  0  0
  -25.9064  -34.9440   23.5090 C   0  0  0  0  0  0
  -16.5359  -29.9092   23.6339 C   0  0  0  0  0  0
  -16.7283  -28.6509   23.0357 C   0  0  0  0  0  0
  -26.4510  -31.6579   25.0724 C   0  0  0  0  0  0
  -25.3726  -31.3707   26.1433 C   0  0  0  0  0  0
  -27.0376  -30.2997   24.6230 C   0  0  0  0  0  0
  -27.6057  -32.4328   25.7502 C   0  0  0  0  0  0
  -27.5579  -37.1798   24.8469 C   0  0  0  0  0  0
  -21.4218  -29.3056   22.3639 N   0  0  0  0  0  0
  -26.4292  -37.3776   23.9410 N   0  0  0  0  0  0
  -24.7028  -31.0458   22.0968 N   0  0  0  0  0  0
  -23.4181  -28.8163   23.3064 O   0  0  0  0  0  0
  -28.3236  -26.3393   20.0640 O   0  0  0  0  0  0
  -26.5643  -34.8919   22.4662 O   0  0  0  0  0  0
  -23.5484  -32.1389   23.7221 O   0  0  0  0  0  0
  -30.6158  -20.5888   18.3306 C   0  0  0  0  0  0
  -29.1037  -21.2364   20.3340 C   0  0  0  0  0  0
  -30.7719  -19.7363   17.0834 C   0  0  0  0  0  0
  -31.3314  -18.3661   17.4896 C   0  0  0  0  0  0
  -29.6441  -20.0161   19.3922 C   0  0  2  0  0  0
  -30.2740  -18.5070   19.7876 C   0  0  1  0  0  0
  -26.6818  -23.4316   20.0310 C   0  0  0  0  0  0
  -29.9072  -25.1934   21.4843 C   0  0  0  0  0  0
  -29.7127  -17.4104   20.8415 C   0  0  0  0  0  0
  -28.0650  -23.5402   20.6840 C   0  0  2  0  0  0
  -28.4727  -25.1229   20.9465 C   0  0  2  0  0  0
  -28.9867  -22.5285   19.9991 N   0  0  0  0  0  0
  -29.6794  -15.8748   20.5892 N   0  0  0  0  0  0
  -30.5231  -17.7152   18.5463 N   0  3  0  0  0  0
  -31.3277  -21.5880   18.4866 O   0  0  0  0  0  0
  -31.4833  -12.6535   19.1528 H   0  0  0  0  0  0
  -30.4261  -11.5141   19.9444 H   0  0  0  0  0  0
  -29.7993  -11.7487   17.5121 H   0  0  0  0  0  0
  -29.6252  -13.4734   17.7075 H   0  0  0  0  0  0
  -27.8980  -11.2835   18.8986 H   0  0  0  0  0  0
  -27.3823  -12.5302   17.7933 H   0  0  0  0  0  0
  -27.6273  -14.2485   19.4629 H   0  0  0  0  0  0
  -28.7390  -12.1508   21.3904 H   0  0  0  0  0  0
  -28.4163  -13.8137   21.8041 H   0  0  0  0  0  0
  -25.2778   -9.5665   22.4764 H   0  0  0  0  0  0
  -24.0019   -7.4618   22.7463 H   0  0  0  0  0  0
  -21.0865   -8.8772   19.8934 H   0  0  0  0  0  0
  -22.3727  -10.9672   19.6173 H   0  0  0  0  0  0
  -21.1999   -7.6153   23.9729 H   0  0  0  0  0  0
  -21.1477   -6.0524   25.9091 H   0  0  0  0  0  0
  -22.0597   -2.7611   23.2850 H   0  0  0  0  0  0
  -22.4087  -11.9828   22.4801 H   0  0  0  0  0  0
  -21.1086  -13.1188   22.2653 H   0  0  0  0  0  0
  -24.6302  -15.8276   20.5039 H   0  0  0  0  0  0
  -26.2407  -15.6368   20.0331 H   0  0  0  0  0  0
  -26.7224  -32.5388   23.1061 H   0  0  0  0  0  0
  -25.0087  -33.9705   25.0390 H   0  0  0  0  0  0
  -22.7318  -31.2958   21.3902 H   0  0  0  0  0  0
  -23.3763  -35.9589   23.3308 H   0  0  0  0  0  0
  -24.3561  -36.8899   22.2055 H   0  0  0  0  0  0
  -23.7220  -37.6462   23.6669 H   0  0  0  0  0  0
  -26.1259  -31.5025   20.6077 H   0  0  0  0  0  0
  -26.8581  -30.8054   22.0198 H   0  0  0  0  0  0
  -28.1336  -28.8972   21.2128 H   0  0  0  0  0  0
  -25.9906  -25.8933   18.9901 H   0  0  0  0  0  0
  -23.9858  -27.2950   18.9964 H   0  0  0  0  0  0
  -23.7944  -30.5778   19.4068 H   0  0  0  0  0  0
  -22.7728  -29.2434   19.8505 H   0  0  0  0  0  0
  -25.1301  -36.1919   25.0815 H   0  0  0  0  0  0
  -20.9974  -28.3320   24.1381 H   0  0  0  0  0  0
  -20.5691  -26.2344   23.3627 H   0  0  0  0  0  0
  -21.6656  -26.7461   22.1209 H   0  0  0  0  0  0
  -19.6933  -25.6299   21.1266 H   0  0  0  0  0  0
  -19.6704  -27.3187   20.6733 H   0  0  0  0  0  0
  -17.4214  -26.6688   21.4018 H   0  0  0  0  0  0
  -18.0330  -26.0082   22.9011 H   0  0  0  0  0  0
  -19.7949  -30.7290   24.2241 H   0  0  0  0  0  0
  -17.5030  -31.6272   24.5180 H   0  0  0  0  0  0
  -15.5364  -30.2998   23.7665 H   0  0  0  0  0  0
  -15.8680  -28.0831   22.7080 H   0  0  0  0  0  0
  -24.5911  -30.7060   25.7727 H   0  0  0  0  0  0
  -24.8917  -32.2871   26.4865 H   0  0  0  0  0  0
  -25.8046  -30.8862   27.0201 H   0  0  0  0  0  0
  -26.2977  -29.6723   24.1253 H   0  0  0  0  0  0
  -27.4049  -29.7274   25.4758 H   0  0  0  0  0  0
  -27.8852  -30.4265   23.9493 H   0  0  0  0  0  0
  -27.2662  -33.3633   26.2058 H   0  0  0  0  0  0
  -28.3877  -32.6882   25.0340 H   0  0  0  0  0  0
  -28.0717  -31.8472   26.5437 H   0  0  0  0  0  0
  -28.2596  -38.0094   24.7520 H   0  0  0  0  0  0
  -28.1075  -36.2628   24.6294 H   0  0  0  0  0  0
  -27.2298  -37.1444   25.8871 H   0  0  0  0  0  0
  -20.9421  -29.8744   21.6799 H   0  0  0  0  0  0
  -26.0168  -38.2845   24.1420 H   0  0  0  0  0  0
  -28.7079  -20.8762   21.2881 H   0  0  0  0  0  0
  -31.4380  -20.2313   16.3768 H   0  0  0  0  0  0
  -29.8014  -19.6337   16.5974 H   0  0  0  0  0  0
  -32.3601  -18.4750   17.8402 H   0  0  0  0  0  0
  -31.3729  -17.7119   16.6174 H   0  0  0  0  0  0
  -28.7499  -19.7684   18.8205 H   0  0  0  0  0  0
  -31.2704  -18.7295   20.1753 H   0  0  0  0  0  0
  -25.9465  -24.0369   20.5627 H   0  0  0  0  0  0
  -26.3136  -22.4058   20.0379 H   0  0  0  0  0  0
  -26.7135  -23.7634   18.9936 H   0  0  0  0  0  0
  -30.0525  -24.4980   22.3127 H   0  0  0  0  0  0
  -30.1390  -26.1940   21.8522 H   0  0  0  0  0  0
  -30.6296  -24.9429   20.7074 H   0  0  0  0  0  0
  -28.6772  -17.6868   21.0464 H   0  0  0  0  0  0
  -30.2231  -17.5668   21.7931 H   0  0  0  0  0  0
  -27.9231  -23.1625   21.6993 H   0  0  0  0  0  0
  -27.8460  -25.3926   21.7993 H   0  0  0  0  0  0
  -28.7395  -15.5214   20.6908 H   0  0  0  0  0  0
  -31.0147  -16.8782   18.8249 H   0  0  0  0  0  0
  -29.6424  -17.4141   18.1567 H   0  0  0  0  0  0
  1 25  1  0  0  0
  1 30  2  0  0  0
  1 83  1  0  0  0
  2  3  1  0  0  0
  2 25  1  0  0  0
  2 86  1  0  0  0
  2 87  1  0  0  0
  3  4  1  0  0  0
  3 88  1  0  0  0
  3 89  1  0  0  0
  4  5  1  0  0  0
  4 90  1  0  0  0
  4 91  1  0  0  0
  5  6  1  0  0  0
  5 26  1  0  0  0
  5 92  1  0  0  0
  6 25  1  0  0  0
  6 93  1  0  0  0
  6 94  1  0  0  0
  7  8  2  0  0  0
  7 26  1  0  0  0
  7 29  1  0  0  0
  8  9  1  0  0  0
  8 22  1  0  0  0
  9 10  1  0  0  0
  9 27  2  0  0  0
 10 11  2  0  0  0
 10 15  1  0  0  0
 11 12  1  0  0  0
 11 95  1  0  0  0
 12 13  2  0  0  0
 12 96  1  0  0  0
 13 14  1  0  0  0
 13 31  1  0  0  0
 14 15  2  0  0  0
 14 97  1  0  0  0
 15 98  1  0  0  0
 16 17  2  0  0  0
 16 21  1  0  0  0
 16 31  1  0  0  0
 17 18  1  0  0  0
 17 99  1  0  0  0
 18 19  2  0  0  0
 18100  1  0  0  0
 19 20  1  0  0  0
 19 24  1  0  0  0
 20 21  2  0  0  0
 20101  1  0  0  0
 21 23  1  0  0  0
 22 28  1  0  0  0
 22 32  2  0  0  0
 26 27  1  0  0  0
 28102  1  0  0  0
 28103  1  0  0  0
 29104  1  0  0  0
 29105  1  0  0  0
 33 34  1  0  0  0
 33 66  1  0  0  0
 33 70  2  0  0  0
 34 36  1  0  0  0
 34 59  1  0  0  0
 34106  1  0  0  0
 35 44  2  0  0  0
 35 45  1  0  0  0
 35 68  1  0  0  0
 36 56  1  0  0  0
 36107  1  0  0  0
 37 39  1  0  0  0
 37 47  1  0  0  0
 37 66  1  0  0  0
 37108  1  0  0  0
 38 43  2  0  0  0
 38 46  1  0  0  0
 38 47  1  0  0  0
 39 64  1  0  0  0
 39 67  2  0  0  0
 40 52  1  0  0  0
 40 53  2  0  0  0
 40 58  1  0  0  0
 41109  1  0  0  0
 41110  1  0  0  0
 41111  1  0  0  0
 41 48  1  0  0  0
 42 43  1  0  0  0
 42 66  1  0  0  0
 42112  1  0  0  0
 42113  1  0  0  0
 43 44  1  0  0  0
 44114  1  0  0  0
 45 46  2  0  0  0
 45115  1  0  0  0
 46116  1  0  0  0
 47117  1  0  0  0
 47118  1  0  0  0
 48 56  1  0  0  0
 48 65  1  0  0  0
 48119  1  0  0  0
 49 50  1  0  0  0
 49 53  1  0  0  0
 49 64  1  0  0  0
 49120  1  0  0  0
 50 51  1  0  0  0
 50121  1  0  0  0
 50122  1  0  0  0
 51 52  1  0  0  0
 51123  1  0  0  0
 51124  1  0  0  0
 52125  1  0  0  0
 52126  1  0  0  0
 53 54  1  0  0  0
 54 55  2  0  0  0
 54127  1  0  0  0
 55 57  1  0  0  0
 55128  1  0  0  0
 56 69  2  0  0  0
 57 58  2  0  0  0
 57129  1  0  0  0
 58130  1  0  0  0
 59 60  1  0  0  0
 59 61  1  0  0  0
 59 62  1  0  0  0
 60131  1  0  0  0
 60132  1  0  0  0
 60133  1  0  0  0
 61134  1  0  0  0
 61135  1  0  0  0
 61136  1  0  0  0
 62137  1  0  0  0
 62138  1  0  0  0
 62139  1  0  0  0
 63 65  1  0  0  0
 63140  1  0  0  0
 63141  1  0  0  0
 63142  1  0  0  0
 64143  1  0  0  0
 65144  1  0  0  0
 68 81  1  0  0  0
 71 73  1  0  0  0
 71 75  1  0  0  0
 71 85  2  0  0  0
 72 82  2  0  0  0
 72145  1  0  0  0
 72 75  1  0  0  0
 73 74  1  0  0  0
 73146  1  0  0  0
 73147  1  0  0  0
 74 84  1  0  0  0
 74148  1  0  0  0
 74149  1  0  0  0
 75 76  1  0  0  0
 75150  1  0  0  0
 76 79  1  0  0  0
 76 84  1  0  0  0
 76151  1  0  0  0
 77152  1  0  0  0
 77153  1  0  0  0
 77154  1  0  0  0
 77 80  1  0  0  0
 78155  1  0  0  0
 78156  1  0  0  0
 78157  1  0  0  0
 78 81  1  0  0  0
 79 83  1  0  0  0
 79158  1  0  0  0
 79159  1  0  0  0
 80 81  1  0  0  0
 80 82  1  0  0  0
 80160  1  0  0  0
 81161  1  0  0  0
 83162  1  0  0  0
 84163  1  0  0  0
 84164  1  0  0  0
M  CHG  1  84   1
M  ISO  4   1 100  68 101  81 101  83 100
M  END
> <chiral flag>
0

> <version>
0

> <s_m_source_file>
/data/baiqing/PycharmProjects/Reinvent-master-3.2/result/LINK_invent/BTK/process_docking_weight1_custom_sum_contain_oxygen_bond_distance_aromatic_linkinvent_7_9_3/rearranged_h_0115.sdf

> <i_m_source_file_index>
47

> <r_mmod_Potential_Energy-OPLS-2005>
120.221160888672

> <r_mmod_Stretch_Energy-OPLS-2005>
180.469314575195

> <r_mmod_Bend_Energy-OPLS-2005>
310.610046386719

> <r_mmod_Torsional_Energy-OPLS-2005>
289.245544433594

> <r_mmod_Improper_Torsional_Energy-OPLS-2005>
9.00684070587158

> <r_mmod_Van_der_Waal_Energy-OPLS-2005>
123.201545715332

> <r_mmod_Electrostatic_Energy-OPLS-2005>
-376.093139648438

> <r_mmod_Solvation_Energy-OPLS-2005>
-522.317687988281

> <b_mmod_Minimization_Converged-OPLS-2005>
0

> <r_mmod_RMS_Derivative-OPLS-2005>
1.75652742385864

$$$$
47
                    3D
 Structure written by MMmdl.
163170  0  0  1  0            999 V2000
  -30.5733  -14.9081   20.4218 C   0  0  0  0  0  0
  -30.4381  -12.5600   19.5040 C   0  0  0  0  0  0
  -29.5253  -12.5344   18.2574 C   0  0  0  0  0  0
  -28.0536  -12.3326   18.6653 C   0  0  0  0  0  0
  -27.6359  -13.2481   19.8468 C   0  0  2  0  0  0
  -28.6802  -13.2562   20.9872 C   0  0  0  0  0  0
  -25.2508  -13.8234   20.5703 C   0  0  0  0  0  0
  -24.1803  -13.0443   20.9212 C   0  0  0  0  0  0
  -24.6401  -11.6926   20.8732 C   0  0  0  0  0  0
  -23.9069  -10.4300   21.0389 C   0  0  0  0  0  0
  -24.3631   -9.4223   21.9171 C   0  0  0  0  0  0
  -23.6312   -8.2251   22.0743 C   0  0  0  0  0  0
  -22.4295   -8.0279   21.3524 C   0  0  0  0  0  0
  -21.9921   -9.0246   20.4625 C   0  0  0  0  0  0
  -22.7240  -10.2133   20.3032 C   0  0  0  0  0  0
  -21.6865   -6.0731   22.5271 C   0  0  0  0  0  0
  -21.4013   -6.5637   23.8202 C   0  0  0  0  0  0
  -21.3673   -5.6786   24.9178 C   0  0  0  0  0  0
  -21.6049   -4.3052   24.7226 C   0  0  0  0  0  0
  -21.8825   -3.8134   23.4349 C   0  0  0  0  0  0
  -21.9200   -4.6950   22.3407 C   0  0  0  0  0  0
  -22.7836  -13.5230   21.1879 C   0  0  0  0  0  0
  -22.1672   -4.2137   21.0982 F   0  0  0  0  0  0
  -21.5641   -3.4541   25.7743 F   0  0  0  0  0  0
  -29.9625  -13.6564   20.3948 N   0  0  0  0  0  0
  -26.2922  -12.9433   20.3269 N   0  0  0  0  0  0
  -25.9338  -11.6567   20.5739 N   0  0  0  0  0  0
  -22.0475  -12.8193   22.0416 N   0  0  0  0  0  0
  -25.4180  -15.1959   20.4139 N   0  0  0  0  0  0
  -31.7617  -14.9726   20.0943 O   0  0  0  0  0  0
  -21.6658   -6.8879   21.4225 O   0  0  0  0  0  0
  -22.3508  -14.5514   20.6712 O   0  0  0  0  0  0
  -24.6441  -31.8436   23.1865 C   0  0  0  0  0  0
  -25.9221  -32.4695   23.8241 C   0  0  1  0  0  0
  -27.2042  -27.1342   20.1386 C   0  0  0  0  0  0
  -25.5958  -33.8498   24.2151 N   0  0  0  0  0  0
  -23.4451  -30.4665   21.5348 C   0  0  2  0  0  0
  -24.8888  -28.8959   20.1091 C   0  0  0  0  0  0
  -22.7583  -29.4526   22.4846 C   0  0  0  0  0  0
  -18.0296  -28.1382   22.8487 C   0  0  0  0  0  0
  -24.1490  -36.7235   23.2652 C   0  0  0  0  0  0
  -26.0064  -30.7185   21.3841 C   0  0  0  0  0  0
  -26.0725  -29.3331   20.7179 C   0  0  0  0  0  0
  -27.2316  -28.4705   20.7094 C   0  0  0  0  0  0
  -25.9837  -26.7896   19.5130 C   0  0  0  0  0  0
  -24.8567  -27.6372   19.4941 C   0  0  0  0  0  0
  -23.6683  -29.8002   20.1537 C   0  0  0  0  0  0
  -25.4128  -36.3019   24.0307 C   0  0  1  0  0  0
  -20.5925  -28.3692   23.1265 C   0  0  2  0  0  0
  -20.6788  -26.9391   22.5436 C   0  0  0  0  0  0
  -19.5744  -26.6360   21.5251 C   0  0  0  0  0  0
  -18.1925  -26.7922   22.1643 C   0  0  0  0  0  0
  -19.1567  -28.8854   23.2864 C   0  0  0  0  0  0
  -18.9483  -30.1466   23.8857 C   0  0  0  0  0  0
  -17.6481  -30.6590   24.0548 C   0  0  0  0  0  0
  -25.9082  -34.9402   23.5028 C   0  0  0  0  0  0
  -16.5361  -29.9076   23.6357 C   0  0  0  0  0  0
  -16.7284  -28.6502   23.0367 C   0  0  0  0  0  0
  -26.4505  -31.6591   25.0709 C   0  0  0  0  0  0
  -25.3655  -31.3866   26.1398 C   0  0  0  0  0  0
  -27.0406  -30.2975   24.6364 C   0  0  0  0  0  0
  -27.5986  -32.4407   25.7520 C   0  0  0  0  0  0
  -27.5553  -37.1784   24.8460 C   0  0  0  0  0  0
  -21.4273  -29.3024   22.3632 N   0  0  0  0  0  0
  -26.4268  -37.3749   23.9405 N   0  0  0  0  0  0
  -24.7195  -31.0317   22.0895 N   0  0  0  0  0  0
  -23.4247  -28.8054   23.2966 O   0  0  0  0  0  0
  -28.2640  -26.1569   20.1933 O   0  0  0  0  0  0
  -26.5680  -34.8897   22.4614 O   0  0  0  0  0  0
  -23.5560  -32.1295   23.7104 O   0  0  0  0  0  0
  -31.6106  -21.4178   21.3542 C   0  0  0  0  0  0
  -27.9308  -21.5339   21.7699 C   0  0  0  0  0  0
  -31.6718  -20.6003   22.6490 C   0  0  0  0  0  0
  -31.0549  -20.7626   20.0775 C   0  0  0  0  0  0
  -29.0490  -23.3397   20.2381 C   0  0  0  0  0  0
  -30.1530  -17.5902   20.1905 C   0  0  0  0  0  0
  -29.2874  -18.9654   20.6599 C   0  0  0  0  0  0
  -27.9826  -24.6323   20.0489 C   0  0  0  0  0  0
  -28.6231  -21.6997   20.4045 C   0  0  1  0  0  0
  -29.8212  -16.0975   20.5898 N   0  0  0  0  0  0
  -32.3149  -21.4160   23.6982 N   0  3  0  0  0  0
  -29.5952  -20.4476   20.1413 N   0  3  1  0  0  0
  -31.9934  -22.5936   21.3313 O   0  0  0  0  0  0
  -31.4778  -12.6935   19.2013 H   0  0  0  0  0  0
  -30.4015  -11.6033   20.0258 H   0  0  0  0  0  0
  -29.8386  -11.7435   17.5757 H   0  0  0  0  0  0
  -29.6275  -13.4715   17.7084 H   0  0  0  0  0  0
  -27.9391  -11.2858   18.9497 H   0  0  0  0  0  0
  -27.3968  -12.4902   17.8076 H   0  0  0  0  0  0
  -27.6034  -14.2582   19.4363 H   0  0  0  0  0  0
  -28.7626  -12.2713   21.4513 H   0  0  0  0  0  0
  -28.3849  -13.9491   21.7782 H   0  0  0  0  0  0
  -25.2791   -9.5732   22.4734 H   0  0  0  0  0  0
  -24.0045   -7.4664   22.7472 H   0  0  0  0  0  0
  -21.0852   -8.8731   19.8946 H   0  0  0  0  0  0
  -22.3671  -10.9653   19.6140 H   0  0  0  0  0  0
  -21.1971   -7.6145   23.9697 H   0  0  0  0  0  0
  -21.1506   -6.0531   25.9086 H   0  0  0  0  0  0
  -22.0583   -2.7590   23.2853 H   0  0  0  0  0  0
  -22.4130  -11.9913   22.4862 H   0  0  0  0  0  0
  -21.1062  -13.1151   22.2550 H   0  0  0  0  0  0
  -24.6420  -15.8440   20.5004 H   0  0  0  0  0  0
  -26.2605  -15.6329   20.0616 H   0  0  0  0  0  0
  -26.7274  -32.5267   23.0951 H   0  0  0  0  0  0
  -25.0056  -33.9617   25.0268 H   0  0  0  0  0  0
  -22.7443  -31.2898   21.3819 H   0  0  0  0  0  0
  -23.3758  -35.9561   23.3322 H   0  0  0  0  0  0
  -24.3565  -36.8862   22.2060 H   0  0  0  0  0  0
  -23.7230  -37.6422   23.6696 H   0  0  0  0  0  0
  -26.1757  -31.4826   20.6255 H   0  0  0  0  0  0
  -26.8750  -30.7529   22.0328 H   0  0  0  0  0  0
  -28.1369  -28.8007   21.1985 H   0  0  0  0  0  0
  -25.8523  -25.8206   19.0553 H   0  0  0  0  0  0
  -23.9456  -27.2949   19.0219 H   0  0  0  0  0  0
  -23.7954  -30.5744   19.3954 H   0  0  0  0  0  0
  -22.7823  -29.2421   19.8461 H   0  0  0  0  0  0
  -25.1330  -36.1815   25.0797 H   0  0  0  0  0  0
  -21.0007  -28.3277   24.1390 H   0  0  0  0  0  0
  -20.5727  -26.2290   23.3650 H   0  0  0  0  0  0
  -21.6645  -26.7414   22.1196 H   0  0  0  0  0  0
  -19.6916  -25.6282   21.1266 H   0  0  0  0  0  0
  -19.6690  -27.3200   20.6806 H   0  0  0  0  0  0
  -17.4215  -26.6694   21.4018 H   0  0  0  0  0  0
  -18.0257  -26.0074   22.9031 H   0  0  0  0  0  0
  -19.7968  -30.7299   24.2187 H   0  0  0  0  0  0
  -17.5042  -31.6270   24.5145 H   0  0  0  0  0  0
  -15.5372  -30.2955   23.7735 H   0  0  0  0  0  0
  -15.8674  -28.0823   22.7090 H   0  0  0  0  0  0
  -24.5775  -30.7273   25.7737 H   0  0  0  0  0  0
  -24.8920  -32.3107   26.4730 H   0  0  0  0  0  0
  -25.7888  -30.9079   27.0238 H   0  0  0  0  0  0
  -26.3078  -29.6679   24.1304 H   0  0  0  0  0  0
  -27.3919  -29.7302   25.4998 H   0  0  0  0  0  0
  -27.9003  -30.4206   23.9771 H   0  0  0  0  0  0
  -27.2491  -33.3703   26.2038 H   0  0  0  0  0  0
  -28.3826  -32.7010   25.0392 H   0  0  0  0  0  0
  -28.0615  -31.8593   26.5501 H   0  0  0  0  0  0
  -28.2591  -38.0071   24.7513 H   0  0  0  0  0  0
  -28.1028  -36.2598   24.6290 H   0  0  0  0  0  0
  -27.2269  -37.1427   25.8867 H   0  0  0  0  0  0
  -20.9469  -29.8707   21.6798 H   0  0  0  0  0  0
  -26.0115  -38.2803   24.1443 H   0  0  0  0  0  0
  -27.4711  -20.5541   21.8759 H   0  0  0  0  0  0
  -27.1328  -22.2636   21.9046 H   0  0  0  0  0  0
  -28.6383  -21.6561   22.5888 H   0  0  0  0  0  0
  -32.2210  -19.6732   22.4922 H   0  0  0  0  0  0
  -30.6547  -20.3460   22.9444 H   0  0  0  0  0  0
  -31.6292  -19.8649   19.8507 H   0  0  0  0  0  0
  -31.2313  -21.4430   19.2451 H   0  0  0  0  0  0
  -29.6196  -23.5859   21.1307 H   0  0  0  0  0  0
  -29.7609  -23.4206   19.4167 H   0  0  0  0  0  0
  -31.1962  -17.7369   20.4691 H   0  0  0  0  0  0
  -30.1558  -17.5846   19.0988 H   0  0  0  0  0  0
  -29.3285  -19.0023   21.7496 H   0  0  0  0  0  0
  -28.2401  -18.7741   20.4280 H   0  0  0  0  0  0
  -27.6088  -24.5234   19.0291 H   0  0  0  0  0  0
  -27.1276  -24.4246   20.6947 H   0  0  0  0  0  0
  -27.8431  -21.5438   19.6575 H   0  0  0  0  0  0
  -28.8704  -15.9356   20.8910 H   0  0  0  0  0  0
  -33.3120  -21.4443   23.5751 H   0  0  0  0  0  0
  -32.1071  -21.0591   24.6133 H   0  0  0  0  0  0
  -31.9761  -22.3588   23.6147 H   0  0  0  0  0  0
  -29.4177  -20.3179   19.1545 H   0  0  0  0  0  0
  1 25  1  0  0  0
  1 30  2  0  0  0
  1 80  1  0  0  0
  2  3  1  0  0  0
  2 25  1  0  0  0
  2 84  1  0  0  0
  2 85  1  0  0  0
  3  4  1  0  0  0
  3 86  1  0  0  0
  3 87  1  0  0  0
  4  5  1  0  0  0
  4 88  1  0  0  0
  4 89  1  0  0  0
  5  6  1  0  0  0
  5 26  1  0  0  0
  5 90  1  0  0  0
  6 25  1  0  0  0
  6 91  1  0  0  0
  6 92  1  0  0  0
  7  8  2  0  0  0
  7 26  1  0  0  0
  7 29  1  0  0  0
  8  9  1  0  0  0
  8 22  1  0  0  0
  9 10  1  0  0  0
  9 27  2  0  0  0
 10 11  2  0  0  0
 10 15  1  0  0  0
 11 12  1  0  0  0
 11 93  1  0  0  0
 12 13  2  0  0  0
 12 94  1  0  0  0
 13 14  1  0  0  0
 13 31  1  0  0  0
 14 15  2  0  0  0
 14 95  1  0  0  0
 15 96  1  0  0  0
 16 17  2  0  0  0
 16 21  1  0  0  0
 16 31  1  0  0  0
 17 18  1  0  0  0
 17 97  1  0  0  0
 18 19  2  0  0  0
 18 98  1  0  0  0
 19 20  1  0  0  0
 19 24  1  0  0  0
 20 21  2  0  0  0
 20 99  1  0  0  0
 21 23  1  0  0  0
 22 28  1  0  0  0
 22 32  2  0  0  0
 26 27  1  0  0  0
 28100  1  0  0  0
 28101  1  0  0  0
 29102  1  0  0  0
 29103  1  0  0  0
 33 34  1  0  0  0
 33 66  1  0  0  0
 33 70  2  0  0  0
 34 36  1  0  0  0
 34 59  1  0  0  0
 34104  1  0  0  0
 35 44  2  0  0  0
 35 45  1  0  0  0
 35 68  1  0  0  0
 36 56  1  0  0  0
 36105  1  0  0  0
 37 39  1  0  0  0
 37 47  1  0  0  0
 37 66  1  0  0  0
 37106  1  0  0  0
 38 43  2  0  0  0
 38 46  1  0  0  0
 38 47  1  0  0  0
 39 64  1  0  0  0
 39 67  2  0  0  0
 40 52  1  0  0  0
 40 53  2  0  0  0
 40 58  1  0  0  0
 41107  1  0  0  0
 41108  1  0  0  0
 41109  1  0  0  0
 41 48  1  0  0  0
 42 43  1  0  0  0
 42 66  1  0  0  0
 42110  1  0  0  0
 42111  1  0  0  0
 43 44  1  0  0  0
 44112  1  0  0  0
 45 46  2  0  0  0
 45113  1  0  0  0
 46114  1  0  0  0
 47115  1  0  0  0
 47116  1  0  0  0
 48 56  1  0  0  0
 48 65  1  0  0  0
 48117  1  0  0  0
 49 50  1  0  0  0
 49 53  1  0  0  0
 49 64  1  0  0  0
 49118  1  0  0  0
 50 51  1  0  0  0
 50119  1  0  0  0
 50120  1  0  0  0
 51 52  1  0  0  0
 51121  1  0  0  0
 51122  1  0  0  0
 52123  1  0  0  0
 52124  1  0  0  0
 53 54  1  0  0  0
 54 55  2  0  0  0
 54125  1  0  0  0
 55 57  1  0  0  0
 55126  1  0  0  0
 56 69  2  0  0  0
 57 58  2  0  0  0
 57127  1  0  0  0
 58128  1  0  0  0
 59 60  1  0  0  0
 59 61  1  0  0  0
 59 62  1  0  0  0
 60129  1  0  0  0
 60130  1  0  0  0
 60131  1  0  0  0
 61132  1  0  0  0
 61133  1  0  0  0
 61134  1  0  0  0
 62135  1  0  0  0
 62136  1  0  0  0
 62137  1  0  0  0
 63 65  1  0  0  0
 63138  1  0  0  0
 63139  1  0  0  0
 63140  1  0  0  0
 64141  1  0  0  0
 65142  1  0  0  0
 68 78  1  0  0  0
 71 73  1  0  0  0
 71 74  1  0  0  0
 71 83  2  0  0  0
 72143  1  0  0  0
 72144  1  0  0  0
 72145  1  0  0  0
 72 79  1  0  0  0
 73 81  1  0  0  0
 73146  1  0  0  0
 73147  1  0  0  0
 74148  1  0  0  0
 74149  1  0  0  0
 74 82  1  0  0  0
 75 78  1  0  0  0
 75 79  1  0  0  0
 75150  1  0  0  0
 75151  1  0  0  0
 76 77  1  0  0  0
 76 80  1  0  0  0
 76152  1  0  0  0
 76153  1  0  0  0
 77 82  1  0  0  0
 77154  1  0  0  0
 77155  1  0  0  0
 78156  1  0  0  0
 78157  1  0  0  0
 79 82  1  0  0  0
 79158  1  0  0  0
 80159  1  0  0  0
 81160  1  0  0  0
 81161  1  0  0  0
 81162  1  0  0  0
 82163  1  0  0  0
M  CHG  2  81   1  82   1
M  ISO  4   1 100  68 101  78 101  80 100
M  END
> <chiral flag>
0

> <version>
0

> <s_m_source_file>
/data/baiqing/PycharmProjects/Reinvent-master-3.2/result/LINK_invent/BTK/process_docking_weight1_custom_sum_contain_oxygen_bond_distance_aromatic_linkinvent_7_9_3/rearranged_h_0115.sdf

> <i_m_source_file_index>
48

> <r_mmod_Potential_Energy-OPLS-2005>
-67.3956909179688

> <r_mmod_Stretch_Energy-OPLS-2005>
275.632080078125

> <r_mmod_Bend_Energy-OPLS-2005>
276.673706054688

> <r_mmod_Torsional_Energy-OPLS-2005>
237.986129760742

> <r_mmod_Improper_Torsional_Energy-OPLS-2005>
5.20956659317017

> <r_mmod_Van_der_Waal_Energy-OPLS-2005>
115.304779052734

> <r_mmod_Electrostatic_Energy-OPLS-2005>
-78.0012588500977

> <r_mmod_Solvation_Energy-OPLS-2005>
-1075.83740234375

> <b_mmod_Minimization_Converged-OPLS-2005>
0

> <r_mmod_RMS_Derivative-OPLS-2005>
4.25597429275513

$$$$
48
                    3D
 Structure written by MMmdl.
157165  0  0  1  0            999 V2000
  -30.4003  -15.3561   20.4673 C   0  0  0  0  0  0
  -30.4538  -12.9040   19.5497 C   0  0  0  0  0  0
  -29.5454  -12.5721   18.3333 C   0  0  0  0  0  0
  -28.1042  -12.2585   18.7642 C   0  0  0  0  0  0
  -27.6048  -13.2608   19.8298 C   0  0  2  0  0  0
  -28.6243  -13.4800   20.9689 C   0  0  0  0  0  0
  -25.2282  -13.8170   20.5764 C   0  0  0  0  0  0
  -24.1635  -13.0470   20.9268 C   0  0  0  0  0  0
  -24.6218  -11.6897   20.8694 C   0  0  0  0  0  0
  -23.8932  -10.4317   21.0308 C   0  0  0  0  0  0
  -24.3511   -9.4274   21.9090 C   0  0  0  0  0  0
  -23.6268   -8.2281   22.0681 C   0  0  0  0  0  0
  -22.4268   -8.0244   21.3471 C   0  0  0  0  0  0
  -21.9843   -9.0203   20.4586 C   0  0  0  0  0  0
  -22.7093  -10.2127   20.2982 C   0  0  0  0  0  0
  -21.6868   -6.0684   22.5248 C   0  0  0  0  0  0
  -21.4014   -6.5583   23.8167 C   0  0  0  0  0  0
  -21.3675   -5.6744   24.9144 C   0  0  0  0  0  0
  -21.6055   -4.3006   24.7210 C   0  0  0  0  0  0
  -21.8823   -3.8090   23.4330 C   0  0  0  0  0  0
  -21.9220   -4.6910   22.3385 C   0  0  0  0  0  0
  -22.7637  -13.5202   21.1993 C   0  0  0  0  0  0
  -22.1664   -4.2070   21.0962 F   0  0  0  0  0  0
  -21.5678   -3.4500   25.7731 F   0  0  0  0  0  0
  -29.8543  -14.0345   20.3604 N   0  0  0  0  0  0
  -26.2698  -12.9432   20.3179 N   0  0  0  0  0  0
  -25.9129  -11.6529   20.5623 N   0  0  0  0  0  0
  -22.0317  -12.8228   22.0587 N   0  0  0  0  0  0
  -25.4100  -15.1957   20.4263 N   0  0  0  0  0  0
  -31.6285  -15.3722   20.2742 O   0  0  0  0  0  0
  -21.6660   -6.8827   21.4201 O   0  0  0  0  0  0
  -22.3302  -14.5538   20.6871 O   0  0  0  0  0  0
  -24.6716  -31.8164   23.1610 C   0  0  0  0  0  0
  -25.9436  -32.4523   23.8000 C   0  0  1  0  0  0
  -27.2016  -26.8069   20.2923 C   0  0  0  0  0  0
  -25.6091  -33.8293   24.1938 N   0  0  0  0  0  0
  -23.4867  -30.4203   21.5154 C   0  0  2  0  0  0
  -24.9402  -28.7733   20.1382 C   0  0  0  0  0  0
  -22.7664  -29.4444   22.4818 C   0  0  0  0  0  0
  -18.0405  -28.1533   22.8477 C   0  0  0  0  0  0
  -24.1537  -36.7067   23.2589 C   0  0  0  0  0  0
  -26.0553  -30.6107   21.3828 C   0  0  0  0  0  0
  -26.1307  -29.1776   20.7540 C   0  0  0  0  0  0
  -27.2567  -28.2185   20.7860 C   0  0  0  0  0  0
  -25.9835  -26.5822   19.6164 C   0  0  0  0  0  0
  -24.8945  -27.4976   19.5506 C   0  0  0  0  0  0
  -23.7341  -29.7155   20.1508 C   0  0  0  0  0  0
  -25.4170  -36.2789   24.0221 C   0  0  1  0  0  0
  -20.6018  -28.3787   23.1267 C   0  0  2  0  0  0
  -20.6847  -26.9465   22.5423 C   0  0  0  0  0  0
  -19.5798  -26.6451   21.5241 C   0  0  0  0  0  0
  -18.2000  -26.8114   22.1655 C   0  0  0  0  0  0
  -19.1657  -28.8995   23.2877 C   0  0  0  0  0  0
  -18.9536  -30.1620   23.8861 C   0  0  0  0  0  0
  -17.6501  -30.6649   24.0619 C   0  0  0  0  0  0
  -25.9162  -34.9253   23.4876 C   0  0  0  0  0  0
  -16.5408  -29.9115   23.6396 C   0  0  0  0  0  0
  -16.7396  -28.6603   23.0321 C   0  0  0  0  0  0
  -26.4685  -31.6469   25.0504 C   0  0  0  0  0  0
  -25.3801  -31.3817   26.1141 C   0  0  0  0  0  0
  -27.0421  -30.2784   24.6153 C   0  0  0  0  0  0
  -27.6218  -32.4191   25.7366 C   0  0  0  0  0  0
  -27.5565  -37.1590   24.8439 C   0  0  0  0  0  0
  -21.4339  -29.3061   22.3573 N   0  0  0  0  0  0
  -26.4247  -37.3561   23.9439 N   0  0  0  0  0  0
  -24.7604  -30.9703   22.0803 N   0  0  0  0  0  0
  -23.4140  -28.8046   23.3138 O   0  0  0  0  0  0
  -28.1806  -25.6485   20.4067 O   0  0  0  0  0  0
  -26.5693  -34.8831   22.4418 O   0  0  0  0  0  0
  -23.5767  -32.1253   23.6678 O   0  0  0  0  0  0
  -29.2879  -20.2298   22.0436 C   0  0  0  0  0  0
  -29.3195  -19.4441   20.0377 C   0  0  0  0  0  0
  -29.6251  -18.8540   22.1367 C   0  0  0  0  0  0
  -29.5929  -18.2316   20.8219 C   0  0  0  0  0  0
  -31.3472  -18.6757   23.9903 C   0  0  0  0  0  0
  -29.9446  -16.6543   23.5585 C   0  0  0  0  0  0
  -27.2132  -23.7898   22.0032 C   0  0  0  0  0  0
  -28.9906  -22.4479   20.2872 C   0  0  0  0  0  0
  -29.9726  -18.1942   23.4887 C   0  0  0  0  0  0
  -27.9506  -23.9633   20.6255 C   0  0  1  0  0  0
  -29.1060  -20.7734   20.7458 N   0  0  0  0  0  0
  -29.5805  -16.6086   20.5432 N   0  0  0  0  0  0
  -31.4197  -13.2223   19.1578 H   0  0  0  0  0  0
  -30.6525  -12.0300   20.1770 H   0  0  0  0  0  0
  -29.9660  -11.7376   17.7668 H   0  0  0  0  0  0
  -29.5285  -13.4267   17.6545 H   0  0  0  0  0  0
  -28.0989  -11.2551   19.1887 H   0  0  0  0  0  0
  -27.4361  -12.2341   17.9027 H   0  0  0  0  0  0
  -27.5190  -14.2060   19.2975 H   0  0  0  0  0  0
  -28.8113  -12.5492   21.5041 H   0  0  0  0  0  0
  -28.2217  -14.1823   21.7011 H   0  0  0  0  0  0
  -25.2607   -9.5828   22.4690 H   0  0  0  0  0  0
  -23.9995   -7.4652   22.7361 H   0  0  0  0  0  0
  -21.0782   -8.8638   19.8879 H   0  0  0  0  0  0
  -22.3409  -10.9647   19.6126 H   0  0  0  0  0  0
  -21.1949   -7.6075   23.9667 H   0  0  0  0  0  0
  -21.1506   -6.0459   25.9051 H   0  0  0  0  0  0
  -22.0608   -2.7554   23.2852 H   0  0  0  0  0  0
  -22.3896  -11.9907   22.5072 H   0  0  0  0  0  0
  -21.0867  -13.1140   22.2683 H   0  0  0  0  0  0
  -24.6715  -15.8727   20.5791 H   0  0  0  0  0  0
  -26.2831  -15.6237   20.1522 H   0  0  0  0  0  0
  -26.7504  -32.5059   23.0678 H   0  0  0  0  0  0
  -25.0152  -33.9341   25.0048 H   0  0  0  0  0  0
  -22.8058  -31.2539   21.3293 H   0  0  0  0  0  0
  -23.3774  -35.9411   23.3166 H   0  0  0  0  0  0
  -24.3639  -36.8828   22.2016 H   0  0  0  0  0  0
  -23.7359  -37.6208   23.6789 H   0  0  0  0  0  0
  -26.1981  -31.3450   20.5860 H   0  0  0  0  0  0
  -26.9224  -30.7016   22.0241 H   0  0  0  0  0  0
  -28.1628  -28.5414   21.2810 H   0  0  0  0  0  0
  -25.8273  -25.6010   19.1856 H   0  0  0  0  0  0
  -23.9762  -27.1521   19.1018 H   0  0  0  0  0  0
  -23.8875  -30.4704   19.3770 H   0  0  0  0  0  0
  -22.8478  -29.1575   19.8415 H   0  0  0  0  0  0
  -25.1411  -36.1372   25.0689 H   0  0  0  0  0  0
  -21.0191  -28.3372   24.1357 H   0  0  0  0  0  0
  -20.5746  -26.2311   23.3599 H   0  0  0  0  0  0
  -21.6704  -26.7437   22.1190 H   0  0  0  0  0  0
  -19.6848  -25.6337   21.1274 H   0  0  0  0  0  0
  -19.6834  -27.3268   20.6808 H   0  0  0  0  0  0
  -17.4256  -26.6927   21.4085 H   0  0  0  0  0  0
  -18.0394  -26.0346   22.9134 H   0  0  0  0  0  0
  -19.7968  -30.7560   24.2099 H   0  0  0  0  0  0
  -17.5001  -31.6329   24.5229 H   0  0  0  0  0  0
  -15.5382  -30.2921   23.7826 H   0  0  0  0  0  0
  -15.8846  -28.0920   22.6937 H   0  0  0  0  0  0
  -24.6164  -30.6940   25.7488 H   0  0  0  0  0  0
  -24.8744  -32.3009   26.4072 H   0  0  0  0  0  0
  -25.7996  -30.9353   27.0157 H   0  0  0  0  0  0
  -26.2972  -29.6562   24.1142 H   0  0  0  0  0  0
  -27.3929  -29.7054   25.4733 H   0  0  0  0  0  0
  -27.8998  -30.3840   23.9516 H   0  0  0  0  0  0
  -27.2968  -33.3731   26.1539 H   0  0  0  0  0  0
  -28.4333  -32.6276   25.0384 H   0  0  0  0  0  0
  -28.0532  -31.8441   26.5559 H   0  0  0  0  0  0
  -28.2415  -38.0027   24.7577 H   0  0  0  0  0  0
  -28.1213  -36.2502   24.6200 H   0  0  0  0  0  0
  -27.2261  -37.1191   25.8830 H   0  0  0  0  0  0
  -20.9545  -29.8540   21.6564 H   0  0  0  0  0  0
  -25.9977  -38.2504   24.1661 H   0  0  0  0  0  0
  -29.1991  -20.9038   22.8841 H   0  0  0  0  0  0
  -29.2860  -19.4767   18.9534 H   0  0  0  0  0  0
  -31.3035  -19.7114   24.3358 H   0  0  0  0  0  0
  -32.1080  -18.5907   23.2117 H   0  0  0  0  0  0
  -31.6975  -18.0618   24.8244 H   0  0  0  0  0  0
  -29.0287  -16.2313   23.1500 H   0  0  0  0  0  0
  -29.9880  -16.3176   24.5964 H   0  0  0  0  0  0
  -30.8113  -16.2121   23.0605 H   0  0  0  0  0  0
  -27.5635  -24.4494   22.8029 H   0  0  0  0  0  0
  -27.3494  -22.7877   22.4135 H   0  0  0  0  0  0
  -26.1237  -23.9142   21.9098 H   0  0  0  0  0  0
  -29.0697  -22.4284   19.1881 H   0  0  0  0  0  0
  -29.9838  -22.7944   20.5940 H   0  0  0  0  0  0
  -29.2413  -18.5449   24.2181 H   0  0  0  0  0  0
  -27.1296  -23.7737   19.9309 H   0  0  0  0  0  0
  -28.6245  -16.2789   20.5670 H   0  0  0  0  0  0
  1 25  1  0  0  0
  1 30  2  0  0  0
  1 82  1  0  0  0
  2  3  1  0  0  0
  2 25  1  0  0  0
  2 83  1  0  0  0
  2 84  1  0  0  0
  3  4  1  0  0  0
  3 85  1  0  0  0
  3 86  1  0  0  0
  4  5  1  0  0  0
  4 87  1  0  0  0
  4 88  1  0  0  0
  5  6  1  0  0  0
  5 26  1  0  0  0
  5 89  1  0  0  0
  6 25  1  0  0  0
  6 90  1  0  0  0
  6 91  1  0  0  0
  7  8  2  0  0  0
  7 26  1  0  0  0
  7 29  1  0  0  0
  8  9  1  0  0  0
  8 22  1  0  0  0
  9 10  1  0  0  0
  9 27  2  0  0  0
 10 11  2  0  0  0
 10 15  1  0  0  0
 11 12  1  0  0  0
 11 92  1  0  0  0
 12 13  2  0  0  0
 12 93  1  0  0  0
 13 14  1  0  0  0
 13 31  1  0  0  0
 14 15  2  0  0  0
 14 94  1  0  0  0
 15 95  1  0  0  0
 16 17  2  0  0  0
 16 21  1  0  0  0
 16 31  1  0  0  0
 17 18  1  0  0  0
 17 96  1  0  0  0
 18 19  2  0  0  0
 18 97  1  0  0  0
 19 20  1  0  0  0
 19 24  1  0  0  0
 20 21  2  0  0  0
 20 98  1  0  0  0
 21 23  1  0  0  0
 22 28  1  0  0  0
 22 32  2  0  0  0
 26 27  1  0  0  0
 28 99  1  0  0  0
 28100  1  0  0  0
 29101  1  0  0  0
 29102  1  0  0  0
 33 34  1  0  0  0
 33 66  1  0  0  0
 33 70  2  0  0  0
 34 36  1  0  0  0
 34 59  1  0  0  0
 34103  1  0  0  0
 35 44  2  0  0  0
 35 45  1  0  0  0
 35 68  1  0  0  0
 36 56  1  0  0  0
 36104  1  0  0  0
 37 39  1  0  0  0
 37 47  1  0  0  0
 37 66  1  0  0  0
 37105  1  0  0  0
 38 43  2  0  0  0
 38 46  1  0  0  0
 38 47  1  0  0  0
 39 64  1  0  0  0
 39 67  2  0  0  0
 40 52  1  0  0  0
 40 53  2  0  0  0
 40 58  1  0  0  0
 41106  1  0  0  0
 41107  1  0  0  0
 41108  1  0  0  0
 41 48  1  0  0  0
 42 43  1  0  0  0
 42 66  1  0  0  0
 42109  1  0  0  0
 42110  1  0  0  0
 43 44  1  0  0  0
 44111  1  0  0  0
 45 46  2  0  0  0
 45112  1  0  0  0
 46113  1  0  0  0
 47114  1  0  0  0
 47115  1  0  0  0
 48 56  1  0  0  0
 48 65  1  0  0  0
 48116  1  0  0  0
 49 50  1  0  0  0
 49 53  1  0  0  0
 49 64  1  0  0  0
 49117  1  0  0  0
 50 51  1  0  0  0
 50118  1  0  0  0
 50119  1  0  0  0
 51 52  1  0  0  0
 51120  1  0  0  0
 51121  1  0  0  0
 52122  1  0  0  0
 52123  1  0  0  0
 53 54  1  0  0  0
 54 55  2  0  0  0
 54124  1  0  0  0
 55 57  1  0  0  0
 55125  1  0  0  0
 56 69  2  0  0  0
 57 58  2  0  0  0
 57126  1  0  0  0
 58127  1  0  0  0
 59 60  1  0  0  0
 59 61  1  0  0  0
 59 62  1  0  0  0
 60128  1  0  0  0
 60129  1  0  0  0
 60130  1  0  0  0
 61131  1  0  0  0
 61132  1  0  0  0
 61133  1  0  0  0
 62134  1  0  0  0
 62135  1  0  0  0
 62136  1  0  0  0
 63 65  1  0  0  0
 63137  1  0  0  0
 63138  1  0  0  0
 63139  1  0  0  0
 64140  1  0  0  0
 65141  1  0  0  0
 68 80  1  0  0  0
 71 73  2  0  0  0
 71 81  1  0  0  0
 71142  1  0  0  0
 72 74  2  0  0  0
 72 81  1  0  0  0
 72143  1  0  0  0
 73 74  1  0  0  0
 73 79  1  0  0  0
 74 82  1  0  0  0
 75144  1  0  0  0
 75145  1  0  0  0
 75146  1  0  0  0
 75 79  1  0  0  0
 76 79  1  0  0  0
 76147  1  0  0  0
 76148  1  0  0  0
 76149  1  0  0  0
 77150  1  0  0  0
 77151  1  0  0  0
 77152  1  0  0  0
 77 80  1  0  0  0
 78 80  1  0  0  0
 78 81  1  0  0  0
 78153  1  0  0  0
 78154  1  0  0  0
 79155  1  0  0  0
 80156  1  0  0  0
 82157  1  0  0  0
M  ISO  4   1 100  68 101  80 101  82 100
M  END
> <chiral flag>
0

> <version>
0

> <s_m_source_file>
/data/baiqing/PycharmProjects/Reinvent-master-3.2/result/LINK_invent/BTK/process_docking_weight1_custom_sum_contain_oxygen_bond_distance_aromatic_linkinvent_7_9_3/rearranged_h_0115.sdf

> <i_m_source_file_index>
49

> <r_mmod_Potential_Energy-OPLS-2005>
1690.86352539062

> <r_mmod_Stretch_Energy-OPLS-2005>
734.232421875

> <r_mmod_Bend_Energy-OPLS-2005>
520.930603027344

> <r_mmod_Torsional_Energy-OPLS-2005>
278.919738769531

> <r_mmod_Improper_Torsional_Energy-OPLS-2005>
9.93954944610596

> <r_mmod_Van_der_Waal_Energy-OPLS-2005>
102.724151611328

> <r_mmod_Electrostatic_Energy-OPLS-2005>
-360.28662109375

> <r_mmod_Solvation_Energy-OPLS-2005>
-211.968109130859

> <b_mmod_Minimization_Converged-OPLS-2005>
0

> <r_mmod_RMS_Derivative-OPLS-2005>
12.9812564849854

$$$$
49
                    3D
 Structure written by MMmdl.
172180  0  0  1  0            999 V2000
  -30.7757  -14.3610   20.6573 C   0  0  0  0  0  0
  -30.4114  -12.2805   19.3902 C   0  0  0  0  0  0
  -29.4801  -12.5299   18.1893 C   0  0  0  0  0  0
  -28.0047  -12.3914   18.6070 C   0  0  0  0  0  0
  -27.6687  -13.2067   19.8833 C   0  0  2  0  0  0
  -28.7102  -12.9487   20.9961 C   0  0  0  0  0  0
  -25.2607  -13.8141   20.5623 C   0  0  0  0  0  0
  -24.1858  -13.0437   20.9140 C   0  0  0  0  0  0
  -24.6413  -11.6904   20.8737 C   0  0  0  0  0  0
  -23.9070  -10.4295   21.0412 C   0  0  0  0  0  0
  -24.3623   -9.4211   21.9188 C   0  0  0  0  0  0
  -23.6298   -8.2244   22.0757 C   0  0  0  0  0  0
  -22.4276   -8.0286   21.3549 C   0  0  0  0  0  0
  -21.9915   -9.0265   20.4650 C   0  0  0  0  0  0
  -22.7245  -10.2141   20.3063 C   0  0  0  0  0  0
  -21.6856   -6.0741   22.5282 C   0  0  0  0  0  0
  -21.4011   -6.5645   23.8218 C   0  0  0  0  0  0
  -21.3655   -5.6793   24.9180 C   0  0  0  0  0  0
  -21.6046   -4.3061   24.7226 C   0  0  0  0  0  0
  -21.8821   -3.8153   23.4351 C   0  0  0  0  0  0
  -21.9191   -4.6967   22.3408 C   0  0  0  0  0  0
  -22.7882  -13.5249   21.1820 C   0  0  0  0  0  0
  -22.1665   -4.2157   21.0986 F   0  0  0  0  0  0
  -21.5627   -3.4542   25.7740 F   0  0  0  0  0  0
  -30.0526  -13.2305   20.4537 N   0  0  0  0  0  0
  -26.3075  -12.9329   20.3418 N   0  0  0  0  0  0
  -25.9349  -11.6485   20.5803 N   0  0  0  0  0  0
  -22.0522  -12.8251   22.0388 N   0  0  0  0  0  0
  -25.4319  -15.1828   20.3930 N   0  0  0  0  0  0
  -31.8003  -14.6340   20.0257 O   0  0  0  0  0  0
  -21.6642   -6.8886   21.4246 O   0  0  0  0  0  0
  -22.3565  -14.5562   20.6682 O   0  0  0  0  0  0
  -24.6153  -31.8697   23.2062 C   0  0  0  0  0  0
  -25.9061  -32.4818   23.8345 C   0  0  1  0  0  0
  -27.2307  -27.4414   20.0691 C   0  0  0  0  0  0
  -25.5947  -33.8610   24.2283 N   0  0  0  0  0  0
  -23.3984  -30.4945   21.5499 C   0  0  2  0  0  0
  -24.8374  -28.9535   20.1178 C   0  0  0  0  0  0
  -22.7395  -29.4667   22.4985 C   0  0  0  0  0  0
  -18.0272  -28.1365   22.8470 C   0  0  0  0  0  0
  -24.1488  -36.7261   23.2636 C   0  0  0  0  0  0
  -25.9283  -30.8270   21.3629 C   0  0  0  0  0  0
  -25.9992  -29.4625   20.7113 C   0  0  0  0  0  0
  -27.1933  -28.7077   20.6936 C   0  0  0  0  0  0
  -26.0419  -26.9323   19.4959 C   0  0  0  0  0  0
  -24.8519  -27.6839   19.5174 C   0  0  0  0  0  0
  -23.6032  -29.8254   20.1659 C   0  0  0  0  0  0
  -25.4122  -36.3072   24.0311 C   0  0  1  0  0  0
  -20.5862  -28.3651   23.1302 C   0  0  2  0  0  0
  -20.6781  -26.9392   22.5403 C   0  0  0  0  0  0
  -19.5774  -26.6361   21.5195 C   0  0  0  0  0  0
  -18.1936  -26.7909   22.1591 C   0  0  0  0  0  0
  -19.1520  -28.8821   23.2885 C   0  0  0  0  0  0
  -18.9488  -30.1438   23.8881 C   0  0  0  0  0  0
  -17.6507  -30.6592   24.0561 C   0  0  0  0  0  0
  -25.9067  -34.9462   23.5079 C   0  0  0  0  0  0
  -16.5384  -29.9092   23.6364 C   0  0  0  0  0  0
  -16.7265  -28.6518   23.0338 C   0  0  0  0  0  0
  -26.4465  -31.6622   25.0705 C   0  0  0  0  0  0
  -25.3706  -31.3785   26.1451 C   0  0  0  0  0  0
  -27.0298  -30.3075   24.6092 C   0  0  0  0  0  0
  -27.6028  -32.4355   25.7467 C   0  0  0  0  0  0
  -27.5565  -37.1776   24.8466 C   0  0  0  0  0  0
  -21.4129  -29.3028   22.3714 N   0  0  0  0  0  0
  -26.4280  -37.3782   23.9416 N   0  0  0  0  0  0
  -24.6652  -31.0796   22.0968 N   0  0  0  0  0  0
  -23.4167  -28.8215   23.3033 O   0  0  0  0  0  0
  -28.4323  -26.7621   20.0437 O   0  0  0  0  0  0
  -26.5617  -34.8914   22.4633 O   0  0  0  0  0  0
  -23.5359  -32.1461   23.7483 O   0  0  0  0  0  0
  -27.2522  -18.7781   20.2620 C   0  0  0  0  0  0
  -28.4027  -18.0928   22.0430 C   0  0  0  0  0  0
  -27.1825  -18.5790   21.6683 C   0  0  0  0  0  0
  -28.5195  -18.4899   19.8349 C   0  0  0  0  0  0
  -29.3539  -20.1824   18.1623 C   0  0  0  0  0  0
  -24.8103  -17.9855   22.3037 C   0  0  0  0  0  0
  -25.6440  -20.3759   22.4827 C   0  0  0  0  0  0
  -29.1168  -18.6952   18.4686 C   0  0  0  0  0  0
  -30.1037  -21.0193   19.2057 C   0  0  0  0  0  0
  -30.6305  -17.5751   20.9572 C   0  0  0  0  0  0
  -30.9456  -16.4530   21.9723 C   0  0  0  0  0  0
  -29.2104  -22.0379   19.9447 C   0  0  0  0  0  0
  -28.5996  -25.6336   19.1774 C   0  0  0  0  0  0
  -28.4243  -24.2922   19.9176 C   0  0  0  0  0  0
  -26.0186  -18.8907   22.5797 C   0  0  0  0  0  0
  -29.2280  -17.9999   20.9322 N   0  0  0  0  0  0
  -30.3233  -15.1773   21.6134 N   0  0  0  0  0  0
  -28.9839  -20.6791   17.0933 O   0  0  0  0  0  0
  -29.1447  -23.2689   19.2297 O   0  0  0  0  0  0
  -31.4548  -12.3681   19.0819 H   0  0  0  0  0  0
  -30.2975  -11.2578   19.7534 H   0  0  0  0  0  0
  -29.7062  -11.8315   17.3825 H   0  0  0  0  0  0
  -29.6545  -13.5289   17.7873 H   0  0  0  0  0  0
  -27.8030  -11.3336   18.7767 H   0  0  0  0  0  0
  -27.3526  -12.6968   17.7878 H   0  0  0  0  0  0
  -27.7266  -14.2623   19.6158 H   0  0  0  0  0  0
  -28.6684  -11.9074   21.3191 H   0  0  0  0  0  0
  -28.4677  -13.5351   21.8820 H   0  0  0  0  0  0
  -25.2771   -9.5687   22.4757 H   0  0  0  0  0  0
  -24.0013   -7.4638   22.7475 H   0  0  0  0  0  0
  -21.0843   -8.8785   19.8961 H   0  0  0  0  0  0
  -22.3707  -10.9683   19.6172 H   0  0  0  0  0  0
  -21.2001   -7.6149   23.9724 H   0  0  0  0  0  0
  -21.1474   -6.0524   25.9083 H   0  0  0  0  0  0
  -22.0599   -2.7613   23.2850 H   0  0  0  0  0  0
  -22.4138  -11.9908   22.4771 H   0  0  0  0  0  0
  -21.1152  -13.1296   22.2604 H   0  0  0  0  0  0
  -24.6758  -15.8416   20.5364 H   0  0  0  0  0  0
  -26.3102  -15.6369   20.1734 H   0  0  0  0  0  0
  -26.7123  -32.5528   23.1091 H   0  0  0  0  0  0
  -25.0170  -33.9805   25.0476 H   0  0  0  0  0  0
  -22.6894  -31.3117   21.4082 H   0  0  0  0  0  0
  -23.3764  -35.9581   23.3337 H   0  0  0  0  0  0
  -24.3585  -36.8863   22.2046 H   0  0  0  0  0  0
  -23.7219  -37.6460   23.6643 H   0  0  0  0  0  0
  -26.0500  -31.5873   20.5916 H   0  0  0  0  0  0
  -26.8119  -30.8710   21.9879 H   0  0  0  0  0  0
  -28.0921  -29.1059   21.1458 H   0  0  0  0  0  0
  -26.0077  -25.9582   19.0313 H   0  0  0  0  0  0
  -23.9543  -27.2757   19.0718 H   0  0  0  0  0  0
  -23.7174  -30.5969   19.4053 H   0  0  0  0  0  0
  -22.7249  -29.2486   19.8712 H   0  0  0  0  0  0
  -25.1305  -36.1914   25.0797 H   0  0  0  0  0  0
  -20.9938  -28.3227   24.1421 H   0  0  0  0  0  0
  -20.5687  -26.2256   23.3587 H   0  0  0  0  0  0
  -21.6662  -26.7455   22.1197 H   0  0  0  0  0  0
  -19.6952  -25.6265   21.1236 H   0  0  0  0  0  0
  -19.6725  -27.3179   20.6735 H   0  0  0  0  0  0
  -17.4201  -26.6643   21.3992 H   0  0  0  0  0  0
  -18.0363  -26.0036   22.8977 H   0  0  0  0  0  0
  -19.7990  -30.7248   24.2197 H   0  0  0  0  0  0
  -17.5098  -31.6283   24.5154 H   0  0  0  0  0  0
  -15.5396  -30.3006   23.7729 H   0  0  0  0  0  0
  -15.8651  -28.0890   22.7000 H   0  0  0  0  0  0
  -24.5858  -30.7152   25.7821 H   0  0  0  0  0  0
  -24.8908  -32.2959   26.4860 H   0  0  0  0  0  0
  -25.8025  -30.8982   27.0239 H   0  0  0  0  0  0
  -26.2851  -29.6828   24.1158 H   0  0  0  0  0  0
  -27.4112  -29.7334   25.4548 H   0  0  0  0  0  0
  -27.8646  -30.4434   23.9213 H   0  0  0  0  0  0
  -27.2658  -33.3672   26.2024 H   0  0  0  0  0  0
  -28.3836  -32.6911   25.0285 H   0  0  0  0  0  0
  -28.0679  -31.8481   26.5400 H   0  0  0  0  0  0
  -28.2573  -38.0087   24.7557 H   0  0  0  0  0  0
  -28.1050  -36.2610   24.6235 H   0  0  0  0  0  0
  -27.2284  -37.1393   25.8872 H   0  0  0  0  0  0
  -20.9265  -29.8741   21.6948 H   0  0  0  0  0  0
  -26.0146  -38.2825   24.1516 H   0  0  0  0  0  0
  -26.4633  -19.1697   19.6343 H   0  0  0  0  0  0
  -28.7603  -17.8304   23.0291 H   0  0  0  0  0  0
  -25.0711  -16.9348   22.4328 H   0  0  0  0  0  0
  -24.4322  -18.1222   21.2899 H   0  0  0  0  0  0
  -23.9952  -18.2014   22.9956 H   0  0  0  0  0  0
  -26.4976  -21.0141   22.7154 H   0  0  0  0  0  0
  -24.8476  -20.6270   23.1823 H   0  0  0  0  0  0
  -25.3001  -20.6335   21.4809 H   0  0  0  0  0  0
  -28.4398  -18.2915   17.7162 H   0  0  0  0  0  0
  -30.0541  -18.1593   18.3389 H   0  0  0  0  0  0
  -30.9597  -21.5093   18.7429 H   0  0  0  0  0  0
  -30.5171  -20.3281   19.9385 H   0  0  0  0  0  0
  -30.9353  -17.2442   19.9661 H   0  0  0  0  0  0
  -31.2411  -18.4496   21.1836 H   0  0  0  0  0  0
  -30.6498  -16.7315   22.9813 H   0  0  0  0  0  0
  -32.0287  -16.3203   22.0220 H   0  0  0  0  0  0
  -29.6331  -22.2156   20.9351 H   0  0  0  0  0  0
  -28.2068  -21.6358   20.0981 H   0  0  0  0  0  0
  -28.0015  -25.6785   18.2661 H   0  0  0  0  0  0
  -29.6313  -25.6955   18.8310 H   0  0  0  0  0  0
  -27.3716  -24.0267   20.0144 H   0  0  0  0  0  0
  -28.8173  -24.3933   20.9307 H   0  0  0  0  0  0
  -26.3484  -18.6978   23.6022 H   0  0  0  0  0  0
  -29.4843  -14.9044   22.1032 H   0  0  0  0  0  0
  1 25  1  0  0  0
  1 30  2  0  0  0
  1 87  1  0  0  0
  2  3  1  0  0  0
  2 25  1  0  0  0
  2 90  1  0  0  0
  2 91  1  0  0  0
  3  4  1  0  0  0
  3 92  1  0  0  0
  3 93  1  0  0  0
  4  5  1  0  0  0
  4 94  1  0  0  0
  4 95  1  0  0  0
  5  6  1  0  0  0
  5 26  1  0  0  0
  5 96  1  0  0  0
  6 25  1  0  0  0
  6 97  1  0  0  0
  6 98  1  0  0  0
  7  8  2  0  0  0
  7 26  1  0  0  0
  7 29  1  0  0  0
  8  9  1  0  0  0
  8 22  1  0  0  0
  9 10  1  0  0  0
  9 27  2  0  0  0
 10 11  2  0  0  0
 10 15  1  0  0  0
 11 12  1  0  0  0
 11 99  1  0  0  0
 12 13  2  0  0  0
 12100  1  0  0  0
 13 14  1  0  0  0
 13 31  1  0  0  0
 14 15  2  0  0  0
 14101  1  0  0  0
 15102  1  0  0  0
 16 17  2  0  0  0
 16 21  1  0  0  0
 16 31  1  0  0  0
 17 18  1  0  0  0
 17103  1  0  0  0
 18 19  2  0  0  0
 18104  1  0  0  0
 19 20  1  0  0  0
 19 24  1  0  0  0
 20 21  2  0  0  0
 20105  1  0  0  0
 21 23  1  0  0  0
 22 28  1  0  0  0
 22 32  2  0  0  0
 26 27  1  0  0  0
 28106  1  0  0  0
 28107  1  0  0  0
 29108  1  0  0  0
 29109  1  0  0  0
 33 34  1  0  0  0
 33 66  1  0  0  0
 33 70  2  0  0  0
 34 36  1  0  0  0
 34 59  1  0  0  0
 34110  1  0  0  0
 35 44  2  0  0  0
 35 45  1  0  0  0
 35 68  1  0  0  0
 36 56  1  0  0  0
 36111  1  0  0  0
 37 39  1  0  0  0
 37 47  1  0  0  0
 37 66  1  0  0  0
 37112  1  0  0  0
 38 43  2  0  0  0
 38 46  1  0  0  0
 38 47  1  0  0  0
 39 64  1  0  0  0
 39 67  2  0  0  0
 40 52  1  0  0  0
 40 53  2  0  0  0
 40 58  1  0  0  0
 41113  1  0  0  0
 41114  1  0  0  0
 41115  1  0  0  0
 41 48  1  0  0  0
 42 43  1  0  0  0
 42 66  1  0  0  0
 42116  1  0  0  0
 42117  1  0  0  0
 43 44  1  0  0  0
 44118  1  0  0  0
 45 46  2  0  0  0
 45119  1  0  0  0
 46120  1  0  0  0
 47121  1  0  0  0
 47122  1  0  0  0
 48 56  1  0  0  0
 48 65  1  0  0  0
 48123  1  0  0  0
 49 50  1  0  0  0
 49 53  1  0  0  0
 49 64  1  0  0  0
 49124  1  0  0  0
 50 51  1  0  0  0
 50125  1  0  0  0
 50126  1  0  0  0
 51 52  1  0  0  0
 51127  1  0  0  0
 51128  1  0  0  0
 52129  1  0  0  0
 52130  1  0  0  0
 53 54  1  0  0  0
 54 55  2  0  0  0
 54131  1  0  0  0
 55 57  1  0  0  0
 55132  1  0  0  0
 56 69  2  0  0  0
 57 58  2  0  0  0
 57133  1  0  0  0
 58134  1  0  0  0
 59 60  1  0  0  0
 59 61  1  0  0  0
 59 62  1  0  0  0
 60135  1  0  0  0
 60136  1  0  0  0
 60137  1  0  0  0
 61138  1  0  0  0
 61139  1  0  0  0
 61140  1  0  0  0
 62141  1  0  0  0
 62142  1  0  0  0
 62143  1  0  0  0
 63 65  1  0  0  0
 63144  1  0  0  0
 63145  1  0  0  0
 63146  1  0  0  0
 64147  1  0  0  0
 65148  1  0  0  0
 68 83  1  0  0  0
 71 73  1  0  0  0
 71 74  2  0  0  0
 71149  1  0  0  0
 72 73  2  0  0  0
 72 86  1  0  0  0
 72150  1  0  0  0
 73 85  1  0  0  0
 74 78  1  0  0  0
 74 86  1  0  0  0
 75 78  1  0  0  0
 75 79  1  0  0  0
 75 88  2  0  0  0
 76151  1  0  0  0
 76152  1  0  0  0
 76153  1  0  0  0
 76 85  1  0  0  0
 77 85  1  0  0  0
 77154  1  0  0  0
 77155  1  0  0  0
 77156  1  0  0  0
 78157  1  0  0  0
 78158  1  0  0  0
 79 82  1  0  0  0
 79159  1  0  0  0
 79160  1  0  0  0
 80 81  1  0  0  0
 80 86  1  0  0  0
 80161  1  0  0  0
 80162  1  0  0  0
 81 87  1  0  0  0
 81163  1  0  0  0
 81164  1  0  0  0
 82 89  1  0  0  0
 82165  1  0  0  0
 82166  1  0  0  0
 83 84  1  0  0  0
 83167  1  0  0  0
 83168  1  0  0  0
 84 89  1  0  0  0
 84169  1  0  0  0
 84170  1  0  0  0
 85171  1  0  0  0
 87172  1  0  0  0
M  ISO  4   1 100  68 101  83 101  87 100
M  END
> <chiral flag>
0

> <version>
0

> <s_m_source_file>
/data/baiqing/PycharmProjects/Reinvent-master-3.2/result/LINK_invent/BTK/process_docking_weight1_custom_sum_contain_oxygen_bond_distance_aromatic_linkinvent_7_9_3/rearranged_h_0115.sdf

> <i_m_source_file_index>
50

> <r_mmod_Potential_Energy-OPLS-2005>
-137.606948852539

> <r_mmod_Stretch_Energy-OPLS-2005>
33.5692596435547

> <r_mmod_Bend_Energy-OPLS-2005>
103.081886291504

> <r_mmod_Torsional_Energy-OPLS-2005>
205.395401000977

> <r_mmod_Improper_Torsional_Energy-OPLS-2005>
2.35419249534607

> <r_mmod_Van_der_Waal_Energy-OPLS-2005>
119.434303283691

> <r_mmod_Electrostatic_Energy-OPLS-2005>
-392.513153076172

> <r_mmod_Solvation_Energy-OPLS-2005>
-217.464782714844

> <b_mmod_Minimization_Converged-OPLS-2005>
0

> <r_mmod_RMS_Derivative-OPLS-2005>
2.81586599349976

$$$$
50
                    3D
 Structure written by MMmdl.
167174  0  0  1  0            999 V2000
  -30.5843  -14.7161   20.4760 C   0  0  0  0  0  0
  -30.4570  -12.4436   19.4391 C   0  0  0  0  0  0
  -29.5062  -12.4613   18.2191 C   0  0  0  0  0  0
  -28.0345  -12.2905   18.6495 C   0  0  0  0  0  0
  -27.6459  -13.2030   19.8410 C   0  0  2  0  0  0
  -28.6973  -13.1099   20.9674 C   0  0  0  0  0  0
  -25.2560  -13.8131   20.5643 C   0  0  0  0  0  0
  -24.1797  -13.0416   20.9191 C   0  0  0  0  0  0
  -24.6351  -11.6891   20.8781 C   0  0  0  0  0  0
  -23.9023  -10.4279   21.0439 C   0  0  0  0  0  0
  -24.3569   -9.4219   21.9224 C   0  0  0  0  0  0
  -23.6245   -8.2250   22.0804 C   0  0  0  0  0  0
  -22.4245   -8.0279   21.3548 C   0  0  0  0  0  0
  -21.9864   -9.0261   20.4676 C   0  0  0  0  0  0
  -22.7194  -10.2141   20.3086 C   0  0  0  0  0  0
  -21.6845   -6.0701   22.5278 C   0  0  0  0  0  0
  -21.3997   -6.5620   23.8203 C   0  0  0  0  0  0
  -21.3653   -5.6788   24.9174 C   0  0  0  0  0  0
  -21.6050   -4.3046   24.7238 C   0  0  0  0  0  0
  -21.8820   -3.8121   23.4369 C   0  0  0  0  0  0
  -21.9190   -4.6931   22.3404 C   0  0  0  0  0  0
  -22.7830  -13.5265   21.1826 C   0  0  0  0  0  0
  -22.1658   -4.2102   21.0989 F   0  0  0  0  0  0
  -21.5642   -3.4548   25.7757 F   0  0  0  0  0  0
  -29.9927  -13.4798   20.3801 N   0  0  0  0  0  0
  -26.2945  -12.9277   20.3238 N   0  0  0  0  0  0
  -25.9279  -11.6461   20.5775 N   0  0  0  0  0  0
  -22.0428  -12.8300   22.0381 N   0  0  0  0  0  0
  -25.4280  -15.1844   20.4031 N   0  0  0  0  0  0
  -31.7773  -14.8797   20.2146 O   0  0  0  0  0  0
  -21.6633   -6.8845   21.4225 O   0  0  0  0  0  0
  -22.3552  -14.5569   20.6660 O   0  0  0  0  0  0
  -24.6234  -31.8528   23.2032 C   0  0  0  0  0  0
  -25.9077  -32.4729   23.8354 C   0  0  1  0  0  0
  -27.2367  -27.2846   20.1227 C   0  0  0  0  0  0
  -25.5777  -33.8535   24.2212 N   0  0  0  0  0  0
  -23.4253  -30.4705   21.5476 C   0  0  2  0  0  0
  -24.8793  -28.9268   20.1084 C   0  0  0  0  0  0
  -22.7519  -29.4515   22.4959 C   0  0  0  0  0  0
  -18.0242  -28.1373   22.8461 C   0  0  0  0  0  0
  -24.1486  -36.7357   23.2646 C   0  0  0  0  0  0
  -25.9703  -30.7611   21.3996 C   0  0  0  0  0  0
  -26.0450  -29.3912   20.7316 C   0  0  0  0  0  0
  -27.2207  -28.5793   20.7375 C   0  0  0  0  0  0
  -26.0499  -26.8881   19.4607 C   0  0  0  0  0  0
  -24.8839  -27.6813   19.4619 C   0  0  0  0  0  0
  -23.6489  -29.8114   20.1616 C   0  0  0  0  0  0
  -25.4099  -36.3069   24.0295 C   0  0  1  0  0  0
  -20.5852  -28.3684   23.1283 C   0  0  2  0  0  0
  -20.6752  -26.9396   22.5432 C   0  0  0  0  0  0
  -19.5731  -26.6369   21.5216 C   0  0  0  0  0  0
  -18.1896  -26.7895   22.1625 C   0  0  0  0  0  0
  -19.1506  -28.8831   23.2849 C   0  0  0  0  0  0
  -18.9442  -30.1440   23.8858 C   0  0  0  0  0  0
  -17.6457  -30.6567   24.0558 C   0  0  0  0  0  0
  -25.9057  -34.9434   23.5121 C   0  0  0  0  0  0
  -16.5340  -29.9075   23.6314 C   0  0  0  0  0  0
  -16.7241  -28.6516   23.0286 C   0  0  0  0  0  0
  -26.4416  -31.6587   25.0802 C   0  0  0  0  0  0
  -25.3596  -31.3705   26.1519 C   0  0  0  0  0  0
  -27.0328  -30.2961   24.6427 C   0  0  0  0  0  0
  -27.5916  -32.4425   25.7535 C   0  0  0  0  0  0
  -27.5595  -37.1771   24.8412 C   0  0  0  0  0  0
  -21.4224  -29.3010   22.3713 N   0  0  0  0  0  0
  -26.4289  -37.3751   23.9387 N   0  0  0  0  0  0
  -24.6898  -31.0483   22.1030 N   0  0  0  0  0  0
  -23.4239  -28.8089   23.3068 O   0  0  0  0  0  0
  -28.3578  -26.4284   20.1942 O   0  0  0  0  0  0
  -26.5754  -34.8913   22.4775 O   0  0  0  0  0  0
  -23.5366  -32.1335   23.7314 O   0  0  0  0  0  0
  -33.0517  -17.9340   18.4147 C   0  0  0  0  0  0
  -33.8175  -19.9006   19.8365 C   0  0  0  0  0  0
  -28.8835  -23.8722   22.0641 C   0  0  0  0  0  0
  -29.4415  -19.7544   19.9773 C   0  0  0  0  0  0
  -29.9265  -17.2113   21.1553 C   0  0  0  0  0  0
  -29.8252  -21.2341   20.5222 C   0  0  0  0  0  0
  -28.2496  -24.9788   19.8290 C   0  0  0  0  0  0
  -32.6033  -19.1285   19.2887 C   0  0  0  0  0  0
  -29.1660  -23.8543   20.5435 C   0  0  2  0  0  0
  -30.3368  -18.3908   20.1483 C   0  0  2  0  0  0
  -29.7353  -15.7807   20.6806 N   0  0  0  0  0  0
  -29.0259  -22.4260   19.9635 N   0  3  0  0  0  0
  -31.7636  -18.6819   20.4215 N   0  3  0  0  0  0
  -31.4816  -12.6230   19.1089 H   0  0  0  0  0  0
  -30.4651  -11.4653   19.9216 H   0  0  0  0  0  0
  -29.7815  -11.6629   17.5284 H   0  0  0  0  0  0
  -29.6245  -13.3968   17.6693 H   0  0  0  0  0  0
  -27.9039  -11.2458   18.9376 H   0  0  0  0  0  0
  -27.3691  -12.4590   17.8043 H   0  0  0  0  0  0
  -27.6487  -14.2222   19.4565 H   0  0  0  0  0  0
  -28.7378  -12.0969   21.3722 H   0  0  0  0  0  0
  -28.4332  -13.7617   21.8023 H   0  0  0  0  0  0
  -25.2699   -9.5694   22.4828 H   0  0  0  0  0  0
  -23.9938   -7.4641   22.7557 H   0  0  0  0  0  0
  -21.0798   -8.8788   19.8994 H   0  0  0  0  0  0
  -22.3653  -10.9685   19.6213 H   0  0  0  0  0  0
  -21.1977   -7.6130   23.9668 H   0  0  0  0  0  0
  -21.1478   -6.0543   25.9068 H   0  0  0  0  0  0
  -22.0606   -2.7593   23.2902 H   0  0  0  0  0  0
  -22.3973  -11.9945   22.4770 H   0  0  0  0  0  0
  -21.1074  -13.1430   22.2553 H   0  0  0  0  0  0
  -24.6615  -15.8385   20.5223 H   0  0  0  0  0  0
  -26.2653  -15.6235   20.0428 H   0  0  0  0  0  0
  -26.7193  -32.5396   23.1137 H   0  0  0  0  0  0
  -24.9432  -33.9608   24.9991 H   0  0  0  0  0  0
  -22.7123  -31.2859   21.4122 H   0  0  0  0  0  0
  -23.3713  -35.9730   23.3218 H   0  0  0  0  0  0
  -24.3555  -36.9105   22.2081 H   0  0  0  0  0  0
  -23.7339  -37.6532   23.6827 H   0  0  0  0  0  0
  -26.1379  -31.5284   20.6467 H   0  0  0  0  0  0
  -26.8296  -30.7920   22.0552 H   0  0  0  0  0  0
  -28.1063  -28.9280   21.2490 H   0  0  0  0  0  0
  -25.9880  -25.9508   18.9291 H   0  0  0  0  0  0
  -23.9968  -27.3169   18.9575 H   0  0  0  0  0  0
  -23.7816  -30.5975   19.4163 H   0  0  0  0  0  0
  -22.7721  -29.2444   19.8520 H   0  0  0  0  0  0
  -25.1295  -36.1862   25.0774 H   0  0  0  0  0  0
  -20.9863  -28.3307   24.1437 H   0  0  0  0  0  0
  -20.5613  -26.2269   23.3628 H   0  0  0  0  0  0
  -21.6607  -26.7413   22.1225 H   0  0  0  0  0  0
  -19.6846  -25.6283   21.1220 H   0  0  0  0  0  0
  -19.6637  -27.3218   20.6765 H   0  0  0  0  0  0
  -17.4132  -26.6529   21.4083 H   0  0  0  0  0  0
  -18.0350  -26.0077   22.9064 H   0  0  0  0  0  0
  -19.7945  -30.7248   24.2198 H   0  0  0  0  0  0
  -17.5020  -31.6223   24.5257 H   0  0  0  0  0  0
  -15.5339  -30.2965   23.7698 H   0  0  0  0  0  0
  -15.8619  -28.0899   22.6922 H   0  0  0  0  0  0
  -24.5736  -30.7127   25.7781 H   0  0  0  0  0  0
  -24.8819  -32.2848   26.5061 H   0  0  0  0  0  0
  -25.7851  -30.8750   27.0258 H   0  0  0  0  0  0
  -26.3001  -29.6623   24.1423 H   0  0  0  0  0  0
  -27.3852  -29.7338   25.5081 H   0  0  0  0  0  0
  -27.8940  -30.4104   23.9843 H   0  0  0  0  0  0
  -27.2468  -33.3724   26.2077 H   0  0  0  0  0  0
  -28.3699  -32.6987   25.0347 H   0  0  0  0  0  0
  -28.0659  -31.8622   26.5452 H   0  0  0  0  0  0
  -28.2492  -38.0176   24.7593 H   0  0  0  0  0  0
  -28.1210  -36.2713   24.6093 H   0  0  0  0  0  0
  -27.2308  -37.1212   25.8796 H   0  0  0  0  0  0
  -20.9448  -29.8775   21.6936 H   0  0  0  0  0  0
  -26.0149  -38.2798   24.1423 H   0  0  0  0  0  0
  -33.5996  -18.2726   17.5342 H   0  0  0  0  0  0
  -32.2079  -17.3434   18.0551 H   0  0  0  0  0  0
  -33.7065  -17.2590   18.9692 H   0  0  0  0  0  0
  -34.3982  -20.3668   19.0413 H   0  0  0  0  0  0
  -34.4901  -19.2458   20.3918 H   0  0  0  0  0  0
  -33.5068  -20.6978   20.5131 H   0  0  0  0  0  0
  -28.9697  -24.8846   22.4579 H   0  0  0  0  0  0
  -29.5948  -23.2769   22.6296 H   0  0  0  0  0  0
  -27.8824  -23.5125   22.3073 H   0  0  0  0  0  0
  -29.3473  -19.8812   18.8964 H   0  0  0  0  0  0
  -28.4204  -19.5314   20.2917 H   0  0  0  0  0  0
  -28.9961  -17.5064   21.6432 H   0  0  0  0  0  0
  -30.6364  -17.1568   21.9829 H   0  0  0  0  0  0
  -30.8747  -21.4378   20.3142 H   0  0  0  0  0  0
  -29.7409  -21.2287   21.6075 H   0  0  0  0  0  0
  -27.2265  -24.6331   19.9792 H   0  0  0  0  0  0
  -28.4294  -24.9356   18.7519 H   0  0  0  0  0  0
  -32.0209  -19.8160   18.6747 H   0  0  0  0  0  0
  -30.2082  -24.1508   20.3967 H   0  0  0  0  0  0
  -30.2916  -17.9113   19.1686 H   0  0  0  0  0  0
  -28.7672  -15.5003   20.6650 H   0  0  0  0  0  0
  -28.0487  -22.1740   19.9752 H   0  0  0  0  0  0
  -29.2745  -22.4942   18.9857 H   0  0  0  0  0  0
  -31.8326  -19.3351   21.1858 H   0  0  0  0  0  0
  -32.1613  -17.8177   20.7588 H   0  0  0  0  0  0
  1 25  1  0  0  0
  1 30  2  0  0  0
  1 81  1  0  0  0
  2  3  1  0  0  0
  2 25  1  0  0  0
  2 84  1  0  0  0
  2 85  1  0  0  0
  3  4  1  0  0  0
  3 86  1  0  0  0
  3 87  1  0  0  0
  4  5  1  0  0  0
  4 88  1  0  0  0
  4 89  1  0  0  0
  5  6  1  0  0  0
  5 26  1  0  0  0
  5 90  1  0  0  0
  6 25  1  0  0  0
  6 91  1  0  0  0
  6 92  1  0  0  0
  7  8  2  0  0  0
  7 26  1  0  0  0
  7 29  1  0  0  0
  8  9  1  0  0  0
  8 22  1  0  0  0
  9 10  1  0  0  0
  9 27  2  0  0  0
 10 11  2  0  0  0
 10 15  1  0  0  0
 11 12  1  0  0  0
 11 93  1  0  0  0
 12 13  2  0  0  0
 12 94  1  0  0  0
 13 14  1  0  0  0
 13 31  1  0  0  0
 14 15  2  0  0  0
 14 95  1  0  0  0
 15 96  1  0  0  0
 16 17  2  0  0  0
 16 21  1  0  0  0
 16 31  1  0  0  0
 17 18  1  0  0  0
 17 97  1  0  0  0
 18 19  2  0  0  0
 18 98  1  0  0  0
 19 20  1  0  0  0
 19 24  1  0  0  0
 20 21  2  0  0  0
 20 99  1  0  0  0
 21 23  1  0  0  0
 22 28  1  0  0  0
 22 32  2  0  0  0
 26 27  1  0  0  0
 28100  1  0  0  0
 28101  1  0  0  0
 29102  1  0  0  0
 29103  1  0  0  0
 33 34  1  0  0  0
 33 66  1  0  0  0
 33 70  2  0  0  0
 34 36  1  0  0  0
 34 59  1  0  0  0
 34104  1  0  0  0
 35 44  2  0  0  0
 35 45  1  0  0  0
 35 68  1  0  0  0
 36 56  1  0  0  0
 36105  1  0  0  0
 37 39  1  0  0  0
 37 47  1  0  0  0
 37 66  1  0  0  0
 37106  1  0  0  0
 38 43  2  0  0  0
 38 46  1  0  0  0
 38 47  1  0  0  0
 39 64  1  0  0  0
 39 67  2  0  0  0
 40 52  1  0  0  0
 40 53  2  0  0  0
 40 58  1  0  0  0
 41107  1  0  0  0
 41108  1  0  0  0
 41109  1  0  0  0
 41 48  1  0  0  0
 42 43  1  0  0  0
 42 66  1  0  0  0
 42110  1  0  0  0
 42111  1  0  0  0
 43 44  1  0  0  0
 44112  1  0  0  0
 45 46  2  0  0  0
 45113  1  0  0  0
 46114  1  0  0  0
 47115  1  0  0  0
 47116  1  0  0  0
 48 56  1  0  0  0
 48 65  1  0  0  0
 48117  1  0  0  0
 49 50  1  0  0  0
 49 53  1  0  0  0
 49 64  1  0  0  0
 49118  1  0  0  0
 50 51  1  0  0  0
 50119  1  0  0  0
 50120  1  0  0  0
 51 52  1  0  0  0
 51121  1  0  0  0
 51122  1  0  0  0
 52123  1  0  0  0
 52124  1  0  0  0
 53 54  1  0  0  0
 54 55  2  0  0  0
 54125  1  0  0  0
 55 57  1  0  0  0
 55126  1  0  0  0
 56 69  2  0  0  0
 57 58  2  0  0  0
 57127  1  0  0  0
 58128  1  0  0  0
 59 60  1  0  0  0
 59 61  1  0  0  0
 59 62  1  0  0  0
 60129  1  0  0  0
 60130  1  0  0  0
 60131  1  0  0  0
 61132  1  0  0  0
 61133  1  0  0  0
 61134  1  0  0  0
 62135  1  0  0  0
 62136  1  0  0  0
 62137  1  0  0  0
 63 65  1  0  0  0
 63138  1  0  0  0
 63139  1  0  0  0
 63140  1  0  0  0
 64141  1  0  0  0
 65142  1  0  0  0
 68 77  1  0  0  0
 71143  1  0  0  0
 71144  1  0  0  0
 71145  1  0  0  0
 71 78  1  0  0  0
 72 78  1  0  0  0
 72146  1  0  0  0
 72147  1  0  0  0
 72148  1  0  0  0
 73149  1  0  0  0
 73150  1  0  0  0
 73151  1  0  0  0
 73 79  1  0  0  0
 74 76  1  0  0  0
 74152  1  0  0  0
 74153  1  0  0  0
 74 80  1  0  0  0
 75 80  1  0  0  0
 75 81  1  0  0  0
 75154  1  0  0  0
 75155  1  0  0  0
 76 82  1  0  0  0
 76156  1  0  0  0
 76157  1  0  0  0
 77 79  1  0  0  0
 77158  1  0  0  0
 77159  1  0  0  0
 78 83  1  0  0  0
 78160  1  0  0  0
 79 82  1  0  0  0
 79161  1  0  0  0
 80 83  1  0  0  0
 80162  1  0  0  0
 81163  1  0  0  0
 82164  1  0  0  0
 82165  1  0  0  0
 83166  1  0  0  0
 83167  1  0  0  0
M  CHG  2  82   1  83   1
M  ISO  4   1 100  68 101  77 101  81 100
M  END
> <chiral flag>
0

> <version>
0

> <s_m_source_file>
/data/baiqing/PycharmProjects/Reinvent-master-3.2/result/LINK_invent/BTK/process_docking_weight1_custom_sum_contain_oxygen_bond_distance_aromatic_linkinvent_7_9_3/rearranged_h_0115.sdf

> <i_m_source_file_index>
51

> <r_mmod_Potential_Energy-OPLS-2005>
-85.4870376586914

> <r_mmod_Stretch_Energy-OPLS-2005>
117.754669189453

> <r_mmod_Bend_Energy-OPLS-2005>
189.413925170898

> <r_mmod_Torsional_Energy-OPLS-2005>
288.159973144531

> <r_mmod_Improper_Torsional_Energy-OPLS-2005>
4.57429695129395

> <r_mmod_Van_der_Waal_Energy-OPLS-2005>
114.631637573242

> <r_mmod_Electrostatic_Energy-OPLS-2005>
79.862548828125

> <r_mmod_Solvation_Energy-OPLS-2005>
-957.198852539062

> <b_mmod_Minimization_Converged-OPLS-2005>
0

> <r_mmod_RMS_Derivative-OPLS-2005>
5.96100854873657

$$$$
51
                    3D
 Structure written by MMmdl.
153160  0  0  1  0            999 V2000
  -30.5587  -14.9205   20.4258 C   0  0  0  0  0  0
  -30.4369  -12.5686   19.5010 C   0  0  0  0  0  0
  -29.5212  -12.5264   18.2560 C   0  0  0  0  0  0
  -28.0540  -12.3138   18.6728 C   0  0  0  0  0  0
  -27.6305  -13.2473   19.8381 C   0  0  2  0  0  0
  -28.6706  -13.2726   20.9781 C   0  0  0  0  0  0
  -25.2463  -13.8214   20.5699 C   0  0  0  0  0  0
  -24.1775  -13.0441   20.9220 C   0  0  0  0  0  0
  -24.6394  -11.6929   20.8750 C   0  0  0  0  0  0
  -23.9076  -10.4303   21.0410 C   0  0  0  0  0  0
  -24.3628   -9.4210   21.9182 C   0  0  0  0  0  0
  -23.6298   -8.2248   22.0753 C   0  0  0  0  0  0
  -22.4282   -8.0282   21.3539 C   0  0  0  0  0  0
  -21.9921   -9.0261   20.4643 C   0  0  0  0  0  0
  -22.7254  -10.2140   20.3050 C   0  0  0  0  0  0
  -21.6854   -6.0734   22.5280 C   0  0  0  0  0  0
  -21.4023   -6.5634   23.8213 C   0  0  0  0  0  0
  -21.3665   -5.6782   24.9176 C   0  0  0  0  0  0
  -21.6052   -4.3047   24.7222 C   0  0  0  0  0  0
  -21.8815   -3.8141   23.4339 C   0  0  0  0  0  0
  -21.9191   -4.6962   22.3398 C   0  0  0  0  0  0
  -22.7791  -13.5210   21.1877 C   0  0  0  0  0  0
  -22.1654   -4.2143   21.0975 F   0  0  0  0  0  0
  -21.5633   -3.4532   25.7736 F   0  0  0  0  0  0
  -29.9525  -13.6687   20.3824 N   0  0  0  0  0  0
  -26.2890  -12.9446   20.3234 N   0  0  0  0  0  0
  -25.9327  -11.6577   20.5731 N   0  0  0  0  0  0
  -22.0435  -12.8208   22.0440 N   0  0  0  0  0  0
  -25.4132  -15.1941   20.4108 N   0  0  0  0  0  0
  -31.7597  -14.9807   20.1455 O   0  0  0  0  0  0
  -21.6638   -6.8883   21.4241 O   0  0  0  0  0  0
  -22.3471  -14.5505   20.6708 O   0  0  0  0  0  0
  -24.6434  -31.8448   23.1874 C   0  0  0  0  0  0
  -25.9204  -32.4697   23.8263 C   0  0  1  0  0  0
  -27.2147  -27.1376   20.1545 C   0  0  0  0  0  0
  -25.5954  -33.8501   24.2184 N   0  0  0  0  0  0
  -23.4458  -30.4644   21.5340 C   0  0  2  0  0  0
  -24.8942  -28.8908   20.1110 C   0  0  0  0  0  0
  -22.7562  -29.4558   22.4863 C   0  0  0  0  0  0
  -18.0304  -28.1403   22.8480 C   0  0  0  0  0  0
  -24.1492  -36.7250   23.2642 C   0  0  0  0  0  0
  -26.0011  -30.7201   21.3842 C   0  0  0  0  0  0
  -26.0722  -29.3308   20.7278 C   0  0  0  0  0  0
  -27.2334  -28.4710   20.7316 C   0  0  0  0  0  0
  -26.0086  -26.7987   19.5003 C   0  0  0  0  0  0
  -24.8753  -27.6380   19.4824 C   0  0  0  0  0  0
  -23.6707  -29.7923   20.1537 C   0  0  0  0  0  0
  -25.4124  -36.3031   24.0315 C   0  0  1  0  0  0
  -20.5916  -28.3728   23.1234 C   0  0  2  0  0  0
  -20.6791  -26.9430   22.5405 C   0  0  0  0  0  0
  -19.5760  -26.6390   21.5216 C   0  0  0  0  0  0
  -18.1941  -26.7941   22.1626 C   0  0  0  0  0  0
  -19.1561  -28.8881   23.2851 C   0  0  0  0  0  0
  -18.9479  -30.1478   23.8875 C   0  0  0  0  0  0
  -17.6476  -30.6597   24.0563 C   0  0  0  0  0  0
  -25.9075  -34.9408   23.5058 C   0  0  0  0  0  0
  -16.5366  -29.9092   23.6341 C   0  0  0  0  0  0
  -16.7290  -28.6513   23.0358 C   0  0  0  0  0  0
  -26.4528  -31.6560   25.0699 C   0  0  0  0  0  0
  -25.3717  -31.3755   26.1396 C   0  0  0  0  0  0
  -27.0391  -30.2959   24.6267 C   0  0  0  0  0  0
  -27.6056  -32.4330   25.7490 C   0  0  0  0  0  0
  -27.5571  -37.1781   24.8468 C   0  0  0  0  0  0
  -21.4254  -29.3056   22.3605 N   0  0  0  0  0  0
  -26.4284  -37.3744   23.9408 N   0  0  0  0  0  0
  -24.7167  -31.0308   22.0906 N   0  0  0  0  0  0
  -23.4207  -28.8109   23.3015 O   0  0  0  0  0  0
  -28.2696  -26.1555   20.2239 O   0  0  0  0  0  0
  -26.5655  -34.8911   22.4635 O   0  0  0  0  0  0
  -23.5554  -32.1319   23.7100 O   0  0  0  0  0  0
  -30.5009  -20.6786   19.0369 C   0  0  0  0  0  0
  -29.1724  -18.9712   20.4751 C   0  0  0  0  0  0
  -30.2061  -17.6321   20.4199 C   0  0  0  0  0  0
  -29.0549  -23.3437   20.3600 C   0  0  0  0  0  0
  -27.9813  -24.6234   20.1370 C   0  0  0  0  0  0
  -29.6488  -20.5928   20.3106 C   0  0  2  0  0  0
  -31.7856  -20.3496   19.1097 N   0  0  0  0  0  0
  -29.7975  -16.1119   20.5690 N   0  0  0  0  0  0
  -28.6287  -21.8088   20.2841 N   0  3  0  0  0  0
  -29.9960  -21.0301   17.9705 O   0  0  0  0  0  0
  -31.4734  -12.7154   19.1938 H   0  0  0  0  0  0
  -30.4169  -11.6151   20.0313 H   0  0  0  0  0  0
  -29.8388  -11.7333   17.5789 H   0  0  0  0  0  0
  -29.6141  -13.4608   17.7007 H   0  0  0  0  0  0
  -27.9500  -11.2732   18.9807 H   0  0  0  0  0  0
  -27.3922  -12.4452   17.8158 H   0  0  0  0  0  0
  -27.5970  -14.2503   19.4112 H   0  0  0  0  0  0
  -28.7482  -12.3005   21.4670 H   0  0  0  0  0  0
  -28.3733  -13.9848   21.7505 H   0  0  0  0  0  0
  -25.2777   -9.5675   22.4757 H   0  0  0  0  0  0
  -24.0000   -7.4634   22.7472 H   0  0  0  0  0  0
  -21.0853   -8.8789   19.8946 H   0  0  0  0  0  0
  -22.3721  -10.9679   19.6154 H   0  0  0  0  0  0
  -21.2016   -7.6145   23.9716 H   0  0  0  0  0  0
  -21.1494   -6.0515   25.9078 H   0  0  0  0  0  0
  -22.0588   -2.7603   23.2839 H   0  0  0  0  0  0
  -22.4052  -11.9883   22.4851 H   0  0  0  0  0  0
  -21.1046  -13.1222   22.2624 H   0  0  0  0  0  0
  -24.6440  -15.8461   20.5199 H   0  0  0  0  0  0
  -26.2536  -15.6334   20.0584 H   0  0  0  0  0  0
  -26.7265  -32.5310   23.0988 H   0  0  0  0  0  0
  -25.0086  -33.9616   25.0322 H   0  0  0  0  0  0
  -22.7481  -31.2901   21.3795 H   0  0  0  0  0  0
  -23.3758  -35.9577   23.3295 H   0  0  0  0  0  0
  -24.3580  -36.8887   22.2059 H   0  0  0  0  0  0
  -23.7240  -37.6443   23.6683 H   0  0  0  0  0  0
  -26.1525  -31.4728   20.6091 H   0  0  0  0  0  0
  -26.8735  -30.7735   22.0238 H   0  0  0  0  0  0
  -28.1295  -28.8034   21.2367 H   0  0  0  0  0  0
  -25.9009  -25.8441   19.0096 H   0  0  0  0  0  0
  -23.9753  -27.2942   18.9911 H   0  0  0  0  0  0
  -23.8039  -30.5653   19.3956 H   0  0  0  0  0  0
  -22.7853  -29.2324   19.8473 H   0  0  0  0  0  0
  -25.1312  -36.1855   25.0806 H   0  0  0  0  0  0
  -21.0011  -28.3326   24.1354 H   0  0  0  0  0  0
  -20.5688  -26.2344   23.3630 H   0  0  0  0  0  0
  -21.6656  -26.7443   22.1195 H   0  0  0  0  0  0
  -19.6921  -25.6301   21.1249 H   0  0  0  0  0  0
  -19.6690  -27.3196   20.6744 H   0  0  0  0  0  0
  -17.4209  -26.6683   21.4031 H   0  0  0  0  0  0
  -18.0339  -26.0094   22.9034 H   0  0  0  0  0  0
  -19.7957  -30.7300   24.2231 H   0  0  0  0  0  0
  -17.5034  -31.6277   24.5169 H   0  0  0  0  0  0
  -15.5366  -30.2986   23.7689 H   0  0  0  0  0  0
  -15.8689  -28.0830   22.7080 H   0  0  0  0  0  0
  -24.5900  -30.7091   25.7724 H   0  0  0  0  0  0
  -24.8902  -32.2942   26.4758 H   0  0  0  0  0  0
  -25.8007  -30.8975   27.0210 H   0  0  0  0  0  0
  -26.3001  -29.6681   24.1268 H   0  0  0  0  0  0
  -27.4007  -29.7256   25.4831 H   0  0  0  0  0  0
  -27.8909  -30.4198   23.9576 H   0  0  0  0  0  0
  -27.2635  -33.3645   26.2010 H   0  0  0  0  0  0
  -28.3899  -32.6859   25.0344 H   0  0  0  0  0  0
  -28.0682  -31.8487   26.5453 H   0  0  0  0  0  0
  -28.2587  -38.0081   24.7512 H   0  0  0  0  0  0
  -28.1067  -36.2607   24.6298 H   0  0  0  0  0  0
  -27.2287  -37.1435   25.8872 H   0  0  0  0  0  0
  -20.9464  -29.8759   21.6774 H   0  0  0  0  0  0
  -26.0146  -38.2808   24.1420 H   0  0  0  0  0  0
  -28.6375  -18.9064   21.4224 H   0  0  0  0  0  0
  -28.4059  -18.7945   19.7200 H   0  0  0  0  0  0
  -30.9781  -17.7983   21.1717 H   0  0  0  0  0  0
  -30.7371  -17.6849   19.4682 H   0  0  0  0  0  0
  -29.8524  -23.4831   19.6307 H   0  0  0  0  0  0
  -29.5290  -23.4818   21.3319 H   0  0  0  0  0  0
  -27.1605  -24.4475   20.8331 H   0  0  0  0  0  0
  -27.5558  -24.4581   19.1482 H   0  0  0  0  0  0
  -30.3066  -20.8020   21.1557 H   0  0  0  0  0  0
  -32.1978  -20.0589   19.9855 H   0  0  0  0  0  0
  -32.3649  -20.3905   18.2835 H   0  0  0  0  0  0
  -28.8202  -15.9489   20.7605 H   0  0  0  0  0  0
  -27.9583  -21.6435   21.0162 H   0  0  0  0  0  0
  -28.1437  -21.6898   19.4080 H   0  0  0  0  0  0
  1 25  1  0  0  0
  1 30  2  0  0  0
  1 78  1  0  0  0
  2  3  1  0  0  0
  2 25  1  0  0  0
  2 81  1  0  0  0
  2 82  1  0  0  0
  3  4  1  0  0  0
  3 83  1  0  0  0
  3 84  1  0  0  0
  4  5  1  0  0  0
  4 85  1  0  0  0
  4 86  1  0  0  0
  5  6  1  0  0  0
  5 26  1  0  0  0
  5 87  1  0  0  0
  6 25  1  0  0  0
  6 88  1  0  0  0
  6 89  1  0  0  0
  7  8  2  0  0  0
  7 26  1  0  0  0
  7 29  1  0  0  0
  8  9  1  0  0  0
  8 22  1  0  0  0
  9 10  1  0  0  0
  9 27  2  0  0  0
 10 11  2  0  0  0
 10 15  1  0  0  0
 11 12  1  0  0  0
 11 90  1  0  0  0
 12 13  2  0  0  0
 12 91  1  0  0  0
 13 14  1  0  0  0
 13 31  1  0  0  0
 14 15  2  0  0  0
 14 92  1  0  0  0
 15 93  1  0  0  0
 16 17  2  0  0  0
 16 21  1  0  0  0
 16 31  1  0  0  0
 17 18  1  0  0  0
 17 94  1  0  0  0
 18 19  2  0  0  0
 18 95  1  0  0  0
 19 20  1  0  0  0
 19 24  1  0  0  0
 20 21  2  0  0  0
 20 96  1  0  0  0
 21 23  1  0  0  0
 22 28  1  0  0  0
 22 32  2  0  0  0
 26 27  1  0  0  0
 28 97  1  0  0  0
 28 98  1  0  0  0
 29 99  1  0  0  0
 29100  1  0  0  0
 33 34  1  0  0  0
 33 66  1  0  0  0
 33 70  2  0  0  0
 34 36  1  0  0  0
 34 59  1  0  0  0
 34101  1  0  0  0
 35 44  2  0  0  0
 35 45  1  0  0  0
 35 68  1  0  0  0
 36 56  1  0  0  0
 36102  1  0  0  0
 37 39  1  0  0  0
 37 47  1  0  0  0
 37 66  1  0  0  0
 37103  1  0  0  0
 38 43  2  0  0  0
 38 46  1  0  0  0
 38 47  1  0  0  0
 39 64  1  0  0  0
 39 67  2  0  0  0
 40 52  1  0  0  0
 40 53  2  0  0  0
 40 58  1  0  0  0
 41104  1  0  0  0
 41105  1  0  0  0
 41106  1  0  0  0
 41 48  1  0  0  0
 42 43  1  0  0  0
 42 66  1  0  0  0
 42107  1  0  0  0
 42108  1  0  0  0
 43 44  1  0  0  0
 44109  1  0  0  0
 45 46  2  0  0  0
 45110  1  0  0  0
 46111  1  0  0  0
 47112  1  0  0  0
 47113  1  0  0  0
 48 56  1  0  0  0
 48 65  1  0  0  0
 48114  1  0  0  0
 49 50  1  0  0  0
 49 53  1  0  0  0
 49 64  1  0  0  0
 49115  1  0  0  0
 50 51  1  0  0  0
 50116  1  0  0  0
 50117  1  0  0  0
 51 52  1  0  0  0
 51118  1  0  0  0
 51119  1  0  0  0
 52120  1  0  0  0
 52121  1  0  0  0
 53 54  1  0  0  0
 54 55  2  0  0  0
 54122  1  0  0  0
 55 57  1  0  0  0
 55123  1  0  0  0
 56 69  2  0  0  0
 57 58  2  0  0  0
 57124  1  0  0  0
 58125  1  0  0  0
 59 60  1  0  0  0
 59 61  1  0  0  0
 59 62  1  0  0  0
 60126  1  0  0  0
 60127  1  0  0  0
 60128  1  0  0  0
 61129  1  0  0  0
 61130  1  0  0  0
 61131  1  0  0  0
 62132  1  0  0  0
 62133  1  0  0  0
 62134  1  0  0  0
 63 65  1  0  0  0
 63135  1  0  0  0
 63136  1  0  0  0
 63137  1  0  0  0
 64138  1  0  0  0
 65139  1  0  0  0
 68 75  1  0  0  0
 71 76  1  0  0  0
 71 77  1  0  0  0
 71 80  2  0  0  0
 72 73  1  0  0  0
 72140  1  0  0  0
 72141  1  0  0  0
 72 76  1  0  0  0
 73 78  1  0  0  0
 73142  1  0  0  0
 73143  1  0  0  0
 74 75  1  0  0  0
 74 79  1  0  0  0
 74144  1  0  0  0
 74145  1  0  0  0
 75146  1  0  0  0
 75147  1  0  0  0
 76 79  1  0  0  0
 76148  1  0  0  0
 77149  1  0  0  0
 77150  1  0  0  0
 78151  1  0  0  0
 79152  1  0  0  0
 79153  1  0  0  0
M  CHG  1  79   1
M  ISO  4   1 100  68 101  75 101  78 100
M  END
> <chiral flag>
0

> <version>
0

> <s_m_source_file>
/data/baiqing/PycharmProjects/Reinvent-master-3.2/result/LINK_invent/BTK/process_docking_weight1_custom_sum_contain_oxygen_bond_distance_aromatic_linkinvent_7_9_3/rearranged_h_0115.sdf

> <i_m_source_file_index>
52

> <r_mmod_Potential_Energy-OPLS-2005>
123.583518981934

> <r_mmod_Stretch_Energy-OPLS-2005>
265.003631591797

> <r_mmod_Bend_Energy-OPLS-2005>
248.267639160156

> <r_mmod_Torsional_Energy-OPLS-2005>
204.250198364258

> <r_mmod_Improper_Torsional_Energy-OPLS-2005>
4.54475069046021

> <r_mmod_Van_der_Waal_Energy-OPLS-2005>
114.973251342773

> <r_mmod_Electrostatic_Energy-OPLS-2005>
-399.565307617188

> <r_mmod_Solvation_Energy-OPLS-2005>
-495.706817626953

> <b_mmod_Minimization_Converged-OPLS-2005>
0

> <r_mmod_RMS_Derivative-OPLS-2005>
1.31603491306305

$$$$
52
                    3D
 Structure written by MMmdl.
163170  0  0  1  0            999 V2000
  -30.4182  -15.2460   20.3673 C   0  0  0  0  0  0
  -30.4329  -12.7926   19.5307 C   0  0  0  0  0  0
  -29.5331  -12.5787   18.2884 C   0  0  0  0  0  0
  -28.0826  -12.2996   18.7155 C   0  0  0  0  0  0
  -27.6088  -13.2715   19.8234 C   0  0  2  0  0  0
  -28.6372  -13.4372   20.9616 C   0  0  0  0  0  0
  -25.2396  -13.8229   20.5773 C   0  0  0  0  0  0
  -24.1735  -13.0408   20.9260 C   0  0  0  0  0  0
  -24.6386  -11.6919   20.8755 C   0  0  0  0  0  0
  -23.9080  -10.4281   21.0387 C   0  0  0  0  0  0
  -24.3630   -9.4210   21.9173 C   0  0  0  0  0  0
  -23.6297   -8.2250   22.0752 C   0  0  0  0  0  0
  -22.4280   -8.0282   21.3550 C   0  0  0  0  0  0
  -21.9924   -9.0253   20.4637 C   0  0  0  0  0  0
  -22.7252  -10.2126   20.3042 C   0  0  0  0  0  0
  -21.6868   -6.0734   22.5277 C   0  0  0  0  0  0
  -21.4013   -6.5635   23.8212 C   0  0  0  0  0  0
  -21.3664   -5.6786   24.9173 C   0  0  0  0  0  0
  -21.6059   -4.3051   24.7227 C   0  0  0  0  0  0
  -21.8824   -3.8149   23.4345 C   0  0  0  0  0  0
  -21.9185   -4.6965   22.3397 C   0  0  0  0  0  0
  -22.7771  -13.5182   21.1904 C   0  0  0  0  0  0
  -22.1648   -4.2153   21.0982 F   0  0  0  0  0  0
  -21.5632   -3.4532   25.7738 F   0  0  0  0  0  0
  -29.8715  -13.9344   20.3400 N   0  0  0  0  0  0
  -26.2794  -12.9482   20.3211 N   0  0  0  0  0  0
  -25.9324  -11.6593   20.5736 N   0  0  0  0  0  0
  -22.0418  -12.8163   22.0443 N   0  0  0  0  0  0
  -25.4078  -15.1954   20.4269 N   0  0  0  0  0  0
  -31.6363  -15.2667   20.1418 O   0  0  0  0  0  0
  -21.6648   -6.8884   21.4245 O   0  0  0  0  0  0
  -22.3478  -14.5501   20.6734 O   0  0  0  0  0  0
  -24.6637  -31.8215   23.1705 C   0  0  0  0  0  0
  -25.9322  -32.4574   23.8167 C   0  0  1  0  0  0
  -27.2140  -26.9301   20.1749 C   0  0  0  0  0  0
  -25.6025  -33.8395   24.2101 N   0  0  0  0  0  0
  -23.4784  -30.4353   21.5173 C   0  0  2  0  0  0
  -24.9307  -28.8235   20.1016 C   0  0  0  0  0  0
  -22.7674  -29.4434   22.4758 C   0  0  0  0  0  0
  -18.0347  -28.1392   22.8462 C   0  0  0  0  0  0
  -24.1509  -36.7184   23.2645 C   0  0  0  0  0  0
  -26.0453  -30.6265   21.4026 C   0  0  0  0  0  0
  -26.1096  -29.2187   20.7434 C   0  0  0  0  0  0
  -27.2412  -28.2897   20.7601 C   0  0  0  0  0  0
  -26.0122  -26.6876   19.4740 C   0  0  0  0  0  0
  -24.9082  -27.5814   19.4456 C   0  0  0  0  0  0
  -23.7176  -29.7532   20.1404 C   0  0  0  0  0  0
  -25.4147  -36.2956   24.0302 C   0  0  1  0  0  0
  -20.5962  -28.3735   23.1188 C   0  0  2  0  0  0
  -20.6822  -26.9412   22.5408 C   0  0  0  0  0  0
  -19.5802  -26.6360   21.5217 C   0  0  0  0  0  0
  -18.1980  -26.7928   22.1615 C   0  0  0  0  0  0
  -19.1600  -28.8890   23.2819 C   0  0  0  0  0  0
  -18.9504  -30.1482   23.8844 C   0  0  0  0  0  0
  -17.6494  -30.6573   24.0555 C   0  0  0  0  0  0
  -25.9110  -34.9340   23.5009 C   0  0  0  0  0  0
  -16.5387  -29.9049   23.6338 C   0  0  0  0  0  0
  -16.7328  -28.6484   23.0346 C   0  0  0  0  0  0
  -26.4606  -31.6509   25.0683 C   0  0  0  0  0  0
  -25.3746  -31.3705   26.1348 C   0  0  0  0  0  0
  -27.0522  -30.2890   24.6389 C   0  0  0  0  0  0
  -27.6125  -32.4301   25.7453 C   0  0  0  0  0  0
  -27.5576  -37.1738   24.8464 C   0  0  0  0  0  0
  -21.4338  -29.3025   22.3513 N   0  0  0  0  0  0
  -26.4279  -37.3691   23.9424 N   0  0  0  0  0  0
  -24.7503  -30.9872   22.0840 N   0  0  0  0  0  0
  -23.4220  -28.7981   23.2986 O   0  0  0  0  0  0
  -28.2251  -25.8450   20.3153 O   0  0  0  0  0  0
  -26.5686  -34.8861   22.4587 O   0  0  0  0  0  0
  -23.5719  -32.1216   23.6808 O   0  0  0  0  0  0
  -28.1109  -19.4832   21.8150 C   0  0  0  0  0  0
  -26.7758  -22.3489   20.8139 C   0  0  0  0  0  0
  -26.6594  -18.9796   21.8225 C   0  0  0  0  0  0
  -25.9386  -19.0491   23.1856 C   0  0  0  0  0  0
  -29.8649  -18.1466   20.2554 C   0  0  0  0  0  0
  -24.4145  -18.8388   23.0428 C   0  0  0  0  0  0
  -28.2998  -24.2657   19.8238 C   0  0  0  0  0  0
  -28.7762  -19.5783   20.4343 C   0  0  2  0  0  0
  -28.2741  -22.6257   20.5770 C   0  0  2  0  0  0
  -29.6278  -16.4985   20.4475 N   0  0  0  0  0  0
  -23.6706  -19.1566   24.2761 N   0  3  0  0  0  0
  -29.0519  -21.2057   20.1099 N   0  3  0  0  0  0
  -28.6778  -19.8100   22.8623 O   0  0  0  0  0  0
  -31.4549  -12.9933   19.2083 H   0  0  0  0  0  0
  -30.4884  -11.8800   20.1269 H   0  0  0  0  0  0
  -29.9121  -11.7542   17.6839 H   0  0  0  0  0  0
  -29.5691  -13.4671   17.6557 H   0  0  0  0  0  0
  -28.0430  -11.2770   19.0921 H   0  0  0  0  0  0
  -27.4140  -12.3387   17.8557 H   0  0  0  0  0  0
  -27.5244  -14.2403   19.3284 H   0  0  0  0  0  0
  -28.7977  -12.5044   21.5036 H   0  0  0  0  0  0
  -28.2756  -14.1638   21.6917 H   0  0  0  0  0  0
  -25.2776   -9.5691   22.4750 H   0  0  0  0  0  0
  -24.0007   -7.4649   22.7480 H   0  0  0  0  0  0
  -21.0857   -8.8778   19.8949 H   0  0  0  0  0  0
  -22.3709  -10.9666   19.6150 H   0  0  0  0  0  0
  -21.2006   -7.6150   23.9721 H   0  0  0  0  0  0
  -21.1479   -6.0513   25.9069 H   0  0  0  0  0  0
  -22.0600   -2.7612   23.2839 H   0  0  0  0  0  0
  -22.4027  -11.9823   22.4836 H   0  0  0  0  0  0
  -21.1051  -13.1238   22.2657 H   0  0  0  0  0  0
  -24.6360  -15.8440   20.5327 H   0  0  0  0  0  0
  -26.2502  -15.6274   20.0748 H   0  0  0  0  0  0
  -26.7375  -32.5102   23.0871 H   0  0  0  0  0  0
  -25.0221  -33.9491   25.0288 H   0  0  0  0  0  0
  -22.7929  -31.2685   21.3473 H   0  0  0  0  0  0
  -23.3789  -35.9491   23.3261 H   0  0  0  0  0  0
  -24.3599  -36.8871   22.2068 H   0  0  0  0  0  0
  -23.7237  -37.6347   23.6729 H   0  0  0  0  0  0
  -26.2306  -31.3674   20.6241 H   0  0  0  0  0  0
  -26.9054  -30.6788   22.0583 H   0  0  0  0  0  0
  -28.1301  -28.5827   21.2993 H   0  0  0  0  0  0
  -25.8839  -25.7371   18.9781 H   0  0  0  0  0  0
  -24.0137  -27.2768   18.9182 H   0  0  0  0  0  0
  -23.8750  -30.5253   19.3855 H   0  0  0  0  0  0
  -22.8272  -29.2116   19.8201 H   0  0  0  0  0  0
  -25.1341  -36.1749   25.0785 H   0  0  0  0  0  0
  -21.0086  -28.3344   24.1299 H   0  0  0  0  0  0
  -20.5710  -26.2340   23.3644 H   0  0  0  0  0  0
  -21.6677  -26.7384   22.1205 H   0  0  0  0  0  0
  -19.6948  -25.6264   21.1263 H   0  0  0  0  0  0
  -19.6745  -27.3151   20.6732 H   0  0  0  0  0  0
  -17.4258  -26.6698   21.4006 H   0  0  0  0  0  0
  -18.0349  -26.0082   22.9021 H   0  0  0  0  0  0
  -19.7976  -30.7331   24.2168 H   0  0  0  0  0  0
  -17.5035  -31.6246   24.5165 H   0  0  0  0  0  0
  -15.5380  -30.2929   23.7700 H   0  0  0  0  0  0
  -15.8738  -28.0794   22.7063 H   0  0  0  0  0  0
  -24.5985  -30.7006   25.7632 H   0  0  0  0  0  0
  -24.8886  -32.2878   26.4676 H   0  0  0  0  0  0
  -25.8020  -30.8935   27.0180 H   0  0  0  0  0  0
  -26.3195  -29.6531   24.1418 H   0  0  0  0  0  0
  -27.4118  -29.7278   25.5024 H   0  0  0  0  0  0
  -27.9103  -30.4103   23.9773 H   0  0  0  0  0  0
  -27.2759  -33.3677   26.1889 H   0  0  0  0  0  0
  -28.4002  -32.6728   25.0302 H   0  0  0  0  0  0
  -28.0729  -31.8502   26.5474 H   0  0  0  0  0  0
  -28.2541  -38.0077   24.7564 H   0  0  0  0  0  0
  -28.1123  -36.2616   24.6241 H   0  0  0  0  0  0
  -27.2297  -37.1299   25.8857 H   0  0  0  0  0  0
  -20.9578  -29.8727   21.6650 H   0  0  0  0  0  0
  -26.0127  -38.2732   24.1464 H   0  0  0  0  0  0
  -26.2291  -23.2745   20.9948 H   0  0  0  0  0  0
  -26.5970  -21.7362   21.6925 H   0  0  0  0  0  0
  -26.3175  -21.8691   19.9495 H   0  0  0  0  0  0
  -26.6397  -17.9624   21.4321 H   0  0  0  0  0  0
  -26.1119  -19.5883   21.1031 H   0  0  0  0  0  0
  -26.1282  -20.0178   23.6508 H   0  0  0  0  0  0
  -26.3517  -18.2924   23.8564 H   0  0  0  0  0  0
  -30.7114  -18.3566   20.9088 H   0  0  0  0  0  0
  -30.2941  -18.2304   19.2576 H   0  0  0  0  0  0
  -24.2048  -17.8058   22.7594 H   0  0  0  0  0  0
  -24.0199  -19.4644   22.2413 H   0  0  0  0  0  0
  -27.5801  -24.2073   19.0074 H   0  0  0  0  0  0
  -29.2545  -24.2681   19.2985 H   0  0  0  0  0  0
  -27.9839  -19.3581   19.7196 H   0  0  0  0  0  0
  -28.7062  -22.7967   21.5644 H   0  0  0  0  0  0
  -28.6593  -16.2813   20.6236 H   0  0  0  0  0  0
  -23.9484  -18.5615   25.0366 H   0  0  0  0  0  0
  -22.6860  -19.0207   24.1220 H   0  0  0  0  0  0
  -23.8090  -20.1144   24.5480 H   0  0  0  0  0  0
  -29.0717  -21.2397   19.1023 H   0  0  0  0  0  0
  -30.0104  -21.3495   20.3853 H   0  0  0  0  0  0
  1 25  1  0  0  0
  1 30  2  0  0  0
  1 80  1  0  0  0
  2  3  1  0  0  0
  2 25  1  0  0  0
  2 84  1  0  0  0
  2 85  1  0  0  0
  3  4  1  0  0  0
  3 86  1  0  0  0
  3 87  1  0  0  0
  4  5  1  0  0  0
  4 88  1  0  0  0
  4 89  1  0  0  0
  5  6  1  0  0  0
  5 26  1  0  0  0
  5 90  1  0  0  0
  6 25  1  0  0  0
  6 91  1  0  0  0
  6 92  1  0  0  0
  7  8  2  0  0  0
  7 26  1  0  0  0
  7 29  1  0  0  0
  8  9  1  0  0  0
  8 22  1  0  0  0
  9 10  1  0  0  0
  9 27  2  0  0  0
 10 11  2  0  0  0
 10 15  1  0  0  0
 11 12  1  0  0  0
 11 93  1  0  0  0
 12 13  2  0  0  0
 12 94  1  0  0  0
 13 14  1  0  0  0
 13 31  1  0  0  0
 14 15  2  0  0  0
 14 95  1  0  0  0
 15 96  1  0  0  0
 16 17  2  0  0  0
 16 21  1  0  0  0
 16 31  1  0  0  0
 17 18  1  0  0  0
 17 97  1  0  0  0
 18 19  2  0  0  0
 18 98  1  0  0  0
 19 20  1  0  0  0
 19 24  1  0  0  0
 20 21  2  0  0  0
 20 99  1  0  0  0
 21 23  1  0  0  0
 22 28  1  0  0  0
 22 32  2  0  0  0
 26 27  1  0  0  0
 28100  1  0  0  0
 28101  1  0  0  0
 29102  1  0  0  0
 29103  1  0  0  0
 33 34  1  0  0  0
 33 66  1  0  0  0
 33 70  2  0  0  0
 34 36  1  0  0  0
 34 59  1  0  0  0
 34104  1  0  0  0
 35 44  2  0  0  0
 35 45  1  0  0  0
 35 68  1  0  0  0
 36 56  1  0  0  0
 36105  1  0  0  0
 37 39  1  0  0  0
 37 47  1  0  0  0
 37 66  1  0  0  0
 37106  1  0  0  0
 38 43  2  0  0  0
 38 46  1  0  0  0
 38 47  1  0  0  0
 39 64  1  0  0  0
 39 67  2  0  0  0
 40 52  1  0  0  0
 40 53  2  0  0  0
 40 58  1  0  0  0
 41107  1  0  0  0
 41108  1  0  0  0
 41109  1  0  0  0
 41 48  1  0  0  0
 42 43  1  0  0  0
 42 66  1  0  0  0
 42110  1  0  0  0
 42111  1  0  0  0
 43 44  1  0  0  0
 44112  1  0  0  0
 45 46  2  0  0  0
 45113  1  0  0  0
 46114  1  0  0  0
 47115  1  0  0  0
 47116  1  0  0  0
 48 56  1  0  0  0
 48 65  1  0  0  0
 48117  1  0  0  0
 49 50  1  0  0  0
 49 53  1  0  0  0
 49 64  1  0  0  0
 49118  1  0  0  0
 50 51  1  0  0  0
 50119  1  0  0  0
 50120  1  0  0  0
 51 52  1  0  0  0
 51121  1  0  0  0
 51122  1  0  0  0
 52123  1  0  0  0
 52124  1  0  0  0
 53 54  1  0  0  0
 54 55  2  0  0  0
 54125  1  0  0  0
 55 57  1  0  0  0
 55126  1  0  0  0
 56 69  2  0  0  0
 57 58  2  0  0  0
 57127  1  0  0  0
 58128  1  0  0  0
 59 60  1  0  0  0
 59 61  1  0  0  0
 59 62  1  0  0  0
 60129  1  0  0  0
 60130  1  0  0  0
 60131  1  0  0  0
 61132  1  0  0  0
 61133  1  0  0  0
 61134  1  0  0  0
 62135  1  0  0  0
 62136  1  0  0  0
 62137  1  0  0  0
 63 65  1  0  0  0
 63138  1  0  0  0
 63139  1  0  0  0
 63140  1  0  0  0
 64141  1  0  0  0
 65142  1  0  0  0
 68 77  1  0  0  0
 71 73  1  0  0  0
 71 78  1  0  0  0
 71 83  2  0  0  0
 72143  1  0  0  0
 72144  1  0  0  0
 72145  1  0  0  0
 72 79  1  0  0  0
 73 74  1  0  0  0
 73146  1  0  0  0
 73147  1  0  0  0
 74 76  1  0  0  0
 74148  1  0  0  0
 74149  1  0  0  0
 75 80  1  0  0  0
 75150  1  0  0  0
 75151  1  0  0  0
 75 78  1  0  0  0
 76 81  1  0  0  0
 76152  1  0  0  0
 76153  1  0  0  0
 77 79  1  0  0  0
 77154  1  0  0  0
 77155  1  0  0  0
 78 82  1  0  0  0
 78156  1  0  0  0
 79 82  1  0  0  0
 79157  1  0  0  0
 80158  1  0  0  0
 81159  1  0  0  0
 81160  1  0  0  0
 81161  1  0  0  0
 82162  1  0  0  0
 82163  1  0  0  0
M  CHG  2  81   1  82   1
M  ISO  4   1 100  68 101  77 101  80 100
M  END
> <chiral flag>
0

> <version>
0

> <s_m_source_file>
/data/baiqing/PycharmProjects/Reinvent-master-3.2/result/LINK_invent/BTK/process_docking_weight1_custom_sum_contain_oxygen_bond_distance_aromatic_linkinvent_7_9_3/rearranged_h_0115.sdf

> <i_m_source_file_index>
53

> <r_mmod_Potential_Energy-OPLS-2005>
835.613159179688

> <r_mmod_Stretch_Energy-OPLS-2005>
617.580078125

> <r_mmod_Bend_Energy-OPLS-2005>
472.086242675781

> <r_mmod_Torsional_Energy-OPLS-2005>
220.129516601562

> <r_mmod_Improper_Torsional_Energy-OPLS-2005>
4.19453048706055

> <r_mmod_Van_der_Waal_Energy-OPLS-2005>
101.664573669434

> <r_mmod_Electrostatic_Energy-OPLS-2005>
-20.7046127319336

> <r_mmod_Solvation_Energy-OPLS-2005>
-1008.47003173828

> <b_mmod_Minimization_Converged-OPLS-2005>
0

> <r_mmod_RMS_Derivative-OPLS-2005>
3.33210515975952

$$$$
53
                    3D
 Structure written by MMmdl.
184193  0  0  1  0            999 V2000
  -30.6727  -14.5411   20.4117 C   0  0  0  0  0  0
  -30.4023  -12.2982   19.4549 C   0  0  0  0  0  0
  -29.4914  -12.4516   18.2176 C   0  0  0  0  0  0
  -28.0104  -12.3198   18.6285 C   0  0  0  0  0  0
  -27.6433  -13.1983   19.8557 C   0  0  2  0  0  0
  -28.6901  -13.0861   20.9877 C   0  0  0  0  0  0
  -25.2435  -13.7988   20.5560 C   0  0  0  0  0  0
  -24.1761  -13.0335   20.9184 C   0  0  0  0  0  0
  -24.6331  -11.6817   20.8708 C   0  0  0  0  0  0
  -23.9031  -10.4229   21.0404 C   0  0  0  0  0  0
  -24.3585   -9.4171   21.9226 C   0  0  0  0  0  0
  -23.6254   -8.2203   22.0801 C   0  0  0  0  0  0
  -22.4252   -8.0213   21.3556 C   0  0  0  0  0  0
  -21.9869   -9.0197   20.4685 C   0  0  0  0  0  0
  -22.7176  -10.2087   20.3079 C   0  0  0  0  0  0
  -21.6842   -6.0687   22.5269 C   0  0  0  0  0  0
  -21.4035   -6.5628   23.8187 C   0  0  0  0  0  0
  -21.3657   -5.6801   24.9181 C   0  0  0  0  0  0
  -21.5999   -4.3048   24.7257 C   0  0  0  0  0  0
  -21.8818   -3.8120   23.4397 C   0  0  0  0  0  0
  -21.9207   -4.6923   22.3428 C   0  0  0  0  0  0
  -22.7788  -13.5174   21.1847 C   0  0  0  0  0  0
  -22.1659   -4.2089   21.1015 F   0  0  0  0  0  0
  -21.5632   -3.4551   25.7797 F   0  0  0  0  0  0
  -30.0091  -13.3555   20.3983 N   0  0  0  0  0  0
  -26.2910  -12.9216   20.3281 N   0  0  0  0  0  0
  -25.9271  -11.6400   20.5805 N   0  0  0  0  0  0
  -22.0476  -12.8171   22.0431 N   0  0  0  0  0  0
  -25.4016  -15.1630   20.3692 N   0  0  0  0  0  0
  -31.8810  -14.6218   20.1655 O   0  0  0  0  0  0
  -21.6618   -6.8819   21.4222 O   0  0  0  0  0  0
  -22.3496  -14.5484   20.6688 O   0  0  0  0  0  0
  -24.6167  -31.8678   23.2109 C   0  0  0  0  0  0
  -25.9100  -32.4789   23.8401 C   0  0  1  0  0  0
  -27.2260  -27.4033   20.1016 C   0  0  0  0  0  0
  -25.5904  -33.8572   24.2314 N   0  0  0  0  0  0
  -23.4084  -30.4956   21.5521 C   0  0  2  0  0  0
  -24.8520  -28.9733   20.1067 C   0  0  0  0  0  0
  -22.7489  -29.4620   22.4923 C   0  0  0  0  0  0
  -18.0256  -28.1389   22.8432 C   0  0  0  0  0  0
  -24.1489  -36.7308   23.2641 C   0  0  0  0  0  0
  -25.9375  -30.8331   21.3661 C   0  0  0  0  0  0
  -26.0154  -29.4644   20.7111 C   0  0  0  0  0  0
  -27.2084  -28.6944   20.6932 C   0  0  0  0  0  0
  -26.0257  -26.9361   19.5085 C   0  0  0  0  0  0
  -24.8540  -27.7078   19.5013 C   0  0  0  0  0  0
  -23.6265  -29.8606   20.1578 C   0  0  0  0  0  0
  -25.4106  -36.3079   24.0335 C   0  0  1  0  0  0
  -20.5888  -28.3659   23.1238 C   0  0  2  0  0  0
  -20.6786  -26.9401   22.5340 C   0  0  0  0  0  0
  -19.5754  -26.6346   21.5180 C   0  0  0  0  0  0
  -18.1919  -26.7915   22.1577 C   0  0  0  0  0  0
  -19.1517  -28.8849   23.2821 C   0  0  0  0  0  0
  -18.9534  -30.1462   23.8798 C   0  0  0  0  0  0
  -17.6538  -30.6579   24.0576 C   0  0  0  0  0  0
  -25.9034  -34.9433   23.5111 C   0  0  0  0  0  0
  -16.5399  -29.9120   23.6332 C   0  0  0  0  0  0
  -16.7255  -28.6583   23.0249 C   0  0  0  0  0  0
  -26.4516  -31.6609   25.0741 C   0  0  0  0  0  0
  -25.3715  -31.3818   26.1465 C   0  0  0  0  0  0
  -27.0421  -30.3080   24.6161 C   0  0  0  0  0  0
  -27.6050  -32.4389   25.7488 C   0  0  0  0  0  0
  -27.5570  -37.1768   24.8469 C   0  0  0  0  0  0
  -21.4207  -29.3012   22.3697 N   0  0  0  0  0  0
  -26.4268  -37.3797   23.9436 N   0  0  0  0  0  0
  -24.6728  -31.0764   22.1034 N   0  0  0  0  0  0
  -23.4315  -28.8079   23.2873 O   0  0  0  0  0  0
  -28.4101  -26.6738   20.1377 O   0  0  0  0  0  0
  -26.5580  -34.8907   22.4671 O   0  0  0  0  0  0
  -23.5360  -32.1438   23.7501 O   0  0  0  0  0  0
  -27.1768  -17.8845   20.4468 C   0  0  0  0  0  0
  -26.3369  -18.0497   21.5548 C   0  0  0  0  0  0
  -28.4009  -18.5701   20.4364 C   0  0  0  0  0  0
  -28.6774  -19.5236   21.4538 C   0  0  0  0  0  0
  -27.9719  -19.2784   22.6636 C   0  0  0  0  0  0
  -28.7583  -17.6879   24.3399 C   0  0  0  0  0  0
  -29.4605  -20.1073   24.5630 C   0  0  0  0  0  0
  -30.1570  -17.2551   24.8039 C   0  0  0  0  0  0
  -30.8552  -19.5897   25.0160 C   0  0  0  0  0  0
  -28.0530  -22.2331   19.4245 C   0  0  0  0  0  0
  -29.5741  -25.4602   18.4662 C   0  0  0  0  0  0
  -32.0411  -17.8087   26.2917 C   0  0  0  0  0  0
  -29.4650  -18.0800   19.4727 C   0  0  0  0  0  0
  -28.8984  -24.3205   20.7023 C   0  0  0  0  0  0
  -30.4371  -17.0335   20.1169 C   0  0  0  0  0  0
  -29.4203  -21.9117   21.5645 C   0  0  0  0  0  0
  -29.1609  -22.8182   20.3094 C   0  0  1  0  0  0
  -28.5273  -25.3405   19.5811 C   0  0  1  0  0  0
  -26.7654  -18.6570   22.6796 N   0  0  0  0  0  0
  -28.7187  -19.0690   23.8407 N   0  0  0  0  0  0
  -29.7259  -20.4743   21.3254 N   0  0  0  0  0  0
  -29.9168  -15.6672   20.4222 N   0  0  0  0  0  0
  -30.7632  -18.2691   25.6958 N   0  3  0  0  0  0
  -31.4514  -12.3735   19.1643 H   0  0  0  0  0  0
  -30.2766  -11.3114   19.9101 H   0  0  0  0  0  0
  -29.7355  -11.6927   17.4703 H   0  0  0  0  0  0
  -29.6636  -13.4196   17.7426 H   0  0  0  0  0  0
  -27.8363  -11.2681   18.8621 H   0  0  0  0  0  0
  -27.3589  -12.5553   17.7850 H   0  0  0  0  0  0
  -27.6527  -14.2287   19.5003 H   0  0  0  0  0  0
  -28.6697  -12.0942   21.4360 H   0  0  0  0  0  0
  -28.4620  -13.7881   21.7925 H   0  0  0  0  0  0
  -25.2768   -9.5614   22.4787 H   0  0  0  0  0  0
  -23.9940   -7.4602   22.7527 H   0  0  0  0  0  0
  -21.0803   -8.8699   19.8997 H   0  0  0  0  0  0
  -22.3635  -10.9620   19.6162 H   0  0  0  0  0  0
  -21.2025   -7.6148   23.9652 H   0  0  0  0  0  0
  -21.1476   -6.0586   25.9069 H   0  0  0  0  0  0
  -22.0601   -2.7587   23.2933 H   0  0  0  0  0  0
  -22.4132  -11.9776   22.4689 H   0  0  0  0  0  0
  -21.1119  -13.1187   22.2754 H   0  0  0  0  0  0
  -24.5949  -15.7759   20.3795 H   0  0  0  0  0  0
  -26.2101  -15.5671   19.9197 H   0  0  0  0  0  0
  -26.7129  -32.5507   23.1152 H   0  0  0  0  0  0
  -25.0112  -33.9798   25.0473 H   0  0  0  0  0  0
  -22.6910  -31.3104   21.4164 H   0  0  0  0  0  0
  -23.3732  -35.9662   23.3319 H   0  0  0  0  0  0
  -24.3582  -36.8943   22.2051 H   0  0  0  0  0  0
  -23.7267  -37.6501   23.6684 H   0  0  0  0  0  0
  -26.0379  -31.6064   20.6043 H   0  0  0  0  0  0
  -26.8247  -30.8777   21.9890 H   0  0  0  0  0  0
  -28.1240  -29.0729   21.1333 H   0  0  0  0  0  0
  -25.9168  -25.9724   19.0461 H   0  0  0  0  0  0
  -23.9646  -27.3109   19.0289 H   0  0  0  0  0  0
  -23.7919  -30.6658   19.4365 H   0  0  0  0  0  0
  -22.7285  -29.3351   19.8273 H   0  0  0  0  0  0
  -25.1272  -36.1933   25.0814 H   0  0  0  0  0  0
  -20.9870  -28.3223   24.1398 H   0  0  0  0  0  0
  -20.5735  -26.2264   23.3544 H   0  0  0  0  0  0
  -21.6670  -26.7476   22.1112 H   0  0  0  0  0  0
  -19.6928  -25.6232   21.1234 H   0  0  0  0  0  0
  -19.6708  -27.3099   20.6659 H   0  0  0  0  0  0
  -17.4184  -26.6609   21.3993 H   0  0  0  0  0  0
  -18.0350  -26.0088   22.9013 H   0  0  0  0  0  0
  -19.8065  -30.7296   24.2059 H   0  0  0  0  0  0
  -17.5156  -31.6241   24.5238 H   0  0  0  0  0  0
  -15.5411  -30.3043   23.7727 H   0  0  0  0  0  0
  -15.8653  -28.0974   22.6822 H   0  0  0  0  0  0
  -24.5862  -30.7199   25.7873 H   0  0  0  0  0  0
  -24.8903  -32.2995   26.4794 H   0  0  0  0  0  0
  -25.7924  -30.9079   27.0310 H   0  0  0  0  0  0
  -26.3000  -29.6761   24.1285 H   0  0  0  0  0  0
  -27.4294  -29.7447   25.4639 H   0  0  0  0  0  0
  -27.8773  -30.4431   23.9305 H   0  0  0  0  0  0
  -27.2615  -33.3717   26.1966 H   0  0  0  0  0  0
  -28.3842  -32.6894   25.0285 H   0  0  0  0  0  0
  -28.0744  -31.8597   26.5453 H   0  0  0  0  0  0
  -28.2489  -38.0143   24.7520 H   0  0  0  0  0  0
  -28.1121  -36.2616   24.6262 H   0  0  0  0  0  0
  -27.2276  -37.1432   25.8874 H   0  0  0  0  0  0
  -20.9347  -29.8968   21.7133 H   0  0  0  0  0  0
  -26.0159  -38.2838   24.1585 H   0  0  0  0  0  0
  -26.9177  -17.2184   19.6375 H   0  0  0  0  0  0
  -25.3875  -17.5295   21.6014 H   0  0  0  0  0  0
  -28.0381  -17.5821   25.1494 H   0  0  0  0  0  0
  -28.4525  -16.9864   23.5597 H   0  0  0  0  0  0
  -29.5736  -21.0059   23.9640 H   0  0  0  0  0  0
  -28.8650  -20.4081   25.4264 H   0  0  0  0  0  0
  -30.8068  -17.0947   23.9433 H   0  0  0  0  0  0
  -30.0854  -16.2978   25.3180 H   0  0  0  0  0  0
  -31.3439  -20.3154   25.6688 H   0  0  0  0  0  0
  -31.5014  -19.4815   24.1426 H   0  0  0  0  0  0
  -27.9160  -22.8362   18.5266 H   0  0  0  0  0  0
  -27.0938  -22.1529   19.9403 H   0  0  0  0  0  0
  -28.3466  -21.2410   19.0801 H   0  0  0  0  0  0
  -29.7475  -24.5180   17.9457 H   0  0  0  0  0  0
  -30.5352  -25.8273   18.8326 H   0  0  0  0  0  0
  -29.2216  -26.1672   17.7150 H   0  0  0  0  0  0
  -31.9191  -16.8262   26.7548 H   0  0  0  0  0  0
  -32.3912  -18.4916   27.0715 H   0  0  0  0  0  0
  -32.8124  -17.7268   25.5233 H   0  0  0  0  0  0
  -30.0269  -18.9510   19.1378 H   0  0  0  0  0  0
  -28.9980  -17.6677   18.5814 H   0  0  0  0  0  0
  -28.0967  -24.3494   21.4427 H   0  0  0  0  0  0
  -29.7991  -24.6877   21.1981 H   0  0  0  0  0  0
  -30.8257  -17.4578   21.0388 H   0  0  0  0  0  0
  -31.2949  -16.9556   19.4482 H   0  0  0  0  0  0
  -28.5756  -22.0200   22.2453 H   0  0  0  0  0  0
  -30.2934  -22.3285   22.0792 H   0  0  0  0  0  0
  -30.0701  -22.8206   19.7084 H   0  0  0  0  0  0
  -27.6249  -24.9817   19.1031 H   0  0  0  0  0  0
  -30.5575  -20.1800   21.8270 H   0  0  0  0  0  0
  -28.9261  -15.5694   20.5940 H   0  0  0  0  0  0
  -30.1245  -18.3781   26.4685 H   0  0  0  0  0  0
  1 25  1  0  0  0
  1 30  2  0  0  0
  1 92  1  0  0  0
  2  3  1  0  0  0
  2 25  1  0  0  0
  2 94  1  0  0  0
  2 95  1  0  0  0
  3  4  1  0  0  0
  3 96  1  0  0  0
  3 97  1  0  0  0
  4  5  1  0  0  0
  4 98  1  0  0  0
  4 99  1  0  0  0
  5  6  1  0  0  0
  5 26  1  0  0  0
  5100  1  0  0  0
  6 25  1  0  0  0
  6101  1  0  0  0
  6102  1  0  0  0
  7  8  2  0  0  0
  7 26  1  0  0  0
  7 29  1  0  0  0
  8  9  1  0  0  0
  8 22  1  0  0  0
  9 10  1  0  0  0
  9 27  2  0  0  0
 10 11  2  0  0  0
 10 15  1  0  0  0
 11 12  1  0  0  0
 11103  1  0  0  0
 12 13  2  0  0  0
 12104  1  0  0  0
 13 14  1  0  0  0
 13 31  1  0  0  0
 14 15  2  0  0  0
 14105  1  0  0  0
 15106  1  0  0  0
 16 17  2  0  0  0
 16 21  1  0  0  0
 16 31  1  0  0  0
 17 18  1  0  0  0
 17107  1  0  0  0
 18 19  2  0  0  0
 18108  1  0  0  0
 19 20  1  0  0  0
 19 24  1  0  0  0
 20 21  2  0  0  0
 20109  1  0  0  0
 21 23  1  0  0  0
 22 28  1  0  0  0
 22 32  2  0  0  0
 26 27  1  0  0  0
 28110  1  0  0  0
 28111  1  0  0  0
 29112  1  0  0  0
 29113  1  0  0  0
 33 34  1  0  0  0
 33 66  1  0  0  0
 33 70  2  0  0  0
 34 36  1  0  0  0
 34 59  1  0  0  0
 34114  1  0  0  0
 35 44  2  0  0  0
 35 45  1  0  0  0
 35 68  1  0  0  0
 36 56  1  0  0  0
 36115  1  0  0  0
 37 39  1  0  0  0
 37 47  1  0  0  0
 37 66  1  0  0  0
 37116  1  0  0  0
 38 43  2  0  0  0
 38 46  1  0  0  0
 38 47  1  0  0  0
 39 64  1  0  0  0
 39 67  2  0  0  0
 40 52  1  0  0  0
 40 53  2  0  0  0
 40 58  1  0  0  0
 41117  1  0  0  0
 41118  1  0  0  0
 41119  1  0  0  0
 41 48  1  0  0  0
 42 43  1  0  0  0
 42 66  1  0  0  0
 42120  1  0  0  0
 42121  1  0  0  0
 43 44  1  0  0  0
 44122  1  0  0  0
 45 46  2  0  0  0
 45123  1  0  0  0
 46124  1  0  0  0
 47125  1  0  0  0
 47126  1  0  0  0
 48 56  1  0  0  0
 48 65  1  0  0  0
 48127  1  0  0  0
 49 50  1  0  0  0
 49 53  1  0  0  0
 49 64  1  0  0  0
 49128  1  0  0  0
 50 51  1  0  0  0
 50129  1  0  0  0
 50130  1  0  0  0
 51 52  1  0  0  0
 51131  1  0  0  0
 51132  1  0  0  0
 52133  1  0  0  0
 52134  1  0  0  0
 53 54  1  0  0  0
 54 55  2  0  0  0
 54135  1  0  0  0
 55 57  1  0  0  0
 55136  1  0  0  0
 56 69  2  0  0  0
 57 58  2  0  0  0
 57137  1  0  0  0
 58138  1  0  0  0
 59 60  1  0  0  0
 59 61  1  0  0  0
 59 62  1  0  0  0
 60139  1  0  0  0
 60140  1  0  0  0
 60141  1  0  0  0
 61142  1  0  0  0
 61143  1  0  0  0
 61144  1  0  0  0
 62145  1  0  0  0
 62146  1  0  0  0
 62147  1  0  0  0
 63 65  1  0  0  0
 63148  1  0  0  0
 63149  1  0  0  0
 63150  1  0  0  0
 64151  1  0  0  0
 65152  1  0  0  0
 68 88  1  0  0  0
 71 72  2  0  0  0
 71 73  1  0  0  0
 71153  1  0  0  0
 72 89  1  0  0  0
 72154  1  0  0  0
 73 74  2  0  0  0
 73 83  1  0  0  0
 74 75  1  0  0  0
 74 91  1  0  0  0
 75 89  2  0  0  0
 75 90  1  0  0  0
 76 78  1  0  0  0
 76 90  1  0  0  0
 76155  1  0  0  0
 76156  1  0  0  0
 77 79  1  0  0  0
 77 90  1  0  0  0
 77157  1  0  0  0
 77158  1  0  0  0
 78 93  1  0  0  0
 78159  1  0  0  0
 78160  1  0  0  0
 79 93  1  0  0  0
 79161  1  0  0  0
 79162  1  0  0  0
 80163  1  0  0  0
 80164  1  0  0  0
 80165  1  0  0  0
 80 87  1  0  0  0
 81166  1  0  0  0
 81167  1  0  0  0
 81168  1  0  0  0
 81 88  1  0  0  0
 82169  1  0  0  0
 82170  1  0  0  0
 82171  1  0  0  0
 82 93  1  0  0  0
 83 85  1  0  0  0
 83172  1  0  0  0
 83173  1  0  0  0
 84 87  1  0  0  0
 84 88  1  0  0  0
 84174  1  0  0  0
 84175  1  0  0  0
 85 92  1  0  0  0
 85176  1  0  0  0
 85177  1  0  0  0
 86 87  1  0  0  0
 86 91  1  0  0  0
 86178  1  0  0  0
 86179  1  0  0  0
 87180  1  0  0  0
 88181  1  0  0  0
 91182  1  0  0  0
 92183  1  0  0  0
 93184  1  0  0  0
M  CHG  1  93   1
M  ISO  4   1 100  68 101  88 101  92 100
M  END
> <chiral flag>
0

> <version>
0

> <s_m_source_file>
/data/baiqing/PycharmProjects/Reinvent-master-3.2/result/LINK_invent/BTK/process_docking_weight1_custom_sum_contain_oxygen_bond_distance_aromatic_linkinvent_7_9_3/rearranged_h_0115.sdf

> <i_m_source_file_index>
54

> <r_mmod_Potential_Energy-OPLS-2005>
-115.949668884277

> <r_mmod_Stretch_Energy-OPLS-2005>
54.7735176086426

> <r_mmod_Bend_Energy-OPLS-2005>
159.228408813477

> <r_mmod_Torsional_Energy-OPLS-2005>
424.473388671875

> <r_mmod_Improper_Torsional_Energy-OPLS-2005>
22.4839935302734

> <r_mmod_Van_der_Waal_Energy-OPLS-2005>
154.752212524414

> <r_mmod_Electrostatic_Energy-OPLS-2005>
-483.963531494141

> <r_mmod_Solvation_Energy-OPLS-2005>
-479.428924560547

> <b_mmod_Minimization_Converged-OPLS-2005>
0

> <r_mmod_RMS_Derivative-OPLS-2005>
9.70453357696533

$$$$
54
                    3D
 Structure written by MMmdl.
172180  0  0  1  0            999 V2000
  -30.6975  -14.4443   20.5394 C   0  0  0  0  0  0
  -30.4189  -12.2829   19.4245 C   0  0  0  0  0  0
  -29.4988  -12.5014   18.2032 C   0  0  0  0  0  0
  -28.0159  -12.3762   18.6079 C   0  0  0  0  0  0
  -27.6657  -13.2053   19.8743 C   0  0  2  0  0  0
  -28.7028  -12.9804   20.9997 C   0  0  0  0  0  0
  -25.2620  -13.8149   20.5653 C   0  0  0  0  0  0
  -24.1862  -13.0423   20.9154 C   0  0  0  0  0  0
  -24.6397  -11.6884   20.8679 C   0  0  0  0  0  0
  -23.9051  -10.4273   21.0355 C   0  0  0  0  0  0
  -24.3608   -9.4221   21.9142 C   0  0  0  0  0  0
  -23.6317   -8.2249   22.0729 C   0  0  0  0  0  0
  -22.4299   -8.0263   21.3502 C   0  0  0  0  0  0
  -21.9899   -9.0232   20.4615 C   0  0  0  0  0  0
  -22.7212  -10.2125   20.3013 C   0  0  0  0  0  0
  -21.6863   -6.0738   22.5275 C   0  0  0  0  0  0
  -21.4015   -6.5642   23.8208 C   0  0  0  0  0  0
  -21.3652   -5.6791   24.9167 C   0  0  0  0  0  0
  -21.6050   -4.3055   24.7210 C   0  0  0  0  0  0
  -21.8828   -3.8139   23.4334 C   0  0  0  0  0  0
  -21.9202   -4.6959   22.3385 C   0  0  0  0  0  0
  -22.7882  -13.5215   21.1821 C   0  0  0  0  0  0
  -22.1667   -4.2139   21.0963 F   0  0  0  0  0  0
  -21.5637   -3.4541   25.7726 F   0  0  0  0  0  0
  -30.0399  -13.2623   20.4530 N   0  0  0  0  0  0
  -26.3057  -12.9316   20.3342 N   0  0  0  0  0  0
  -25.9333  -11.6473   20.5720 N   0  0  0  0  0  0
  -22.0505  -12.8226   22.0381 N   0  0  0  0  0  0
  -25.4344  -15.1868   20.4026 N   0  0  0  0  0  0
  -31.8346  -14.6183   20.0995 O   0  0  0  0  0  0
  -21.6645   -6.8870   21.4232 O   0  0  0  0  0  0
  -22.3571  -14.5529   20.6669 O   0  0  0  0  0  0
  -24.6127  -31.8694   23.2109 C   0  0  0  0  0  0
  -25.9035  -32.4816   23.8395 C   0  0  1  0  0  0
  -27.2322  -27.4491   20.0864 C   0  0  0  0  0  0
  -25.5909  -33.8616   24.2319 N   0  0  0  0  0  0
  -23.3987  -30.4919   21.5534 C   0  0  2  0  0  0
  -24.8437  -28.9570   20.1163 C   0  0  0  0  0  0
  -22.7388  -29.4651   22.5010 C   0  0  0  0  0  0
  -18.0262  -28.1345   22.8470 C   0  0  0  0  0  0
  -24.1491  -36.7317   23.2636 C   0  0  0  0  0  0
  -25.9258  -30.8372   21.3628 C   0  0  0  0  0  0
  -26.0049  -29.4740   20.7053 C   0  0  0  0  0  0
  -27.2037  -28.7289   20.6828 C   0  0  0  0  0  0
  -26.0546  -26.9400   19.4950 C   0  0  0  0  0  0
  -24.8640  -27.6887   19.5094 C   0  0  0  0  0  0
  -23.6047  -29.8220   20.1684 C   0  0  0  0  0  0
  -25.4111  -36.3103   24.0332 C   0  0  1  0  0  0
  -20.5834  -28.3626   23.1324 C   0  0  2  0  0  0
  -20.6733  -26.9366   22.5416 C   0  0  0  0  0  0
  -19.5728  -26.6360   21.5194 C   0  0  0  0  0  0
  -18.1909  -26.7898   22.1607 C   0  0  0  0  0  0
  -19.1499  -28.8809   23.2898 C   0  0  0  0  0  0
  -18.9441  -30.1418   23.8898 C   0  0  0  0  0  0
  -17.6441  -30.6562   24.0539 C   0  0  0  0  0  0
  -25.9039  -34.9466   23.5116 C   0  0  0  0  0  0
  -16.5331  -29.9049   23.6321 C   0  0  0  0  0  0
  -16.7253  -28.6466   23.0351 C   0  0  0  0  0  0
  -26.4475  -31.6588   25.0719 C   0  0  0  0  0  0
  -25.3764  -31.3693   26.1484 C   0  0  0  0  0  0
  -27.0297  -30.3026   24.6090 C   0  0  0  0  0  0
  -27.6036  -32.4321   25.7502 C   0  0  0  0  0  0
  -27.5588  -37.1810   24.8457 C   0  0  0  0  0  0
  -21.4117  -29.3012   22.3747 N   0  0  0  0  0  0
  -26.4290  -37.3801   23.9412 N   0  0  0  0  0  0
  -24.6641  -31.0804   22.1002 N   0  0  0  0  0  0
  -23.4172  -28.8191   23.3045 O   0  0  0  0  0  0
  -28.4012  -26.7257   20.0666 O   0  0  0  0  0  0
  -26.5594  -34.8912   22.4670 O   0  0  0  0  0  0
  -23.5333  -32.1424   23.7526 O   0  0  0  0  0  0
  -33.3014  -19.3438   19.2080 C   0  0  0  0  0  0
  -33.5142  -17.9470   19.8140 C   0  0  0  0  0  0
  -30.8865  -19.1856   19.6774 C   0  0  1  0  0  0
  -31.1047  -17.7647   20.3175 C   0  0  1  0  0  0
  -28.4575  -19.9074   19.2697 C   0  0  0  0  0  0
  -30.7733  -25.7632   21.1587 C   0  0  0  0  0  0
  -29.8749  -16.8114   20.2092 C   0  0  0  0  0  0
  -29.7092  -23.5375   21.7053 C   0  0  0  0  0  0
  -29.0716  -22.2257   21.1984 C   0  0  0  0  0  0
  -28.3112  -25.3980   20.5998 C   0  0  0  0  0  0
  -29.6665  -20.0063   20.2172 C   0  0  2  0  0  0
  -29.7083  -24.7376   20.7231 C   0  0  1  0  0  0
  -32.1237  -19.9888   19.8055 N   0  0  0  0  0  0
  -29.9344  -15.4931   20.8843 N   0  0  0  0  0  0
  -30.0283  -21.4269   20.4212 N   0  0  0  0  0  0
  -32.2800  -17.1589   19.6525 N   0  3  0  0  0  0
  -31.4658  -12.3775   19.1294 H   0  0  0  0  0  0
  -30.3102  -11.2699   19.8124 H   0  0  0  0  0  0
  -29.7343  -11.7814   17.4183 H   0  0  0  0  0  0
  -29.6819  -13.4899   17.7789 H   0  0  0  0  0  0
  -27.8106  -11.3205   18.7860 H   0  0  0  0  0  0
  -27.3740  -12.6764   17.7779 H   0  0  0  0  0  0
  -27.7121  -14.2541   19.5831 H   0  0  0  0  0  0
  -28.6619  -11.9497   21.3530 H   0  0  0  0  0  0
  -28.4740  -13.6017   21.8681 H   0  0  0  0  0  0
  -25.2744   -9.5757   22.4733 H   0  0  0  0  0  0
  -24.0031   -7.4650   22.7462 H   0  0  0  0  0  0
  -21.0829   -8.8746   19.8931 H   0  0  0  0  0  0
  -22.3632  -10.9670   19.6146 H   0  0  0  0  0  0
  -21.1990   -7.6150   23.9716 H   0  0  0  0  0  0
  -21.1475   -6.0505   25.9080 H   0  0  0  0  0  0
  -22.0610   -2.7608   23.2828 H   0  0  0  0  0  0
  -22.4087  -11.9903   22.4827 H   0  0  0  0  0  0
  -21.1118  -13.1261   22.2500 H   0  0  0  0  0  0
  -24.6656  -15.8404   20.5024 H   0  0  0  0  0  0
  -26.2880  -15.6264   20.0816 H   0  0  0  0  0  0
  -26.7092  -32.5539   23.1152 H   0  0  0  0  0  0
  -25.0071  -33.9775   25.0471 H   0  0  0  0  0  0
  -22.6869  -31.3083   21.4155 H   0  0  0  0  0  0
  -23.3752  -35.9658   23.3295 H   0  0  0  0  0  0
  -24.3582  -36.8940   22.2053 H   0  0  0  0  0  0
  -23.7238  -37.6515   23.6654 H   0  0  0  0  0  0
  -26.0401  -31.6103   20.6007 H   0  0  0  0  0  0
  -26.8120  -30.8839   21.9852 H   0  0  0  0  0  0
  -28.1032  -29.1277   21.1314 H   0  0  0  0  0  0
  -26.0564  -25.9767   19.0066 H   0  0  0  0  0  0
  -23.9712  -27.2878   19.0488 H   0  0  0  0  0  0
  -23.7058  -30.5950   19.4052 H   0  0  0  0  0  0
  -22.7295  -29.2379   19.8774 H   0  0  0  0  0  0
  -25.1284  -36.1970   25.0828 H   0  0  0  0  0  0
  -20.9919  -28.3170   24.1445 H   0  0  0  0  0  0
  -20.5601  -26.2231   23.3589 H   0  0  0  0  0  0
  -21.6611  -26.7403   22.1228 H   0  0  0  0  0  0
  -19.6890  -25.6278   21.1206 H   0  0  0  0  0  0
  -19.6671  -27.3171   20.6723 H   0  0  0  0  0  0
  -17.4179  -26.6643   21.4007 H   0  0  0  0  0  0
  -18.0319  -26.0025   22.8990 H   0  0  0  0  0  0
  -19.7928  -30.7219   24.2256 H   0  0  0  0  0  0
  -17.5014  -31.6250   24.5136 H   0  0  0  0  0  0
  -15.5328  -30.2959   23.7657 H   0  0  0  0  0  0
  -15.8652  -28.0796   22.7064 H   0  0  0  0  0  0
  -24.5918  -30.7051   25.7848 H   0  0  0  0  0  0
  -24.8983  -32.2847   26.4983 H   0  0  0  0  0  0
  -25.8146  -30.8843   27.0215 H   0  0  0  0  0  0
  -26.2827  -29.6805   24.1140 H   0  0  0  0  0  0
  -27.4046  -29.7247   25.4549 H   0  0  0  0  0  0
  -27.8683  -30.4333   23.9241 H   0  0  0  0  0  0
  -27.2618  -33.3600   26.2113 H   0  0  0  0  0  0
  -28.3844  -32.6922   25.0338 H   0  0  0  0  0  0
  -28.0708  -31.8429   26.5407 H   0  0  0  0  0  0
  -28.2582  -38.0131   24.7522 H   0  0  0  0  0  0
  -28.1093  -36.2647   24.6249 H   0  0  0  0  0  0
  -27.2297  -37.1435   25.8858 H   0  0  0  0  0  0
  -20.9260  -29.8783   21.7018 H   0  0  0  0  0  0
  -26.0171  -38.2876   24.1427 H   0  0  0  0  0  0
  -33.1821  -19.2560   18.1263 H   0  0  0  0  0  0
  -34.1890  -19.9593   19.3630 H   0  0  0  0  0  0
  -33.7868  -18.0143   20.8681 H   0  0  0  0  0  0
  -34.3352  -17.4375   19.3080 H   0  0  0  0  0  0
  -30.7077  -19.0296   18.6110 H   0  0  0  0  0  0
  -31.3321  -17.8887   21.3778 H   0  0  0  0  0  0
  -28.2603  -18.8791   18.9723 H   0  0  0  0  0  0
  -28.6205  -20.4776   18.3535 H   0  0  0  0  0  0
  -27.5454  -20.2812   19.7345 H   0  0  0  0  0  0
  -31.7543  -25.2980   21.2536 H   0  0  0  0  0  0
  -30.5220  -26.2192   22.1170 H   0  0  0  0  0  0
  -30.8764  -26.5656   20.4271 H   0  0  0  0  0  0
  -29.6308  -16.6436   19.1586 H   0  0  0  0  0  0
  -29.0081  -17.3170   20.6298 H   0  0  0  0  0  0
  -30.7283  -23.3249   22.0369 H   0  0  0  0  0  0
  -29.1873  -23.8453   22.6128 H   0  0  0  0  0  0
  -28.1604  -22.4234   20.6317 H   0  0  0  0  0  0
  -28.7624  -21.6524   22.0751 H   0  0  0  0  0  0
  -27.8374  -25.4556   21.5812 H   0  0  0  0  0  0
  -27.6795  -24.7659   19.9746 H   0  0  0  0  0  0
  -29.3797  -19.5789   21.1809 H   0  0  0  0  0  0
  -30.0029  -24.3713   19.7399 H   0  0  0  0  0  0
  -31.9421  -20.8805   19.3396 H   0  0  0  0  0  0
  -29.0801  -15.2268   21.3531 H   0  0  0  0  0  0
  -30.9414  -21.4207   20.8819 H   0  0  0  0  0  0
  -32.3940  -16.2076   20.0006 H   0  0  0  0  0  0
  -32.0842  -17.0812   18.6705 H   0  0  0  0  0  0
  1 25  1  0  0  0
  1 30  2  0  0  0
  1 84  1  0  0  0
  2  3  1  0  0  0
  2 25  1  0  0  0
  2 87  1  0  0  0
  2 88  1  0  0  0
  3  4  1  0  0  0
  3 89  1  0  0  0
  3 90  1  0  0  0
  4  5  1  0  0  0
  4 91  1  0  0  0
  4 92  1  0  0  0
  5  6  1  0  0  0
  5 26  1  0  0  0
  5 93  1  0  0  0
  6 25  1  0  0  0
  6 94  1  0  0  0
  6 95  1  0  0  0
  7  8  2  0  0  0
  7 26  1  0  0  0
  7 29  1  0  0  0
  8  9  1  0  0  0
  8 22  1  0  0  0
  9 10  1  0  0  0
  9 27  2  0  0  0
 10 11  2  0  0  0
 10 15  1  0  0  0
 11 12  1  0  0  0
 11 96  1  0  0  0
 12 13  2  0  0  0
 12 97  1  0  0  0
 13 14  1  0  0  0
 13 31  1  0  0  0
 14 15  2  0  0  0
 14 98  1  0  0  0
 15 99  1  0  0  0
 16 17  2  0  0  0
 16 21  1  0  0  0
 16 31  1  0  0  0
 17 18  1  0  0  0
 17100  1  0  0  0
 18 19  2  0  0  0
 18101  1  0  0  0
 19 20  1  0  0  0
 19 24  1  0  0  0
 20 21  2  0  0  0
 20102  1  0  0  0
 21 23  1  0  0  0
 22 28  1  0  0  0
 22 32  2  0  0  0
 26 27  1  0  0  0
 28103  1  0  0  0
 28104  1  0  0  0
 29105  1  0  0  0
 29106  1  0  0  0
 33 34  1  0  0  0
 33 66  1  0  0  0
 33 70  2  0  0  0
 34 36  1  0  0  0
 34 59  1  0  0  0
 34107  1  0  0  0
 35 44  2  0  0  0
 35 45  1  0  0  0
 35 68  1  0  0  0
 36 56  1  0  0  0
 36108  1  0  0  0
 37 39  1  0  0  0
 37 47  1  0  0  0
 37 66  1  0  0  0
 37109  1  0  0  0
 38 43  2  0  0  0
 38 46  1  0  0  0
 38 47  1  0  0  0
 39 64  1  0  0  0
 39 67  2  0  0  0
 40 52  1  0  0  0
 40 53  2  0  0  0
 40 58  1  0  0  0
 41110  1  0  0  0
 41111  1  0  0  0
 41112  1  0  0  0
 41 48  1  0  0  0
 42 43  1  0  0  0
 42 66  1  0  0  0
 42113  1  0  0  0
 42114  1  0  0  0
 43 44  1  0  0  0
 44115  1  0  0  0
 45 46  2  0  0  0
 45116  1  0  0  0
 46117  1  0  0  0
 47118  1  0  0  0
 47119  1  0  0  0
 48 56  1  0  0  0
 48 65  1  0  0  0
 48120  1  0  0  0
 49 50  1  0  0  0
 49 53  1  0  0  0
 49 64  1  0  0  0
 49121  1  0  0  0
 50 51  1  0  0  0
 50122  1  0  0  0
 50123  1  0  0  0
 51 52  1  0  0  0
 51124  1  0  0  0
 51125  1  0  0  0
 52126  1  0  0  0
 52127  1  0  0  0
 53 54  1  0  0  0
 54 55  2  0  0  0
 54128  1  0  0  0
 55 57  1  0  0  0
 55129  1  0  0  0
 56 69  2  0  0  0
 57 58  2  0  0  0
 57130  1  0  0  0
 58131  1  0  0  0
 59 60  1  0  0  0
 59 61  1  0  0  0
 59 62  1  0  0  0
 60132  1  0  0  0
 60133  1  0  0  0
 60134  1  0  0  0
 61135  1  0  0  0
 61136  1  0  0  0
 61137  1  0  0  0
 62138  1  0  0  0
 62139  1  0  0  0
 62140  1  0  0  0
 63 65  1  0  0  0
 63141  1  0  0  0
 63142  1  0  0  0
 63143  1  0  0  0
 64144  1  0  0  0
 65145  1  0  0  0
 68 80  1  0  0  0
 71 72  1  0  0  0
 71 83  1  0  0  0
 71146  1  0  0  0
 71147  1  0  0  0
 72 86  1  0  0  0
 72148  1  0  0  0
 72149  1  0  0  0
 73 74  1  0  0  0
 73 81  1  0  0  0
 73 83  1  0  0  0
 73150  1  0  0  0
 74 77  1  0  0  0
 74 86  1  0  0  0
 74151  1  0  0  0
 75152  1  0  0  0
 75153  1  0  0  0
 75154  1  0  0  0
 75 81  1  0  0  0
 76155  1  0  0  0
 76156  1  0  0  0
 76157  1  0  0  0
 76 82  1  0  0  0
 77 84  1  0  0  0
 77158  1  0  0  0
 77159  1  0  0  0
 78 79  1  0  0  0
 78 82  1  0  0  0
 78160  1  0  0  0
 78161  1  0  0  0
 79 85  1  0  0  0
 79162  1  0  0  0
 79163  1  0  0  0
 80 82  1  0  0  0
 80164  1  0  0  0
 80165  1  0  0  0
 81 85  1  0  0  0
 81166  1  0  0  0
 82167  1  0  0  0
 83168  1  0  0  0
 84169  1  0  0  0
 85170  1  0  0  0
 86171  1  0  0  0
 86172  1  0  0  0
M  CHG  1  86   1
M  ISO  4   1 100  68 101  80 101  84 100
M  END
> <chiral flag>
0

> <version>
0

> <s_m_source_file>
/data/baiqing/PycharmProjects/Reinvent-master-3.2/result/LINK_invent/BTK/process_docking_weight1_custom_sum_contain_oxygen_bond_distance_aromatic_linkinvent_7_9_3/rearranged_h_0115.sdf

> <i_m_source_file_index>
55

> <r_mmod_Potential_Energy-OPLS-2005>
-181.869262695312

> <r_mmod_Stretch_Energy-OPLS-2005>
40.6202163696289

> <r_mmod_Bend_Energy-OPLS-2005>
107.519073486328

> <r_mmod_Torsional_Energy-OPLS-2005>
345.329498291016

> <r_mmod_Improper_Torsional_Energy-OPLS-2005>
8.43473815917969

> <r_mmod_Van_der_Waal_Energy-OPLS-2005>
167.650680541992

> <r_mmod_Electrostatic_Energy-OPLS-2005>
-450.297943115234

> <r_mmod_Solvation_Energy-OPLS-2005>
-412.376312255859

> <b_mmod_Minimization_Converged-OPLS-2005>
0

> <r_mmod_RMS_Derivative-OPLS-2005>
3.43843626976013

$$$$
55
                    3D
 Structure written by MMmdl.
177185  0  0  1  0            999 V2000
  -30.7072  -14.6433   20.5452 C   0  0  0  0  0  0
  -30.4120  -12.4135   19.4678 C   0  0  0  0  0  0
  -29.4983  -12.5067   18.2290 C   0  0  0  0  0  0
  -28.0288  -12.3079   18.6399 C   0  0  0  0  0  0
  -27.6387  -13.1987   19.8447 C   0  0  2  0  0  0
  -28.6830  -13.1267   20.9868 C   0  0  0  0  0  0
  -25.2499  -13.8026   20.5506 C   0  0  0  0  0  0
  -24.1792  -13.0365   20.9176 C   0  0  0  0  0  0
  -24.6348  -11.6843   20.8768 C   0  0  0  0  0  0
  -23.9013  -10.4252   21.0427 C   0  0  0  0  0  0
  -24.3583   -9.4174   21.9196 C   0  0  0  0  0  0
  -23.6266   -8.2202   22.0746 C   0  0  0  0  0  0
  -22.4250   -8.0248   21.3526 C   0  0  0  0  0  0
  -21.9882   -9.0219   20.4626 C   0  0  0  0  0  0
  -22.7192  -10.2103   20.3058 C   0  0  0  0  0  0
  -21.6839   -6.0718   22.5278 C   0  0  0  0  0  0
  -21.3994   -6.5630   23.8210 C   0  0  0  0  0  0
  -21.3656   -5.6786   24.9175 C   0  0  0  0  0  0
  -21.6047   -4.3049   24.7231 C   0  0  0  0  0  0
  -21.8827   -3.8134   23.4355 C   0  0  0  0  0  0
  -21.9193   -4.6948   22.3406 C   0  0  0  0  0  0
  -22.7841  -13.5214   21.1862 C   0  0  0  0  0  0
  -22.1663   -4.2131   21.0985 F   0  0  0  0  0  0
  -21.5633   -3.4536   25.7743 F   0  0  0  0  0  0
  -29.9956  -13.4682   20.4268 N   0  0  0  0  0  0
  -26.2911  -12.9193   20.3216 N   0  0  0  0  0  0
  -25.9271  -11.6388   20.5773 N   0  0  0  0  0  0
  -22.0473  -12.8224   22.0417 N   0  0  0  0  0  0
  -25.4169  -15.1663   20.3579 N   0  0  0  0  0  0
  -31.8466  -14.6950   20.0735 O   0  0  0  0  0  0
  -21.6623   -6.8843   21.4228 O   0  0  0  0  0  0
  -22.3544  -14.5535   20.6720 O   0  0  0  0  0  0
  -24.6228  -31.8612   23.2038 C   0  0  0  0  0  0
  -25.9091  -32.4787   23.8355 C   0  0  1  0  0  0
  -27.2330  -27.3463   20.1030 C   0  0  0  0  0  0
  -25.5912  -33.8585   24.2277 N   0  0  0  0  0  0
  -23.4146  -30.4835   21.5462 C   0  0  2  0  0  0
  -24.8598  -28.9378   20.1124 C   0  0  0  0  0  0
  -22.7454  -29.4632   22.4961 C   0  0  0  0  0  0
  -18.0278  -28.1383   22.8492 C   0  0  0  0  0  0
  -24.1492  -36.7300   23.2639 C   0  0  0  0  0  0
  -25.9520  -30.7987   21.3698 C   0  0  0  0  0  0
  -26.0249  -29.4274   20.7125 C   0  0  0  0  0  0
  -27.2091  -28.6403   20.7016 C   0  0  0  0  0  0
  -26.0357  -26.8890   19.5031 C   0  0  0  0  0  0
  -24.8651  -27.6725   19.5036 C   0  0  0  0  0  0
  -23.6266  -29.8147   20.1618 C   0  0  0  0  0  0
  -25.4117  -36.3090   24.0326 C   0  0  1  0  0  0
  -20.5876  -28.3682   23.1299 C   0  0  2  0  0  0
  -20.6771  -26.9409   22.5417 C   0  0  0  0  0  0
  -19.5746  -26.6382   21.5220 C   0  0  0  0  0  0
  -18.1922  -26.7934   22.1624 C   0  0  0  0  0  0
  -19.1533  -28.8849   23.2890 C   0  0  0  0  0  0
  -18.9455  -30.1456   23.8901 C   0  0  0  0  0  0
  -17.6455  -30.6590   24.0559 C   0  0  0  0  0  0
  -25.9050  -34.9458   23.5110 C   0  0  0  0  0  0
  -16.5346  -29.9088   23.6329 C   0  0  0  0  0  0
  -16.7266  -28.6505   23.0351 C   0  0  0  0  0  0
  -26.4483  -31.6589   25.0721 C   0  0  0  0  0  0
  -25.3720  -31.3717   26.1451 C   0  0  0  0  0  0
  -27.0326  -30.3021   24.6154 C   0  0  0  0  0  0
  -27.6051  -32.4315   25.7483 C   0  0  0  0  0  0
  -27.5587  -37.1805   24.8460 C   0  0  0  0  0  0
  -21.4167  -29.3042   22.3704 N   0  0  0  0  0  0
  -26.4297  -37.3787   23.9408 N   0  0  0  0  0  0
  -24.6820  -31.0639   22.0978 N   0  0  0  0  0  0
  -23.4195  -28.8165   23.3025 O   0  0  0  0  0  0
  -28.3981  -26.5747   20.1666 O   0  0  0  0  0  0
  -26.5616  -34.8919   22.4675 O   0  0  0  0  0  0
  -23.5396  -32.1396   23.7381 O   0  0  0  0  0  0
  -31.1949  -16.7287   21.8086 C   0  0  0  0  0  0
  -31.2936  -18.1121   21.0847 C   0  0  0  0  0  0
  -29.0198  -17.8399   20.3217 C   0  0  0  0  0  0
  -28.9051  -16.4598   21.0756 C   0  0  2  0  0  0
  -25.9571  -17.8293   22.0626 C   0  0  0  0  0  0
  -26.9939  -17.7071   24.3313 C   0  0  0  0  0  0
  -28.0686  -22.2562   18.6059 C   0  0  0  0  0  0
  -29.8713  -25.4672   18.6989 C   0  0  0  0  0  0
  -28.1430  -16.4849   22.4448 C   0  0  0  0  0  0
  -29.1386  -21.3261   20.7198 C   0  0  0  0  0  0
  -28.6343  -23.9916   20.4236 C   0  0  0  0  0  0
  -30.0639  -20.1394   20.2111 C   0  0  0  0  0  0
  -27.2883  -17.7243   22.8247 C   0  0  0  0  0  0
  -29.0283  -22.5929   19.7640 C   0  0  2  0  0  0
  -28.5697  -25.2817   19.4916 C   0  0  1  0  0  0
  -30.2236  -15.7631   21.2143 N   0  0  0  0  0  0
  -29.9797  -18.8032   20.9317 N   0  3  2  0  0  0
  -31.4573  -12.4977   19.1653 H   0  0  0  0  0  0
  -30.3248  -11.4281   19.9289 H   0  0  0  0  0  0
  -29.7848  -11.7578   17.4887 H   0  0  0  0  0  0
  -29.6221  -13.4789   17.7477 H   0  0  0  0  0  0
  -27.8933  -11.2566   18.8974 H   0  0  0  0  0  0
  -27.3686  -12.5016   17.7936 H   0  0  0  0  0  0
  -27.6240  -14.2008   19.4308 H   0  0  0  0  0  0
  -28.7082  -12.1239   21.4150 H   0  0  0  0  0  0
  -28.4199  -13.7814   21.8117 H   0  0  0  0  0  0
  -25.2722   -9.5665   22.4772 H   0  0  0  0  0  0
  -23.9980   -7.4597   22.7464 H   0  0  0  0  0  0
  -21.0809   -8.8724   19.8930 H   0  0  0  0  0  0
  -22.3640  -10.9649   19.6173 H   0  0  0  0  0  0
  -21.1964   -7.6136   23.9709 H   0  0  0  0  0  0
  -21.1470   -6.0511   25.9077 H   0  0  0  0  0  0
  -22.0610   -2.7594   23.2863 H   0  0  0  0  0  0
  -22.4070  -11.9876   22.4804 H   0  0  0  0  0  0
  -21.1091  -13.1255   22.2626 H   0  0  0  0  0  0
  -24.6474  -15.8182   20.4434 H   0  0  0  0  0  0
  -26.2599  -15.5869   19.9958 H   0  0  0  0  0  0
  -26.7156  -32.5455   23.1100 H   0  0  0  0  0  0
  -25.0057  -33.9732   25.0419 H   0  0  0  0  0  0
  -22.7081  -31.3037   21.4031 H   0  0  0  0  0  0
  -23.3762  -35.9626   23.3290 H   0  0  0  0  0  0
  -24.3590  -36.8932   22.2059 H   0  0  0  0  0  0
  -23.7231  -37.6491   23.6667 H   0  0  0  0  0  0
  -26.0789  -31.5633   20.6020 H   0  0  0  0  0  0
  -26.8348  -30.8474   21.9962 H   0  0  0  0  0  0
  -28.1062  -29.0145   21.1748 H   0  0  0  0  0  0
  -25.9569  -25.9138   19.0508 H   0  0  0  0  0  0
  -23.9650  -27.2866   19.0448 H   0  0  0  0  0  0
  -23.7423  -30.5890   19.4025 H   0  0  0  0  0  0
  -22.7480  -29.2397   19.8633 H   0  0  0  0  0  0
  -25.1302  -36.1945   25.0819 H   0  0  0  0  0  0
  -20.9957  -28.3246   24.1424 H   0  0  0  0  0  0
  -20.5677  -26.2287   23.3611 H   0  0  0  0  0  0
  -21.6637  -26.7455   22.1196 H   0  0  0  0  0  0
  -19.6903  -25.6289   21.1254 H   0  0  0  0  0  0
  -19.6688  -27.3191   20.6748 H   0  0  0  0  0  0
  -17.4195  -26.6692   21.4018 H   0  0  0  0  0  0
  -18.0314  -26.0069   22.9012 H   0  0  0  0  0  0
  -19.7928  -30.7281   24.2264 H   0  0  0  0  0  0
  -17.5008  -31.6280   24.5150 H   0  0  0  0  0  0
  -15.5346  -30.2995   23.7657 H   0  0  0  0  0  0
  -15.8662  -28.0834   22.7060 H   0  0  0  0  0  0
  -24.5878  -30.7095   25.7763 H   0  0  0  0  0  0
  -24.8938  -32.2885   26.4912 H   0  0  0  0  0  0
  -25.8044  -30.8851   27.0204 H   0  0  0  0  0  0
  -26.2899  -29.6771   24.1184 H   0  0  0  0  0  0
  -27.4044  -29.7273   25.4646 H   0  0  0  0  0  0
  -27.8755  -30.4323   23.9363 H   0  0  0  0  0  0
  -27.2673  -33.3608   26.2080 H   0  0  0  0  0  0
  -28.3854  -32.6884   25.0305 H   0  0  0  0  0  0
  -28.0731  -31.8426   26.5383 H   0  0  0  0  0  0
  -28.2590  -38.0116   24.7533 H   0  0  0  0  0  0
  -28.1100  -36.2653   24.6260 H   0  0  0  0  0  0
  -27.2308  -37.1407   25.8861 H   0  0  0  0  0  0
  -20.9337  -29.8782   21.6932 H   0  0  0  0  0  0
  -26.0182  -38.2862   24.1415 H   0  0  0  0  0  0
  -30.9279  -16.9027   22.8508 H   0  0  0  0  0  0
  -32.1976  -16.3018   21.8739 H   0  0  0  0  0  0
  -31.7453  -17.9764   20.1010 H   0  0  0  0  0  0
  -31.9729  -18.7586   21.6436 H   0  0  0  0  0  0
  -28.0498  -18.3190   20.2035 H   0  0  0  0  0  0
  -29.3561  -17.6390   19.3027 H   0  0  0  0  0  0
  -28.2870  -15.8737   20.4110 H   0  0  0  0  0  0
  -25.4484  -18.7664   22.2947 H   0  0  0  0  0  0
  -25.2792  -17.0222   22.3418 H   0  0  0  0  0  0
  -26.0807  -17.7938   20.9826 H   0  0  0  0  0  0
  -26.3635  -18.5469   24.6248 H   0  0  0  0  0  0
  -27.9108  -17.7694   24.9188 H   0  0  0  0  0  0
  -26.4781  -16.7901   24.6203 H   0  0  0  0  0  0
  -28.3244  -21.3120   18.1264 H   0  0  0  0  0  0
  -28.0867  -23.0151   17.8241 H   0  0  0  0  0  0
  -27.0405  -22.1707   18.9603 H   0  0  0  0  0  0
  -30.0630  -24.6241   18.0350 H   0  0  0  0  0  0
  -30.7292  -25.5763   19.3634 H   0  0  0  0  0  0
  -29.8186  -26.3584   18.0723 H   0  0  0  0  0  0
  -28.8582  -16.3288   23.2520 H   0  0  0  0  0  0
  -27.4922  -15.6125   22.5062 H   0  0  0  0  0  0
  -29.5156  -21.6523   21.6906 H   0  0  0  0  0  0
  -28.1340  -20.9460   20.9122 H   0  0  0  0  0  0
  -29.3436  -24.1954   21.2268 H   0  0  0  0  0  0
  -27.6669  -23.8813   20.9148 H   0  0  0  0  0  0
  -31.0898  -20.5033   20.2821 H   0  0  0  0  0  0
  -29.9113  -19.9693   19.1456 H   0  0  0  0  0  0
  -27.8601  -18.6314   22.6389 H   0  0  0  0  0  0
  -30.0239  -22.7285   19.3393 H   0  0  0  0  0  0
  -27.8011  -25.1220   18.7413 H   0  0  0  0  0  0
  -29.6652  -19.0035   21.8688 H   0  0  0  0  0  0
  1 25  1  0  0  0
  1 30  2  0  0  0
  1 86  1  0  0  0
  2  3  1  0  0  0
  2 25  1  0  0  0
  2 88  1  0  0  0
  2 89  1  0  0  0
  3  4  1  0  0  0
  3 90  1  0  0  0
  3 91  1  0  0  0
  4  5  1  0  0  0
  4 92  1  0  0  0
  4 93  1  0  0  0
  5  6  1  0  0  0
  5 26  1  0  0  0
  5 94  1  0  0  0
  6 25  1  0  0  0
  6 95  1  0  0  0
  6 96  1  0  0  0
  7  8  2  0  0  0
  7 26  1  0  0  0
  7 29  1  0  0  0
  8  9  1  0  0  0
  8 22  1  0  0  0
  9 10  1  0  0  0
  9 27  2  0  0  0
 10 11  2  0  0  0
 10 15  1  0  0  0
 11 12  1  0  0  0
 11 97  1  0  0  0
 12 13  2  0  0  0
 12 98  1  0  0  0
 13 14  1  0  0  0
 13 31  1  0  0  0
 14 15  2  0  0  0
 14 99  1  0  0  0
 15100  1  0  0  0
 16 17  2  0  0  0
 16 21  1  0  0  0
 16 31  1  0  0  0
 17 18  1  0  0  0
 17101  1  0  0  0
 18 19  2  0  0  0
 18102  1  0  0  0
 19 20  1  0  0  0
 19 24  1  0  0  0
 20 21  2  0  0  0
 20103  1  0  0  0
 21 23  1  0  0  0
 22 28  1  0  0  0
 22 32  2  0  0  0
 26 27  1  0  0  0
 28104  1  0  0  0
 28105  1  0  0  0
 29106  1  0  0  0
 29107  1  0  0  0
 33 34  1  0  0  0
 33 66  1  0  0  0
 33 70  2  0  0  0
 34 36  1  0  0  0
 34 59  1  0  0  0
 34108  1  0  0  0
 35 44  2  0  0  0
 35 45  1  0  0  0
 35 68  1  0  0  0
 36 56  1  0  0  0
 36109  1  0  0  0
 37 39  1  0  0  0
 37 47  1  0  0  0
 37 66  1  0  0  0
 37110  1  0  0  0
 38 43  2  0  0  0
 38 46  1  0  0  0
 38 47  1  0  0  0
 39 64  1  0  0  0
 39 67  2  0  0  0
 40 52  1  0  0  0
 40 53  2  0  0  0
 40 58  1  0  0  0
 41111  1  0  0  0
 41112  1  0  0  0
 41113  1  0  0  0
 41 48  1  0  0  0
 42 43  1  0  0  0
 42 66  1  0  0  0
 42114  1  0  0  0
 42115  1  0  0  0
 43 44  1  0  0  0
 44116  1  0  0  0
 45 46  2  0  0  0
 45117  1  0  0  0
 46118  1  0  0  0
 47119  1  0  0  0
 47120  1  0  0  0
 48 56  1  0  0  0
 48 65  1  0  0  0
 48121  1  0  0  0
 49 50  1  0  0  0
 49 53  1  0  0  0
 49 64  1  0  0  0
 49122  1  0  0  0
 50 51  1  0  0  0
 50123  1  0  0  0
 50124  1  0  0  0
 51 52  1  0  0  0
 51125  1  0  0  0
 51126  1  0  0  0
 52127  1  0  0  0
 52128  1  0  0  0
 53 54  1  0  0  0
 54 55  2  0  0  0
 54129  1  0  0  0
 55 57  1  0  0  0
 55130  1  0  0  0
 56 69  2  0  0  0
 57 58  2  0  0  0
 57131  1  0  0  0
 58132  1  0  0  0
 59 60  1  0  0  0
 59 61  1  0  0  0
 59 62  1  0  0  0
 60133  1  0  0  0
 60134  1  0  0  0
 60135  1  0  0  0
 61136  1  0  0  0
 61137  1  0  0  0
 61138  1  0  0  0
 62139  1  0  0  0
 62140  1  0  0  0
 62141  1  0  0  0
 63 65  1  0  0  0
 63142  1  0  0  0
 63143  1  0  0  0
 63144  1  0  0  0
 64145  1  0  0  0
 65146  1  0  0  0
 68 85  1  0  0  0
 71 72  1  0  0  0
 71 86  1  0  0  0
 71147  1  0  0  0
 71148  1  0  0  0
 72 87  1  0  0  0
 72149  1  0  0  0
 72150  1  0  0  0
 73 74  1  0  0  0
 73 87  1  0  0  0
 73151  1  0  0  0
 73152  1  0  0  0
 74 79  1  0  0  0
 74 86  1  0  0  0
 74153  1  0  0  0
 75154  1  0  0  0
 75155  1  0  0  0
 75156  1  0  0  0
 75 83  1  0  0  0
 76 83  1  0  0  0
 76157  1  0  0  0
 76158  1  0  0  0
 76159  1  0  0  0
 77160  1  0  0  0
 77161  1  0  0  0
 77162  1  0  0  0
 77 84  1  0  0  0
 78163  1  0  0  0
 78164  1  0  0  0
 78165  1  0  0  0
 78 85  1  0  0  0
 79 83  1  0  0  0
 79166  1  0  0  0
 79167  1  0  0  0
 80 82  1  0  0  0
 80 84  1  0  0  0
 80168  1  0  0  0
 80169  1  0  0  0
 81 84  1  0  0  0
 81 85  1  0  0  0
 81170  1  0  0  0
 81171  1  0  0  0
 82172  1  0  0  0
 82173  1  0  0  0
 82 87  1  0  0  0
 83174  1  0  0  0
 84175  1  0  0  0
 85176  1  0  0  0
 87177  1  0  0  0
M  CHG  1  87   1
M  ISO  4   1 100  68 101  85 101  86 100
M  END
> <chiral flag>
0

> <version>
0

> <s_m_source_file>
/data/baiqing/PycharmProjects/Reinvent-master-3.2/result/LINK_invent/BTK/process_docking_weight1_custom_sum_contain_oxygen_bond_distance_aromatic_linkinvent_7_9_3/rearranged_h_0115.sdf

> <i_m_source_file_index>
56

> <r_mmod_Potential_Energy-OPLS-2005>
248.76628112793

> <r_mmod_Stretch_Energy-OPLS-2005>
83.7828521728516

> <r_mmod_Bend_Energy-OPLS-2005>
180.051940917969

> <r_mmod_Torsional_Energy-OPLS-2005>
402.510620117188

> <r_mmod_Improper_Torsional_Energy-OPLS-2005>
3.24496173858643

> <r_mmod_Van_der_Waal_Energy-OPLS-2005>
132.328735351562

> <r_mmod_Electrostatic_Energy-OPLS-2005>
-187.347869873047

> <r_mmod_Solvation_Energy-OPLS-2005>
-409.528167724609

> <b_mmod_Minimization_Converged-OPLS-2005>
0

> <r_mmod_RMS_Derivative-OPLS-2005>
1.82195997238159

$$$$
56
                    3D
 Structure written by MMmdl.
154162  0  0  1  0            999 V2000
  -30.5271  -15.0245   20.3888 C   0  0  0  0  0  0
  -30.4405  -12.6356   19.5058 C   0  0  0  0  0  0
  -29.5292  -12.5415   18.2595 C   0  0  0  0  0  0
  -28.0639  -12.3117   18.6778 C   0  0  0  0  0  0
  -27.6259  -13.2557   19.8278 C   0  0  2  0  0  0
  -28.6683  -13.3278   20.9646 C   0  0  0  0  0  0
  -25.2435  -13.8227   20.5689 C   0  0  0  0  0  0
  -24.1780  -13.0434   20.9236 C   0  0  0  0  0  0
  -24.6421  -11.6923   20.8758 C   0  0  0  0  0  0
  -23.9100  -10.4283   21.0397 C   0  0  0  0  0  0
  -24.3649   -9.4193   21.9175 C   0  0  0  0  0  0
  -23.6309   -8.2234   22.0756 C   0  0  0  0  0  0
  -22.4289   -8.0272   21.3539 C   0  0  0  0  0  0
  -21.9914   -9.0253   20.4638 C   0  0  0  0  0  0
  -22.7265  -10.2132   20.3043 C   0  0  0  0  0  0
  -21.6860   -6.0728   22.5275 C   0  0  0  0  0  0
  -21.4032   -6.5635   23.8213 C   0  0  0  0  0  0
  -21.3670   -5.6789   24.9171 C   0  0  0  0  0  0
  -21.6035   -4.3051   24.7227 C   0  0  0  0  0  0
  -21.8826   -3.8138   23.4350 C   0  0  0  0  0  0
  -21.9206   -4.6955   22.3408 C   0  0  0  0  0  0
  -22.7795  -13.5196   21.1884 C   0  0  0  0  0  0
  -22.1655   -4.2150   21.0979 F   0  0  0  0  0  0
  -21.5629   -3.4529   25.7730 F   0  0  0  0  0  0
  -29.9358  -13.7546   20.3596 N   0  0  0  0  0  0
  -26.2875  -12.9475   20.3210 N   0  0  0  0  0  0
  -25.9340  -11.6597   20.5734 N   0  0  0  0  0  0
  -22.0431  -12.8208   22.0447 N   0  0  0  0  0  0
  -25.4014  -15.1960   20.4067 N   0  0  0  0  0  0
  -31.7336  -15.0722   20.1301 O   0  0  0  0  0  0
  -21.6634   -6.8869   21.4239 O   0  0  0  0  0  0
  -22.3458  -14.5485   20.6712 O   0  0  0  0  0  0
  -24.6461  -31.8463   23.1884 C   0  0  0  0  0  0
  -25.9221  -32.4723   23.8290 C   0  0  1  0  0  0
  -27.2099  -27.0983   20.1615 C   0  0  0  0  0  0
  -25.5996  -33.8542   24.2211 N   0  0  0  0  0  0
  -23.4513  -30.4647   21.5332 C   0  0  2  0  0  0
  -24.9039  -28.8905   20.1075 C   0  0  0  0  0  0
  -22.7582  -29.4557   22.4827 C   0  0  0  0  0  0
  -18.0294  -28.1408   22.8427 C   0  0  0  0  0  0
  -24.1501  -36.7250   23.2623 C   0  0  0  0  0  0
  -26.0119  -30.7051   21.3970 C   0  0  0  0  0  0
  -26.0825  -29.3142   20.7367 C   0  0  0  0  0  0
  -27.2379  -28.4351   20.7449 C   0  0  0  0  0  0
  -26.0134  -26.8028   19.4707 C   0  0  0  0  0  0
  -24.8864  -27.6516   19.4545 C   0  0  0  0  0  0
  -23.6838  -29.7995   20.1506 C   0  0  0  0  0  0
  -25.4148  -36.3055   24.0292 C   0  0  1  0  0  0
  -20.5913  -28.3759   23.1198 C   0  0  2  0  0  0
  -20.6807  -26.9459   22.5400 C   0  0  0  0  0  0
  -19.5804  -26.6385   21.5194 C   0  0  0  0  0  0
  -18.1963  -26.7933   22.1584 C   0  0  0  0  0  0
  -19.1550  -28.8891   23.2819 C   0  0  0  0  0  0
  -18.9477  -30.1454   23.8892 C   0  0  0  0  0  0
  -17.6487  -30.6608   24.0528 C   0  0  0  0  0  0
  -25.9105  -34.9431   23.5053 C   0  0  0  0  0  0
  -16.5368  -29.9100   23.6326 C   0  0  0  0  0  0
  -16.7278  -28.6508   23.0361 C   0  0  0  0  0  0
  -26.4544  -31.6564   25.0715 C   0  0  0  0  0  0
  -25.3717  -31.3751   26.1390 C   0  0  0  0  0  0
  -27.0358  -30.2933   24.6308 C   0  0  0  0  0  0
  -27.6119  -32.4270   25.7504 C   0  0  0  0  0  0
  -27.5604  -37.1791   24.8461 C   0  0  0  0  0  0
  -21.4268  -29.3069   22.3573 N   0  0  0  0  0  0
  -26.4303  -37.3783   23.9406 N   0  0  0  0  0  0
  -24.7227  -31.0261   22.0946 N   0  0  0  0  0  0
  -23.4196  -28.8094   23.2998 O   0  0  0  0  0  0
  -28.2216  -26.0527   20.2151 O   0  0  0  0  0  0
  -26.5696  -34.8896   22.4623 O   0  0  0  0  0  0
  -23.5577  -32.1378   23.7075 O   0  0  0  0  0  0
  -29.6631  -22.7640   19.3677 C   0  0  0  0  0  0
  -28.3501  -21.7949   20.7809 C   0  0  0  0  0  0
  -28.6069  -23.1083   20.2760 C   0  0  0  0  0  0
  -29.9444  -21.3934   19.3414 C   0  0  0  0  0  0
  -30.9219  -20.6838   18.4563 C   0  0  0  0  0  0
  -27.4520  -24.6201   22.0606 C   0  0  0  0  0  0
  -28.9781  -19.0999   20.5172 C   0  0  0  0  0  0
  -30.0707  -17.7994   20.2744 C   0  0  0  0  0  0
  -27.8127  -24.5700   20.5670 C   0  0  1  0  0  0
  -29.1373  -20.6888   20.2477 N   0  0  0  0  0  0
  -29.7552  -16.2347   20.4931 N   0  0  0  0  0  0
  -31.4744  -12.7941   19.1979 H   0  0  0  0  0  0
  -30.4348  -11.6956   20.0607 H   0  0  0  0  0  0
  -29.8651  -11.7363   17.6044 H   0  0  0  0  0  0
  -29.6077  -13.4636   17.6812 H   0  0  0  0  0  0
  -27.9780  -11.2747   19.0040 H   0  0  0  0  0  0
  -27.4015  -12.4198   17.8181 H   0  0  0  0  0  0
  -27.5744  -14.2485   19.3811 H   0  0  0  0  0  0
  -28.7750  -12.3639   21.4622 H   0  0  0  0  0  0
  -28.3585  -14.0428   21.7280 H   0  0  0  0  0  0
  -25.2792   -9.5694   22.4757 H   0  0  0  0  0  0
  -24.0028   -7.4635   22.7494 H   0  0  0  0  0  0
  -21.0830   -8.8771   19.8962 H   0  0  0  0  0  0
  -22.3697  -10.9671   19.6162 H   0  0  0  0  0  0
  -21.2002   -7.6130   23.9733 H   0  0  0  0  0  0
  -21.1492   -6.0492   25.9086 H   0  0  0  0  0  0
  -22.0595   -2.7598   23.2845 H   0  0  0  0  0  0
  -22.4043  -11.9886   22.4857 H   0  0  0  0  0  0
  -21.1048  -13.1235   22.2645 H   0  0  0  0  0  0
  -24.6164  -15.8324   20.4915 H   0  0  0  0  0  0
  -26.2217  -15.6409   20.0171 H   0  0  0  0  0  0
  -26.7281  -32.5334   23.1024 H   0  0  0  0  0  0
  -25.0125  -33.9668   25.0352 H   0  0  0  0  0  0
  -22.7548  -31.2927   21.3787 H   0  0  0  0  0  0
  -23.3809  -35.9538   23.3263 H   0  0  0  0  0  0
  -24.3595  -36.8922   22.2045 H   0  0  0  0  0  0
  -23.7189  -37.6401   23.6686 H   0  0  0  0  0  0
  -26.1747  -31.4596   20.6258 H   0  0  0  0  0  0
  -26.8817  -30.7544   22.0412 H   0  0  0  0  0  0
  -28.1320  -28.7549   21.2609 H   0  0  0  0  0  0
  -25.9168  -25.8703   18.9364 H   0  0  0  0  0  0
  -23.9959  -27.3310   18.9298 H   0  0  0  0  0  0
  -23.8341  -30.5816   19.4057 H   0  0  0  0  0  0
  -22.7964  -29.2533   19.8237 H   0  0  0  0  0  0
  -25.1337  -36.1890   25.0787 H   0  0  0  0  0  0
  -20.9986  -28.3366   24.1327 H   0  0  0  0  0  0
  -20.5675  -26.2400   23.3641 H   0  0  0  0  0  0
  -21.6685  -26.7473   22.1221 H   0  0  0  0  0  0
  -19.6994  -25.6278   21.1277 H   0  0  0  0  0  0
  -19.6741  -27.3149   20.6682 H   0  0  0  0  0  0
  -17.4242  -26.6636   21.3974 H   0  0  0  0  0  0
  -18.0371  -26.0072   22.8987 H   0  0  0  0  0  0
  -19.7961  -30.7235   24.2307 H   0  0  0  0  0  0
  -17.5055  -31.6289   24.5126 H   0  0  0  0  0  0
  -15.5378  -30.3031   23.7648 H   0  0  0  0  0  0
  -15.8660  -28.0811   22.7159 H   0  0  0  0  0  0
  -24.5960  -30.7023   25.7719 H   0  0  0  0  0  0
  -24.8820  -32.2902   26.4708 H   0  0  0  0  0  0
  -25.7987  -30.9023   27.0236 H   0  0  0  0  0  0
  -26.2933  -29.6680   24.1324 H   0  0  0  0  0  0
  -27.3934  -29.7217   25.4888 H   0  0  0  0  0  0
  -27.8891  -30.4136   23.9630 H   0  0  0  0  0  0
  -27.2783  -33.3595   26.2066 H   0  0  0  0  0  0
  -28.3958  -32.6768   25.0340 H   0  0  0  0  0  0
  -28.0743  -31.8371   26.5431 H   0  0  0  0  0  0
  -28.2615  -38.0105   24.7554 H   0  0  0  0  0  0
  -28.1104  -36.2634   24.6238 H   0  0  0  0  0  0
  -27.2312  -37.1367   25.8860 H   0  0  0  0  0  0
  -20.9510  -29.8789   21.6743 H   0  0  0  0  0  0
  -26.0174  -38.2839   24.1460 H   0  0  0  0  0  0
  -30.1547  -23.4813   18.7249 H   0  0  0  0  0  0
  -27.5865  -21.5322   21.4999 H   0  0  0  0  0  0
  -31.5081  -21.3919   17.8661 H   0  0  0  0  0  0
  -30.4056  -20.0293   17.7521 H   0  0  0  0  0  0
  -31.6251  -20.0846   19.0352 H   0  0  0  0  0  0
  -26.8135  -25.4710   22.3008 H   0  0  0  0  0  0
  -28.3502  -24.6855   22.6771 H   0  0  0  0  0  0
  -26.9061  -23.7266   22.3609 H   0  0  0  0  0  0
  -28.6639  -19.0282   21.5591 H   0  0  0  0  0  0
  -28.0818  -18.8248   19.9596 H   0  0  0  0  0  0
  -30.9495  -18.0106   20.8828 H   0  0  0  0  0  0
  -30.4247  -17.8780   19.2457 H   0  0  0  0  0  0
  -26.8747  -24.3849   20.0480 H   0  0  0  0  0  0
  -28.7803  -16.0468   20.6680 H   0  0  0  0  0  0
  1 25  1  0  0  0
  1 30  2  0  0  0
  1 81  1  0  0  0
  2  3  1  0  0  0
  2 25  1  0  0  0
  2 82  1  0  0  0
  2 83  1  0  0  0
  3  4  1  0  0  0
  3 84  1  0  0  0
  3 85  1  0  0  0
  4  5  1  0  0  0
  4 86  1  0  0  0
  4 87  1  0  0  0
  5  6  1  0  0  0
  5 26  1  0  0  0
  5 88  1  0  0  0
  6 25  1  0  0  0
  6 89  1  0  0  0
  6 90  1  0  0  0
  7  8  2  0  0  0
  7 26  1  0  0  0
  7 29  1  0  0  0
  8  9  1  0  0  0
  8 22  1  0  0  0
  9 10  1  0  0  0
  9 27  2  0  0  0
 10 11  2  0  0  0
 10 15  1  0  0  0
 11 12  1  0  0  0
 11 91  1  0  0  0
 12 13  2  0  0  0
 12 92  1  0  0  0
 13 14  1  0  0  0
 13 31  1  0  0  0
 14 15  2  0  0  0
 14 93  1  0  0  0
 15 94  1  0  0  0
 16 17  2  0  0  0
 16 21  1  0  0  0
 16 31  1  0  0  0
 17 18  1  0  0  0
 17 95  1  0  0  0
 18 19  2  0  0  0
 18 96  1  0  0  0
 19 20  1  0  0  0
 19 24  1  0  0  0
 20 21  2  0  0  0
 20 97  1  0  0  0
 21 23  1  0  0  0
 22 28  1  0  0  0
 22 32  2  0  0  0
 26 27  1  0  0  0
 28 98  1  0  0  0
 28 99  1  0  0  0
 29100  1  0  0  0
 29101  1  0  0  0
 33 34  1  0  0  0
 33 66  1  0  0  0
 33 70  2  0  0  0
 34 36  1  0  0  0
 34 59  1  0  0  0
 34102  1  0  0  0
 35 44  2  0  0  0
 35 45  1  0  0  0
 35 68  1  0  0  0
 36 56  1  0  0  0
 36103  1  0  0  0
 37 39  1  0  0  0
 37 47  1  0  0  0
 37 66  1  0  0  0
 37104  1  0  0  0
 38 43  2  0  0  0
 38 46  1  0  0  0
 38 47  1  0  0  0
 39 64  1  0  0  0
 39 67  2  0  0  0
 40 52  1  0  0  0
 40 53  2  0  0  0
 40 58  1  0  0  0
 41105  1  0  0  0
 41106  1  0  0  0
 41107  1  0  0  0
 41 48  1  0  0  0
 42 43  1  0  0  0
 42 66  1  0  0  0
 42108  1  0  0  0
 42109  1  0  0  0
 43 44  1  0  0  0
 44110  1  0  0  0
 45 46  2  0  0  0
 45111  1  0  0  0
 46112  1  0  0  0
 47113  1  0  0  0
 47114  1  0  0  0
 48 56  1  0  0  0
 48 65  1  0  0  0
 48115  1  0  0  0
 49 50  1  0  0  0
 49 53  1  0  0  0
 49 64  1  0  0  0
 49116  1  0  0  0
 50 51  1  0  0  0
 50117  1  0  0  0
 50118  1  0  0  0
 51 52  1  0  0  0
 51119  1  0  0  0
 51120  1  0  0  0
 52121  1  0  0  0
 52122  1  0  0  0
 53 54  1  0  0  0
 54 55  2  0  0  0
 54123  1  0  0  0
 55 57  1  0  0  0
 55124  1  0  0  0
 56 69  2  0  0  0
 57 58  2  0  0  0
 57125  1  0  0  0
 58126  1  0  0  0
 59 60  1  0  0  0
 59 61  1  0  0  0
 59 62  1  0  0  0
 60127  1  0  0  0
 60128  1  0  0  0
 60129  1  0  0  0
 61130  1  0  0  0
 61131  1  0  0  0
 61132  1  0  0  0
 62133  1  0  0  0
 62134  1  0  0  0
 62135  1  0  0  0
 63 65  1  0  0  0
 63136  1  0  0  0
 63137  1  0  0  0
 63138  1  0  0  0
 64139  1  0  0  0
 65140  1  0  0  0
 68 79  1  0  0  0
 71 73  1  0  0  0
 71 74  2  0  0  0
 71141  1  0  0  0
 72 73  2  0  0  0
 72 80  1  0  0  0
 72142  1  0  0  0
 73 79  1  0  0  0
 74 75  1  0  0  0
 74 80  1  0  0  0
 75143  1  0  0  0
 75144  1  0  0  0
 75145  1  0  0  0
 76146  1  0  0  0
 76147  1  0  0  0
 76148  1  0  0  0
 76 79  1  0  0  0
 77 78  1  0  0  0
 77 80  1  0  0  0
 77149  1  0  0  0
 77150  1  0  0  0
 78 81  1  0  0  0
 78151  1  0  0  0
 78152  1  0  0  0
 79153  1  0  0  0
 81154  1  0  0  0
M  ISO  4   1 100  68 101  79 101  81 100
M  END
> <chiral flag>
0

> <version>
0

> <s_m_source_file>
/data/baiqing/PycharmProjects/Reinvent-master-3.2/result/LINK_invent/BTK/process_docking_weight1_custom_sum_contain_oxygen_bond_distance_aromatic_linkinvent_7_9_3/rearranged_h_0115.sdf

> <i_m_source_file_index>
57

> <r_mmod_Potential_Energy-OPLS-2005>
595.42724609375

> <r_mmod_Stretch_Energy-OPLS-2005>
314.609008789062

> <r_mmod_Bend_Energy-OPLS-2005>
293.688903808594

> <r_mmod_Torsional_Energy-OPLS-2005>
232.931716918945

> <r_mmod_Improper_Torsional_Energy-OPLS-2005>
5.97665548324585

> <r_mmod_Van_der_Waal_Energy-OPLS-2005>
108.344085693359

> <r_mmod_Electrostatic_Energy-OPLS-2005>
-383.673400878906

> <r_mmod_Solvation_Energy-OPLS-2005>
-221.527420043945

> <b_mmod_Minimization_Converged-OPLS-2005>
0

> <r_mmod_RMS_Derivative-OPLS-2005>
3.87293887138367

$$$$
57
                    3D
 Structure written by MMmdl.
158167  0  0  1  0            999 V2000
  -30.4697  -15.1635   20.3857 C   0  0  0  0  0  0
  -30.4424  -12.7356   19.5192 C   0  0  0  0  0  0
  -29.5323  -12.5608   18.2783 C   0  0  0  0  0  0
  -28.0753  -12.3041   18.7029 C   0  0  0  0  0  0
  -27.6186  -13.2659   19.8289 C   0  0  2  0  0  0
  -28.6560  -13.3915   20.9652 C   0  0  0  0  0  0
  -25.2416  -13.8235   20.5733 C   0  0  0  0  0  0
  -24.1757  -13.0436   20.9249 C   0  0  0  0  0  0
  -24.6399  -11.6929   20.8760 C   0  0  0  0  0  0
  -23.9090  -10.4293   21.0407 C   0  0  0  0  0  0
  -24.3635   -9.4205   21.9184 C   0  0  0  0  0  0
  -23.6303   -8.2243   22.0754 C   0  0  0  0  0  0
  -22.4284   -8.0284   21.3546 C   0  0  0  0  0  0
  -21.9925   -9.0258   20.4646 C   0  0  0  0  0  0
  -22.7261  -10.2134   20.3056 C   0  0  0  0  0  0
  -21.6855   -6.0738   22.5279 C   0  0  0  0  0  0
  -21.4016   -6.5641   23.8212 C   0  0  0  0  0  0
  -21.3660   -5.6793   24.9174 C   0  0  0  0  0  0
  -21.6043   -4.3056   24.7224 C   0  0  0  0  0  0
  -21.8819   -3.8148   23.4345 C   0  0  0  0  0  0
  -21.9194   -4.6965   22.3402 C   0  0  0  0  0  0
  -22.7775  -13.5194   21.1898 C   0  0  0  0  0  0
  -22.1662   -4.2151   21.0979 F   0  0  0  0  0  0
  -21.5628   -3.4539   25.7736 F   0  0  0  0  0  0
  -29.9038  -13.8675   20.3493 N   0  0  0  0  0  0
  -26.2844  -12.9495   20.3228 N   0  0  0  0  0  0
  -25.9335  -11.6608   20.5730 N   0  0  0  0  0  0
  -22.0432  -12.8178   22.0451 N   0  0  0  0  0  0
  -25.4052  -15.1967   20.4154 N   0  0  0  0  0  0
  -31.6836  -15.1935   20.1454 O   0  0  0  0  0  0
  -21.6644   -6.8883   21.4242 O   0  0  0  0  0  0
  -22.3455  -14.5496   20.6737 O   0  0  0  0  0  0
  -24.6580  -31.8301   23.1768 C   0  0  0  0  0  0
  -25.9287  -32.4622   23.8208 C   0  0  1  0  0  0
  -27.2154  -26.9866   20.1698 C   0  0  0  0  0  0
  -25.5977  -33.8434   24.2113 N   0  0  0  0  0  0
  -23.4698  -30.4458   21.5251 C   0  0  2  0  0  0
  -24.9226  -28.8494   20.1101 C   0  0  0  0  0  0
  -22.7645  -29.4476   22.4800 C   0  0  0  0  0  0
  -18.0320  -28.1407   22.8470 C   0  0  0  0  0  0
  -24.1492  -36.7219   23.2645 C   0  0  0  0  0  0
  -26.0369  -30.6553   21.4001 C   0  0  0  0  0  0
  -26.1059  -29.2524   20.7418 C   0  0  0  0  0  0
  -27.2493  -28.3406   20.7516 C   0  0  0  0  0  0
  -26.0043  -26.7307   19.4852 C   0  0  0  0  0  0
  -24.8940  -27.6069   19.4625 C   0  0  0  0  0  0
  -23.7062  -29.7694   20.1483 C   0  0  0  0  0  0
  -25.4131  -36.2986   24.0304 C   0  0  1  0  0  0
  -20.5943  -28.3748   23.1197 C   0  0  2  0  0  0
  -20.6799  -26.9434   22.5400 C   0  0  0  0  0  0
  -19.5770  -26.6380   21.5214 C   0  0  0  0  0  0
  -18.1953  -26.7942   22.1624 C   0  0  0  0  0  0
  -19.1581  -28.8898   23.2822 C   0  0  0  0  0  0
  -18.9491  -30.1489   23.8855 C   0  0  0  0  0  0
  -17.6485  -30.6597   24.0558 C   0  0  0  0  0  0
  -25.9093  -34.9368   23.5025 C   0  0  0  0  0  0
  -16.5375  -29.9086   23.6343 C   0  0  0  0  0  0
  -16.7302  -28.6507   23.0362 C   0  0  0  0  0  0
  -26.4555  -31.6544   25.0711 C   0  0  0  0  0  0
  -25.3697  -31.3781   26.1378 C   0  0  0  0  0  0
  -27.0444  -30.2917   24.6409 C   0  0  0  0  0  0
  -27.6054  -32.4345   25.7510 C   0  0  0  0  0  0
  -27.5571  -37.1766   24.8466 C   0  0  0  0  0  0
  -21.4320  -29.3047   22.3550 N   0  0  0  0  0  0
  -26.4279  -37.3718   23.9411 N   0  0  0  0  0  0
  -24.7424  -31.0020   22.0878 N   0  0  0  0  0  0
  -23.4219  -28.8035   23.3013 O   0  0  0  0  0  0
  -28.2053  -25.8868   20.2565 O   0  0  0  0  0  0
  -26.5694  -34.8892   22.4614 O   0  0  0  0  0  0
  -23.5662  -32.1244   23.6896 O   0  0  0  0  0  0
  -28.6457  -21.7344   19.2106 C   0  0  0  0  0  0
  -28.5449  -22.7619   20.1911 C   0  0  0  0  0  0
  -28.9614  -21.9313   21.3591 C   0  0  0  0  0  0
  -29.2249  -20.5631   21.0282 C   0  0  0  0  0  0
  -29.5785  -19.1032   21.5699 C   0  0  0  0  0  0
  -29.2125  -18.9823   19.2167 C   0  0  0  0  0  0
  -29.8932  -18.0301   20.3697 C   0  0  2  0  0  0
  -30.4162  -22.3327   23.3745 C   0  0  0  0  0  0
  -27.9399  -21.8381   23.6557 C   0  0  0  0  0  0
  -27.8108  -24.3383   20.0031 C   0  0  0  0  0  0
  -29.0141  -22.4799   22.7673 C   0  0  0  0  0  0
  -29.0312  -20.4325   19.7109 N   0  0  0  0  0  0
  -29.6848  -16.3951   20.4916 N   0  0  0  0  0  0
  -31.4662  -12.9261   19.1948 H   0  0  0  0  0  0
  -30.4859  -11.8140   20.1018 H   0  0  0  0  0  0
  -29.8921  -11.7418   17.6541 H   0  0  0  0  0  0
  -29.5801  -13.4603   17.6626 H   0  0  0  0  0  0
  -28.0131  -11.2739   19.0553 H   0  0  0  0  0  0
  -27.4076  -12.3740   17.8434 H   0  0  0  0  0  0
  -27.5499  -14.2451   19.3536 H   0  0  0  0  0  0
  -28.7974  -12.4419   21.4834 H   0  0  0  0  0  0
  -28.3153  -14.1075   21.7147 H   0  0  0  0  0  0
  -25.2777   -9.5680   22.4764 H   0  0  0  0  0  0
  -24.0008   -7.4633   22.7475 H   0  0  0  0  0  0
  -21.0856   -8.8781   19.8951 H   0  0  0  0  0  0
  -22.3719  -10.9675   19.6167 H   0  0  0  0  0  0
  -21.2009   -7.6150   23.9716 H   0  0  0  0  0  0
  -21.1481   -6.0523   25.9077 H   0  0  0  0  0  0
  -22.0597   -2.7611   23.2843 H   0  0  0  0  0  0
  -22.4064  -11.9847   22.4843 H   0  0  0  0  0  0
  -21.1044  -13.1185   22.2655 H   0  0  0  0  0  0
  -24.6314  -15.8437   20.5236 H   0  0  0  0  0  0
  -26.2396  -15.6377   20.0525 H   0  0  0  0  0  0
  -26.7355  -32.5177   23.0926 H   0  0  0  0  0  0
  -25.0087  -33.9523   25.0238 H   0  0  0  0  0  0
  -22.7800  -31.2763   21.3608 H   0  0  0  0  0  0
  -23.3766  -35.9536   23.3280 H   0  0  0  0  0  0
  -24.3573  -36.8887   22.2065 H   0  0  0  0  0  0
  -23.7235  -37.6397   23.6712 H   0  0  0  0  0  0
  -26.2122  -31.4016   20.6241 H   0  0  0  0  0  0
  -26.8990  -30.7083   22.0531 H   0  0  0  0  0  0
  -28.1427  -28.6444   21.2788 H   0  0  0  0  0  0
  -25.8660  -25.7871   18.9809 H   0  0  0  0  0  0
  -23.9954  -27.2938   18.9488 H   0  0  0  0  0  0
  -23.8568  -30.5417   19.3931 H   0  0  0  0  0  0
  -22.8173  -29.2215   19.8309 H   0  0  0  0  0  0
  -25.1326  -36.1790   25.0796 H   0  0  0  0  0  0
  -21.0033  -28.3350   24.1320 H   0  0  0  0  0  0
  -20.5683  -26.2367   23.3637 H   0  0  0  0  0  0
  -21.6662  -26.7418   22.1202 H   0  0  0  0  0  0
  -19.6929  -25.6280   21.1270 H   0  0  0  0  0  0
  -19.6705  -27.3169   20.6727 H   0  0  0  0  0  0
  -17.4220  -26.6685   21.4029 H   0  0  0  0  0  0
  -18.0349  -26.0095   22.9032 H   0  0  0  0  0  0
  -19.7967  -30.7318   24.2202 H   0  0  0  0  0  0
  -17.5038  -31.6273   24.5168 H   0  0  0  0  0  0
  -15.5374  -30.2974   23.7693 H   0  0  0  0  0  0
  -15.8703  -28.0812   22.7099 H   0  0  0  0  0  0
  -24.5890  -30.7116   25.7691 H   0  0  0  0  0  0
  -24.8873  -32.2978   26.4696 H   0  0  0  0  0  0
  -25.7942  -30.9020   27.0225 H   0  0  0  0  0  0
  -26.3101  -29.6605   24.1391 H   0  0  0  0  0  0
  -27.3968  -29.7265   25.5048 H   0  0  0  0  0  0
  -27.9048  -30.4109   23.9822 H   0  0  0  0  0  0
  -27.2626  -33.3686   26.1973 H   0  0  0  0  0  0
  -28.3924  -32.6842   25.0381 H   0  0  0  0  0  0
  -28.0657  -31.8547   26.5520 H   0  0  0  0  0  0
  -28.2570  -38.0079   24.7519 H   0  0  0  0  0  0
  -28.1084  -36.2607   24.6285 H   0  0  0  0  0  0
  -27.2289  -37.1401   25.8869 H   0  0  0  0  0  0
  -20.9561  -29.8748   21.6697 H   0  0  0  0  0  0
  -26.0130  -38.2776   24.1425 H   0  0  0  0  0  0
  -28.3979  -21.8037   18.1590 H   0  0  0  0  0  0
  -28.7324  -18.7403   22.1537 H   0  0  0  0  0  0
  -30.4215  -19.1487   22.2596 H   0  0  0  0  0  0
  -28.2266  -18.5988   18.9535 H   0  0  0  0  0  0
  -29.8107  -18.9840   18.3052 H   0  0  0  0  0  0
  -30.9650  -18.1240   20.1904 H   0  0  0  0  0  0
  -31.1647  -22.8269   22.7541 H   0  0  0  0  0  0
  -30.7048  -21.2863   23.4733 H   0  0  0  0  0  0
  -30.4636  -22.7828   24.3665 H   0  0  0  0  0  0
  -26.9442  -21.9931   23.2387 H   0  0  0  0  0  0
  -27.9472  -22.2714   24.6562 H   0  0  0  0  0  0
  -28.0937  -20.7638   23.7589 H   0  0  0  0  0  0
  -26.8716  -24.2217   20.5444 H   0  0  0  0  0  0
  -27.5236  -24.3243   18.9519 H   0  0  0  0  0  0
  -28.7957  -23.5473   22.7062 H   0  0  0  0  0  0
  -28.7158  -16.1683   20.6586 H   0  0  0  0  0  0
  1 25  1  0  0  0
  1 30  2  0  0  0
  1 83  1  0  0  0
  2  3  1  0  0  0
  2 25  1  0  0  0
  2 84  1  0  0  0
  2 85  1  0  0  0
  3  4  1  0  0  0
  3 86  1  0  0  0
  3 87  1  0  0  0
  4  5  1  0  0  0
  4 88  1  0  0  0
  4 89  1  0  0  0
  5  6  1  0  0  0
  5 26  1  0  0  0
  5 90  1  0  0  0
  6 25  1  0  0  0
  6 91  1  0  0  0
  6 92  1  0  0  0
  7  8  2  0  0  0
  7 26  1  0  0  0
  7 29  1  0  0  0
  8  9  1  0  0  0
  8 22  1  0  0  0
  9 10  1  0  0  0
  9 27  2  0  0  0
 10 11  2  0  0  0
 10 15  1  0  0  0
 11 12  1  0  0  0
 11 93  1  0  0  0
 12 13  2  0  0  0
 12 94  1  0  0  0
 13 14  1  0  0  0
 13 31  1  0  0  0
 14 15  2  0  0  0
 14 95  1  0  0  0
 15 96  1  0  0  0
 16 17  2  0  0  0
 16 21  1  0  0  0
 16 31  1  0  0  0
 17 18  1  0  0  0
 17 97  1  0  0  0
 18 19  2  0  0  0
 18 98  1  0  0  0
 19 20  1  0  0  0
 19 24  1  0  0  0
 20 21  2  0  0  0
 20 99  1  0  0  0
 21 23  1  0  0  0
 22 28  1  0  0  0
 22 32  2  0  0  0
 26 27  1  0  0  0
 28100  1  0  0  0
 28101  1  0  0  0
 29102  1  0  0  0
 29103  1  0  0  0
 33 34  1  0  0  0
 33 66  1  0  0  0
 33 70  2  0  0  0
 34 36  1  0  0  0
 34 59  1  0  0  0
 34104  1  0  0  0
 35 44  2  0  0  0
 35 45  1  0  0  0
 35 68  1  0  0  0
 36 56  1  0  0  0
 36105  1  0  0  0
 37 39  1  0  0  0
 37 47  1  0  0  0
 37 66  1  0  0  0
 37106  1  0  0  0
 38 43  2  0  0  0
 38 46  1  0  0  0
 38 47  1  0  0  0
 39 64  1  0  0  0
 39 67  2  0  0  0
 40 52  1  0  0  0
 40 53  2  0  0  0
 40 58  1  0  0  0
 41107  1  0  0  0
 41108  1  0  0  0
 41109  1  0  0  0
 41 48  1  0  0  0
 42 43  1  0  0  0
 42 66  1  0  0  0
 42110  1  0  0  0
 42111  1  0  0  0
 43 44  1  0  0  0
 44112  1  0  0  0
 45 46  2  0  0  0
 45113  1  0  0  0
 46114  1  0  0  0
 47115  1  0  0  0
 47116  1  0  0  0
 48 56  1  0  0  0
 48 65  1  0  0  0
 48117  1  0  0  0
 49 50  1  0  0  0
 49 53  1  0  0  0
 49 64  1  0  0  0
 49118  1  0  0  0
 50 51  1  0  0  0
 50119  1  0  0  0
 50120  1  0  0  0
 51 52  1  0  0  0
 51121  1  0  0  0
 51122  1  0  0  0
 52123  1  0  0  0
 52124  1  0  0  0
 53 54  1  0  0  0
 54 55  2  0  0  0
 54125  1  0  0  0
 55 57  1  0  0  0
 55126  1  0  0  0
 56 69  2  0  0  0
 57 58  2  0  0  0
 57127  1  0  0  0
 58128  1  0  0  0
 59 60  1  0  0  0
 59 61  1  0  0  0
 59 62  1  0  0  0
 60129  1  0  0  0
 60130  1  0  0  0
 60131  1  0  0  0
 61132  1  0  0  0
 61133  1  0  0  0
 61134  1  0  0  0
 62135  1  0  0  0
 62136  1  0  0  0
 62137  1  0  0  0
 63 65  1  0  0  0
 63138  1  0  0  0
 63139  1  0  0  0
 63140  1  0  0  0
 64141  1  0  0  0
 65142  1  0  0  0
 68 80  1  0  0  0
 71 72  2  0  0  0
 71 82  1  0  0  0
 71143  1  0  0  0
 72 73  1  0  0  0
 72 80  1  0  0  0
 73 74  2  0  0  0
 73 81  1  0  0  0
 74 75  1  0  0  0
 74 82  1  0  0  0
 75 77  1  0  0  0
 75144  1  0  0  0
 75145  1  0  0  0
 76 77  1  0  0  0
 76 82  1  0  0  0
 76146  1  0  0  0
 76147  1  0  0  0
 77 83  1  0  0  0
 77148  1  0  0  0
 78149  1  0  0  0
 78150  1  0  0  0
 78151  1  0  0  0
 78 81  1  0  0  0
 79 81  1  0  0  0
 79152  1  0  0  0
 79153  1  0  0  0
 79154  1  0  0  0
 80155  1  0  0  0
 80156  1  0  0  0
 81157  1  0  0  0
 83158  1  0  0  0
M  ISO  4   1 100  68 101  80 101  83 100
M  END
> <chiral flag>
0

> <version>
0

> <s_m_source_file>
/data/baiqing/PycharmProjects/Reinvent-master-3.2/result/LINK_invent/BTK/process_docking_weight1_custom_sum_contain_oxygen_bond_distance_aromatic_linkinvent_7_9_3/rearranged_h_0115.sdf

> <i_m_source_file_index>
58

> <r_mmod_Potential_Energy-OPLS-2005>
926.889404296875

> <r_mmod_Stretch_Energy-OPLS-2005>
413.297912597656

> <r_mmod_Bend_Energy-OPLS-2005>
420.808746337891

> <r_mmod_Torsional_Energy-OPLS-2005>
235.94465637207

> <r_mmod_Improper_Torsional_Energy-OPLS-2005>
7.15871047973633

> <r_mmod_Van_der_Waal_Energy-OPLS-2005>
101.923431396484

> <r_mmod_Electrostatic_Energy-OPLS-2005>
-397.873901367188

> <r_mmod_Solvation_Energy-OPLS-2005>
-224.076599121094

> <b_mmod_Minimization_Converged-OPLS-2005>
0

> <r_mmod_RMS_Derivative-OPLS-2005>
0.183921828866005

$$$$
58
                    3D
 Structure written by MMmdl.
169177  0  0  1  0            999 V2000
  -30.7124  -14.4143   20.6668 C   0  0  0  0  0  0
  -30.4325  -12.3051   19.4099 C   0  0  0  0  0  0
  -29.4960  -12.5157   18.2028 C   0  0  0  0  0  0
  -28.0167  -12.3701   18.6133 C   0  0  0  0  0  0
  -27.6684  -13.1946   19.8809 C   0  0  2  0  0  0
  -28.7038  -12.9254   20.9957 C   0  0  0  0  0  0
  -25.2655  -13.8144   20.5704 C   0  0  0  0  0  0
  -24.1873  -13.0444   20.9171 C   0  0  0  0  0  0
  -24.6382  -11.6900   20.8717 C   0  0  0  0  0  0
  -23.9044  -10.4295   21.0394 C   0  0  0  0  0  0
  -24.3587   -9.4208   21.9176 C   0  0  0  0  0  0
  -23.6266   -8.2244   22.0756 C   0  0  0  0  0  0
  -22.4242   -8.0280   21.3543 C   0  0  0  0  0  0
  -21.9872   -9.0265   20.4642 C   0  0  0  0  0  0
  -22.7212  -10.2136   20.3053 C   0  0  0  0  0  0
  -21.6862   -6.0718   22.5275 C   0  0  0  0  0  0
  -21.4018   -6.5631   23.8199 C   0  0  0  0  0  0
  -21.3656   -5.6783   24.9172 C   0  0  0  0  0  0
  -21.6038   -4.3049   24.7219 C   0  0  0  0  0  0
  -21.8825   -3.8130   23.4353 C   0  0  0  0  0  0
  -21.9189   -4.6948   22.3395 C   0  0  0  0  0  0
  -22.7897  -13.5274   21.1823 C   0  0  0  0  0  0
  -22.1663   -4.2136   21.0976 F   0  0  0  0  0  0
  -21.5623   -3.4530   25.7732 F   0  0  0  0  0  0
  -30.0415  -13.2481   20.4670 N   0  0  0  0  0  0
  -26.3054  -12.9276   20.3361 N   0  0  0  0  0  0
  -25.9299  -11.6452   20.5744 N   0  0  0  0  0  0
  -22.0515  -12.8276   22.0372 N   0  0  0  0  0  0
  -25.4478  -15.1856   20.4156 N   0  0  0  0  0  0
  -31.7628  -14.7029   20.0892 O   0  0  0  0  0  0
  -21.6632   -6.8866   21.4232 O   0  0  0  0  0  0
  -22.3610  -14.5582   20.6670 O   0  0  0  0  0  0
  -24.6138  -31.8728   23.2103 C   0  0  0  0  0  0
  -25.9057  -32.4818   23.8396 C   0  0  1  0  0  0
  -27.2335  -27.4461   20.0590 C   0  0  0  0  0  0
  -25.5908  -33.8611   24.2328 N   0  0  0  0  0  0
  -23.3985  -30.4943   21.5555 C   0  0  2  0  0  0
  -24.8370  -28.9539   20.1168 C   0  0  0  0  0  0
  -22.7424  -29.4684   22.5051 C   0  0  0  0  0  0
  -18.0344  -28.1365   22.8531 C   0  0  0  0  0  0
  -24.1488  -36.7316   23.2639 C   0  0  0  0  0  0
  -25.9282  -30.8285   21.3670 C   0  0  0  0  0  0
  -25.9976  -29.4625   20.7134 C   0  0  0  0  0  0
  -27.1925  -28.7110   20.6864 C   0  0  0  0  0  0
  -26.0458  -26.9402   19.4835 C   0  0  0  0  0  0
  -24.8547  -27.6886   19.5075 C   0  0  0  0  0  0
  -23.5983  -29.8209   20.1698 C   0  0  0  0  0  0
  -25.4118  -36.3115   24.0335 C   0  0  1  0  0  0
  -20.5901  -28.3652   23.1308 C   0  0  2  0  0  0
  -20.6813  -26.9406   22.5311 C   0  0  0  0  0  0
  -19.5766  -26.6427   21.5135 C   0  0  0  0  0  0
  -18.1942  -26.7980   22.1536 C   0  0  0  0  0  0
  -19.1586  -28.8815   23.2924 C   0  0  0  0  0  0
  -18.9544  -30.1436   23.8933 C   0  0  0  0  0  0
  -17.6573  -30.6616   24.0601 C   0  0  0  0  0  0
  -25.9048  -34.9458   23.5131 C   0  0  0  0  0  0
  -16.5438  -29.9081   23.6450 C   0  0  0  0  0  0
  -16.7348  -28.6487   23.0460 C   0  0  0  0  0  0
  -26.4462  -31.6601   25.0733 C   0  0  0  0  0  0
  -25.3702  -31.3705   26.1468 C   0  0  0  0  0  0
  -27.0305  -30.3047   24.6108 C   0  0  0  0  0  0
  -27.6050  -32.4320   25.7480 C   0  0  0  0  0  0
  -27.5584  -37.1817   24.8458 C   0  0  0  0  0  0
  -21.4165  -29.3112   22.3808 N   0  0  0  0  0  0
  -26.4307  -37.3787   23.9391 N   0  0  0  0  0  0
  -24.6670  -31.0799   22.1021 N   0  0  0  0  0  0
  -23.4195  -28.8168   23.3054 O   0  0  0  0  0  0
  -28.4353  -26.7653   20.0522 O   0  0  0  0  0  0
  -26.5614  -34.8902   22.4684 O   0  0  0  0  0  0
  -23.5333  -32.1499   23.7483 O   0  0  0  0  0  0
  -29.7535  -19.8725   21.4298 C   0  0  0  0  0  0
  -27.5392  -18.9584   21.0101 C   0  0  0  0  0  0
  -29.3524  -21.1012   20.8536 C   0  0  0  0  0  0
  -27.1558  -20.1699   20.4053 C   0  0  0  0  0  0
  -28.8402  -18.7961   21.5335 C   0  0  0  0  0  0
  -28.0442  -21.2600   20.3414 C   0  0  0  0  0  0
  -28.4456  -19.7826   24.8028 C   0  0  0  0  0  0
  -28.0786  -17.4712   25.7676 C   0  0  0  0  0  0
  -29.0666  -24.3998   19.7740 C   0  0  0  0  0  0
  -30.3829  -16.7156   21.6175 C   0  0  0  0  0  0
  -27.8996  -23.6483   20.4360 C   0  0  0  0  0  0
  -28.6883  -25.7320   19.0909 C   0  0  0  0  0  0
  -29.1979  -17.4928   22.2623 C   0  0  2  0  0  0
  -28.2799  -18.2834   24.4779 C   0  0  0  0  0  0
  -30.1010  -15.2742   21.4987 N   0  0  0  0  0  0
  -29.4380  -17.7624   23.7030 N   0  3  0  0  0  0
  -27.5880  -22.4262   19.7660 O   0  0  0  0  0  0
  -31.4736  -12.4290   19.1094 H   0  0  0  0  0  0
  -30.3525  -11.2837   19.7809 H   0  0  0  0  0  0
  -29.7341  -11.7973   17.4158 H   0  0  0  0  0  0
  -29.6624  -13.5062   17.7743 H   0  0  0  0  0  0
  -27.8275  -11.3111   18.8001 H   0  0  0  0  0  0
  -27.3683  -12.6551   17.7851 H   0  0  0  0  0  0
  -27.7306  -14.2491   19.6108 H   0  0  0  0  0  0
  -28.6797  -11.8729   21.2829 H   0  0  0  0  0  0
  -28.4465  -13.4686   21.9037 H   0  0  0  0  0  0
  -25.2741   -9.5690   22.4743 H   0  0  0  0  0  0
  -23.9985   -7.4636   22.7470 H   0  0  0  0  0  0
  -21.0811   -8.8771   19.8952 H   0  0  0  0  0  0
  -22.3673  -10.9666   19.6155 H   0  0  0  0  0  0
  -21.2025   -7.6140   23.9708 H   0  0  0  0  0  0
  -21.1474   -6.0514   25.9072 H   0  0  0  0  0  0
  -22.0606   -2.7598   23.2853 H   0  0  0  0  0  0
  -22.4114  -11.9942   22.4779 H   0  0  0  0  0  0
  -21.1134  -13.1321   22.2548 H   0  0  0  0  0  0
  -24.6872  -15.8482   20.5219 H   0  0  0  0  0  0
  -26.2943  -15.6059   20.0529 H   0  0  0  0  0  0
  -26.7167  -32.5517   23.1196 H   0  0  0  0  0  0
  -25.0058  -33.9776   25.0476 H   0  0  0  0  0  0
  -22.6846  -31.3103   21.4252 H   0  0  0  0  0  0
  -23.3732  -35.9659   23.3308 H   0  0  0  0  0  0
  -24.3579  -36.8927   22.2048 H   0  0  0  0  0  0
  -23.7239  -37.6531   23.6646 H   0  0  0  0  0  0
  -26.0431  -31.5973   20.6023 H   0  0  0  0  0  0
  -26.8157  -30.8793   21.9861 H   0  0  0  0  0  0
  -28.0970  -29.1050   21.1255 H   0  0  0  0  0  0
  -26.0036  -25.9703   19.0143 H   0  0  0  0  0  0
  -23.9610  -27.2895   19.0503 H   0  0  0  0  0  0
  -23.7009  -30.5877   19.4013 H   0  0  0  0  0  0
  -22.7193  -29.2407   19.8826 H   0  0  0  0  0  0
  -25.1285  -36.2018   25.0830 H   0  0  0  0  0  0
  -20.9998  -28.3093   24.1431 H   0  0  0  0  0  0
  -20.5840  -26.2206   23.3448 H   0  0  0  0  0  0
  -21.6626  -26.7497   22.0916 H   0  0  0  0  0  0
  -19.6817  -25.6326   21.1119 H   0  0  0  0  0  0
  -19.6663  -27.3283   20.6689 H   0  0  0  0  0  0
  -17.4293  -26.6988   21.3827 H   0  0  0  0  0  0
  -18.0174  -26.0045   22.8797 H   0  0  0  0  0  0
  -19.8047  -30.7209   24.2349 H   0  0  0  0  0  0
  -17.5167  -31.6293   24.5199 H   0  0  0  0  0  0
  -15.5447  -30.3021   23.7842 H   0  0  0  0  0  0
  -15.8745  -28.0813   22.7253 H   0  0  0  0  0  0
  -24.5867  -30.7072   25.7771 H   0  0  0  0  0  0
  -24.8884  -32.2858   26.4931 H   0  0  0  0  0  0
  -25.8029  -30.8860   27.0231 H   0  0  0  0  0  0
  -26.2845  -29.6857   24.1110 H   0  0  0  0  0  0
  -27.4057  -29.7243   25.4550 H   0  0  0  0  0  0
  -27.8692  -30.4387   23.9266 H   0  0  0  0  0  0
  -27.2684  -33.3614   26.2082 H   0  0  0  0  0  0
  -28.3841  -32.6907   25.0289 H   0  0  0  0  0  0
  -28.0752  -31.8434   26.5379 H   0  0  0  0  0  0
  -28.2615  -38.0106   24.7511 H   0  0  0  0  0  0
  -28.1092  -36.2644   24.6311 H   0  0  0  0  0  0
  -27.2286  -37.1464   25.8857 H   0  0  0  0  0  0
  -20.9401  -29.8971   21.7110 H   0  0  0  0  0  0
  -26.0224  -38.2877   24.1372 H   0  0  0  0  0  0
  -30.7571  -19.7744   21.8208 H   0  0  0  0  0  0
  -26.8172  -18.1561   21.0694 H   0  0  0  0  0  0
  -30.0616  -21.9148   20.8049 H   0  0  0  0  0  0
  -26.1556  -20.2746   20.0185 H   0  0  0  0  0  0
  -27.5683  -20.1619   25.3301 H   0  0  0  0  0  0
  -28.5637  -20.3932   23.9076 H   0  0  0  0  0  0
  -29.3109  -19.9637   25.4434 H   0  0  0  0  0  0
  -27.2088  -17.8295   26.3218 H   0  0  0  0  0  0
  -28.9424  -17.5447   26.4300 H   0  0  0  0  0  0
  -27.9036  -16.4165   25.5513 H   0  0  0  0  0  0
  -29.5437  -23.7513   19.0377 H   0  0  0  0  0  0
  -29.8328  -24.5939   20.5218 H   0  0  0  0  0  0
  -31.3167  -16.8802   22.1573 H   0  0  0  0  0  0
  -30.5560  -17.0979   20.6089 H   0  0  0  0  0  0
  -27.0066  -24.2700   20.4116 H   0  0  0  0  0  0
  -28.1036  -23.4762   21.4939 H   0  0  0  0  0  0
  -27.9168  -25.5792   18.3383 H   0  0  0  0  0  0
  -29.5518  -26.0722   18.5172 H   0  0  0  0  0  0
  -28.3120  -16.8524   22.2043 H   0  0  0  0  0  0
  -27.3678  -18.1640   23.8908 H   0  0  0  0  0  0
  -29.2769  -14.9128   21.9545 H   0  0  0  0  0  0
  -30.2080  -18.4049   23.7974 H   0  0  0  0  0  0
  -29.7189  -16.8931   24.1263 H   0  0  0  0  0  0
  1 25  1  0  0  0
  1 30  2  0  0  0
  1 85  1  0  0  0
  2  3  1  0  0  0
  2 25  1  0  0  0
  2 88  1  0  0  0
  2 89  1  0  0  0
  3  4  1  0  0  0
  3 90  1  0  0  0
  3 91  1  0  0  0
  4  5  1  0  0  0
  4 92  1  0  0  0
  4 93  1  0  0  0
  5  6  1  0  0  0
  5 26  1  0  0  0
  5 94  1  0  0  0
  6 25  1  0  0  0
  6 95  1  0  0  0
  6 96  1  0  0  0
  7  8  2  0  0  0
  7 26  1  0  0  0
  7 29  1  0  0  0
  8  9  1  0  0  0
  8 22  1  0  0  0
  9 10  1  0  0  0
  9 27  2  0  0  0
 10 11  2  0  0  0
 10 15  1  0  0  0
 11 12  1  0  0  0
 11 97  1  0  0  0
 12 13  2  0  0  0
 12 98  1  0  0  0
 13 14  1  0  0  0
 13 31  1  0  0  0
 14 15  2  0  0  0
 14 99  1  0  0  0
 15100  1  0  0  0
 16 17  2  0  0  0
 16 21  1  0  0  0
 16 31  1  0  0  0
 17 18  1  0  0  0
 17101  1  0  0  0
 18 19  2  0  0  0
 18102  1  0  0  0
 19 20  1  0  0  0
 19 24  1  0  0  0
 20 21  2  0  0  0
 20103  1  0  0  0
 21 23  1  0  0  0
 22 28  1  0  0  0
 22 32  2  0  0  0
 26 27  1  0  0  0
 28104  1  0  0  0
 28105  1  0  0  0
 29106  1  0  0  0
 29107  1  0  0  0
 33 34  1  0  0  0
 33 66  1  0  0  0
 33 70  2  0  0  0
 34 36  1  0  0  0
 34 59  1  0  0  0
 34108  1  0  0  0
 35 44  2  0  0  0
 35 45  1  0  0  0
 35 68  1  0  0  0
 36 56  1  0  0  0
 36109  1  0  0  0
 37 39  1  0  0  0
 37 47  1  0  0  0
 37 66  1  0  0  0
 37110  1  0  0  0
 38 43  2  0  0  0
 38 46  1  0  0  0
 38 47  1  0  0  0
 39 64  1  0  0  0
 39 67  2  0  0  0
 40 52  1  0  0  0
 40 53  2  0  0  0
 40 58  1  0  0  0
 41111  1  0  0  0
 41112  1  0  0  0
 41113  1  0  0  0
 41 48  1  0  0  0
 42 43  1  0  0  0
 42 66  1  0  0  0
 42114  1  0  0  0
 42115  1  0  0  0
 43 44  1  0  0  0
 44116  1  0  0  0
 45 46  2  0  0  0
 45117  1  0  0  0
 46118  1  0  0  0
 47119  1  0  0  0
 47120  1  0  0  0
 48 56  1  0  0  0
 48 65  1  0  0  0
 48121  1  0  0  0
 49 50  1  0  0  0
 49 53  1  0  0  0
 49 64  1  0  0  0
 49122  1  0  0  0
 50 51  1  0  0  0
 50123  1  0  0  0
 50124  1  0  0  0
 51 52  1  0  0  0
 51125  1  0  0  0
 51126  1  0  0  0
 52127  1  0  0  0
 52128  1  0  0  0
 53 54  1  0  0  0
 54 55  2  0  0  0
 54129  1  0  0  0
 55 57  1  0  0  0
 55130  1  0  0  0
 56 69  2  0  0  0
 57 58  2  0  0  0
 57131  1  0  0  0
 58132  1  0  0  0
 59 60  1  0  0  0
 59 61  1  0  0  0
 59 62  1  0  0  0
 60133  1  0  0  0
 60134  1  0  0  0
 60135  1  0  0  0
 61136  1  0  0  0
 61137  1  0  0  0
 61138  1  0  0  0
 62139  1  0  0  0
 62140  1  0  0  0
 62141  1  0  0  0
 63 65  1  0  0  0
 63142  1  0  0  0
 63143  1  0  0  0
 63144  1  0  0  0
 64145  1  0  0  0
 65146  1  0  0  0
 68 82  1  0  0  0
 71 73  2  0  0  0
 71 75  1  0  0  0
 71147  1  0  0  0
 72 74  1  0  0  0
 72 75  2  0  0  0
 72148  1  0  0  0
 73 76  1  0  0  0
 73149  1  0  0  0
 74 76  2  0  0  0
 74150  1  0  0  0
 75 83  1  0  0  0
 76 87  1  0  0  0
 77151  1  0  0  0
 77152  1  0  0  0
 77153  1  0  0  0
 77 84  1  0  0  0
 78 84  1  0  0  0
 78154  1  0  0  0
 78155  1  0  0  0
 78156  1  0  0  0
 79 81  1  0  0  0
 79 82  1  0  0  0
 79157  1  0  0  0
 79158  1  0  0  0
 80 85  1  0  0  0
 80159  1  0  0  0
 80160  1  0  0  0
 80 83  1  0  0  0
 81 87  1  0  0  0
 81161  1  0  0  0
 81162  1  0  0  0
 82163  1  0  0  0
 82164  1  0  0  0
 83 86  1  0  0  0
 83165  1  0  0  0
 84 86  1  0  0  0
 84166  1  0  0  0
 85167  1  0  0  0
 86168  1  0  0  0
 86169  1  0  0  0
M  CHG  1  86   1
M  ISO  4   1 100  68 101  82 101  85 100
M  END
> <chiral flag>
0

> <version>
0

> <s_m_source_file>
/data/baiqing/PycharmProjects/Reinvent-master-3.2/result/LINK_invent/BTK/process_docking_weight1_custom_sum_contain_oxygen_bond_distance_aromatic_linkinvent_7_9_3/rearranged_h_0115.sdf

> <i_m_source_file_index>
59

> <r_mmod_Potential_Energy-OPLS-2005>
-229.583724975586

> <r_mmod_Stretch_Energy-OPLS-2005>
37.0261077880859

> <r_mmod_Bend_Energy-OPLS-2005>
106.882263183594

> <r_mmod_Torsional_Energy-OPLS-2005>
275.418914794922

> <r_mmod_Improper_Torsional_Energy-OPLS-2005>
2.73175287246704

> <r_mmod_Van_der_Waal_Energy-OPLS-2005>
149.595916748047

> <r_mmod_Electrostatic_Energy-OPLS-2005>
-330.233367919922

> <r_mmod_Solvation_Energy-OPLS-2005>
-480.773315429688

> <b_mmod_Minimization_Converged-OPLS-2005>
0

> <r_mmod_RMS_Derivative-OPLS-2005>
5.03532123565674

$$$$
59
                    3D
 Structure written by MMmdl.
168175  0  0  1  0            999 V2000
  -30.6839  -14.4521   20.5492 C   0  0  0  0  0  0
  -30.4265  -12.2847   19.4255 C   0  0  0  0  0  0
  -29.4989  -12.5023   18.2103 C   0  0  0  0  0  0
  -28.0176  -12.3666   18.6193 C   0  0  0  0  0  0
  -27.6661  -13.1984   19.8823 C   0  0  2  0  0  0
  -28.7063  -12.9623   21.0040 C   0  0  0  0  0  0
  -25.2614  -13.8148   20.5678 C   0  0  0  0  0  0
  -24.1850  -13.0443   20.9174 C   0  0  0  0  0  0
  -24.6378  -11.6903   20.8725 C   0  0  0  0  0  0
  -23.9038  -10.4299   21.0404 C   0  0  0  0  0  0
  -24.3597   -9.4221   21.9187 C   0  0  0  0  0  0
  -23.6286   -8.2251   22.0758 C   0  0  0  0  0  0
  -22.4272   -8.0282   21.3545 C   0  0  0  0  0  0
  -21.9893   -9.0250   20.4649 C   0  0  0  0  0  0
  -22.7210  -10.2135   20.3059 C   0  0  0  0  0  0
  -21.6852   -6.0732   22.5279 C   0  0  0  0  0  0
  -21.4019   -6.5636   23.8211 C   0  0  0  0  0  0
  -21.3665   -5.6790   24.9176 C   0  0  0  0  0  0
  -21.6048   -4.3052   24.7231 C   0  0  0  0  0  0
  -21.8818   -3.8143   23.4352 C   0  0  0  0  0  0
  -21.9199   -4.6956   22.3402 C   0  0  0  0  0  0
  -22.7877  -13.5256   21.1840 C   0  0  0  0  0  0
  -22.1666   -4.2143   21.0981 F   0  0  0  0  0  0
  -21.5633   -3.4540   25.7742 F   0  0  0  0  0  0
  -30.0423  -13.2586   20.4566 N   0  0  0  0  0  0
  -26.3042  -12.9295   20.3391 N   0  0  0  0  0  0
  -25.9303  -11.6465   20.5760 N   0  0  0  0  0  0
  -22.0501  -12.8255   22.0387 N   0  0  0  0  0  0
  -25.4364  -15.1865   20.4076 N   0  0  0  0  0  0
  -31.8117  -14.6559   20.0898 O   0  0  0  0  0  0
  -21.6643   -6.8870   21.4237 O   0  0  0  0  0  0
  -22.3577  -14.5566   20.6692 O   0  0  0  0  0  0
  -24.6136  -31.8683   23.2095 C   0  0  0  0  0  0
  -25.9035  -32.4823   23.8387 C   0  0  1  0  0  0
  -27.2424  -27.4425   20.0932 C   0  0  0  0  0  0
  -25.5898  -33.8619   24.2323 N   0  0  0  0  0  0
  -23.4003  -30.4898   21.5515 C   0  0  2  0  0  0
  -24.8457  -28.9533   20.1168 C   0  0  0  0  0  0
  -22.7397  -29.4653   22.5010 C   0  0  0  0  0  0
  -18.0264  -28.1379   22.8494 C   0  0  0  0  0  0
  -24.1483  -36.7315   23.2638 C   0  0  0  0  0  0
  -25.9262  -30.8367   21.3586 C   0  0  0  0  0  0
  -26.0029  -29.4700   20.7097 C   0  0  0  0  0  0
  -27.1987  -28.7211   20.6944 C   0  0  0  0  0  0
  -26.0646  -26.9384   19.4914 C   0  0  0  0  0  0
  -24.8709  -27.6866   19.5076 C   0  0  0  0  0  0
  -23.6065  -29.8189   20.1668 C   0  0  0  0  0  0
  -25.4109  -36.3114   24.0338 C   0  0  1  0  0  0
  -20.5851  -28.3662   23.1328 C   0  0  2  0  0  0
  -20.6759  -26.9402   22.5423 C   0  0  0  0  0  0
  -19.5741  -26.6389   21.5215 C   0  0  0  0  0  0
  -18.1914  -26.7928   22.1619 C   0  0  0  0  0  0
  -19.1513  -28.8838   23.2906 C   0  0  0  0  0  0
  -18.9443  -30.1445   23.8917 C   0  0  0  0  0  0
  -17.6445  -30.6588   24.0565 C   0  0  0  0  0  0
  -25.9039  -34.9478   23.5130 C   0  0  0  0  0  0
  -16.5337  -29.9095   23.6322 C   0  0  0  0  0  0
  -16.7254  -28.6508   23.0346 C   0  0  0  0  0  0
  -26.4469  -31.6604   25.0711 C   0  0  0  0  0  0
  -25.3742  -31.3698   26.1464 C   0  0  0  0  0  0
  -27.0306  -30.3056   24.6074 C   0  0  0  0  0  0
  -27.6059  -32.4323   25.7468 C   0  0  0  0  0  0
  -27.5580  -37.1810   24.8467 C   0  0  0  0  0  0
  -21.4127  -29.3027   22.3741 N   0  0  0  0  0  0
  -26.4296  -37.3799   23.9409 N   0  0  0  0  0  0
  -24.6652  -31.0789   22.0991 N   0  0  0  0  0  0
  -23.4170  -28.8207   23.3056 O   0  0  0  0  0  0
  -28.4518  -26.7769   20.1147 O   0  0  0  0  0  0
  -26.5596  -34.8931   22.4687 O   0  0  0  0  0  0
  -23.5337  -32.1427   23.7503 O   0  0  0  0  0  0
  -31.0185  -19.0900   20.3270 C   0  0  0  0  0  0
  -30.8262  -20.4140   20.5334 C   0  0  0  0  0  0
  -31.3475  -21.3860   19.4827 C   0  0  0  0  0  0
  -31.1878  -21.7239   22.6738 C   0  0  0  0  0  0
  -26.8792  -24.1135   21.1912 C   0  0  0  0  0  0
  -28.9645  -25.0365   22.2784 C   0  0  0  0  0  0
  -30.6584  -17.8809   21.1867 C   0  0  0  0  0  0
  -29.9456  -16.8093   20.3368 C   0  0  0  0  0  0
  -28.8995  -21.9319   21.5274 C   0  0  0  0  0  0
  -28.5745  -25.3855   19.7839 C   0  0  0  0  0  0
  -30.1503  -21.0319   21.7711 C   0  0  1  0  0  0
  -28.3868  -24.4007   20.9909 C   0  0  0  0  0  0
  -29.8983  -15.4703   20.9367 N   0  0  0  0  0  0
  -29.1455  -23.1409   20.6926 N   0  3  0  0  0  0
  -31.4726  -12.3817   19.1277 H   0  0  0  0  0  0
  -30.3228  -11.2711   19.8141 H   0  0  0  0  0  0
  -29.7360  -11.7862   17.4223 H   0  0  0  0  0  0
  -29.6734  -13.4918   17.7844 H   0  0  0  0  0  0
  -27.8195  -11.3105   18.8035 H   0  0  0  0  0  0
  -27.3701  -12.6548   17.7898 H   0  0  0  0  0  0
  -27.7138  -14.2472   19.5904 H   0  0  0  0  0  0
  -28.6737  -11.9249   21.3403 H   0  0  0  0  0  0
  -28.4761  -13.5614   21.8874 H   0  0  0  0  0  0
  -25.2742   -9.5711   22.4758 H   0  0  0  0  0  0
  -24.0009   -7.4645   22.7469 H   0  0  0  0  0  0
  -21.0838   -8.8756   19.8944 H   0  0  0  0  0  0
  -22.3669  -10.9670   19.6167 H   0  0  0  0  0  0
  -21.2004   -7.6143   23.9706 H   0  0  0  0  0  0
  -21.1492   -6.0524   25.9073 H   0  0  0  0  0  0
  -22.0592   -2.7607   23.2849 H   0  0  0  0  0  0
  -22.4111  -11.9925   22.4796 H   0  0  0  0  0  0
  -21.1114  -13.1287   22.2568 H   0  0  0  0  0  0
  -24.6716  -15.8441   20.5122 H   0  0  0  0  0  0
  -26.2921  -15.6216   20.0864 H   0  0  0  0  0  0
  -26.7109  -32.5538   23.1158 H   0  0  0  0  0  0
  -25.0067  -33.9782   25.0480 H   0  0  0  0  0  0
  -22.6896  -31.3069   21.4124 H   0  0  0  0  0  0
  -23.3745  -35.9646   23.3314 H   0  0  0  0  0  0
  -24.3577  -36.8917   22.2049 H   0  0  0  0  0  0
  -23.7236  -37.6526   23.6644 H   0  0  0  0  0  0
  -26.0318  -31.6010   20.5872 H   0  0  0  0  0  0
  -26.8171  -30.8949   21.9725 H   0  0  0  0  0  0
  -28.0954  -29.1218   21.1467 H   0  0  0  0  0  0
  -26.0389  -25.9758   19.0051 H   0  0  0  0  0  0
  -23.9802  -27.2837   19.0456 H   0  0  0  0  0  0
  -23.7119  -30.5918   19.4048 H   0  0  0  0  0  0
  -22.7307  -29.2365   19.8742 H   0  0  0  0  0  0
  -25.1283  -36.1982   25.0831 H   0  0  0  0  0  0
  -20.9933  -28.3228   24.1451 H   0  0  0  0  0  0
  -20.5667  -26.2267   23.3602 H   0  0  0  0  0  0
  -21.6634  -26.7458   22.1211 H   0  0  0  0  0  0
  -19.6903  -25.6303   21.1235 H   0  0  0  0  0  0
  -19.6687  -27.3207   20.6749 H   0  0  0  0  0  0
  -17.4187  -26.6678   21.4013 H   0  0  0  0  0  0
  -18.0312  -26.0064   22.9008 H   0  0  0  0  0  0
  -19.7924  -30.7250   24.2299 H   0  0  0  0  0  0
  -17.5009  -31.6270   24.5168 H   0  0  0  0  0  0
  -15.5341  -30.3004   23.7648 H   0  0  0  0  0  0
  -15.8649  -28.0840   22.7054 H   0  0  0  0  0  0
  -24.5909  -30.7055   25.7792 H   0  0  0  0  0  0
  -24.8933  -32.2844   26.4943 H   0  0  0  0  0  0
  -25.8092  -30.8839   27.0206 H   0  0  0  0  0  0
  -26.2835  -29.6806   24.1162 H   0  0  0  0  0  0
  -27.4129  -29.7304   25.4519 H   0  0  0  0  0  0
  -27.8644  -30.4395   23.9177 H   0  0  0  0  0  0
  -27.2692  -33.3617   26.2077 H   0  0  0  0  0  0
  -28.3842  -32.6898   25.0269 H   0  0  0  0  0  0
  -28.0757  -31.8425   26.5351 H   0  0  0  0  0  0
  -28.2613  -38.0095   24.7515 H   0  0  0  0  0  0
  -28.1061  -36.2629   24.6293 H   0  0  0  0  0  0
  -27.2294  -37.1465   25.8869 H   0  0  0  0  0  0
  -20.9291  -29.8740   21.6955 H   0  0  0  0  0  0
  -26.0185  -38.2878   24.1413 H   0  0  0  0  0  0
  -31.5264  -18.8105   19.4134 H   0  0  0  0  0  0
  -32.0206  -20.8885   18.7831 H   0  0  0  0  0  0
  -31.9195  -22.1970   19.9332 H   0  0  0  0  0  0
  -30.5377  -21.8041   18.8871 H   0  0  0  0  0  0
  -31.6474  -22.5895   22.1998 H   0  0  0  0  0  0
  -31.9894  -21.0325   22.9370 H   0  0  0  0  0  0
  -30.7362  -22.0631   23.6069 H   0  0  0  0  0  0
  -26.3325  -25.0287   21.4155 H   0  0  0  0  0  0
  -26.6824  -23.4425   22.0270 H   0  0  0  0  0  0
  -26.4278  -23.6722   20.3013 H   0  0  0  0  0  0
  -28.8703  -24.3816   23.1442 H   0  0  0  0  0  0
  -28.4448  -25.9604   22.5341 H   0  0  0  0  0  0
  -30.0209  -25.2852   22.1695 H   0  0  0  0  0  0
  -30.0547  -18.1383   22.0547 H   0  0  0  0  0  0
  -31.5962  -17.4769   21.5704 H   0  0  0  0  0  0
  -30.4127  -16.7389   19.3518 H   0  0  0  0  0  0
  -28.9207  -17.1286   20.1435 H   0  0  0  0  0  0
  -28.5135  -22.2196   22.5054 H   0  0  0  0  0  0
  -28.1067  -21.3467   21.0586 H   0  0  0  0  0  0
  -27.9723  -25.0964   18.9229 H   0  0  0  0  0  0
  -29.6021  -25.2966   19.4285 H   0  0  0  0  0  0
  -29.7685  -20.2083   22.3707 H   0  0  0  0  0  0
  -29.0161  -15.1963   21.3444 H   0  0  0  0  0  0
  -28.9679  -22.8681   19.7366 H   0  0  0  0  0  0
  -30.1296  -23.3518   20.7562 H   0  0  0  0  0  0
  1 25  1  0  0  0
  1 30  2  0  0  0
  1 83  1  0  0  0
  2  3  1  0  0  0
  2 25  1  0  0  0
  2 85  1  0  0  0
  2 86  1  0  0  0
  3  4  1  0  0  0
  3 87  1  0  0  0
  3 88  1  0  0  0
  4  5  1  0  0  0
  4 89  1  0  0  0
  4 90  1  0  0  0
  5  6  1  0  0  0
  5 26  1  0  0  0
  5 91  1  0  0  0
  6 25  1  0  0  0
  6 92  1  0  0  0
  6 93  1  0  0  0
  7  8  2  0  0  0
  7 26  1  0  0  0
  7 29  1  0  0  0
  8  9  1  0  0  0
  8 22  1  0  0  0
  9 10  1  0  0  0
  9 27  2  0  0  0
 10 11  2  0  0  0
 10 15  1  0  0  0
 11 12  1  0  0  0
 11 94  1  0  0  0
 12 13  2  0  0  0
 12 95  1  0  0  0
 13 14  1  0  0  0
 13 31  1  0  0  0
 14 15  2  0  0  0
 14 96  1  0  0  0
 15 97  1  0  0  0
 16 17  2  0  0  0
 16 21  1  0  0  0
 16 31  1  0  0  0
 17 18  1  0  0  0
 17 98  1  0  0  0
 18 19  2  0  0  0
 18 99  1  0  0  0
 19 20  1  0  0  0
 19 24  1  0  0  0
 20 21  2  0  0  0
 20100  1  0  0  0
 21 23  1  0  0  0
 22 28  1  0  0  0
 22 32  2  0  0  0
 26 27  1  0  0  0
 28101  1  0  0  0
 28102  1  0  0  0
 29103  1  0  0  0
 29104  1  0  0  0
 33 34  1  0  0  0
 33 66  1  0  0  0
 33 70  2  0  0  0
 34 36  1  0  0  0
 34 59  1  0  0  0
 34105  1  0  0  0
 35 44  2  0  0  0
 35 45  1  0  0  0
 35 68  1  0  0  0
 36 56  1  0  0  0
 36106  1  0  0  0
 37 39  1  0  0  0
 37 47  1  0  0  0
 37 66  1  0  0  0
 37107  1  0  0  0
 38 43  2  0  0  0
 38 46  1  0  0  0
 38 47  1  0  0  0
 39 64  1  0  0  0
 39 67  2  0  0  0
 40 52  1  0  0  0
 40 53  2  0  0  0
 40 58  1  0  0  0
 41108  1  0  0  0
 41109  1  0  0  0
 41110  1  0  0  0
 41 48  1  0  0  0
 42 43  1  0  0  0
 42 66  1  0  0  0
 42111  1  0  0  0
 42112  1  0  0  0
 43 44  1  0  0  0
 44113  1  0  0  0
 45 46  2  0  0  0
 45114  1  0  0  0
 46115  1  0  0  0
 47116  1  0  0  0
 47117  1  0  0  0
 48 56  1  0  0  0
 48 65  1  0  0  0
 48118  1  0  0  0
 49 50  1  0  0  0
 49 53  1  0  0  0
 49 64  1  0  0  0
 49119  1  0  0  0
 50 51  1  0  0  0
 50120  1  0  0  0
 50121  1  0  0  0
 51 52  1  0  0  0
 51122  1  0  0  0
 51123  1  0  0  0
 52124  1  0  0  0
 52125  1  0  0  0
 53 54  1  0  0  0
 54 55  2  0  0  0
 54126  1  0  0  0
 55 57  1  0  0  0
 55127  1  0  0  0
 56 69  2  0  0  0
 57 58  2  0  0  0
 57128  1  0  0  0
 58129  1  0  0  0
 59 60  1  0  0  0
 59 61  1  0  0  0
 59 62  1  0  0  0
 60130  1  0  0  0
 60131  1  0  0  0
 60132  1  0  0  0
 61133  1  0  0  0
 61134  1  0  0  0
 61135  1  0  0  0
 62136  1  0  0  0
 62137  1  0  0  0
 62138  1  0  0  0
 63 65  1  0  0  0
 63139  1  0  0  0
 63140  1  0  0  0
 63141  1  0  0  0
 64142  1  0  0  0
 65143  1  0  0  0
 68 80  1  0  0  0
 71 72  2  0  0  0
 71 77  1  0  0  0
 71144  1  0  0  0
 72 73  1  0  0  0
 72 81  1  0  0  0
 73145  1  0  0  0
 73146  1  0  0  0
 73147  1  0  0  0
 74148  1  0  0  0
 74149  1  0  0  0
 74150  1  0  0  0
 74 81  1  0  0  0
 75151  1  0  0  0
 75152  1  0  0  0
 75153  1  0  0  0
 75 82  1  0  0  0
 76 82  1  0  0  0
 76154  1  0  0  0
 76155  1  0  0  0
 76156  1  0  0  0
 77 78  1  0  0  0
 77157  1  0  0  0
 77158  1  0  0  0
 78 83  1  0  0  0
 78159  1  0  0  0
 78160  1  0  0  0
 79 81  1  0  0  0
 79 84  1  0  0  0
 79161  1  0  0  0
 79162  1  0  0  0
 80 82  1  0  0  0
 80163  1  0  0  0
 80164  1  0  0  0
 81165  1  0  0  0
 82 84  1  0  0  0
 83166  1  0  0  0
 84167  1  0  0  0
 84168  1  0  0  0
M  CHG  1  84   1
M  ISO  4   1 100  68 101  80 101  83 100
M  END
> <chiral flag>
0

> <version>
0

> <s_m_source_file>
/data/baiqing/PycharmProjects/Reinvent-master-3.2/result/LINK_invent/BTK/process_docking_weight1_custom_sum_contain_oxygen_bond_distance_aromatic_linkinvent_7_9_3/rearranged_h_0115.sdf

> <i_m_source_file_index>
60

> <r_mmod_Potential_Energy-OPLS-2005>
-113.201126098633

> <r_mmod_Stretch_Energy-OPLS-2005>
39.1216087341309

> <r_mmod_Bend_Energy-OPLS-2005>
129.428604125977

> <r_mmod_Torsional_Energy-OPLS-2005>
226.093887329102

> <r_mmod_Improper_Torsional_Energy-OPLS-2005>
8.1450252532959

> <r_mmod_Van_der_Waal_Energy-OPLS-2005>
137.586029052734

> <r_mmod_Electrostatic_Energy-OPLS-2005>
-242.006332397461

> <r_mmod_Solvation_Energy-OPLS-2005>
-423.554992675781

> <b_mmod_Minimization_Converged-OPLS-2005>
0

> <r_mmod_RMS_Derivative-OPLS-2005>
1.40032255649567

$$$$
60
                    3D
 Structure written by MMmdl.
158166  0  0  1  0            999 V2000
  -30.5411  -14.8398   20.4687 C   0  0  0  0  0  0
  -30.4450  -12.5133   19.4894 C   0  0  0  0  0  0
  -29.5175  -12.5239   18.2506 C   0  0  0  0  0  0
  -28.0433  -12.3372   18.6600 C   0  0  0  0  0  0
  -27.6426  -13.2339   19.8603 C   0  0  2  0  0  0
  -28.6852  -13.1675   20.9983 C   0  0  0  0  0  0
  -25.2505  -13.8199   20.5715 C   0  0  0  0  0  0
  -24.1794  -13.0434   20.9208 C   0  0  0  0  0  0
  -24.6388  -11.6921   20.8744 C   0  0  0  0  0  0
  -23.9069  -10.4291   21.0405 C   0  0  0  0  0  0
  -24.3622   -9.4205   21.9184 C   0  0  0  0  0  0
  -23.6295   -8.2239   22.0753 C   0  0  0  0  0  0
  -22.4278   -8.0276   21.3539 C   0  0  0  0  0  0
  -21.9912   -9.0250   20.4645 C   0  0  0  0  0  0
  -22.7240  -10.2134   20.3053 C   0  0  0  0  0  0
  -21.6857   -6.0730   22.5271 C   0  0  0  0  0  0
  -21.4013   -6.5637   23.8204 C   0  0  0  0  0  0
  -21.3659   -5.6788   24.9169 C   0  0  0  0  0  0
  -21.6048   -4.3051   24.7219 C   0  0  0  0  0  0
  -21.8820   -3.8143   23.4341 C   0  0  0  0  0  0
  -21.9194   -4.6958   22.3397 C   0  0  0  0  0  0
  -22.7818  -13.5209   21.1874 C   0  0  0  0  0  0
  -22.1662   -4.2145   21.0978 F   0  0  0  0  0  0
  -21.5634   -3.4538   25.7734 F   0  0  0  0  0  0
  -29.9799  -13.5706   20.4273 N   0  0  0  0  0  0
  -26.2929  -12.9410   20.3322 N   0  0  0  0  0  0
  -25.9322  -11.6546   20.5770 N   0  0  0  0  0  0
  -22.0475  -12.8192   22.0440 N   0  0  0  0  0  0
  -25.4194  -15.1929   20.4145 N   0  0  0  0  0  0
  -31.7065  -14.9788   20.0768 O   0  0  0  0  0  0
  -21.6644   -6.8874   21.4233 O   0  0  0  0  0  0
  -22.3493  -14.5516   20.6729 O   0  0  0  0  0  0
  -24.6395  -31.8472   23.1893 C   0  0  0  0  0  0
  -25.9178  -32.4712   23.8283 C   0  0  1  0  0  0
  -27.2106  -27.1661   20.1529 C   0  0  0  0  0  0
  -25.5944  -33.8523   24.2200 N   0  0  0  0  0  0
  -23.4437  -30.4683   21.5320 C   0  0  2  0  0  0
  -24.8926  -28.9035   20.1050 C   0  0  0  0  0  0
  -22.7554  -29.4577   22.4834 C   0  0  0  0  0  0
  -18.0311  -28.1400   22.8501 C   0  0  0  0  0  0
  -24.1491  -36.7241   23.2644 C   0  0  0  0  0  0
  -25.9977  -30.7302   21.3866 C   0  0  0  0  0  0
  -26.0677  -29.3457   20.7279 C   0  0  0  0  0  0
  -27.2286  -28.4907   20.7371 C   0  0  0  0  0  0
  -26.0127  -26.8223   19.4859 C   0  0  0  0  0  0
  -24.8775  -27.6563   19.4676 C   0  0  0  0  0  0
  -23.6679  -29.8002   20.1495 C   0  0  0  0  0  0
  -25.4123  -36.3041   24.0326 C   0  0  1  0  0  0
  -20.5934  -28.3725   23.1228 C   0  0  2  0  0  0
  -20.6791  -26.9423   22.5405 C   0  0  0  0  0  0
  -19.5754  -26.6385   21.5223 C   0  0  0  0  0  0
  -18.1940  -26.7942   22.1639 C   0  0  0  0  0  0
  -19.1578  -28.8878   23.2861 C   0  0  0  0  0  0
  -18.9493  -30.1481   23.8873 C   0  0  0  0  0  0
  -17.6493  -30.6602   24.0573 C   0  0  0  0  0  0
  -25.9078  -34.9422   23.5070 C   0  0  0  0  0  0
  -16.5377  -29.9104   23.6348 C   0  0  0  0  0  0
  -16.7300  -28.6520   23.0371 C   0  0  0  0  0  0
  -26.4508  -31.6585   25.0710 C   0  0  0  0  0  0
  -25.3706  -31.3789   26.1416 C   0  0  0  0  0  0
  -27.0356  -30.2982   24.6284 C   0  0  0  0  0  0
  -27.6055  -32.4338   25.7478 C   0  0  0  0  0  0
  -27.5575  -37.1771   24.8463 C   0  0  0  0  0  0
  -21.4250  -29.3045   22.3588 N   0  0  0  0  0  0
  -26.4275  -37.3757   23.9428 N   0  0  0  0  0  0
  -24.7131  -31.0369   22.0912 N   0  0  0  0  0  0
  -23.4216  -28.8120   23.2971 O   0  0  0  0  0  0
  -28.2595  -26.1905   20.2419 O   0  0  0  0  0  0
  -26.5655  -34.8920   22.4645 O   0  0  0  0  0  0
  -23.5521  -32.1327   23.7143 O   0  0  0  0  0  0
  -28.9648  -18.1315   21.7547 C   0  0  0  0  0  0
  -29.7322  -19.5548   19.6011 C   0  0  0  0  0  0
  -28.6440  -19.5381   21.6919 C   0  0  0  0  0  0
  -28.9907  -20.3401   20.5502 C   0  0  0  0  0  0
  -29.6636  -17.4120   20.7425 C   0  0  0  0  0  0
  -28.3071  -19.7061   24.2296 C   0  0  0  0  0  0
  -26.3333  -19.7417   22.6491 C   0  0  0  0  0  0
  -28.3329  -21.8126   20.2085 C   0  0  0  0  0  0
  -28.8872  -23.3612   20.4772 C   0  0  0  0  0  0
  -27.9423  -24.6856   20.0928 C   0  0  0  0  0  0
  -27.8091  -20.1241   22.8309 C   0  0  0  0  0  0
  -30.0559  -18.2015   19.6902 N   0  0  0  0  0  0
  -29.7295  -15.9085   20.8793 N   0  0  0  0  0  0
  -31.4801  -12.6683   19.1808 H   0  0  0  0  0  0
  -30.4258  -11.5360   19.9743 H   0  0  0  0  0  0
  -29.8095  -11.7385   17.5519 H   0  0  0  0  0  0
  -29.6327  -13.4678   17.7155 H   0  0  0  0  0  0
  -27.9040  -11.2874   18.9214 H   0  0  0  0  0  0
  -27.3865  -12.5279   17.8107 H   0  0  0  0  0  0
  -27.6357  -14.2567   19.4827 H   0  0  0  0  0  0
  -28.7433  -12.1592   21.4115 H   0  0  0  0  0  0
  -28.3970  -13.8136   21.8283 H   0  0  0  0  0  0
  -25.2763   -9.5688   22.4757 H   0  0  0  0  0  0
  -24.0004   -7.4634   22.7471 H   0  0  0  0  0  0
  -21.0843   -8.8767   19.8949 H   0  0  0  0  0  0
  -22.3690  -10.9670   19.6164 H   0  0  0  0  0  0
  -21.2003   -7.6145   23.9705 H   0  0  0  0  0  0
  -21.1482   -6.0523   25.9075 H   0  0  0  0  0  0
  -22.0600   -2.7605   23.2841 H   0  0  0  0  0  0
  -22.4103  -11.9835   22.4784 H   0  0  0  0  0  0
  -21.1098  -13.1212   22.2683 H   0  0  0  0  0  0
  -24.6512  -15.8452   20.5282 H   0  0  0  0  0  0
  -26.2645  -15.6347   20.0762 H   0  0  0  0  0  0
  -26.7240  -32.5318   23.1016 H   0  0  0  0  0  0
  -25.0071  -33.9651   25.0341 H   0  0  0  0  0  0
  -22.7458  -31.2943   21.3785 H   0  0  0  0  0  0
  -23.3761  -35.9562   23.3311 H   0  0  0  0  0  0
  -24.3585  -36.8858   22.2057 H   0  0  0  0  0  0
  -23.7250  -37.6444   23.6670 H   0  0  0  0  0  0
  -26.1576  -31.4879   20.6190 H   0  0  0  0  0  0
  -26.8667  -30.7740   22.0310 H   0  0  0  0  0  0
  -28.1224  -28.8200   21.2496 H   0  0  0  0  0  0
  -25.9108  -25.8686   18.9908 H   0  0  0  0  0  0
  -23.9826  -27.3187   18.9631 H   0  0  0  0  0  0
  -23.8021  -30.5740   19.3928 H   0  0  0  0  0  0
  -22.7839  -29.2390   19.8404 H   0  0  0  0  0  0
  -25.1324  -36.1851   25.0818 H   0  0  0  0  0  0
  -21.0055  -28.3318   24.1341 H   0  0  0  0  0  0
  -20.5680  -26.2345   23.3637 H   0  0  0  0  0  0
  -21.6657  -26.7421   22.1200 H   0  0  0  0  0  0
  -19.6910  -25.6295   21.1259 H   0  0  0  0  0  0
  -19.6680  -27.3189   20.6750 H   0  0  0  0  0  0
  -17.4213  -26.6710   21.4037 H   0  0  0  0  0  0
  -18.0323  -26.0091   22.9041 H   0  0  0  0  0  0
  -19.7975  -30.7318   24.2202 H   0  0  0  0  0  0
  -17.5053  -31.6275   24.5184 H   0  0  0  0  0  0
  -15.5384  -30.3004   23.7678 H   0  0  0  0  0  0
  -15.8704  -28.0834   22.7085 H   0  0  0  0  0  0
  -24.5903  -30.7104   25.7770 H   0  0  0  0  0  0
  -24.8852  -32.2961   26.4752 H   0  0  0  0  0  0
  -25.8000  -30.9049   27.0250 H   0  0  0  0  0  0
  -26.2951  -29.6715   24.1288 H   0  0  0  0  0  0
  -27.3971  -29.7285   25.4855 H   0  0  0  0  0  0
  -27.8883  -30.4227   23.9604 H   0  0  0  0  0  0
  -27.2684  -33.3702   26.1938 H   0  0  0  0  0  0
  -28.3918  -32.6780   25.0326 H   0  0  0  0  0  0
  -28.0646  -31.8513   26.5475 H   0  0  0  0  0  0
  -28.2576  -38.0083   24.7545 H   0  0  0  0  0  0
  -28.1081  -36.2618   24.6240 H   0  0  0  0  0  0
  -27.2293  -37.1369   25.8861 H   0  0  0  0  0  0
  -20.9445  -29.8758   21.6775 H   0  0  0  0  0  0
  -26.0129  -38.2817   24.1457 H   0  0  0  0  0  0
  -28.6117  -17.5647   22.6037 H   0  0  0  0  0  0
  -30.0128  -20.0108   18.6629 H   0  0  0  0  0  0
  -29.3778  -19.8778   24.3421 H   0  0  0  0  0  0
  -28.1129  -18.6552   24.4442 H   0  0  0  0  0  0
  -27.8009  -20.2796   25.0063 H   0  0  0  0  0  0
  -25.9562  -20.0756   21.6828 H   0  0  0  0  0  0
  -25.7065  -20.1854   23.4224 H   0  0  0  0  0  0
  -26.1996  -18.6601   22.6943 H   0  0  0  0  0  0
  -27.3387  -21.7866   20.6574 H   0  0  0  0  0  0
  -28.1098  -21.7601   19.1423 H   0  0  0  0  0  0
  -29.8323  -23.4694   19.9458 H   0  0  0  0  0  0
  -29.1432  -23.4462   21.5330 H   0  0  0  0  0  0
  -27.0132  -24.5294   20.6422 H   0  0  0  0  0  0
  -27.6747  -24.5486   19.0442 H   0  0  0  0  0  0
  -27.8957  -21.2092   22.7914 H   0  0  0  0  0  0
  -28.9177  -15.5485   21.3544 H   0  0  0  0  0  0
  1 25  1  0  0  0
  1 30  2  0  0  0
  1 83  1  0  0  0
  2  3  1  0  0  0
  2 25  1  0  0  0
  2 84  1  0  0  0
  2 85  1  0  0  0
  3  4  1  0  0  0
  3 86  1  0  0  0
  3 87  1  0  0  0
  4  5  1  0  0  0
  4 88  1  0  0  0
  4 89  1  0  0  0
  5  6  1  0  0  0
  5 26  1  0  0  0
  5 90  1  0  0  0
  6 25  1  0  0  0
  6 91  1  0  0  0
  6 92  1  0  0  0
  7  8  2  0  0  0
  7 26  1  0  0  0
  7 29  1  0  0  0
  8  9  1  0  0  0
  8 22  1  0  0  0
  9 10  1  0  0  0
  9 27  2  0  0  0
 10 11  2  0  0  0
 10 15  1  0  0  0
 11 12  1  0  0  0
 11 93  1  0  0  0
 12 13  2  0  0  0
 12 94  1  0  0  0
 13 14  1  0  0  0
 13 31  1  0  0  0
 14 15  2  0  0  0
 14 95  1  0  0  0
 15 96  1  0  0  0
 16 17  2  0  0  0
 16 21  1  0  0  0
 16 31  1  0  0  0
 17 18  1  0  0  0
 17 97  1  0  0  0
 18 19  2  0  0  0
 18 98  1  0  0  0
 19 20  1  0  0  0
 19 24  1  0  0  0
 20 21  2  0  0  0
 20 99  1  0  0  0
 21 23  1  0  0  0
 22 28  1  0  0  0
 22 32  2  0  0  0
 26 27  1  0  0  0
 28100  1  0  0  0
 28101  1  0  0  0
 29102  1  0  0  0
 29103  1  0  0  0
 33 34  1  0  0  0
 33 66  1  0  0  0
 33 70  2  0  0  0
 34 36  1  0  0  0
 34 59  1  0  0  0
 34104  1  0  0  0
 35 44  2  0  0  0
 35 45  1  0  0  0
 35 68  1  0  0  0
 36 56  1  0  0  0
 36105  1  0  0  0
 37 39  1  0  0  0
 37 47  1  0  0  0
 37 66  1  0  0  0
 37106  1  0  0  0
 38 43  2  0  0  0
 38 46  1  0  0  0
 38 47  1  0  0  0
 39 64  1  0  0  0
 39 67  2  0  0  0
 40 52  1  0  0  0
 40 53  2  0  0  0
 40 58  1  0  0  0
 41107  1  0  0  0
 41108  1  0  0  0
 41109  1  0  0  0
 41 48  1  0  0  0
 42 43  1  0  0  0
 42 66  1  0  0  0
 42110  1  0  0  0
 42111  1  0  0  0
 43 44  1  0  0  0
 44112  1  0  0  0
 45 46  2  0  0  0
 45113  1  0  0  0
 46114  1  0  0  0
 47115  1  0  0  0
 47116  1  0  0  0
 48 56  1  0  0  0
 48 65  1  0  0  0
 48117  1  0  0  0
 49 50  1  0  0  0
 49 53  1  0  0  0
 49 64  1  0  0  0
 49118  1  0  0  0
 50 51  1  0  0  0
 50119  1  0  0  0
 50120  1  0  0  0
 51 52  1  0  0  0
 51121  1  0  0  0
 51122  1  0  0  0
 52123  1  0  0  0
 52124  1  0  0  0
 53 54  1  0  0  0
 54 55  2  0  0  0
 54125  1  0  0  0
 55 57  1  0  0  0
 55126  1  0  0  0
 56 69  2  0  0  0
 57 58  2  0  0  0
 57127  1  0  0  0
 58128  1  0  0  0
 59 60  1  0  0  0
 59 61  1  0  0  0
 59 62  1  0  0  0
 60129  1  0  0  0
 60130  1  0  0  0
 60131  1  0  0  0
 61132  1  0  0  0
 61133  1  0  0  0
 61134  1  0  0  0
 62135  1  0  0  0
 62136  1  0  0  0
 62137  1  0  0  0
 63 65  1  0  0  0
 63138  1  0  0  0
 63139  1  0  0  0
 63140  1  0  0  0
 64141  1  0  0  0
 65142  1  0  0  0
 68 80  1  0  0  0
 71 73  2  0  0  0
 71 75  1  0  0  0
 71143  1  0  0  0
 72 74  2  0  0  0
 72 82  1  0  0  0
 72144  1  0  0  0
 73 74  1  0  0  0
 73 81  1  0  0  0
 74 78  1  0  0  0
 75 82  2  0  0  0
 75 83  1  0  0  0
 76145  1  0  0  0
 76146  1  0  0  0
 76147  1  0  0  0
 76 81  1  0  0  0
 77 81  1  0  0  0
 77148  1  0  0  0
 77149  1  0  0  0
 77150  1  0  0  0
 78 79  1  0  0  0
 78151  1  0  0  0
 78152  1  0  0  0
 79 80  1  0  0  0
 79153  1  0  0  0
 79154  1  0  0  0
 80155  1  0  0  0
 80156  1  0  0  0
 81157  1  0  0  0
 83158  1  0  0  0
M  ISO  4   1 100  68 101  80 101  83 100
M  END
> <chiral flag>
0

> <version>
0

> <s_m_source_file>
/data/baiqing/PycharmProjects/Reinvent-master-3.2/result/LINK_invent/BTK/process_docking_weight1_custom_sum_contain_oxygen_bond_distance_aromatic_linkinvent_7_9_3/rearranged_h_0115.sdf

> <i_m_source_file_index>
61

> <r_mmod_Potential_Energy-OPLS-2005>
203.882400512695

> <r_mmod_Stretch_Energy-OPLS-2005>
196.042404174805

> <r_mmod_Bend_Energy-OPLS-2005>
244.460723876953

> <r_mmod_Torsional_Energy-OPLS-2005>
223.219787597656

> <r_mmod_Improper_Torsional_Energy-OPLS-2005>
5.96257638931274

> <r_mmod_Van_der_Waal_Energy-OPLS-2005>
137.937561035156

> <r_mmod_Electrostatic_Energy-OPLS-2005>
-519.49072265625

> <r_mmod_Solvation_Energy-OPLS-2005>
-228.813095092773

> <b_mmod_Minimization_Converged-OPLS-2005>
0

> <r_mmod_RMS_Derivative-OPLS-2005>
2.52869749069214

$$$$
61
                    3D
 Structure written by MMmdl.
149157  0  0  1  0            999 V2000
  -30.4116  -15.3650   20.3539 C   0  0  0  0  0  0
  -30.4398  -12.8770   19.5460 C   0  0  0  0  0  0
  -29.5449  -12.6068   18.3072 C   0  0  0  0  0  0
  -28.0982  -12.3103   18.7326 C   0  0  0  0  0  0
  -27.6127  -13.2879   19.8301 C   0  0  2  0  0  0
  -28.6409  -13.5000   20.9657 C   0  0  0  0  0  0
  -25.2380  -13.8267   20.5777 C   0  0  0  0  0  0
  -24.1735  -13.0439   20.9250 C   0  0  0  0  0  0
  -24.6406  -11.6941   20.8746 C   0  0  0  0  0  0
  -23.9089  -10.4299   21.0382 C   0  0  0  0  0  0
  -24.3627   -9.4216   21.9161 C   0  0  0  0  0  0
  -23.6296   -8.2259   22.0749 C   0  0  0  0  0  0
  -22.4283   -8.0286   21.3534 C   0  0  0  0  0  0
  -21.9915   -9.0261   20.4637 C   0  0  0  0  0  0
  -22.7255  -10.2135   20.3038 C   0  0  0  0  0  0
  -21.6868   -6.0724   22.5265 C   0  0  0  0  0  0
  -21.4023   -6.5623   23.8195 C   0  0  0  0  0  0
  -21.3672   -5.6782   24.9163 C   0  0  0  0  0  0
  -21.6058   -4.3043   24.7217 C   0  0  0  0  0  0
  -21.8821   -3.8129   23.4338 C   0  0  0  0  0  0
  -21.9197   -4.6948   22.3395 C   0  0  0  0  0  0
  -22.7749  -13.5185   21.1903 C   0  0  0  0  0  0
  -22.1662   -4.2124   21.0972 F   0  0  0  0  0  0
  -21.5643   -3.4530   25.7734 F   0  0  0  0  0  0
  -29.8684  -14.0350   20.3457 N   0  0  0  0  0  0
  -26.2819  -12.9566   20.3244 N   0  0  0  0  0  0
  -25.9349  -11.6654   20.5706 N   0  0  0  0  0  0
  -22.0405  -12.8162   22.0456 N   0  0  0  0  0  0
  -25.4005  -15.2008   20.4255 N   0  0  0  0  0  0
  -31.6198  -15.3587   20.0679 O   0  0  0  0  0  0
  -21.6656   -6.8874   21.4232 O   0  0  0  0  0  0
  -22.3414  -14.5490   20.6753 O   0  0  0  0  0  0
  -24.6686  -31.8159   23.1665 C   0  0  0  0  0  0
  -25.9339  -32.4555   23.8152 C   0  0  1  0  0  0
  -27.2151  -26.8543   20.1939 C   0  0  0  0  0  0
  -25.5984  -33.8380   24.2034 N   0  0  0  0  0  0
  -23.4886  -30.4239   21.5172 C   0  0  2  0  0  0
  -24.9457  -28.8035   20.1094 C   0  0  0  0  0  0
  -22.7697  -29.4399   22.4773 C   0  0  0  0  0  0
  -18.0311  -28.1449   22.8455 C   0  0  0  0  0  0
  -24.1488  -36.7194   23.2645 C   0  0  0  0  0  0
  -26.0620  -30.5974   21.4109 C   0  0  0  0  0  0
  -26.1277  -29.1803   20.7583 C   0  0  0  0  0  0
  -27.2521  -28.2258   20.7788 C   0  0  0  0  0  0
  -26.0209  -26.6726   19.4558 C   0  0  0  0  0  0
  -24.9218  -27.5719   19.4374 C   0  0  0  0  0  0
  -23.7329  -29.7351   20.1463 C   0  0  0  0  0  0
  -25.4139  -36.2948   24.0273 C   0  0  1  0  0  0
  -20.5939  -28.3797   23.1180 C   0  0  2  0  0  0
  -20.6793  -26.9462   22.5424 C   0  0  0  0  0  0
  -19.5770  -26.6396   21.5234 C   0  0  0  0  0  0
  -18.1944  -26.7974   22.1625 C   0  0  0  0  0  0
  -19.1573  -28.8939   23.2805 C   0  0  0  0  0  0
  -18.9490  -30.1525   23.8843 C   0  0  0  0  0  0
  -17.6483  -30.6631   24.0554 C   0  0  0  0  0  0
  -25.9115  -34.9335   23.4985 C   0  0  0  0  0  0
  -16.5371  -29.9116   23.6361 C   0  0  0  0  0  0
  -16.7293  -28.6546   23.0356 C   0  0  0  0  0  0
  -26.4589  -31.6514   25.0696 C   0  0  0  0  0  0
  -25.3706  -31.3807   26.1344 C   0  0  0  0  0  0
  -27.0470  -30.2853   24.6477 C   0  0  0  0  0  0
  -27.6045  -32.4344   25.7534 C   0  0  0  0  0  0
  -27.5557  -37.1761   24.8464 C   0  0  0  0  0  0
  -21.4360  -29.3049   22.3508 N   0  0  0  0  0  0
  -26.4289  -37.3672   23.9388 N   0  0  0  0  0  0
  -24.7614  -30.9745   22.0852 N   0  0  0  0  0  0
  -23.4207  -28.7979   23.3051 O   0  0  0  0  0  0
  -28.1800  -25.6903   20.3191 O   0  0  0  0  0  0
  -26.5728  -34.8874   22.4586 O   0  0  0  0  0  0
  -23.5735  -32.1169   23.6693 O   0  0  0  0  0  0
  -30.1568  -21.4709   22.3640 C   0  0  0  0  0  0
  -30.0729  -20.1653   21.8168 C   0  0  0  0  0  0
  -29.5776  -22.6297   21.7787 C   0  0  0  0  0  0
  -29.4177  -19.9039   20.6042 C   0  0  0  0  0  0
  -28.8358  -22.5573   20.5756 C   0  0  0  0  0  0
  -26.5940  -23.7790   20.9145 C   0  0  0  0  0  0
  -29.6879  -18.2700   19.9576 C   0  0  0  0  0  0
  -27.9074  -24.0245   20.1483 C   0  0  1  0  0  0
  -28.8031  -21.1501   20.0375 N   0  0  0  0  0  0
  -29.6513  -16.6540   20.4917 N   0  0  0  0  0  0
  -29.7582  -24.1281   22.6194 Cl  0  0  0  0  0  0
  -31.4529  -13.0903   19.2016 H   0  0  0  0  0  0
  -30.5322  -11.9820   20.1625 H   0  0  0  0  0  0
  -29.9435  -11.7785   17.7199 H   0  0  0  0  0  0
  -29.5592  -13.4809   17.6549 H   0  0  0  0  0  0
  -28.0690  -11.2884   19.1122 H   0  0  0  0  0  0
  -27.4311  -12.3368   17.8689 H   0  0  0  0  0  0
  -27.5172  -14.2468   19.3191 H   0  0  0  0  0  0
  -28.8277  -12.5790   21.5206 H   0  0  0  0  0  0
  -28.2584  -14.2232   21.6877 H   0  0  0  0  0  0
  -25.2764   -9.5705   22.4734 H   0  0  0  0  0  0
  -24.0005   -7.4662   22.7478 H   0  0  0  0  0  0
  -21.0846   -8.8772   19.8937 H   0  0  0  0  0  0
  -22.3695  -10.9671   19.6148 H   0  0  0  0  0  0
  -21.2013   -7.6130   23.9692 H   0  0  0  0  0  0
  -21.1499   -6.0507   25.9063 H   0  0  0  0  0  0
  -22.0591   -2.7587   23.2842 H   0  0  0  0  0  0
  -22.4029  -11.9847   22.4874 H   0  0  0  0  0  0
  -21.1002  -13.1151   22.2640 H   0  0  0  0  0  0
  -24.6323  -15.8504   20.5616 H   0  0  0  0  0  0
  -26.2450  -15.6484   20.0950 H   0  0  0  0  0  0
  -26.7397  -32.5058   23.0847 H   0  0  0  0  0  0
  -25.0029  -33.9470   25.0116 H   0  0  0  0  0  0
  -22.8054  -31.2564   21.3410 H   0  0  0  0  0  0
  -23.3748  -35.9529   23.3305 H   0  0  0  0  0  0
  -24.3540  -36.8852   22.2058 H   0  0  0  0  0  0
  -23.7261  -37.6383   23.6721 H   0  0  0  0  0  0
  -26.2429  -31.3315   20.6246 H   0  0  0  0  0  0
  -26.9215  -30.6620   22.0674 H   0  0  0  0  0  0
  -28.1368  -28.5057   21.3331 H   0  0  0  0  0  0
  -25.8857  -25.7444   18.9198 H   0  0  0  0  0  0
  -24.0293  -27.2838   18.9003 H   0  0  0  0  0  0
  -23.8881  -30.5012   19.3873 H   0  0  0  0  0  0
  -22.8428  -29.1895   19.8300 H   0  0  0  0  0  0
  -25.1351  -36.1730   25.0760 H   0  0  0  0  0  0
  -21.0016  -28.3413   24.1311 H   0  0  0  0  0  0
  -20.5678  -26.2421   23.3679 H   0  0  0  0  0  0
  -21.6657  -26.7444   22.1216 H   0  0  0  0  0  0
  -19.6947  -25.6299   21.1290 H   0  0  0  0  0  0
  -19.6707  -27.3190   20.6746 H   0  0  0  0  0  0
  -17.4212  -26.6705   21.4024 H   0  0  0  0  0  0
  -18.0327  -26.0152   22.9055 H   0  0  0  0  0  0
  -19.7966  -30.7350   24.2196 H   0  0  0  0  0  0
  -17.5039  -31.6300   24.5184 H   0  0  0  0  0  0
  -15.5375  -30.2999   23.7747 H   0  0  0  0  0  0
  -15.8685  -28.0865   22.7099 H   0  0  0  0  0  0
  -24.5924  -30.7106   25.7677 H   0  0  0  0  0  0
  -24.8876  -32.3025   26.4586 H   0  0  0  0  0  0
  -25.7940  -30.9117   27.0236 H   0  0  0  0  0  0
  -26.3144  -29.6526   24.1453 H   0  0  0  0  0  0
  -27.3919  -29.7227   25.5169 H   0  0  0  0  0  0
  -27.9123  -30.3976   23.9939 H   0  0  0  0  0  0
  -27.2567  -33.3677   26.1968 H   0  0  0  0  0  0
  -28.3953  -32.6840   25.0453 H   0  0  0  0  0  0
  -28.0598  -31.8571   26.5591 H   0  0  0  0  0  0
  -28.2571  -38.0052   24.7460 H   0  0  0  0  0  0
  -28.1054  -36.2579   24.6365 H   0  0  0  0  0  0
  -27.2262  -37.1468   25.8862 H   0  0  0  0  0  0
  -20.9662  -29.8687   21.6554 H   0  0  0  0  0  0
  -26.0126  -38.2727   24.1393 H   0  0  0  0  0  0
  -30.6985  -21.5922   23.2905 H   0  0  0  0  0  0
  -30.5831  -19.3575   22.3240 H   0  0  0  0  0  0
  -26.1732  -22.8090   20.6504 H   0  0  0  0  0  0
  -25.8156  -24.5115   20.7423 H   0  0  0  0  0  0
  -26.7846  -23.7660   21.9864 H   0  0  0  0  0  0
  -29.0789  -18.2549   19.0547 H   0  0  0  0  0  0
  -30.7050  -18.3555   19.5736 H   0  0  0  0  0  0
  -27.6935  -23.9037   19.0862 H   0  0  0  0  0  0
  -28.7293  -16.4521   20.8480 H   0  0  0  0  0  0
  1 25  1  0  0  0
  1 30  2  0  0  0
  1 80  1  0  0  0
  2  3  1  0  0  0
  2 25  1  0  0  0
  2 82  1  0  0  0
  2 83  1  0  0  0
  3  4  1  0  0  0
  3 84  1  0  0  0
  3 85  1  0  0  0
  4  5  1  0  0  0
  4 86  1  0  0  0
  4 87  1  0  0  0
  5  6  1  0  0  0
  5 26  1  0  0  0
  5 88  1  0  0  0
  6 25  1  0  0  0
  6 89  1  0  0  0
  6 90  1  0  0  0
  7  8  2  0  0  0
  7 26  1  0  0  0
  7 29  1  0  0  0
  8  9  1  0  0  0
  8 22  1  0  0  0
  9 10  1  0  0  0
  9 27  2  0  0  0
 10 11  2  0  0  0
 10 15  1  0  0  0
 11 12  1  0  0  0
 11 91  1  0  0  0
 12 13  2  0  0  0
 12 92  1  0  0  0
 13 14  1  0  0  0
 13 31  1  0  0  0
 14 15  2  0  0  0
 14 93  1  0  0  0
 15 94  1  0  0  0
 16 17  2  0  0  0
 16 21  1  0  0  0
 16 31  1  0  0  0
 17 18  1  0  0  0
 17 95  1  0  0  0
 18 19  2  0  0  0
 18 96  1  0  0  0
 19 20  1  0  0  0
 19 24  1  0  0  0
 20 21  2  0  0  0
 20 97  1  0  0  0
 21 23  1  0  0  0
 22 28  1  0  0  0
 22 32  2  0  0  0
 26 27  1  0  0  0
 28 98  1  0  0  0
 28 99  1  0  0  0
 29100  1  0  0  0
 29101  1  0  0  0
 33 34  1  0  0  0
 33 66  1  0  0  0
 33 70  2  0  0  0
 34 36  1  0  0  0
 34 59  1  0  0  0
 34102  1  0  0  0
 35 44  2  0  0  0
 35 45  1  0  0  0
 35 68  1  0  0  0
 36 56  1  0  0  0
 36103  1  0  0  0
 37 39  1  0  0  0
 37 47  1  0  0  0
 37 66  1  0  0  0
 37104  1  0  0  0
 38 43  2  0  0  0
 38 46  1  0  0  0
 38 47  1  0  0  0
 39 64  1  0  0  0
 39 67  2  0  0  0
 40 52  1  0  0  0
 40 53  2  0  0  0
 40 58  1  0  0  0
 41105  1  0  0  0
 41106  1  0  0  0
 41107  1  0  0  0
 41 48  1  0  0  0
 42 43  1  0  0  0
 42 66  1  0  0  0
 42108  1  0  0  0
 42109  1  0  0  0
 43 44  1  0  0  0
 44110  1  0  0  0
 45 46  2  0  0  0
 45111  1  0  0  0
 46112  1  0  0  0
 47113  1  0  0  0
 47114  1  0  0  0
 48 56  1  0  0  0
 48 65  1  0  0  0
 48115  1  0  0  0
 49 50  1  0  0  0
 49 53  1  0  0  0
 49 64  1  0  0  0
 49116  1  0  0  0
 50 51  1  0  0  0
 50117  1  0  0  0
 50118  1  0  0  0
 51 52  1  0  0  0
 51119  1  0  0  0
 51120  1  0  0  0
 52121  1  0  0  0
 52122  1  0  0  0
 53 54  1  0  0  0
 54 55  2  0  0  0
 54123  1  0  0  0
 55 57  1  0  0  0
 55124  1  0  0  0
 56 69  2  0  0  0
 57 58  2  0  0  0
 57125  1  0  0  0
 58126  1  0  0  0
 59 60  1  0  0  0
 59 61  1  0  0  0
 59 62  1  0  0  0
 60127  1  0  0  0
 60128  1  0  0  0
 60129  1  0  0  0
 61130  1  0  0  0
 61131  1  0  0  0
 61132  1  0  0  0
 62133  1  0  0  0
 62134  1  0  0  0
 62135  1  0  0  0
 63 65  1  0  0  0
 63136  1  0  0  0
 63137  1  0  0  0
 63138  1  0  0  0
 64139  1  0  0  0
 65140  1  0  0  0
 68 78  1  0  0  0
 71 72  2  0  0  0
 71 73  1  0  0  0
 71141  1  0  0  0
 72 74  1  0  0  0
 72142  1  0  0  0
 73 75  2  0  0  0
 73 81  1  0  0  0
 74 77  1  0  0  0
 74 79  2  0  0  0
 75 78  1  0  0  0
 75 79  1  0  0  0
 76143  1  0  0  0
 76144  1  0  0  0
 76145  1  0  0  0
 76 78  1  0  0  0
 77 80  1  0  0  0
 77146  1  0  0  0
 77147  1  0  0  0
 78148  1  0  0  0
 80149  1  0  0  0
M  ISO  4   1 100  68 101  78 101  80 100
M  END
> <chiral flag>
0

> <version>
0

> <s_m_source_file>
/data/baiqing/PycharmProjects/Reinvent-master-3.2/result/LINK_invent/BTK/process_docking_weight1_custom_sum_contain_oxygen_bond_distance_aromatic_linkinvent_7_9_3/rearranged_h_0115.sdf

> <i_m_source_file_index>
62

> <r_mmod_Potential_Energy-OPLS-2005>
1355.22546386719

> <r_mmod_Stretch_Energy-OPLS-2005>
706.337890625

> <r_mmod_Bend_Energy-OPLS-2005>
486.399047851562

> <r_mmod_Torsional_Energy-OPLS-2005>
216.51594543457

> <r_mmod_Improper_Torsional_Energy-OPLS-2005>
7.08064699172974

> <r_mmod_Van_der_Waal_Energy-OPLS-2005>
126.134796142578

> <r_mmod_Electrostatic_Energy-OPLS-2005>
-530.352111816406

> <r_mmod_Solvation_Energy-OPLS-2005>
-232.887176513672

> <b_mmod_Minimization_Converged-OPLS-2005>
0

> <r_mmod_RMS_Derivative-OPLS-2005>
2.84840250015259

$$$$
62
                    3D
 Structure written by MMmdl.
177186  0  0  1  0            999 V2000
  -30.7880  -14.3606   20.7068 C   0  0  0  0  0  0
  -30.4166  -12.3040   19.4002 C   0  0  0  0  0  0
  -29.4846  -12.5377   18.1978 C   0  0  0  0  0  0
  -28.0119  -12.3854   18.6171 C   0  0  0  0  0  0
  -27.6666  -13.2091   19.8847 C   0  0  2  0  0  0
  -28.7032  -12.9675   21.0038 C   0  0  0  0  0  0
  -25.2591  -13.8191   20.5686 C   0  0  0  0  0  0
  -24.1828  -13.0445   20.9165 C   0  0  0  0  0  0
  -24.6396  -11.6924   20.8732 C   0  0  0  0  0  0
  -23.9071  -10.4295   21.0402 C   0  0  0  0  0  0
  -24.3617   -9.4216   21.9186 C   0  0  0  0  0  0
  -23.6292   -8.2255   22.0769 C   0  0  0  0  0  0
  -22.4280   -8.0295   21.3556 C   0  0  0  0  0  0
  -21.9914   -9.0267   20.4667 C   0  0  0  0  0  0
  -22.7241  -10.2142   20.3065 C   0  0  0  0  0  0
  -21.6858   -6.0738   22.5289 C   0  0  0  0  0  0
  -21.4013   -6.5643   23.8221 C   0  0  0  0  0  0
  -21.3650   -5.6800   24.9183 C   0  0  0  0  0  0
  -21.6035   -4.3064   24.7237 C   0  0  0  0  0  0
  -21.8815   -3.8149   23.4363 C   0  0  0  0  0  0
  -21.9190   -4.6963   22.3410 C   0  0  0  0  0  0
  -22.7848  -13.5255   21.1810 C   0  0  0  0  0  0
  -22.1661   -4.2140   21.0990 F   0  0  0  0  0  0
  -21.5619   -3.4553   25.7753 F   0  0  0  0  0  0
  -30.0496  -13.2459   20.4674 N   0  0  0  0  0  0
  -26.3039  -12.9356   20.3396 N   0  0  0  0  0  0
  -25.9330  -11.6516   20.5773 N   0  0  0  0  0  0
  -22.0489  -12.8241   22.0392 N   0  0  0  0  0  0
  -25.4309  -15.1898   20.4088 N   0  0  0  0  0  0
  -31.7788  -14.6738   20.0405 O   0  0  0  0  0  0
  -21.6649   -6.8883   21.4257 O   0  0  0  0  0  0
  -22.3537  -14.5557   20.6682 O   0  0  0  0  0  0
  -24.6220  -31.8693   23.2103 C   0  0  0  0  0  0
  -25.9109  -32.4818   23.8401 C   0  0  1  0  0  0
  -27.2253  -27.4237   20.1117 C   0  0  0  0  0  0
  -25.5953  -33.8609   24.2350 N   0  0  0  0  0  0
  -23.4057  -30.4995   21.5550 C   0  0  2  0  0  0
  -24.8460  -28.9661   20.1236 C   0  0  0  0  0  0
  -22.7400  -29.4740   22.5004 C   0  0  0  0  0  0
  -18.0289  -28.1407   22.8467 C   0  0  0  0  0  0
  -24.1503  -36.7314   23.2632 C   0  0  0  0  0  0
  -25.9362  -30.8387   21.3581 C   0  0  0  0  0  0
  -26.0126  -29.4720   20.7102 C   0  0  0  0  0  0
  -27.2090  -28.7151   20.6917 C   0  0  0  0  0  0
  -26.0272  -26.9331   19.5371 C   0  0  0  0  0  0
  -24.8479  -27.6949   19.5337 C   0  0  0  0  0  0
  -23.6107  -29.8335   20.1708 C   0  0  0  0  0  0
  -25.4106  -36.3103   24.0358 C   0  0  1  0  0  0
  -20.5864  -28.3728   23.1263 C   0  0  2  0  0  0
  -20.6778  -26.9462   22.5375 C   0  0  0  0  0  0
  -19.5767  -26.6419   21.5169 C   0  0  0  0  0  0
  -18.1949  -26.7949   22.1594 C   0  0  0  0  0  0
  -19.1531  -28.8879   23.2867 C   0  0  0  0  0  0
  -18.9458  -30.1470   23.8907 C   0  0  0  0  0  0
  -17.6462  -30.6598   24.0575 C   0  0  0  0  0  0
  -25.9043  -34.9473   23.5147 C   0  0  0  0  0  0
  -16.5357  -29.9114   23.6325 C   0  0  0  0  0  0
  -16.7275  -28.6533   23.0339 C   0  0  0  0  0  0
  -26.4524  -31.6574   25.0717 C   0  0  0  0  0  0
  -25.3779  -31.3658   26.1451 C   0  0  0  0  0  0
  -27.0347  -30.3016   24.6080 C   0  0  0  0  0  0
  -27.6102  -32.4277   25.7467 C   0  0  0  0  0  0
  -27.5592  -37.1812   24.8467 C   0  0  0  0  0  0
  -21.4138  -29.3110   22.3683 N   0  0  0  0  0  0
  -26.4302  -37.3783   23.9422 N   0  0  0  0  0  0
  -24.6744  -31.0818   22.0997 N   0  0  0  0  0  0
  -23.4136  -28.8260   23.3056 O   0  0  0  0  0  0
  -28.3907  -26.6727   20.1085 O   0  0  0  0  0  0
  -26.5579  -34.8928   22.4700 O   0  0  0  0  0  0
  -23.5407  -32.1458   23.7489 O   0  0  0  0  0  0
  -30.0687  -22.4293   22.7533 C   0  0  0  0  0  0
  -31.4471  -20.6101   21.9411 C   0  0  0  0  0  0
  -31.0430  -21.9650   21.8450 C   0  0  0  0  0  0
  -29.5582  -21.5450   23.7188 C   0  0  0  0  0  0
  -30.8606  -19.7965   22.9371 C   0  0  0  0  0  0
  -30.9591  -23.6707   17.8908 C   0  0  0  0  0  0
  -30.3907  -22.4347   18.4976 C   0  0  0  0  0  0
  -30.2068  -23.7759   19.2220 C   0  0  0  0  0  0
  -32.5026  -20.0558   20.9856 C   0  0  0  0  0  0
  -28.5549  -22.0156   24.7496 C   0  0  0  0  0  0
  -28.3813  -25.7908   17.1650 C   0  0  0  0  0  0
  -31.0855  -23.9864   20.4715 C   0  0  0  0  0  0
  -28.0274  -24.4907   17.9193 C   0  0  0  0  0  0
  -30.5452  -17.5032   22.2857 C   0  0  0  0  0  0
  -31.2120  -16.1239   22.4166 C   0  0  0  0  0  0
  -28.2526  -25.2656   20.4044 C   0  0  0  0  0  0
  -28.7166  -24.2535   19.3000 C   0  0  2  0  0  0
  -29.9504  -20.2573   23.8100 N   0  0  0  0  0  0
  -31.2302  -18.4674   23.1382 N   0  0  0  0  0  0
  -30.4337  -15.0546   21.7950 N   0  0  0  0  0  0
  -31.6784  -22.7654   20.9186 O   0  0  0  0  0  0
  -31.4580  -12.4133   19.0927 H   0  0  0  0  0  0
  -30.3263  -11.2815   19.7678 H   0  0  0  0  0  0
  -29.7219  -11.8369   17.3964 H   0  0  0  0  0  0
  -29.6531  -13.5362   17.7898 H   0  0  0  0  0  0
  -27.8238  -11.3268   18.7992 H   0  0  0  0  0  0
  -27.3608  -12.6791   17.7938 H   0  0  0  0  0  0
  -27.7226  -14.2619   19.6089 H   0  0  0  0  0  0
  -28.6592  -11.9331   21.3496 H   0  0  0  0  0  0
  -28.4433  -13.5731   21.8717 H   0  0  0  0  0  0
  -25.2765   -9.5678   22.4760 H   0  0  0  0  0  0
  -23.9993   -7.4645   22.7495 H   0  0  0  0  0  0
  -21.0843   -8.8793   19.8976 H   0  0  0  0  0  0
  -22.3713  -10.9681   19.6168 H   0  0  0  0  0  0
  -21.2021   -7.6155   23.9718 H   0  0  0  0  0  0
  -21.1465   -6.0538   25.9078 H   0  0  0  0  0  0
  -22.0601   -2.7614   23.2875 H   0  0  0  0  0  0
  -22.4108  -11.9904   22.4767 H   0  0  0  0  0  0
  -21.1114  -13.1281   22.2612 H   0  0  0  0  0  0
  -24.6715  -15.8522   20.5252 H   0  0  0  0  0  0
  -26.2930  -15.6268   20.1066 H   0  0  0  0  0  0
  -26.7181  -32.5533   23.1160 H   0  0  0  0  0  0
  -25.0124  -33.9763   25.0507 H   0  0  0  0  0  0
  -22.7001  -31.3213   21.4150 H   0  0  0  0  0  0
  -23.3759  -35.9656   23.3280 H   0  0  0  0  0  0
  -24.3588  -36.8922   22.2043 H   0  0  0  0  0  0
  -23.7273  -37.6533   23.6634 H   0  0  0  0  0  0
  -26.0455  -31.5973   20.5815 H   0  0  0  0  0  0
  -26.8248  -30.8919   21.9764 H   0  0  0  0  0  0
  -28.1110  -29.1067   21.1426 H   0  0  0  0  0  0
  -25.9693  -25.9524   19.0946 H   0  0  0  0  0  0
  -23.9476  -27.2973   19.0858 H   0  0  0  0  0  0
  -23.7233  -30.6087   19.4120 H   0  0  0  0  0  0
  -22.7305  -29.2604   19.8717 H   0  0  0  0  0  0
  -25.1283  -36.1968   25.0854 H   0  0  0  0  0  0
  -20.9976  -28.3334   24.1370 H   0  0  0  0  0  0
  -20.5646  -26.2375   23.3586 H   0  0  0  0  0  0
  -21.6660  -26.7491   22.1195 H   0  0  0  0  0  0
  -19.6940  -25.6327   21.1226 H   0  0  0  0  0  0
  -19.6695  -27.3198   20.6671 H   0  0  0  0  0  0
  -17.4199  -26.6677   21.4014 H   0  0  0  0  0  0
  -18.0396  -26.0085   22.8992 H   0  0  0  0  0  0
  -19.7940  -30.7274   24.2285 H   0  0  0  0  0  0
  -17.5031  -31.6265   24.5205 H   0  0  0  0  0  0
  -15.5363  -30.3026   23.7649 H   0  0  0  0  0  0
  -15.8674  -28.0856   22.7052 H   0  0  0  0  0  0
  -24.5956  -30.7019   25.7764 H   0  0  0  0  0  0
  -24.8965  -32.2793   26.4945 H   0  0  0  0  0  0
  -25.8119  -30.8774   27.0183 H   0  0  0  0  0  0
  -26.2887  -29.6756   24.1171 H   0  0  0  0  0  0
  -27.4165  -29.7273   25.4534 H   0  0  0  0  0  0
  -27.8700  -30.4325   23.9195 H   0  0  0  0  0  0
  -27.2740  -33.3560   26.2095 H   0  0  0  0  0  0
  -28.3866  -32.6866   25.0254 H   0  0  0  0  0  0
  -28.0837  -31.8372   26.5323 H   0  0  0  0  0  0
  -28.2615  -38.0104   24.7500 H   0  0  0  0  0  0
  -28.1094  -36.2640   24.6303 H   0  0  0  0  0  0
  -27.2307  -37.1465   25.8869 H   0  0  0  0  0  0
  -20.9332  -29.8807   21.6857 H   0  0  0  0  0  0
  -26.0201  -38.2883   24.1368 H   0  0  0  0  0  0
  -29.7354  -23.4544   22.7747 H   0  0  0  0  0  0
  -30.5061  -23.9975   16.9597 H   0  0  0  0  0  0
  -32.0454  -23.7507   17.9082 H   0  0  0  0  0  0
  -31.1246  -21.7100   18.8461 H   0  0  0  0  0  0
  -29.5273  -21.9882   18.0110 H   0  0  0  0  0  0
  -33.1977  -20.8243   20.6479 H   0  0  0  0  0  0
  -32.0237  -19.6410   20.0996 H   0  0  0  0  0  0
  -33.1024  -19.2684   21.4427 H   0  0  0  0  0  0
  -28.1564  -22.9965   24.4914 H   0  0  0  0  0  0
  -29.0164  -22.0847   25.7361 H   0  0  0  0  0  0
  -27.7175  -21.3225   24.8107 H   0  0  0  0  0  0
  -27.9534  -26.6807   17.6221 H   0  0  0  0  0  0
  -27.9957  -25.7506   16.1444 H   0  0  0  0  0  0
  -29.4555  -25.9554   17.1054 H   0  0  0  0  0  0
  -31.9346  -24.5969   20.1657 H   0  0  0  0  0  0
  -30.6507  -24.5759   21.2651 H   0  0  0  0  0  0
  -28.2258  -23.6549   17.2519 H   0  0  0  0  0  0
  -26.9495  -24.4273   18.0451 H   0  0  0  0  0  0
  -29.5030  -17.4363   22.6063 H   0  0  0  0  0  0
  -30.5409  -17.8331   21.2451 H   0  0  0  0  0  0
  -32.2269  -16.1676   22.0146 H   0  0  0  0  0  0
  -31.3204  -15.8611   23.4698 H   0  0  0  0  0  0
  -28.7043  -25.0685   21.3721 H   0  0  0  0  0  0
  -27.2177  -25.0140   20.6398 H   0  0  0  0  0  0
  -28.2364  -23.3351   19.6449 H   0  0  0  0  0  0
  -31.1037  -18.2142   24.1114 H   0  0  0  0  0  0
  -29.6260  -14.7204   22.2992 H   0  0  0  0  0  0
  1 25  1  0  0  0
  1 30  2  0  0  0
  1 90  1  0  0  0
  2  3  1  0  0  0
  2 25  1  0  0  0
  2 92  1  0  0  0
  2 93  1  0  0  0
  3  4  1  0  0  0
  3 94  1  0  0  0
  3 95  1  0  0  0
  4  5  1  0  0  0
  4 96  1  0  0  0
  4 97  1  0  0  0
  5  6  1  0  0  0
  5 26  1  0  0  0
  5 98  1  0  0  0
  6 25  1  0  0  0
  6 99  1  0  0  0
  6100  1  0  0  0
  7  8  2  0  0  0
  7 26  1  0  0  0
  7 29  1  0  0  0
  8  9  1  0  0  0
  8 22  1  0  0  0
  9 10  1  0  0  0
  9 27  2  0  0  0
 10 11  2  0  0  0
 10 15  1  0  0  0
 11 12  1  0  0  0
 11101  1  0  0  0
 12 13  2  0  0  0
 12102  1  0  0  0
 13 14  1  0  0  0
 13 31  1  0  0  0
 14 15  2  0  0  0
 14103  1  0  0  0
 15104  1  0  0  0
 16 17  2  0  0  0
 16 21  1  0  0  0
 16 31  1  0  0  0
 17 18  1  0  0  0
 17105  1  0  0  0
 18 19  2  0  0  0
 18106  1  0  0  0
 19 20  1  0  0  0
 19 24  1  0  0  0
 20 21  2  0  0  0
 20107  1  0  0  0
 21 23  1  0  0  0
 22 28  1  0  0  0
 22 32  2  0  0  0
 26 27  1  0  0  0
 28108  1  0  0  0
 28109  1  0  0  0
 29110  1  0  0  0
 29111  1  0  0  0
 33 34  1  0  0  0
 33 66  1  0  0  0
 33 70  2  0  0  0
 34 36  1  0  0  0
 34 59  1  0  0  0
 34112  1  0  0  0
 35 44  2  0  0  0
 35 45  1  0  0  0
 35 68  1  0  0  0
 36 56  1  0  0  0
 36113  1  0  0  0
 37 39  1  0  0  0
 37 47  1  0  0  0
 37 66  1  0  0  0
 37114  1  0  0  0
 38 43  2  0  0  0
 38 46  1  0  0  0
 38 47  1  0  0  0
 39 64  1  0  0  0
 39 67  2  0  0  0
 40 52  1  0  0  0
 40 53  2  0  0  0
 40 58  1  0  0  0
 41115  1  0  0  0
 41116  1  0  0  0
 41117  1  0  0  0
 41 48  1  0  0  0
 42 43  1  0  0  0
 42 66  1  0  0  0
 42118  1  0  0  0
 42119  1  0  0  0
 43 44  1  0  0  0
 44120  1  0  0  0
 45 46  2  0  0  0
 45121  1  0  0  0
 46122  1  0  0  0
 47123  1  0  0  0
 47124  1  0  0  0
 48 56  1  0  0  0
 48 65  1  0  0  0
 48125  1  0  0  0
 49 50  1  0  0  0
 49 53  1  0  0  0
 49 64  1  0  0  0
 49126  1  0  0  0
 50 51  1  0  0  0
 50127  1  0  0  0
 50128  1  0  0  0
 51 52  1  0  0  0
 51129  1  0  0  0
 51130  1  0  0  0
 52131  1  0  0  0
 52132  1  0  0  0
 53 54  1  0  0  0
 54 55  2  0  0  0
 54133  1  0  0  0
 55 57  1  0  0  0
 55134  1  0  0  0
 56 69  2  0  0  0
 57 58  2  0  0  0
 57135  1  0  0  0
 58136  1  0  0  0
 59 60  1  0  0  0
 59 61  1  0  0  0
 59 62  1  0  0  0
 60137  1  0  0  0
 60138  1  0  0  0
 60139  1  0  0  0
 61140  1  0  0  0
 61141  1  0  0  0
 61142  1  0  0  0
 62143  1  0  0  0
 62144  1  0  0  0
 62145  1  0  0  0
 63 65  1  0  0  0
 63146  1  0  0  0
 63147  1  0  0  0
 63148  1  0  0  0
 64149  1  0  0  0
 65150  1  0  0  0
 68 86  1  0  0  0
 71 73  2  0  0  0
 71 74  1  0  0  0
 71151  1  0  0  0
 72 73  1  0  0  0
 72 75  2  0  0  0
 72 79  1  0  0  0
 73 91  1  0  0  0
 74 80  1  0  0  0
 74 88  2  0  0  0
 75 88  1  0  0  0
 75 89  1  0  0  0
 76 77  1  0  0  0
 76 78  1  0  0  0
 76152  1  0  0  0
 76153  1  0  0  0
 77 78  1  0  0  0
 77154  1  0  0  0
 77155  1  0  0  0
 78 82  1  0  0  0
 78 87  1  0  0  0
 79156  1  0  0  0
 79157  1  0  0  0
 79158  1  0  0  0
 80159  1  0  0  0
 80160  1  0  0  0
 80161  1  0  0  0
 81 83  1  0  0  0
 81162  1  0  0  0
 81163  1  0  0  0
 81164  1  0  0  0
 82 91  1  0  0  0
 82165  1  0  0  0
 82166  1  0  0  0
 83167  1  0  0  0
 83168  1  0  0  0
 83 87  1  0  0  0
 84 85  1  0  0  0
 84 89  1  0  0  0
 84169  1  0  0  0
 84170  1  0  0  0
 85 90  1  0  0  0
 85171  1  0  0  0
 85172  1  0  0  0
 86 87  1  0  0  0
 86173  1  0  0  0
 86174  1  0  0  0
 87175  1  0  0  0
 89176  1  0  0  0
 90177  1  0  0  0
M  ISO  4   1 100  68 101  86 101  90 100
M  END
> <chiral flag>
0

> <version>
0

> <s_m_source_file>
/data/baiqing/PycharmProjects/Reinvent-master-3.2/result/LINK_invent/BTK/process_docking_weight1_custom_sum_contain_oxygen_bond_distance_aromatic_linkinvent_7_9_3/rearranged_h_0115.sdf

> <i_m_source_file_index>
63

> <r_mmod_Potential_Energy-OPLS-2005>
-235.996459960938

> <r_mmod_Stretch_Energy-OPLS-2005>
44.484733581543

> <r_mmod_Bend_Energy-OPLS-2005>
150.57666015625

> <r_mmod_Torsional_Energy-OPLS-2005>
297.973114013672

> <r_mmod_Improper_Torsional_Energy-OPLS-2005>
8.50240898132324

> <r_mmod_Van_der_Waal_Energy-OPLS-2005>
177.347702026367

> <r_mmod_Electrostatic_Energy-OPLS-2005>
-695.883117675781

> <r_mmod_Solvation_Energy-OPLS-2005>
-228.776992797852

> <b_mmod_Minimization_Converged-OPLS-2005>
0

> <r_mmod_RMS_Derivative-OPLS-2005>
4.1328592300415

$$$$
63
                    3D
 Structure written by MMmdl.
179188  0  0  1  0            999 V2000
  -30.6172  -14.8057   20.4270 C   0  0  0  0  0  0
  -30.4307  -12.4898   19.4885 C   0  0  0  0  0  0
  -29.5131  -12.5192   18.2466 C   0  0  0  0  0  0
  -28.0386  -12.3437   18.6599 C   0  0  0  0  0  0
  -27.6387  -13.2483   19.8561 C   0  0  2  0  0  0
  -28.6901  -13.2111   20.9872 C   0  0  0  0  0  0
  -25.2496  -13.8232   20.5829 C   0  0  0  0  0  0
  -24.1793  -13.0428   20.9253 C   0  0  0  0  0  0
  -24.6419  -11.6915   20.8781 C   0  0  0  0  0  0
  -23.9113  -10.4269   21.0396 C   0  0  0  0  0  0
  -24.3673   -9.4179   21.9175 C   0  0  0  0  0  0
  -23.6334   -8.2228   22.0749 C   0  0  0  0  0  0
  -22.4308   -8.0295   21.3550 C   0  0  0  0  0  0
  -21.9948   -9.0252   20.4642 C   0  0  0  0  0  0
  -22.7283  -10.2114   20.3035 C   0  0  0  0  0  0
  -21.6861   -6.0745   22.5256 C   0  0  0  0  0  0
  -21.4016   -6.5644   23.8188 C   0  0  0  0  0  0
  -21.3674   -5.6796   24.9155 C   0  0  0  0  0  0
  -21.6048   -4.3050   24.7197 C   0  0  0  0  0  0
  -21.8830   -3.8152   23.4311 C   0  0  0  0  0  0
  -21.9202   -4.6974   22.3372 C   0  0  0  0  0  0
  -22.7806  -13.5177   21.1914 C   0  0  0  0  0  0
  -22.1671   -4.2172   21.0947 F   0  0  0  0  0  0
  -21.5618   -3.4532   25.7708 F   0  0  0  0  0  0
  -29.9844  -13.5759   20.3952 N   0  0  0  0  0  0
  -26.2941  -12.9469   20.3393 N   0  0  0  0  0  0
  -25.9364  -11.6588   20.5823 N   0  0  0  0  0  0
  -22.0523  -12.8112   22.0468 N   0  0  0  0  0  0
  -25.4121  -15.1983   20.4287 N   0  0  0  0  0  0
  -31.8113  -14.8746   20.1180 O   0  0  0  0  0  0
  -21.6651   -6.8903   21.4238 O   0  0  0  0  0  0
  -22.3480  -14.5499   20.6787 O   0  0  0  0  0  0
  -24.6324  -31.8496   23.1936 C   0  0  0  0  0  0
  -25.9127  -32.4737   23.8308 C   0  0  1  0  0  0
  -27.2434  -27.2382   20.1285 C   0  0  0  0  0  0
  -25.5905  -33.8544   24.2222 N   0  0  0  0  0  0
  -23.4322  -30.4659   21.5368 C   0  0  2  0  0  0
  -24.8855  -28.9078   20.1017 C   0  0  0  0  0  0
  -22.7519  -29.4559   22.4915 C   0  0  0  0  0  0
  -18.0284  -28.1420   22.8466 C   0  0  0  0  0  0
  -24.1493  -36.7272   23.2633 C   0  0  0  0  0  0
  -25.9752  -30.7553   21.3757 C   0  0  0  0  0  0
  -26.0518  -29.3754   20.7193 C   0  0  0  0  0  0
  -27.2206  -28.5456   20.7312 C   0  0  0  0  0  0
  -26.0551  -26.8435   19.4738 C   0  0  0  0  0  0
  -24.8935  -27.6504   19.4711 C   0  0  0  0  0  0
  -23.6530  -29.7938   20.1542 C   0  0  0  0  0  0
  -25.4115  -36.3053   24.0305 C   0  0  1  0  0  0
  -20.5883  -28.3726   23.1253 C   0  0  2  0  0  0
  -20.6781  -26.9438   22.5425 C   0  0  0  0  0  0
  -19.5763  -26.6400   21.5219 C   0  0  0  0  0  0
  -18.1928  -26.7955   22.1610 C   0  0  0  0  0  0
  -19.1534  -28.8879   23.2847 C   0  0  0  0  0  0
  -18.9464  -30.1477   23.8883 C   0  0  0  0  0  0
  -17.6461  -30.6603   24.0558 C   0  0  0  0  0  0
  -25.9067  -34.9433   23.5068 C   0  0  0  0  0  0
  -16.5352  -29.9104   23.6333 C   0  0  0  0  0  0
  -16.7264  -28.6523   23.0339 C   0  0  0  0  0  0
  -26.4500  -31.6565   25.0715 C   0  0  0  0  0  0
  -25.3700  -31.3723   26.1410 C   0  0  0  0  0  0
  -27.0336  -30.2970   24.6220 C   0  0  0  0  0  0
  -27.6055  -32.4291   25.7501 C   0  0  0  0  0  0
  -27.5569  -37.1780   24.8439 C   0  0  0  0  0  0
  -21.4225  -29.3037   22.3639 N   0  0  0  0  0  0
  -26.4281  -37.3753   23.9421 N   0  0  0  0  0  0
  -24.6986  -31.0445   22.0918 N   0  0  0  0  0  0
  -23.4186  -28.8126   23.3061 O   0  0  0  0  0  0
  -28.3299  -26.3371   20.3013 O   0  0  0  0  0  0
  -26.5674  -34.8895   22.4677 O   0  0  0  0  0  0
  -23.5456  -32.1362   23.7199 O   0  0  0  0  0  0
  -27.2866  -23.2571   18.6281 C   0  0  0  0  0  0
  -27.1499  -21.9403   18.1553 C   0  0  0  0  0  0
  -28.0601  -20.9412   18.5873 C   0  0  0  0  0  0
  -28.3450  -23.6264   19.4806 C   0  0  0  0  0  0
  -28.9234  -21.2271   19.6821 C   0  0  0  0  0  0
  -32.4027  -18.9149   15.6582 C   0  0  0  0  0  0
  -31.9005  -18.0597   14.5190 C   0  0  0  0  0  0
  -30.9939  -19.0979   15.1412 C   0  0  0  0  0  0
  -26.0863  -21.6656   17.0996 C   0  0  0  0  0  0
  -30.4787  -25.6062   17.4897 C   0  0  0  0  0  0
  -31.3200  -24.6102   19.6475 C   0  0  0  0  0  0
  -28.2479  -19.6824   17.7238 C   0  0  0  0  0  0
  -29.8089  -18.7303   16.0139 C   0  0  0  0  0  0
  -29.3447  -18.7363   20.6394 C   0  0  0  0  0  0
  -30.2993  -17.4414   20.2874 C   0  0  0  0  0  0
  -28.7544  -25.2127   19.3873 C   0  0  2  0  0  0
  -30.2468  -25.5146   19.0107 C   0  0  0  0  0  0
  -29.0839  -22.5716   20.0622 N   0  0  0  0  0  0
  -29.7615  -20.1630   20.2299 N   0  0  0  0  0  0
  -29.8735  -15.9785   20.5711 N   0  0  0  0  0  0
  -29.4317  -19.8770   16.8615 N   0  3  0  0  0  0
  -31.4729  -12.6026   19.1850 H   0  0  0  0  0  0
  -30.3717  -11.5242   19.9922 H   0  0  0  0  0  0
  -29.7985  -11.7364   17.5413 H   0  0  0  0  0  0
  -29.6410  -13.4686   17.7231 H   0  0  0  0  0  0
  -27.8936  -11.2947   18.9239 H   0  0  0  0  0  0
  -27.3833  -12.5406   17.8085 H   0  0  0  0  0  0
  -27.6172  -14.2662   19.4668 H   0  0  0  0  0  0
  -28.7379  -12.2138   21.4252 H   0  0  0  0  0  0
  -28.4288  -13.8974   21.7967 H   0  0  0  0  0  0
  -25.2824   -9.5634   22.4763 H   0  0  0  0  0  0
  -24.0049   -7.4591   22.7434 H   0  0  0  0  0  0
  -21.0910   -8.8735   19.8916 H   0  0  0  0  0  0
  -22.3757  -10.9657   19.6137 H   0  0  0  0  0  0
  -21.1989   -7.6143   23.9710 H   0  0  0  0  0  0
  -21.1511   -6.0511   25.9070 H   0  0  0  0  0  0
  -22.0613   -2.7620   23.2786 H   0  0  0  0  0  0
  -22.4270  -11.9747   22.4720 H   0  0  0  0  0  0
  -21.1119  -13.1009   22.2738 H   0  0  0  0  0  0
  -24.6384  -15.8445   20.5380 H   0  0  0  0  0  0
  -26.2476  -15.6449   20.0701 H   0  0  0  0  0  0
  -26.7204  -32.5372   23.1049 H   0  0  0  0  0  0
  -24.9974  -33.9695   25.0304 H   0  0  0  0  0  0
  -22.7262  -31.2855   21.3882 H   0  0  0  0  0  0
  -23.3766  -35.9587   23.3253 H   0  0  0  0  0  0
  -24.3572  -36.8969   22.2053 H   0  0  0  0  0  0
  -23.7232  -37.6443   23.6718 H   0  0  0  0  0  0
  -26.1057  -31.5125   20.6022 H   0  0  0  0  0  0
  -26.8518  -30.8123   22.0085 H   0  0  0  0  0  0
  -28.1032  -28.8910   21.2510 H   0  0  0  0  0  0
  -25.9847  -25.8733   19.0099 H   0  0  0  0  0  0
  -23.9946  -27.2822   18.9935 H   0  0  0  0  0  0
  -23.7686  -30.5674   19.3948 H   0  0  0  0  0  0
  -22.7734  -29.2228   19.8559 H   0  0  0  0  0  0
  -25.1320  -36.1876   25.0792 H   0  0  0  0  0  0
  -20.9935  -28.3334   24.1383 H   0  0  0  0  0  0
  -20.5672  -26.2363   23.3657 H   0  0  0  0  0  0
  -21.6655  -26.7473   22.1219 H   0  0  0  0  0  0
  -19.6940  -25.6303   21.1269 H   0  0  0  0  0  0
  -19.6708  -27.3206   20.6742 H   0  0  0  0  0  0
  -17.4213  -26.6673   21.4001 H   0  0  0  0  0  0
  -18.0320  -26.0111   22.9020 H   0  0  0  0  0  0
  -19.7933  -30.7290   24.2262 H   0  0  0  0  0  0
  -17.5015  -31.6279   24.5185 H   0  0  0  0  0  0
  -15.5358  -30.3006   23.7680 H   0  0  0  0  0  0
  -15.8656  -28.0850   22.7078 H   0  0  0  0  0  0
  -24.5899  -30.7063   25.7715 H   0  0  0  0  0  0
  -24.8864  -32.2887   26.4793 H   0  0  0  0  0  0
  -25.7975  -30.8916   27.0215 H   0  0  0  0  0  0
  -26.2923  -29.6715   24.1241 H   0  0  0  0  0  0
  -27.3987  -29.7243   25.4755 H   0  0  0  0  0  0
  -27.8813  -30.4218   23.9482 H   0  0  0  0  0  0
  -27.2698  -33.3616   26.2034 H   0  0  0  0  0  0
  -28.3905  -32.6788   25.0362 H   0  0  0  0  0  0
  -28.0669  -31.8434   26.5453 H   0  0  0  0  0  0
  -28.2550  -38.0115   24.7550 H   0  0  0  0  0  0
  -28.1121  -36.2655   24.6209 H   0  0  0  0  0  0
  -27.2302  -37.1334   25.8841 H   0  0  0  0  0  0
  -20.9456  -29.8708   21.6772 H   0  0  0  0  0  0
  -26.0143  -38.2820   24.1466 H   0  0  0  0  0  0
  -26.6697  -24.0195   18.1780 H   0  0  0  0  0  0
  -33.1118  -19.7098   15.4376 H   0  0  0  0  0  0
  -32.5359  -18.4326   16.6246 H   0  0  0  0  0  0
  -31.6952  -17.0112   14.7229 H   0  0  0  0  0  0
  -32.2860  -18.2712   13.5236 H   0  0  0  0  0  0
  -30.8140  -19.9667   14.5099 H   0  0  0  0  0  0
  -25.4400  -22.5291   16.9437 H   0  0  0  0  0  0
  -25.4422  -20.8407   17.4035 H   0  0  0  0  0  0
  -26.5344  -21.4223   16.1367 H   0  0  0  0  0  0
  -31.5212  -25.8316   17.2612 H   0  0  0  0  0  0
  -29.8746  -26.3955   17.0397 H   0  0  0  0  0  0
  -30.2296  -24.6710   16.9888 H   0  0  0  0  0  0
  -32.3203  -25.0139   19.4806 H   0  0  0  0  0  0
  -31.3120  -23.6084   19.2200 H   0  0  0  0  0  0
  -31.1760  -24.5173   20.7250 H   0  0  0  0  0  0
  -27.3877  -19.4850   17.0865 H   0  0  0  0  0  0
  -28.3640  -18.7719   18.2970 H   0  0  0  0  0  0
  -30.0546  -17.8638   16.6314 H   0  0  0  0  0  0
  -28.9707  -18.4513   15.3770 H   0  0  0  0  0  0
  -29.2899  -18.7726   21.7274 H   0  0  0  0  0  0
  -28.3111  -18.5527   20.3506 H   0  0  0  0  0  0
  -31.2547  -17.5843   20.7914 H   0  0  0  0  0  0
  -30.5353  -17.4851   19.2257 H   0  0  0  0  0  0
  -28.2336  -25.5130   18.4808 H   0  0  0  0  0  0
  -30.4574  -26.5205   19.3745 H   0  0  0  0  0  0
  -30.5133  -20.5140   20.8158 H   0  0  0  0  0  0
  -28.8995  -15.8387   20.7860 H   0  0  0  0  0  0
  -30.2182  -20.0991   17.4501 H   0  0  0  0  0  0
  -29.2714  -20.6719   16.2667 H   0  0  0  0  0  0
  1 25  1  0  0  0
  1 30  2  0  0  0
  1 90  1  0  0  0
  2  3  1  0  0  0
  2 25  1  0  0  0
  2 92  1  0  0  0
  2 93  1  0  0  0
  3  4  1  0  0  0
  3 94  1  0  0  0
  3 95  1  0  0  0
  4  5  1  0  0  0
  4 96  1  0  0  0
  4 97  1  0  0  0
  5  6  1  0  0  0
  5 26  1  0  0  0
  5 98  1  0  0  0
  6 25  1  0  0  0
  6 99  1  0  0  0
  6100  1  0  0  0
  7  8  2  0  0  0
  7 26  1  0  0  0
  7 29  1  0  0  0
  8  9  1  0  0  0
  8 22  1  0  0  0
  9 10  1  0  0  0
  9 27  2  0  0  0
 10 11  2  0  0  0
 10 15  1  0  0  0
 11 12  1  0  0  0
 11101  1  0  0  0
 12 13  2  0  0  0
 12102  1  0  0  0
 13 14  1  0  0  0
 13 31  1  0  0  0
 14 15  2  0  0  0
 14103  1  0  0  0
 15104  1  0  0  0
 16 17  2  0  0  0
 16 21  1  0  0  0
 16 31  1  0  0  0
 17 18  1  0  0  0
 17105  1  0  0  0
 18 19  2  0  0  0
 18106  1  0  0  0
 19 20  1  0  0  0
 19 24  1  0  0  0
 20 21  2  0  0  0
 20107  1  0  0  0
 21 23  1  0  0  0
 22 28  1  0  0  0
 22 32  2  0  0  0
 26 27  1  0  0  0
 28108  1  0  0  0
 28109  1  0  0  0
 29110  1  0  0  0
 29111  1  0  0  0
 33 34  1  0  0  0
 33 66  1  0  0  0
 33 70  2  0  0  0
 34 36  1  0  0  0
 34 59  1  0  0  0
 34112  1  0  0  0
 35 44  2  0  0  0
 35 45  1  0  0  0
 35 68  1  0  0  0
 36 56  1  0  0  0
 36113  1  0  0  0
 37 39  1  0  0  0
 37 47  1  0  0  0
 37 66  1  0  0  0
 37114  1  0  0  0
 38 43  2  0  0  0
 38 46  1  0  0  0
 38 47  1  0  0  0
 39 64  1  0  0  0
 39 67  2  0  0  0
 40 52  1  0  0  0
 40 53  2  0  0  0
 40 58  1  0  0  0
 41115  1  0  0  0
 41116  1  0  0  0
 41117  1  0  0  0
 41 48  1  0  0  0
 42 43  1  0  0  0
 42 66  1  0  0  0
 42118  1  0  0  0
 42119  1  0  0  0
 43 44  1  0  0  0
 44120  1  0  0  0
 45 46  2  0  0  0
 45121  1  0  0  0
 46122  1  0  0  0
 47123  1  0  0  0
 47124  1  0  0  0
 48 56  1  0  0  0
 48 65  1  0  0  0
 48125  1  0  0  0
 49 50  1  0  0  0
 49 53  1  0  0  0
 49 64  1  0  0  0
 49126  1  0  0  0
 50 51  1  0  0  0
 50127  1  0  0  0
 50128  1  0  0  0
 51 52  1  0  0  0
 51129  1  0  0  0
 51130  1  0  0  0
 52131  1  0  0  0
 52132  1  0  0  0
 53 54  1  0  0  0
 54 55  2  0  0  0
 54133  1  0  0  0
 55 57  1  0  0  0
 55134  1  0  0  0
 56 69  2  0  0  0
 57 58  2  0  0  0
 57135  1  0  0  0
 58136  1  0  0  0
 59 60  1  0  0  0
 59 61  1  0  0  0
 59 62  1  0  0  0
 60137  1  0  0  0
 60138  1  0  0  0
 60139  1  0  0  0
 61140  1  0  0  0
 61141  1  0  0  0
 61142  1  0  0  0
 62143  1  0  0  0
 62144  1  0  0  0
 62145  1  0  0  0
 63 65  1  0  0  0
 63146  1  0  0  0
 63147  1  0  0  0
 63148  1  0  0  0
 64149  1  0  0  0
 65150  1  0  0  0
 68 86  1  0  0  0
 71 72  2  0  0  0
 71 74  1  0  0  0
 71151  1  0  0  0
 72 73  1  0  0  0
 72 79  1  0  0  0
 73 75  2  0  0  0
 73 82  1  0  0  0
 74 86  1  0  0  0
 74 88  2  0  0  0
 75 88  1  0  0  0
 75 89  1  0  0  0
 76 77  1  0  0  0
 76 78  1  0  0  0
 76152  1  0  0  0
 76153  1  0  0  0
 77 78  1  0  0  0
 77154  1  0  0  0
 77155  1  0  0  0
 78 83  1  0  0  0
 78156  1  0  0  0
 79157  1  0  0  0
 79158  1  0  0  0
 79159  1  0  0  0
 80160  1  0  0  0
 80161  1  0  0  0
 80162  1  0  0  0
 80 87  1  0  0  0
 81 87  1  0  0  0
 81163  1  0  0  0
 81164  1  0  0  0
 81165  1  0  0  0
 82 91  1  0  0  0
 82166  1  0  0  0
 82167  1  0  0  0
 83 91  1  0  0  0
 83168  1  0  0  0
 83169  1  0  0  0
 84 85  1  0  0  0
 84 89  1  0  0  0
 84170  1  0  0  0
 84171  1  0  0  0
 85 90  1  0  0  0
 85172  1  0  0  0
 85173  1  0  0  0
 86 87  1  0  0  0
 86174  1  0  0  0
 87175  1  0  0  0
 89176  1  0  0  0
 90177  1  0  0  0
 91178  1  0  0  0
 91179  1  0  0  0
M  CHG  1  91   1
M  ISO  4   1 100  68 101  86 101  90 100
M  END
> <chiral flag>
0

> <version>
0

> <s_m_source_file>
/data/baiqing/PycharmProjects/Reinvent-master-3.2/result/LINK_invent/BTK/process_docking_weight1_custom_sum_contain_oxygen_bond_distance_aromatic_linkinvent_7_9_3/rearranged_h_0115.sdf

> <i_m_source_file_index>
64

> <r_mmod_Potential_Energy-OPLS-2005>
67.037353515625

> <r_mmod_Stretch_Energy-OPLS-2005>
170.182250976562

> <r_mmod_Bend_Energy-OPLS-2005>
259.817413330078

> <r_mmod_Torsional_Energy-OPLS-2005>
295.415191650391

> <r_mmod_Improper_Torsional_Energy-OPLS-2005>
13.3745002746582

> <r_mmod_Van_der_Waal_Energy-OPLS-2005>
136.124938964844

> <r_mmod_Electrostatic_Energy-OPLS-2005>
-451.572235107422

> <r_mmod_Solvation_Energy-OPLS-2005>
-468.686950683594

> <b_mmod_Minimization_Converged-OPLS-2005>
0

> <r_mmod_RMS_Derivative-OPLS-2005>
4.56406879425049

$$$$
64
                    3D
 Structure written by MMmdl.
174183  0  0  1  0            999 V2000
  -30.6797  -14.4329   20.5583 C   0  0  0  0  0  0
  -30.4364  -12.2768   19.4204 C   0  0  0  0  0  0
  -29.5034  -12.4997   18.2092 C   0  0  0  0  0  0
  -28.0193  -12.3727   18.6145 C   0  0  0  0  0  0
  -27.6719  -13.1926   19.8837 C   0  0  2  0  0  0
  -28.7113  -12.9341   21.0023 C   0  0  0  0  0  0
  -25.2650  -13.8133   20.5687 C   0  0  0  0  0  0
  -24.1863  -13.0445   20.9155 C   0  0  0  0  0  0
  -24.6378  -11.6896   20.8700 C   0  0  0  0  0  0
  -23.9038  -10.4287   21.0374 C   0  0  0  0  0  0
  -24.3589   -9.4210   21.9158 C   0  0  0  0  0  0
  -23.6281   -8.2240   22.0736 C   0  0  0  0  0  0
  -22.4255   -8.0262   21.3532 C   0  0  0  0  0  0
  -21.9881   -9.0234   20.4637 C   0  0  0  0  0  0
  -22.7205  -10.2115   20.3035 C   0  0  0  0  0  0
  -21.6856   -6.0717   22.5268 C   0  0  0  0  0  0
  -21.4012   -6.5630   23.8203 C   0  0  0  0  0  0
  -21.3654   -5.6787   24.9170 C   0  0  0  0  0  0
  -21.6038   -4.3048   24.7219 C   0  0  0  0  0  0
  -21.8822   -3.8136   23.4347 C   0  0  0  0  0  0
  -21.9196   -4.6953   22.3398 C   0  0  0  0  0  0
  -22.7878  -13.5265   21.1812 C   0  0  0  0  0  0
  -22.1669   -4.2143   21.0980 F   0  0  0  0  0  0
  -21.5629   -3.4533   25.7735 F   0  0  0  0  0  0
  -30.0504  -13.2342   20.4651 N   0  0  0  0  0  0
  -26.3069  -12.9270   20.3388 N   0  0  0  0  0  0
  -25.9302  -11.6444   20.5743 N   0  0  0  0  0  0
  -22.0521  -12.8250   22.0377 N   0  0  0  0  0  0
  -25.4462  -15.1847   20.4105 N   0  0  0  0  0  0
  -31.7954  -14.6622   20.0844 O   0  0  0  0  0  0
  -21.6631   -6.8847   21.4230 O   0  0  0  0  0  0
  -22.3573  -14.5563   20.6666 O   0  0  0  0  0  0
  -24.6031  -31.8733   23.2157 C   0  0  0  0  0  0
  -25.8955  -32.4866   23.8423 C   0  0  1  0  0  0
  -27.2627  -27.5077   20.0941 C   0  0  0  0  0  0
  -25.5835  -33.8657   24.2340 N   0  0  0  0  0  0
  -23.3880  -30.4922   21.5538 C   0  0  2  0  0  0
  -24.8397  -28.9619   20.1210 C   0  0  0  0  0  0
  -22.7353  -29.4656   22.5045 C   0  0  0  0  0  0
  -18.0250  -28.1362   22.8499 C   0  0  0  0  0  0
  -24.1476  -36.7335   23.2639 C   0  0  0  0  0  0
  -25.9035  -30.8609   21.3567 C   0  0  0  0  0  0
  -25.9860  -29.4935   20.7211 C   0  0  0  0  0  0
  -27.1896  -28.7696   20.7265 C   0  0  0  0  0  0
  -26.0980  -26.9736   19.5036 C   0  0  0  0  0  0
  -24.8852  -27.6913   19.5164 C   0  0  0  0  0  0
  -23.5941  -29.8158   20.1689 C   0  0  0  0  0  0
  -25.4093  -36.3139   24.0343 C   0  0  1  0  0  0
  -20.5833  -28.3619   23.1359 C   0  0  2  0  0  0
  -20.6728  -26.9364   22.5427 C   0  0  0  0  0  0
  -19.5717  -26.6379   21.5204 C   0  0  0  0  0  0
  -18.1892  -26.7909   22.1620 C   0  0  0  0  0  0
  -19.1497  -28.8809   23.2923 C   0  0  0  0  0  0
  -18.9436  -30.1420   23.8924 C   0  0  0  0  0  0
  -17.6443  -30.6578   24.0560 C   0  0  0  0  0  0
  -25.9011  -34.9508   23.5145 C   0  0  0  0  0  0
  -16.5330  -29.9083   23.6325 C   0  0  0  0  0  0
  -16.7242  -28.6492   23.0354 C   0  0  0  0  0  0
  -26.4421  -31.6641   25.0728 C   0  0  0  0  0  0
  -25.3727  -31.3759   26.1517 C   0  0  0  0  0  0
  -27.0203  -30.3090   24.6034 C   0  0  0  0  0  0
  -27.6020  -32.4352   25.7461 C   0  0  0  0  0  0
  -27.5579  -37.1808   24.8453 C   0  0  0  0  0  0
  -21.4094  -29.3000   22.3788 N   0  0  0  0  0  0
  -26.4283  -37.3816   23.9416 N   0  0  0  0  0  0
  -24.6493  -31.0890   22.1028 N   0  0  0  0  0  0
  -23.4163  -28.8204   23.3064 O   0  0  0  0  0  0
  -28.4196  -26.7688   19.9945 O   0  0  0  0  0  0
  -26.5588  -34.8947   22.4715 O   0  0  0  0  0  0
  -23.5243  -32.1448   23.7600 O   0  0  0  0  0  0
  -31.4525  -22.8089   19.1837 C   0  0  0  0  0  0
  -30.3723  -23.0082   21.4858 C   0  0  0  0  0  0
  -31.8001  -24.3000   19.2477 C   0  0  0  0  0  0
  -30.7282  -24.5061   21.4926 C   0  0  0  0  0  0
  -31.4110  -19.8256   19.3827 C   0  0  0  0  0  0
  -30.0605  -18.6566   21.6198 C   0  0  0  0  0  0
  -31.2910  -22.1447   20.5777 C   0  0  1  0  0  0
  -30.7338  -25.0535   20.0539 C   0  0  1  0  0  0
  -30.7190  -20.7029   20.4496 C   0  0  2  0  0  0
  -30.6153  -17.8054   20.4433 C   0  0  1  0  0  0
  -32.1552  -27.1882   20.4503 C   0  0  0  0  0  0
  -29.7022  -16.6110   20.1049 C   0  0  0  0  0  0
  -29.6287  -27.3281   20.5084 C   0  0  0  0  0  0
  -30.8419  -26.5914   19.9147 C   0  0  2  0  0  0
  -30.6417  -18.5972   19.2140 N   0  0  0  0  0  0
  -29.8740  -15.4301   20.9442 N   0  0  0  0  0  0
  -30.7601  -19.9584   21.7286 N   0  3  0  0  0  0
  -31.4803  -12.3856   19.1189 H   0  0  0  0  0  0
  -30.3464  -11.2582   19.7980 H   0  0  0  0  0  0
  -29.7377  -11.7846   17.4201 H   0  0  0  0  0  0
  -29.6860  -13.4882   17.7859 H   0  0  0  0  0  0
  -27.8120  -11.3162   18.7883 H   0  0  0  0  0  0
  -27.3752  -12.6758   17.7870 H   0  0  0  0  0  0
  -27.7294  -14.2444   19.6024 H   0  0  0  0  0  0
  -28.6744  -11.8889   21.3127 H   0  0  0  0  0  0
  -28.4825  -13.5081   21.9015 H   0  0  0  0  0  0
  -25.2731   -9.5708   22.4743 H   0  0  0  0  0  0
  -23.9998   -7.4636   22.7458 H   0  0  0  0  0  0
  -21.0805   -8.8743   19.8954 H   0  0  0  0  0  0
  -22.3645  -10.9645   19.6144 H   0  0  0  0  0  0
  -21.2008   -7.6131   23.9694 H   0  0  0  0  0  0
  -21.1478   -6.0519   25.9067 H   0  0  0  0  0  0
  -22.0612   -2.7606   23.2844 H   0  0  0  0  0  0
  -22.4101  -11.9883   22.4736 H   0  0  0  0  0  0
  -21.1141  -13.1275   22.2590 H   0  0  0  0  0  0
  -24.6880  -15.8513   20.5059 H   0  0  0  0  0  0
  -26.3058  -15.6089   20.0887 H   0  0  0  0  0  0
  -26.7037  -32.5622   23.1207 H   0  0  0  0  0  0
  -24.9952  -33.9839   25.0460 H   0  0  0  0  0  0
  -22.6716  -31.3043   21.4147 H   0  0  0  0  0  0
  -23.3746  -35.9656   23.3289 H   0  0  0  0  0  0
  -24.3567  -36.8963   22.2053 H   0  0  0  0  0  0
  -23.7220  -37.6534   23.6656 H   0  0  0  0  0  0
  -25.9909  -31.6181   20.5763 H   0  0  0  0  0  0
  -26.8004  -30.9372   21.9583 H   0  0  0  0  0  0
  -28.0456  -29.2125   21.2120 H   0  0  0  0  0  0
  -26.1394  -26.0067   19.0224 H   0  0  0  0  0  0
  -24.0038  -27.2683   19.0542 H   0  0  0  0  0  0
  -23.6903  -30.5840   19.4010 H   0  0  0  0  0  0
  -22.7236  -29.2221   19.8838 H   0  0  0  0  0  0
  -25.1262  -36.2010   25.0837 H   0  0  0  0  0  0
  -20.9922  -28.3158   24.1476 H   0  0  0  0  0  0
  -20.5602  -26.2218   23.3596 H   0  0  0  0  0  0
  -21.6608  -26.7397   22.1239 H   0  0  0  0  0  0
  -19.6870  -25.6296   21.1214 H   0  0  0  0  0  0
  -19.6662  -27.3211   20.6747 H   0  0  0  0  0  0
  -17.4163  -26.6664   21.4019 H   0  0  0  0  0  0
  -18.0294  -26.0038   22.9010 H   0  0  0  0  0  0
  -19.7920  -30.7217   24.2312 H   0  0  0  0  0  0
  -17.5006  -31.6263   24.5155 H   0  0  0  0  0  0
  -15.5330  -30.2990   23.7636 H   0  0  0  0  0  0
  -15.8639  -28.0812   22.7077 H   0  0  0  0  0  0
  -24.5811  -30.7202   25.7873 H   0  0  0  0  0  0
  -24.9025  -32.2941   26.5054 H   0  0  0  0  0  0
  -25.8097  -30.8842   27.0217 H   0  0  0  0  0  0
  -26.2695  -29.6907   24.1101 H   0  0  0  0  0  0
  -27.4004  -29.7274   25.4439 H   0  0  0  0  0  0
  -27.8524  -30.4416   23.9116 H   0  0  0  0  0  0
  -27.2653  -33.3654   26.2048 H   0  0  0  0  0  0
  -28.3805  -32.6915   25.0267 H   0  0  0  0  0  0
  -28.0706  -31.8479   26.5365 H   0  0  0  0  0  0
  -28.2594  -38.0108   24.7527 H   0  0  0  0  0  0
  -28.1072  -36.2646   24.6228 H   0  0  0  0  0  0
  -27.2307  -37.1429   25.8858 H   0  0  0  0  0  0
  -20.9244  -29.8712   21.7011 H   0  0  0  0  0  0
  -26.0180  -38.2892   24.1435 H   0  0  0  0  0  0
  -32.2410  -22.3140   18.6167 H   0  0  0  0  0  0
  -30.5337  -22.6834   18.6094 H   0  0  0  0  0  0
  -29.3382  -22.9125   21.1511 H   0  0  0  0  0  0
  -30.3912  -22.6345   22.5100 H   0  0  0  0  0  0
  -31.8636  -24.7002   18.2349 H   0  0  0  0  0  0
  -32.7865  -24.4298   19.6935 H   0  0  0  0  0  0
  -31.6987  -24.6603   21.9655 H   0  0  0  0  0  0
  -29.9967  -25.0351   22.1041 H   0  0  0  0  0  0
  -32.4486  -19.6098   19.6458 H   0  0  0  0  0  0
  -31.4243  -20.3209   18.4122 H   0  0  0  0  0  0
  -30.1607  -18.1110   22.5585 H   0  0  0  0  0  0
  -28.9936  -18.8459   21.4861 H   0  0  0  0  0  0
  -32.2826  -22.1015   21.0321 H   0  0  0  0  0  0
  -29.7761  -24.7826   19.6064 H   0  0  0  0  0  0
  -29.6703  -20.8058   20.1592 H   0  0  0  0  0  0
  -31.6295  -17.4625   20.6616 H   0  0  0  0  0  0
  -33.0313  -26.7095   20.0127 H   0  0  0  0  0  0
  -32.2259  -27.1011   21.5343 H   0  0  0  0  0  0
  -32.2222  -28.2488   20.2043 H   0  0  0  0  0  0
  -29.8364  -16.3053   19.0629 H   0  0  0  0  0  0
  -28.6564  -16.9163   20.1657 H   0  0  0  0  0  0
  -29.7343  -28.3784   20.2337 H   0  0  0  0  0  0
  -29.6241  -27.2707   21.5981 H   0  0  0  0  0  0
  -30.8232  -26.8047   18.8446 H   0  0  0  0  0  0
  -31.0698  -18.0418   18.4776 H   0  0  0  0  0  0
  -29.0408  -15.1269   21.4276 H   0  0  0  0  0  0
  -31.7198  -19.7922   21.9802 H   0  0  0  0  0  0
  -30.3264  -20.4985   22.4580 H   0  0  0  0  0  0
  1 25  1  0  0  0
  1 30  2  0  0  0
  1 86  1  0  0  0
  2  3  1  0  0  0
  2 25  1  0  0  0
  2 88  1  0  0  0
  2 89  1  0  0  0
  3  4  1  0  0  0
  3 90  1  0  0  0
  3 91  1  0  0  0
  4  5  1  0  0  0
  4 92  1  0  0  0
  4 93  1  0  0  0
  5  6  1  0  0  0
  5 26  1  0  0  0
  5 94  1  0  0  0
  6 25  1  0  0  0
  6 95  1  0  0  0
  6 96  1  0  0  0
  7  8  2  0  0  0
  7 26  1  0  0  0
  7 29  1  0  0  0
  8  9  1  0  0  0
  8 22  1  0  0  0
  9 10  1  0  0  0
  9 27  2  0  0  0
 10 11  2  0  0  0
 10 15  1  0  0  0
 11 12  1  0  0  0
 11 97  1  0  0  0
 12 13  2  0  0  0
 12 98  1  0  0  0
 13 14  1  0  0  0
 13 31  1  0  0  0
 14 15  2  0  0  0
 14 99  1  0  0  0
 15100  1  0  0  0
 16 17  2  0  0  0
 16 21  1  0  0  0
 16 31  1  0  0  0
 17 18  1  0  0  0
 17101  1  0  0  0
 18 19  2  0  0  0
 18102  1  0  0  0
 19 20  1  0  0  0
 19 24  1  0  0  0
 20 21  2  0  0  0
 20103  1  0  0  0
 21 23  1  0  0  0
 22 28  1  0  0  0
 22 32  2  0  0  0
 26 27  1  0  0  0
 28104  1  0  0  0
 28105  1  0  0  0
 29106  1  0  0  0
 29107  1  0  0  0
 33 34  1  0  0  0
 33 66  1  0  0  0
 33 70  2  0  0  0
 34 36  1  0  0  0
 34 59  1  0  0  0
 34108  1  0  0  0
 35 44  2  0  0  0
 35 45  1  0  0  0
 35 68  1  0  0  0
 36 56  1  0  0  0
 36109  1  0  0  0
 37 39  1  0  0  0
 37 47  1  0  0  0
 37 66  1  0  0  0
 37110  1  0  0  0
 38 43  2  0  0  0
 38 46  1  0  0  0
 38 47  1  0  0  0
 39 64  1  0  0  0
 39 67  2  0  0  0
 40 52  1  0  0  0
 40 53  2  0  0  0
 40 58  1  0  0  0
 41111  1  0  0  0
 41112  1  0  0  0
 41113  1  0  0  0
 41 48  1  0  0  0
 42 43  1  0  0  0
 42 66  1  0  0  0
 42114  1  0  0  0
 42115  1  0  0  0
 43 44  1  0  0  0
 44116  1  0  0  0
 45 46  2  0  0  0
 45117  1  0  0  0
 46118  1  0  0  0
 47119  1  0  0  0
 47120  1  0  0  0
 48 56  1  0  0  0
 48 65  1  0  0  0
 48121  1  0  0  0
 49 50  1  0  0  0
 49 53  1  0  0  0
 49 64  1  0  0  0
 49122  1  0  0  0
 50 51  1  0  0  0
 50123  1  0  0  0
 50124  1  0  0  0
 51 52  1  0  0  0
 51125  1  0  0  0
 51126  1  0  0  0
 52127  1  0  0  0
 52128  1  0  0  0
 53 54  1  0  0  0
 54 55  2  0  0  0
 54129  1  0  0  0
 55 57  1  0  0  0
 55130  1  0  0  0
 56 69  2  0  0  0
 57 58  2  0  0  0
 57131  1  0  0  0
 58132  1  0  0  0
 59 60  1  0  0  0
 59 61  1  0  0  0
 59 62  1  0  0  0
 60133  1  0  0  0
 60134  1  0  0  0
 60135  1  0  0  0
 61136  1  0  0  0
 61137  1  0  0  0
 61138  1  0  0  0
 62139  1  0  0  0
 62140  1  0  0  0
 62141  1  0  0  0
 63 65  1  0  0  0
 63142  1  0  0  0
 63143  1  0  0  0
 63144  1  0  0  0
 64145  1  0  0  0
 65146  1  0  0  0
 68 83  1  0  0  0
 71 73  1  0  0  0
 71147  1  0  0  0
 71148  1  0  0  0
 71 77  1  0  0  0
 72 74  1  0  0  0
 72 77  1  0  0  0
 72149  1  0  0  0
 72150  1  0  0  0
 73151  1  0  0  0
 73152  1  0  0  0
 73 78  1  0  0  0
 74 78  1  0  0  0
 74153  1  0  0  0
 74154  1  0  0  0
 75 85  1  0  0  0
 75155  1  0  0  0
 75156  1  0  0  0
 75 79  1  0  0  0
 76 80  1  0  0  0
 76 87  1  0  0  0
 76157  1  0  0  0
 76158  1  0  0  0
 77 79  1  0  0  0
 77159  1  0  0  0
 78 84  1  0  0  0
 78160  1  0  0  0
 79 87  1  0  0  0
 79161  1  0  0  0
 80 82  1  0  0  0
 80 85  1  0  0  0
 80162  1  0  0  0
 81163  1  0  0  0
 81164  1  0  0  0
 81165  1  0  0  0
 81 84  1  0  0  0
 82 86  1  0  0  0
 82166  1  0  0  0
 82167  1  0  0  0
 83 84  1  0  0  0
 83168  1  0  0  0
 83169  1  0  0  0
 84170  1  0  0  0
 85171  1  0  0  0
 86172  1  0  0  0
 87173  1  0  0  0
 87174  1  0  0  0
M  CHG  1  87   1
M  ISO  4   1 100  68 101  83 101  86 100
M  END
> <chiral flag>
0

> <version>
0

> <s_m_source_file>
/data/baiqing/PycharmProjects/Reinvent-master-3.2/result/LINK_invent/BTK/process_docking_weight1_custom_sum_contain_oxygen_bond_distance_aromatic_linkinvent_7_9_3/rearranged_h_0115.sdf

> <i_m_source_file_index>
65

> <r_mmod_Potential_Energy-OPLS-2005>
-145.41276550293

> <r_mmod_Stretch_Energy-OPLS-2005>
34.1074485778809

> <r_mmod_Bend_Energy-OPLS-2005>
110.112480163574

> <r_mmod_Torsional_Energy-OPLS-2005>
273.047271728516

> <r_mmod_Improper_Torsional_Energy-OPLS-2005>
10.3061800003052

> <r_mmod_Van_der_Waal_Energy-OPLS-2005>
160.277755737305

> <r_mmod_Electrostatic_Energy-OPLS-2005>
-298.052703857422

> <r_mmod_Solvation_Energy-OPLS-2005>
-443.603424072266

> <b_mmod_Minimization_Converged-OPLS-2005>
0

> <r_mmod_RMS_Derivative-OPLS-2005>
2.56462478637695

$$$$
65
                    3D
 Structure written by MMmdl.
163171  0  0  1  0            999 V2000
  -30.6463  -14.6509   20.5327 C   0  0  0  0  0  0
  -30.4413  -12.4179   19.4457 C   0  0  0  0  0  0
  -29.5114  -12.5115   18.2173 C   0  0  0  0  0  0
  -28.0356  -12.3386   18.6333 C   0  0  0  0  0  0
  -27.6503  -13.2175   19.8541 C   0  0  2  0  0  0
  -28.6931  -13.0985   20.9864 C   0  0  0  0  0  0
  -25.2543  -13.8158   20.5653 C   0  0  0  0  0  0
  -24.1801  -13.0430   20.9148 C   0  0  0  0  0  0
  -24.6358  -11.6900   20.8693 C   0  0  0  0  0  0
  -23.9023  -10.4296   21.0392 C   0  0  0  0  0  0
  -24.3581   -9.4221   21.9180 C   0  0  0  0  0  0
  -23.6253   -8.2254   22.0769 C   0  0  0  0  0  0
  -22.4232   -8.0277   21.3555 C   0  0  0  0  0  0
  -21.9861   -9.0252   20.4659 C   0  0  0  0  0  0
  -22.7195  -10.2127   20.3048 C   0  0  0  0  0  0
  -21.6853   -6.0704   22.5264 C   0  0  0  0  0  0
  -21.4040   -6.5617   23.8192 C   0  0  0  0  0  0
  -21.3655   -5.6772   24.9158 C   0  0  0  0  0  0
  -21.6037   -4.3034   24.7218 C   0  0  0  0  0  0
  -21.8823   -3.8123   23.4343 C   0  0  0  0  0  0
  -21.9201   -4.6934   22.3400 C   0  0  0  0  0  0
  -22.7828  -13.5248   21.1796 C   0  0  0  0  0  0
  -22.1666   -4.2120   21.0973 F   0  0  0  0  0  0
  -21.5621   -3.4513   25.7736 F   0  0  0  0  0  0
  -30.0052  -13.4437   20.4129 N   0  0  0  0  0  0
  -26.2957  -12.9335   20.3242 N   0  0  0  0  0  0
  -25.9286  -11.6488   20.5685 N   0  0  0  0  0  0
  -22.0443  -12.8287   22.0350 N   0  0  0  0  0  0
  -25.4252  -15.1888   20.4102 N   0  0  0  0  0  0
  -31.8194  -14.7879   20.1828 O   0  0  0  0  0  0
  -21.6628   -6.8854   21.4224 O   0  0  0  0  0  0
  -22.3546  -14.5566   20.6641 O   0  0  0  0  0  0
  -24.6219  -31.8598   23.2002 C   0  0  0  0  0  0
  -25.9072  -32.4776   23.8330 C   0  0  1  0  0  0
  -27.2549  -27.3275   20.1555 C   0  0  0  0  0  0
  -25.5895  -33.8584   24.2275 N   0  0  0  0  0  0
  -23.4184  -30.4768   21.5391 C   0  0  2  0  0  0
  -24.8746  -28.9218   20.1187 C   0  0  0  0  0  0
  -22.7455  -29.4618   22.4925 C   0  0  0  0  0  0
  -18.0282  -28.1388   22.8488 C   0  0  0  0  0  0
  -24.1493  -36.7287   23.2642 C   0  0  0  0  0  0
  -25.9533  -30.7974   21.3696 C   0  0  0  0  0  0
  -26.0340  -29.4201   20.7230 C   0  0  0  0  0  0
  -27.2210  -28.6360   20.7262 C   0  0  0  0  0  0
  -26.0701  -26.8687   19.5318 C   0  0  0  0  0  0
  -24.8931  -27.6505   19.5184 C   0  0  0  0  0  0
  -23.6387  -29.7988   20.1585 C   0  0  0  0  0  0
  -25.4121  -36.3082   24.0330 C   0  0  1  0  0  0
  -20.5880  -28.3694   23.1291 C   0  0  2  0  0  0
  -20.6774  -26.9415   22.5417 C   0  0  0  0  0  0
  -19.5752  -26.6393   21.5211 C   0  0  0  0  0  0
  -18.1929  -26.7936   22.1621 C   0  0  0  0  0  0
  -19.1536  -28.8856   23.2888 C   0  0  0  0  0  0
  -18.9464  -30.1456   23.8907 C   0  0  0  0  0  0
  -17.6465  -30.6592   24.0567 C   0  0  0  0  0  0
  -25.9045  -34.9445   23.5106 C   0  0  0  0  0  0
  -16.5356  -29.9094   23.6331 C   0  0  0  0  0  0
  -16.7270  -28.6514   23.0352 C   0  0  0  0  0  0
  -26.4484  -31.6583   25.0685 C   0  0  0  0  0  0
  -25.3727  -31.3715   26.1419 C   0  0  0  0  0  0
  -27.0327  -30.3008   24.6120 C   0  0  0  0  0  0
  -27.6061  -32.4304   25.7448 C   0  0  0  0  0  0
  -27.5582  -37.1794   24.8468 C   0  0  0  0  0  0
  -21.4168  -29.3042   22.3678 N   0  0  0  0  0  0
  -26.4296  -37.3769   23.9400 N   0  0  0  0  0  0
  -24.6823  -31.0615   22.0942 N   0  0  0  0  0  0
  -23.4181  -28.8174   23.3019 O   0  0  0  0  0  0
  -28.4373  -26.5721   20.2093 O   0  0  0  0  0  0
  -26.5620  -34.8919   22.4678 O   0  0  0  0  0  0
  -23.5386  -32.1389   23.7335 O   0  0  0  0  0  0
  -30.3424  -18.3445   20.4861 C   0  0  0  0  0  0
  -28.5264  -24.3367   21.4765 C   0  0  0  0  0  0
  -28.7645  -22.7707   21.3771 C   0  0  0  0  0  0
  -29.8428  -24.7267   19.4001 C   0  0  0  0  0  0
  -28.5099  -25.0928   20.1168 C   0  0  2  0  0  0
  -29.6716  -22.2800   20.1979 C   0  0  2  0  0  0
  -31.3634  -17.0250   22.4724 C   0  0  0  0  0  0
  -31.6736  -23.1654   18.9062 C   0  0  0  0  0  0
  -30.5227  -20.9157   20.4082 C   0  0  0  0  0  0
  -30.2130  -17.0952   21.4482 C   0  0  2  0  0  0
  -29.9629  -19.6015   20.9045 N   0  0  0  0  0  0
  -29.8760  -15.7180   20.9214 N   0  0  0  0  0  0
  -30.5449  -23.4552   19.8241 N   0  3  1  0  0  0
  -30.8873  -18.1737   19.3951 O   0  0  0  0  0  0
  -31.4834  -12.5491   19.1453 H   0  0  0  0  0  0
  -30.3868  -11.4257   19.8979 H   0  0  0  0  0  0
  -29.7840  -11.7511   17.4818 H   0  0  0  0  0  0
  -29.6415  -13.4779   17.7237 H   0  0  0  0  0  0
  -27.8843  -11.2867   18.8771 H   0  0  0  0  0  0
  -27.3783  -12.5561   17.7911 H   0  0  0  0  0  0
  -27.6624  -14.2483   19.4989 H   0  0  0  0  0  0
  -28.7093  -12.0869   21.3947 H   0  0  0  0  0  0
  -28.4259  -13.7458   21.8236 H   0  0  0  0  0  0
  -25.2736   -9.5698   22.4746 H   0  0  0  0  0  0
  -23.9960   -7.4653   22.7501 H   0  0  0  0  0  0
  -21.0787   -8.8767   19.8977 H   0  0  0  0  0  0
  -22.3654  -10.9653   19.6155 H   0  0  0  0  0  0
  -21.2056   -7.6129   23.9689 H   0  0  0  0  0  0
  -21.1463   -6.0502   25.9056 H   0  0  0  0  0  0
  -22.0610   -2.7581   23.2841 H   0  0  0  0  0  0
  -22.4031  -11.9997   22.4822 H   0  0  0  0  0  0
  -21.1074  -13.1399   22.2515 H   0  0  0  0  0  0
  -24.6497  -15.8351   20.5144 H   0  0  0  0  0  0
  -26.2619  -15.6320   20.0562 H   0  0  0  0  0  0
  -26.7132  -32.5469   23.1081 H   0  0  0  0  0  0
  -25.0024  -33.9725   25.0401 H   0  0  0  0  0  0
  -22.7101  -31.2947   21.3875 H   0  0  0  0  0  0
  -23.3751  -35.9619   23.3318 H   0  0  0  0  0  0
  -24.3580  -36.8893   22.2049 H   0  0  0  0  0  0
  -23.7252  -37.6496   23.6656 H   0  0  0  0  0  0
  -26.0778  -31.5580   20.5978 H   0  0  0  0  0  0
  -26.8357  -30.8543   21.9955 H   0  0  0  0  0  0
  -28.1135  -29.0195   21.2017 H   0  0  0  0  0  0
  -26.0240  -25.9030   19.0532 H   0  0  0  0  0  0
  -24.0012  -27.2602   19.0489 H   0  0  0  0  0  0
  -23.7581  -30.5682   19.3951 H   0  0  0  0  0  0
  -22.7622  -29.2219   19.8595 H   0  0  0  0  0  0
  -25.1301  -36.1933   25.0819 H   0  0  0  0  0  0
  -20.9975  -28.3273   24.1412 H   0  0  0  0  0  0
  -20.5677  -26.2292   23.3614 H   0  0  0  0  0  0
  -21.6646  -26.7451   22.1210 H   0  0  0  0  0  0
  -19.6917  -25.6304   21.1236 H   0  0  0  0  0  0
  -19.6696  -27.3209   20.6742 H   0  0  0  0  0  0
  -17.4199  -26.6692   21.4019 H   0  0  0  0  0  0
  -18.0330  -26.0076   22.9016 H   0  0  0  0  0  0
  -19.7938  -30.7272   24.2285 H   0  0  0  0  0  0
  -17.5021  -31.6276   24.5167 H   0  0  0  0  0  0
  -15.5357  -30.3006   23.7649 H   0  0  0  0  0  0
  -15.8670  -28.0834   22.7072 H   0  0  0  0  0  0
  -24.5893  -30.7079   25.7743 H   0  0  0  0  0  0
  -24.8922  -32.2879   26.4850 H   0  0  0  0  0  0
  -25.8045  -30.8877   27.0187 H   0  0  0  0  0  0
  -26.2884  -29.6743   24.1188 H   0  0  0  0  0  0
  -27.4094  -29.7277   25.4604 H   0  0  0  0  0  0
  -27.8724  -30.4307   23.9290 H   0  0  0  0  0  0
  -27.2699  -33.3628   26.2001 H   0  0  0  0  0  0
  -28.3877  -32.6824   25.0265 H   0  0  0  0  0  0
  -28.0718  -31.8431   26.5372 H   0  0  0  0  0  0
  -28.2611  -38.0081   24.7499 H   0  0  0  0  0  0
  -28.1068  -36.2609   24.6316 H   0  0  0  0  0  0
  -27.2290  -37.1472   25.8870 H   0  0  0  0  0  0
  -20.9345  -29.8736   21.6866 H   0  0  0  0  0  0
  -26.0188  -38.2844   24.1389 H   0  0  0  0  0  0
  -29.3347  -24.7673   22.0720 H   0  0  0  0  0  0
  -27.6190  -24.5481   22.0409 H   0  0  0  0  0  0
  -27.8029  -22.2594   21.3062 H   0  0  0  0  0  0
  -29.1927  -22.4363   22.3243 H   0  0  0  0  0  0
  -30.5529  -25.5312   19.6010 H   0  0  0  0  0  0
  -29.6813  -24.7353   18.3228 H   0  0  0  0  0  0
  -27.6935  -24.6912   19.5195 H   0  0  0  0  0  0
  -29.0216  -22.1095   19.3369 H   0  0  0  0  0  0
  -31.5160  -17.9784   22.9802 H   0  0  0  0  0  0
  -32.3062  -16.7624   21.9910 H   0  0  0  0  0  0
  -31.1679  -16.2803   23.2450 H   0  0  0  0  0  0
  -32.2298  -24.0752   18.6782 H   0  0  0  0  0  0
  -31.3182  -22.7486   17.9641 H   0  0  0  0  0  0
  -32.3991  -22.4793   19.3446 H   0  0  0  0  0  0
  -31.3447  -21.1447   21.0882 H   0  0  0  0  0  0
  -31.0015  -20.6935   19.4550 H   0  0  0  0  0  0
  -29.3291  -17.3352   22.0386 H   0  0  0  0  0  0
  -29.4930  -19.6405   21.8010 H   0  0  0  0  0  0
  -28.9012  -15.4856   21.0232 H   0  0  0  0  0  0
  -30.9964  -23.6969   20.6948 H   0  0  0  0  0  0
  1 25  1  0  0  0
  1 30  2  0  0  0
  1 82  1  0  0  0
  2  3  1  0  0  0
  2 25  1  0  0  0
  2 85  1  0  0  0
  2 86  1  0  0  0
  3  4  1  0  0  0
  3 87  1  0  0  0
  3 88  1  0  0  0
  4  5  1  0  0  0
  4 89  1  0  0  0
  4 90  1  0  0  0
  5  6  1  0  0  0
  5 26  1  0  0  0
  5 91  1  0  0  0
  6 25  1  0  0  0
  6 92  1  0  0  0
  6 93  1  0  0  0
  7  8  2  0  0  0
  7 26  1  0  0  0
  7 29  1  0  0  0
  8  9  1  0  0  0
  8 22  1  0  0  0
  9 10  1  0  0  0
  9 27  2  0  0  0
 10 11  2  0  0  0
 10 15  1  0  0  0
 11 12  1  0  0  0
 11 94  1  0  0  0
 12 13  2  0  0  0
 12 95  1  0  0  0
 13 14  1  0  0  0
 13 31  1  0  0  0
 14 15  2  0  0  0
 14 96  1  0  0  0
 15 97  1  0  0  0
 16 17  2  0  0  0
 16 21  1  0  0  0
 16 31  1  0  0  0
 17 18  1  0  0  0
 17 98  1  0  0  0
 18 19  2  0  0  0
 18 99  1  0  0  0
 19 20  1  0  0  0
 19 24  1  0  0  0
 20 21  2  0  0  0
 20100  1  0  0  0
 21 23  1  0  0  0
 22 28  1  0  0  0
 22 32  2  0  0  0
 26 27  1  0  0  0
 28101  1  0  0  0
 28102  1  0  0  0
 29103  1  0  0  0
 29104  1  0  0  0
 33 34  1  0  0  0
 33 66  1  0  0  0
 33 70  2  0  0  0
 34 36  1  0  0  0
 34 59  1  0  0  0
 34105  1  0  0  0
 35 44  2  0  0  0
 35 45  1  0  0  0
 35 68  1  0  0  0
 36 56  1  0  0  0
 36106  1  0  0  0
 37 39  1  0  0  0
 37 47  1  0  0  0
 37 66  1  0  0  0
 37107  1  0  0  0
 38 43  2  0  0  0
 38 46  1  0  0  0
 38 47  1  0  0  0
 39 64  1  0  0  0
 39 67  2  0  0  0
 40 52  1  0  0  0
 40 53  2  0  0  0
 40 58  1  0  0  0
 41108  1  0  0  0
 41109  1  0  0  0
 41110  1  0  0  0
 41 48  1  0  0  0
 42 43  1  0  0  0
 42 66  1  0  0  0
 42111  1  0  0  0
 42112  1  0  0  0
 43 44  1  0  0  0
 44113  1  0  0  0
 45 46  2  0  0  0
 45114  1  0  0  0
 46115  1  0  0  0
 47116  1  0  0  0
 47117  1  0  0  0
 48 56  1  0  0  0
 48 65  1  0  0  0
 48118  1  0  0  0
 49 50  1  0  0  0
 49 53  1  0  0  0
 49 64  1  0  0  0
 49119  1  0  0  0
 50 51  1  0  0  0
 50120  1  0  0  0
 50121  1  0  0  0
 51 52  1  0  0  0
 51122  1  0  0  0
 51123  1  0  0  0
 52124  1  0  0  0
 52125  1  0  0  0
 53 54  1  0  0  0
 54 55  2  0  0  0
 54126  1  0  0  0
 55 57  1  0  0  0
 55127  1  0  0  0
 56 69  2  0  0  0
 57 58  2  0  0  0
 57128  1  0  0  0
 58129  1  0  0  0
 59 60  1  0  0  0
 59 61  1  0  0  0
 59 62  1  0  0  0
 60130  1  0  0  0
 60131  1  0  0  0
 60132  1  0  0  0
 61133  1  0  0  0
 61134  1  0  0  0
 61135  1  0  0  0
 62136  1  0  0  0
 62137  1  0  0  0
 62138  1  0  0  0
 63 65  1  0  0  0
 63139  1  0  0  0
 63140  1  0  0  0
 63141  1  0  0  0
 64142  1  0  0  0
 65143  1  0  0  0
 68 75  1  0  0  0
 71 80  1  0  0  0
 71 81  1  0  0  0
 71 84  2  0  0  0
 72 73  1  0  0  0
 72 75  1  0  0  0
 72144  1  0  0  0
 72145  1  0  0  0
 73 76  1  0  0  0
 73146  1  0  0  0
 73147  1  0  0  0
 74 75  1  0  0  0
 74 83  1  0  0  0
 74148  1  0  0  0
 74149  1  0  0  0
 75150  1  0  0  0
 76 79  1  0  0  0
 76 83  1  0  0  0
 76151  1  0  0  0
 77152  1  0  0  0
 77153  1  0  0  0
 77154  1  0  0  0
 77 80  1  0  0  0
 78155  1  0  0  0
 78156  1  0  0  0
 78157  1  0  0  0
 78 83  1  0  0  0
 79 81  1  0  0  0
 79158  1  0  0  0
 79159  1  0  0  0
 80 82  1  0  0  0
 80160  1  0  0  0
 81161  1  0  0  0
 82162  1  0  0  0
 83163  1  0  0  0
M  CHG  1  83   1
M  ISO  4   1 100  68 101  75 101  82 100
M  END
> <chiral flag>
0

> <version>
0

> <s_m_source_file>
/data/baiqing/PycharmProjects/Reinvent-master-3.2/result/LINK_invent/BTK/process_docking_weight1_custom_sum_contain_oxygen_bond_distance_aromatic_linkinvent_7_9_3/rearranged_h_0115.sdf

> <i_m_source_file_index>
66

> <r_mmod_Potential_Energy-OPLS-2005>
-100.018615722656

> <r_mmod_Stretch_Energy-OPLS-2005>
90.0008316040039

> <r_mmod_Bend_Energy-OPLS-2005>
187.25505065918

> <r_mmod_Torsional_Energy-OPLS-2005>
277.873229980469

> <r_mmod_Improper_Torsional_Energy-OPLS-2005>
5.26434230804443

> <r_mmod_Van_der_Waal_Energy-OPLS-2005>
131.19221496582

> <r_mmod_Electrostatic_Energy-OPLS-2005>
-360.264404296875

> <r_mmod_Solvation_Energy-OPLS-2005>
-479.275207519531

> <b_mmod_Minimization_Converged-OPLS-2005>
0

> <r_mmod_RMS_Derivative-OPLS-2005>
3.44330358505249

$$$$
66
                    3D
 Structure written by MMmdl.
156164  0  0  1  0            999 V2000
  -30.6941  -14.4731   20.5967 C   0  0  0  0  0  0
  -30.4250  -12.3149   19.4204 C   0  0  0  0  0  0
  -29.4962  -12.5131   18.2055 C   0  0  0  0  0  0
  -28.0175  -12.3646   18.6178 C   0  0  0  0  0  0
  -27.6607  -13.2033   19.8739 C   0  0  2  0  0  0
  -28.6999  -12.9795   20.9941 C   0  0  0  0  0  0
  -25.2588  -13.8144   20.5672 C   0  0  0  0  0  0
  -24.1836  -13.0429   20.9169 C   0  0  0  0  0  0
  -24.6392  -11.6895   20.8727 C   0  0  0  0  0  0
  -23.9063  -10.4284   21.0400 C   0  0  0  0  0  0
  -24.3614   -9.4202   21.9181 C   0  0  0  0  0  0
  -23.6285   -8.2238   22.0753 C   0  0  0  0  0  0
  -22.4267   -8.0276   21.3545 C   0  0  0  0  0  0
  -21.9910   -9.0249   20.4647 C   0  0  0  0  0  0
  -22.7240  -10.2126   20.3048 C   0  0  0  0  0  0
  -21.6854   -6.0734   22.5279 C   0  0  0  0  0  0
  -21.4022   -6.5641   23.8211 C   0  0  0  0  0  0
  -21.3655   -5.6792   24.9171 C   0  0  0  0  0  0
  -21.6042   -4.3054   24.7222 C   0  0  0  0  0  0
  -21.8823   -3.8146   23.4342 C   0  0  0  0  0  0
  -21.9192   -4.6962   22.3398 C   0  0  0  0  0  0
  -22.7862  -13.5230   21.1839 C   0  0  0  0  0  0
  -22.1664   -4.2145   21.0977 F   0  0  0  0  0  0
  -21.5623   -3.4536   25.7737 F   0  0  0  0  0  0
  -30.0298  -13.2951   20.4434 N   0  0  0  0  0  0
  -26.3015  -12.9310   20.3343 N   0  0  0  0  0  0
  -25.9313  -11.6473   20.5741 N   0  0  0  0  0  0
  -22.0511  -12.8206   22.0393 N   0  0  0  0  0  0
  -25.4335  -15.1860   20.4104 N   0  0  0  0  0  0
  -31.8140  -14.6804   20.1212 O   0  0  0  0  0  0
  -21.6636   -6.8871   21.4240 O   0  0  0  0  0  0
  -22.3550  -14.5549   20.6700 O   0  0  0  0  0  0
  -24.6166  -31.8672   23.2092 C   0  0  0  0  0  0
  -25.9047  -32.4818   23.8390 C   0  0  1  0  0  0
  -27.2322  -27.4168   20.0972 C   0  0  0  0  0  0
  -25.5905  -33.8611   24.2328 N   0  0  0  0  0  0
  -23.4042  -30.4934   21.5497 C   0  0  2  0  0  0
  -24.8504  -28.9596   20.1142 C   0  0  0  0  0  0
  -22.7402  -29.4677   22.4968 C   0  0  0  0  0  0
  -18.0272  -28.1374   22.8494 C   0  0  0  0  0  0
  -24.1478  -36.7294   23.2645 C   0  0  0  0  0  0
  -25.9356  -30.8304   21.3629 C   0  0  0  0  0  0
  -26.0134  -29.4637   20.7089 C   0  0  0  0  0  0
  -27.2067  -28.7011   20.6951 C   0  0  0  0  0  0
  -26.0482  -26.9382   19.4870 C   0  0  0  0  0  0
  -24.8641  -27.6971   19.4998 C   0  0  0  0  0  0
  -23.6132  -29.8271   20.1648 C   0  0  0  0  0  0
  -25.4100  -36.3099   24.0346 C   0  0  1  0  0  0
  -20.5863  -28.3658   23.1301 C   0  0  2  0  0  0
  -20.6755  -26.9389   22.5411 C   0  0  0  0  0  0
  -19.5736  -26.6380   21.5207 C   0  0  0  0  0  0
  -18.1914  -26.7926   22.1612 C   0  0  0  0  0  0
  -19.1521  -28.8831   23.2906 C   0  0  0  0  0  0
  -18.9463  -30.1444   23.8909 C   0  0  0  0  0  0
  -17.6468  -30.6589   24.0561 C   0  0  0  0  0  0
  -25.9028  -34.9470   23.5130 C   0  0  0  0  0  0
  -16.5352  -29.9096   23.6325 C   0  0  0  0  0  0
  -16.7262  -28.6503   23.0354 C   0  0  0  0  0  0
  -26.4482  -31.6595   25.0711 C   0  0  0  0  0  0
  -25.3756  -31.3697   26.1464 C   0  0  0  0  0  0
  -27.0319  -30.3045   24.6068 C   0  0  0  0  0  0
  -27.6049  -32.4324   25.7475 C   0  0  0  0  0  0
  -27.5569  -37.1797   24.8473 C   0  0  0  0  0  0
  -21.4125  -29.3045   22.3709 N   0  0  0  0  0  0
  -26.4279  -37.3788   23.9422 N   0  0  0  0  0  0
  -24.6705  -31.0772   22.0996 N   0  0  0  0  0  0
  -23.4177  -28.8210   23.3001 O   0  0  0  0  0  0
  -28.3927  -26.6599   20.1280 O   0  0  0  0  0  0
  -26.5585  -34.8925   22.4692 O   0  0  0  0  0  0
  -23.5350  -32.1422   23.7484 O   0  0  0  0  0  0
  -28.2814  -22.2532   19.8905 C   0  0  0  0  0  0
  -28.1993  -20.8442   19.9116 C   0  0  0  0  0  0
  -29.3903  -22.9135   20.4721 C   0  0  0  0  0  0
  -30.3837  -22.0651   21.0463 C   0  0  0  0  0  0
  -29.2340  -20.0982   20.4960 C   0  0  0  0  0  0
  -29.4739  -24.4313   20.4444 C   0  0  0  0  0  0
  -31.6324  -22.5888   21.7370 C   0  0  0  0  0  0
  -28.2342  -25.2296   19.9720 C   0  0  0  0  0  0
  -30.3270  -17.8394   20.4089 C   0  0  0  0  0  0
  -30.4717  -16.8021   21.5528 C   0  0  0  0  0  0
  -30.3012  -20.7056   21.0477 N   0  0  0  0  0  0
  -29.1414  -18.6952   20.5470 N   0  0  0  0  0  0
  -30.0031  -15.4489   21.2146 N   0  0  0  0  0  0
  -30.4811  -25.0621   20.7786 O   0  0  0  0  0  0
  -31.4696  -12.4196   19.1225 H   0  0  0  0  0  0
  -30.3284  -11.3017   19.8144 H   0  0  0  0  0  0
  -29.7413  -11.7965   17.4213 H   0  0  0  0  0  0
  -29.6578  -13.5024   17.7754 H   0  0  0  0  0  0
  -27.8346  -11.3080   18.8163 H   0  0  0  0  0  0
  -27.3645  -12.6344   17.7868 H   0  0  0  0  0  0
  -27.7071  -14.2516   19.5784 H   0  0  0  0  0  0
  -28.6785  -11.9408   21.3278 H   0  0  0  0  0  0
  -28.4531  -13.5680   21.8785 H   0  0  0  0  0  0
  -25.2762   -9.5671   22.4753 H   0  0  0  0  0  0
  -23.9994   -7.4629   22.7474 H   0  0  0  0  0  0
  -21.0843   -8.8766   19.8950 H   0  0  0  0  0  0
  -22.3707  -10.9657   19.6148 H   0  0  0  0  0  0
  -21.2026   -7.6150   23.9713 H   0  0  0  0  0  0
  -21.1476   -6.0523   25.9072 H   0  0  0  0  0  0
  -22.0606   -2.7606   23.2842 H   0  0  0  0  0  0
  -22.4128  -11.9848   22.4740 H   0  0  0  0  0  0
  -21.1133  -13.1223   22.2613 H   0  0  0  0  0  0
  -24.6736  -15.8468   20.5309 H   0  0  0  0  0  0
  -26.2905  -15.6215   20.0938 H   0  0  0  0  0  0
  -26.7105  -32.5517   23.1137 H   0  0  0  0  0  0
  -25.0085  -33.9781   25.0495 H   0  0  0  0  0  0
  -22.6956  -31.3120   21.4086 H   0  0  0  0  0  0
  -23.3748  -35.9622   23.3323 H   0  0  0  0  0  0
  -24.3572  -36.8886   22.2058 H   0  0  0  0  0  0
  -23.7231  -37.6503   23.6644 H   0  0  0  0  0  0
  -26.0501  -31.5956   20.5939 H   0  0  0  0  0  0
  -26.8239  -30.8838   21.9802 H   0  0  0  0  0  0
  -28.1042  -29.0889   21.1579 H   0  0  0  0  0  0
  -26.0141  -25.9780   18.9936 H   0  0  0  0  0  0
  -23.9701  -27.3044   19.0355 H   0  0  0  0  0  0
  -23.7230  -30.6024   19.4057 H   0  0  0  0  0  0
  -22.7369  -29.2480   19.8662 H   0  0  0  0  0  0
  -25.1280  -36.1952   25.0838 H   0  0  0  0  0  0
  -20.9968  -28.3216   24.1415 H   0  0  0  0  0  0
  -20.5632  -26.2264   23.3597 H   0  0  0  0  0  0
  -21.6626  -26.7411   22.1212 H   0  0  0  0  0  0
  -19.6890  -25.6299   21.1220 H   0  0  0  0  0  0
  -19.6681  -27.3200   20.6751 H   0  0  0  0  0  0
  -17.4180  -26.6686   21.4012 H   0  0  0  0  0  0
  -18.0303  -26.0072   22.9007 H   0  0  0  0  0  0
  -19.7956  -30.7256   24.2264 H   0  0  0  0  0  0
  -17.5041  -31.6269   24.5166 H   0  0  0  0  0  0
  -15.5361  -30.3013   23.7665 H   0  0  0  0  0  0
  -15.8656  -28.0843   22.7069 H   0  0  0  0  0  0
  -24.5949  -30.7008   25.7822 H   0  0  0  0  0  0
  -24.8929  -32.2851   26.4891 H   0  0  0  0  0  0
  -25.8144  -30.8899   27.0226 H   0  0  0  0  0  0
  -26.2846  -29.6790   24.1170 H   0  0  0  0  0  0
  -27.4170  -29.7282   25.4494 H   0  0  0  0  0  0
  -27.8644  -30.4390   23.9162 H   0  0  0  0  0  0
  -27.2658  -33.3626   26.2052 H   0  0  0  0  0  0
  -28.3868  -32.6887   25.0311 H   0  0  0  0  0  0
  -28.0708  -31.8448   26.5397 H   0  0  0  0  0  0
  -28.2600  -38.0078   24.7511 H   0  0  0  0  0  0
  -28.1048  -36.2615   24.6306 H   0  0  0  0  0  0
  -27.2288  -37.1460   25.8874 H   0  0  0  0  0  0
  -20.9264  -29.8787   21.6961 H   0  0  0  0  0  0
  -26.0160  -38.2858   24.1445 H   0  0  0  0  0  0
  -27.4789  -22.8011   19.4199 H   0  0  0  0  0  0
  -27.3395  -20.3587   19.4705 H   0  0  0  0  0  0
  -31.3680  -23.2695   22.5459 H   0  0  0  0  0  0
  -32.2722  -23.1159   21.0291 H   0  0  0  0  0  0
  -32.2222  -21.7813   22.1730 H   0  0  0  0  0  0
  -27.3769  -24.8879   20.5540 H   0  0  0  0  0  0
  -28.0478  -24.9998   18.9227 H   0  0  0  0  0  0
  -30.3019  -17.3430   19.4379 H   0  0  0  0  0  0
  -31.2245  -18.4582   20.3924 H   0  0  0  0  0  0
  -29.9635  -17.1432   22.4556 H   0  0  0  0  0  0
  -31.5255  -16.7329   21.8292 H   0  0  0  0  0  0
  -28.2974  -18.3089   20.1391 H   0  0  0  0  0  0
  -29.0765  -15.2032   21.5292 H   0  0  0  0  0  0
  1 25  1  0  0  0
  1 30  2  0  0  0
  1 83  1  0  0  0
  2  3  1  0  0  0
  2 25  1  0  0  0
  2 85  1  0  0  0
  2 86  1  0  0  0
  3  4  1  0  0  0
  3 87  1  0  0  0
  3 88  1  0  0  0
  4  5  1  0  0  0
  4 89  1  0  0  0
  4 90  1  0  0  0
  5  6  1  0  0  0
  5 26  1  0  0  0
  5 91  1  0  0  0
  6 25  1  0  0  0
  6 92  1  0  0  0
  6 93  1  0  0  0
  7  8  2  0  0  0
  7 26  1  0  0  0
  7 29  1  0  0  0
  8  9  1  0  0  0
  8 22  1  0  0  0
  9 10  1  0  0  0
  9 27  2  0  0  0
 10 11  2  0  0  0
 10 15  1  0  0  0
 11 12  1  0  0  0
 11 94  1  0  0  0
 12 13  2  0  0  0
 12 95  1  0  0  0
 13 14  1  0  0  0
 13 31  1  0  0  0
 14 15  2  0  0  0
 14 96  1  0  0  0
 15 97  1  0  0  0
 16 17  2  0  0  0
 16 21  1  0  0  0
 16 31  1  0  0  0
 17 18  1  0  0  0
 17 98  1  0  0  0
 18 19  2  0  0  0
 18 99  1  0  0  0
 19 20  1  0  0  0
 19 24  1  0  0  0
 20 21  2  0  0  0
 20100  1  0  0  0
 21 23  1  0  0  0
 22 28  1  0  0  0
 22 32  2  0  0  0
 26 27  1  0  0  0
 28101  1  0  0  0
 28102  1  0  0  0
 29103  1  0  0  0
 29104  1  0  0  0
 33 34  1  0  0  0
 33 66  1  0  0  0
 33 70  2  0  0  0
 34 36  1  0  0  0
 34 59  1  0  0  0
 34105  1  0  0  0
 35 44  2  0  0  0
 35 45  1  0  0  0
 35 68  1  0  0  0
 36 56  1  0  0  0
 36106  1  0  0  0
 37 39  1  0  0  0
 37 47  1  0  0  0
 37 66  1  0  0  0
 37107  1  0  0  0
 38 43  2  0  0  0
 38 46  1  0  0  0
 38 47  1  0  0  0
 39 64  1  0  0  0
 39 67  2  0  0  0
 40 52  1  0  0  0
 40 53  2  0  0  0
 40 58  1  0  0  0
 41108  1  0  0  0
 41109  1  0  0  0
 41110  1  0  0  0
 41 48  1  0  0  0
 42 43  1  0  0  0
 42 66  1  0  0  0
 42111  1  0  0  0
 42112  1  0  0  0
 43 44  1  0  0  0
 44113  1  0  0  0
 45 46  2  0  0  0
 45114  1  0  0  0
 46115  1  0  0  0
 47116  1  0  0  0
 47117  1  0  0  0
 48 56  1  0  0  0
 48 65  1  0  0  0
 48118  1  0  0  0
 49 50  1  0  0  0
 49 53  1  0  0  0
 49 64  1  0  0  0
 49119  1  0  0  0
 50 51  1  0  0  0
 50120  1  0  0  0
 50121  1  0  0  0
 51 52  1  0  0  0
 51122  1  0  0  0
 51123  1  0  0  0
 52124  1  0  0  0
 52125  1  0  0  0
 53 54  1  0  0  0
 54 55  2  0  0  0
 54126  1  0  0  0
 55 57  1  0  0  0
 55127  1  0  0  0
 56 69  2  0  0  0
 57 58  2  0  0  0
 57128  1  0  0  0
 58129  1  0  0  0
 59 60  1  0  0  0
 59 61  1  0  0  0
 59 62  1  0  0  0
 60130  1  0  0  0
 60131  1  0  0  0
 60132  1  0  0  0
 61133  1  0  0  0
 61134  1  0  0  0
 61135  1  0  0  0
 62136  1  0  0  0
 62137  1  0  0  0
 62138  1  0  0  0
 63 65  1  0  0  0
 63139  1  0  0  0
 63140  1  0  0  0
 63141  1  0  0  0
 64142  1  0  0  0
 65143  1  0  0  0
 68 78  1  0  0  0
 71 72  2  0  0  0
 71 73  1  0  0  0
 71144  1  0  0  0
 72 75  1  0  0  0
 72145  1  0  0  0
 73 74  2  0  0  0
 73 76  1  0  0  0
 74 77  1  0  0  0
 74 81  1  0  0  0
 75 81  2  0  0  0
 75 82  1  0  0  0
 76 78  1  0  0  0
 76 84  2  0  0  0
 77146  1  0  0  0
 77147  1  0  0  0
 77148  1  0  0  0
 78149  1  0  0  0
 78150  1  0  0  0
 79 80  1  0  0  0
 79 82  1  0  0  0
 79151  1  0  0  0
 79152  1  0  0  0
 80 83  1  0  0  0
 80153  1  0  0  0
 80154  1  0  0  0
 82155  1  0  0  0
 83156  1  0  0  0
M  ISO  4   1 100  68 101  78 101  83 100
M  END
> <chiral flag>
0

> <version>
0

> <s_m_source_file>
/data/baiqing/PycharmProjects/Reinvent-master-3.2/result/LINK_invent/BTK/process_docking_weight1_custom_sum_contain_oxygen_bond_distance_aromatic_linkinvent_7_9_3/rearranged_h_0115.sdf

> <i_m_source_file_index>
67

> <r_mmod_Potential_Energy-OPLS-2005>
-306.312377929688

> <r_mmod_Stretch_Energy-OPLS-2005>
42.673526763916

> <r_mmod_Bend_Energy-OPLS-2005>
105.153045654297

> <r_mmod_Torsional_Energy-OPLS-2005>
222.456420898438

> <r_mmod_Improper_Torsional_Energy-OPLS-2005>
5.30925464630127

> <r_mmod_Van_der_Waal_Energy-OPLS-2005>
167.243942260742

> <r_mmod_Electrostatic_Energy-OPLS-2005>
-609.24755859375

> <r_mmod_Solvation_Energy-OPLS-2005>
-253.986968994141

> <b_mmod_Minimization_Converged-OPLS-2005>
0

> <r_mmod_RMS_Derivative-OPLS-2005>
1.57703399658203

$$$$
67
                    3D
 Structure written by MMmdl.
155163  0  0  1  0            999 V2000
  -30.6517  -14.6743   20.5137 C   0  0  0  0  0  0
  -30.4269  -12.4191   19.4721 C   0  0  0  0  0  0
  -29.5075  -12.5162   18.2344 C   0  0  0  0  0  0
  -28.0302  -12.3464   18.6392 C   0  0  0  0  0  0
  -27.6450  -13.2262   19.8579 C   0  0  2  0  0  0
  -28.6844  -13.1028   20.9910 C   0  0  0  0  0  0
  -25.2511  -13.8190   20.5680 C   0  0  0  0  0  0
  -24.1799  -13.0438   20.9191 C   0  0  0  0  0  0
  -24.6384  -11.6913   20.8734 C   0  0  0  0  0  0
  -23.9066  -10.4294   21.0405 C   0  0  0  0  0  0
  -24.3619   -9.4208   21.9182 C   0  0  0  0  0  0
  -23.6294   -8.2243   22.0756 C   0  0  0  0  0  0
  -22.4274   -8.0280   21.3547 C   0  0  0  0  0  0
  -21.9908   -9.0254   20.4647 C   0  0  0  0  0  0
  -22.7239  -10.2131   20.3054 C   0  0  0  0  0  0
  -21.6854   -6.0728   22.5278 C   0  0  0  0  0  0
  -21.4018   -6.5636   23.8210 C   0  0  0  0  0  0
  -21.3661   -5.6790   24.9175 C   0  0  0  0  0  0
  -21.6044   -4.3051   24.7227 C   0  0  0  0  0  0
  -21.8820   -3.8142   23.4349 C   0  0  0  0  0  0
  -21.9194   -4.6957   22.3404 C   0  0  0  0  0  0
  -22.7822  -13.5220   21.1862 C   0  0  0  0  0  0
  -22.1661   -4.2141   21.0982 F   0  0  0  0  0  0
  -21.5628   -3.4538   25.7742 F   0  0  0  0  0  0
  -29.9980  -13.4612   20.4348 N   0  0  0  0  0  0
  -26.2938  -12.9389   20.3284 N   0  0  0  0  0  0
  -25.9312  -11.6534   20.5741 N   0  0  0  0  0  0
  -22.0475  -12.8206   22.0422 N   0  0  0  0  0  0
  -25.4204  -15.1916   20.4111 N   0  0  0  0  0  0
  -31.8030  -14.7833   20.0716 O   0  0  0  0  0  0
  -21.6640   -6.8873   21.4241 O   0  0  0  0  0  0
  -22.3503  -14.5531   20.6719 O   0  0  0  0  0  0
  -24.6280  -31.8577   23.2014 C   0  0  0  0  0  0
  -25.9114  -32.4770   23.8346 C   0  0  1  0  0  0
  -27.2232  -27.2941   20.1114 C   0  0  0  0  0  0
  -25.5926  -33.8576   24.2267 N   0  0  0  0  0  0
  -23.4224  -30.4811   21.5459 C   0  0  2  0  0  0
  -24.8665  -28.9337   20.1107 C   0  0  0  0  0  0
  -22.7482  -29.4600   22.4939 C   0  0  0  0  0  0
  -18.0286  -28.1389   22.8482 C   0  0  0  0  0  0
  -24.1496  -36.7289   23.2637 C   0  0  0  0  0  0
  -25.9656  -30.7798   21.3769 C   0  0  0  0  0  0
  -26.0357  -29.4060   20.7167 C   0  0  0  0  0  0
  -27.2126  -28.5973   20.7073 C   0  0  0  0  0  0
  -26.0223  -26.8770   19.4896 C   0  0  0  0  0  0
  -24.8635  -27.6765   19.4896 C   0  0  0  0  0  0
  -23.6360  -29.8167   20.1610 C   0  0  0  0  0  0
  -25.4120  -36.3078   24.0323 C   0  0  1  0  0  0
  -20.5886  -28.3683   23.1293 C   0  0  2  0  0  0
  -20.6777  -26.9409   22.5413 C   0  0  0  0  0  0
  -19.5755  -26.6387   21.5214 C   0  0  0  0  0  0
  -18.1931  -26.7934   22.1621 C   0  0  0  0  0  0
  -19.1540  -28.8854   23.2881 C   0  0  0  0  0  0
  -18.9455  -30.1457   23.8896 C   0  0  0  0  0  0
  -17.6453  -30.6591   24.0560 C   0  0  0  0  0  0
  -25.9055  -34.9448   23.5095 C   0  0  0  0  0  0
  -16.5344  -29.9083   23.6337 C   0  0  0  0  0  0
  -16.7271  -28.6504   23.0351 C   0  0  0  0  0  0
  -26.4489  -31.6597   25.0733 C   0  0  0  0  0  0
  -25.3706  -31.3739   26.1447 C   0  0  0  0  0  0
  -27.0327  -30.3016   24.6205 C   0  0  0  0  0  0
  -27.6052  -32.4335   25.7496 C   0  0  0  0  0  0
  -27.5582  -37.1796   24.8462 C   0  0  0  0  0  0
  -21.4192  -29.3031   22.3686 N   0  0  0  0  0  0
  -26.4297  -37.3770   23.9401 N   0  0  0  0  0  0
  -24.6911  -31.0566   22.0979 N   0  0  0  0  0  0
  -23.4196  -28.8130   23.3019 O   0  0  0  0  0  0
  -28.3667  -26.4724   20.1744 O   0  0  0  0  0  0
  -26.5633  -34.8915   22.4670 O   0  0  0  0  0  0
  -23.5435  -32.1390   23.7327 O   0  0  0  0  0  0
  -30.1168  -17.4968   18.9872 C   0  0  0  0  0  0
  -29.5147  -18.6218   21.0184 C   0  0  0  0  0  0
  -30.0638  -18.7589   18.3607 C   0  0  0  0  0  0
  -29.8505  -17.3731   20.3692 C   0  0  0  0  0  0
  -29.4861  -19.8799   20.3156 C   0  0  0  0  0  0
  -29.9008  -16.0024   21.1079 C   0  0  0  0  0  0
  -30.4718  -21.5801   21.9085 C   0  0  0  0  0  0
  -28.7096  -23.8617   20.6820 C   0  0  0  0  0  0
  -28.4284  -25.0686   19.6662 C   0  0  0  0  0  0
  -29.2553  -21.2815   21.0119 C   0  0  1  0  0  0
  -29.7708  -19.9184   18.9963 N   0  0  0  0  0  0
  -28.9663  -22.4644   20.0889 N   0  3  0  0  0  0
  -29.4107  -15.9306   22.2416 O   0  0  0  0  0  0
  -31.4708  -12.5255   19.1730 H   0  0  0  0  0  0
  -30.3548  -11.4296   19.9270 H   0  0  0  0  0  0
  -29.7829  -11.7600   17.4980 H   0  0  0  0  0  0
  -29.6467  -13.4825   17.7473 H   0  0  0  0  0  0
  -27.8744  -11.2944   18.8813 H   0  0  0  0  0  0
  -27.3767  -12.5624   17.7934 H   0  0  0  0  0  0
  -27.6564  -14.2589   19.5086 H   0  0  0  0  0  0
  -28.7059  -12.0823   21.3769 H   0  0  0  0  0  0
  -28.4010  -13.7212   21.8405 H   0  0  0  0  0  0
  -25.2761   -9.5682   22.4757 H   0  0  0  0  0  0
  -23.9998   -7.4635   22.7476 H   0  0  0  0  0  0
  -21.0836   -8.8775   19.8955 H   0  0  0  0  0  0
  -22.3698  -10.9670   19.6161 H   0  0  0  0  0  0
  -21.2013   -7.6146   23.9713 H   0  0  0  0  0  0
  -21.1480   -6.0521   25.9078 H   0  0  0  0  0  0
  -22.0598   -2.7604   23.2856 H   0  0  0  0  0  0
  -22.4092  -11.9855   22.4792 H   0  0  0  0  0  0
  -21.1098  -13.1233   22.2653 H   0  0  0  0  0  0
  -24.6526  -15.8445   20.5245 H   0  0  0  0  0  0
  -26.2728  -15.6367   20.0966 H   0  0  0  0  0  0
  -26.7177  -32.5417   23.1084 H   0  0  0  0  0  0
  -25.0052  -33.9729   25.0394 H   0  0  0  0  0  0
  -22.7171  -31.3025   21.4041 H   0  0  0  0  0  0
  -23.3759  -35.9621   23.3306 H   0  0  0  0  0  0
  -24.3580  -36.8915   22.2051 H   0  0  0  0  0  0
  -23.7251  -37.6490   23.6664 H   0  0  0  0  0  0
  -26.1046  -31.5438   20.6105 H   0  0  0  0  0  0
  -26.8431  -30.8243   22.0099 H   0  0  0  0  0  0
  -28.1117  -28.9581   21.1860 H   0  0  0  0  0  0
  -25.9194  -25.9212   19.0049 H   0  0  0  0  0  0
  -23.9655  -27.3078   19.0132 H   0  0  0  0  0  0
  -23.7550  -30.5936   19.4050 H   0  0  0  0  0  0
  -22.7546  -29.2482   19.8583 H   0  0  0  0  0  0
  -25.1302  -36.1934   25.0816 H   0  0  0  0  0  0
  -20.9975  -28.3248   24.1417 H   0  0  0  0  0  0
  -20.5696  -26.2273   23.3598 H   0  0  0  0  0  0
  -21.6640  -26.7452   22.1191 H   0  0  0  0  0  0
  -19.6921  -25.6297   21.1244 H   0  0  0  0  0  0
  -19.6713  -27.3196   20.6743 H   0  0  0  0  0  0
  -17.4201  -26.6674   21.4026 H   0  0  0  0  0  0
  -18.0336  -26.0085   22.9025 H   0  0  0  0  0  0
  -19.7927  -30.7276   24.2271 H   0  0  0  0  0  0
  -17.5005  -31.6282   24.5147 H   0  0  0  0  0  0
  -15.5344  -30.2978   23.7688 H   0  0  0  0  0  0
  -15.8664  -28.0833   22.7067 H   0  0  0  0  0  0
  -24.5894  -30.7081   25.7761 H   0  0  0  0  0  0
  -24.8873  -32.2901   26.4852 H   0  0  0  0  0  0
  -25.8013  -30.8924   27.0234 H   0  0  0  0  0  0
  -26.2898  -29.6774   24.1222 H   0  0  0  0  0  0
  -27.3999  -29.7280   25.4724 H   0  0  0  0  0  0
  -27.8787  -30.4301   23.9450 H   0  0  0  0  0  0
  -27.2676  -33.3647   26.2059 H   0  0  0  0  0  0
  -28.3859  -32.6877   25.0316 H   0  0  0  0  0  0
  -28.0717  -31.8465   26.5418 H   0  0  0  0  0  0
  -28.2591  -38.0098   24.7508 H   0  0  0  0  0  0
  -28.1090  -36.2627   24.6299 H   0  0  0  0  0  0
  -27.2295  -37.1457   25.8864 H   0  0  0  0  0  0
  -20.9368  -29.8743   21.6888 H   0  0  0  0  0  0
  -26.0185  -38.2848   24.1399 H   0  0  0  0  0  0
  -30.3674  -16.6303   18.3906 H   0  0  0  0  0  0
  -29.3063  -18.6140   22.0802 H   0  0  0  0  0  0
  -30.2749  -18.8427   17.3045 H   0  0  0  0  0  0
  -30.6632  -20.7513   22.5898 H   0  0  0  0  0  0
  -30.3217  -22.4617   22.5289 H   0  0  0  0  0  0
  -31.3738  -21.7263   21.3141 H   0  0  0  0  0  0
  -27.8726  -23.7886   21.3768 H   0  0  0  0  0  0
  -29.5739  -24.1507   21.2780 H   0  0  0  0  0  0
  -27.5849  -24.7973   19.0411 H   0  0  0  0  0  0
  -29.2646  -25.0812   18.9672 H   0  0  0  0  0  0
  -28.3804  -21.1625   21.6524 H   0  0  0  0  0  0
  -29.7389  -22.4987   19.4421 H   0  0  0  0  0  0
  -28.1686  -22.1839   19.5406 H   0  0  0  0  0  0
  1 25  1  0  0  0
  1 30  2  0  0  0
  1 76  1  0  0  0
  2  3  1  0  0  0
  2 25  1  0  0  0
  2 84  1  0  0  0
  2 85  1  0  0  0
  3  4  1  0  0  0
  3 86  1  0  0  0
  3 87  1  0  0  0
  4  5  1  0  0  0
  4 88  1  0  0  0
  4 89  1  0  0  0
  5  6  1  0  0  0
  5 26  1  0  0  0
  5 90  1  0  0  0
  6 25  1  0  0  0
  6 91  1  0  0  0
  6 92  1  0  0  0
  7  8  2  0  0  0
  7 26  1  0  0  0
  7 29  1  0  0  0
  8  9  1  0  0  0
  8 22  1  0  0  0
  9 10  1  0  0  0
  9 27  2  0  0  0
 10 11  2  0  0  0
 10 15  1  0  0  0
 11 12  1  0  0  0
 11 93  1  0  0  0
 12 13  2  0  0  0
 12 94  1  0  0  0
 13 14  1  0  0  0
 13 31  1  0  0  0
 14 15  2  0  0  0
 14 95  1  0  0  0
 15 96  1  0  0  0
 16 17  2  0  0  0
 16 21  1  0  0  0
 16 31  1  0  0  0
 17 18  1  0  0  0
 17 97  1  0  0  0
 18 19  2  0  0  0
 18 98  1  0  0  0
 19 20  1  0  0  0
 19 24  1  0  0  0
 20 21  2  0  0  0
 20 99  1  0  0  0
 21 23  1  0  0  0
 22 28  1  0  0  0
 22 32  2  0  0  0
 26 27  1  0  0  0
 28100  1  0  0  0
 28101  1  0  0  0
 29102  1  0  0  0
 29103  1  0  0  0
 33 34  1  0  0  0
 33 66  1  0  0  0
 33 70  2  0  0  0
 34 36  1  0  0  0
 34 59  1  0  0  0
 34104  1  0  0  0
 35 44  2  0  0  0
 35 45  1  0  0  0
 35 68  1  0  0  0
 36 56  1  0  0  0
 36105  1  0  0  0
 37 39  1  0  0  0
 37 47  1  0  0  0
 37 66  1  0  0  0
 37106  1  0  0  0
 38 43  2  0  0  0
 38 46  1  0  0  0
 38 47  1  0  0  0
 39 64  1  0  0  0
 39 67  2  0  0  0
 40 52  1  0  0  0
 40 53  2  0  0  0
 40 58  1  0  0  0
 41107  1  0  0  0
 41108  1  0  0  0
 41109  1  0  0  0
 41 48  1  0  0  0
 42 43  1  0  0  0
 42 66  1  0  0  0
 42110  1  0  0  0
 42111  1  0  0  0
 43 44  1  0  0  0
 44112  1  0  0  0
 45 46  2  0  0  0
 45113  1  0  0  0
 46114  1  0  0  0
 47115  1  0  0  0
 47116  1  0  0  0
 48 56  1  0  0  0
 48 65  1  0  0  0
 48117  1  0  0  0
 49 50  1  0  0  0
 49 53  1  0  0  0
 49 64  1  0  0  0
 49118  1  0  0  0
 50 51  1  0  0  0
 50119  1  0  0  0
 50120  1  0  0  0
 51 52  1  0  0  0
 51121  1  0  0  0
 51122  1  0  0  0
 52123  1  0  0  0
 52124  1  0  0  0
 53 54  1  0  0  0
 54 55  2  0  0  0
 54125  1  0  0  0
 55 57  1  0  0  0
 55126  1  0  0  0
 56 69  2  0  0  0
 57 58  2  0  0  0
 57127  1  0  0  0
 58128  1  0  0  0
 59 60  1  0  0  0
 59 61  1  0  0  0
 59 62  1  0  0  0
 60129  1  0  0  0
 60130  1  0  0  0
 60131  1  0  0  0
 61132  1  0  0  0
 61133  1  0  0  0
 61134  1  0  0  0
 62135  1  0  0  0
 62136  1  0  0  0
 62137  1  0  0  0
 63 65  1  0  0  0
 63138  1  0  0  0
 63139  1  0  0  0
 63140  1  0  0  0
 64141  1  0  0  0
 65142  1  0  0  0
 68 79  1  0  0  0
 71 73  2  0  0  0
 71 74  1  0  0  0
 71143  1  0  0  0
 72 74  2  0  0  0
 72 75  1  0  0  0
 72144  1  0  0  0
 73 81  1  0  0  0
 73145  1  0  0  0
 74 76  1  0  0  0
 75 80  1  0  0  0
 75 81  2  0  0  0
 76 83  2  0  0  0
 77146  1  0  0  0
 77147  1  0  0  0
 77148  1  0  0  0
 77 80  1  0  0  0
 78 79  1  0  0  0
 78 82  1  0  0  0
 78149  1  0  0  0
 78150  1  0  0  0
 79151  1  0  0  0
 79152  1  0  0  0
 80 82  1  0  0  0
 80153  1  0  0  0
 82154  1  0  0  0
 82155  1  0  0  0
M  CHG  1  82   1
M  ISO  4   1 100  68 101  76 100  79 101
M  END
> <chiral flag>
0

> <version>
0

> <s_m_source_file>
/data/baiqing/PycharmProjects/Reinvent-master-3.2/result/LINK_invent/BTK/process_docking_weight1_custom_sum_contain_oxygen_bond_distance_aromatic_linkinvent_7_9_3/rearranged_h_0115.sdf

> <i_m_source_file_index>
68

> <r_mmod_Potential_Energy-OPLS-2005>
-105.381439208984

> <r_mmod_Stretch_Energy-OPLS-2005>
108.460754394531

> <r_mmod_Bend_Energy-OPLS-2005>
159.05143737793

> <r_mmod_Torsional_Energy-OPLS-2005>
170.648010253906

> <r_mmod_Improper_Torsional_Energy-OPLS-2005>
2.79528307914734

> <r_mmod_Van_der_Waal_Energy-OPLS-2005>
145.388107299805

> <r_mmod_Electrostatic_Energy-OPLS-2005>
-309.166717529297

> <r_mmod_Solvation_Energy-OPLS-2005>
-438.511627197266

> <b_mmod_Minimization_Converged-OPLS-2005>
0

> <r_mmod_RMS_Derivative-OPLS-2005>
0.979330122470856

$$$$
68
                    3D
 Structure written by MMmdl.
175184  0  0  1  0            999 V2000
  -30.7317  -14.5011   20.5345 C   0  0  0  0  0  0
  -30.4110  -12.3152   19.4430 C   0  0  0  0  0  0
  -29.4894  -12.4771   18.2171 C   0  0  0  0  0  0
  -28.0130  -12.3218   18.6332 C   0  0  0  0  0  0
  -27.6424  -13.1943   19.8602 C   0  0  2  0  0  0
  -28.6924  -13.0668   20.9903 C   0  0  0  0  0  0
  -25.2518  -13.8116   20.5732 C   0  0  0  0  0  0
  -24.1765  -13.0411   20.9228 C   0  0  0  0  0  0
  -24.6325  -11.6879   20.8777 C   0  0  0  0  0  0
  -23.9020  -10.4274   21.0433 C   0  0  0  0  0  0
  -24.3580   -9.4188   21.9208 C   0  0  0  0  0  0
  -23.6259   -8.2221   22.0773 C   0  0  0  0  0  0
  -22.4242   -8.0278   21.3563 C   0  0  0  0  0  0
  -21.9872   -9.0253   20.4670 C   0  0  0  0  0  0
  -22.7199  -10.2132   20.3081 C   0  0  0  0  0  0
  -21.6842   -6.0733   22.5290 C   0  0  0  0  0  0
  -21.4010   -6.5638   23.8224 C   0  0  0  0  0  0
  -21.3648   -5.6785   24.9184 C   0  0  0  0  0  0
  -21.6030   -4.3046   24.7222 C   0  0  0  0  0  0
  -21.8811   -3.8151   23.4337 C   0  0  0  0  0  0
  -21.9181   -4.6967   22.3401 C   0  0  0  0  0  0
  -22.7790  -13.5238   21.1859 C   0  0  0  0  0  0
  -22.1654   -4.2159   21.0972 F   0  0  0  0  0  0
  -21.5613   -3.4527   25.7730 F   0  0  0  0  0  0
  -30.0190  -13.3438   20.4194 N   0  0  0  0  0  0
  -26.2919  -12.9250   20.3362 N   0  0  0  0  0  0
  -25.9246  -11.6439   20.5812 N   0  0  0  0  0  0
  -22.0383  -12.8288   22.0413 N   0  0  0  0  0  0
  -25.4184  -15.1844   20.4139 N   0  0  0  0  0  0
  -31.9106  -14.5778   20.1861 O   0  0  0  0  0  0
  -21.6616   -6.8876   21.4255 O   0  0  0  0  0  0
  -22.3496  -14.5537   20.6685 O   0  0  0  0  0  0
  -24.6043  -31.8705   23.2125 C   0  0  0  0  0  0
  -25.8961  -32.4847   23.8402 C   0  0  1  0  0  0
  -27.2642  -27.4698   20.1219 C   0  0  0  0  0  0
  -25.5828  -33.8643   24.2323 N   0  0  0  0  0  0
  -23.3934  -30.4915   21.5496 C   0  0  2  0  0  0
  -24.8508  -28.9598   20.1222 C   0  0  0  0  0  0
  -22.7351  -29.4659   22.4989 C   0  0  0  0  0  0
  -18.0255  -28.1375   22.8526 C   0  0  0  0  0  0
  -24.1481  -36.7329   23.2638 C   0  0  0  0  0  0
  -25.9111  -30.8555   21.3538 C   0  0  0  0  0  0
  -26.0011  -29.4852   20.7194 C   0  0  0  0  0  0
  -27.2054  -28.7515   20.7254 C   0  0  0  0  0  0
  -26.0949  -26.9599   19.5174 C   0  0  0  0  0  0
  -24.8894  -27.6909   19.5199 C   0  0  0  0  0  0
  -23.6054  -29.8177   20.1663 C   0  0  0  0  0  0
  -25.4105  -36.3128   24.0333 C   0  0  1  0  0  0
  -20.5848  -28.3650   23.1348 C   0  0  2  0  0  0
  -20.6742  -26.9391   22.5444 C   0  0  0  0  0  0
  -19.5725  -26.6392   21.5231 C   0  0  0  0  0  0
  -18.1902  -26.7931   22.1642 C   0  0  0  0  0  0
  -19.1507  -28.8829   23.2940 C   0  0  0  0  0  0
  -18.9432  -30.1433   23.8941 C   0  0  0  0  0  0
  -17.6436  -30.6585   24.0581 C   0  0  0  0  0  0
  -25.9022  -34.9489   23.5140 C   0  0  0  0  0  0
  -16.5332  -29.9095   23.6327 C   0  0  0  0  0  0
  -16.7244  -28.6514   23.0361 C   0  0  0  0  0  0
  -26.4450  -31.6601   25.0686 C   0  0  0  0  0  0
  -25.3753  -31.3681   26.1464 C   0  0  0  0  0  0
  -27.0270  -30.3055   24.5997 C   0  0  0  0  0  0
  -27.6032  -32.4318   25.7443 C   0  0  0  0  0  0
  -27.5582  -37.1821   24.8466 C   0  0  0  0  0  0
  -21.4080  -29.3028   22.3747 N   0  0  0  0  0  0
  -26.4296  -37.3802   23.9409 N   0  0  0  0  0  0
  -24.6545  -31.0863   22.0994 N   0  0  0  0  0  0
  -23.4155  -28.8186   23.2998 O   0  0  0  0  0  0
  -28.3914  -26.6740   20.0380 O   0  0  0  0  0  0
  -26.5599  -34.8923   22.4708 O   0  0  0  0  0  0
  -23.5249  -32.1432   23.7551 O   0  0  0  0  0  0
  -30.0330  -18.6386   23.3812 C   0  0  0  0  0  0
  -31.0711  -17.9414   19.5522 C   0  0  0  0  0  0
  -29.5635  -17.6955   19.4515 C   0  0  0  0  0  0
  -31.6172  -17.5800   20.9433 C   0  0  0  0  0  0
  -28.6894  -21.6615   23.8355 C   0  0  0  0  0  0
  -29.1891  -16.2460   19.8470 C   0  0  0  0  0  0
  -28.5611  -23.0662   23.2266 C   0  0  0  0  0  0
  -30.4468  -22.0826   22.2136 C   0  0  0  0  0  0
  -29.9855  -21.0623   23.2697 C   0  0  2  0  0  0
  -30.6786  -16.6490   21.7696 C   0  0  1  0  0  0
  -30.5932  -26.2849   23.1059 C   0  0  0  0  0  0
  -29.5951  -17.3640   22.6430 C   0  0  0  0  0  0
  -29.8326  -24.4135   21.5422 C   0  0  0  0  0  0
  -29.5187  -26.8764   20.8966 C   0  0  0  0  0  0
  -29.5496  -25.8524   22.0566 C   0  0  2  0  0  0
  -30.0489  -15.6294   20.8906 N   0  0  0  0  0  0
  -29.8696  -23.3858   22.6202 N   0  3  1  0  0  0
  -30.5699  -18.5849   24.4891 O   0  0  0  0  0  0
  -29.7532  -19.7729   22.6941 O   0  0  0  0  0  0
  -31.4585  -12.3923   19.1434 H   0  0  0  0  0  0
  -30.2987  -11.3248   19.8877 H   0  0  0  0  0  0
  -29.7430  -11.7367   17.4570 H   0  0  0  0  0  0
  -29.6433  -13.4536   17.7560 H   0  0  0  0  0  0
  -27.8459  -11.2692   18.8681 H   0  0  0  0  0  0
  -27.3565  -12.5537   17.7941 H   0  0  0  0  0  0
  -27.6347  -14.2134   19.4933 H   0  0  0  0  0  0
  -28.6763  -12.0597   21.4113 H   0  0  0  0  0  0
  -28.4600  -13.7421   21.8158 H   0  0  0  0  0  0
  -25.2713   -9.5651   22.4811 H   0  0  0  0  0  0
  -23.9963   -7.4588   22.7476 H   0  0  0  0  0  0
  -21.0806   -8.8769   19.8977 H   0  0  0  0  0  0
  -22.3654  -10.9679   19.6198 H   0  0  0  0  0  0
  -21.2041   -7.6153   23.9729 H   0  0  0  0  0  0
  -21.1463   -6.0518   25.9078 H   0  0  0  0  0  0
  -22.0606   -2.7619   23.2825 H   0  0  0  0  0  0
  -22.3964  -11.9999   22.4919 H   0  0  0  0  0  0
  -21.1005  -13.1385   22.2573 H   0  0  0  0  0  0
  -24.6454  -15.8302   20.5328 H   0  0  0  0  0  0
  -26.2647  -15.6333   20.0920 H   0  0  0  0  0  0
  -26.7039  -32.5612   23.1180 H   0  0  0  0  0  0
  -24.9949  -33.9829   25.0452 H   0  0  0  0  0  0
  -22.6770  -31.3040   21.4081 H   0  0  0  0  0  0
  -23.3719  -35.9687   23.3330 H   0  0  0  0  0  0
  -24.3571  -36.8920   22.2048 H   0  0  0  0  0  0
  -23.7260  -37.6547   23.6645 H   0  0  0  0  0  0
  -25.9998  -31.6158   20.5744 H   0  0  0  0  0  0
  -26.8040  -30.9313   21.9612 H   0  0  0  0  0  0
  -28.0678  -29.2080   21.1842 H   0  0  0  0  0  0
  -26.1191  -25.9877   19.0478 H   0  0  0  0  0  0
  -24.0059  -27.2732   19.0561 H   0  0  0  0  0  0
  -23.7012  -30.5879   19.4002 H   0  0  0  0  0  0
  -22.7355  -29.2270   19.8774 H   0  0  0  0  0  0
  -25.1285  -36.2005   25.0824 H   0  0  0  0  0  0
  -20.9968  -28.3229   24.1457 H   0  0  0  0  0  0
  -20.5636  -26.2252   23.3624 H   0  0  0  0  0  0
  -21.6609  -26.7439   22.1232 H   0  0  0  0  0  0
  -19.6876  -25.6310   21.1230 H   0  0  0  0  0  0
  -19.6658  -27.3217   20.6771 H   0  0  0  0  0  0
  -17.4174  -26.6702   21.4037 H   0  0  0  0  0  0
  -18.0284  -26.0050   22.9010 H   0  0  0  0  0  0
  -19.7900  -30.7246   24.2334 H   0  0  0  0  0  0
  -17.4990  -31.6271   24.5157 H   0  0  0  0  0  0
  -15.5336  -30.3017   23.7612 H   0  0  0  0  0  0
  -15.8645  -28.0839   22.7069 H   0  0  0  0  0  0
  -24.5876  -30.7093   25.7792 H   0  0  0  0  0  0
  -24.9004  -32.2835   26.5002 H   0  0  0  0  0  0
  -25.8128  -30.8765   27.0163 H   0  0  0  0  0  0
  -26.2781  -29.6812   24.1103 H   0  0  0  0  0  0
  -27.4120  -29.7297   25.4423 H   0  0  0  0  0  0
  -27.8580  -30.4376   23.9061 H   0  0  0  0  0  0
  -27.2636  -33.3581   26.2091 H   0  0  0  0  0  0
  -28.3798  -32.6951   25.0247 H   0  0  0  0  0  0
  -28.0748  -31.8403   26.5302 H   0  0  0  0  0  0
  -28.2624  -38.0096   24.7493 H   0  0  0  0  0  0
  -28.1053  -36.2629   24.6316 H   0  0  0  0  0  0
  -27.2297  -37.1497   25.8868 H   0  0  0  0  0  0
  -20.9193  -29.8769   21.7010 H   0  0  0  0  0  0
  -26.0187  -38.2881   24.1407 H   0  0  0  0  0  0
  -31.3024  -18.9815   19.3185 H   0  0  0  0  0  0
  -31.5810  -17.3394   18.7983 H   0  0  0  0  0  0
  -29.2172  -17.9066   18.4384 H   0  0  0  0  0  0
  -29.0396  -18.4120   20.0834 H   0  0  0  0  0  0
  -31.8807  -18.4834   21.4899 H   0  0  0  0  0  0
  -32.5753  -17.0776   20.7995 H   0  0  0  0  0  0
  -27.8150  -21.0577   23.5881 H   0  0  0  0  0  0
  -28.7483  -21.7156   24.9217 H   0  0  0  0  0  0
  -29.2195  -15.6554   18.9285 H   0  0  0  0  0  0
  -28.1548  -16.2304   20.1875 H   0  0  0  0  0  0
  -28.2625  -23.8120   23.9643 H   0  0  0  0  0  0
  -27.7953  -23.0485   22.4500 H   0  0  0  0  0  0
  -30.0487  -21.8077   21.2355 H   0  0  0  0  0  0
  -31.5327  -22.1236   22.1274 H   0  0  0  0  0  0
  -30.7352  -21.0206   24.0642 H   0  0  0  0  0  0
  -31.3158  -16.1247   22.4854 H   0  0  0  0  0  0
  -30.5409  -25.6750   24.0079 H   0  0  0  0  0  0
  -30.4368  -27.3196   23.4151 H   0  0  0  0  0  0
  -31.6084  -26.2149   22.7122 H   0  0  0  0  0  0
  -28.7293  -17.6342   22.0427 H   0  0  0  0  0  0
  -29.2122  -16.6639   23.3843 H   0  0  0  0  0  0
  -30.7935  -24.4070   21.0240 H   0  0  0  0  0  0
  -29.0901  -24.1281   20.7961 H   0  0  0  0  0  0
  -30.4149  -26.7460   20.2893 H   0  0  0  0  0  0
  -29.6025  -27.8882   21.2831 H   0  0  0  0  0  0
  -28.5709  -25.8772   22.5369 H   0  0  0  0  0  0
  -30.4598  -23.7492   23.3574 H   0  0  0  0  0  0
  1 25  1  0  0  0
  1 30  2  0  0  0
  1 86  1  0  0  0
  2  3  1  0  0  0
  2 25  1  0  0  0
  2 90  1  0  0  0
  2 91  1  0  0  0
  3  4  1  0  0  0
  3 92  1  0  0  0
  3 93  1  0  0  0
  4  5  1  0  0  0
  4 94  1  0  0  0
  4 95  1  0  0  0
  5  6  1  0  0  0
  5 26  1  0  0  0
  5 96  1  0  0  0
  6 25  1  0  0  0
  6 97  1  0  0  0
  6 98  1  0  0  0
  7  8  2  0  0  0
  7 26  1  0  0  0
  7 29  1  0  0  0
  8  9  1  0  0  0
  8 22  1  0  0  0
  9 10  1  0  0  0
  9 27  2  0  0  0
 10 11  2  0  0  0
 10 15  1  0  0  0
 11 12  1  0  0  0
 11 99  1  0  0  0
 12 13  2  0  0  0
 12100  1  0  0  0
 13 14  1  0  0  0
 13 31  1  0  0  0
 14 15  2  0  0  0
 14101  1  0  0  0
 15102  1  0  0  0
 16 17  2  0  0  0
 16 21  1  0  0  0
 16 31  1  0  0  0
 17 18  1  0  0  0
 17103  1  0  0  0
 18 19  2  0  0  0
 18104  1  0  0  0
 19 20  1  0  0  0
 19 24  1  0  0  0
 20 21  2  0  0  0
 20105  1  0  0  0
 21 23  1  0  0  0
 22 28  1  0  0  0
 22 32  2  0  0  0
 26 27  1  0  0  0
 28106  1  0  0  0
 28107  1  0  0  0
 29108  1  0  0  0
 29109  1  0  0  0
 33 34  1  0  0  0
 33 66  1  0  0  0
 33 70  2  0  0  0
 34 36  1  0  0  0
 34 59  1  0  0  0
 34110  1  0  0  0
 35 44  2  0  0  0
 35 45  1  0  0  0
 35 68  1  0  0  0
 36 56  1  0  0  0
 36111  1  0  0  0
 37 39  1  0  0  0
 37 47  1  0  0  0
 37 66  1  0  0  0
 37112  1  0  0  0
 38 43  2  0  0  0
 38 46  1  0  0  0
 38 47  1  0  0  0
 39 64  1  0  0  0
 39 67  2  0  0  0
 40 52  1  0  0  0
 40 53  2  0  0  0
 40 58  1  0  0  0
 41113  1  0  0  0
 41114  1  0  0  0
 41115  1  0  0  0
 41 48  1  0  0  0
 42 43  1  0  0  0
 42 66  1  0  0  0
 42116  1  0  0  0
 42117  1  0  0  0
 43 44  1  0  0  0
 44118  1  0  0  0
 45 46  2  0  0  0
 45119  1  0  0  0
 46120  1  0  0  0
 47121  1  0  0  0
 47122  1  0  0  0
 48 56  1  0  0  0
 48 65  1  0  0  0
 48123  1  0  0  0
 49 50  1  0  0  0
 49 53  1  0  0  0
 49 64  1  0  0  0
 49124  1  0  0  0
 50 51  1  0  0  0
 50125  1  0  0  0
 50126  1  0  0  0
 51 52  1  0  0  0
 51127  1  0  0  0
 51128  1  0  0  0
 52129  1  0  0  0
 52130  1  0  0  0
 53 54  1  0  0  0
 54 55  2  0  0  0
 54131  1  0  0  0
 55 57  1  0  0  0
 55132  1  0  0  0
 56 69  2  0  0  0
 57 58  2  0  0  0
 57133  1  0  0  0
 58134  1  0  0  0
 59 60  1  0  0  0
 59 61  1  0  0  0
 59 62  1  0  0  0
 60135  1  0  0  0
 60136  1  0  0  0
 60137  1  0  0  0
 61138  1  0  0  0
 61139  1  0  0  0
 61140  1  0  0  0
 62141  1  0  0  0
 62142  1  0  0  0
 62143  1  0  0  0
 63 65  1  0  0  0
 63144  1  0  0  0
 63145  1  0  0  0
 63146  1  0  0  0
 64147  1  0  0  0
 65148  1  0  0  0
 68 84  1  0  0  0
 71 82  1  0  0  0
 71 88  2  0  0  0
 71 89  1  0  0  0
 72 73  1  0  0  0
 72 74  1  0  0  0
 72149  1  0  0  0
 72150  1  0  0  0
 73 76  1  0  0  0
 73151  1  0  0  0
 73152  1  0  0  0
 74 80  1  0  0  0
 74153  1  0  0  0
 74154  1  0  0  0
 75 77  1  0  0  0
 75 79  1  0  0  0
 75155  1  0  0  0
 75156  1  0  0  0
 76 86  1  0  0  0
 76157  1  0  0  0
 76158  1  0  0  0
 77 87  1  0  0  0
 77159  1  0  0  0
 77160  1  0  0  0
 78 79  1  0  0  0
 78 87  1  0  0  0
 78161  1  0  0  0
 78162  1  0  0  0
 79 89  1  0  0  0
 79163  1  0  0  0
 80 82  1  0  0  0
 80 86  1  0  0  0
 80164  1  0  0  0
 81165  1  0  0  0
 81166  1  0  0  0
 81167  1  0  0  0
 81 85  1  0  0  0
 82168  1  0  0  0
 82169  1  0  0  0
 83 85  1  0  0  0
 83170  1  0  0  0
 83171  1  0  0  0
 83 87  1  0  0  0
 84 85  1  0  0  0
 84172  1  0  0  0
 84173  1  0  0  0
 85174  1  0  0  0
 87175  1  0  0  0
M  CHG  1  87   1
M  ISO  4   1 100  68 101  84 101  86 100
M  END
> <chiral flag>
0

> <version>
0

> <s_m_source_file>
/data/baiqing/PycharmProjects/Reinvent-master-3.2/result/LINK_invent/BTK/process_docking_weight1_custom_sum_contain_oxygen_bond_distance_aromatic_linkinvent_7_9_3/rearranged_h_0115.sdf

> <i_m_source_file_index>
69

> <r_mmod_Potential_Energy-OPLS-2005>
151.927627563477

> <r_mmod_Stretch_Energy-OPLS-2005>
42.6715126037598

> <r_mmod_Bend_Energy-OPLS-2005>
142.34782409668

> <r_mmod_Torsional_Energy-OPLS-2005>
418.52197265625

> <r_mmod_Improper_Torsional_Energy-OPLS-2005>
6.65493011474609

> <r_mmod_Van_der_Waal_Energy-OPLS-2005>
143.936309814453

> <r_mmod_Electrostatic_Energy-OPLS-2005>
-194.796112060547

> <r_mmod_Solvation_Energy-OPLS-2005>
-426.266418457031

> <b_mmod_Minimization_Converged-OPLS-2005>
0

> <r_mmod_RMS_Derivative-OPLS-2005>
3.14174175262451

$$$$
69
                    3D
 Structure written by MMmdl.
170178  0  0  1  0            999 V2000
  -29.6017  -14.1595   21.0353 C   0  0  0  0  0  0
  -30.6725  -12.5691   19.3108 C   0  0  0  0  0  0
  -29.8262  -12.5592   17.9611 C   0  0  0  0  0  0
  -28.2947  -12.2956   18.0563 C   0  0  0  0  0  0
  -27.9434  -13.0017   19.2804 C   0  0  2  0  0  0
  -28.7505  -12.1983   20.4053 C   0  0  0  0  0  0
  -25.2717  -14.2353   20.0515 C   0  0  0  0  0  0
  -24.2607  -13.4589   21.2239 C   0  0  0  0  0  0
  -24.8808  -11.8168   21.5893 C   0  0  0  0  0  0
  -24.0343  -10.5397   21.4553 C   0  0  0  0  0  0
  -24.4328   -9.3908   22.1641 C   0  0  0  0  0  0
  -23.6871   -8.1977   22.1400 C   0  0  0  0  0  0
  -22.4981   -8.0817   21.3839 C   0  0  0  0  0  0
  -22.1502   -9.1650   20.5512 C   0  0  0  0  0  0
  -22.9230  -10.3658   20.5672 C   0  0  0  0  0  0
  -21.6912   -6.1035   22.5041 C   0  0  0  0  0  0
  -21.3994   -6.5813   23.8044 C   0  0  0  0  0  0
  -21.3573   -5.6927   24.8996 C   0  0  0  0  0  0
  -21.5998   -4.3187   24.7007 C   0  0  0  0  0  0
  -21.8774   -3.8343   23.4119 C   0  0  0  0  0  0
  -21.9218   -4.7238   22.3185 C   0  0  0  0  0  0
  -22.8000  -13.7289   21.2988 C   0  0  0  0  0  0
  -22.1698   -4.2367   21.0787 F   0  0  0  0  0  0
  -21.5631   -3.4640   25.7517 F   0  0  0  0  0  0
  -29.8693  -12.9666   20.4774 N   0  0  0  0  0  0
  -26.6637  -12.9888   19.6530 N   0  0  0  0  0  0
  -26.3164  -11.5440   20.7213 N   0  0  0  0  0  0
  -22.0729  -12.9484   22.0924 N   0  0  0  0  0  0
  -25.3799  -15.5458   19.7208 N   0  0  0  0  0  0
  -30.5680  -14.9628   20.8759 O   0  0  0  0  0  0
  -21.7068   -6.9424   21.4068 O   0  0  0  0  0  0
  -22.3001  -14.6429   20.6517 O   0  0  0  0  0  0
  -24.6344  -31.8542   23.2049 C   0  0  0  0  0  0
  -25.9149  -32.4754   23.8413 C   0  0  1  0  0  0
  -27.1330  -27.1956   20.1436 C   0  0  0  0  0  0
  -25.5917  -33.8561   24.2306 N   0  0  0  0  0  0
  -23.4349  -30.4834   21.5480 C   0  0  2  0  0  0
  -24.8742  -28.9513   20.0883 C   0  0  0  0  0  0
  -22.7547  -29.4567   22.4875 C   0  0  0  0  0  0
  -18.0297  -28.1375   22.8492 C   0  0  0  0  0  0
  -24.1470  -36.7216   23.2654 C   0  0  0  0  0  0
  -25.9922  -30.7376   21.4150 C   0  0  0  0  0  0
  -26.0500  -29.3677   20.7337 C   0  0  0  0  0  0
  -27.1928  -28.4999   20.7581 C   0  0  0  0  0  0
  -25.9825  -26.9088   19.3900 C   0  0  0  0  0  0
  -24.8549  -27.7440   19.3881 C   0  0  0  0  0  0
  -23.6542  -29.8477   20.1542 C   0  0  0  0  0  0
  -25.4108  -36.3065   24.0358 C   0  0  1  0  0  0
  -20.5924  -28.3687   23.1239 C   0  0  2  0  0  0
  -20.6779  -26.9395   22.5395 C   0  0  0  0  0  0
  -19.5734  -26.6374   21.5212 C   0  0  0  0  0  0
  -18.1925  -26.7913   22.1643 C   0  0  0  0  0  0
  -19.1563  -28.8847   23.2861 C   0  0  0  0  0  0
  -18.9473  -30.1452   23.8875 C   0  0  0  0  0  0
  -17.6469  -30.6580   24.0551 C   0  0  0  0  0  0
  -25.9063  -34.9437   23.5147 C   0  0  0  0  0  0
  -16.5358  -29.9071   23.6342 C   0  0  0  0  0  0
  -16.7281  -28.6487   23.0370 C   0  0  0  0  0  0
  -26.4500  -31.6597   25.0824 C   0  0  0  0  0  0
  -25.3723  -31.3696   26.1537 C   0  0  0  0  0  0
  -27.0406  -30.3013   24.6391 C   0  0  0  0  0  0
  -27.6044  -32.4387   25.7553 C   0  0  0  0  0  0
  -27.5576  -37.1771   24.8485 C   0  0  0  0  0  0
  -21.4249  -29.3022   22.3619 N   0  0  0  0  0  0
  -26.4273  -37.3773   23.9448 N   0  0  0  0  0  0
  -24.7051  -31.0465   22.1080 N   0  0  0  0  0  0
  -23.4236  -28.8090   23.2979 O   0  0  0  0  0  0
  -28.0377  -26.1161   20.3070 O   0  0  0  0  0  0
  -26.5634  -34.8895   22.4714 O   0  0  0  0  0  0
  -23.5484  -32.1384   23.7290 O   0  0  0  0  0  0
  -27.9259  -22.7225   22.2514 C   0  0  0  0  0  0
  -27.5698  -21.1011   20.1024 C   0  0  0  0  0  0
  -27.8455  -21.3086   22.4662 C   0  0  0  0  0  0
  -27.6923  -20.4202   21.3601 C   0  0  0  0  0  0
  -27.7875  -23.3355   20.9739 C   0  0  0  0  0  0
  -29.7006  -20.9190   25.5572 C   0  0  0  0  0  0
  -28.5479  -18.7437   25.2316 C   0  0  0  0  0  0
  -27.7271  -20.8036   23.9140 C   0  0  0  0  0  0
  -27.8449  -18.8267   21.5563 C   0  0  0  0  0  0
  -27.3384  -24.8896   20.9113 C   0  0  0  0  0  0
  -26.5511  -13.5937   21.7680 C   0  0  0  0  0  0
  -26.8173  -17.6188   21.2387 C   0  0  0  0  0  0
  -26.0924  -15.0511   22.5598 C   0  0  0  0  0  0
  -28.9513  -20.0639   24.5282 C   0  0  0  0  0  0
  -27.5794  -22.4727   19.9216 N   0  0  0  0  0  0
  -28.1890  -14.3081   21.5978 N   0  0  0  0  0  0
  -26.7549  -16.4732   22.3075 N   0  3  0  0  0  0
  -31.5386  -13.2291   19.2279 H   0  0  0  0  0  0
  -31.1028  -11.5787   19.4917 H   0  0  0  0  0  0
  -30.2755  -11.8496   17.2682 H   0  0  0  0  0  0
  -29.9650  -13.5324   17.4918 H   0  0  0  0  0  0
  -28.0690  -11.2289   18.1049 H   0  0  0  0  0  0
  -27.7675  -12.7088   17.1902 H   0  0  0  0  0  0
  -28.1448  -14.0576   19.0655 H   0  0  0  0  0  0
  -28.9465  -11.1670   20.1065 H   0  0  0  0  0  0
  -28.4368  -12.0035   21.4288 H   0  0  0  0  0  0
  -25.3165   -9.4364   22.7891 H   0  0  0  0  0  0
  -24.0280   -7.3667   22.7463 H   0  0  0  0  0  0
  -21.2807   -9.1060   19.9138 H   0  0  0  0  0  0
  -22.6284  -11.1851   19.9299 H   0  0  0  0  0  0
  -21.1986   -7.6314   23.9593 H   0  0  0  0  0  0
  -21.1368   -6.0639   25.8898 H   0  0  0  0  0  0
  -22.0587   -2.7812   23.2590 H   0  0  0  0  0  0
  -22.4964  -12.2067   22.6297 H   0  0  0  0  0  0
  -21.0744  -13.0880   22.1463 H   0  0  0  0  0  0
  -24.5152  -16.0554   19.5904 H   0  0  0  0  0  0
  -25.9004  -15.5603   18.8482 H   0  0  0  0  0  0
  -26.7186  -32.5350   23.1125 H   0  0  0  0  0  0
  -25.0079  -33.9706   25.0455 H   0  0  0  0  0  0
  -22.7344  -31.3088   21.4147 H   0  0  0  0  0  0
  -23.3793  -35.9488   23.3323 H   0  0  0  0  0  0
  -24.3557  -36.8815   22.2067 H   0  0  0  0  0  0
  -23.7138  -37.6387   23.6653 H   0  0  0  0  0  0
  -26.1789  -31.5071   20.6670 H   0  0  0  0  0  0
  -26.8516  -30.7491   22.0727 H   0  0  0  0  0  0
  -28.0757  -28.7732   21.3147 H   0  0  0  0  0  0
  -25.9072  -25.9845   18.8354 H   0  0  0  0  0  0
  -23.9725  -27.4484   18.8332 H   0  0  0  0  0  0
  -23.7878  -30.6381   19.4150 H   0  0  0  0  0  0
  -22.7699  -29.2932   19.8376 H   0  0  0  0  0  0
  -25.1280  -36.1944   25.0850 H   0  0  0  0  0  0
  -21.0004  -28.3258   24.1364 H   0  0  0  0  0  0
  -20.5681  -26.2287   23.3602 H   0  0  0  0  0  0
  -21.6637  -26.7407   22.1176 H   0  0  0  0  0  0
  -19.6894  -25.6290   21.1221 H   0  0  0  0  0  0
  -19.6662  -27.3200   20.6750 H   0  0  0  0  0  0
  -17.4189  -26.6653   21.4056 H   0  0  0  0  0  0
  -18.0340  -26.0056   22.9041 H   0  0  0  0  0  0
  -19.7947  -30.7276   24.2235 H   0  0  0  0  0  0
  -17.5019  -31.6260   24.5147 H   0  0  0  0  0  0
  -15.5356  -30.2961   23.7672 H   0  0  0  0  0  0
  -15.8678  -28.0785   22.7112 H   0  0  0  0  0  0
  -24.5878  -30.7085   25.7824 H   0  0  0  0  0  0
  -24.8942  -32.2840   26.5067 H   0  0  0  0  0  0
  -25.8049  -30.8774   27.0261 H   0  0  0  0  0  0
  -26.3043  -29.6725   24.1370 H   0  0  0  0  0  0
  -27.4003  -29.7313   25.4969 H   0  0  0  0  0  0
  -27.8964  -30.4294   23.9758 H   0  0  0  0  0  0
  -27.2637  -33.3692   26.2104 H   0  0  0  0  0  0
  -28.3816  -32.6957   25.0343 H   0  0  0  0  0  0
  -28.0759  -31.8562   26.5475 H   0  0  0  0  0  0
  -28.2587  -38.0077   24.7597 H   0  0  0  0  0  0
  -28.1079  -36.2625   24.6256 H   0  0  0  0  0  0
  -27.2297  -37.1341   25.8881 H   0  0  0  0  0  0
  -20.9438  -29.8734   21.6804 H   0  0  0  0  0  0
  -26.0169  -38.2843   24.1483 H   0  0  0  0  0  0
  -27.9731  -23.3736   23.1142 H   0  0  0  0  0  0
  -27.4306  -20.4997   19.2112 H   0  0  0  0  0  0
  -30.5471  -20.3655   25.9694 H   0  0  0  0  0  0
  -29.0567  -21.1735   26.4006 H   0  0  0  0  0  0
  -30.0671  -21.8512   25.1296 H   0  0  0  0  0  0
  -29.4172  -18.0944   25.3591 H   0  0  0  0  0  0
  -27.7905  -18.1694   24.6949 H   0  0  0  0  0  0
  -28.1443  -18.9256   26.2306 H   0  0  0  0  0  0
  -26.8755  -20.1201   23.8800 H   0  0  0  0  0  0
  -27.4042  -21.6276   24.5585 H   0  0  0  0  0  0
  -28.0655  -18.6423   22.5894 H   0  0  0  0  0  0
  -28.7944  -18.5812   21.0716 H   0  0  0  0  0  0
  -27.2342  -25.1819   21.9576 H   0  0  0  0  0  0
  -26.2974  -24.8021   20.5941 H   0  0  0  0  0  0
  -26.7365  -12.9124   22.6136 H   0  0  0  0  0  0
  -24.9817  -12.4471   19.8522 H   0  0  0  0  0  0
  -27.2336  -17.1572   20.3289 H   0  0  0  0  0  0
  -25.8385  -17.9865   20.9054 H   0  0  0  0  0  0
  -25.0174  -15.1703   22.7544 H   0  0  0  0  0  0
  -26.4231  -14.8296   23.5691 H   0  0  0  0  0  0
  -29.6431  -19.8198   23.7199 H   0  0  0  0  0  0
  -28.2470  -15.2142   21.9929 H   0  0  0  0  0  0
  -26.0906  -16.2861   21.5689 H   0  0  0  0  0  0
  -27.7150  -16.2024   22.2698 H   0  0  0  0  0  0
  1 25  1  0  0  0
  1 30  2  0  0  0
  1 86  1  0  0  0
  2  3  1  0  0  0
  2 25  1  0  0  0
  2 88  1  0  0  0
  2 89  1  0  0  0
  3  4  1  0  0  0
  3 90  1  0  0  0
  3 91  1  0  0  0
  4  5  1  0  0  0
  4 92  1  0  0  0
  4 93  1  0  0  0
  5  6  1  0  0  0
  5 26  1  0  0  0
  5 94  1  0  0  0
  6 25  1  0  0  0
  6 95  1  0  0  0
  6 96  1  0  0  0
  7  8  2  0  0  0
  7 26  1  0  0  0
  7 29  1  0  0  0
  8  9  1  0  0  0
  8 22  1  0  0  0
  9 10  1  0  0  0
  9 27  2  0  0  0
 10 11  2  0  0  0
 10 15  1  0  0  0
 11 12  1  0  0  0
 11 97  1  0  0  0
 12 13  2  0  0  0
 12 98  1  0  0  0
 13 14  1  0  0  0
 13 31  1  0  0  0
 14 15  2  0  0  0
 14 99  1  0  0  0
 15100  1  0  0  0
 16 17  2  0  0  0
 16 21  1  0  0  0
 16 31  1  0  0  0
 17 18  1  0  0  0
 17101  1  0  0  0
 18 19  2  0  0  0
 18102  1  0  0  0
 19 20  1  0  0  0
 19 24  1  0  0  0
 20 21  2  0  0  0
 20103  1  0  0  0
 21 23  1  0  0  0
 22 28  1  0  0  0
 22 32  2  0  0  0
 26 27  1  0  0  0
 28104  1  0  0  0
 28105  1  0  0  0
 29106  1  0  0  0
 29107  1  0  0  0
 33 34  1  0  0  0
 33 66  1  0  0  0
 33 70  2  0  0  0
 34 36  1  0  0  0
 34 59  1  0  0  0
 34108  1  0  0  0
 35 44  2  0  0  0
 35 45  1  0  0  0
 35 68  1  0  0  0
 36 56  1  0  0  0
 36109  1  0  0  0
 37 39  1  0  0  0
 37 47  1  0  0  0
 37 66  1  0  0  0
 37110  1  0  0  0
 38 43  2  0  0  0
 38 46  1  0  0  0
 38 47  1  0  0  0
 39 64  1  0  0  0
 39 67  2  0  0  0
 40 52  1  0  0  0
 40 53  2  0  0  0
 40 58  1  0  0  0
 41111  1  0  0  0
 41112  1  0  0  0
 41113  1  0  0  0
 41 48  1  0  0  0
 42 43  1  0  0  0
 42 66  1  0  0  0
 42114  1  0  0  0
 42115  1  0  0  0
 43 44  1  0  0  0
 44116  1  0  0  0
 45 46  2  0  0  0
 45117  1  0  0  0
 46118  1  0  0  0
 47119  1  0  0  0
 47120  1  0  0  0
 48 56  1  0  0  0
 48 65  1  0  0  0
 48121  1  0  0  0
 49 50  1  0  0  0
 49 53  1  0  0  0
 49 64  1  0  0  0
 49122  1  0  0  0
 50 51  1  0  0  0
 50123  1  0  0  0
 50124  1  0  0  0
 51 52  1  0  0  0
 51125  1  0  0  0
 51126  1  0  0  0
 52127  1  0  0  0
 52128  1  0  0  0
 53 54  1  0  0  0
 54 55  2  0  0  0
 54129  1  0  0  0
 55 57  1  0  0  0
 55130  1  0  0  0
 56 69  2  0  0  0
 57 58  2  0  0  0
 57131  1  0  0  0
 58132  1  0  0  0
 59 60  1  0  0  0
 59 61  1  0  0  0
 59 62  1  0  0  0
 60133  1  0  0  0
 60134  1  0  0  0
 60135  1  0  0  0
 61136  1  0  0  0
 61137  1  0  0  0
 61138  1  0  0  0
 62139  1  0  0  0
 62140  1  0  0  0
 62141  1  0  0  0
 63 65  1  0  0  0
 63142  1  0  0  0
 63143  1  0  0  0
 63144  1  0  0  0
 64145  1  0  0  0
 65146  1  0  0  0
 68 80  1  0  0  0
 71 73  2  0  0  0
 71 75  1  0  0  0
 71147  1  0  0  0
 72 74  2  0  0  0
 72 85  1  0  0  0
 72148  1  0  0  0
 73 74  1  0  0  0
 73 78  1  0  0  0
 74 79  1  0  0  0
 75 80  1  0  0  0
 75 85  2  0  0  0
 76149  1  0  0  0
 76150  1  0  0  0
 76151  1  0  0  0
 76 84  1  0  0  0
 77 84  1  0  0  0
 77152  1  0  0  0
 77153  1  0  0  0
 77154  1  0  0  0
 78 84  1  0  0  0
 78155  1  0  0  0
 78156  1  0  0  0
 79 82  1  0  0  0
 79157  1  0  0  0
 79158  1  0  0  0
 80159  1  0  0  0
 80160  1  0  0  0
 81 83  1  0  0  0
 81 86  1  0  0  0
 81161  1  0  0  0
 81162  1  0  0  0
 82 87  1  0  0  0
 82163  1  0  0  0
 82164  1  0  0  0
 83 87  1  0  0  0
 83165  1  0  0  0
 83166  1  0  0  0
 84167  1  0  0  0
 86168  1  0  0  0
 87169  1  0  0  0
 87170  1  0  0  0
M  CHG  1  87   1
M  ISO  4   1 100  68 101  80 101  86 100
M  END
> <chiral flag>
0

> <version>
0

> <s_m_source_file>
/data/baiqing/PycharmProjects/Reinvent-master-3.2/result/LINK_invent/BTK/process_docking_weight1_custom_sum_contain_oxygen_bond_distance_aromatic_linkinvent_7_9_3/rearranged_h_0115.sdf

> <i_m_source_file_index>
70

> <r_mmod_Potential_Energy-OPLS-2005>
9931.84765625

> <r_mmod_Stretch_Energy-OPLS-2005>
6034.92236328125

> <r_mmod_Bend_Energy-OPLS-2005>
751.967346191406

> <r_mmod_Torsional_Energy-OPLS-2005>
485.056823730469

> <r_mmod_Improper_Torsional_Energy-OPLS-2005>
55.2695770263672

> <r_mmod_Van_der_Waal_Energy-OPLS-2005>
2512.740234375

> <r_mmod_Electrostatic_Energy-OPLS-2005>
-450.327667236328

> <r_mmod_Solvation_Energy-OPLS-2005>
-487.319366455078

> <b_mmod_Minimization_Converged-OPLS-2005>
0

> <r_mmod_RMS_Derivative-OPLS-2005>
23.3679504394531

$$$$
70
                    3D
 Structure written by MMmdl.
161169  0  0  1  0            999 V2000
  -30.5075  -14.8245   20.4507 C   0  0  0  0  0  0
  -30.4508  -12.5127   19.4782 C   0  0  0  0  0  0
  -29.5171  -12.4824   18.2474 C   0  0  0  0  0  0
  -28.0507  -12.2763   18.6778 C   0  0  0  0  0  0
  -27.6329  -13.2143   19.8381 C   0  0  2  0  0  0
  -28.6679  -13.1734   20.9784 C   0  0  0  0  0  0
  -25.2519  -13.8165   20.5681 C   0  0  0  0  0  0
  -24.1782  -13.0419   20.9224 C   0  0  0  0  0  0
  -24.6335  -11.6899   20.8764 C   0  0  0  0  0  0
  -23.9014  -10.4269   21.0423 C   0  0  0  0  0  0
  -24.3569   -9.4187   21.9199 C   0  0  0  0  0  0
  -23.6253   -8.2221   22.0760 C   0  0  0  0  0  0
  -22.4253   -8.0259   21.3534 C   0  0  0  0  0  0
  -21.9874   -9.0231   20.4639 C   0  0  0  0  0  0
  -22.7191  -10.2117   20.3057 C   0  0  0  0  0  0
  -21.6840   -6.0710   22.5261 C   0  0  0  0  0  0
  -21.4000   -6.5617   23.8191 C   0  0  0  0  0  0
  -21.3650   -5.6776   24.9160 C   0  0  0  0  0  0
  -21.6056   -4.3042   24.7219 C   0  0  0  0  0  0
  -21.8825   -3.8129   23.4340 C   0  0  0  0  0  0
  -21.9190   -4.6940   22.3391 C   0  0  0  0  0  0
  -22.7822  -13.5250   21.1866 C   0  0  0  0  0  0
  -22.1667   -4.2122   21.0972 F   0  0  0  0  0  0
  -21.5632   -3.4531   25.7734 F   0  0  0  0  0  0
  -29.9526  -13.5655   20.3914 N   0  0  0  0  0  0
  -26.2866  -12.9295   20.3202 N   0  0  0  0  0  0
  -25.9244  -11.6466   20.5738 N   0  0  0  0  0  0
  -22.0430  -12.8238   22.0403 N   0  0  0  0  0  0
  -25.4314  -15.1852   20.4064 N   0  0  0  0  0  0
  -31.7114  -14.9672   20.2085 O   0  0  0  0  0  0
  -21.6633   -6.8851   21.4224 O   0  0  0  0  0  0
  -22.3530  -14.5559   20.6710 O   0  0  0  0  0  0
  -24.6357  -31.8520   23.1962 C   0  0  0  0  0  0
  -25.9174  -32.4728   23.8298 C   0  0  1  0  0  0
  -27.1734  -27.2016   20.1322 C   0  0  0  0  0  0
  -25.5965  -33.8542   24.2252 N   0  0  0  0  0  0
  -23.4332  -30.4745   21.5422 C   0  0  2  0  0  0
  -24.8677  -28.9171   20.0895 C   0  0  0  0  0  0
  -22.7537  -29.4566   22.4892 C   0  0  0  0  0  0
  -18.0316  -28.1380   22.8505 C   0  0  0  0  0  0
  -24.1463  -36.7282   23.2615 C   0  0  0  0  0  0
  -25.9755  -30.7460   21.3777 C   0  0  0  0  0  0
  -26.0361  -29.3613   20.7219 C   0  0  0  0  0  0
  -27.1883  -28.5076   20.7432 C   0  0  0  0  0  0
  -26.0039  -26.8502   19.4415 C   0  0  0  0  0  0
  -24.8619  -27.6770   19.4302 C   0  0  0  0  0  0
  -23.6459  -29.8154   20.1526 C   0  0  0  0  0  0
  -25.4083  -36.3055   24.0314 C   0  0  1  0  0  0
  -20.5918  -28.3703   23.1262 C   0  0  2  0  0  0
  -20.6802  -26.9424   22.5400 C   0  0  0  0  0  0
  -19.5767  -26.6408   21.5202 C   0  0  0  0  0  0
  -18.1960  -26.7935   22.1617 C   0  0  0  0  0  0
  -19.1571  -28.8859   23.2879 C   0  0  0  0  0  0
  -18.9480  -30.1460   23.8893 C   0  0  0  0  0  0
  -17.6472  -30.6573   24.0584 C   0  0  0  0  0  0
  -25.9045  -34.9435   23.5087 C   0  0  0  0  0  0
  -16.5369  -29.9088   23.6312 C   0  0  0  0  0  0
  -16.7295  -28.6500   23.0356 C   0  0  0  0  0  0
  -26.4528  -31.6541   25.0672 C   0  0  0  0  0  0
  -25.3698  -31.3709   26.1373 C   0  0  0  0  0  0
  -27.0352  -30.2948   24.6121 C   0  0  0  0  0  0
  -27.6104  -32.4270   25.7435 C   0  0  0  0  0  0
  -27.5606  -37.1743   24.8420 C   0  0  0  0  0  0
  -21.4235  -29.3041   22.3642 N   0  0  0  0  0  0
  -26.4249  -37.3796   23.9465 N   0  0  0  0  0  0
  -24.7027  -31.0416   22.0984 N   0  0  0  0  0  0
  -23.4228  -28.8115   23.3004 O   0  0  0  0  0  0
  -28.2157  -26.2567   20.2979 O   0  0  0  0  0  0
  -26.5615  -34.8924   22.4659 O   0  0  0  0  0  0
  -23.5491  -32.1386   23.7230 O   0  0  0  0  0  0
  -28.6568  -19.6866   22.6075 C   0  0  0  0  0  0
  -28.5502  -19.9614   21.2292 C   0  0  0  0  0  0
  -26.5530  -21.2216   21.7815 C   0  0  0  0  0  0
  -27.6832  -21.1197   20.8994 C   0  0  0  0  0  0
  -26.6545  -20.6916   23.0883 C   0  0  0  0  0  0
  -27.7037  -23.4778   19.8622 C   0  0  0  0  0  0
  -25.2510  -21.9396   21.4264 C   0  0  0  0  0  0
  -25.5607  -20.8445   24.1349 C   0  0  0  0  0  0
  -26.4397  -23.3227   19.0179 C   0  0  0  0  0  0
  -28.9146  -18.6633   20.3219 C   0  0  0  0  0  0
  -28.4086  -24.9309   19.5778 C   0  0  0  0  0  0
  -29.8761  -17.4141   20.8742 C   0  0  0  0  0  0
  -27.7496  -20.0563   23.5217 N   0  0  0  0  0  0
  -28.2377  -22.4373   20.5092 N   0  0  0  0  0  0
  -29.6380  -15.9127   20.5942 N   0  0  0  0  0  0
  -31.4779  -12.7017   19.1631 H   0  0  0  0  0  0
  -30.4656  -11.5520   19.9911 H   0  0  0  0  0  0
  -29.8223  -11.6810   17.5722 H   0  0  0  0  0  0
  -29.6083  -13.4139   17.6870 H   0  0  0  0  0  0
  -27.9562  -11.2408   19.0073 H   0  0  0  0  0  0
  -27.3784  -12.3854   17.8277 H   0  0  0  0  0  0
  -27.6193  -14.2212   19.4191 H   0  0  0  0  0  0
  -28.7336  -12.1756   21.4134 H   0  0  0  0  0  0
  -28.3810  -13.8448   21.7899 H   0  0  0  0  0  0
  -25.2687   -9.5688   22.4794 H   0  0  0  0  0  0
  -23.9953   -7.4621   22.7487 H   0  0  0  0  0  0
  -21.0807   -8.8730   19.8947 H   0  0  0  0  0  0
  -22.3622  -10.9656   19.6178 H   0  0  0  0  0  0
  -21.1983   -7.6127   23.9679 H   0  0  0  0  0  0
  -21.1478   -6.0515   25.9061 H   0  0  0  0  0  0
  -22.0622   -2.7590   23.2848 H   0  0  0  0  0  0
  -22.4002  -11.9887   22.4794 H   0  0  0  0  0  0
  -21.1057  -13.1315   22.2594 H   0  0  0  0  0  0
  -24.6692  -15.8477   20.5032 H   0  0  0  0  0  0
  -26.2708  -15.6041   20.0265 H   0  0  0  0  0  0
  -26.7253  -32.5375   23.1026 H   0  0  0  0  0  0
  -25.0090  -33.9661   25.0396 H   0  0  0  0  0  0
  -22.7296  -31.2973   21.4031 H   0  0  0  0  0  0
  -23.3749  -35.9571   23.3134 H   0  0  0  0  0  0
  -24.3576  -36.9089   22.2062 H   0  0  0  0  0  0
  -23.7196  -37.6435   23.6718 H   0  0  0  0  0  0
  -26.0933  -31.4949   20.5924 H   0  0  0  0  0  0
  -26.8670  -30.8139   21.9906 H   0  0  0  0  0  0
  -28.0710  -28.8168   21.2859 H   0  0  0  0  0  0
  -25.9339  -25.8986   18.9485 H   0  0  0  0  0  0
  -23.9766  -27.3321   18.9120 H   0  0  0  0  0  0
  -23.7828  -30.5998   19.4072 H   0  0  0  0  0  0
  -22.7586  -29.2609   19.8414 H   0  0  0  0  0  0
  -25.1247  -36.1868   25.0796 H   0  0  0  0  0  0
  -21.0008  -28.3291   24.1380 H   0  0  0  0  0  0
  -20.5738  -26.2310   23.3610 H   0  0  0  0  0  0
  -21.6671  -26.7477   22.1182 H   0  0  0  0  0  0
  -19.6919  -25.6328   21.1237 H   0  0  0  0  0  0
  -19.6698  -27.3202   20.6718 H   0  0  0  0  0  0
  -17.4252  -26.6720   21.3998 H   0  0  0  0  0  0
  -18.0325  -26.0052   22.8976 H   0  0  0  0  0  0
  -19.7945  -30.7299   24.2264 H   0  0  0  0  0  0
  -17.5014  -31.6236   24.5210 H   0  0  0  0  0  0
  -15.5366  -30.2989   23.7611 H   0  0  0  0  0  0
  -15.8704  -28.0815   22.7055 H   0  0  0  0  0  0
  -24.5918  -30.7001   25.7682 H   0  0  0  0  0  0
  -24.8803  -32.2880   26.4647 H   0  0  0  0  0  0
  -25.7980  -30.9013   27.0241 H   0  0  0  0  0  0
  -26.2901  -29.6689   24.1186 H   0  0  0  0  0  0
  -27.4096  -29.7211   25.4615 H   0  0  0  0  0  0
  -27.8758  -30.4208   23.9284 H   0  0  0  0  0  0
  -27.2790  -33.3691   26.1798 H   0  0  0  0  0  0
  -28.3999  -32.6651   25.0274 H   0  0  0  0  0  0
  -28.0609  -31.8510   26.5509 H   0  0  0  0  0  0
  -28.2448  -38.0215   24.7779 H   0  0  0  0  0  0
  -28.1330  -36.2810   24.5873 H   0  0  0  0  0  0
  -27.2393  -37.0940   25.8826 H   0  0  0  0  0  0
  -20.9409  -29.8803   21.6888 H   0  0  0  0  0  0
  -26.0102  -38.2813   24.1685 H   0  0  0  0  0  0
  -29.3652  -18.9871   23.0091 H   0  0  0  0  0  0
  -24.9161  -21.6665   20.4272 H   0  0  0  0  0  0
  -25.3642  -23.0165   21.5229 H   0  0  0  0  0  0
  -24.4091  -21.6737   22.0648 H   0  0  0  0  0  0
  -24.6553  -20.3209   23.8275 H   0  0  0  0  0  0
  -25.3160  -21.8939   24.2906 H   0  0  0  0  0  0
  -25.8595  -20.4287   25.0957 H   0  0  0  0  0  0
  -26.5043  -23.9047   18.1004 H   0  0  0  0  0  0
  -25.5514  -23.6721   19.5328 H   0  0  0  0  0  0
  -26.2996  -22.2808   18.7202 H   0  0  0  0  0  0
  -29.3432  -19.0402   19.3919 H   0  0  0  0  0  0
  -27.9549  -18.2374   20.0238 H   0  0  0  0  0  0
  -28.3534  -25.1332   18.5067 H   0  0  0  0  0  0
  -29.4686  -24.7425   19.7504 H   0  0  0  0  0  0
  -29.8361  -17.3812   21.9569 H   0  0  0  0  0  0
  -30.9153  -17.6559   20.6478 H   0  0  0  0  0  0
  -28.6822  -15.6215   20.7276 H   0  0  0  0  0  0
  1 25  1  0  0  0
  1 30  2  0  0  0
  1 85  1  0  0  0
  2  3  1  0  0  0
  2 25  1  0  0  0
  2 86  1  0  0  0
  2 87  1  0  0  0
  3  4  1  0  0  0
  3 88  1  0  0  0
  3 89  1  0  0  0
  4  5  1  0  0  0
  4 90  1  0  0  0
  4 91  1  0  0  0
  5  6  1  0  0  0
  5 26  1  0  0  0
  5 92  1  0  0  0
  6 25  1  0  0  0
  6 93  1  0  0  0
  6 94  1  0  0  0
  7  8  2  0  0  0
  7 26  1  0  0  0
  7 29  1  0  0  0
  8  9  1  0  0  0
  8 22  1  0  0  0
  9 10  1  0  0  0
  9 27  2  0  0  0
 10 11  2  0  0  0
 10 15  1  0  0  0
 11 12  1  0  0  0
 11 95  1  0  0  0
 12 13  2  0  0  0
 12 96  1  0  0  0
 13 14  1  0  0  0
 13 31  1  0  0  0
 14 15  2  0  0  0
 14 97  1  0  0  0
 15 98  1  0  0  0
 16 17  2  0  0  0
 16 21  1  0  0  0
 16 31  1  0  0  0
 17 18  1  0  0  0
 17 99  1  0  0  0
 18 19  2  0  0  0
 18100  1  0  0  0
 19 20  1  0  0  0
 19 24  1  0  0  0
 20 21  2  0  0  0
 20101  1  0  0  0
 21 23  1  0  0  0
 22 28  1  0  0  0
 22 32  2  0  0  0
 26 27  1  0  0  0
 28102  1  0  0  0
 28103  1  0  0  0
 29104  1  0  0  0
 29105  1  0  0  0
 33 34  1  0  0  0
 33 66  1  0  0  0
 33 70  2  0  0  0
 34 36  1  0  0  0
 34 59  1  0  0  0
 34106  1  0  0  0
 35 44  2  0  0  0
 35 45  1  0  0  0
 35 68  1  0  0  0
 36 56  1  0  0  0
 36107  1  0  0  0
 37 39  1  0  0  0
 37 47  1  0  0  0
 37 66  1  0  0  0
 37108  1  0  0  0
 38 43  2  0  0  0
 38 46  1  0  0  0
 38 47  1  0  0  0
 39 64  1  0  0  0
 39 67  2  0  0  0
 40 52  1  0  0  0
 40 53  2  0  0  0
 40 58  1  0  0  0
 41109  1  0  0  0
 41110  1  0  0  0
 41111  1  0  0  0
 41 48  1  0  0  0
 42 43  1  0  0  0
 42 66  1  0  0  0
 42112  1  0  0  0
 42113  1  0  0  0
 43 44  1  0  0  0
 44114  1  0  0  0
 45 46  2  0  0  0
 45115  1  0  0  0
 46116  1  0  0  0
 47117  1  0  0  0
 47118  1  0  0  0
 48 56  1  0  0  0
 48 65  1  0  0  0
 48119  1  0  0  0
 49 50  1  0  0  0
 49 53  1  0  0  0
 49 64  1  0  0  0
 49120  1  0  0  0
 50 51  1  0  0  0
 50121  1  0  0  0
 50122  1  0  0  0
 51 52  1  0  0  0
 51123  1  0  0  0
 51124  1  0  0  0
 52125  1  0  0  0
 52126  1  0  0  0
 53 54  1  0  0  0
 54 55  2  0  0  0
 54127  1  0  0  0
 55 57  1  0  0  0
 55128  1  0  0  0
 56 69  2  0  0  0
 57 58  2  0  0  0
 57129  1  0  0  0
 58130  1  0  0  0
 59 60  1  0  0  0
 59 61  1  0  0  0
 59 62  1  0  0  0
 60131  1  0  0  0
 60132  1  0  0  0
 60133  1  0  0  0
 61134  1  0  0  0
 61135  1  0  0  0
 61136  1  0  0  0
 62137  1  0  0  0
 62138  1  0  0  0
 62139  1  0  0  0
 63 65  1  0  0  0
 63140  1  0  0  0
 63141  1  0  0  0
 63142  1  0  0  0
 64143  1  0  0  0
 65144  1  0  0  0
 68 81  1  0  0  0
 71 72  2  0  0  0
 71 83  1  0  0  0
 71145  1  0  0  0
 72 74  1  0  0  0
 72 80  1  0  0  0
 73 74  2  0  0  0
 73 75  1  0  0  0
 73 77  1  0  0  0
 74 84  1  0  0  0
 75 78  1  0  0  0
 75 83  2  0  0  0
 76 79  1  0  0  0
 76 81  1  0  0  0
 76 84  2  0  0  0
 77146  1  0  0  0
 77147  1  0  0  0
 77148  1  0  0  0
 78149  1  0  0  0
 78150  1  0  0  0
 78151  1  0  0  0
 79152  1  0  0  0
 79153  1  0  0  0
 79154  1  0  0  0
 80 82  1  0  0  0
 80155  1  0  0  0
 80156  1  0  0  0
 81157  1  0  0  0
 81158  1  0  0  0
 82 85  1  0  0  0
 82159  1  0  0  0
 82160  1  0  0  0
 85161  1  0  0  0
M  ISO  4   1 100  68 101  81 101  85 100
M  END
> <chiral flag>
0

> <version>
0

> <s_m_source_file>
/data/baiqing/PycharmProjects/Reinvent-master-3.2/result/LINK_invent/BTK/process_docking_weight1_custom_sum_contain_oxygen_bond_distance_aromatic_linkinvent_7_9_3/rearranged_h_0115.sdf

> <i_m_source_file_index>
71

> <r_mmod_Potential_Energy-OPLS-2005>
363.825561523438

> <r_mmod_Stretch_Energy-OPLS-2005>
187.877395629883

> <r_mmod_Bend_Energy-OPLS-2005>
272.466003417969

> <r_mmod_Torsional_Energy-OPLS-2005>
406.046691894531

> <r_mmod_Improper_Torsional_Energy-OPLS-2005>
30.5918445587158

> <r_mmod_Van_der_Waal_Energy-OPLS-2005>
161.831497192383

> <r_mmod_Electrostatic_Energy-OPLS-2005>
-593.037475585938

> <r_mmod_Solvation_Energy-OPLS-2005>
-243.317565917969

> <b_mmod_Minimization_Converged-OPLS-2005>
0

> <r_mmod_RMS_Derivative-OPLS-2005>
5.4632716178894

$$$$
71
                    3D
 Structure written by MMmdl.
164172  0  0  1  0            999 V2000
  -30.6790  -14.4723   20.5808 C   0  0  0  0  0  0
  -30.4294  -12.3206   19.4123 C   0  0  0  0  0  0
  -29.4983  -12.5298   18.2013 C   0  0  0  0  0  0
  -28.0174  -12.3816   18.6076 C   0  0  0  0  0  0
  -27.6619  -13.2044   19.8758 C   0  0  2  0  0  0
  -28.7009  -12.9696   20.9937 C   0  0  0  0  0  0
  -25.2596  -13.8150   20.5648 C   0  0  0  0  0  0
  -24.1842  -13.0418   20.9163 C   0  0  0  0  0  0
  -24.6404  -11.6902   20.8691 C   0  0  0  0  0  0
  -23.9079  -10.4287   21.0368 C   0  0  0  0  0  0
  -24.3633   -9.4208   21.9144 C   0  0  0  0  0  0
  -23.6307   -8.2244   22.0747 C   0  0  0  0  0  0
  -22.4286   -8.0278   21.3542 C   0  0  0  0  0  0
  -21.9914   -9.0244   20.4637 C   0  0  0  0  0  0
  -22.7245  -10.2126   20.3030 C   0  0  0  0  0  0
  -21.6875   -6.0740   22.5274 C   0  0  0  0  0  0
  -21.4021   -6.5632   23.8207 C   0  0  0  0  0  0
  -21.3656   -5.6776   24.9162 C   0  0  0  0  0  0
  -21.6051   -4.3046   24.7206 C   0  0  0  0  0  0
  -21.8830   -3.8149   23.4328 C   0  0  0  0  0  0
  -21.9199   -4.6971   22.3392 C   0  0  0  0  0  0
  -22.7861  -13.5216   21.1845 C   0  0  0  0  0  0
  -22.1668   -4.2164   21.0965 F   0  0  0  0  0  0
  -21.5636   -3.4525   25.7716 F   0  0  0  0  0  0
  -30.0302  -13.2861   20.4455 N   0  0  0  0  0  0
  -26.3024  -12.9297   20.3340 N   0  0  0  0  0  0
  -25.9327  -11.6459   20.5734 N   0  0  0  0  0  0
  -22.0529  -12.8185   22.0406 N   0  0  0  0  0  0
  -25.4305  -15.1853   20.3976 N   0  0  0  0  0  0
  -31.8151  -14.6671   20.1410 O   0  0  0  0  0  0
  -21.6654   -6.8874   21.4229 O   0  0  0  0  0  0
  -22.3532  -14.5536   20.6722 O   0  0  0  0  0  0
  -24.6168  -31.8707   23.2135 C   0  0  0  0  0  0
  -25.9067  -32.4847   23.8416 C   0  0  1  0  0  0
  -27.2178  -27.4393   20.0755 C   0  0  0  0  0  0
  -25.5952  -33.8652   24.2351 N   0  0  0  0  0  0
  -23.4037  -30.4996   21.5513 C   0  0  2  0  0  0
  -24.8458  -28.9681   20.1064 C   0  0  0  0  0  0
  -22.7400  -29.4696   22.4950 C   0  0  0  0  0  0
  -18.0278  -28.1403   22.8496 C   0  0  0  0  0  0
  -24.1494  -36.7327   23.2637 C   0  0  0  0  0  0
  -25.9341  -30.8334   21.3658 C   0  0  0  0  0  0
  -26.0083  -29.4713   20.7067 C   0  0  0  0  0  0
  -27.1999  -28.7117   20.6914 C   0  0  0  0  0  0
  -26.0478  -26.9582   19.4561 C   0  0  0  0  0  0
  -24.8597  -27.7106   19.4785 C   0  0  0  0  0  0
  -23.6107  -29.8382   20.1634 C   0  0  0  0  0  0
  -25.4124  -36.3131   24.0330 C   0  0  1  0  0  0
  -20.5877  -28.3694   23.1297 C   0  0  2  0  0  0
  -20.6783  -26.9429   22.5405 C   0  0  0  0  0  0
  -19.5753  -26.6398   21.5214 C   0  0  0  0  0  0
  -18.1923  -26.7960   22.1614 C   0  0  0  0  0  0
  -19.1528  -28.8856   23.2915 C   0  0  0  0  0  0
  -18.9463  -30.1451   23.8937 C   0  0  0  0  0  0
  -17.6465  -30.6614   24.0567 C   0  0  0  0  0  0
  -25.9046  -34.9499   23.5120 C   0  0  0  0  0  0
  -16.5357  -29.9121   23.6326 C   0  0  0  0  0  0
  -16.7261  -28.6539   23.0354 C   0  0  0  0  0  0
  -26.4491  -31.6650   25.0756 C   0  0  0  0  0  0
  -25.3741  -31.3764   26.1492 C   0  0  0  0  0  0
  -27.0360  -30.3113   24.6151 C   0  0  0  0  0  0
  -27.6078  -32.4389   25.7506 C   0  0  0  0  0  0
  -27.5587  -37.1817   24.8457 C   0  0  0  0  0  0
  -21.4125  -29.3081   22.3694 N   0  0  0  0  0  0
  -26.4308  -37.3814   23.9396 N   0  0  0  0  0  0
  -24.6718  -31.0794   22.1041 N   0  0  0  0  0  0
  -23.4163  -28.8187   23.2953 O   0  0  0  0  0  0
  -28.3576  -26.6712   20.0776 O   0  0  0  0  0  0
  -26.5548  -34.8922   22.4643 O   0  0  0  0  0  0
  -23.5369  -32.1480   23.7509 O   0  0  0  0  0  0
  -31.2689  -17.4973   18.8647 C   0  0  0  0  0  0
  -30.3137  -17.6831   19.9052 C   0  0  0  0  0  0
  -29.5470  -18.7375   19.4566 C   0  0  0  0  0  0
  -28.7909  -19.4513   16.1158 C   0  0  0  0  0  0
  -26.7840  -22.9113   21.9979 C   0  0  0  0  0  0
  -30.2586  -16.8984   21.2097 C   0  0  0  0  0  0
  -28.3572  -19.4353   20.0659 C   0  0  0  0  0  0
  -28.0802  -24.1637   20.1434 C   0  0  0  0  0  0
  -29.5847  -20.0903   17.2621 C   0  0  0  0  0  0
  -28.2686  -25.5025   20.9062 C   0  0  0  0  0  0
  -28.0391  -22.9454   21.1050 C   0  0  2  0  0  0
  -31.1063  -18.3338   17.8574 N   0  0  0  0  0  0
  -28.6866  -20.7760   20.6289 N   0  0  0  0  0  0
  -27.9231  -21.7047   20.2854 N   0  0  0  0  0  0
  -30.0454  -19.0887   18.2095 N   0  0  0  0  0  0
  -29.9305  -15.4709   21.0832 N   0  0  0  0  0  0
  -31.4711  -12.4432   19.1088 H   0  0  0  0  0  0
  -30.3493  -11.3031   19.7971 H   0  0  0  0  0  0
  -29.7480  -11.8200   17.4102 H   0  0  0  0  0  0
  -29.6634  -13.5238   17.7810 H   0  0  0  0  0  0
  -27.8199  -11.3234   18.7751 H   0  0  0  0  0  0
  -27.3713  -12.6776   17.7816 H   0  0  0  0  0  0
  -27.7111  -14.2567   19.5922 H   0  0  0  0  0  0
  -28.6798  -11.9296   21.3203 H   0  0  0  0  0  0
  -28.4598  -13.5552   21.8819 H   0  0  0  0  0  0
  -25.2789   -9.5681   22.4702 H   0  0  0  0  0  0
  -24.0042   -7.4625   22.7442 H   0  0  0  0  0  0
  -21.0872   -8.8722   19.8914 H   0  0  0  0  0  0
  -22.3691  -10.9646   19.6127 H   0  0  0  0  0  0
  -21.2010   -7.6143   23.9702 H   0  0  0  0  0  0
  -21.1480   -6.0514   25.9062 H   0  0  0  0  0  0
  -22.0626   -2.7618   23.2814 H   0  0  0  0  0  0
  -22.4186  -11.9839   22.4762 H   0  0  0  0  0  0
  -21.1126  -13.1144   22.2612 H   0  0  0  0  0  0
  -24.6594  -15.8382   20.4862 H   0  0  0  0  0  0
  -26.2777  -15.6168   20.0483 H   0  0  0  0  0  0
  -26.7116  -32.5552   23.1157 H   0  0  0  0  0  0
  -25.0287  -33.9873   25.0620 H   0  0  0  0  0  0
  -22.6969  -31.3209   21.4139 H   0  0  0  0  0  0
  -23.3756  -35.9657   23.3334 H   0  0  0  0  0  0
  -24.3574  -36.8922   22.2040 H   0  0  0  0  0  0
  -23.7241  -37.6534   23.6642 H   0  0  0  0  0  0
  -26.0482  -31.5996   20.5980 H   0  0  0  0  0  0
  -26.8232  -30.8847   21.9834 H   0  0  0  0  0  0
  -28.0978  -29.0850   21.1626 H   0  0  0  0  0  0
  -26.0499  -26.0094   18.9429 H   0  0  0  0  0  0
  -23.9671  -27.3257   19.0048 H   0  0  0  0  0  0
  -23.7195  -30.6190   19.4101 H   0  0  0  0  0  0
  -22.7324  -29.2644   19.8632 H   0  0  0  0  0  0
  -25.1297  -36.2011   25.0820 H   0  0  0  0  0  0
  -20.9994  -28.3267   24.1407 H   0  0  0  0  0  0
  -20.5724  -26.2297   23.3596 H   0  0  0  0  0  0
  -21.6650  -26.7509   22.1166 H   0  0  0  0  0  0
  -19.6935  -25.6307   21.1262 H   0  0  0  0  0  0
  -19.6710  -27.3196   20.6737 H   0  0  0  0  0  0
  -17.4208  -26.6723   21.3994 H   0  0  0  0  0  0
  -18.0299  -26.0098   22.9002 H   0  0  0  0  0  0
  -19.7934  -30.7252   24.2339 H   0  0  0  0  0  0
  -17.5029  -31.6300   24.5158 H   0  0  0  0  0  0
  -15.5366  -30.3036   23.7651 H   0  0  0  0  0  0
  -15.8655  -28.0868   22.7059 H   0  0  0  0  0  0
  -24.5914  -30.7126   25.7797 H   0  0  0  0  0  0
  -24.8924  -32.2928   26.4924 H   0  0  0  0  0  0
  -25.8061  -30.8929   27.0261 H   0  0  0  0  0  0
  -26.2924  -29.6821   24.1251 H   0  0  0  0  0  0
  -27.4198  -29.7414   25.4616 H   0  0  0  0  0  0
  -27.8713  -30.4462   23.9276 H   0  0  0  0  0  0
  -27.2733  -33.3714   26.2063 H   0  0  0  0  0  0
  -28.3885  -32.6924   25.0324 H   0  0  0  0  0  0
  -28.0749  -31.8536   26.5432 H   0  0  0  0  0  0
  -28.2605  -38.0115   24.7528 H   0  0  0  0  0  0
  -28.1085  -36.2652   24.6274 H   0  0  0  0  0  0
  -27.2296  -37.1450   25.8855 H   0  0  0  0  0  0
  -20.9260  -29.8850   21.6977 H   0  0  0  0  0  0
  -26.0207  -38.2898   24.1383 H   0  0  0  0  0  0
  -32.0814  -16.7868   18.8161 H   0  0  0  0  0  0
  -28.5529  -20.1870   15.3476 H   0  0  0  0  0  0
  -27.8533  -19.0303   16.4789 H   0  0  0  0  0  0
  -29.3577  -18.6486   15.6426 H   0  0  0  0  0  0
  -26.7348  -23.7667   22.6701 H   0  0  0  0  0  0
  -26.7842  -22.0240   22.6320 H   0  0  0  0  0  0
  -25.8676  -22.9024   21.4043 H   0  0  0  0  0  0
  -29.5243  -17.3338   21.8893 H   0  0  0  0  0  0
  -31.2097  -16.9780   21.7382 H   0  0  0  0  0  0
  -27.9701  -18.8196   20.8756 H   0  0  0  0  0  0
  -27.5453  -19.4958   19.3383 H   0  0  0  0  0  0
  -28.9021  -24.0438   19.4363 H   0  0  0  0  0  0
  -27.1713  -24.1885   19.5413 H   0  0  0  0  0  0
  -28.9814  -20.8394   17.7731 H   0  0  0  0  0  0
  -30.4513  -20.6210   16.8643 H   0  0  0  0  0  0
  -29.1927  -25.4485   21.4822 H   0  0  0  0  0  0
  -27.4748  -25.6273   21.6457 H   0  0  0  0  0  0
  -28.9328  -22.9211   21.7349 H   0  0  0  0  0  0
  -29.0254  -15.2009   21.4381 H   0  0  0  0  0  0
  1 25  1  0  0  0
  1 30  2  0  0  0
  1 86  1  0  0  0
  2  3  1  0  0  0
  2 25  1  0  0  0
  2 87  1  0  0  0
  2 88  1  0  0  0
  3  4  1  0  0  0
  3 89  1  0  0  0
  3 90  1  0  0  0
  4  5  1  0  0  0
  4 91  1  0  0  0
  4 92  1  0  0  0
  5  6  1  0  0  0
  5 26  1  0  0  0
  5 93  1  0  0  0
  6 25  1  0  0  0
  6 94  1  0  0  0
  6 95  1  0  0  0
  7  8  2  0  0  0
  7 26  1  0  0  0
  7 29  1  0  0  0
  8  9  1  0  0  0
  8 22  1  0  0  0
  9 10  1  0  0  0
  9 27  2  0  0  0
 10 11  2  0  0  0
 10 15  1  0  0  0
 11 12  1  0  0  0
 11 96  1  0  0  0
 12 13  2  0  0  0
 12 97  1  0  0  0
 13 14  1  0  0  0
 13 31  1  0  0  0
 14 15  2  0  0  0
 14 98  1  0  0  0
 15 99  1  0  0  0
 16 17  2  0  0  0
 16 21  1  0  0  0
 16 31  1  0  0  0
 17 18  1  0  0  0
 17100  1  0  0  0
 18 19  2  0  0  0
 18101  1  0  0  0
 19 20  1  0  0  0
 19 24  1  0  0  0
 20 21  2  0  0  0
 20102  1  0  0  0
 21 23  1  0  0  0
 22 28  1  0  0  0
 22 32  2  0  0  0
 26 27  1  0  0  0
 28103  1  0  0  0
 28104  1  0  0  0
 29105  1  0  0  0
 29106  1  0  0  0
 33 34  1  0  0  0
 33 66  1  0  0  0
 33 70  2  0  0  0
 34 36  1  0  0  0
 34 59  1  0  0  0
 34107  1  0  0  0
 35 44  2  0  0  0
 35 45  1  0  0  0
 35 68  1  0  0  0
 36 56  1  0  0  0
 36108  1  0  0  0
 37 39  1  0  0  0
 37 47  1  0  0  0
 37 66  1  0  0  0
 37109  1  0  0  0
 38 43  2  0  0  0
 38 46  1  0  0  0
 38 47  1  0  0  0
 39 64  1  0  0  0
 39 67  2  0  0  0
 40 52  1  0  0  0
 40 53  2  0  0  0
 40 58  1  0  0  0
 41110  1  0  0  0
 41111  1  0  0  0
 41112  1  0  0  0
 41 48  1  0  0  0
 42 43  1  0  0  0
 42 66  1  0  0  0
 42113  1  0  0  0
 42114  1  0  0  0
 43 44  1  0  0  0
 44115  1  0  0  0
 45 46  2  0  0  0
 45116  1  0  0  0
 46117  1  0  0  0
 47118  1  0  0  0
 47119  1  0  0  0
 48 56  1  0  0  0
 48 65  1  0  0  0
 48120  1  0  0  0
 49 50  1  0  0  0
 49 53  1  0  0  0
 49 64  1  0  0  0
 49121  1  0  0  0
 50 51  1  0  0  0
 50122  1  0  0  0
 50123  1  0  0  0
 51 52  1  0  0  0
 51124  1  0  0  0
 51125  1  0  0  0
 52126  1  0  0  0
 52127  1  0  0  0
 53 54  1  0  0  0
 54 55  2  0  0  0
 54128  1  0  0  0
 55 57  1  0  0  0
 55129  1  0  0  0
 56 69  2  0  0  0
 57 58  2  0  0  0
 57130  1  0  0  0
 58131  1  0  0  0
 59 60  1  0  0  0
 59 61  1  0  0  0
 59 62  1  0  0  0
 60132  1  0  0  0
 60133  1  0  0  0
 60134  1  0  0  0
 61135  1  0  0  0
 61136  1  0  0  0
 61137  1  0  0  0
 62138  1  0  0  0
 62139  1  0  0  0
 62140  1  0  0  0
 63 65  1  0  0  0
 63141  1  0  0  0
 63142  1  0  0  0
 63143  1  0  0  0
 64144  1  0  0  0
 65145  1  0  0  0
 68 80  1  0  0  0
 71 72  1  0  0  0
 71 82  2  0  0  0
 71146  1  0  0  0
 72 73  2  0  0  0
 72 76  1  0  0  0
 73 77  1  0  0  0
 73 85  1  0  0  0
 74 79  1  0  0  0
 74147  1  0  0  0
 74148  1  0  0  0
 74149  1  0  0  0
 75150  1  0  0  0
 75151  1  0  0  0
 75152  1  0  0  0
 75 81  1  0  0  0
 76 86  1  0  0  0
 76153  1  0  0  0
 76154  1  0  0  0
 77 83  1  0  0  0
 77155  1  0  0  0
 77156  1  0  0  0
 78 80  1  0  0  0
 78 81  1  0  0  0
 78157  1  0  0  0
 78158  1  0  0  0
 79 85  1  0  0  0
 79159  1  0  0  0
 79160  1  0  0  0
 80161  1  0  0  0
 80162  1  0  0  0
 81 84  1  0  0  0
 81163  1  0  0  0
 82 85  1  0  0  0
 83 84  2  0  0  0
 86164  1  0  0  0
M  ISO  4   1 100  68 101  80 101  86 100
M  END
> <chiral flag>
0

> <version>
0

> <s_m_source_file>
/data/baiqing/PycharmProjects/Reinvent-master-3.2/result/LINK_invent/BTK/process_docking_weight1_custom_sum_contain_oxygen_bond_distance_aromatic_linkinvent_7_9_3/rearranged_h_0115.sdf

> <i_m_source_file_index>
72

> <r_mmod_Potential_Energy-OPLS-2005>
-142.77180480957

> <r_mmod_Stretch_Energy-OPLS-2005>
35.0570106506348

> <r_mmod_Bend_Energy-OPLS-2005>
92.8490219116211

> <r_mmod_Torsional_Energy-OPLS-2005>
187.522750854492

> <r_mmod_Improper_Torsional_Energy-OPLS-2005>
3.85857510566711

> <r_mmod_Van_der_Waal_Energy-OPLS-2005>
121.638206481934

> <r_mmod_Electrostatic_Energy-OPLS-2005>
-376.216644287109

> <r_mmod_Solvation_Energy-OPLS-2005>
-221.382278442383

> <b_mmod_Minimization_Converged-OPLS-2005>
0

> <r_mmod_RMS_Derivative-OPLS-2005>
3.8833212852478

$$$$
72
                    3D
 Structure written by MMmdl.
159167  0  0  1  0            999 V2000
  -30.6232  -14.8907   20.4226 C   0  0  0  0  0  0
  -30.4313  -12.5570   19.4817 C   0  0  0  0  0  0
  -29.5172  -12.5305   18.2381 C   0  0  0  0  0  0
  -28.0497  -12.3289   18.6592 C   0  0  0  0  0  0
  -27.6303  -13.2541   19.8318 C   0  0  2  0  0  0
  -28.6809  -13.2948   20.9644 C   0  0  0  0  0  0
  -25.2473  -13.8206   20.5741 C   0  0  0  0  0  0
  -24.1782  -13.0430   20.9218 C   0  0  0  0  0  0
  -24.6383  -11.6921   20.8713 C   0  0  0  0  0  0
  -23.9046  -10.4299   21.0372 C   0  0  0  0  0  0
  -24.3617   -9.4239   21.9165 C   0  0  0  0  0  0
  -23.6319   -8.2255   22.0745 C   0  0  0  0  0  0
  -22.4297   -8.0268   21.3543 C   0  0  0  0  0  0
  -21.9893   -9.0216   20.4650 C   0  0  0  0  0  0
  -22.7195  -10.2108   20.3047 C   0  0  0  0  0  0
  -21.6851   -6.0721   22.5264 C   0  0  0  0  0  0
  -21.4037   -6.5638   23.8188 C   0  0  0  0  0  0
  -21.3680   -5.6793   24.9151 C   0  0  0  0  0  0
  -21.6031   -4.3050   24.7207 C   0  0  0  0  0  0
  -21.8822   -3.8145   23.4333 C   0  0  0  0  0  0
  -21.9193   -4.6955   22.3386 C   0  0  0  0  0  0
  -22.7800  -13.5206   21.1872 C   0  0  0  0  0  0
  -22.1667   -4.2134   21.0964 F   0  0  0  0  0  0
  -21.5633   -3.4541   25.7729 F   0  0  0  0  0  0
  -29.9618  -13.6727   20.3508 N   0  0  0  0  0  0
  -26.2909  -12.9455   20.3247 N   0  0  0  0  0  0
  -25.9330  -11.6579   20.5703 N   0  0  0  0  0  0
  -22.0458  -12.8188   22.0440 N   0  0  0  0  0  0
  -25.4117  -15.1937   20.4202 N   0  0  0  0  0  0
  -31.8408  -14.8740   20.2345 O   0  0  0  0  0  0
  -21.6670   -6.8867   21.4232 O   0  0  0  0  0  0
  -22.3480  -14.5501   20.6703 O   0  0  0  0  0  0
  -24.6390  -31.8440   23.1926 C   0  0  0  0  0  0
  -25.9184  -32.4697   23.8285 C   0  0  1  0  0  0
  -27.2363  -27.1756   20.1517 C   0  0  0  0  0  0
  -25.5944  -33.8505   24.2217 N   0  0  0  0  0  0
  -23.4439  -30.4607   21.5349 C   0  0  2  0  0  0
  -24.8975  -28.8900   20.1121 C   0  0  0  0  0  0
  -22.7579  -29.4524   22.4872 C   0  0  0  0  0  0
  -18.0316  -28.1386   22.8475 C   0  0  0  0  0  0
  -24.1477  -36.7263   23.2636 C   0  0  0  0  0  0
  -25.9950  -30.7258   21.3887 C   0  0  0  0  0  0
  -26.0691  -29.3404   20.7331 C   0  0  0  0  0  0
  -27.2375  -28.4975   20.7393 C   0  0  0  0  0  0
  -26.0390  -26.8144   19.4906 C   0  0  0  0  0  0
  -24.8926  -27.6385   19.4771 C   0  0  0  0  0  0
  -23.6703  -29.7856   20.1537 C   0  0  0  0  0  0
  -25.4104  -36.3042   24.0321 C   0  0  1  0  0  0
  -20.5923  -28.3720   23.1233 C   0  0  2  0  0  0
  -20.6779  -26.9414   22.5403 C   0  0  0  0  0  0
  -19.5749  -26.6368   21.5212 C   0  0  0  0  0  0
  -18.1943  -26.7933   22.1621 C   0  0  0  0  0  0
  -19.1570  -28.8873   23.2845 C   0  0  0  0  0  0
  -18.9484  -30.1479   23.8855 C   0  0  0  0  0  0
  -17.6475  -30.6582   24.0565 C   0  0  0  0  0  0
  -25.9051  -34.9407   23.5080 C   0  0  0  0  0  0
  -16.5371  -29.9066   23.6323 C   0  0  0  0  0  0
  -16.7306  -28.6486   23.0341 C   0  0  0  0  0  0
  -26.4514  -31.6579   25.0734 C   0  0  0  0  0  0
  -25.3717  -31.3784   26.1453 C   0  0  0  0  0  0
  -27.0369  -30.2968   24.6330 C   0  0  0  0  0  0
  -27.6034  -32.4371   25.7529 C   0  0  0  0  0  0
  -27.5584  -37.1771   24.8456 C   0  0  0  0  0  0
  -21.4275  -29.3035   22.3618 N   0  0  0  0  0  0
  -26.4273  -37.3749   23.9417 N   0  0  0  0  0  0
  -24.7117  -31.0317   22.0940 N   0  0  0  0  0  0
  -23.4233  -28.8057   23.3004 O   0  0  0  0  0  0
  -28.3132  -26.2313   20.2398 O   0  0  0  0  0  0
  -26.5621  -34.8913   22.4651 O   0  0  0  0  0  0
  -23.5522  -32.1301   23.7164 O   0  0  0  0  0  0
  -30.4847  -19.2289   18.6503 C   0  0  0  0  0  0
  -31.8311  -17.7464   19.8408 C   0  0  0  0  0  0
  -29.6345  -19.0014   19.9120 C   0  0  1  0  0  0
  -30.4339  -17.6394   20.5165 C   0  0  1  0  0  0
  -28.8401  -20.3577   22.0070 C   0  0  0  0  0  0
  -29.0645  -23.4703   20.5126 C   0  0  0  0  0  0
  -28.9675  -21.9032   19.9324 C   0  0  0  0  0  0
  -28.1046  -24.7271   19.9830 C   0  0  0  0  0  0
  -29.5692  -20.5134   20.6638 C   0  0  2  0  0  0
  -29.9349  -16.1339   20.4720 N   0  0  0  0  0  0
  -31.8630  -19.0131   19.1082 N   0  3  0  0  0  0
  -31.4715  -12.6813   19.1751 H   0  0  0  0  0  0
  -30.3893  -11.6067   20.0176 H   0  0  0  0  0  0
  -29.8262  -11.7439   17.5489 H   0  0  0  0  0  0
  -29.6173  -13.4683   17.6873 H   0  0  0  0  0  0
  -27.9306  -11.2872   18.9576 H   0  0  0  0  0  0
  -27.3878  -12.4776   17.8052 H   0  0  0  0  0  0
  -27.5910  -14.2555   19.4026 H   0  0  0  0  0  0
  -28.7552  -12.3343   21.4741 H   0  0  0  0  0  0
  -28.4012  -14.0291   21.7210 H   0  0  0  0  0  0
  -25.2762   -9.5739   22.4735 H   0  0  0  0  0  0
  -24.0051   -7.4637   22.7451 H   0  0  0  0  0  0
  -21.0820   -8.8681   19.8957 H   0  0  0  0  0  0
  -22.3619  -10.9620   19.6160 H   0  0  0  0  0  0
  -21.2069   -7.6150   23.9682 H   0  0  0  0  0  0
  -21.1502   -6.0535   25.9040 H   0  0  0  0  0  0
  -22.0596   -2.7612   23.2810 H   0  0  0  0  0  0
  -22.4130  -11.9894   22.4877 H   0  0  0  0  0  0
  -21.1040  -13.1153   22.2613 H   0  0  0  0  0  0
  -24.6400  -15.8408   20.5363 H   0  0  0  0  0  0
  -26.2582  -15.6359   20.0882 H   0  0  0  0  0  0
  -26.7261  -32.5305   23.1020 H   0  0  0  0  0  0
  -25.0097  -33.9580   25.0383 H   0  0  0  0  0  0
  -22.7458  -31.2851   21.3799 H   0  0  0  0  0  0
  -23.3747  -35.9589   23.3273 H   0  0  0  0  0  0
  -24.3574  -36.8909   22.2058 H   0  0  0  0  0  0
  -23.7229  -37.6450   23.6691 H   0  0  0  0  0  0
  -26.1476  -31.4767   20.6122 H   0  0  0  0  0  0
  -26.8672  -30.7747   22.0280 H   0  0  0  0  0  0
  -28.1278  -28.8334   21.2523 H   0  0  0  0  0  0
  -25.9582  -25.8561   18.9984 H   0  0  0  0  0  0
  -23.9965  -27.2851   18.9836 H   0  0  0  0  0  0
  -23.8044  -30.5551   19.3928 H   0  0  0  0  0  0
  -22.7867  -29.2211   19.8478 H   0  0  0  0  0  0
  -25.1292  -36.1868   25.0810 H   0  0  0  0  0  0
  -21.0016  -28.3307   24.1362 H   0  0  0  0  0  0
  -20.5658  -26.2341   23.3635 H   0  0  0  0  0  0
  -21.6657  -26.7387   22.1225 H   0  0  0  0  0  0
  -19.6891  -25.6271   21.1265 H   0  0  0  0  0  0
  -19.6686  -27.3157   20.6728 H   0  0  0  0  0  0
  -17.4218  -26.6714   21.4020 H   0  0  0  0  0  0
  -18.0313  -26.0098   22.9022 H   0  0  0  0  0  0
  -19.7959  -30.7316   24.2207 H   0  0  0  0  0  0
  -17.5014  -31.6248   24.5197 H   0  0  0  0  0  0
  -15.5358  -30.2935   23.7665 H   0  0  0  0  0  0
  -15.8728  -28.0784   22.7050 H   0  0  0  0  0  0
  -24.5883  -30.7138   25.7802 H   0  0  0  0  0  0
  -24.8912  -32.2970   26.4824 H   0  0  0  0  0  0
  -25.7993  -30.9002   27.0272 H   0  0  0  0  0  0
  -26.2973  -29.6709   24.1321 H   0  0  0  0  0  0
  -27.3943  -29.7256   25.4907 H   0  0  0  0  0  0
  -27.8920  -30.4182   23.9680 H   0  0  0  0  0  0
  -27.2597  -33.3673   26.2067 H   0  0  0  0  0  0
  -28.3867  -32.6932   25.0390 H   0  0  0  0  0  0
  -28.0710  -31.8554   26.5479 H   0  0  0  0  0  0
  -28.2565  -38.0092   24.7517 H   0  0  0  0  0  0
  -28.1094  -36.2615   24.6254 H   0  0  0  0  0  0
  -27.2302  -37.1426   25.8852 H   0  0  0  0  0  0
  -20.9511  -29.8773   21.6807 H   0  0  0  0  0  0
  -26.0142  -38.2814   24.1427 H   0  0  0  0  0  0
  -30.3684  -20.2029   18.1790 H   0  0  0  0  0  0
  -30.2469  -18.4807   17.8912 H   0  0  0  0  0  0
  -31.9858  -16.9885   19.0765 H   0  0  0  0  0  0
  -32.6542  -17.6787   20.5563 H   0  0  0  0  0  0
  -28.6196  -18.7248   19.6292 H   0  0  0  0  0  0
  -30.5846  -17.8330   21.5786 H   0  0  0  0  0  0
  -29.2487  -19.5421   22.6025 H   0  0  0  0  0  0
  -27.7796  -20.1589   21.8491 H   0  0  0  0  0  0
  -28.9198  -21.2619   22.6121 H   0  0  0  0  0  0
  -30.1008  -23.7890   20.3867 H   0  0  0  0  0  0
  -28.9362  -23.4228   21.5943 H   0  0  0  0  0  0
  -29.4157  -21.9724   18.9424 H   0  0  0  0  0  0
  -27.9129  -21.7097   19.7325 H   0  0  0  0  0  0
  -27.1113  -24.4903   20.3713 H   0  0  0  0  0  0
  -28.0256  -24.6245   18.9001 H   0  0  0  0  0  0
  -30.6038  -20.7545   20.9138 H   0  0  0  0  0  0
  -28.9308  -16.0374   20.5208 H   0  0  0  0  0  0
  -32.1425  -19.7512   19.7304 H   0  0  0  0  0  0
  -32.5169  -18.9736   18.3423 H   0  0  0  0  0  0
  1 25  1  0  0  0
  1 30  2  0  0  0
  1 80  1  0  0  0
  2  3  1  0  0  0
  2 25  1  0  0  0
  2 82  1  0  0  0
  2 83  1  0  0  0
  3  4  1  0  0  0
  3 84  1  0  0  0
  3 85  1  0  0  0
  4  5  1  0  0  0
  4 86  1  0  0  0
  4 87  1  0  0  0
  5  6  1  0  0  0
  5 26  1  0  0  0
  5 88  1  0  0  0
  6 25  1  0  0  0
  6 89  1  0  0  0
  6 90  1  0  0  0
  7  8  2  0  0  0
  7 26  1  0  0  0
  7 29  1  0  0  0
  8  9  1  0  0  0
  8 22  1  0  0  0
  9 10  1  0  0  0
  9 27  2  0  0  0
 10 11  2  0  0  0
 10 15  1  0  0  0
 11 12  1  0  0  0
 11 91  1  0  0  0
 12 13  2  0  0  0
 12 92  1  0  0  0
 13 14  1  0  0  0
 13 31  1  0  0  0
 14 15  2  0  0  0
 14 93  1  0  0  0
 15 94  1  0  0  0
 16 17  2  0  0  0
 16 21  1  0  0  0
 16 31  1  0  0  0
 17 18  1  0  0  0
 17 95  1  0  0  0
 18 19  2  0  0  0
 18 96  1  0  0  0
 19 20  1  0  0  0
 19 24  1  0  0  0
 20 21  2  0  0  0
 20 97  1  0  0  0
 21 23  1  0  0  0
 22 28  1  0  0  0
 22 32  2  0  0  0
 26 27  1  0  0  0
 28 98  1  0  0  0
 28 99  1  0  0  0
 29100  1  0  0  0
 29101  1  0  0  0
 33 34  1  0  0  0
 33 66  1  0  0  0
 33 70  2  0  0  0
 34 36  1  0  0  0
 34 59  1  0  0  0
 34102  1  0  0  0
 35 44  2  0  0  0
 35 45  1  0  0  0
 35 68  1  0  0  0
 36 56  1  0  0  0
 36103  1  0  0  0
 37 39  1  0  0  0
 37 47  1  0  0  0
 37 66  1  0  0  0
 37104  1  0  0  0
 38 43  2  0  0  0
 38 46  1  0  0  0
 38 47  1  0  0  0
 39 64  1  0  0  0
 39 67  2  0  0  0
 40 52  1  0  0  0
 40 53  2  0  0  0
 40 58  1  0  0  0
 41105  1  0  0  0
 41106  1  0  0  0
 41107  1  0  0  0
 41 48  1  0  0  0
 42 43  1  0  0  0
 42 66  1  0  0  0
 42108  1  0  0  0
 42109  1  0  0  0
 43 44  1  0  0  0
 44110  1  0  0  0
 45 46  2  0  0  0
 45111  1  0  0  0
 46112  1  0  0  0
 47113  1  0  0  0
 47114  1  0  0  0
 48 56  1  0  0  0
 48 65  1  0  0  0
 48115  1  0  0  0
 49 50  1  0  0  0
 49 53  1  0  0  0
 49 64  1  0  0  0
 49116  1  0  0  0
 50 51  1  0  0  0
 50117  1  0  0  0
 50118  1  0  0  0
 51 52  1  0  0  0
 51119  1  0  0  0
 51120  1  0  0  0
 52121  1  0  0  0
 52122  1  0  0  0
 53 54  1  0  0  0
 54 55  2  0  0  0
 54123  1  0  0  0
 55 57  1  0  0  0
 55124  1  0  0  0
 56 69  2  0  0  0
 57 58  2  0  0  0
 57125  1  0  0  0
 58126  1  0  0  0
 59 60  1  0  0  0
 59 61  1  0  0  0
 59 62  1  0  0  0
 60127  1  0  0  0
 60128  1  0  0  0
 60129  1  0  0  0
 61130  1  0  0  0
 61131  1  0  0  0
 61132  1  0  0  0
 62133  1  0  0  0
 62134  1  0  0  0
 62135  1  0  0  0
 63 65  1  0  0  0
 63136  1  0  0  0
 63137  1  0  0  0
 63138  1  0  0  0
 64139  1  0  0  0
 65140  1  0  0  0
 68 78  1  0  0  0
 71 81  1  0  0  0
 71141  1  0  0  0
 71142  1  0  0  0
 71 73  1  0  0  0
 72 74  1  0  0  0
 72 81  1  0  0  0
 72143  1  0  0  0
 72144  1  0  0  0
 73 74  1  0  0  0
 73 79  1  0  0  0
 73145  1  0  0  0
 74 80  1  0  0  0
 74146  1  0  0  0
 75147  1  0  0  0
 75148  1  0  0  0
 75149  1  0  0  0
 75 79  1  0  0  0
 76 77  1  0  0  0
 76 78  1  0  0  0
 76150  1  0  0  0
 76151  1  0  0  0
 77 79  1  0  0  0
 77152  1  0  0  0
 77153  1  0  0  0
 78154  1  0  0  0
 78155  1  0  0  0
 79156  1  0  0  0
 80157  1  0  0  0
 81158  1  0  0  0
 81159  1  0  0  0
M  CHG  1  81   1
M  ISO  4   1 100  68 101  78 101  80 100
M  END
> <chiral flag>
0

> <version>
0

> <s_m_source_file>
/data/baiqing/PycharmProjects/Reinvent-master-3.2/result/LINK_invent/BTK/process_docking_weight1_custom_sum_contain_oxygen_bond_distance_aromatic_linkinvent_7_9_3/rearranged_h_0115.sdf

> <i_m_source_file_index>
73

> <r_mmod_Potential_Energy-OPLS-2005>
334.103332519531

> <r_mmod_Stretch_Energy-OPLS-2005>
250.808822631836

> <r_mmod_Bend_Energy-OPLS-2005>
286.9453125

> <r_mmod_Torsional_Energy-OPLS-2005>
287.326324462891

> <r_mmod_Improper_Torsional_Energy-OPLS-2005>
4.75478172302246

> <r_mmod_Van_der_Waal_Energy-OPLS-2005>
120.758514404297

> <r_mmod_Electrostatic_Energy-OPLS-2005>
-315.933380126953

> <r_mmod_Solvation_Energy-OPLS-2005>
-460.603698730469

> <b_mmod_Minimization_Converged-OPLS-2005>
0

> <r_mmod_RMS_Derivative-OPLS-2005>
4.37182426452637

$$$$
73
                    3D
 Structure written by MMmdl.
185193  0  0  1  0            999 V2000
  -30.7433  -14.5035   20.5022 C   0  0  0  0  0  0
  -30.4016  -12.3127   19.4381 C   0  0  0  0  0  0
  -29.4847  -12.4764   18.2111 C   0  0  0  0  0  0
  -28.0075  -12.3505   18.6275 C   0  0  0  0  0  0
  -27.6495  -13.2202   19.8627 C   0  0  2  0  0  0
  -28.6979  -13.0792   20.9900 C   0  0  0  0  0  0
  -25.2540  -13.8194   20.5697 C   0  0  0  0  0  0
  -24.1820  -13.0463   20.9196 C   0  0  0  0  0  0
  -24.6401  -11.6928   20.8773 C   0  0  0  0  0  0
  -23.9086  -10.4300   21.0411 C   0  0  0  0  0  0
  -24.3634   -9.4200   21.9164 C   0  0  0  0  0  0
  -23.6319   -8.2240   22.0727 C   0  0  0  0  0  0
  -22.4299   -8.0292   21.3537 C   0  0  0  0  0  0
  -21.9941   -9.0258   20.4616 C   0  0  0  0  0  0
  -22.7271  -10.2141   20.3044 C   0  0  0  0  0  0
  -21.6876   -6.0753   22.5286 C   0  0  0  0  0  0
  -21.4020   -6.5647   23.8209 C   0  0  0  0  0  0
  -21.3668   -5.6786   24.9171 C   0  0  0  0  0  0
  -21.6049   -4.3051   24.7209 C   0  0  0  0  0  0
  -21.8820   -3.8160   23.4320 C   0  0  0  0  0  0
  -21.9200   -4.6992   22.3393 C   0  0  0  0  0  0
  -22.7815  -13.5219   21.1868 C   0  0  0  0  0  0
  -22.1644   -4.2175   21.0966 F   0  0  0  0  0  0
  -21.5653   -3.4537   25.7721 F   0  0  0  0  0  0
  -30.0247  -13.3482   20.4158 N   0  0  0  0  0  0
  -26.2979  -12.9395   20.3355 N   0  0  0  0  0  0
  -25.9337  -11.6540   20.5817 N   0  0  0  0  0  0
  -22.0466  -12.8222   22.0428 N   0  0  0  0  0  0
  -25.4222  -15.1915   20.4025 N   0  0  0  0  0  0
  -31.9118  -14.5718   20.1200 O   0  0  0  0  0  0
  -21.6660   -6.8904   21.4241 O   0  0  0  0  0  0
  -22.3490  -14.5549   20.6729 O   0  0  0  0  0  0
  -24.6215  -31.8696   23.2162 C   0  0  0  0  0  0
  -25.9057  -32.4865   23.8470 C   0  0  1  0  0  0
  -27.2206  -27.4130   20.0288 C   0  0  0  0  0  0
  -25.5947  -33.8654   24.2344 N   0  0  0  0  0  0
  -23.4045  -30.5104   21.5609 C   0  0  2  0  0  0
  -24.8416  -28.9813   20.1329 C   0  0  0  0  0  0
  -22.7427  -29.4716   22.4963 C   0  0  0  0  0  0
  -18.0251  -28.1387   22.8512 C   0  0  0  0  0  0
  -24.1462  -36.7300   23.2632 C   0  0  0  0  0  0
  -25.9492  -30.8310   21.3718 C   0  0  0  0  0  0
  -26.0232  -29.4662   20.7094 C   0  0  0  0  0  0
  -27.2190  -28.6959   20.6490 C   0  0  0  0  0  0
  -25.9713  -26.9413   19.5363 C   0  0  0  0  0  0
  -24.8079  -27.7147   19.5559 C   0  0  0  0  0  0
  -23.6140  -29.8595   20.1744 C   0  0  0  0  0  0
  -25.4100  -36.3083   24.0311 C   0  0  1  0  0  0
  -20.5870  -28.3713   23.1324 C   0  0  2  0  0  0
  -20.6747  -26.9450   22.5422 C   0  0  0  0  0  0
  -19.5718  -26.6399   21.5236 C   0  0  0  0  0  0
  -18.1889  -26.7931   22.1627 C   0  0  0  0  0  0
  -19.1516  -28.8851   23.2916 C   0  0  0  0  0  0
  -18.9427  -30.1452   23.8960 C   0  0  0  0  0  0
  -17.6434  -30.6603   24.0584 C   0  0  0  0  0  0
  -25.9041  -34.9476   23.5080 C   0  0  0  0  0  0
  -16.5326  -29.9118   23.6326 C   0  0  0  0  0  0
  -16.7246  -28.6507   23.0385 C   0  0  0  0  0  0
  -26.4504  -31.6666   25.0793 C   0  0  0  0  0  0
  -25.3737  -31.3832   26.1524 C   0  0  0  0  0  0
  -27.0355  -30.3102   24.6166 C   0  0  0  0  0  0
  -27.6057  -32.4411   25.7573 C   0  0  0  0  0  0
  -27.5580  -37.1770   24.8464 C   0  0  0  0  0  0
  -21.4158  -29.3115   22.3762 N   0  0  0  0  0  0
  -26.4283  -37.3759   23.9410 N   0  0  0  0  0  0
  -24.6793  -31.0788   22.1082 N   0  0  0  0  0  0
  -23.4206  -28.8123   23.2880 O   0  0  0  0  0  0
  -28.3918  -26.6546   19.8763 O   0  0  0  0  0  0
  -26.5585  -34.8884   22.4607 O   0  0  0  0  0  0
  -23.5416  -32.1478   23.7540 O   0  0  0  0  0  0
  -29.8608  -18.1598   21.2263 C   0  0  0  0  0  0
  -30.8392  -17.3719   19.1132 C   0  0  0  0  0  0
  -30.5637  -19.5332   20.9966 C   0  0  0  0  0  0
  -30.6617  -17.0022   20.5988 C   0  0  2  0  0  0
  -31.5481  -18.7339   18.9002 C   0  0  1  0  0  0
  -31.6503  -18.9559   17.3725 C   0  0  0  0  0  0
  -35.2445  -24.2660   19.9490 C   0  0  0  0  0  0
  -35.9482  -21.8604   20.1826 C   0  0  0  0  0  0
  -30.3848  -25.4843   17.6718 C   0  0  0  0  0  0
  -28.5646  -23.8678   17.2117 C   0  0  0  0  0  0
  -30.4076  -22.2177   18.7032 C   0  0  0  0  0  0
  -29.9677  -23.5669   19.3637 C   0  0  0  0  0  0
  -32.5226  -21.7220   20.3199 C   0  0  0  0  0  0
  -28.2136  -25.4952   19.0142 C   0  0  0  0  0  0
  -31.4154  -21.2056   19.3485 C   0  0  1  0  0  0
  -34.7873  -22.8560   20.3730 C   0  0  0  0  0  0
  -29.3212  -24.6064   18.3623 C   0  0  0  0  0  0
  -30.8291  -19.8458   19.5769 N   0  0  0  0  0  0
  -30.0771  -15.6419   20.7928 N   0  0  0  0  0  0
  -33.5822  -22.4664   19.5930 N   0  3  0  0  0  0
  -31.4447  -12.3834   19.1305 H   0  0  0  0  0  0
  -30.2822  -11.3207   19.8802 H   0  0  0  0  0  0
  -29.7265  -11.7231   17.4581 H   0  0  0  0  0  0
  -29.6530  -13.4502   17.7490 H   0  0  0  0  0  0
  -27.8299  -11.2973   18.8487 H   0  0  0  0  0  0
  -27.3562  -12.5941   17.7861 H   0  0  0  0  0  0
  -27.6699  -14.2554   19.5253 H   0  0  0  0  0  0
  -28.6738  -12.0746   21.4141 H   0  0  0  0  0  0
  -28.4691  -13.7609   21.8099 H   0  0  0  0  0  0
  -25.2761   -9.5715   22.4745 H   0  0  0  0  0  0
  -24.0055   -7.4640   22.7461 H   0  0  0  0  0  0
  -21.0881   -8.8771   19.8896 H   0  0  0  0  0  0
  -22.3717  -10.9690   19.6173 H   0  0  0  0  0  0
  -21.1972   -7.6145   23.9716 H   0  0  0  0  0  0
  -21.1504   -6.0512   25.9072 H   0  0  0  0  0  0
  -22.0593   -2.7625   23.2810 H   0  0  0  0  0  0
  -22.4115  -11.9898   22.4809 H   0  0  0  0  0  0
  -21.1038  -13.1170   22.2572 H   0  0  0  0  0  0
  -24.6603  -15.8539   20.5098 H   0  0  0  0  0  0
  -26.2702  -15.6239   20.0580 H   0  0  0  0  0  0
  -26.7112  -32.5507   23.1245 H   0  0  0  0  0  0
  -25.0123  -33.9872   25.0509 H   0  0  0  0  0  0
  -22.6984  -31.3338   21.4329 H   0  0  0  0  0  0
  -23.3724  -35.9629   23.3283 H   0  0  0  0  0  0
  -24.3559  -36.8937   22.2054 H   0  0  0  0  0  0
  -23.7220  -37.6482   23.6694 H   0  0  0  0  0  0
  -26.0642  -31.5972   20.6060 H   0  0  0  0  0  0
  -26.8393  -30.8890   21.9874 H   0  0  0  0  0  0
  -28.1427  -29.0883   21.0538 H   0  0  0  0  0  0
  -25.8169  -25.9640   19.1050 H   0  0  0  0  0  0
  -23.8899  -27.3210   19.1474 H   0  0  0  0  0  0
  -23.7393  -30.6466   19.4319 H   0  0  0  0  0  0
  -22.7311  -29.3012   19.8541 H   0  0  0  0  0  0
  -25.1259  -36.1999   25.0821 H   0  0  0  0  0  0
  -20.9969  -28.3245   24.1435 H   0  0  0  0  0  0
  -20.5623  -26.2327   23.3609 H   0  0  0  0  0  0
  -21.6602  -26.7433   22.1217 H   0  0  0  0  0  0
  -19.6862  -25.6308   21.1256 H   0  0  0  0  0  0
  -19.6647  -27.3194   20.6765 H   0  0  0  0  0  0
  -17.4165  -26.6740   21.4039 H   0  0  0  0  0  0
  -18.0271  -26.0073   22.9022 H   0  0  0  0  0  0
  -19.7902  -30.7263   24.2386 H   0  0  0  0  0  0
  -17.4973  -31.6292   24.5194 H   0  0  0  0  0  0
  -15.5323  -30.3022   23.7635 H   0  0  0  0  0  0
  -15.8631  -28.0805   22.7136 H   0  0  0  0  0  0
  -24.5914  -30.7187   25.7892 H   0  0  0  0  0  0
  -24.8936  -32.3008   26.4899 H   0  0  0  0  0  0
  -25.8020  -30.9077   27.0331 H   0  0  0  0  0  0
  -26.2948  -29.6875   24.1148 H   0  0  0  0  0  0
  -27.4109  -29.7337   25.4628 H   0  0  0  0  0  0
  -27.8759  -30.4439   23.9353 H   0  0  0  0  0  0
  -27.2693  -33.3752   26.2070 H   0  0  0  0  0  0
  -28.3928  -32.6909   25.0457 H   0  0  0  0  0  0
  -28.0651  -31.8599   26.5577 H   0  0  0  0  0  0
  -28.2557  -38.0095   24.7487 H   0  0  0  0  0  0
  -28.1104  -36.2619   24.6284 H   0  0  0  0  0  0
  -27.2285  -37.1372   25.8856 H   0  0  0  0  0  0
  -20.9335  -29.8987   21.7111 H   0  0  0  0  0  0
  -26.0170  -38.2828   24.1399 H   0  0  0  0  0  0
  -28.8473  -18.1877   20.8263 H   0  0  0  0  0  0
  -29.7529  -17.9936   22.3003 H   0  0  0  0  0  0
  -29.8705  -17.3801   18.6098 H   0  0  0  0  0  0
  -31.4305  -16.6048   18.6128 H   0  0  0  0  0  0
  -31.4933  -19.5208   21.5617 H   0  0  0  0  0  0
  -29.9510  -20.3285   21.4270 H   0  0  0  0  0  0
  -31.6496  -16.9930   21.0670 H   0  0  0  0  0  0
  -32.5556  -18.6641   19.3131 H   0  0  0  0  0  0
  -30.7087  -19.3289   16.9658 H   0  0  0  0  0  0
  -31.8752  -18.0243   16.8551 H   0  0  0  0  0  0
  -32.4564  -19.6318   17.0901 H   0  0  0  0  0  0
  -36.1453  -24.5786   20.4763 H   0  0  0  0  0  0
  -34.4801  -25.0122   20.1603 H   0  0  0  0  0  0
  -35.4784  -24.3155   18.8842 H   0  0  0  0  0  0
  -36.8426  -22.2180   20.6942 H   0  0  0  0  0  0
  -36.2129  -21.7531   19.1311 H   0  0  0  0  0  0
  -35.7291  -20.8706   20.5846 H   0  0  0  0  0  0
  -31.1749  -24.8730   17.2338 H   0  0  0  0  0  0
  -30.8465  -26.2051   18.3463 H   0  0  0  0  0  0
  -29.9407  -26.0530   16.8492 H   0  0  0  0  0  0
  -29.2137  -23.2595   16.5849 H   0  0  0  0  0  0
  -28.0960  -24.5697   16.5165 H   0  0  0  0  0  0
  -27.7736  -23.2181   17.5933 H   0  0  0  0  0  0
  -30.8801  -22.5057   17.7660 H   0  0  0  0  0  0
  -29.5123  -21.6690   18.4041 H   0  0  0  0  0  0
  -30.8086  -24.0422   19.8654 H   0  0  0  0  0  0
  -29.2482  -23.3345   20.1504 H   0  0  0  0  0  0
  -33.0331  -20.8728   20.7725 H   0  0  0  0  0  0
  -32.1038  -22.3144   21.1350 H   0  0  0  0  0  0
  -27.5345  -24.8128   19.5239 H   0  0  0  0  0  0
  -27.6967  -25.8967   18.1433 H   0  0  0  0  0  0
  -32.0291  -21.0433   18.4713 H   0  0  0  0  0  0
  -34.5402  -22.8856   21.4389 H   0  0  0  0  0  0
  -29.1050  -15.5631   21.0535 H   0  0  0  0  0  0
  -33.1651  -23.3172   19.2540 H   0  0  0  0  0  0
  -33.8741  -21.9304   18.7885 H   0  0  0  0  0  0
  1 25  1  0  0  0
  1 30  2  0  0  0
  1 89  1  0  0  0
  2  3  1  0  0  0
  2 25  1  0  0  0
  2 91  1  0  0  0
  2 92  1  0  0  0
  3  4  1  0  0  0
  3 93  1  0  0  0
  3 94  1  0  0  0
  4  5  1  0  0  0
  4 95  1  0  0  0
  4 96  1  0  0  0
  5  6  1  0  0  0
  5 26  1  0  0  0
  5 97  1  0  0  0
  6 25  1  0  0  0
  6 98  1  0  0  0
  6 99  1  0  0  0
  7  8  2  0  0  0
  7 26  1  0  0  0
  7 29  1  0  0  0
  8  9  1  0  0  0
  8 22  1  0  0  0
  9 10  1  0  0  0
  9 27  2  0  0  0
 10 11  2  0  0  0
 10 15  1  0  0  0
 11 12  1  0  0  0
 11100  1  0  0  0
 12 13  2  0  0  0
 12101  1  0  0  0
 13 14  1  0  0  0
 13 31  1  0  0  0
 14 15  2  0  0  0
 14102  1  0  0  0
 15103  1  0  0  0
 16 17  2  0  0  0
 16 21  1  0  0  0
 16 31  1  0  0  0
 17 18  1  0  0  0
 17104  1  0  0  0
 18 19  2  0  0  0
 18105  1  0  0  0
 19 20  1  0  0  0
 19 24  1  0  0  0
 20 21  2  0  0  0
 20106  1  0  0  0
 21 23  1  0  0  0
 22 28  1  0  0  0
 22 32  2  0  0  0
 26 27  1  0  0  0
 28107  1  0  0  0
 28108  1  0  0  0
 29109  1  0  0  0
 29110  1  0  0  0
 33 34  1  0  0  0
 33 66  1  0  0  0
 33 70  2  0  0  0
 34 36  1  0  0  0
 34 59  1  0  0  0
 34111  1  0  0  0
 35 44  2  0  0  0
 35 45  1  0  0  0
 35 68  1  0  0  0
 36 56  1  0  0  0
 36112  1  0  0  0
 37 39  1  0  0  0
 37 47  1  0  0  0
 37 66  1  0  0  0
 37113  1  0  0  0
 38 43  2  0  0  0
 38 46  1  0  0  0
 38 47  1  0  0  0
 39 64  1  0  0  0
 39 67  2  0  0  0
 40 52  1  0  0  0
 40 53  2  0  0  0
 40 58  1  0  0  0
 41114  1  0  0  0
 41115  1  0  0  0
 41116  1  0  0  0
 41 48  1  0  0  0
 42 43  1  0  0  0
 42 66  1  0  0  0
 42117  1  0  0  0
 42118  1  0  0  0
 43 44  1  0  0  0
 44119  1  0  0  0
 45 46  2  0  0  0
 45120  1  0  0  0
 46121  1  0  0  0
 47122  1  0  0  0
 47123  1  0  0  0
 48 56  1  0  0  0
 48 65  1  0  0  0
 48124  1  0  0  0
 49 50  1  0  0  0
 49 53  1  0  0  0
 49 64  1  0  0  0
 49125  1  0  0  0
 50 51  1  0  0  0
 50126  1  0  0  0
 50127  1  0  0  0
 51 52  1  0  0  0
 51128  1  0  0  0
 51129  1  0  0  0
 52130  1  0  0  0
 52131  1  0  0  0
 53 54  1  0  0  0
 54 55  2  0  0  0
 54132  1  0  0  0
 55 57  1  0  0  0
 55133  1  0  0  0
 56 69  2  0  0  0
 57 58  2  0  0  0
 57134  1  0  0  0
 58135  1  0  0  0
 59 60  1  0  0  0
 59 61  1  0  0  0
 59 62  1  0  0  0
 60136  1  0  0  0
 60137  1  0  0  0
 60138  1  0  0  0
 61139  1  0  0  0
 61140  1  0  0  0
 61141  1  0  0  0
 62142  1  0  0  0
 62143  1  0  0  0
 62144  1  0  0  0
 63 65  1  0  0  0
 63145  1  0  0  0
 63146  1  0  0  0
 63147  1  0  0  0
 64148  1  0  0  0
 65149  1  0  0  0
 68 84  1  0  0  0
 71 73  1  0  0  0
 71 74  1  0  0  0
 71150  1  0  0  0
 71151  1  0  0  0
 72 74  1  0  0  0
 72 75  1  0  0  0
 72152  1  0  0  0
 72153  1  0  0  0
 73 88  1  0  0  0
 73154  1  0  0  0
 73155  1  0  0  0
 74 89  1  0  0  0
 74156  1  0  0  0
 75 76  1  0  0  0
 75 88  1  0  0  0
 75157  1  0  0  0
 76158  1  0  0  0
 76159  1  0  0  0
 76160  1  0  0  0
 77161  1  0  0  0
 77162  1  0  0  0
 77163  1  0  0  0
 77 86  1  0  0  0
 78 86  1  0  0  0
 78164  1  0  0  0
 78165  1  0  0  0
 78166  1  0  0  0
 79167  1  0  0  0
 79168  1  0  0  0
 79169  1  0  0  0
 79 87  1  0  0  0
 80 87  1  0  0  0
 80170  1  0  0  0
 80171  1  0  0  0
 80172  1  0  0  0
 81 82  1  0  0  0
 81173  1  0  0  0
 81174  1  0  0  0
 81 85  1  0  0  0
 82 87  1  0  0  0
 82175  1  0  0  0
 82176  1  0  0  0
 83 85  1  0  0  0
 83 90  1  0  0  0
 83177  1  0  0  0
 83178  1  0  0  0
 84 87  1  0  0  0
 84179  1  0  0  0
 84180  1  0  0  0
 85 88  1  0  0  0
 85181  1  0  0  0
 86 90  1  0  0  0
 86182  1  0  0  0
 89183  1  0  0  0
 90184  1  0  0  0
 90185  1  0  0  0
M  CHG  1  90   1
M  ISO  4   1 100  68 101  84 101  89 100
M  END
> <chiral flag>
0

> <version>
0

> <s_m_source_file>
/data/baiqing/PycharmProjects/Reinvent-master-3.2/result/LINK_invent/BTK/process_docking_weight1_custom_sum_contain_oxygen_bond_distance_aromatic_linkinvent_7_9_3/rearranged_h_0115.sdf

> <i_m_source_file_index>
74

> <r_mmod_Potential_Energy-OPLS-2005>
21.8306446075439

> <r_mmod_Stretch_Energy-OPLS-2005>
62.1305694580078

> <r_mmod_Bend_Energy-OPLS-2005>
200.514419555664

> <r_mmod_Torsional_Energy-OPLS-2005>
285.27197265625

> <r_mmod_Improper_Torsional_Energy-OPLS-2005>
5.48846960067749

> <r_mmod_Van_der_Waal_Energy-OPLS-2005>
177.12126159668

> <r_mmod_Electrostatic_Energy-OPLS-2005>
-298.957672119141

> <r_mmod_Solvation_Energy-OPLS-2005>
-437.309173583984

> <b_mmod_Minimization_Converged-OPLS-2005>
0

> <r_mmod_RMS_Derivative-OPLS-2005>
6.35394144058228

$$$$
74
                    3D
 Structure written by MMmdl.
154162  0  0  1  0            999 V2000
  -30.6173  -14.7142   20.4681 C   0  0  0  0  0  0
  -30.4335  -12.4330   19.4750 C   0  0  0  0  0  0
  -29.5148  -12.5095   18.2355 C   0  0  0  0  0  0
  -28.0370  -12.3446   18.6430 C   0  0  0  0  0  0
  -27.6459  -13.2314   19.8557 C   0  0  2  0  0  0
  -28.6894  -13.1410   20.9915 C   0  0  0  0  0  0
  -25.2527  -13.8205   20.5704 C   0  0  0  0  0  0
  -24.1812  -13.0446   20.9210 C   0  0  0  0  0  0
  -24.6402  -11.6924   20.8744 C   0  0  0  0  0  0
  -23.9078  -10.4294   21.0406 C   0  0  0  0  0  0
  -24.3625   -9.4208   21.9180 C   0  0  0  0  0  0
  -23.6297   -8.2245   22.0756 C   0  0  0  0  0  0
  -22.4276   -8.0284   21.3552 C   0  0  0  0  0  0
  -21.9910   -9.0258   20.4656 C   0  0  0  0  0  0
  -22.7248  -10.2133   20.3063 C   0  0  0  0  0  0
  -21.6858   -6.0729   22.5278 C   0  0  0  0  0  0
  -21.4017   -6.5634   23.8210 C   0  0  0  0  0  0
  -21.3662   -5.6791   24.9173 C   0  0  0  0  0  0
  -21.6049   -4.3053   24.7226 C   0  0  0  0  0  0
  -21.8816   -3.8144   23.4348 C   0  0  0  0  0  0
  -21.9190   -4.6958   22.3403 C   0  0  0  0  0  0
  -22.7830  -13.5228   21.1852 C   0  0  0  0  0  0
  -22.1660   -4.2144   21.0981 F   0  0  0  0  0  0
  -21.5626   -3.4539   25.7737 F   0  0  0  0  0  0
  -29.9958  -13.4873   20.4181 N   0  0  0  0  0  0
  -26.2953  -12.9407   20.3289 N   0  0  0  0  0  0
  -25.9329  -11.6548   20.5736 N   0  0  0  0  0  0
  -22.0474  -12.8232   22.0427 N   0  0  0  0  0  0
  -25.4217  -15.1930   20.4126 N   0  0  0  0  0  0
  -31.7934  -14.8285   20.1140 O   0  0  0  0  0  0
  -21.6650   -6.8875   21.4239 O   0  0  0  0  0  0
  -22.3510  -14.5520   20.6684 O   0  0  0  0  0  0
  -24.6290  -31.8584   23.1971 C   0  0  0  0  0  0
  -25.9118  -32.4783   23.8318 C   0  0  1  0  0  0
  -27.2193  -27.2740   20.1391 C   0  0  0  0  0  0
  -25.5899  -33.8581   24.2241 N   0  0  0  0  0  0
  -23.4252  -30.4786   21.5428 C   0  0  2  0  0  0
  -24.8742  -28.9265   20.1126 C   0  0  0  0  0  0
  -22.7494  -29.4615   22.4934 C   0  0  0  0  0  0
  -18.0291  -28.1391   22.8484 C   0  0  0  0  0  0
  -24.1483  -36.7309   23.2643 C   0  0  0  0  0  0
  -25.9692  -30.7769   21.3731 C   0  0  0  0  0  0
  -26.0453  -29.3979   20.7203 C   0  0  0  0  0  0
  -27.2242  -28.5857   20.7200 C   0  0  0  0  0  0
  -26.0307  -26.8722   19.4931 C   0  0  0  0  0  0
  -24.8713  -27.6705   19.4871 C   0  0  0  0  0  0
  -23.6423  -29.8089   20.1603 C   0  0  0  0  0  0
  -25.4109  -36.3092   24.0330 C   0  0  1  0  0  0
  -20.5895  -28.3701   23.1287 C   0  0  2  0  0  0
  -20.6782  -26.9421   22.5411 C   0  0  0  0  0  0
  -19.5753  -26.6385   21.5219 C   0  0  0  0  0  0
  -18.1937  -26.7930   22.1633 C   0  0  0  0  0  0
  -19.1544  -28.8858   23.2883 C   0  0  0  0  0  0
  -18.9463  -30.1458   23.8901 C   0  0  0  0  0  0
  -17.6464  -30.6589   24.0562 C   0  0  0  0  0  0
  -25.9051  -34.9465   23.5095 C   0  0  0  0  0  0
  -16.5356  -29.9094   23.6315 C   0  0  0  0  0  0
  -16.7278  -28.6513   23.0334 C   0  0  0  0  0  0
  -26.4469  -31.6607   25.0707 C   0  0  0  0  0  0
  -25.3664  -31.3768   26.1403 C   0  0  0  0  0  0
  -27.0320  -30.3028   24.6184 C   0  0  0  0  0  0
  -27.6006  -32.4354   25.7493 C   0  0  0  0  0  0
  -27.5577  -37.1806   24.8461 C   0  0  0  0  0  0
  -21.4200  -29.3056   22.3681 N   0  0  0  0  0  0
  -26.4290  -37.3783   23.9408 N   0  0  0  0  0  0
  -24.6938  -31.0554   22.0946 N   0  0  0  0  0  0
  -23.4200  -28.8152   23.3020 O   0  0  0  0  0  0
  -28.3017  -26.3689   20.1738 O   0  0  0  0  0  0
  -26.5641  -34.8942   22.4675 O   0  0  0  0  0  0
  -23.5443  -32.1402   23.7273 O   0  0  0  0  0  0
  -28.4252  -21.0303   21.1425 C   0  0  0  0  0  0
  -30.8284  -20.5727   20.2333 C   0  0  0  0  0  0
  -29.8872  -20.4023   19.0644 C   0  0  0  0  0  0
  -29.4289  -20.0368   20.4616 C   0  0  0  0  0  0
  -29.2072  -18.4849   20.8680 C   0  0  0  0  0  0
  -30.1814  -17.2958   20.3640 C   0  0  0  0  0  0
  -28.7900  -23.6254   20.2503 C   0  0  0  0  0  0
  -28.0302  -24.9879   20.7015 C   0  0  0  0  0  0
  -28.2863  -22.4026   20.9916 N   0  0  0  0  0  0
  -29.8447  -15.8397   20.6941 N   0  0  0  0  0  0
  -27.6302  -20.5466   21.9465 O   0  0  0  0  0  0
  -31.4772  -12.5489   19.1768 H   0  0  0  0  0  0
  -30.3651  -11.4500   19.9442 H   0  0  0  0  0  0
  -29.7921  -11.7411   17.5124 H   0  0  0  0  0  0
  -29.6563  -13.4671   17.7320 H   0  0  0  0  0  0
  -27.8787  -11.2944   18.8890 H   0  0  0  0  0  0
  -27.3873  -12.5596   17.7938 H   0  0  0  0  0  0
  -27.6463  -14.2588   19.4904 H   0  0  0  0  0  0
  -28.7151  -12.1361   21.4177 H   0  0  0  0  0  0
  -28.4304  -13.8136   21.8103 H   0  0  0  0  0  0
  -25.2775   -9.5674   22.4749 H   0  0  0  0  0  0
  -24.0005   -7.4637   22.7476 H   0  0  0  0  0  0
  -21.0837   -8.8784   19.8969 H   0  0  0  0  0  0
  -22.3712  -10.9668   19.6170 H   0  0  0  0  0  0
  -21.2014   -7.6146   23.9713 H   0  0  0  0  0  0
  -21.1490   -6.0521   25.9075 H   0  0  0  0  0  0
  -22.0593   -2.7607   23.2854 H   0  0  0  0  0  0
  -22.4096  -11.9910   22.4844 H   0  0  0  0  0  0
  -21.1086  -13.1253   22.2602 H   0  0  0  0  0  0
  -24.6546  -15.8469   20.5248 H   0  0  0  0  0  0
  -26.2638  -15.6323   20.0636 H   0  0  0  0  0  0
  -26.7194  -32.5444   23.1073 H   0  0  0  0  0  0
  -24.9966  -33.9708   25.0329 H   0  0  0  0  0  0
  -22.7206  -31.2998   21.3966 H   0  0  0  0  0  0
  -23.3745  -35.9645   23.3312 H   0  0  0  0  0  0
  -24.3565  -36.8923   22.2052 H   0  0  0  0  0  0
  -23.7242  -37.6516   23.6665 H   0  0  0  0  0  0
  -26.0975  -31.5349   20.5987 H   0  0  0  0  0  0
  -26.8505  -30.8338   22.0004 H   0  0  0  0  0  0
  -28.1215  -28.9427   21.2062 H   0  0  0  0  0  0
  -25.9855  -25.9107   19.0020 H   0  0  0  0  0  0
  -23.9759  -27.3045   19.0034 H   0  0  0  0  0  0
  -23.7595  -30.5823   19.4003 H   0  0  0  0  0  0
  -22.7625  -29.2365   19.8607 H   0  0  0  0  0  0
  -25.1293  -36.1935   25.0823 H   0  0  0  0  0  0
  -20.9983  -28.3280   24.1413 H   0  0  0  0  0  0
  -20.5686  -26.2315   23.3617 H   0  0  0  0  0  0
  -21.6653  -26.7452   22.1205 H   0  0  0  0  0  0
  -19.6911  -25.6293   21.1258 H   0  0  0  0  0  0
  -19.6688  -27.3193   20.6749 H   0  0  0  0  0  0
  -17.4205  -26.6675   21.4039 H   0  0  0  0  0  0
  -18.0338  -26.0076   22.9034 H   0  0  0  0  0  0
  -19.7936  -30.7271   24.2282 H   0  0  0  0  0  0
  -17.5017  -31.6269   24.5169 H   0  0  0  0  0  0
  -15.5355  -30.2999   23.7628 H   0  0  0  0  0  0
  -15.8683  -28.0837   22.7033 H   0  0  0  0  0  0
  -24.5845  -30.7115   25.7719 H   0  0  0  0  0  0
  -24.8842  -32.2943   26.4787 H   0  0  0  0  0  0
  -25.7940  -30.8963   27.0207 H   0  0  0  0  0  0
  -26.2905  -29.6785   24.1182 H   0  0  0  0  0  0
  -27.3982  -29.7282   25.4705 H   0  0  0  0  0  0
  -27.8783  -30.4323   23.9432 H   0  0  0  0  0  0
  -27.2601  -33.3671   26.2032 H   0  0  0  0  0  0
  -28.3835  -32.6901   25.0343 H   0  0  0  0  0  0
  -28.0637  -31.8504   26.5445 H   0  0  0  0  0  0
  -28.2605  -38.0094   24.7500 H   0  0  0  0  0  0
  -28.1060  -36.2626   24.6295 H   0  0  0  0  0  0
  -27.2292  -37.1464   25.8863 H   0  0  0  0  0  0
  -20.9380  -29.8784   21.6896 H   0  0  0  0  0  0
  -26.0176  -38.2860   24.1405 H   0  0  0  0  0  0
  -31.0503  -21.5878   20.5577 H   0  0  0  0  0  0
  -31.6576  -19.8742   20.3259 H   0  0  0  0  0  0
  -30.0795  -19.5880   18.3702 H   0  0  0  0  0  0
  -29.4861  -21.3036   18.6060 H   0  0  0  0  0  0
  -28.1919  -18.2255   20.5664 H   0  0  0  0  0  0
  -29.1973  -18.4401   21.9580 H   0  0  0  0  0  0
  -31.1893  -17.4956   20.7287 H   0  0  0  0  0  0
  -30.2499  -17.3518   19.2772 H   0  0  0  0  0  0
  -29.8623  -23.7272   20.4144 H   0  0  0  0  0  0
  -28.6463  -23.4699   19.1812 H   0  0  0  0  0  0
  -28.1915  -25.0827   21.7759 H   0  0  0  0  0  0
  -26.9664  -24.7689   20.6228 H   0  0  0  0  0  0
  -27.5468  -22.6909   21.6173 H   0  0  0  0  0  0
  -28.8951  -15.6520   20.9785 H   0  0  0  0  0  0
  1 25  1  0  0  0
  1 30  2  0  0  0
  1 80  1  0  0  0
  2  3  1  0  0  0
  2 25  1  0  0  0
  2 82  1  0  0  0
  2 83  1  0  0  0
  3  4  1  0  0  0
  3 84  1  0  0  0
  3 85  1  0  0  0
  4  5  1  0  0  0
  4 86  1  0  0  0
  4 87  1  0  0  0
  5  6  1  0  0  0
  5 26  1  0  0  0
  5 88  1  0  0  0
  6 25  1  0  0  0
  6 89  1  0  0  0
  6 90  1  0  0  0
  7  8  2  0  0  0
  7 26  1  0  0  0
  7 29  1  0  0  0
  8  9  1  0  0  0
  8 22  1  0  0  0
  9 10  1  0  0  0
  9 27  2  0  0  0
 10 11  2  0  0  0
 10 15  1  0  0  0
 11 12  1  0  0  0
 11 91  1  0  0  0
 12 13  2  0  0  0
 12 92  1  0  0  0
 13 14  1  0  0  0
 13 31  1  0  0  0
 14 15  2  0  0  0
 14 93  1  0  0  0
 15 94  1  0  0  0
 16 17  2  0  0  0
 16 21  1  0  0  0
 16 31  1  0  0  0
 17 18  1  0  0  0
 17 95  1  0  0  0
 18 19  2  0  0  0
 18 96  1  0  0  0
 19 20  1  0  0  0
 19 24  1  0  0  0
 20 21  2  0  0  0
 20 97  1  0  0  0
 21 23  1  0  0  0
 22 28  1  0  0  0
 22 32  2  0  0  0
 26 27  1  0  0  0
 28 98  1  0  0  0
 28 99  1  0  0  0
 29100  1  0  0  0
 29101  1  0  0  0
 33 34  1  0  0  0
 33 66  1  0  0  0
 33 70  2  0  0  0
 34 36  1  0  0  0
 34 59  1  0  0  0
 34102  1  0  0  0
 35 44  2  0  0  0
 35 45  1  0  0  0
 35 68  1  0  0  0
 36 56  1  0  0  0
 36103  1  0  0  0
 37 39  1  0  0  0
 37 47  1  0  0  0
 37 66  1  0  0  0
 37104  1  0  0  0
 38 43  2  0  0  0
 38 46  1  0  0  0
 38 47  1  0  0  0
 39 64  1  0  0  0
 39 67  2  0  0  0
 40 52  1  0  0  0
 40 53  2  0  0  0
 40 58  1  0  0  0
 41105  1  0  0  0
 41106  1  0  0  0
 41107  1  0  0  0
 41 48  1  0  0  0
 42 43  1  0  0  0
 42 66  1  0  0  0
 42108  1  0  0  0
 42109  1  0  0  0
 43 44  1  0  0  0
 44110  1  0  0  0
 45 46  2  0  0  0
 45111  1  0  0  0
 46112  1  0  0  0
 47113  1  0  0  0
 47114  1  0  0  0
 48 56  1  0  0  0
 48 65  1  0  0  0
 48115  1  0  0  0
 49 50  1  0  0  0
 49 53  1  0  0  0
 49 64  1  0  0  0
 49116  1  0  0  0
 50 51  1  0  0  0
 50117  1  0  0  0
 50118  1  0  0  0
 51 52  1  0  0  0
 51119  1  0  0  0
 51120  1  0  0  0
 52121  1  0  0  0
 52122  1  0  0  0
 53 54  1  0  0  0
 54 55  2  0  0  0
 54123  1  0  0  0
 55 57  1  0  0  0
 55124  1  0  0  0
 56 69  2  0  0  0
 57 58  2  0  0  0
 57125  1  0  0  0
 58126  1  0  0  0
 59 60  1  0  0  0
 59 61  1  0  0  0
 59 62  1  0  0  0
 60127  1  0  0  0
 60128  1  0  0  0
 60129  1  0  0  0
 61130  1  0  0  0
 61131  1  0  0  0
 61132  1  0  0  0
 62133  1  0  0  0
 62134  1  0  0  0
 62135  1  0  0  0
 63 65  1  0  0  0
 63136  1  0  0  0
 63137  1  0  0  0
 63138  1  0  0  0
 64139  1  0  0  0
 65140  1  0  0  0
 68 78  1  0  0  0
 71 74  1  0  0  0
 71 79  1  0  0  0
 71 81  2  0  0  0
 72 73  1  0  0  0
 72 74  1  0  0  0
 72141  1  0  0  0
 72142  1  0  0  0
 73 74  1  0  0  0
 73143  1  0  0  0
 73144  1  0  0  0
 74 75  1  0  0  0
 75 76  1  0  0  0
 75145  1  0  0  0
 75146  1  0  0  0
 76 80  1  0  0  0
 76147  1  0  0  0
 76148  1  0  0  0
 77 78  1  0  0  0
 77 79  1  0  0  0
 77149  1  0  0  0
 77150  1  0  0  0
 78151  1  0  0  0
 78152  1  0  0  0
 79153  1  0  0  0
 80154  1  0  0  0
M  ISO  4   1 100  68 101  78 101  80 100
M  END
> <chiral flag>
0

> <version>
0

> <s_m_source_file>
/data/baiqing/PycharmProjects/Reinvent-master-3.2/result/LINK_invent/BTK/process_docking_weight1_custom_sum_contain_oxygen_bond_distance_aromatic_linkinvent_7_9_3/rearranged_h_0115.sdf

> <i_m_source_file_index>
75

> <r_mmod_Potential_Energy-OPLS-2005>
145.270736694336

> <r_mmod_Stretch_Energy-OPLS-2005>
121.131797790527

> <r_mmod_Bend_Energy-OPLS-2005>
221.229644775391

> <r_mmod_Torsional_Energy-OPLS-2005>
277.40478515625

> <r_mmod_Improper_Torsional_Energy-OPLS-2005>
5.48210287094116

> <r_mmod_Van_der_Waal_Energy-OPLS-2005>
119.732986450195

> <r_mmod_Electrostatic_Energy-OPLS-2005>
-445.238403320312

> <r_mmod_Solvation_Energy-OPLS-2005>
-229.844284057617

> <b_mmod_Minimization_Converged-OPLS-2005>
0

> <r_mmod_RMS_Derivative-OPLS-2005>
1.41063368320465

$$$$
75
                    3D
 Structure written by MMmdl.
172180  0  0  1  0            999 V2000
  -30.7230  -14.3832   20.6070 C   0  0  0  0  0  0
  -30.4082  -12.2618   19.4101 C   0  0  0  0  0  0
  -29.4887  -12.5084   18.1988 C   0  0  0  0  0  0
  -28.0087  -12.3781   18.6088 C   0  0  0  0  0  0
  -27.6624  -13.1988   19.8800 C   0  0  2  0  0  0
  -28.6956  -12.9385   20.9980 C   0  0  0  0  0  0
  -25.2564  -13.8136   20.5650 C   0  0  0  0  0  0
  -24.1815  -13.0432   20.9153 C   0  0  0  0  0  0
  -24.6358  -11.6884   20.8712 C   0  0  0  0  0  0
  -23.9018  -10.4284   21.0389 C   0  0  0  0  0  0
  -24.3589   -9.4205   21.9168 C   0  0  0  0  0  0
  -23.6272   -8.2238   22.0750 C   0  0  0  0  0  0
  -22.4258   -8.0266   21.3540 C   0  0  0  0  0  0
  -21.9879   -9.0228   20.4640 C   0  0  0  0  0  0
  -22.7192  -10.2115   20.3037 C   0  0  0  0  0  0
  -21.6851   -6.0716   22.5266 C   0  0  0  0  0  0
  -21.4019   -6.5626   23.8201 C   0  0  0  0  0  0
  -21.3662   -5.6790   24.9168 C   0  0  0  0  0  0
  -21.6045   -4.3048   24.7234 C   0  0  0  0  0  0
  -21.8817   -3.8132   23.4355 C   0  0  0  0  0  0
  -21.9196   -4.6940   22.3405 C   0  0  0  0  0  0
  -22.7844  -13.5236   21.1841 C   0  0  0  0  0  0
  -22.1660   -4.2120   21.0984 F   0  0  0  0  0  0
  -21.5634   -3.4536   25.7749 F   0  0  0  0  0  0
  -30.0347  -13.2246   20.4548 N   0  0  0  0  0  0
  -26.3003  -12.9304   20.3347 N   0  0  0  0  0  0
  -25.9278  -11.6466   20.5725 N   0  0  0  0  0  0
  -22.0497  -12.8231   22.0404 N   0  0  0  0  0  0
  -25.4310  -15.1864   20.4081 N   0  0  0  0  0  0
  -31.8391  -14.5770   20.1114 O   0  0  0  0  0  0
  -21.6637   -6.8853   21.4231 O   0  0  0  0  0  0
  -22.3529  -14.5557   20.6697 O   0  0  0  0  0  0
  -24.6115  -31.8722   23.2165 C   0  0  0  0  0  0
  -25.9017  -32.4852   23.8430 C   0  0  1  0  0  0
  -27.2213  -27.4727   20.0825 C   0  0  0  0  0  0
  -25.5879  -33.8654   24.2358 N   0  0  0  0  0  0
  -23.3962  -30.4976   21.5600 C   0  0  2  0  0  0
  -24.8355  -28.9752   20.1120 C   0  0  0  0  0  0
  -22.7379  -29.4666   22.5049 C   0  0  0  0  0  0
  -18.0249  -28.1382   22.8495 C   0  0  0  0  0  0
  -24.1490  -36.7333   23.2641 C   0  0  0  0  0  0
  -25.9202  -30.8503   21.3611 C   0  0  0  0  0  0
  -25.9965  -29.4903   20.7031 C   0  0  0  0  0  0
  -27.1945  -28.7476   20.6811 C   0  0  0  0  0  0
  -26.0465  -26.9675   19.4789 C   0  0  0  0  0  0
  -24.8558  -27.7126   19.4944 C   0  0  0  0  0  0
  -23.5969  -29.8393   20.1704 C   0  0  0  0  0  0
  -25.4106  -36.3154   24.0358 C   0  0  1  0  0  0
  -20.5845  -28.3652   23.1359 C   0  0  2  0  0  0
  -20.6747  -26.9399   22.5426 C   0  0  0  0  0  0
  -19.5731  -26.6391   21.5215 C   0  0  0  0  0  0
  -18.1908  -26.7928   22.1626 C   0  0  0  0  0  0
  -19.1502  -28.8826   23.2926 C   0  0  0  0  0  0
  -18.9423  -30.1433   23.8932 C   0  0  0  0  0  0
  -17.6432  -30.6591   24.0561 C   0  0  0  0  0  0
  -25.9030  -34.9509   23.5165 C   0  0  0  0  0  0
  -16.5326  -29.9094   23.6322 C   0  0  0  0  0  0
  -16.7236  -28.6511   23.0344 C   0  0  0  0  0  0
  -26.4451  -31.6613   25.0732 C   0  0  0  0  0  0
  -25.3716  -31.3664   26.1469 C   0  0  0  0  0  0
  -27.0262  -30.3074   24.6053 C   0  0  0  0  0  0
  -27.6065  -32.4308   25.7445 C   0  0  0  0  0  0
  -27.5593  -37.1821   24.8470 C   0  0  0  0  0  0
  -21.4111  -29.3029   22.3763 N   0  0  0  0  0  0
  -26.4310  -37.3815   23.9419 N   0  0  0  0  0  0
  -24.6609  -31.0861   22.1047 N   0  0  0  0  0  0
  -23.4152  -28.8182   23.3071 O   0  0  0  0  0  0
  -28.3933  -26.7592   20.1036 O   0  0  0  0  0  0
  -26.5597  -34.8960   22.4731 O   0  0  0  0  0  0
  -23.5323  -32.1437   23.7603 O   0  0  0  0  0  0
  -31.3861  -17.4496   21.6779 C   0  0  0  0  0  0
  -29.8128  -17.4927   20.0571 C   0  0  0  0  0  0
  -30.3783  -16.7166   21.0139 C   0  0  0  0  0  0
  -31.4977  -18.6606   21.0450 C   0  0  0  0  0  0
  -31.2378  -20.5916   18.4321 C   0  0  0  0  0  0
  -32.3785  -20.8130   23.7051 C   0  0  0  0  0  0
  -29.3471  -24.8600   21.2084 C   0  0  0  0  0  0
  -30.1450  -19.6700   18.9856 C   0  0  0  0  0  0
  -29.2639  -23.3399   21.3802 C   0  0  0  0  0  0
  -30.6196  -21.3655   21.9957 C   0  0  0  0  0  0
  -28.2608  -25.3526   20.2546 C   0  0  0  0  0  0
  -32.5545  -19.6876   21.4164 C   0  0  2  0  0  0
  -32.0968  -20.9696   22.1969 C   0  0  2  0  0  0
  -30.5302  -18.6800   20.0043 N   0  0  0  0  0  0
  -30.0598  -15.3638   21.2375 N   0  0  0  0  0  0
  -33.4925  -19.9622   20.3121 N   0  3  0  0  0  0
  -30.3732  -22.8088   22.2030 N   0  3  0  0  0  0
  -31.4558  -12.3477   19.1167 H   0  0  0  0  0  0
  -30.2885  -11.2419   19.7797 H   0  0  0  0  0  0
  -29.7200  -11.7996   17.4031 H   0  0  0  0  0  0
  -29.6732  -13.5031   17.7893 H   0  0  0  0  0  0
  -27.8127  -11.3203   18.7888 H   0  0  0  0  0  0
  -27.3619  -12.6708   17.7806 H   0  0  0  0  0  0
  -27.7222  -14.2524   19.6078 H   0  0  0  0  0  0
  -28.6502  -11.8963   21.3175 H   0  0  0  0  0  0
  -28.4628  -13.5227   21.8882 H   0  0  0  0  0  0
  -25.2732   -9.5707   22.4738 H   0  0  0  0  0  0
  -23.9988   -7.4646   22.7474 H   0  0  0  0  0  0
  -21.0803   -8.8727   19.8954 H   0  0  0  0  0  0
  -22.3623  -10.9647   19.6152 H   0  0  0  0  0  0
  -21.2004   -7.6134   23.9695 H   0  0  0  0  0  0
  -21.1491   -6.0523   25.9073 H   0  0  0  0  0  0
  -22.0596   -2.7589   23.2865 H   0  0  0  0  0  0
  -22.4109  -11.9888   22.4786 H   0  0  0  0  0  0
  -21.1110  -13.1239   22.2614 H   0  0  0  0  0  0
  -24.6665  -15.8437   20.5170 H   0  0  0  0  0  0
  -26.2879  -15.6268   20.0993 H   0  0  0  0  0  0
  -26.7078  -32.5544   23.1185 H   0  0  0  0  0  0
  -24.9990  -33.9813   25.0478 H   0  0  0  0  0  0
  -22.6848  -31.3150   21.4317 H   0  0  0  0  0  0
  -23.3776  -35.9650   23.3327 H   0  0  0  0  0  0
  -24.3575  -36.8905   22.2052 H   0  0  0  0  0  0
  -23.7222  -37.6544   23.6614 H   0  0  0  0  0  0
  -26.0298  -31.6245   20.6007 H   0  0  0  0  0  0
  -26.8102  -30.8973   21.9758 H   0  0  0  0  0  0
  -28.0935  -29.1404   21.1370 H   0  0  0  0  0  0
  -26.0378  -26.0030   18.9910 H   0  0  0  0  0  0
  -23.9681  -27.3166   19.0207 H   0  0  0  0  0  0
  -23.6941  -30.6207   19.4149 H   0  0  0  0  0  0
  -22.7182  -29.2616   19.8801 H   0  0  0  0  0  0
  -25.1286  -36.2049   25.0851 H   0  0  0  0  0  0
  -20.9931  -28.3223   24.1489 H   0  0  0  0  0  0
  -20.5669  -26.2247   23.3599 H   0  0  0  0  0  0
  -21.6613  -26.7460   22.1209 H   0  0  0  0  0  0
  -19.6901  -25.6307   21.1225 H   0  0  0  0  0  0
  -19.6708  -27.3219   20.6772 H   0  0  0  0  0  0
  -17.4177  -26.6679   21.4036 H   0  0  0  0  0  0
  -18.0323  -26.0064   22.9023 H   0  0  0  0  0  0
  -19.7891  -30.7236   24.2353 H   0  0  0  0  0  0
  -17.4980  -31.6280   24.5140 H   0  0  0  0  0  0
  -15.5326  -30.3007   23.7638 H   0  0  0  0  0  0
  -15.8629  -28.0843   22.7065 H   0  0  0  0  0  0
  -24.5912  -30.7002   25.7762 H   0  0  0  0  0  0
  -24.8870  -32.2783   26.4970 H   0  0  0  0  0  0
  -25.8066  -30.8764   27.0187 H   0  0  0  0  0  0
  -26.2774  -29.6850   24.1126 H   0  0  0  0  0  0
  -27.4079  -29.7304   25.4487 H   0  0  0  0  0  0
  -27.8602  -30.4441   23.9165 H   0  0  0  0  0  0
  -27.2731  -33.3599   26.2087 H   0  0  0  0  0  0
  -28.3797  -32.6873   25.0188 H   0  0  0  0  0  0
  -28.0814  -31.8373   26.5267 H   0  0  0  0  0  0
  -28.2633  -38.0097   24.7514 H   0  0  0  0  0  0
  -28.1065  -36.2631   24.6311 H   0  0  0  0  0  0
  -27.2300  -37.1500   25.8867 H   0  0  0  0  0  0
  -20.9257  -29.8733   21.6978 H   0  0  0  0  0  0
  -26.0234  -38.2917   24.1384 H   0  0  0  0  0  0
  -32.0103  -17.1120   22.4940 H   0  0  0  0  0  0
  -29.0121  -17.2889   19.3585 H   0  0  0  0  0  0
  -32.0710  -20.0190   18.0271 H   0  0  0  0  0  0
  -31.5960  -21.3160   19.1575 H   0  0  0  0  0  0
  -30.8291  -21.1845   17.6133 H   0  0  0  0  0  0
  -32.0989  -21.7080   24.2611 H   0  0  0  0  0  0
  -33.4365  -20.6255   23.8995 H   0  0  0  0  0  0
  -31.8129  -19.9780   24.1224 H   0  0  0  0  0  0
  -30.3241  -25.1442   20.8141 H   0  0  0  0  0  0
  -29.2318  -25.3534   22.1730 H   0  0  0  0  0  0
  -29.7480  -19.1167   18.1336 H   0  0  0  0  0  0
  -29.2905  -20.2387   19.3513 H   0  0  0  0  0  0
  -29.2748  -22.8980   20.3821 H   0  0  0  0  0  0
  -28.3093  -23.0533   21.8230 H   0  0  0  0  0  0
  -29.9337  -20.7501   22.5813 H   0  0  0  0  0  0
  -30.3788  -21.1764   20.9657 H   0  0  0  0  0  0
  -28.3517  -24.8790   19.2769 H   0  0  0  0  0  0
  -27.2959  -25.0587   20.6749 H   0  0  0  0  0  0
  -33.2194  -19.1696   22.1086 H   0  0  0  0  0  0
  -32.7221  -21.7968   21.8589 H   0  0  0  0  0  0
  -29.1191  -15.1425   21.5298 H   0  0  0  0  0  0
  -34.2438  -20.5584   20.6141 H   0  0  0  0  0  0
  -33.0269  -20.3895   19.5296 H   0  0  0  0  0  0
  -33.9017  -19.0994   20.0012 H   0  0  0  0  0  0
  -31.2086  -23.3187   21.9605 H   0  0  0  0  0  0
  -30.1777  -22.9881   23.1760 H   0  0  0  0  0  0
  1 25  1  0  0  0
  1 30  2  0  0  0
  1 85  1  0  0  0
  2  3  1  0  0  0
  2 25  1  0  0  0
  2 88  1  0  0  0
  2 89  1  0  0  0
  3  4  1  0  0  0
  3 90  1  0  0  0
  3 91  1  0  0  0
  4  5  1  0  0  0
  4 92  1  0  0  0
  4 93  1  0  0  0
  5  6  1  0  0  0
  5 26  1  0  0  0
  5 94  1  0  0  0
  6 25  1  0  0  0
  6 95  1  0  0  0
  6 96  1  0  0  0
  7  8  2  0  0  0
  7 26  1  0  0  0
  7 29  1  0  0  0
  8  9  1  0  0  0
  8 22  1  0  0  0
  9 10  1  0  0  0
  9 27  2  0  0  0
 10 11  2  0  0  0
 10 15  1  0  0  0
 11 12  1  0  0  0
 11 97  1  0  0  0
 12 13  2  0  0  0
 12 98  1  0  0  0
 13 14  1  0  0  0
 13 31  1  0  0  0
 14 15  2  0  0  0
 14 99  1  0  0  0
 15100  1  0  0  0
 16 17  2  0  0  0
 16 21  1  0  0  0
 16 31  1  0  0  0
 17 18  1  0  0  0
 17101  1  0  0  0
 18 19  2  0  0  0
 18102  1  0  0  0
 19 20  1  0  0  0
 19 24  1  0  0  0
 20 21  2  0  0  0
 20103  1  0  0  0
 21 23  1  0  0  0
 22 28  1  0  0  0
 22 32  2  0  0  0
 26 27  1  0  0  0
 28104  1  0  0  0
 28105  1  0  0  0
 29106  1  0  0  0
 29107  1  0  0  0
 33 34  1  0  0  0
 33 66  1  0  0  0
 33 70  2  0  0  0
 34 36  1  0  0  0
 34 59  1  0  0  0
 34108  1  0  0  0
 35 44  2  0  0  0
 35 45  1  0  0  0
 35 68  1  0  0  0
 36 56  1  0  0  0
 36109  1  0  0  0
 37 39  1  0  0  0
 37 47  1  0  0  0
 37 66  1  0  0  0
 37110  1  0  0  0
 38 43  2  0  0  0
 38 46  1  0  0  0
 38 47  1  0  0  0
 39 64  1  0  0  0
 39 67  2  0  0  0
 40 52  1  0  0  0
 40 53  2  0  0  0
 40 58  1  0  0  0
 41111  1  0  0  0
 41112  1  0  0  0
 41113  1  0  0  0
 41 48  1  0  0  0
 42 43  1  0  0  0
 42 66  1  0  0  0
 42114  1  0  0  0
 42115  1  0  0  0
 43 44  1  0  0  0
 44116  1  0  0  0
 45 46  2  0  0  0
 45117  1  0  0  0
 46118  1  0  0  0
 47119  1  0  0  0
 47120  1  0  0  0
 48 56  1  0  0  0
 48 65  1  0  0  0
 48121  1  0  0  0
 49 50  1  0  0  0
 49 53  1  0  0  0
 49 64  1  0  0  0
 49122  1  0  0  0
 50 51  1  0  0  0
 50123  1  0  0  0
 50124  1  0  0  0
 51 52  1  0  0  0
 51125  1  0  0  0
 51126  1  0  0  0
 52127  1  0  0  0
 52128  1  0  0  0
 53 54  1  0  0  0
 54 55  2  0  0  0
 54129  1  0  0  0
 55 57  1  0  0  0
 55130  1  0  0  0
 56 69  2  0  0  0
 57 58  2  0  0  0
 57131  1  0  0  0
 58132  1  0  0  0
 59 60  1  0  0  0
 59 61  1  0  0  0
 59 62  1  0  0  0
 60133  1  0  0  0
 60134  1  0  0  0
 60135  1  0  0  0
 61136  1  0  0  0
 61137  1  0  0  0
 61138  1  0  0  0
 62139  1  0  0  0
 62140  1  0  0  0
 62141  1  0  0  0
 63 65  1  0  0  0
 63142  1  0  0  0
 63143  1  0  0  0
 63144  1  0  0  0
 64145  1  0  0  0
 65146  1  0  0  0
 68 81  1  0  0  0
 71 73  1  0  0  0
 71 74  2  0  0  0
 71147  1  0  0  0
 72 73  2  0  0  0
 72 84  1  0  0  0
 72148  1  0  0  0
 73 85  1  0  0  0
 74 82  1  0  0  0
 74 84  1  0  0  0
 75 78  1  0  0  0
 75149  1  0  0  0
 75150  1  0  0  0
 75151  1  0  0  0
 76152  1  0  0  0
 76153  1  0  0  0
 76154  1  0  0  0
 76 83  1  0  0  0
 77 79  1  0  0  0
 77 81  1  0  0  0
 77155  1  0  0  0
 77156  1  0  0  0
 78 84  1  0  0  0
 78157  1  0  0  0
 78158  1  0  0  0
 79 87  1  0  0  0
 79159  1  0  0  0
 79160  1  0  0  0
 80 83  1  0  0  0
 80 87  1  0  0  0
 80161  1  0  0  0
 80162  1  0  0  0
 81163  1  0  0  0
 81164  1  0  0  0
 82 83  1  0  0  0
 82 86  1  0  0  0
 82165  1  0  0  0
 83166  1  0  0  0
 85167  1  0  0  0
 86168  1  0  0  0
 86169  1  0  0  0
 86170  1  0  0  0
 87171  1  0  0  0
 87172  1  0  0  0
M  CHG  2  86   1  87   1
M  ISO  4   1 100  68 101  81 101  85 100
M  END
> <chiral flag>
0

> <version>
0

> <s_m_source_file>
/data/baiqing/PycharmProjects/Reinvent-master-3.2/result/LINK_invent/BTK/process_docking_weight1_custom_sum_contain_oxygen_bond_distance_aromatic_linkinvent_7_9_3/rearranged_h_0115.sdf

> <i_m_source_file_index>
76

> <r_mmod_Potential_Energy-OPLS-2005>
-403.91357421875

> <r_mmod_Stretch_Energy-OPLS-2005>
36.597339630127

> <r_mmod_Bend_Energy-OPLS-2005>
136.910659790039

> <r_mmod_Torsional_Energy-OPLS-2005>
281.051147460938

> <r_mmod_Improper_Torsional_Energy-OPLS-2005>
4.87671899795532

> <r_mmod_Van_der_Waal_Energy-OPLS-2005>
147.703094482422

> <r_mmod_Electrostatic_Energy-OPLS-2005>
3.48335456848145

> <r_mmod_Solvation_Energy-OPLS-2005>
-1024.32165527344

> <b_mmod_Minimization_Converged-OPLS-2005>
0

> <r_mmod_RMS_Derivative-OPLS-2005>
3.13304805755615

$$$$
76
                    3D
 Structure written by MMmdl.
174182  0  0  1  0            999 V2000
  -30.6979  -14.5810   20.4322 C   0  0  0  0  0  0
  -30.4167  -12.3351   19.4465 C   0  0  0  0  0  0
  -29.4839  -12.4023   18.2164 C   0  0  0  0  0  0
  -28.0055  -12.3213   18.6384 C   0  0  0  0  0  0
  -27.6453  -13.2175   19.8542 C   0  0  2  0  0  0
  -28.7016  -13.1136   20.9767 C   0  0  0  0  0  0
  -25.2546  -13.8205   20.5729 C   0  0  0  0  0  0
  -24.1812  -13.0465   20.9258 C   0  0  0  0  0  0
  -24.6381  -11.6939   20.8820 C   0  0  0  0  0  0
  -23.9062  -10.4305   21.0449 C   0  0  0  0  0  0
  -24.3604   -9.4217   21.9223 C   0  0  0  0  0  0
  -23.6289   -8.2248   22.0778 C   0  0  0  0  0  0
  -22.4276   -8.0287   21.3566 C   0  0  0  0  0  0
  -21.9924   -9.0254   20.4659 C   0  0  0  0  0  0
  -22.7243  -10.2144   20.3085 C   0  0  0  0  0  0
  -21.6855   -6.0736   22.5284 C   0  0  0  0  0  0
  -21.4015   -6.5645   23.8216 C   0  0  0  0  0  0
  -21.3671   -5.6802   24.9187 C   0  0  0  0  0  0
  -21.6043   -4.3062   24.7234 C   0  0  0  0  0  0
  -21.8820   -3.8154   23.4359 C   0  0  0  0  0  0
  -21.9205   -4.6966   22.3413 C   0  0  0  0  0  0
  -22.7838  -13.5255   21.1903 C   0  0  0  0  0  0
  -22.1665   -4.2141   21.0991 F   0  0  0  0  0  0
  -21.5639   -3.4548   25.7757 F   0  0  0  0  0  0
  -30.0078  -13.4035   20.3736 N   0  0  0  0  0  0
  -26.2964  -12.9389   20.3371 N   0  0  0  0  0  0
  -25.9306  -11.6551   20.5866 N   0  0  0  0  0  0
  -22.0495  -12.8195   22.0439 N   0  0  0  0  0  0
  -25.4245  -15.1915   20.4094 N   0  0  0  0  0  0
  -31.9124  -14.6008   20.2306 O   0  0  0  0  0  0
  -21.6650   -6.8877   21.4252 O   0  0  0  0  0  0
  -22.3518  -14.5555   20.6763 O   0  0  0  0  0  0
  -24.6178  -31.8665   23.2093 C   0  0  0  0  0  0
  -25.9060  -32.4809   23.8404 C   0  0  1  0  0  0
  -27.2283  -27.4070   20.1039 C   0  0  0  0  0  0
  -25.5910  -33.8613   24.2325 N   0  0  0  0  0  0
  -23.4055  -30.4942   21.5495 C   0  0  2  0  0  0
  -24.8517  -28.9592   20.1124 C   0  0  0  0  0  0
  -22.7422  -29.4693   22.4967 C   0  0  0  0  0  0
  -18.0280  -28.1388   22.8497 C   0  0  0  0  0  0
  -24.1490  -36.7305   23.2643 C   0  0  0  0  0  0
  -25.9401  -30.8234   21.3706 C   0  0  0  0  0  0
  -26.0158  -29.4602   20.7098 C   0  0  0  0  0  0
  -27.2090  -28.6949   20.6968 C   0  0  0  0  0  0
  -26.0448  -26.9338   19.4922 C   0  0  0  0  0  0
  -24.8629  -27.6968   19.4984 C   0  0  0  0  0  0
  -23.6144  -29.8275   20.1644 C   0  0  0  0  0  0
  -25.4121  -36.3106   24.0339 C   0  0  1  0  0  0
  -20.5875  -28.3693   23.1311 C   0  0  2  0  0  0
  -20.6779  -26.9420   22.5428 C   0  0  0  0  0  0
  -19.5753  -26.6395   21.5228 C   0  0  0  0  0  0
  -18.1927  -26.7938   22.1626 C   0  0  0  0  0  0
  -19.1529  -28.8851   23.2900 C   0  0  0  0  0  0
  -18.9450  -30.1454   23.8907 C   0  0  0  0  0  0
  -17.6454  -30.6591   24.0577 C   0  0  0  0  0  0
  -25.9042  -34.9468   23.5123 C   0  0  0  0  0  0
  -16.5346  -29.9090   23.6336 C   0  0  0  0  0  0
  -16.7274  -28.6512   23.0354 C   0  0  0  0  0  0
  -26.4472  -31.6601   25.0736 C   0  0  0  0  0  0
  -25.3716  -31.3697   26.1458 C   0  0  0  0  0  0
  -27.0344  -30.3046   24.6161 C   0  0  0  0  0  0
  -27.6028  -32.4341   25.7513 C   0  0  0  0  0  0
  -27.5595  -37.1813   24.8463 C   0  0  0  0  0  0
  -21.4149  -29.3050   22.3698 N   0  0  0  0  0  0
  -26.4306  -37.3796   23.9408 N   0  0  0  0  0  0
  -24.6727  -31.0763   22.1008 N   0  0  0  0  0  0
  -23.4188  -28.8233   23.3018 O   0  0  0  0  0  0
  -28.3760  -26.6279   20.1421 O   0  0  0  0  0  0
  -26.5604  -34.8933   22.4686 O   0  0  0  0  0  0
  -23.5373  -32.1443   23.7491 O   0  0  0  0  0  0
  -31.1682  -20.4319   21.7977 C   0  0  0  0  0  0
  -30.9874  -18.0208   22.0780 C   0  0  0  0  0  0
  -31.6407  -19.2338   22.3596 C   0  0  0  0  0  0
  -30.0196  -20.4533   20.9833 C   0  0  0  0  0  0
  -29.8321  -17.9845   21.2689 C   0  0  0  0  0  0
  -29.3066  -19.2273   20.7665 C   0  0  0  0  0  0
  -32.8638  -19.2476   23.2543 C   0  0  0  0  0  0
  -28.0047  -19.2571   19.9755 C   0  0  0  0  0  0
  -30.9220  -17.4434   16.7092 C   0  0  0  0  0  0
  -32.3427  -17.2508   18.7732 C   0  0  0  0  0  0
  -29.6896  -21.8035   20.2953 C   0  0  0  0  0  0
  -29.2267  -16.5799   20.9940 C   0  0  0  0  0  0
  -29.2071  -22.9549   21.2265 C   0  0  0  0  0  0
  -29.4388  -24.4189   20.7122 C   0  0  0  0  0  0
  -29.9952  -16.1169   18.6503 C   0  0  0  0  0  0
  -28.1746  -25.1967   20.2558 C   0  0  0  0  0  0
  -30.9038  -17.3075   18.2397 C   0  0  0  0  0  0
  -29.9849  -15.6941   20.0719 N   0  0  0  0  0  0
  -31.4574  -12.4260   19.1296 H   0  0  0  0  0  0
  -30.3367  -11.3657   19.9410 H   0  0  0  0  0  0
  -29.7080  -11.5756   17.5403 H   0  0  0  0  0  0
  -29.6538  -13.3036   17.6342 H   0  0  0  0  0  0
  -27.8104  -11.2775   18.8852 H   0  0  0  0  0  0
  -27.3595  -12.5611   17.7951 H   0  0  0  0  0  0
  -27.6545  -14.2422   19.4881 H   0  0  0  0  0  0
  -28.7017  -12.1163   21.4216 H   0  0  0  0  0  0
  -28.4781  -13.8087   21.7869 H   0  0  0  0  0  0
  -25.2738   -9.5703   22.4799 H   0  0  0  0  0  0
  -24.0019   -7.4640   22.7477 H   0  0  0  0  0  0
  -21.0880   -8.8769   19.8916 H   0  0  0  0  0  0
  -22.3717  -10.9693   19.6189 H   0  0  0  0  0  0
  -21.1982   -7.6152   23.9712 H   0  0  0  0  0  0
  -21.1498   -6.0543   25.9091 H   0  0  0  0  0  0
  -22.0578   -2.7612   23.2870 H   0  0  0  0  0  0
  -22.4140  -11.9829   22.4749 H   0  0  0  0  0  0
  -21.1109  -13.1169   22.2658 H   0  0  0  0  0  0
  -24.6536  -15.8441   20.5084 H   0  0  0  0  0  0
  -26.2678  -15.6264   20.0631 H   0  0  0  0  0  0
  -26.7125  -32.5504   23.1171 H   0  0  0  0  0  0
  -25.0063  -33.9776   25.0476 H   0  0  0  0  0  0
  -22.6961  -31.3121   21.4112 H   0  0  0  0  0  0
  -23.3766  -35.9618   23.3287 H   0  0  0  0  0  0
  -24.3575  -36.8941   22.2053 H   0  0  0  0  0  0
  -23.7210  -37.6490   23.6677 H   0  0  0  0  0  0
  -26.0658  -31.5952   20.6085 H   0  0  0  0  0  0
  -26.8218  -30.8661   21.9995 H   0  0  0  0  0  0
  -28.1045  -29.0742   21.1714 H   0  0  0  0  0  0
  -26.0149  -25.9690   19.0078 H   0  0  0  0  0  0
  -23.9691  -27.3056   19.0302 H   0  0  0  0  0  0
  -23.7217  -30.6033   19.4049 H   0  0  0  0  0  0
  -22.7365  -29.2509   19.8674 H   0  0  0  0  0  0
  -25.1286  -36.1980   25.0831 H   0  0  0  0  0  0
  -20.9970  -28.3275   24.1435 H   0  0  0  0  0  0
  -20.5708  -26.2294   23.3620 H   0  0  0  0  0  0
  -21.6645  -26.7484   22.1206 H   0  0  0  0  0  0
  -19.6915  -25.6313   21.1233 H   0  0  0  0  0  0
  -19.6677  -27.3222   20.6773 H   0  0  0  0  0  0
  -17.4203  -26.6731   21.4008 H   0  0  0  0  0  0
  -18.0285  -26.0069   22.9000 H   0  0  0  0  0  0
  -19.7921  -30.7273   24.2283 H   0  0  0  0  0  0
  -17.5007  -31.6265   24.5191 H   0  0  0  0  0  0
  -15.5344  -30.2994   23.7661 H   0  0  0  0  0  0
  -15.8687  -28.0842   22.7062 H   0  0  0  0  0  0
  -24.5904  -30.7034   25.7779 H   0  0  0  0  0  0
  -24.8879  -32.2832   26.4911 H   0  0  0  0  0  0
  -25.8038  -30.8853   27.0216 H   0  0  0  0  0  0
  -26.2931  -29.6767   24.1194 H   0  0  0  0  0  0
  -27.4073  -29.7316   25.4660 H   0  0  0  0  0  0
  -27.8773  -30.4361   23.9377 H   0  0  0  0  0  0
  -27.2626  -33.3628   26.2124 H   0  0  0  0  0  0
  -28.3826  -32.6929   25.0330 H   0  0  0  0  0  0
  -28.0719  -31.8441   26.5400 H   0  0  0  0  0  0
  -28.2597  -38.0131   24.7553 H   0  0  0  0  0  0
  -28.1104  -36.2654   24.6250 H   0  0  0  0  0  0
  -27.2298  -37.1420   25.8862 H   0  0  0  0  0  0
  -20.9318  -29.8753   21.6893 H   0  0  0  0  0  0
  -26.0187  -38.2869   24.1424 H   0  0  0  0  0  0
  -31.7084  -21.3524   21.9796 H   0  0  0  0  0  0
  -31.3850  -17.0990   22.4813 H   0  0  0  0  0  0
  -33.4928  -20.1167   23.0570 H   0  0  0  0  0  0
  -33.4725  -18.3553   23.1036 H   0  0  0  0  0  0
  -32.5584  -19.2809   24.3005 H   0  0  0  0  0  0
  -27.5034  -20.2197   20.0721 H   0  0  0  0  0  0
  -27.2823  -18.5297   20.3412 H   0  0  0  0  0  0
  -28.1898  -19.0709   18.9177 H   0  0  0  0  0  0
  -31.4673  -18.3346   16.3999 H   0  0  0  0  0  0
  -29.9126  -17.5244   16.3061 H   0  0  0  0  0  0
  -31.3965  -16.5810   16.2379 H   0  0  0  0  0  0
  -32.9196  -18.1108   18.4309 H   0  0  0  0  0  0
  -32.8621  -16.3540   18.4355 H   0  0  0  0  0  0
  -32.3678  -17.2678   19.8617 H   0  0  0  0  0  0
  -29.0041  -21.6819   19.4583 H   0  0  0  0  0  0
  -30.6203  -22.1191   19.8245 H   0  0  0  0  0  0
  -28.2112  -16.6537   20.6163 H   0  0  0  0  0  0
  -29.1244  -16.0774   21.9580 H   0  0  0  0  0  0
  -29.7575  -22.8709   22.1648 H   0  0  0  0  0  0
  -28.1650  -22.7926   21.5016 H   0  0  0  0  0  0
  -30.1847  -24.4323   19.9163 H   0  0  0  0  0  0
  -29.8867  -24.9870   21.5289 H   0  0  0  0  0  0
  -30.3046  -15.2740   18.0344 H   0  0  0  0  0  0
  -28.9678  -16.3283   18.3439 H   0  0  0  0  0  0
  -27.3800  -25.0135   20.9823 H   0  0  0  0  0  0
  -27.8448  -24.7876   19.3002 H   0  0  0  0  0  0
  -30.4595  -18.2274   18.6133 H   0  0  0  0  0  0
  1 25  1  0  0  0
  1 30  2  0  0  0
  1 88  1  0  0  0
  2  3  1  0  0  0
  2 25  1  0  0  0
  2 89  1  0  0  0
  2 90  1  0  0  0
  3  4  1  0  0  0
  3 91  1  0  0  0
  3 92  1  0  0  0
  4  5  1  0  0  0
  4 93  1  0  0  0
  4 94  1  0  0  0
  5  6  1  0  0  0
  5 26  1  0  0  0
  5 95  1  0  0  0
  6 25  1  0  0  0
  6 96  1  0  0  0
  6 97  1  0  0  0
  7  8  2  0  0  0
  7 26  1  0  0  0
  7 29  1  0  0  0
  8  9  1  0  0  0
  8 22  1  0  0  0
  9 10  1  0  0  0
  9 27  2  0  0  0
 10 11  2  0  0  0
 10 15  1  0  0  0
 11 12  1  0  0  0
 11 98  1  0  0  0
 12 13  2  0  0  0
 12 99  1  0  0  0
 13 14  1  0  0  0
 13 31  1  0  0  0
 14 15  2  0  0  0
 14100  1  0  0  0
 15101  1  0  0  0
 16 17  2  0  0  0
 16 21  1  0  0  0
 16 31  1  0  0  0
 17 18  1  0  0  0
 17102  1  0  0  0
 18 19  2  0  0  0
 18103  1  0  0  0
 19 20  1  0  0  0
 19 24  1  0  0  0
 20 21  2  0  0  0
 20104  1  0  0  0
 21 23  1  0  0  0
 22 28  1  0  0  0
 22 32  2  0  0  0
 26 27  1  0  0  0
 28105  1  0  0  0
 28106  1  0  0  0
 29107  1  0  0  0
 29108  1  0  0  0
 33 34  1  0  0  0
 33 66  1  0  0  0
 33 70  2  0  0  0
 34 36  1  0  0  0
 34 59  1  0  0  0
 34109  1  0  0  0
 35 44  2  0  0  0
 35 45  1  0  0  0
 35 68  1  0  0  0
 36 56  1  0  0  0
 36110  1  0  0  0
 37 39  1  0  0  0
 37 47  1  0  0  0
 37 66  1  0  0  0
 37111  1  0  0  0
 38 43  2  0  0  0
 38 46  1  0  0  0
 38 47  1  0  0  0
 39 64  1  0  0  0
 39 67  2  0  0  0
 40 52  1  0  0  0
 40 53  2  0  0  0
 40 58  1  0  0  0
 41112  1  0  0  0
 41113  1  0  0  0
 41114  1  0  0  0
 41 48  1  0  0  0
 42 43  1  0  0  0
 42 66  1  0  0  0
 42115  1  0  0  0
 42116  1  0  0  0
 43 44  1  0  0  0
 44117  1  0  0  0
 45 46  2  0  0  0
 45118  1  0  0  0
 46119  1  0  0  0
 47120  1  0  0  0
 47121  1  0  0  0
 48 56  1  0  0  0
 48 65  1  0  0  0
 48122  1  0  0  0
 49 50  1  0  0  0
 49 53  1  0  0  0
 49 64  1  0  0  0
 49123  1  0  0  0
 50 51  1  0  0  0
 50124  1  0  0  0
 50125  1  0  0  0
 51 52  1  0  0  0
 51126  1  0  0  0
 51127  1  0  0  0
 52128  1  0  0  0
 52129  1  0  0  0
 53 54  1  0  0  0
 54 55  2  0  0  0
 54130  1  0  0  0
 55 57  1  0  0  0
 55131  1  0  0  0
 56 69  2  0  0  0
 57 58  2  0  0  0
 57132  1  0  0  0
 58133  1  0  0  0
 59 60  1  0  0  0
 59 61  1  0  0  0
 59 62  1  0  0  0
 60134  1  0  0  0
 60135  1  0  0  0
 60136  1  0  0  0
 61137  1  0  0  0
 61138  1  0  0  0
 61139  1  0  0  0
 62140  1  0  0  0
 62141  1  0  0  0
 62142  1  0  0  0
 63 65  1  0  0  0
 63143  1  0  0  0
 63144  1  0  0  0
 63145  1  0  0  0
 64146  1  0  0  0
 65147  1  0  0  0
 68 86  1  0  0  0
 71 73  2  0  0  0
 71 74  1  0  0  0
 71148  1  0  0  0
 72 73  1  0  0  0
 72 75  2  0  0  0
 72149  1  0  0  0
 73 77  1  0  0  0
 74 76  2  0  0  0
 74 81  1  0  0  0
 75 76  1  0  0  0
 75 82  1  0  0  0
 76 78  1  0  0  0
 77150  1  0  0  0
 77151  1  0  0  0
 77152  1  0  0  0
 78153  1  0  0  0
 78154  1  0  0  0
 78155  1  0  0  0
 79156  1  0  0  0
 79157  1  0  0  0
 79158  1  0  0  0
 79 87  1  0  0  0
 80 87  1  0  0  0
 80159  1  0  0  0
 80160  1  0  0  0
 80161  1  0  0  0
 81 83  1  0  0  0
 81162  1  0  0  0
 81163  1  0  0  0
 82 88  1  0  0  0
 82164  1  0  0  0
 82165  1  0  0  0
 83 84  1  0  0  0
 83166  1  0  0  0
 83167  1  0  0  0
 84 86  1  0  0  0
 84168  1  0  0  0
 84169  1  0  0  0
 85 87  1  0  0  0
 85 88  1  0  0  0
 85170  1  0  0  0
 85171  1  0  0  0
 86172  1  0  0  0
 86173  1  0  0  0
 87174  1  0  0  0
M  ISO  4   1 100  68 101  86 101  88 100
M  END
> <chiral flag>
0

> <version>
0

> <s_m_source_file>
/data/baiqing/PycharmProjects/Reinvent-master-3.2/result/LINK_invent/BTK/process_docking_weight1_custom_sum_contain_oxygen_bond_distance_aromatic_linkinvent_7_9_3/rearranged_h_0115.sdf

> <i_m_source_file_index>
77

> <r_mmod_Potential_Energy-OPLS-2005>
193.207061767578

> <r_mmod_Stretch_Energy-OPLS-2005>
54.4061126708984

> <r_mmod_Bend_Energy-OPLS-2005>
120.019088745117

> <r_mmod_Torsional_Energy-OPLS-2005>
332.799926757812

> <r_mmod_Improper_Torsional_Energy-OPLS-2005>
23.3515815734863

> <r_mmod_Van_der_Waal_Energy-OPLS-2005>
138.314208984375

> <r_mmod_Electrostatic_Energy-OPLS-2005>
-329.076599121094

> <r_mmod_Solvation_Energy-OPLS-2005>
-184.841430664062

> <b_mmod_Minimization_Converged-OPLS-2005>
0

> <r_mmod_RMS_Derivative-OPLS-2005>
3.03892683982849

$$$$
77
                    3D
 Structure written by MMmdl.
171180  0  0  1  0            999 V2000
  -30.5348  -14.8768   20.4280 C   0  0  0  0  0  0
  -30.4543  -12.5354   19.4837 C   0  0  0  0  0  0
  -29.5271  -12.5192   18.2439 C   0  0  0  0  0  0
  -28.0558  -12.3159   18.6579 C   0  0  0  0  0  0
  -27.6382  -13.2329   19.8374 C   0  0  2  0  0  0
  -28.6830  -13.2062   20.9751 C   0  0  0  0  0  0
  -25.2504  -13.8181   20.5647 C   0  0  0  0  0  0
  -24.1814  -13.0433   20.9222 C   0  0  0  0  0  0
  -24.6404  -11.6914   20.8755 C   0  0  0  0  0  0
  -23.9076  -10.4292   21.0428 C   0  0  0  0  0  0
  -24.3628   -9.4204   21.9200 C   0  0  0  0  0  0
  -23.6295   -8.2242   22.0764 C   0  0  0  0  0  0
  -22.4280   -8.0293   21.3552 C   0  0  0  0  0  0
  -21.9904   -9.0276   20.4667 C   0  0  0  0  0  0
  -22.7245  -10.2146   20.3084 C   0  0  0  0  0  0
  -21.6849   -6.0742   22.5285 C   0  0  0  0  0  0
  -21.4016   -6.5643   23.8223 C   0  0  0  0  0  0
  -21.3657   -5.6790   24.9174 C   0  0  0  0  0  0
  -21.6039   -4.3057   24.7227 C   0  0  0  0  0  0
  -21.8816   -3.8152   23.4350 C   0  0  0  0  0  0
  -21.9188   -4.6968   22.3405 C   0  0  0  0  0  0
  -22.7837  -13.5234   21.1867 C   0  0  0  0  0  0
  -22.1658   -4.2161   21.0977 F   0  0  0  0  0  0
  -21.5619   -3.4529   25.7736 F   0  0  0  0  0  0
  -29.9732  -13.6055   20.3956 N   0  0  0  0  0  0
  -26.2923  -12.9383   20.3195 N   0  0  0  0  0  0
  -25.9328  -11.6539   20.5710 N   0  0  0  0  0  0
  -22.0456  -12.8260   22.0428 N   0  0  0  0  0  0
  -25.4143  -15.1907   20.3962 N   0  0  0  0  0  0
  -31.7301  -14.9977   20.1350 O   0  0  0  0  0  0
  -21.6634   -6.8893   21.4255 O   0  0  0  0  0  0
  -22.3559  -14.5541   20.6691 O   0  0  0  0  0  0
  -24.6349  -31.8486   23.1946 C   0  0  0  0  0  0
  -25.9146  -32.4714   23.8311 C   0  0  1  0  0  0
  -27.2251  -27.1838   20.1405 C   0  0  0  0  0  0
  -25.5926  -33.8524   24.2233 N   0  0  0  0  0  0
  -23.4374  -30.4675   21.5372 C   0  0  2  0  0  0
  -24.8909  -28.9062   20.1040 C   0  0  0  0  0  0
  -22.7536  -29.4537   22.4878 C   0  0  0  0  0  0
  -18.0305  -28.1361   22.8462 C   0  0  0  0  0  0
  -24.1495  -36.7263   23.2637 C   0  0  0  0  0  0
  -25.9892  -30.7340   21.3904 C   0  0  0  0  0  0
  -26.0614  -29.3498   20.7312 C   0  0  0  0  0  0
  -27.2241  -28.4995   20.7434 C   0  0  0  0  0  0
  -26.0356  -26.8442   19.4537 C   0  0  0  0  0  0
  -24.8889  -27.6656   19.4508 C   0  0  0  0  0  0
  -23.6619  -29.7983   20.1538 C   0  0  0  0  0  0
  -25.4115  -36.3045   24.0329 C   0  0  1  0  0  0
  -20.5908  -28.3670   23.1252 C   0  0  2  0  0  0
  -20.6784  -26.9378   22.5404 C   0  0  0  0  0  0
  -19.5772  -26.6349   21.5192 C   0  0  0  0  0  0
  -18.1947  -26.7902   22.1603 C   0  0  0  0  0  0
  -19.1557  -28.8836   23.2854 C   0  0  0  0  0  0
  -18.9479  -30.1429   23.8887 C   0  0  0  0  0  0
  -17.6473  -30.6559   24.0555 C   0  0  0  0  0  0
  -25.9064  -34.9417   23.5091 C   0  0  0  0  0  0
  -16.5366  -29.9050   23.6318 C   0  0  0  0  0  0
  -16.7286  -28.6465   23.0343 C   0  0  0  0  0  0
  -26.4496  -31.6560   25.0725 C   0  0  0  0  0  0
  -25.3711  -31.3757   26.1457 C   0  0  0  0  0  0
  -27.0311  -30.2941   24.6274 C   0  0  0  0  0  0
  -27.6077  -32.4282   25.7467 C   0  0  0  0  0  0
  -27.5588  -37.1775   24.8451 C   0  0  0  0  0  0
  -21.4235  -29.3015   22.3640 N   0  0  0  0  0  0
  -26.4279  -37.3752   23.9424 N   0  0  0  0  0  0
  -24.7060  -31.0374   22.0957 N   0  0  0  0  0  0
  -23.4199  -28.8080   23.3004 O   0  0  0  0  0  0
  -28.2966  -26.2335   20.2450 O   0  0  0  0  0  0
  -26.5649  -34.8907   22.4671 O   0  0  0  0  0  0
  -23.5484  -32.1350   23.7187 O   0  0  0  0  0  0
  -28.3466  -18.0943   20.4169 C   0  0  0  0  0  0
  -30.4609  -19.7484   20.2234 C   0  0  0  0  0  0
  -28.1176  -19.5080   20.2305 C   0  0  0  0  0  0
  -29.2031  -20.4427   20.1320 C   0  0  0  0  0  0
  -29.6310  -17.4734   20.4605 C   0  0  0  0  0  0
  -24.6977  -19.9112   23.1838 C   0  0  0  0  0  0
  -24.2068  -21.2246   22.5831 C   0  0  0  0  0  0
  -26.0007  -19.5989   22.4372 C   0  0  0  0  0  0
  -24.7690  -21.2265   21.1532 C   0  0  0  0  0  0
  -24.9391  -22.6742   20.6547 C   0  0  0  0  0  0
  -23.7970  -20.4706   20.2127 C   0  0  0  0  0  0
  -29.0462  -22.0035   19.6339 C   0  0  0  0  0  0
  -26.6681  -19.9596   20.0531 C   0  0  0  0  0  0
  -28.8829  -23.4137   20.4957 C   0  0  0  0  0  0
  -28.1625  -24.7592   19.8234 C   0  0  0  0  0  0
  -30.6627  -18.3740   20.3719 N   0  0  0  0  0  0
  -29.6565  -15.9631   20.6071 N   0  0  0  0  0  0
  -26.0873  -20.5381   21.2909 N   0  3  2  0  0  0
  -31.4877  -12.6979   19.1740 H   0  0  0  0  0  0
  -30.4419  -11.5671   19.9874 H   0  0  0  0  0  0
  -29.8320  -11.7345   17.5498 H   0  0  0  0  0  0
  -29.6285  -13.4591   17.6990 H   0  0  0  0  0  0
  -27.9369  -11.2705   18.9477 H   0  0  0  0  0  0
  -27.3995  -12.4729   17.8011 H   0  0  0  0  0  0
  -27.6143  -14.2429   19.4310 H   0  0  0  0  0  0
  -28.7467  -12.2084   21.4129 H   0  0  0  0  0  0
  -28.3921  -13.8760   21.7856 H   0  0  0  0  0  0
  -25.2790   -9.5658   22.4747 H   0  0  0  0  0  0
  -24.0002   -7.4624   22.7483 H   0  0  0  0  0  0
  -21.0823   -8.8814   19.8982 H   0  0  0  0  0  0
  -22.3724  -10.9683   19.6186 H   0  0  0  0  0  0
  -21.2016   -7.6152   23.9730 H   0  0  0  0  0  0
  -21.1477   -6.0516   25.9077 H   0  0  0  0  0  0
  -22.0595   -2.7617   23.2845 H   0  0  0  0  0  0
  -22.4040  -11.9932   22.4856 H   0  0  0  0  0  0
  -21.1086  -13.1334   22.2628 H   0  0  0  0  0  0
  -24.5977  -15.7921   20.4168 H   0  0  0  0  0  0
  -26.1764  -15.5800   19.8595 H   0  0  0  0  0  0
  -26.7198  -32.5336   23.1034 H   0  0  0  0  0  0
  -25.0031  -33.9649   25.0348 H   0  0  0  0  0  0
  -22.7346  -31.2899   21.3862 H   0  0  0  0  0  0
  -23.3775  -35.9575   23.3249 H   0  0  0  0  0  0
  -24.3591  -36.8939   22.2061 H   0  0  0  0  0  0
  -23.7228  -37.6439   23.6700 H   0  0  0  0  0  0
  -26.1379  -31.4923   20.6203 H   0  0  0  0  0  0
  -26.8607  -30.7847   22.0307 H   0  0  0  0  0  0
  -28.1096  -28.8294   21.2687 H   0  0  0  0  0  0
  -25.9483  -25.9149   18.9148 H   0  0  0  0  0  0
  -23.9995  -27.3288   18.9362 H   0  0  0  0  0  0
  -23.7883  -30.5732   19.3976 H   0  0  0  0  0  0
  -22.7794  -29.2332   19.8472 H   0  0  0  0  0  0
  -25.1293  -36.1880   25.0818 H   0  0  0  0  0  0
  -20.9991  -28.3252   24.1379 H   0  0  0  0  0  0
  -20.5624  -26.2284   23.3612 H   0  0  0  0  0  0
  -21.6667  -26.7358   22.1255 H   0  0  0  0  0  0
  -19.6939  -25.6256   21.1227 H   0  0  0  0  0  0
  -19.6719  -27.3154   20.6721 H   0  0  0  0  0  0
  -17.4217  -26.6622   21.4015 H   0  0  0  0  0  0
  -18.0370  -26.0042   22.9000 H   0  0  0  0  0  0
  -19.7953  -30.7238   24.2267 H   0  0  0  0  0  0
  -17.5025  -31.6239   24.5155 H   0  0  0  0  0  0
  -15.5366  -30.2941   23.7652 H   0  0  0  0  0  0
  -15.8686  -28.0769   22.7072 H   0  0  0  0  0  0
  -24.5858  -30.7131   25.7807 H   0  0  0  0  0  0
  -24.8942  -32.2944   26.4882 H   0  0  0  0  0  0
  -25.8021  -30.8927   27.0235 H   0  0  0  0  0  0
  -26.2894  -29.6693   24.1285 H   0  0  0  0  0  0
  -27.3913  -29.7223   25.4834 H   0  0  0  0  0  0
  -27.8829  -30.4157   23.9577 H   0  0  0  0  0  0
  -27.2735  -33.3617   26.2009 H   0  0  0  0  0  0
  -28.3901  -32.6765   25.0281 H   0  0  0  0  0  0
  -28.0724  -31.8407   26.5397 H   0  0  0  0  0  0
  -28.2577  -38.0099   24.7536 H   0  0  0  0  0  0
  -28.1114  -36.2637   24.6214 H   0  0  0  0  0  0
  -27.2325  -37.1360   25.8855 H   0  0  0  0  0  0
  -20.9421  -29.8736   21.6847 H   0  0  0  0  0  0
  -26.0153  -38.2819   24.1452 H   0  0  0  0  0  0
  -27.4812  -17.4499   20.4688 H   0  0  0  0  0  0
  -31.3723  -20.3154   20.1052 H   0  0  0  0  0  0
  -23.9681  -19.1204   23.0021 H   0  0  0  0  0  0
  -24.8450  -19.9812   24.2616 H   0  0  0  0  0  0
  -24.6219  -22.0560   23.1556 H   0  0  0  0  0  0
  -23.1205  -21.3228   22.6190 H   0  0  0  0  0  0
  -25.9948  -18.5566   22.1132 H   0  0  0  0  0  0
  -26.8703  -19.7364   23.0812 H   0  0  0  0  0  0
  -23.9802  -23.1947   20.6487 H   0  0  0  0  0  0
  -25.3304  -22.7138   19.6380 H   0  0  0  0  0  0
  -25.6114  -23.2470   21.2932 H   0  0  0  0  0  0
  -22.7931  -20.8926   20.2650 H   0  0  0  0  0  0
  -23.7117  -19.4143   20.4700 H   0  0  0  0  0  0
  -24.1023  -20.5335   19.1677 H   0  0  0  0  0  0
  -28.2334  -22.0092   18.9108 H   0  0  0  0  0  0
  -29.9167  -22.1717   18.9958 H   0  0  0  0  0  0
  -26.0708  -19.1061   19.7320 H   0  0  0  0  0  0
  -26.5974  -20.6736   19.2354 H   0  0  0  0  0  0
  -29.8777  -23.7012   20.8393 H   0  0  0  0  0  0
  -28.3362  -23.1870   21.4098 H   0  0  0  0  0  0
  -27.1086  -24.5004   19.8593 H   0  0  0  0  0  0
  -28.4174  -24.7533   18.7634 H   0  0  0  0  0  0
  -28.7401  -15.6008   20.8089 H   0  0  0  0  0  0
  -26.7431  -21.2436   21.5909 H   0  0  0  0  0  0
  1 25  1  0  0  0
  1 30  2  0  0  0
  1 87  1  0  0  0
  2  3  1  0  0  0
  2 25  1  0  0  0
  2 89  1  0  0  0
  2 90  1  0  0  0
  3  4  1  0  0  0
  3 91  1  0  0  0
  3 92  1  0  0  0
  4  5  1  0  0  0
  4 93  1  0  0  0
  4 94  1  0  0  0
  5  6  1  0  0  0
  5 26  1  0  0  0
  5 95  1  0  0  0
  6 25  1  0  0  0
  6 96  1  0  0  0
  6 97  1  0  0  0
  7  8  2  0  0  0
  7 26  1  0  0  0
  7 29  1  0  0  0
  8  9  1  0  0  0
  8 22  1  0  0  0
  9 10  1  0  0  0
  9 27  2  0  0  0
 10 11  2  0  0  0
 10 15  1  0  0  0
 11 12  1  0  0  0
 11 98  1  0  0  0
 12 13  2  0  0  0
 12 99  1  0  0  0
 13 14  1  0  0  0
 13 31  1  0  0  0
 14 15  2  0  0  0
 14100  1  0  0  0
 15101  1  0  0  0
 16 17  2  0  0  0
 16 21  1  0  0  0
 16 31  1  0  0  0
 17 18  1  0  0  0
 17102  1  0  0  0
 18 19  2  0  0  0
 18103  1  0  0  0
 19 20  1  0  0  0
 19 24  1  0  0  0
 20 21  2  0  0  0
 20104  1  0  0  0
 21 23  1  0  0  0
 22 28  1  0  0  0
 22 32  2  0  0  0
 26 27  1  0  0  0
 28105  1  0  0  0
 28106  1  0  0  0
 29107  1  0  0  0
 29108  1  0  0  0
 33 34  1  0  0  0
 33 66  1  0  0  0
 33 70  2  0  0  0
 34 36  1  0  0  0
 34 59  1  0  0  0
 34109  1  0  0  0
 35 44  2  0  0  0
 35 45  1  0  0  0
 35 68  1  0  0  0
 36 56  1  0  0  0
 36110  1  0  0  0
 37 39  1  0  0  0
 37 47  1  0  0  0
 37 66  1  0  0  0
 37111  1  0  0  0
 38 43  2  0  0  0
 38 46  1  0  0  0
 38 47  1  0  0  0
 39 64  1  0  0  0
 39 67  2  0  0  0
 40 52  1  0  0  0
 40 53  2  0  0  0
 40 58  1  0  0  0
 41112  1  0  0  0
 41113  1  0  0  0
 41114  1  0  0  0
 41 48  1  0  0  0
 42 43  1  0  0  0
 42 66  1  0  0  0
 42115  1  0  0  0
 42116  1  0  0  0
 43 44  1  0  0  0
 44117  1  0  0  0
 45 46  2  0  0  0
 45118  1  0  0  0
 46119  1  0  0  0
 47120  1  0  0  0
 47121  1  0  0  0
 48 56  1  0  0  0
 48 65  1  0  0  0
 48122  1  0  0  0
 49 50  1  0  0  0
 49 53  1  0  0  0
 49 64  1  0  0  0
 49123  1  0  0  0
 50 51  1  0  0  0
 50124  1  0  0  0
 50125  1  0  0  0
 51 52  1  0  0  0
 51126  1  0  0  0
 51127  1  0  0  0
 52128  1  0  0  0
 52129  1  0  0  0
 53 54  1  0  0  0
 54 55  2  0  0  0
 54130  1  0  0  0
 55 57  1  0  0  0
 55131  1  0  0  0
 56 69  2  0  0  0
 57 58  2  0  0  0
 57132  1  0  0  0
 58133  1  0  0  0
 59 60  1  0  0  0
 59 61  1  0  0  0
 59 62  1  0  0  0
 60134  1  0  0  0
 60135  1  0  0  0
 60136  1  0  0  0
 61137  1  0  0  0
 61138  1  0  0  0
 61139  1  0  0  0
 62140  1  0  0  0
 62141  1  0  0  0
 62142  1  0  0  0
 63 65  1  0  0  0
 63143  1  0  0  0
 63144  1  0  0  0
 63145  1  0  0  0
 64146  1  0  0  0
 65147  1  0  0  0
 68 85  1  0  0  0
 71 73  2  0  0  0
 71 75  1  0  0  0
 71148  1  0  0  0
 72 74  2  0  0  0
 72 86  1  0  0  0
 72149  1  0  0  0
 73 74  1  0  0  0
 73 83  1  0  0  0
 74 82  1  0  0  0
 75 86  2  0  0  0
 75 87  1  0  0  0
 76 77  1  0  0  0
 76 78  1  0  0  0
 76150  1  0  0  0
 76151  1  0  0  0
 77 79  1  0  0  0
 77152  1  0  0  0
 77153  1  0  0  0
 78 88  1  0  0  0
 78154  1  0  0  0
 78155  1  0  0  0
 79 80  1  0  0  0
 79 81  1  0  0  0
 79 88  1  0  0  0
 80156  1  0  0  0
 80157  1  0  0  0
 80158  1  0  0  0
 81159  1  0  0  0
 81160  1  0  0  0
 81161  1  0  0  0
 82 84  1  0  0  0
 82162  1  0  0  0
 82163  1  0  0  0
 83164  1  0  0  0
 83165  1  0  0  0
 83 88  1  0  0  0
 84 85  1  0  0  0
 84166  1  0  0  0
 84167  1  0  0  0
 85168  1  0  0  0
 85169  1  0  0  0
 87170  1  0  0  0
 88171  1  0  0  0
M  CHG  1  88   1
M  ISO  4   1 100  68 101  85 101  87 100
M  END
> <chiral flag>
0

> <version>
0

> <s_m_source_file>
/data/baiqing/PycharmProjects/Reinvent-master-3.2/result/LINK_invent/BTK/process_docking_weight1_custom_sum_contain_oxygen_bond_distance_aromatic_linkinvent_7_9_3/rearranged_h_0115.sdf

> <i_m_source_file_index>
78

> <r_mmod_Potential_Energy-OPLS-2005>
162.895950317383

> <r_mmod_Stretch_Energy-OPLS-2005>
196.383422851562

> <r_mmod_Bend_Energy-OPLS-2005>
276.833312988281

> <r_mmod_Torsional_Energy-OPLS-2005>
285.955383300781

> <r_mmod_Improper_Torsional_Energy-OPLS-2005>
8.75551128387451

> <r_mmod_Van_der_Waal_Energy-OPLS-2005>
127.215232849121

> <r_mmod_Electrostatic_Energy-OPLS-2005>
-399.983764648438

> <r_mmod_Solvation_Energy-OPLS-2005>
-482.188568115234

> <b_mmod_Minimization_Converged-OPLS-2005>
0

> <r_mmod_RMS_Derivative-OPLS-2005>
2.56313061714172

$$$$
78
                    3D
 Structure written by MMmdl.
160168  0  0  1  0            999 V2000
  -30.6534  -14.6009   20.5363 C   0  0  0  0  0  0
  -30.4359  -12.3751   19.4469 C   0  0  0  0  0  0
  -29.5046  -12.5035   18.2218 C   0  0  0  0  0  0
  -28.0286  -12.3422   18.6367 C   0  0  0  0  0  0
  -27.6567  -13.2125   19.8665 C   0  0  2  0  0  0
  -28.7023  -13.0614   20.9940 C   0  0  0  0  0  0
  -25.2588  -13.8163   20.5703 C   0  0  0  0  0  0
  -24.1841  -13.0434   20.9191 C   0  0  0  0  0  0
  -24.6399  -11.6906   20.8746 C   0  0  0  0  0  0
  -23.9062  -10.4292   21.0410 C   0  0  0  0  0  0
  -24.3613   -9.4205   21.9192 C   0  0  0  0  0  0
  -23.6287   -8.2241   22.0759 C   0  0  0  0  0  0
  -22.4272   -8.0279   21.3545 C   0  0  0  0  0  0
  -21.9909   -9.0255   20.4648 C   0  0  0  0  0  0
  -22.7236  -10.2133   20.3059 C   0  0  0  0  0  0
  -21.6852   -6.0733   22.5276 C   0  0  0  0  0  0
  -21.4015   -6.5640   23.8209 C   0  0  0  0  0  0
  -21.3652   -5.6791   24.9168 C   0  0  0  0  0  0
  -21.6045   -4.3057   24.7224 C   0  0  0  0  0  0
  -21.8818   -3.8146   23.4347 C   0  0  0  0  0  0
  -21.9193   -4.6959   22.3400 C   0  0  0  0  0  0
  -22.7861  -13.5237   21.1848 C   0  0  0  0  0  0
  -22.1662   -4.2152   21.0976 F   0  0  0  0  0  0
  -21.5625   -3.4536   25.7736 F   0  0  0  0  0  0
  -30.0187  -13.3913   20.4329 N   0  0  0  0  0  0
  -26.3009  -12.9340   20.3350 N   0  0  0  0  0  0
  -25.9330  -11.6498   20.5777 N   0  0  0  0  0  0
  -22.0495  -12.8227   22.0389 N   0  0  0  0  0  0
  -25.4314  -15.1881   20.4114 N   0  0  0  0  0  0
  -31.8002  -14.7370   20.1001 O   0  0  0  0  0  0
  -21.6638   -6.8875   21.4239 O   0  0  0  0  0  0
  -22.3559  -14.5549   20.6700 O   0  0  0  0  0  0
  -24.6235  -31.8632   23.2001 C   0  0  0  0  0  0
  -25.9090  -32.4790   23.8332 C   0  0  1  0  0  0
  -27.2267  -27.3591   20.1130 C   0  0  0  0  0  0
  -25.5913  -33.8577   24.2265 N   0  0  0  0  0  0
  -23.4162  -30.4838   21.5434 C   0  0  2  0  0  0
  -24.8631  -28.9389   20.1108 C   0  0  0  0  0  0
  -22.7461  -29.4644   22.4954 C   0  0  0  0  0  0
  -18.0287  -28.1382   22.8480 C   0  0  0  0  0  0
  -24.1497  -36.7296   23.2634 C   0  0  0  0  0  0
  -25.9518  -30.8055   21.3638 C   0  0  0  0  0  0
  -26.0301  -29.4335   20.7108 C   0  0  0  0  0  0
  -27.2190  -28.6528   20.7054 C   0  0  0  0  0  0
  -26.0443  -26.9005   19.4990 C   0  0  0  0  0  0
  -24.8675  -27.6742   19.4999 C   0  0  0  0  0  0
  -23.6286  -29.8136   20.1605 C   0  0  0  0  0  0
  -25.4116  -36.3081   24.0336 C   0  0  1  0  0  0
  -20.5883  -28.3696   23.1280 C   0  0  2  0  0  0
  -20.6771  -26.9417   22.5411 C   0  0  0  0  0  0
  -19.5749  -26.6374   21.5215 C   0  0  0  0  0  0
  -18.1924  -26.7922   22.1621 C   0  0  0  0  0  0
  -19.1538  -28.8854   23.2870 C   0  0  0  0  0  0
  -18.9458  -30.1444   23.8903 C   0  0  0  0  0  0
  -17.6462  -30.6578   24.0575 C   0  0  0  0  0  0
  -25.9059  -34.9455   23.5103 C   0  0  0  0  0  0
  -16.5354  -29.9079   23.6334 C   0  0  0  0  0  0
  -16.7277  -28.6497   23.0356 C   0  0  0  0  0  0
  -26.4480  -31.6583   25.0688 C   0  0  0  0  0  0
  -25.3717  -31.3682   26.1415 C   0  0  0  0  0  0
  -27.0320  -30.3024   24.6089 C   0  0  0  0  0  0
  -27.6055  -32.4302   25.7452 C   0  0  0  0  0  0
  -27.5585  -37.1781   24.8456 C   0  0  0  0  0  0
  -21.4182  -29.3047   22.3680 N   0  0  0  0  0  0
  -26.4285  -37.3787   23.9425 N   0  0  0  0  0  0
  -24.6823  -31.0671   22.0929 N   0  0  0  0  0  0
  -23.4188  -28.8199   23.3041 O   0  0  0  0  0  0
  -28.3244  -26.5056   20.1340 O   0  0  0  0  0  0
  -26.5629  -34.8930   22.4672 O   0  0  0  0  0  0
  -23.5412  -32.1407   23.7358 O   0  0  0  0  0  0
  -29.8264  -23.5427   20.1792 C   0  0  0  0  0  0
  -30.1564  -22.1769   19.9470 C   0  0  0  0  0  0
  -27.6112  -22.8679   20.8306 C   0  0  0  0  0  0
  -28.5391  -23.9236   20.6245 C   0  0  0  0  0  0
  -29.2297  -21.1158   20.1515 C   0  0  0  0  0  0
  -27.9331  -21.4960   20.6016 C   0  0  0  0  0  0
  -26.8556  -20.4552   20.8596 C   0  0  0  0  0  0
  -30.3101  -16.0932   22.5664 C   0  0  0  0  0  0
  -29.6221  -19.6513   19.7298 C   0  0  0  0  0  0
  -28.1901  -25.3843   21.0650 C   0  0  0  0  0  0
  -30.2016  -17.2161   20.2362 C   0  0  0  0  0  0
  -29.9278  -15.8973   21.0872 C   0  0  1  0  0  0
  -29.6301  -18.5307   20.7386 N   0  3  0  0  0  0
  -31.4769  -12.4904   19.1407 H   0  0  0  0  0  0
  -30.3657  -11.3768   19.8817 H   0  0  0  0  0  0
  -29.7646  -11.7565   17.4706 H   0  0  0  0  0  0
  -29.6495  -13.4770   17.7499 H   0  0  0  0  0  0
  -27.8664  -11.2891   18.8699 H   0  0  0  0  0  0
  -27.3712  -12.5724   17.7976 H   0  0  0  0  0  0
  -27.6785  -14.2481   19.5277 H   0  0  0  0  0  0
  -28.7089  -12.0393   21.3757 H   0  0  0  0  0  0
  -28.4555  -13.6906   21.8493 H   0  0  0  0  0  0
  -25.2753   -9.5682   22.4773 H   0  0  0  0  0  0
  -23.9994   -7.4631   22.7482 H   0  0  0  0  0  0
  -21.0836   -8.8768   19.8952 H   0  0  0  0  0  0
  -22.3692  -10.9673   19.6169 H   0  0  0  0  0  0
  -21.2011   -7.6147   23.9711 H   0  0  0  0  0  0
  -21.1473   -6.0523   25.9071 H   0  0  0  0  0  0
  -22.0607   -2.7610   23.2844 H   0  0  0  0  0  0
  -22.4083  -11.9866   22.4760 H   0  0  0  0  0  0
  -21.1115  -13.1277   22.2604 H   0  0  0  0  0  0
  -24.6646  -15.8430   20.5178 H   0  0  0  0  0  0
  -26.2792  -15.6234   20.0731 H   0  0  0  0  0  0
  -26.7168  -32.5494   23.1097 H   0  0  0  0  0  0
  -25.0062  -33.9723   25.0409 H   0  0  0  0  0  0
  -22.7092  -31.3038   21.3973 H   0  0  0  0  0  0
  -23.3770  -35.9614   23.3269 H   0  0  0  0  0  0
  -24.3600  -36.8965   22.2052 H   0  0  0  0  0  0
  -23.7232  -37.6479   23.6687 H   0  0  0  0  0  0
  -26.0760  -31.5693   20.5946 H   0  0  0  0  0  0
  -26.8339  -30.8561   21.9900 H   0  0  0  0  0  0
  -28.1158  -29.0222   21.1823 H   0  0  0  0  0  0
  -26.0298  -25.9218   19.0402 H   0  0  0  0  0  0
  -23.9720  -27.2843   19.0349 H   0  0  0  0  0  0
  -23.7423  -30.5864   19.3997 H   0  0  0  0  0  0
  -22.7496  -29.2391   19.8654 H   0  0  0  0  0  0
  -25.1290  -36.1926   25.0829 H   0  0  0  0  0  0
  -20.9970  -28.3277   24.1403 H   0  0  0  0  0  0
  -20.5704  -26.2303   23.3618 H   0  0  0  0  0  0
  -21.6635  -26.7469   22.1178 H   0  0  0  0  0  0
  -19.6934  -25.6283   21.1248 H   0  0  0  0  0  0
  -19.6690  -27.3186   20.6744 H   0  0  0  0  0  0
  -17.4199  -26.6683   21.4016 H   0  0  0  0  0  0
  -18.0314  -26.0063   22.9011 H   0  0  0  0  0  0
  -19.7943  -30.7240   24.2285 H   0  0  0  0  0  0
  -17.5025  -31.6264   24.5162 H   0  0  0  0  0  0
  -15.5350  -30.2980   23.7654 H   0  0  0  0  0  0
  -15.8680  -28.0813   22.7078 H   0  0  0  0  0  0
  -24.5917  -30.7021   25.7718 H   0  0  0  0  0  0
  -24.8873  -32.2825   26.4849 H   0  0  0  0  0  0
  -25.8033  -30.8843   27.0187 H   0  0  0  0  0  0
  -26.2855  -29.6747   24.1212 H   0  0  0  0  0  0
  -27.4162  -29.7303   25.4543 H   0  0  0  0  0  0
  -27.8660  -30.4341   23.9194 H   0  0  0  0  0  0
  -27.2698  -33.3639   26.1975 H   0  0  0  0  0  0
  -28.3871  -32.6801   25.0263 H   0  0  0  0  0  0
  -28.0696  -31.8450   26.5403 H   0  0  0  0  0  0
  -28.2551  -38.0122   24.7578 H   0  0  0  0  0  0
  -28.1128  -36.2662   24.6188 H   0  0  0  0  0  0
  -27.2312  -37.1319   25.8854 H   0  0  0  0  0  0
  -20.9361  -29.8760   21.6887 H   0  0  0  0  0  0
  -26.0171  -38.2865   24.1441 H   0  0  0  0  0  0
  -30.5796  -24.3048   20.0330 H   0  0  0  0  0  0
  -31.1489  -21.9496   19.5831 H   0  0  0  0  0  0
  -26.6245  -23.1182   21.1987 H   0  0  0  0  0  0
  -25.8662  -20.9121   20.9062 H   0  0  0  0  0  0
  -27.0320  -19.9627   21.8168 H   0  0  0  0  0  0
  -26.8218  -19.6984   20.0762 H   0  0  0  0  0  0
  -29.7100  -16.8736   23.0337 H   0  0  0  0  0  0
  -31.3608  -16.3613   22.6800 H   0  0  0  0  0  0
  -30.1398  -15.1815   23.1406 H   0  0  0  0  0  0
  -30.6221  -19.6926   19.2971 H   0  0  0  0  0  0
  -28.9707  -19.3614   18.9046 H   0  0  0  0  0  0
  -28.8426  -25.6118   21.9080 H   0  0  0  0  0  0
  -27.1886  -25.3669   21.4980 H   0  0  0  0  0  0
  -29.8093  -17.0425   19.2319 H   0  0  0  0  0  0
  -31.2774  -17.3530   20.1105 H   0  0  0  0  0  0
  -28.8539  -15.7284   21.0408 H   0  0  0  0  0  0
  -28.6842  -18.3843   21.0470 H   0  0  0  0  0  0
  -30.1689  -18.8326   21.5343 H   0  0  0  0  0  0
  1 25  1  0  0  0
  1 30  2  0  0  0
  1 82  1  0  0  0
  2  3  1  0  0  0
  2 25  1  0  0  0
  2 84  1  0  0  0
  2 85  1  0  0  0
  3  4  1  0  0  0
  3 86  1  0  0  0
  3 87  1  0  0  0
  4  5  1  0  0  0
  4 88  1  0  0  0
  4 89  1  0  0  0
  5  6  1  0  0  0
  5 26  1  0  0  0
  5 90  1  0  0  0
  6 25  1  0  0  0
  6 91  1  0  0  0
  6 92  1  0  0  0
  7  8  2  0  0  0
  7 26  1  0  0  0
  7 29  1  0  0  0
  8  9  1  0  0  0
  8 22  1  0  0  0
  9 10  1  0  0  0
  9 27  2  0  0  0
 10 11  2  0  0  0
 10 15  1  0  0  0
 11 12  1  0  0  0
 11 93  1  0  0  0
 12 13  2  0  0  0
 12 94  1  0  0  0
 13 14  1  0  0  0
 13 31  1  0  0  0
 14 15  2  0  0  0
 14 95  1  0  0  0
 15 96  1  0  0  0
 16 17  2  0  0  0
 16 21  1  0  0  0
 16 31  1  0  0  0
 17 18  1  0  0  0
 17 97  1  0  0  0
 18 19  2  0  0  0
 18 98  1  0  0  0
 19 20  1  0  0  0
 19 24  1  0  0  0
 20 21  2  0  0  0
 20 99  1  0  0  0
 21 23  1  0  0  0
 22 28  1  0  0  0
 22 32  2  0  0  0
 26 27  1  0  0  0
 28100  1  0  0  0
 28101  1  0  0  0
 29102  1  0  0  0
 29103  1  0  0  0
 33 34  1  0  0  0
 33 66  1  0  0  0
 33 70  2  0  0  0
 34 36  1  0  0  0
 34 59  1  0  0  0
 34104  1  0  0  0
 35 44  2  0  0  0
 35 45  1  0  0  0
 35 68  1  0  0  0
 36 56  1  0  0  0
 36105  1  0  0  0
 37 39  1  0  0  0
 37 47  1  0  0  0
 37 66  1  0  0  0
 37106  1  0  0  0
 38 43  2  0  0  0
 38 46  1  0  0  0
 38 47  1  0  0  0
 39 64  1  0  0  0
 39 67  2  0  0  0
 40 52  1  0  0  0
 40 53  2  0  0  0
 40 58  1  0  0  0
 41107  1  0  0  0
 41108  1  0  0  0
 41109  1  0  0  0
 41 48  1  0  0  0
 42 43  1  0  0  0
 42 66  1  0  0  0
 42110  1  0  0  0
 42111  1  0  0  0
 43 44  1  0  0  0
 44112  1  0  0  0
 45 46  2  0  0  0
 45113  1  0  0  0
 46114  1  0  0  0
 47115  1  0  0  0
 47116  1  0  0  0
 48 56  1  0  0  0
 48 65  1  0  0  0
 48117  1  0  0  0
 49 50  1  0  0  0
 49 53  1  0  0  0
 49 64  1  0  0  0
 49118  1  0  0  0
 50 51  1  0  0  0
 50119  1  0  0  0
 50120  1  0  0  0
 51 52  1  0  0  0
 51121  1  0  0  0
 51122  1  0  0  0
 52123  1  0  0  0
 52124  1  0  0  0
 53 54  1  0  0  0
 54 55  2  0  0  0
 54125  1  0  0  0
 55 57  1  0  0  0
 55126  1  0  0  0
 56 69  2  0  0  0
 57 58  2  0  0  0
 57127  1  0  0  0
 58128  1  0  0  0
 59 60  1  0  0  0
 59 61  1  0  0  0
 59 62  1  0  0  0
 60129  1  0  0  0
 60130  1  0  0  0
 60131  1  0  0  0
 61132  1  0  0  0
 61133  1  0  0  0
 61134  1  0  0  0
 62135  1  0  0  0
 62136  1  0  0  0
 62137  1  0  0  0
 63 65  1  0  0  0
 63138  1  0  0  0
 63139  1  0  0  0
 63140  1  0  0  0
 64141  1  0  0  0
 65142  1  0  0  0
 68 80  1  0  0  0
 71 72  2  0  0  0
 71 74  1  0  0  0
 71143  1  0  0  0
 72 75  1  0  0  0
 72144  1  0  0  0
 73 74  2  0  0  0
 73 76  1  0  0  0
 73145  1  0  0  0
 74 80  1  0  0  0
 75 76  2  0  0  0
 75 79  1  0  0  0
 76 77  1  0  0  0
 77146  1  0  0  0
 77147  1  0  0  0
 77148  1  0  0  0
 78149  1  0  0  0
 78150  1  0  0  0
 78151  1  0  0  0
 78 82  1  0  0  0
 79 83  1  0  0  0
 79152  1  0  0  0
 79153  1  0  0  0
 80154  1  0  0  0
 80155  1  0  0  0
 81 82  1  0  0  0
 81 83  1  0  0  0
 81156  1  0  0  0
 81157  1  0  0  0
 82158  1  0  0  0
 83159  1  0  0  0
 83160  1  0  0  0
M  CHG  1  83   1
M  ISO  4   1 100  68 101  80 101  82 100
M  END
> <chiral flag>
0

> <version>
0

> <s_m_source_file>
/data/baiqing/PycharmProjects/Reinvent-master-3.2/result/LINK_invent/BTK/process_docking_weight1_custom_sum_contain_oxygen_bond_distance_aromatic_linkinvent_7_9_3/rearranged_h_0115.sdf

> <i_m_source_file_index>
79

> <r_mmod_Potential_Energy-OPLS-2005>
-116.588821411133

> <r_mmod_Stretch_Energy-OPLS-2005>
68.6964263916016

> <r_mmod_Bend_Energy-OPLS-2005>
121.829086303711

> <r_mmod_Torsional_Energy-OPLS-2005>
219.516326904297

> <r_mmod_Improper_Torsional_Energy-OPLS-2005>
4.00410175323486

> <r_mmod_Van_der_Waal_Energy-OPLS-2005>
136.600799560547

> <r_mmod_Electrostatic_Energy-OPLS-2005>
-249.404724121094

> <r_mmod_Solvation_Energy-OPLS-2005>
-453.559478759766

> <b_mmod_Minimization_Converged-OPLS-2005>
0

> <r_mmod_RMS_Derivative-OPLS-2005>
1.95235693454742

$$$$
79
                    3D
 Structure written by MMmdl.
163171  0  0  1  0            999 V2000
  -30.6842  -14.5071   20.5811 C   0  0  0  0  0  0
  -30.4294  -12.3324   19.4254 C   0  0  0  0  0  0
  -29.4977  -12.5101   18.2083 C   0  0  0  0  0  0
  -28.0195  -12.3607   18.6210 C   0  0  0  0  0  0
  -27.6601  -13.2063   19.8719 C   0  0  2  0  0  0
  -28.7022  -12.9990   20.9938 C   0  0  0  0  0  0
  -25.2586  -13.8152   20.5669 C   0  0  0  0  0  0
  -24.1838  -13.0431   20.9170 C   0  0  0  0  0  0
  -24.6390  -11.6897   20.8722 C   0  0  0  0  0  0
  -23.9052  -10.4288   21.0395 C   0  0  0  0  0  0
  -24.3607   -9.4207   21.9174 C   0  0  0  0  0  0
  -23.6288   -8.2241   22.0751 C   0  0  0  0  0  0
  -22.4270   -8.0274   21.3541 C   0  0  0  0  0  0
  -21.9901   -9.0244   20.4641 C   0  0  0  0  0  0
  -22.7225  -10.2126   20.3047 C   0  0  0  0  0  0
  -21.6855   -6.0732   22.5276 C   0  0  0  0  0  0
  -21.4015   -6.5637   23.8208 C   0  0  0  0  0  0
  -21.3660   -5.6788   24.9169 C   0  0  0  0  0  0
  -21.6047   -4.3052   24.7222 C   0  0  0  0  0  0
  -21.8819   -3.8144   23.4343 C   0  0  0  0  0  0
  -21.9196   -4.6960   22.3400 C   0  0  0  0  0  0
  -22.7864  -13.5233   21.1842 C   0  0  0  0  0  0
  -22.1663   -4.2147   21.0977 F   0  0  0  0  0  0
  -21.5633   -3.4534   25.7735 F   0  0  0  0  0  0
  -30.0286  -13.3204   20.4408 N   0  0  0  0  0  0
  -26.3016  -12.9317   20.3344 N   0  0  0  0  0  0
  -25.9317  -11.6480   20.5750 N   0  0  0  0  0  0
  -22.0507  -12.8221   22.0395 N   0  0  0  0  0  0
  -25.4320  -15.1867   20.4072 N   0  0  0  0  0  0
  -31.8117  -14.7038   20.1197 O   0  0  0  0  0  0
  -21.6639   -6.8870   21.4237 O   0  0  0  0  0  0
  -22.3553  -14.5544   20.6697 O   0  0  0  0  0  0
  -24.6188  -31.8655   23.2093 C   0  0  0  0  0  0
  -25.9071  -32.4807   23.8386 C   0  0  1  0  0  0
  -27.2264  -27.3882   20.0906 C   0  0  0  0  0  0
  -25.5922  -33.8608   24.2319 N   0  0  0  0  0  0
  -23.4069  -30.4920   21.5516 C   0  0  2  0  0  0
  -24.8490  -28.9567   20.1160 C   0  0  0  0  0  0
  -22.7429  -29.4655   22.4986 C   0  0  0  0  0  0
  -18.0276  -28.1375   22.8493 C   0  0  0  0  0  0
  -24.1491  -36.7304   23.2639 C   0  0  0  0  0  0
  -25.9425  -30.8157   21.3708 C   0  0  0  0  0  0
  -26.0141  -29.4488   20.7140 C   0  0  0  0  0  0
  -27.2008  -28.6725   20.6981 C   0  0  0  0  0  0
  -26.0308  -26.9290   19.4825 C   0  0  0  0  0  0
  -24.8552  -27.6983   19.4992 C   0  0  0  0  0  0
  -23.6151  -29.8283   20.1660 C   0  0  0  0  0  0
  -25.4115  -36.3104   24.0339 C   0  0  1  0  0  0
  -20.5872  -28.3661   23.1313 C   0  0  2  0  0  0
  -20.6771  -26.9397   22.5414 C   0  0  0  0  0  0
  -19.5747  -26.6381   21.5214 C   0  0  0  0  0  0
  -18.1925  -26.7924   22.1623 C   0  0  0  0  0  0
  -19.1529  -28.8836   23.2898 C   0  0  0  0  0  0
  -18.9453  -30.1440   23.8906 C   0  0  0  0  0  0
  -17.6454  -30.6583   24.0558 C   0  0  0  0  0  0
  -25.9044  -34.9469   23.5122 C   0  0  0  0  0  0
  -16.5346  -29.9081   23.6333 C   0  0  0  0  0  0
  -16.7265  -28.6496   23.0357 C   0  0  0  0  0  0
  -26.4486  -31.6594   25.0725 C   0  0  0  0  0  0
  -25.3741  -31.3702   26.1462 C   0  0  0  0  0  0
  -27.0322  -30.3033   24.6122 C   0  0  0  0  0  0
  -27.6055  -32.4320   25.7487 C   0  0  0  0  0  0
  -27.5584  -37.1808   24.8469 C   0  0  0  0  0  0
  -21.4154  -29.3031   22.3719 N   0  0  0  0  0  0
  -26.4299  -37.3790   23.9410 N   0  0  0  0  0  0
  -24.6748  -31.0727   22.1013 N   0  0  0  0  0  0
  -23.4188  -28.8186   23.3029 O   0  0  0  0  0  0
  -28.4107  -26.6554   20.1135 O   0  0  0  0  0  0
  -26.5598  -34.8919   22.4678 O   0  0  0  0  0  0
  -23.5372  -32.1424   23.7469 O   0  0  0  0  0  0
  -29.1798  -20.4515   20.5618 C   0  0  0  0  0  0
  -26.5357  -21.6850   21.7898 C   0  0  0  0  0  0
  -27.8632  -21.4454   22.5072 C   0  0  0  0  0  0
  -26.8584  -22.7262   20.7083 C   0  0  0  0  0  0
  -28.9284  -21.7249   21.4304 C   0  0  2  0  0  0
  -28.5566  -24.7861   22.2658 C   0  0  0  0  0  0
  -29.6138  -17.9601   20.5359 C   0  0  0  0  0  0
  -30.3878  -16.9051   21.3867 C   0  0  0  0  0  0
  -28.4605  -25.2537   19.7193 C   0  0  0  0  0  0
  -28.8743  -24.2427   20.8507 C   0  0  2  0  0  0
  -29.5480  -19.2971   21.1657 N   0  0  0  0  0  0
  -29.9718  -15.5055   21.1470 N   0  0  0  0  0  0
  -28.3424  -22.8409   20.6147 N   0  3  2  0  0  0
  -29.0013  -20.5172   19.3425 O   0  0  0  0  0  0
  -31.4720  -12.4452   19.1233 H   0  0  0  0  0  0
  -30.3450  -11.3230   19.8310 H   0  0  0  0  0  0
  -29.7452  -11.7822   17.4343 H   0  0  0  0  0  0
  -29.6569  -13.4943   17.7647 H   0  0  0  0  0  0
  -27.8378  -11.3045   18.8240 H   0  0  0  0  0  0
  -27.3674  -12.6253   17.7880 H   0  0  0  0  0  0
  -27.7002  -14.2523   19.5673 H   0  0  0  0  0  0
  -28.6892  -11.9628   21.3351 H   0  0  0  0  0  0
  -28.4559  -13.5964   21.8724 H   0  0  0  0  0  0
  -25.2752   -9.5689   22.4746 H   0  0  0  0  0  0
  -24.0003   -7.4634   22.7467 H   0  0  0  0  0  0
  -21.0836   -8.8751   19.8945 H   0  0  0  0  0  0
  -22.3676  -10.9659   19.6154 H   0  0  0  0  0  0
  -21.2002   -7.6144   23.9709 H   0  0  0  0  0  0
  -21.1487   -6.0520   25.9072 H   0  0  0  0  0  0
  -22.0602   -2.7608   23.2841 H   0  0  0  0  0  0
  -22.4125  -11.9877   22.4770 H   0  0  0  0  0  0
  -21.1124  -13.1242   22.2599 H   0  0  0  0  0  0
  -24.6654  -15.8424   20.5095 H   0  0  0  0  0  0
  -26.2825  -15.6214   20.0732 H   0  0  0  0  0  0
  -26.7132  -32.5496   23.1133 H   0  0  0  0  0  0
  -25.0111  -33.9772   25.0489 H   0  0  0  0  0  0
  -22.6981  -31.3112   21.4132 H   0  0  0  0  0  0
  -23.3755  -35.9636   23.3314 H   0  0  0  0  0  0
  -24.3581  -36.8905   22.2051 H   0  0  0  0  0  0
  -23.7243  -37.6512   23.6644 H   0  0  0  0  0  0
  -26.0674  -31.5823   20.6048 H   0  0  0  0  0  0
  -26.8265  -30.8620   21.9949 H   0  0  0  0  0  0
  -28.0993  -29.0515   21.1650 H   0  0  0  0  0  0
  -25.9425  -25.9871   18.9695 H   0  0  0  0  0  0
  -23.9594  -27.3166   19.0291 H   0  0  0  0  0  0
  -23.7268  -30.6023   19.4061 H   0  0  0  0  0  0
  -22.7372  -29.2514   19.8697 H   0  0  0  0  0  0
  -25.1293  -36.1970   25.0833 H   0  0  0  0  0  0
  -20.9962  -28.3213   24.1434 H   0  0  0  0  0  0
  -20.5686  -26.2257   23.3594 H   0  0  0  0  0  0
  -21.6639  -26.7448   22.1194 H   0  0  0  0  0  0
  -19.6908  -25.6296   21.1234 H   0  0  0  0  0  0
  -19.6693  -27.3197   20.6750 H   0  0  0  0  0  0
  -17.4201  -26.6681   21.4019 H   0  0  0  0  0  0
  -18.0314  -26.0059   22.9012 H   0  0  0  0  0  0
  -19.7927  -30.7255   24.2281 H   0  0  0  0  0  0
  -17.5011  -31.6269   24.5147 H   0  0  0  0  0  0
  -15.5345  -30.2985   23.7657 H   0  0  0  0  0  0
  -15.8664  -28.0816   22.7079 H   0  0  0  0  0  0
  -24.5921  -30.7049   25.7787 H   0  0  0  0  0  0
  -24.8925  -32.2855   26.4910 H   0  0  0  0  0  0
  -25.8085  -30.8864   27.0217 H   0  0  0  0  0  0
  -26.2868  -29.6782   24.1189 H   0  0  0  0  0  0
  -27.4099  -29.7289   25.4590 H   0  0  0  0  0  0
  -27.8704  -30.4353   23.9277 H   0  0  0  0  0  0
  -27.2677  -33.3616   26.2079 H   0  0  0  0  0  0
  -28.3852  -32.6885   25.0304 H   0  0  0  0  0  0
  -28.0733  -31.8434   26.5388 H   0  0  0  0  0  0
  -28.2608  -38.0099   24.7511 H   0  0  0  0  0  0
  -28.1076  -36.2630   24.6307 H   0  0  0  0  0  0
  -27.2296  -37.1471   25.8870 H   0  0  0  0  0  0
  -20.9318  -29.8755   21.6942 H   0  0  0  0  0  0
  -26.0188  -38.2871   24.1404 H   0  0  0  0  0  0
  -25.7539  -22.0228   22.4710 H   0  0  0  0  0  0
  -26.1871  -20.7625   21.3230 H   0  0  0  0  0  0
  -27.9198  -20.4487   22.9461 H   0  0  0  0  0  0
  -27.9697  -22.1490   23.3318 H   0  0  0  0  0  0
  -26.3778  -23.6759   20.9423 H   0  0  0  0  0  0
  -26.4556  -22.4101   19.7451 H   0  0  0  0  0  0
  -29.8803  -22.0166   21.8764 H   0  0  0  0  0  0
  -29.0194  -25.7615   22.4181 H   0  0  0  0  0  0
  -28.9554  -24.1419   23.0479 H   0  0  0  0  0  0
  -27.4893  -24.9150   22.4425 H   0  0  0  0  0  0
  -28.5844  -17.6276   20.3938 H   0  0  0  0  0  0
  -30.0539  -18.0267   19.5390 H   0  0  0  0  0  0
  -30.2105  -17.0953   22.4459 H   0  0  0  0  0  0
  -31.4626  -17.0270   21.2418 H   0  0  0  0  0  0
  -27.5621  -24.8933   19.2364 H   0  0  0  0  0  0
  -29.2055  -25.1889   18.9259 H   0  0  0  0  0  0
  -29.9618  -24.1718   20.7980 H   0  0  0  0  0  0
  -29.6946  -19.3322   22.1662 H   0  0  0  0  0  0
  -29.0490  -15.2515   21.4673 H   0  0  0  0  0  0
  -28.5986  -22.5630   19.6730 H   0  0  0  0  0  0
  1 25  1  0  0  0
  1 30  2  0  0  0
  1 82  1  0  0  0
  2  3  1  0  0  0
  2 25  1  0  0  0
  2 85  1  0  0  0
  2 86  1  0  0  0
  3  4  1  0  0  0
  3 87  1  0  0  0
  3 88  1  0  0  0
  4  5  1  0  0  0
  4 89  1  0  0  0
  4 90  1  0  0  0
  5  6  1  0  0  0
  5 26  1  0  0  0
  5 91  1  0  0  0
  6 25  1  0  0  0
  6 92  1  0  0  0
  6 93  1  0  0  0
  7  8  2  0  0  0
  7 26  1  0  0  0
  7 29  1  0  0  0
  8  9  1  0  0  0
  8 22  1  0  0  0
  9 10  1  0  0  0
  9 27  2  0  0  0
 10 11  2  0  0  0
 10 15  1  0  0  0
 11 12  1  0  0  0
 11 94  1  0  0  0
 12 13  2  0  0  0
 12 95  1  0  0  0
 13 14  1  0  0  0
 13 31  1  0  0  0
 14 15  2  0  0  0
 14 96  1  0  0  0
 15 97  1  0  0  0
 16 17  2  0  0  0
 16 21  1  0  0  0
 16 31  1  0  0  0
 17 18  1  0  0  0
 17 98  1  0  0  0
 18 19  2  0  0  0
 18 99  1  0  0  0
 19 20  1  0  0  0
 19 24  1  0  0  0
 20 21  2  0  0  0
 20100  1  0  0  0
 21 23  1  0  0  0
 22 28  1  0  0  0
 22 32  2  0  0  0
 26 27  1  0  0  0
 28101  1  0  0  0
 28102  1  0  0  0
 29103  1  0  0  0
 29104  1  0  0  0
 33 34  1  0  0  0
 33 66  1  0  0  0
 33 70  2  0  0  0
 34 36  1  0  0  0
 34 59  1  0  0  0
 34105  1  0  0  0
 35 44  2  0  0  0
 35 45  1  0  0  0
 35 68  1  0  0  0
 36 56  1  0  0  0
 36106  1  0  0  0
 37 39  1  0  0  0
 37 47  1  0  0  0
 37 66  1  0  0  0
 37107  1  0  0  0
 38 43  2  0  0  0
 38 46  1  0  0  0
 38 47  1  0  0  0
 39 64  1  0  0  0
 39 67  2  0  0  0
 40 52  1  0  0  0
 40 53  2  0  0  0
 40 58  1  0  0  0
 41108  1  0  0  0
 41109  1  0  0  0
 41110  1  0  0  0
 41 48  1  0  0  0
 42 43  1  0  0  0
 42 66  1  0  0  0
 42111  1  0  0  0
 42112  1  0  0  0
 43 44  1  0  0  0
 44113  1  0  0  0
 45 46  2  0  0  0
 45114  1  0  0  0
 46115  1  0  0  0
 47116  1  0  0  0
 47117  1  0  0  0
 48 56  1  0  0  0
 48 65  1  0  0  0
 48118  1  0  0  0
 49 50  1  0  0  0
 49 53  1  0  0  0
 49 64  1  0  0  0
 49119  1  0  0  0
 50 51  1  0  0  0
 50120  1  0  0  0
 50121  1  0  0  0
 51 52  1  0  0  0
 51122  1  0  0  0
 51123  1  0  0  0
 52124  1  0  0  0
 52125  1  0  0  0
 53 54  1  0  0  0
 54 55  2  0  0  0
 54126  1  0  0  0
 55 57  1  0  0  0
 55127  1  0  0  0
 56 69  2  0  0  0
 57 58  2  0  0  0
 57128  1  0  0  0
 58129  1  0  0  0
 59 60  1  0  0  0
 59 61  1  0  0  0
 59 62  1  0  0  0
 60130  1  0  0  0
 60131  1  0  0  0
 60132  1  0  0  0
 61133  1  0  0  0
 61134  1  0  0  0
 61135  1  0  0  0
 62136  1  0  0  0
 62137  1  0  0  0
 62138  1  0  0  0
 63 65  1  0  0  0
 63139  1  0  0  0
 63140  1  0  0  0
 63141  1  0  0  0
 64142  1  0  0  0
 65143  1  0  0  0
 68 79  1  0  0  0
 71 81  1  0  0  0
 71 84  2  0  0  0
 71 75  1  0  0  0
 72 73  1  0  0  0
 72 74  1  0  0  0
 72144  1  0  0  0
 72145  1  0  0  0
 73 75  1  0  0  0
 73146  1  0  0  0
 73147  1  0  0  0
 74148  1  0  0  0
 74149  1  0  0  0
 74 83  1  0  0  0
 75 83  1  0  0  0
 75150  1  0  0  0
 76151  1  0  0  0
 76152  1  0  0  0
 76153  1  0  0  0
 76 80  1  0  0  0
 77 78  1  0  0  0
 77 81  1  0  0  0
 77154  1  0  0  0
 77155  1  0  0  0
 78 82  1  0  0  0
 78156  1  0  0  0
 78157  1  0  0  0
 79 80  1  0  0  0
 79158  1  0  0  0
 79159  1  0  0  0
 80 83  1  0  0  0
 80160  1  0  0  0
 81161  1  0  0  0
 82162  1  0  0  0
 83163  1  0  0  0
M  CHG  1  83   1
M  ISO  4   1 100  68 101  79 101  82 100
M  END
> <chiral flag>
0

> <version>
0

> <s_m_source_file>
/data/baiqing/PycharmProjects/Reinvent-master-3.2/result/LINK_invent/BTK/process_docking_weight1_custom_sum_contain_oxygen_bond_distance_aromatic_linkinvent_7_9_3/rearranged_h_0115.sdf

> <i_m_source_file_index>
80

> <r_mmod_Potential_Energy-OPLS-2005>
-163.107406616211

> <r_mmod_Stretch_Energy-OPLS-2005>
50.6501350402832

> <r_mmod_Bend_Energy-OPLS-2005>
137.970809936523

> <r_mmod_Torsional_Energy-OPLS-2005>
273.890716552734

> <r_mmod_Improper_Torsional_Energy-OPLS-2005>
3.07168936729431

> <r_mmod_Van_der_Waal_Energy-OPLS-2005>
137.967391967773

> <r_mmod_Electrostatic_Energy-OPLS-2005>
-347.077545166016

> <r_mmod_Solvation_Energy-OPLS-2005>
-437.742797851562

> <b_mmod_Minimization_Converged-OPLS-2005>
0

> <r_mmod_RMS_Derivative-OPLS-2005>
0.690646231174469

$$$$
80
                    3D
 Structure written by MMmdl.
157165  0  0  1  0            999 V2000
  -30.4466  -15.0708   20.3938 C   0  0  0  0  0  0
  -30.4581  -12.6732   19.4868 C   0  0  0  0  0  0
  -29.5221  -12.5606   18.2547 C   0  0  0  0  0  0
  -28.0595  -12.3213   18.6774 C   0  0  0  0  0  0
  -27.6322  -13.2470   19.8424 C   0  0  2  0  0  0
  -28.6833  -13.2576   20.9670 C   0  0  0  0  0  0
  -25.2475  -13.8203   20.5680 C   0  0  0  0  0  0
  -24.1795  -13.0419   20.9239 C   0  0  0  0  0  0
  -24.6416  -11.6916   20.8773 C   0  0  0  0  0  0
  -23.9096  -10.4282   21.0428 C   0  0  0  0  0  0
  -24.3641   -9.4179   21.9187 C   0  0  0  0  0  0
  -23.6285   -8.2226   22.0764 C   0  0  0  0  0  0
  -22.4271   -8.0292   21.3539 C   0  0  0  0  0  0
  -21.9923   -9.0275   20.4644 C   0  0  0  0  0  0
  -22.7280  -10.2133   20.3048 C   0  0  0  0  0  0
  -21.6849   -6.0736   22.5273 C   0  0  0  0  0  0
  -21.4020   -6.5644   23.8214 C   0  0  0  0  0  0
  -21.3648   -5.6797   24.9182 C   0  0  0  0  0  0
  -21.6032   -4.3050   24.7224 C   0  0  0  0  0  0
  -21.8820   -3.8155   23.4354 C   0  0  0  0  0  0
  -21.9185   -4.6972   22.3399 C   0  0  0  0  0  0
  -22.7822  -13.5207   21.1851 C   0  0  0  0  0  0
  -22.1660   -4.2163   21.0970 F   0  0  0  0  0  0
  -21.5622   -3.4538   25.7739 F   0  0  0  0  0  0
  -29.9371  -13.7554   20.3780 N   0  0  0  0  0  0
  -26.2901  -12.9425   20.3267 N   0  0  0  0  0  0
  -25.9347  -11.6553   20.5774 N   0  0  0  0  0  0
  -22.0446  -12.8191   22.0415 N   0  0  0  0  0  0
  -25.4032  -15.1919   20.4097 N   0  0  0  0  0  0
  -31.6539  -15.1476   20.1292 O   0  0  0  0  0  0
  -21.6624   -6.8888   21.4236 O   0  0  0  0  0  0
  -22.3517  -14.5481   20.6695 O   0  0  0  0  0  0
  -24.6525  -31.8361   23.1756 C   0  0  0  0  0  0
  -25.9258  -32.4636   23.8185 C   0  0  1  0  0  0
  -27.2183  -27.0518   20.1742 C   0  0  0  0  0  0
  -25.5975  -33.8430   24.2087 N   0  0  0  0  0  0
  -23.4583  -30.4517   21.5249 C   0  0  2  0  0  0
  -24.9088  -28.8545   20.1083 C   0  0  0  0  0  0
  -22.7613  -29.4510   22.4792 C   0  0  0  0  0  0
  -18.0311  -28.1396   22.8445 C   0  0  0  0  0  0
  -24.1481  -36.7251   23.2636 C   0  0  0  0  0  0
  -26.0187  -30.6804   21.3844 C   0  0  0  0  0  0
  -26.0874  -29.2816   20.7317 C   0  0  0  0  0  0
  -27.2448  -28.4014   20.7383 C   0  0  0  0  0  0
  -26.0143  -26.7377   19.5094 C   0  0  0  0  0  0
  -24.8884  -27.5996   19.4773 C   0  0  0  0  0  0
  -23.6943  -29.7774   20.1446 C   0  0  0  0  0  0
  -25.4112  -36.2983   24.0280 C   0  0  1  0  0  0
  -20.5921  -28.3744   23.1191 C   0  0  2  0  0  0
  -20.6791  -26.9424   22.5398 C   0  0  0  0  0  0
  -19.5773  -26.6369   21.5190 C   0  0  0  0  0  0
  -18.1936  -26.7925   22.1577 C   0  0  0  0  0  0
  -19.1570  -28.8875   23.2809 C   0  0  0  0  0  0
  -18.9516  -30.1457   23.8862 C   0  0  0  0  0  0
  -17.6531  -30.6579   24.0567 C   0  0  0  0  0  0
  -25.9075  -34.9378   23.5003 C   0  0  0  0  0  0
  -16.5414  -29.9087   23.6336 C   0  0  0  0  0  0
  -16.7301  -28.6514   23.0353 C   0  0  0  0  0  0
  -26.4518  -31.6556   25.0694 C   0  0  0  0  0  0
  -25.3623  -31.3825   26.1368 C   0  0  0  0  0  0
  -27.0356  -30.2932   24.6316 C   0  0  0  0  0  0
  -27.6057  -32.4328   25.7462 C   0  0  0  0  0  0
  -27.5549  -37.1764   24.8442 C   0  0  0  0  0  0
  -21.4293  -29.3070   22.3576 N   0  0  0  0  0  0
  -26.4234  -37.3749   23.9421 N   0  0  0  0  0  0
  -24.7315  -31.0113   22.0853 N   0  0  0  0  0  0
  -23.4223  -28.8031   23.2947 O   0  0  0  0  0  0
  -28.2721  -26.0457   20.2243 O   0  0  0  0  0  0
  -26.5665  -34.8895   22.4583 O   0  0  0  0  0  0
  -23.5622  -32.1289   23.6917 O   0  0  0  0  0  0
  -28.0336  -21.8420   19.2750 C   0  0  0  0  0  0
  -29.1218  -21.9998   21.4121 C   0  0  0  0  0  0
  -28.1196  -23.4746   19.0815 C   0  0  0  0  0  0
  -29.1634  -23.6391   21.2456 C   0  0  0  0  0  0
  -29.1401  -21.0196   20.1281 C   0  0  1  0  0  0
  -28.0972  -24.4594   20.3500 C   0  0  1  0  0  0
  -28.7571  -16.4390   21.8820 C   0  0  0  0  0  0
  -29.9648  -18.1806   20.3176 C   0  0  0  0  0  0
  -29.5284  -16.5084   20.5514 C   0  0  1  0  0  0
  -28.9086  -19.4160   20.3079 N   0  3  0  0  0  0
  -31.4754  -12.8810   19.1518 H   0  0  0  0  0  0
  -30.5178  -11.7229   20.0192 H   0  0  0  0  0  0
  -29.8597  -11.7608   17.5933 H   0  0  0  0  0  0
  -29.5816  -13.4800   17.6709 H   0  0  0  0  0  0
  -27.9734  -11.2799   18.9866 H   0  0  0  0  0  0
  -27.3907  -12.4477   17.8256 H   0  0  0  0  0  0
  -27.5930  -14.2524   19.4264 H   0  0  0  0  0  0
  -28.8159  -12.2586   21.3840 H   0  0  0  0  0  0
  -28.3543  -13.8668   21.8026 H   0  0  0  0  0  0
  -25.2789   -9.5656   22.4774 H   0  0  0  0  0  0
  -23.9995   -7.4634   22.7496 H   0  0  0  0  0  0
  -21.0857   -8.8803   19.8958 H   0  0  0  0  0  0
  -22.3742  -10.9681   19.6170 H   0  0  0  0  0  0
  -21.2022   -7.6145   23.9729 H   0  0  0  0  0  0
  -21.1462   -6.0516   25.9076 H   0  0  0  0  0  0
  -22.0599   -2.7625   23.2847 H   0  0  0  0  0  0
  -22.4078  -11.9889   22.4809 H   0  0  0  0  0  0
  -21.1060  -13.1215   22.2592 H   0  0  0  0  0  0
  -24.6246  -15.8299   20.5277 H   0  0  0  0  0  0
  -26.2353  -15.6422   20.0548 H   0  0  0  0  0  0
  -26.7334  -32.5212   23.0911 H   0  0  0  0  0  0
  -25.0230  -33.9569   25.0306 H   0  0  0  0  0  0
  -22.7669  -31.2837   21.3661 H   0  0  0  0  0  0
  -23.3747  -35.9579   23.3230 H   0  0  0  0  0  0
  -24.3584  -36.8962   22.2067 H   0  0  0  0  0  0
  -23.7238  -37.6422   23.6753 H   0  0  0  0  0  0
  -26.1715  -31.4188   20.5977 H   0  0  0  0  0  0
  -26.8889  -30.7507   22.0250 H   0  0  0  0  0  0
  -28.1480  -28.7259   21.2367 H   0  0  0  0  0  0
  -25.9276  -25.7776   19.0197 H   0  0  0  0  0  0
  -23.9875  -27.2740   18.9726 H   0  0  0  0  0  0
  -23.8688  -30.5611   19.4049 H   0  0  0  0  0  0
  -22.8039  -29.2478   19.8068 H   0  0  0  0  0  0
  -25.1280  -36.1794   25.0759 H   0  0  0  0  0  0
  -21.0004  -28.3367   24.1337 H   0  0  0  0  0  0
  -20.5692  -26.2346   23.3636 H   0  0  0  0  0  0
  -21.6654  -26.7426   22.1215 H   0  0  0  0  0  0
  -19.6952  -25.6266   21.1259 H   0  0  0  0  0  0
  -19.6732  -27.3150   20.6687 H   0  0  0  0  0  0
  -17.4229  -26.6697   21.3967 H   0  0  0  0  0  0
  -18.0355  -26.0041   22.8942 H   0  0  0  0  0  0
  -19.7998  -30.7272   24.2230 H   0  0  0  0  0  0
  -17.5099  -31.6265   24.5181 H   0  0  0  0  0  0
  -15.5441  -30.3027   23.7660 H   0  0  0  0  0  0
  -15.8667  -28.0867   22.7074 H   0  0  0  0  0  0
  -24.5951  -30.6949   25.7791 H   0  0  0  0  0  0
  -24.8622  -32.3014   26.4455 H   0  0  0  0  0  0
  -25.7872  -30.9358   27.0360 H   0  0  0  0  0  0
  -26.2968  -29.6696   24.1291 H   0  0  0  0  0  0
  -27.3920  -29.7234   25.4903 H   0  0  0  0  0  0
  -27.8890  -30.4152   23.9634 H   0  0  0  0  0  0
  -27.2793  -33.3880   26.1602 H   0  0  0  0  0  0
  -28.4088  -32.6435   25.0373 H   0  0  0  0  0  0
  -28.0419  -31.8684   26.5730 H   0  0  0  0  0  0
  -28.2471  -38.0140   24.7567 H   0  0  0  0  0  0
  -28.1118  -36.2672   24.6150 H   0  0  0  0  0  0
  -27.2287  -37.1267   25.8842 H   0  0  0  0  0  0
  -20.9526  -29.8898   21.6841 H   0  0  0  0  0  0
  -26.0068  -38.2769   24.1574 H   0  0  0  0  0  0
  -27.9820  -21.3969   18.2749 H   0  0  0  0  0  0
  -27.0517  -21.6276   19.7003 H   0  0  0  0  0  0
  -28.2420  -21.7677   22.0149 H   0  0  0  0  0  0
  -29.9652  -21.7188   22.0500 H   0  0  0  0  0  0
  -27.2905  -23.7717   18.4328 H   0  0  0  0  0  0
  -29.0216  -23.6878   18.5040 H   0  0  0  0  0  0
  -30.1613  -23.9077   20.8961 H   0  0  0  0  0  0
  -29.1197  -24.0565   22.2522 H   0  0  0  0  0  0
  -30.0957  -21.1333   19.6073 H   0  0  0  0  0  0
  -27.1271  -24.3220   20.8270 H   0  0  0  0  0  0
  -27.7394  -16.0886   21.7140 H   0  0  0  0  0  0
  -28.6873  -17.4080   22.3736 H   0  0  0  0  0  0
  -29.2241  -15.7651   22.6005 H   0  0  0  0  0  0
  -30.5169  -18.2439   19.3782 H   0  0  0  0  0  0
  -30.7047  -18.4273   21.0819 H   0  0  0  0  0  0
  -28.7946  -16.3495   19.7617 H   0  0  0  0  0  0
  -28.3375  -19.1904   19.5092 H   0  0  0  0  0  0
  -28.3014  -19.2920   21.1021 H   0  0  0  0  0  0
  1 25  1  0  0  0
  1 30  2  0  0  0
  1 79  1  0  0  0
  2  3  1  0  0  0
  2 25  1  0  0  0
  2 81  1  0  0  0
  2 82  1  0  0  0
  3  4  1  0  0  0
  3 83  1  0  0  0
  3 84  1  0  0  0
  4  5  1  0  0  0
  4 85  1  0  0  0
  4 86  1  0  0  0
  5  6  1  0  0  0
  5 26  1  0  0  0
  5 87  1  0  0  0
  6 25  1  0  0  0
  6 88  1  0  0  0
  6 89  1  0  0  0
  7  8  2  0  0  0
  7 26  1  0  0  0
  7 29  1  0  0  0
  8  9  1  0  0  0
  8 22  1  0  0  0
  9 10  1  0  0  0
  9 27  2  0  0  0
 10 11  2  0  0  0
 10 15  1  0  0  0
 11 12  1  0  0  0
 11 90  1  0  0  0
 12 13  2  0  0  0
 12 91  1  0  0  0
 13 14  1  0  0  0
 13 31  1  0  0  0
 14 15  2  0  0  0
 14 92  1  0  0  0
 15 93  1  0  0  0
 16 17  2  0  0  0
 16 21  1  0  0  0
 16 31  1  0  0  0
 17 18  1  0  0  0
 17 94  1  0  0  0
 18 19  2  0  0  0
 18 95  1  0  0  0
 19 20  1  0  0  0
 19 24  1  0  0  0
 20 21  2  0  0  0
 20 96  1  0  0  0
 21 23  1  0  0  0
 22 28  1  0  0  0
 22 32  2  0  0  0
 26 27  1  0  0  0
 28 97  1  0  0  0
 28 98  1  0  0  0
 29 99  1  0  0  0
 29100  1  0  0  0
 33 34  1  0  0  0
 33 66  1  0  0  0
 33 70  2  0  0  0
 34 36  1  0  0  0
 34 59  1  0  0  0
 34101  1  0  0  0
 35 44  2  0  0  0
 35 45  1  0  0  0
 35 68  1  0  0  0
 36 56  1  0  0  0
 36102  1  0  0  0
 37 39  1  0  0  0
 37 47  1  0  0  0
 37 66  1  0  0  0
 37103  1  0  0  0
 38 43  2  0  0  0
 38 46  1  0  0  0
 38 47  1  0  0  0
 39 64  1  0  0  0
 39 67  2  0  0  0
 40 52  1  0  0  0
 40 53  2  0  0  0
 40 58  1  0  0  0
 41104  1  0  0  0
 41105  1  0  0  0
 41106  1  0  0  0
 41 48  1  0  0  0
 42 43  1  0  0  0
 42 66  1  0  0  0
 42107  1  0  0  0
 42108  1  0  0  0
 43 44  1  0  0  0
 44109  1  0  0  0
 45 46  2  0  0  0
 45110  1  0  0  0
 46111  1  0  0  0
 47112  1  0  0  0
 47113  1  0  0  0
 48 56  1  0  0  0
 48 65  1  0  0  0
 48114  1  0  0  0
 49 50  1  0  0  0
 49 53  1  0  0  0
 49 64  1  0  0  0
 49115  1  0  0  0
 50 51  1  0  0  0
 50116  1  0  0  0
 50117  1  0  0  0
 51 52  1  0  0  0
 51118  1  0  0  0
 51119  1  0  0  0
 52120  1  0  0  0
 52121  1  0  0  0
 53 54  1  0  0  0
 54 55  2  0  0  0
 54122  1  0  0  0
 55 57  1  0  0  0
 55123  1  0  0  0
 56 69  2  0  0  0
 57 58  2  0  0  0
 57124  1  0  0  0
 58125  1  0  0  0
 59 60  1  0  0  0
 59 61  1  0  0  0
 59 62  1  0  0  0
 60126  1  0  0  0
 60127  1  0  0  0
 60128  1  0  0  0
 61129  1  0  0  0
 61130  1  0  0  0
 61131  1  0  0  0
 62132  1  0  0  0
 62133  1  0  0  0
 62134  1  0  0  0
 63 65  1  0  0  0
 63135  1  0  0  0
 63136  1  0  0  0
 63137  1  0  0  0
 64138  1  0  0  0
 65139  1  0  0  0
 68 76  1  0  0  0
 71 73  1  0  0  0
 71 75  1  0  0  0
 71140  1  0  0  0
 71141  1  0  0  0
 72 74  1  0  0  0
 72 75  1  0  0  0
 72142  1  0  0  0
 72143  1  0  0  0
 73 76  1  0  0  0
 73144  1  0  0  0
 73145  1  0  0  0
 74 76  1  0  0  0
 74146  1  0  0  0
 74147  1  0  0  0
 75 80  1  0  0  0
 75148  1  0  0  0
 76149  1  0  0  0
 77150  1  0  0  0
 77151  1  0  0  0
 77152  1  0  0  0
 77 79  1  0  0  0
 78 79  1  0  0  0
 78 80  1  0  0  0
 78153  1  0  0  0
 78154  1  0  0  0
 79155  1  0  0  0
 80156  1  0  0  0
 80157  1  0  0  0
M  CHG  1  80   1
M  ISO  4   1 100  68 101  76 101  79 100
M  END
> <chiral flag>
0

> <version>
0

> <s_m_source_file>
/data/baiqing/PycharmProjects/Reinvent-master-3.2/result/LINK_invent/BTK/process_docking_weight1_custom_sum_contain_oxygen_bond_distance_aromatic_linkinvent_7_9_3/rearranged_h_0115.sdf

> <i_m_source_file_index>
81

> <r_mmod_Potential_Energy-OPLS-2005>
662.254028320312

> <r_mmod_Stretch_Energy-OPLS-2005>
367.017456054688

> <r_mmod_Bend_Energy-OPLS-2005>
350.674011230469

> <r_mmod_Torsional_Energy-OPLS-2005>
238.411407470703

> <r_mmod_Improper_Torsional_Energy-OPLS-2005>
3.57238507270813

> <r_mmod_Van_der_Waal_Energy-OPLS-2005>
111.116325378418

> <r_mmod_Electrostatic_Energy-OPLS-2005>
-224.247146606445

> <r_mmod_Solvation_Energy-OPLS-2005>
-459.043212890625

> <b_mmod_Minimization_Converged-OPLS-2005>
0

> <r_mmod_RMS_Derivative-OPLS-2005>
6.82708120346069

$$$$
81
                    3D
 Structure written by MMmdl.
154162  0  0  1  0            999 V2000
  -30.4994  -14.9806   20.4316 C   0  0  0  0  0  0
  -30.4375  -12.6074   19.4971 C   0  0  0  0  0  0
  -29.5221  -12.5549   18.2486 C   0  0  0  0  0  0
  -28.0482  -12.3313   18.6479 C   0  0  0  0  0  0
  -27.6248  -13.2381   19.8332 C   0  0  2  0  0  0
  -28.6643  -13.1830   20.9643 C   0  0  0  0  0  0
  -25.2371  -13.8178   20.5565 C   0  0  0  0  0  0
  -24.1730  -13.0417   20.9173 C   0  0  0  0  0  0
  -24.6373  -11.6909   20.8737 C   0  0  0  0  0  0
  -23.9074  -10.4274   21.0406 C   0  0  0  0  0  0
  -24.3633   -9.4188   21.9182 C   0  0  0  0  0  0
  -23.6295   -8.2230   22.0754 C   0  0  0  0  0  0
  -22.4265   -8.0271   21.3556 C   0  0  0  0  0  0
  -21.9920   -9.0241   20.4653 C   0  0  0  0  0  0
  -22.7258  -10.2112   20.3051 C   0  0  0  0  0  0
  -21.6851   -6.0735   22.5307 C   0  0  0  0  0  0
  -21.4012   -6.5635   23.8236 C   0  0  0  0  0  0
  -21.3660   -5.6784   24.9193 C   0  0  0  0  0  0
  -21.6046   -4.3052   24.7239 C   0  0  0  0  0  0
  -21.8815   -3.8143   23.4353 C   0  0  0  0  0  0
  -21.9172   -4.6958   22.3415 C   0  0  0  0  0  0
  -22.7746  -13.5177   21.1872 C   0  0  0  0  0  0
  -22.1644   -4.2151   21.0993 F   0  0  0  0  0  0
  -21.5620   -3.4535   25.7745 F   0  0  0  0  0  0
  -29.9279  -13.6931   20.3959 N   0  0  0  0  0  0
  -26.2811  -12.9427   20.3132 N   0  0  0  0  0  0
  -25.9289  -11.6569   20.5699 N   0  0  0  0  0  0
  -22.0423  -12.8181   22.0464 N   0  0  0  0  0  0
  -25.3925  -15.1903   20.3874 N   0  0  0  0  0  0
  -31.6782  -15.0425   20.0537 O   0  0  0  0  0  0
  -21.6624   -6.8879   21.4264 O   0  0  0  0  0  0
  -22.3414  -14.5478   20.6704 O   0  0  0  0  0  0
  -24.6429  -31.8430   23.1885 C   0  0  0  0  0  0
  -25.9201  -32.4683   23.8286 C   0  0  1  0  0  0
  -27.2043  -27.1216   20.1577 C   0  0  0  0  0  0
  -25.5974  -33.8494   24.2196 N   0  0  0  0  0  0
  -23.4448  -30.4624   21.5335 C   0  0  2  0  0  0
  -24.8938  -28.8849   20.1124 C   0  0  0  0  0  0
  -22.7539  -29.4521   22.4845 C   0  0  0  0  0  0
  -18.0299  -28.1396   22.8484 C   0  0  0  0  0  0
  -24.1475  -36.7183   23.2649 C   0  0  0  0  0  0
  -26.0015  -30.7095   21.3922 C   0  0  0  0  0  0
  -26.0699  -29.3191   20.7379 C   0  0  0  0  0  0
  -27.2249  -28.4500   20.7462 C   0  0  0  0  0  0
  -26.0067  -26.7904   19.4913 C   0  0  0  0  0  0
  -24.8746  -27.6350   19.4753 C   0  0  0  0  0  0
  -23.6739  -29.7910   20.1527 C   0  0  0  0  0  0
  -25.4110  -36.2994   24.0324 C   0  0  1  0  0  0
  -20.5907  -28.3704   23.1246 C   0  0  2  0  0  0
  -20.6778  -26.9404   22.5414 C   0  0  0  0  0  0
  -19.5751  -26.6381   21.5230 C   0  0  0  0  0  0
  -18.1933  -26.7939   22.1639 C   0  0  0  0  0  0
  -19.1559  -28.8867   23.2866 C   0  0  0  0  0  0
  -18.9496  -30.1474   23.8877 C   0  0  0  0  0  0
  -17.6487  -30.6601   24.0560 C   0  0  0  0  0  0
  -25.9065  -34.9386   23.5052 C   0  0  0  0  0  0
  -16.5369  -29.9089   23.6355 C   0  0  0  0  0  0
  -16.7287  -28.6512   23.0368 C   0  0  0  0  0  0
  -26.4535  -31.6564   25.0722 C   0  0  0  0  0  0
  -25.3754  -31.3766   26.1445 C   0  0  0  0  0  0
  -27.0421  -30.2967   24.6312 C   0  0  0  0  0  0
  -27.6056  -32.4361   25.7510 C   0  0  0  0  0  0
  -27.5541  -37.1742   24.8482 C   0  0  0  0  0  0
  -21.4226  -29.3035   22.3594 N   0  0  0  0  0  0
  -26.4248  -37.3735   23.9434 N   0  0  0  0  0  0
  -24.7157  -31.0279   22.0921 N   0  0  0  0  0  0
  -23.4177  -28.8043   23.2972 O   0  0  0  0  0  0
  -28.2607  -26.1397   20.1709 O   0  0  0  0  0  0
  -26.5642  -34.8891   22.4616 O   0  0  0  0  0  0
  -23.5544  -32.1299   23.7108 O   0  0  0  0  0  0
  -29.1651  -20.5504   19.8287 C   0  0  0  0  0  0
  -28.4860  -17.5930   22.3905 C   0  0  0  0  0  0
  -28.1576  -18.7739   21.4677 C   0  0  0  0  0  0
  -28.6987  -16.2488   21.6634 C   0  0  0  0  0  0
  -29.8891  -17.6349   19.9314 C   0  0  0  0  0  0
  -29.3873  -19.1049   20.6249 C   0  0  2  0  0  0
  -28.8251  -23.2833   19.8146 C   0  0  0  0  0  0
  -28.0154  -24.6197   20.4614 C   0  0  0  0  0  0
  -29.7326  -16.2010   20.6104 N   0  0  0  0  0  0
  -28.8276  -21.8085   20.4068 N   0  0  0  0  0  0
  -29.3501  -20.5178   18.6137 O   0  0  0  0  0  0
  -31.4719  -12.7703   19.1904 H   0  0  0  0  0  0
  -30.4421  -11.6406   20.0045 H   0  0  0  0  0  0
  -29.8514  -11.7699   17.5639 H   0  0  0  0  0  0
  -29.6116  -13.4937   17.7003 H   0  0  0  0  0  0
  -27.9334  -11.2825   18.9310 H   0  0  0  0  0  0
  -27.3922  -12.4878   17.7903 H   0  0  0  0  0  0
  -27.6063  -14.2576   19.4456 H   0  0  0  0  0  0
  -28.7735  -12.1553   21.3137 H   0  0  0  0  0  0
  -28.3193  -13.7122   21.8423 H   0  0  0  0  0  0
  -25.2789   -9.5649   22.4753 H   0  0  0  0  0  0
  -23.9991   -7.4621   22.7486 H   0  0  0  0  0  0
  -21.0838   -8.8779   19.8969 H   0  0  0  0  0  0
  -22.3737  -10.9641   19.6149 H   0  0  0  0  0  0
  -21.2030   -7.6149   23.9751 H   0  0  0  0  0  0
  -21.1482   -6.0512   25.9100 H   0  0  0  0  0  0
  -22.0590   -2.7605   23.2865 H   0  0  0  0  0  0
  -22.4030  -11.9828   22.4841 H   0  0  0  0  0  0
  -21.1065  -13.1236   22.2714 H   0  0  0  0  0  0
  -24.6286  -15.8422   20.5290 H   0  0  0  0  0  0
  -26.2327  -15.6377   20.0481 H   0  0  0  0  0  0
  -26.7242  -32.5286   23.0990 H   0  0  0  0  0  0
  -25.0214  -33.9640   25.0408 H   0  0  0  0  0  0
  -22.7493  -31.2898   21.3779 H   0  0  0  0  0  0
  -23.3771  -35.9487   23.3318 H   0  0  0  0  0  0
  -24.3542  -36.8789   22.2056 H   0  0  0  0  0  0
  -23.7201  -37.6364   23.6684 H   0  0  0  0  0  0
  -26.1660  -31.4622   20.6197 H   0  0  0  0  0  0
  -26.8678  -30.7577   22.0403 H   0  0  0  0  0  0
  -28.1170  -28.7678   21.2677 H   0  0  0  0  0  0
  -25.9313  -25.8425   18.9794 H   0  0  0  0  0  0
  -23.9801  -27.3043   18.9678 H   0  0  0  0  0  0
  -23.8136  -30.5668   19.3990 H   0  0  0  0  0  0
  -22.7881  -29.2356   19.8405 H   0  0  0  0  0  0
  -25.1306  -36.1793   25.0823 H   0  0  0  0  0  0
  -21.0044  -28.3313   24.1351 H   0  0  0  0  0  0
  -20.5700  -26.2310   23.3625 H   0  0  0  0  0  0
  -21.6633  -26.7413   22.1190 H   0  0  0  0  0  0
  -19.6910  -25.6306   21.1236 H   0  0  0  0  0  0
  -19.6696  -27.3209   20.6775 H   0  0  0  0  0  0
  -17.4194  -26.6706   21.4037 H   0  0  0  0  0  0
  -18.0309  -26.0091   22.9041 H   0  0  0  0  0  0
  -19.7981  -30.7295   24.2215 H   0  0  0  0  0  0
  -17.5060  -31.6285   24.5157 H   0  0  0  0  0  0
  -15.5382  -30.2993   23.7705 H   0  0  0  0  0  0
  -15.8687  -28.0837   22.7097 H   0  0  0  0  0  0
  -24.5951  -30.7057   25.7798 H   0  0  0  0  0  0
  -24.8923  -32.2951   26.4797 H   0  0  0  0  0  0
  -25.8078  -30.9022   27.0259 H   0  0  0  0  0  0
  -26.3029  -29.6663   24.1331 H   0  0  0  0  0  0
  -27.4044  -29.7290   25.4888 H   0  0  0  0  0  0
  -27.8933  -30.4200   23.9618 H   0  0  0  0  0  0
  -27.2628  -33.3695   26.1988 H   0  0  0  0  0  0
  -28.3913  -32.6851   25.0371 H   0  0  0  0  0  0
  -28.0665  -31.8555   26.5509 H   0  0  0  0  0  0
  -28.2568  -38.0028   24.7501 H   0  0  0  0  0  0
  -28.1016  -36.2543   24.6341 H   0  0  0  0  0  0
  -27.2246  -37.1411   25.8887 H   0  0  0  0  0  0
  -20.9420  -29.8746   21.6787 H   0  0  0  0  0  0
  -26.0087  -38.2771   24.1527 H   0  0  0  0  0  0
  -27.6753  -17.4687   23.1081 H   0  0  0  0  0  0
  -29.3727  -17.8293   22.9802 H   0  0  0  0  0  0
  -27.8598  -19.6306   22.0775 H   0  0  0  0  0  0
  -27.3078  -18.5397   20.8266 H   0  0  0  0  0  0
  -27.7516  -15.9408   21.2311 H   0  0  0  0  0  0
  -28.9602  -15.5502   22.4549 H   0  0  0  0  0  0
  -29.3314  -17.5491   18.9976 H   0  0  0  0  0  0
  -30.9238  -17.7390   19.6032 H   0  0  0  0  0  0
  -30.1844  -19.3651   21.3226 H   0  0  0  0  0  0
  -29.8814  -23.5582   19.7647 H   0  0  0  0  0  0
  -28.5181  -23.1989   18.7711 H   0  0  0  0  0  0
  -26.9509  -24.4146   20.3469 H   0  0  0  0  0  0
  -28.1666  -24.5414   21.5397 H   0  0  0  0  0  0
  -28.6475  -21.7688   21.4031 H   0  0  0  0  0  0
  1 25  1  0  0  0
  1 30  2  0  0  0
  1 79  1  0  0  0
  2  3  1  0  0  0
  2 25  1  0  0  0
  2 82  1  0  0  0
  2 83  1  0  0  0
  3  4  1  0  0  0
  3 84  1  0  0  0
  3 85  1  0  0  0
  4  5  1  0  0  0
  4 86  1  0  0  0
  4 87  1  0  0  0
  5  6  1  0  0  0
  5 26  1  0  0  0
  5 88  1  0  0  0
  6 25  1  0  0  0
  6 89  1  0  0  0
  6 90  1  0  0  0
  7  8  2  0  0  0
  7 26  1  0  0  0
  7 29  1  0  0  0
  8  9  1  0  0  0
  8 22  1  0  0  0
  9 10  1  0  0  0
  9 27  2  0  0  0
 10 11  2  0  0  0
 10 15  1  0  0  0
 11 12  1  0  0  0
 11 91  1  0  0  0
 12 13  2  0  0  0
 12 92  1  0  0  0
 13 14  1  0  0  0
 13 31  1  0  0  0
 14 15  2  0  0  0
 14 93  1  0  0  0
 15 94  1  0  0  0
 16 17  2  0  0  0
 16 21  1  0  0  0
 16 31  1  0  0  0
 17 18  1  0  0  0
 17 95  1  0  0  0
 18 19  2  0  0  0
 18 96  1  0  0  0
 19 20  1  0  0  0
 19 24  1  0  0  0
 20 21  2  0  0  0
 20 97  1  0  0  0
 21 23  1  0  0  0
 22 28  1  0  0  0
 22 32  2  0  0  0
 26 27  1  0  0  0
 28 98  1  0  0  0
 28 99  1  0  0  0
 29100  1  0  0  0
 29101  1  0  0  0
 33 34  1  0  0  0
 33 66  1  0  0  0
 33 70  2  0  0  0
 34 36  1  0  0  0
 34 59  1  0  0  0
 34102  1  0  0  0
 35 44  2  0  0  0
 35 45  1  0  0  0
 35 68  1  0  0  0
 36 56  1  0  0  0
 36103  1  0  0  0
 37 39  1  0  0  0
 37 47  1  0  0  0
 37 66  1  0  0  0
 37104  1  0  0  0
 38 43  2  0  0  0
 38 46  1  0  0  0
 38 47  1  0  0  0
 39 64  1  0  0  0
 39 67  2  0  0  0
 40 52  1  0  0  0
 40 53  2  0  0  0
 40 58  1  0  0  0
 41105  1  0  0  0
 41106  1  0  0  0
 41107  1  0  0  0
 41 48  1  0  0  0
 42 43  1  0  0  0
 42 66  1  0  0  0
 42108  1  0  0  0
 42109  1  0  0  0
 43 44  1  0  0  0
 44110  1  0  0  0
 45 46  2  0  0  0
 45111  1  0  0  0
 46112  1  0  0  0
 47113  1  0  0  0
 47114  1  0  0  0
 48 56  1  0  0  0
 48 65  1  0  0  0
 48115  1  0  0  0
 49 50  1  0  0  0
 49 53  1  0  0  0
 49 64  1  0  0  0
 49116  1  0  0  0
 50 51  1  0  0  0
 50117  1  0  0  0
 50118  1  0  0  0
 51 52  1  0  0  0
 51119  1  0  0  0
 51120  1  0  0  0
 52121  1  0  0  0
 52122  1  0  0  0
 53 54  1  0  0  0
 54 55  2  0  0  0
 54123  1  0  0  0
 55 57  1  0  0  0
 55124  1  0  0  0
 56 69  2  0  0  0
 57 58  2  0  0  0
 57125  1  0  0  0
 58126  1  0  0  0
 59 60  1  0  0  0
 59 61  1  0  0  0
 59 62  1  0  0  0
 60127  1  0  0  0
 60128  1  0  0  0
 60129  1  0  0  0
 61130  1  0  0  0
 61131  1  0  0  0
 61132  1  0  0  0
 62133  1  0  0  0
 62134  1  0  0  0
 62135  1  0  0  0
 63 65  1  0  0  0
 63136  1  0  0  0
 63137  1  0  0  0
 63138  1  0  0  0
 64139  1  0  0  0
 65140  1  0  0  0
 68 78  1  0  0  0
 71 80  1  0  0  0
 71 81  2  0  0  0
 71 76  1  0  0  0
 72 73  1  0  0  0
 72 74  1  0  0  0
 72141  1  0  0  0
 72142  1  0  0  0
 73 76  1  0  0  0
 73143  1  0  0  0
 73144  1  0  0  0
 74 79  1  0  0  0
 74145  1  0  0  0
 74146  1  0  0  0
 75 76  1  0  0  0
 75 79  1  0  0  0
 75147  1  0  0  0
 75148  1  0  0  0
 76149  1  0  0  0
 77 78  1  0  0  0
 77 80  1  0  0  0
 77150  1  0  0  0
 77151  1  0  0  0
 78152  1  0  0  0
 78153  1  0  0  0
 80154  1  0  0  0
M  ISO  4   1 100  68 101  78 101  79 100
M  END
> <chiral flag>
0

> <version>
0

> <s_m_source_file>
/data/baiqing/PycharmProjects/Reinvent-master-3.2/result/LINK_invent/BTK/process_docking_weight1_custom_sum_contain_oxygen_bond_distance_aromatic_linkinvent_7_9_3/rearranged_h_0115.sdf

> <i_m_source_file_index>
82

> <r_mmod_Potential_Energy-OPLS-2005>
669.234741210938

> <r_mmod_Stretch_Energy-OPLS-2005>
293.523742675781

> <r_mmod_Bend_Energy-OPLS-2005>
282.540893554688

> <r_mmod_Torsional_Energy-OPLS-2005>
324.786193847656

> <r_mmod_Improper_Torsional_Energy-OPLS-2005>
6.68710947036743

> <r_mmod_Van_der_Waal_Energy-OPLS-2005>
123.636695861816

> <r_mmod_Electrostatic_Energy-OPLS-2005>
-326.266845703125

> <r_mmod_Solvation_Energy-OPLS-2005>
-236.144470214844

> <b_mmod_Minimization_Converged-OPLS-2005>
0

> <r_mmod_RMS_Derivative-OPLS-2005>
4.22872257232666

$$$$
82
                    3D
 Structure written by MMmdl.
164172  0  0  1  0            999 V2000
  -30.5936  -14.7437   20.4825 C   0  0  0  0  0  0
  -30.4384  -12.4596   19.4569 C   0  0  0  0  0  0
  -29.5052  -12.5004   18.2263 C   0  0  0  0  0  0
  -28.0329  -12.3170   18.6467 C   0  0  0  0  0  0
  -27.6391  -13.2194   19.8459 C   0  0  2  0  0  0
  -28.6873  -13.1491   20.9769 C   0  0  0  0  0  0
  -25.2511  -13.8168   20.5684 C   0  0  0  0  0  0
  -24.1802  -13.0421   20.9199 C   0  0  0  0  0  0
  -24.6379  -11.6896   20.8751 C   0  0  0  0  0  0
  -23.9058  -10.4278   21.0408 C   0  0  0  0  0  0
  -24.3614   -9.4199   21.9185 C   0  0  0  0  0  0
  -23.6289   -8.2235   22.0755 C   0  0  0  0  0  0
  -22.4270   -8.0271   21.3545 C   0  0  0  0  0  0
  -21.9906   -9.0245   20.4647 C   0  0  0  0  0  0
  -22.7233  -10.2125   20.3055 C   0  0  0  0  0  0
  -21.6852   -6.0727   22.5277 C   0  0  0  0  0  0
  -21.4014   -6.5633   23.8209 C   0  0  0  0  0  0
  -21.3661   -5.6788   24.9174 C   0  0  0  0  0  0
  -21.6046   -4.3049   24.7226 C   0  0  0  0  0  0
  -21.8821   -3.8139   23.4347 C   0  0  0  0  0  0
  -21.9195   -4.6955   22.3402 C   0  0  0  0  0  0
  -22.7830  -13.5215   21.1858 C   0  0  0  0  0  0
  -22.1662   -4.2139   21.0981 F   0  0  0  0  0  0
  -21.5631   -3.4535   25.7742 F   0  0  0  0  0  0
  -29.9798  -13.5151   20.3862 N   0  0  0  0  0  0
  -26.2920  -12.9344   20.3267 N   0  0  0  0  0  0
  -25.9302  -11.6502   20.5762 N   0  0  0  0  0  0
  -22.0482  -12.8206   22.0418 N   0  0  0  0  0  0
  -25.4176  -15.1897   20.4087 N   0  0  0  0  0  0
  -31.7998  -14.8461   20.2346 O   0  0  0  0  0  0
  -21.6636   -6.8870   21.4237 O   0  0  0  0  0  0
  -22.3517  -14.5522   20.6709 O   0  0  0  0  0  0
  -24.6334  -31.8558   23.1992 C   0  0  0  0  0  0
  -25.9159  -32.4761   23.8343 C   0  0  1  0  0  0
  -27.2098  -27.2499   20.1288 C   0  0  0  0  0  0
  -25.5954  -33.8558   24.2263 N   0  0  0  0  0  0
  -23.4304  -30.4840   21.5416 C   0  0  2  0  0  0
  -24.8753  -28.9348   20.1077 C   0  0  0  0  0  0
  -22.7522  -29.4615   22.4869 C   0  0  0  0  0  0
  -18.0305  -28.1385   22.8498 C   0  0  0  0  0  0
  -24.1488  -36.7281   23.2643 C   0  0  0  0  0  0
  -25.9793  -30.7660   21.3819 C   0  0  0  0  0  0
  -26.0499  -29.3905   20.7209 C   0  0  0  0  0  0
  -27.2215  -28.5637   20.7152 C   0  0  0  0  0  0
  -26.0116  -26.8760   19.4757 C   0  0  0  0  0  0
  -24.8647  -27.6876   19.4720 C   0  0  0  0  0  0
  -23.6495  -29.8255   20.1570 C   0  0  0  0  0  0
  -25.4112  -36.3074   24.0333 C   0  0  1  0  0  0
  -20.5914  -28.3708   23.1244 C   0  0  2  0  0  0
  -20.6784  -26.9417   22.5395 C   0  0  0  0  0  0
  -19.5748  -26.6370   21.5213 C   0  0  0  0  0  0
  -18.1932  -26.7926   22.1630 C   0  0  0  0  0  0
  -19.1560  -28.8858   23.2871 C   0  0  0  0  0  0
  -18.9484  -30.1458   23.8889 C   0  0  0  0  0  0
  -17.6480  -30.6584   24.0572 C   0  0  0  0  0  0
  -25.9056  -34.9444   23.5092 C   0  0  0  0  0  0
  -16.5370  -29.9091   23.6331 C   0  0  0  0  0  0
  -16.7292  -28.6506   23.0360 C   0  0  0  0  0  0
  -26.4516  -31.6591   25.0740 C   0  0  0  0  0  0
  -25.3737  -31.3769   26.1464 C   0  0  0  0  0  0
  -27.0368  -30.3002   24.6236 C   0  0  0  0  0  0
  -27.6044  -32.4366   25.7526 C   0  0  0  0  0  0
  -27.5577  -37.1796   24.8469 C   0  0  0  0  0  0
  -21.4225  -29.3065   22.3633 N   0  0  0  0  0  0
  -26.4286  -37.3775   23.9422 N   0  0  0  0  0  0
  -24.7009  -31.0535   22.0965 N   0  0  0  0  0  0
  -23.4226  -28.8131   23.2944 O   0  0  0  0  0  0
  -28.2887  -26.3305   20.1876 O   0  0  0  0  0  0
  -26.5615  -34.8921   22.4654 O   0  0  0  0  0  0
  -23.5481  -32.1370   23.7275 O   0  0  0  0  0  0
  -30.4686  -18.4890   23.0908 C   0  0  0  0  0  0
  -30.4045  -17.2721   22.4010 C   0  0  0  0  0  0
  -30.1243  -19.7115   22.4688 C   0  0  0  0  0  0
  -29.7201  -19.6846   21.0984 C   0  0  0  0  0  0
  -29.9718  -17.2249   21.0684 C   0  0  0  0  0  0
  -32.7869  -21.2065   22.7084 C   0  0  0  0  0  0
  -29.6329  -21.0488   20.2463 C   0  0  0  0  0  0
  -31.7315  -21.1899   23.8250 C   0  0  0  0  0  0
  -29.0972  -23.6793   20.3340 C   0  0  0  0  0  0
  -27.9727  -24.8511   20.2751 C   0  0  0  0  0  0
  -30.2859  -20.9938   23.3099 C   0  0  2  0  0  0
  -29.6268  -18.4381   20.4565 N   0  0  0  0  0  0
  -29.7689  -15.8621   20.5369 N   0  0  0  0  0  0
  -29.3195  -21.0313   24.4275 N   0  3  0  0  0  0
  -28.6528  -22.2041   20.5450 N   0  3  0  0  0  0
  -31.4742  -12.6079   19.1471 H   0  0  0  0  0  0
  -30.4052  -11.4810   19.9393 H   0  0  0  0  0  0
  -29.7883  -11.7289   17.5088 H   0  0  0  0  0  0
  -29.6208  -13.4549   17.7106 H   0  0  0  0  0  0
  -27.8954  -11.2687   18.9133 H   0  0  0  0  0  0
  -27.3710  -12.5015   17.7996 H   0  0  0  0  0  0
  -27.6314  -14.2387   19.4610 H   0  0  0  0  0  0
  -28.7311  -12.1473   21.4075 H   0  0  0  0  0  0
  -28.4237  -13.8227   21.7943 H   0  0  0  0  0  0
  -25.2761   -9.5673   22.4755 H   0  0  0  0  0  0
  -23.9995   -7.4626   22.7477 H   0  0  0  0  0  0
  -21.0833   -8.8763   19.8953 H   0  0  0  0  0  0
  -22.3690  -10.9662   19.6158 H   0  0  0  0  0  0
  -21.2001   -7.6142   23.9710 H   0  0  0  0  0  0
  -21.1483   -6.0519   25.9079 H   0  0  0  0  0  0
  -22.0600   -2.7600   23.2851 H   0  0  0  0  0  0
  -22.4104  -11.9847   22.4767 H   0  0  0  0  0  0
  -21.1110  -13.1238   22.2650 H   0  0  0  0  0  0
  -24.6416  -15.8337   20.5205 H   0  0  0  0  0  0
  -26.2482  -15.6383   20.0462 H   0  0  0  0  0  0
  -26.7217  -32.5389   23.1081 H   0  0  0  0  0  0
  -25.0167  -33.9707   25.0451 H   0  0  0  0  0  0
  -22.7270  -31.3071   21.3974 H   0  0  0  0  0  0
  -23.3759  -35.9605   23.3304 H   0  0  0  0  0  0
  -24.3577  -36.8897   22.2054 H   0  0  0  0  0  0
  -23.7227  -37.6478   23.6660 H   0  0  0  0  0  0
  -26.1266  -31.5286   20.6159 H   0  0  0  0  0  0
  -26.8537  -30.8067   22.0197 H   0  0  0  0  0  0
  -28.1195  -28.9109   21.2072 H   0  0  0  0  0  0
  -25.9153  -25.9381   18.9538 H   0  0  0  0  0  0
  -23.9706  -27.3391   18.9726 H   0  0  0  0  0  0
  -23.7821  -30.6072   19.4081 H   0  0  0  0  0  0
  -22.7659  -29.2669   19.8438 H   0  0  0  0  0  0
  -25.1283  -36.1917   25.0824 H   0  0  0  0  0  0
  -21.0022  -28.3285   24.1354 H   0  0  0  0  0  0
  -20.5669  -26.2327   23.3611 H   0  0  0  0  0  0
  -21.6653  -26.7416   22.1188 H   0  0  0  0  0  0
  -19.6918  -25.6279   21.1247 H   0  0  0  0  0  0
  -19.6683  -27.3182   20.6739 H   0  0  0  0  0  0
  -17.4203  -26.6695   21.4027 H   0  0  0  0  0  0
  -18.0327  -26.0055   22.9009 H   0  0  0  0  0  0
  -19.7964  -30.7276   24.2245 H   0  0  0  0  0  0
  -17.5044  -31.6263   24.5177 H   0  0  0  0  0  0
  -15.5377  -30.2997   23.7645 H   0  0  0  0  0  0
  -15.8693  -28.0820   22.7075 H   0  0  0  0  0  0
  -24.5909  -30.7120   25.7812 H   0  0  0  0  0  0
  -24.8949  -32.2955   26.4861 H   0  0  0  0  0  0
  -25.8051  -30.8979   27.0259 H   0  0  0  0  0  0
  -26.2964  -29.6753   24.1237 H   0  0  0  0  0  0
  -27.4021  -29.7266   25.4764 H   0  0  0  0  0  0
  -27.8852  -30.4282   23.9515 H   0  0  0  0  0  0
  -27.2612  -33.3672   26.2058 H   0  0  0  0  0  0
  -28.3873  -32.6921   25.0377 H   0  0  0  0  0  0
  -28.0691  -31.8536   26.5483 H   0  0  0  0  0  0
  -28.2576  -38.0111   24.7509 H   0  0  0  0  0  0
  -28.1080  -36.2630   24.6281 H   0  0  0  0  0  0
  -27.2294  -37.1425   25.8873 H   0  0  0  0  0  0
  -20.9389  -29.8843   21.6895 H   0  0  0  0  0  0
  -26.0161  -38.2843   24.1433 H   0  0  0  0  0  0
  -30.7977  -18.4726   24.1195 H   0  0  0  0  0  0
  -30.6595  -16.3653   22.9334 H   0  0  0  0  0  0
  -33.7862  -21.3295   23.1272 H   0  0  0  0  0  0
  -32.6188  -22.0311   22.0144 H   0  0  0  0  0  0
  -32.7882  -20.2789   22.1353 H   0  0  0  0  0  0
  -29.4999  -20.7793   19.1983 H   0  0  0  0  0  0
  -30.6366  -21.4717   20.2902 H   0  0  0  0  0  0
  -31.7954  -22.1269   24.3803 H   0  0  0  0  0  0
  -31.9903  -20.4082   24.5394 H   0  0  0  0  0  0
  -29.8086  -23.9276   21.1224 H   0  0  0  0  0  0
  -29.6601  -23.7249   19.4016 H   0  0  0  0  0  0
  -27.3275  -24.7331   21.1470 H   0  0  0  0  0  0
  -27.3656  -24.5765   19.4164 H   0  0  0  0  0  0
  -30.0649  -21.8675   22.7032 H   0  0  0  0  0  0
  -28.8019  -15.6437   20.3691 H   0  0  0  0  0  0
  -29.4954  -20.3033   25.0965 H   0  0  0  0  0  0
  -28.3722  -20.9313   24.1085 H   0  0  0  0  0  0
  -29.3841  -21.9085   24.9150 H   0  0  0  0  0  0
  -28.2936  -22.0986   21.4772 H   0  0  0  0  0  0
  -27.8654  -22.0253   19.9412 H   0  0  0  0  0  0
  1 25  1  0  0  0
  1 30  2  0  0  0
  1 83  1  0  0  0
  2  3  1  0  0  0
  2 25  1  0  0  0
  2 86  1  0  0  0
  2 87  1  0  0  0
  3  4  1  0  0  0
  3 88  1  0  0  0
  3 89  1  0  0  0
  4  5  1  0  0  0
  4 90  1  0  0  0
  4 91  1  0  0  0
  5  6  1  0  0  0
  5 26  1  0  0  0
  5 92  1  0  0  0
  6 25  1  0  0  0
  6 93  1  0  0  0
  6 94  1  0  0  0
  7  8  2  0  0  0
  7 26  1  0  0  0
  7 29  1  0  0  0
  8  9  1  0  0  0
  8 22  1  0  0  0
  9 10  1  0  0  0
  9 27  2  0  0  0
 10 11  2  0  0  0
 10 15  1  0  0  0
 11 12  1  0  0  0
 11 95  1  0  0  0
 12 13  2  0  0  0
 12 96  1  0  0  0
 13 14  1  0  0  0
 13 31  1  0  0  0
 14 15  2  0  0  0
 14 97  1  0  0  0
 15 98  1  0  0  0
 16 17  2  0  0  0
 16 21  1  0  0  0
 16 31  1  0  0  0
 17 18  1  0  0  0
 17 99  1  0  0  0
 18 19  2  0  0  0
 18100  1  0  0  0
 19 20  1  0  0  0
 19 24  1  0  0  0
 20 21  2  0  0  0
 20101  1  0  0  0
 21 23  1  0  0  0
 22 28  1  0  0  0
 22 32  2  0  0  0
 26 27  1  0  0  0
 28102  1  0  0  0
 28103  1  0  0  0
 29104  1  0  0  0
 29105  1  0  0  0
 33 34  1  0  0  0
 33 66  1  0  0  0
 33 70  2  0  0  0
 34 36  1  0  0  0
 34 59  1  0  0  0
 34106  1  0  0  0
 35 44  2  0  0  0
 35 45  1  0  0  0
 35 68  1  0  0  0
 36 56  1  0  0  0
 36107  1  0  0  0
 37 39  1  0  0  0
 37 47  1  0  0  0
 37 66  1  0  0  0
 37108  1  0  0  0
 38 43  2  0  0  0
 38 46  1  0  0  0
 38 47  1  0  0  0
 39 64  1  0  0  0
 39 67  2  0  0  0
 40 52  1  0  0  0
 40 53  2  0  0  0
 40 58  1  0  0  0
 41109  1  0  0  0
 41110  1  0  0  0
 41111  1  0  0  0
 41 48  1  0  0  0
 42 43  1  0  0  0
 42 66  1  0  0  0
 42112  1  0  0  0
 42113  1  0  0  0
 43 44  1  0  0  0
 44114  1  0  0  0
 45 46  2  0  0  0
 45115  1  0  0  0
 46116  1  0  0  0
 47117  1  0  0  0
 47118  1  0  0  0
 48 56  1  0  0  0
 48 65  1  0  0  0
 48119  1  0  0  0
 49 50  1  0  0  0
 49 53  1  0  0  0
 49 64  1  0  0  0
 49120  1  0  0  0
 50 51  1  0  0  0
 50121  1  0  0  0
 50122  1  0  0  0
 51 52  1  0  0  0
 51123  1  0  0  0
 51124  1  0  0  0
 52125  1  0  0  0
 52126  1  0  0  0
 53 54  1  0  0  0
 54 55  2  0  0  0
 54127  1  0  0  0
 55 57  1  0  0  0
 55128  1  0  0  0
 56 69  2  0  0  0
 57 58  2  0  0  0
 57129  1  0  0  0
 58130  1  0  0  0
 59 60  1  0  0  0
 59 61  1  0  0  0
 59 62  1  0  0  0
 60131  1  0  0  0
 60132  1  0  0  0
 60133  1  0  0  0
 61134  1  0  0  0
 61135  1  0  0  0
 61136  1  0  0  0
 62137  1  0  0  0
 62138  1  0  0  0
 62139  1  0  0  0
 63 65  1  0  0  0
 63140  1  0  0  0
 63141  1  0  0  0
 63142  1  0  0  0
 64143  1  0  0  0
 65144  1  0  0  0
 68 80  1  0  0  0
 71 72  2  0  0  0
 71 73  1  0  0  0
 71145  1  0  0  0
 72 75  1  0  0  0
 72146  1  0  0  0
 73 74  2  0  0  0
 73 81  1  0  0  0
 74 77  1  0  0  0
 74 82  1  0  0  0
 75 82  2  0  0  0
 75 83  1  0  0  0
 76 78  1  0  0  0
 76147  1  0  0  0
 76148  1  0  0  0
 76149  1  0  0  0
 77 85  1  0  0  0
 77150  1  0  0  0
 77151  1  0  0  0
 78 81  1  0  0  0
 78152  1  0  0  0
 78153  1  0  0  0
 79 80  1  0  0  0
 79 85  1  0  0  0
 79154  1  0  0  0
 79155  1  0  0  0
 80156  1  0  0  0
 80157  1  0  0  0
 81 84  1  0  0  0
 81158  1  0  0  0
 83159  1  0  0  0
 84160  1  0  0  0
 84161  1  0  0  0
 84162  1  0  0  0
 85163  1  0  0  0
 85164  1  0  0  0
M  CHG  2  84   1  85   1
M  ISO  4   1 100  68 101  80 101  83 100
M  END
> <chiral flag>
0

> <version>
0

> <s_m_source_file>
/data/baiqing/PycharmProjects/Reinvent-master-3.2/result/LINK_invent/BTK/process_docking_weight1_custom_sum_contain_oxygen_bond_distance_aromatic_linkinvent_7_9_3/rearranged_h_0115.sdf

> <i_m_source_file_index>
83

> <r_mmod_Potential_Energy-OPLS-2005>
-347.576904296875

> <r_mmod_Stretch_Energy-OPLS-2005>
136.766906738281

> <r_mmod_Bend_Energy-OPLS-2005>
180.083526611328

> <r_mmod_Torsional_Energy-OPLS-2005>
247.042068481445

> <r_mmod_Improper_Torsional_Energy-OPLS-2005>
10.6090831756592

> <r_mmod_Van_der_Waal_Energy-OPLS-2005>
138.341598510742

> <r_mmod_Electrostatic_Energy-OPLS-2005>
-79.1830062866211

> <r_mmod_Solvation_Energy-OPLS-2005>
-1073.33276367188

> <b_mmod_Minimization_Converged-OPLS-2005>
0

> <r_mmod_RMS_Derivative-OPLS-2005>
1.70320177078247

$$$$
83
                    3D
 Structure written by MMmdl.
166174  0  0  1  0            999 V2000
  -30.5470  -14.9593   20.3594 C   0  0  0  0  0  0
  -30.4448  -12.5911   19.4741 C   0  0  0  0  0  0
  -29.5125  -12.4681   18.2484 C   0  0  0  0  0  0
  -28.0596  -12.2366   18.7020 C   0  0  0  0  0  0
  -27.6207  -13.2126   19.8242 C   0  0  2  0  0  0
  -28.6723  -13.3137   20.9469 C   0  0  0  0  0  0
  -25.2506  -13.8144   20.5752 C   0  0  0  0  0  0
  -24.1764  -13.0433   20.9245 C   0  0  0  0  0  0
  -24.6332  -11.6897   20.8798 C   0  0  0  0  0  0
  -23.9016  -10.4278   21.0426 C   0  0  0  0  0  0
  -24.3598   -9.4189   21.9176 C   0  0  0  0  0  0
  -23.6291   -8.2213   22.0737 C   0  0  0  0  0  0
  -22.4267   -8.0255   21.3534 C   0  0  0  0  0  0
  -21.9892   -9.0242   20.4656 C   0  0  0  0  0  0
  -22.7201  -10.2121   20.3071 C   0  0  0  0  0  0
  -21.6842   -6.0719   22.5274 C   0  0  0  0  0  0
  -21.3991   -6.5615   23.8209 C   0  0  0  0  0  0
  -21.3672   -5.6773   24.9172 C   0  0  0  0  0  0
  -21.6055   -4.3040   24.7225 C   0  0  0  0  0  0
  -21.8827   -3.8132   23.4347 C   0  0  0  0  0  0
  -21.9188   -4.6947   22.3399 C   0  0  0  0  0  0
  -22.7789  -13.5252   21.1886 C   0  0  0  0  0  0
  -22.1655   -4.2143   21.0975 F   0  0  0  0  0  0
  -21.5656   -3.4513   25.7736 F   0  0  0  0  0  0
  -29.9369  -13.7083   20.3138 N   0  0  0  0  0  0
  -26.2860  -12.9282   20.3282 N   0  0  0  0  0  0
  -25.9252  -11.6463   20.5832 N   0  0  0  0  0  0
  -22.0409  -12.8276   22.0444 N   0  0  0  0  0  0
  -25.4266  -15.1854   20.4184 N   0  0  0  0  0  0
  -31.7810  -14.9872   20.2911 O   0  0  0  0  0  0
  -21.6634   -6.8852   21.4229 O   0  0  0  0  0  0
  -22.3499  -14.5552   20.6704 O   0  0  0  0  0  0
  -24.6466  -31.8444   23.1865 C   0  0  0  0  0  0
  -25.9248  -32.4691   23.8235 C   0  0  1  0  0  0
  -27.2143  -27.1372   20.1406 C   0  0  0  0  0  0
  -25.5995  -33.8486   24.2187 N   0  0  0  0  0  0
  -23.4472  -30.4657   21.5333 C   0  0  2  0  0  0
  -24.8926  -28.8940   20.1073 C   0  0  0  0  0  0
  -22.7574  -29.4560   22.4860 C   0  0  0  0  0  0
  -18.0315  -28.1411   22.8478 C   0  0  0  0  0  0
  -24.1497  -36.7217   23.2646 C   0  0  0  0  0  0
  -26.0024  -30.7239   21.3767 C   0  0  0  0  0  0
  -26.0724  -29.3345   20.7182 C   0  0  0  0  0  0
  -27.2341  -28.4733   20.7168 C   0  0  0  0  0  0
  -26.0054  -26.8036   19.4888 C   0  0  0  0  0  0
  -24.8704  -27.6427   19.4774 C   0  0  0  0  0  0
  -23.6683  -29.7954   20.1530 C   0  0  0  0  0  0
  -25.4130  -36.3012   24.0330 C   0  0  1  0  0  0
  -20.5930  -28.3728   23.1221 C   0  0  2  0  0  0
  -20.6793  -26.9439   22.5389 C   0  0  0  0  0  0
  -19.5751  -26.6409   21.5211 C   0  0  0  0  0  0
  -18.1944  -26.7955   22.1638 C   0  0  0  0  0  0
  -19.1579  -28.8886   23.2839 C   0  0  0  0  0  0
  -18.9495  -30.1487   23.8861 C   0  0  0  0  0  0
  -17.6487  -30.6598   24.0561 C   0  0  0  0  0  0
  -25.9088  -34.9394   23.5051 C   0  0  0  0  0  0
  -16.5370  -29.9097   23.6337 C   0  0  0  0  0  0
  -16.7299  -28.6520   23.0350 C   0  0  0  0  0  0
  -26.4592  -31.6545   25.0656 C   0  0  0  0  0  0
  -25.3798  -31.3698   26.1361 C   0  0  0  0  0  0
  -27.0462  -30.2955   24.6189 C   0  0  0  0  0  0
  -27.6134  -32.4328   25.7413 C   0  0  0  0  0  0
  -27.5579  -37.1758   24.8481 C   0  0  0  0  0  0
  -21.4279  -29.3056   22.3599 N   0  0  0  0  0  0
  -26.4280  -37.3741   23.9437 N   0  0  0  0  0  0
  -24.7194  -31.0328   22.0866 N   0  0  0  0  0  0
  -23.4223  -28.8134   23.3030 O   0  0  0  0  0  0
  -28.2693  -26.1505   20.2382 O   0  0  0  0  0  0
  -26.5654  -34.8908   22.4620 O   0  0  0  0  0  0
  -23.5604  -32.1277   23.7127 O   0  0  0  0  0  0
  -29.5070  -20.3255   16.7089 C   0  0  0  0  0  0
  -30.3284  -19.9992   17.7232 C   0  0  0  0  0  0
  -29.4508  -17.6003   17.8967 C   0  0  0  0  0  0
  -29.4317  -16.2302   18.6303 C   0  0  0  0  0  0
  -29.8098  -17.5727   20.7652 C   0  0  0  0  0  0
  -30.1349  -18.7741   18.6207 C   0  0  2  0  0  0
  -29.3624  -18.9730   19.9497 C   0  0  2  0  0  0
  -31.5695  -20.8290   18.0109 C   0  0  0  0  0  0
  -28.2860  -24.5779   18.3535 C   0  0  0  0  0  0
  -28.8973  -23.3040   20.5230 C   0  0  0  0  0  0
  -28.6707  -21.7036   20.0171 C   0  0  0  0  0  0
  -28.0886  -24.6406   19.8769 C   0  0  1  0  0  0
  -29.7966  -16.1493   20.0740 N   0  0  0  0  0  0
  -29.4510  -20.4339   20.5798 N   0  3  0  0  0  0
  -31.4694  -12.7686   19.1430 H   0  0  0  0  0  0
  -30.4642  -11.6622   20.0440 H   0  0  0  0  0  0
  -29.8408  -11.6442   17.6133 H   0  0  0  0  0  0
  -29.5706  -13.3652   17.6338 H   0  0  0  0  0  0
  -28.0053  -11.2146   19.0806 H   0  0  0  0  0  0
  -27.3766  -12.2760   17.8539 H   0  0  0  0  0  0
  -27.5481  -14.1814   19.3490 H   0  0  0  0  0  0
  -28.7756  -12.3761   21.4937 H   0  0  0  0  0  0
  -28.3679  -14.0688   21.6740 H   0  0  0  0  0  0
  -25.2745   -9.5677   22.4737 H   0  0  0  0  0  0
  -24.0010   -7.4605   22.7457 H   0  0  0  0  0  0
  -21.0808   -8.8781   19.8981 H   0  0  0  0  0  0
  -22.3655  -10.9676   19.6203 H   0  0  0  0  0  0
  -21.1952   -7.6118   23.9713 H   0  0  0  0  0  0
  -21.1488   -6.0491   25.9083 H   0  0  0  0  0  0
  -22.0596   -2.7594   23.2840 H   0  0  0  0  0  0
  -22.4013  -11.9975   22.4900 H   0  0  0  0  0  0
  -21.1017  -13.1328   22.2610 H   0  0  0  0  0  0
  -24.6671  -15.8460   20.5457 H   0  0  0  0  0  0
  -26.2944  -15.6232   20.1346 H   0  0  0  0  0  0
  -26.7320  -32.5316   23.0973 H   0  0  0  0  0  0
  -25.0201  -33.9586   25.0378 H   0  0  0  0  0  0
  -22.7494  -31.2919   21.3840 H   0  0  0  0  0  0
  -23.3787  -35.9521   23.3281 H   0  0  0  0  0  0
  -24.3585  -36.8861   22.2065 H   0  0  0  0  0  0
  -23.7223  -37.6400   23.6679 H   0  0  0  0  0  0
  -26.1528  -31.4822   20.6064 H   0  0  0  0  0  0
  -26.8752  -30.7733   22.0154 H   0  0  0  0  0  0
  -28.1351  -28.8107   21.2097 H   0  0  0  0  0  0
  -25.8872  -25.8481   19.0021 H   0  0  0  0  0  0
  -23.9689  -27.2998   18.9894 H   0  0  0  0  0  0
  -23.7986  -30.5685   19.3946 H   0  0  0  0  0  0
  -22.7813  -29.2348   19.8505 H   0  0  0  0  0  0
  -25.1331  -36.1815   25.0822 H   0  0  0  0  0  0
  -21.0022  -28.3325   24.1341 H   0  0  0  0  0  0
  -20.5700  -26.2352   23.3620 H   0  0  0  0  0  0
  -21.6653  -26.7460   22.1177 H   0  0  0  0  0  0
  -19.6897  -25.6325   21.1246 H   0  0  0  0  0  0
  -19.6666  -27.3215   20.6740 H   0  0  0  0  0  0
  -17.4215  -26.6708   21.4044 H   0  0  0  0  0  0
  -18.0319  -26.0109   22.9040 H   0  0  0  0  0  0
  -19.7961  -30.7321   24.2211 H   0  0  0  0  0  0
  -17.5031  -31.6267   24.5186 H   0  0  0  0  0  0
  -15.5362  -30.2976   23.7675 H   0  0  0  0  0  0
  -15.8712  -28.0828   22.7054 H   0  0  0  0  0  0
  -24.5981  -30.7055   25.7665 H   0  0  0  0  0  0
  -24.8989  -32.2853   26.4791 H   0  0  0  0  0  0
  -25.8095  -30.8858   27.0133 H   0  0  0  0  0  0
  -26.3054  -29.6657   24.1243 H   0  0  0  0  0  0
  -27.4174  -29.7265   25.4724 H   0  0  0  0  0  0
  -27.8910  -30.4231   23.9417 H   0  0  0  0  0  0
  -27.2736  -33.3651   26.1926 H   0  0  0  0  0  0
  -28.3925  -32.6861   25.0210 H   0  0  0  0  0  0
  -28.0814  -31.8500   26.5356 H   0  0  0  0  0  0
  -28.2627  -38.0039   24.7542 H   0  0  0  0  0  0
  -28.1060  -36.2579   24.6289 H   0  0  0  0  0  0
  -27.2297  -37.1362   25.8886 H   0  0  0  0  0  0
  -20.9507  -29.8728   21.6736 H   0  0  0  0  0  0
  -26.0145  -38.2804   24.1467 H   0  0  0  0  0  0
  -28.6270  -19.7500   16.4663 H   0  0  0  0  0  0
  -29.7038  -21.1915   16.0932 H   0  0  0  0  0  0
  -28.4176  -17.8715   17.6713 H   0  0  0  0  0  0
  -29.9156  -17.4543   16.9198 H   0  0  0  0  0  0
  -30.0750  -15.5696   18.0438 H   0  0  0  0  0  0
  -28.4309  -15.8328   18.4968 H   0  0  0  0  0  0
  -29.1799  -17.4912   21.6518 H   0  0  0  0  0  0
  -30.8196  -17.7173   21.1540 H   0  0  0  0  0  0
  -31.1493  -18.4431   18.8489 H   0  0  0  0  0  0
  -28.2942  -18.8732   19.7458 H   0  0  0  0  0  0
  -31.5804  -21.7558   17.4358 H   0  0  0  0  0  0
  -32.4634  -20.2616   17.7451 H   0  0  0  0  0  0
  -31.6469  -21.0887   19.0647 H   0  0  0  0  0  0
  -27.8670  -23.6596   17.9415 H   0  0  0  0  0  0
  -29.3461  -24.5983   18.0979 H   0  0  0  0  0  0
  -27.8152  -25.4090   17.8304 H   0  0  0  0  0  0
  -29.9640  -23.5090   20.4340 H   0  0  0  0  0  0
  -28.7048  -23.3228   21.5962 H   0  0  0  0  0  0
  -28.8078  -21.7132   18.9415 H   0  0  0  0  0  0
  -27.6116  -21.4771   20.1464 H   0  0  0  0  0  0
  -27.0457  -24.4179   20.0935 H   0  0  0  0  0  0
  -30.4271  -20.6676   20.6466 H   0  0  0  0  0  0
  -29.1241  -20.3303   21.5272 H   0  0  0  0  0  0
  1 25  1  0  0  0
  1 30  2  0  0  0
  1 83  1  0  0  0
  2  3  1  0  0  0
  2 25  1  0  0  0
  2 85  1  0  0  0
  2 86  1  0  0  0
  3  4  1  0  0  0
  3 87  1  0  0  0
  3 88  1  0  0  0
  4  5  1  0  0  0
  4 89  1  0  0  0
  4 90  1  0  0  0
  5  6  1  0  0  0
  5 26  1  0  0  0
  5 91  1  0  0  0
  6 25  1  0  0  0
  6 92  1  0  0  0
  6 93  1  0  0  0
  7  8  2  0  0  0
  7 26  1  0  0  0
  7 29  1  0  0  0
  8  9  1  0  0  0
  8 22  1  0  0  0
  9 10  1  0  0  0
  9 27  2  0  0  0
 10 11  2  0  0  0
 10 15  1  0  0  0
 11 12  1  0  0  0
 11 94  1  0  0  0
 12 13  2  0  0  0
 12 95  1  0  0  0
 13 14  1  0  0  0
 13 31  1  0  0  0
 14 15  2  0  0  0
 14 96  1  0  0  0
 15 97  1  0  0  0
 16 17  2  0  0  0
 16 21  1  0  0  0
 16 31  1  0  0  0
 17 18  1  0  0  0
 17 98  1  0  0  0
 18 19  2  0  0  0
 18 99  1  0  0  0
 19 20  1  0  0  0
 19 24  1  0  0  0
 20 21  2  0  0  0
 20100  1  0  0  0
 21 23  1  0  0  0
 22 28  1  0  0  0
 22 32  2  0  0  0
 26 27  1  0  0  0
 28101  1  0  0  0
 28102  1  0  0  0
 29103  1  0  0  0
 29104  1  0  0  0
 33 34  1  0  0  0
 33 66  1  0  0  0
 33 70  2  0  0  0
 34 36  1  0  0  0
 34 59  1  0  0  0
 34105  1  0  0  0
 35 44  2  0  0  0
 35 45  1  0  0  0
 35 68  1  0  0  0
 36 56  1  0  0  0
 36106  1  0  0  0
 37 39  1  0  0  0
 37 47  1  0  0  0
 37 66  1  0  0  0
 37107  1  0  0  0
 38 43  2  0  0  0
 38 46  1  0  0  0
 38 47  1  0  0  0
 39 64  1  0  0  0
 39 67  2  0  0  0
 40 52  1  0  0  0
 40 53  2  0  0  0
 40 58  1  0  0  0
 41108  1  0  0  0
 41109  1  0  0  0
 41110  1  0  0  0
 41 48  1  0  0  0
 42 43  1  0  0  0
 42 66  1  0  0  0
 42111  1  0  0  0
 42112  1  0  0  0
 43 44  1  0  0  0
 44113  1  0  0  0
 45 46  2  0  0  0
 45114  1  0  0  0
 46115  1  0  0  0
 47116  1  0  0  0
 47117  1  0  0  0
 48 56  1  0  0  0
 48 65  1  0  0  0
 48118  1  0  0  0
 49 50  1  0  0  0
 49 53  1  0  0  0
 49 64  1  0  0  0
 49119  1  0  0  0
 50 51  1  0  0  0
 50120  1  0  0  0
 50121  1  0  0  0
 51 52  1  0  0  0
 51122  1  0  0  0
 51123  1  0  0  0
 52124  1  0  0  0
 52125  1  0  0  0
 53 54  1  0  0  0
 54 55  2  0  0  0
 54126  1  0  0  0
 55 57  1  0  0  0
 55127  1  0  0  0
 56 69  2  0  0  0
 57 58  2  0  0  0
 57128  1  0  0  0
 58129  1  0  0  0
 59 60  1  0  0  0
 59 61  1  0  0  0
 59 62  1  0  0  0
 60130  1  0  0  0
 60131  1  0  0  0
 60132  1  0  0  0
 61133  1  0  0  0
 61134  1  0  0  0
 61135  1  0  0  0
 62136  1  0  0  0
 62137  1  0  0  0
 62138  1  0  0  0
 63 65  1  0  0  0
 63139  1  0  0  0
 63140  1  0  0  0
 63141  1  0  0  0
 64142  1  0  0  0
 65143  1  0  0  0
 68 82  1  0  0  0
 71 72  2  0  0  0
 71144  1  0  0  0
 71145  1  0  0  0
 72 78  1  0  0  0
 72 76  1  0  0  0
 73 74  1  0  0  0
 73 76  1  0  0  0
 73146  1  0  0  0
 73147  1  0  0  0
 74 83  1  0  0  0
 74148  1  0  0  0
 74149  1  0  0  0
 75 77  1  0  0  0
 75 83  1  0  0  0
 75150  1  0  0  0
 75151  1  0  0  0
 76 77  1  0  0  0
 76152  1  0  0  0
 77 84  1  0  0  0
 77153  1  0  0  0
 78154  1  0  0  0
 78155  1  0  0  0
 78156  1  0  0  0
 79157  1  0  0  0
 79158  1  0  0  0
 79159  1  0  0  0
 79 82  1  0  0  0
 80 81  1  0  0  0
 80 82  1  0  0  0
 80160  1  0  0  0
 80161  1  0  0  0
 81 84  1  0  0  0
 81162  1  0  0  0
 81163  1  0  0  0
 82164  1  0  0  0
 84165  1  0  0  0
 84166  1  0  0  0
M  CHG  1  84   1
M  ISO  4   1 100  68 101  82 101  83 100
M  END
> <chiral flag>
0

> <version>
0

> <s_m_source_file>
/data/baiqing/PycharmProjects/Reinvent-master-3.2/result/LINK_invent/BTK/process_docking_weight1_custom_sum_contain_oxygen_bond_distance_aromatic_linkinvent_7_9_3/rearranged_h_0115.sdf

> <i_m_source_file_index>
84

> <r_mmod_Potential_Energy-OPLS-2005>
605.557556152344

> <r_mmod_Stretch_Energy-OPLS-2005>
275.818695068359

> <r_mmod_Bend_Energy-OPLS-2005>
289.534698486328

> <r_mmod_Torsional_Energy-OPLS-2005>
359.244323730469

> <r_mmod_Improper_Torsional_Energy-OPLS-2005>
13.2893667221069

> <r_mmod_Van_der_Waal_Energy-OPLS-2005>
127.323043823242

> <r_mmod_Electrostatic_Energy-OPLS-2005>
-220.641723632812

> <r_mmod_Solvation_Energy-OPLS-2005>
-447.864624023438

> <b_mmod_Minimization_Converged-OPLS-2005>
0

> <r_mmod_RMS_Derivative-OPLS-2005>
3.27580952644348

$$$$
84
                    3D
 Structure written by MMmdl.
168177  0  0  1  0            999 V2000
  -30.6476  -14.6033   20.3913 C   0  0  0  0  0  0
  -30.4377  -12.3325   19.4464 C   0  0  0  0  0  0
  -29.4994  -12.3344   18.2167 C   0  0  0  0  0  0
  -28.0055  -12.3156   18.6142 C   0  0  0  0  0  0
  -27.6445  -13.2073   19.8370 C   0  0  2  0  0  0
  -28.7009  -13.1050   20.9578 C   0  0  0  0  0  0
  -25.2567  -13.8168   20.5647 C   0  0  0  0  0  0
  -24.1830  -13.0468   20.9159 C   0  0  0  0  0  0
  -24.6389  -11.6914   20.8771 C   0  0  0  0  0  0
  -23.9050  -10.4303   21.0427 C   0  0  0  0  0  0
  -24.3590   -9.4200   21.9199 C   0  0  0  0  0  0
  -23.6254   -8.2243   22.0764 C   0  0  0  0  0  0
  -22.4242   -8.0285   21.3542 C   0  0  0  0  0  0
  -21.9891   -9.0267   20.4635 C   0  0  0  0  0  0
  -22.7235  -10.2141   20.3044 C   0  0  0  0  0  0
  -21.6834   -6.0712   22.5268 C   0  0  0  0  0  0
  -21.4019   -6.5620   23.8205 C   0  0  0  0  0  0
  -21.3647   -5.6773   24.9170 C   0  0  0  0  0  0
  -21.6036   -4.3042   24.7214 C   0  0  0  0  0  0
  -21.8815   -3.8128   23.4340 C   0  0  0  0  0  0
  -21.9184   -4.6940   22.3388 C   0  0  0  0  0  0
  -22.7851  -13.5244   21.1856 C   0  0  0  0  0  0
  -22.1662   -4.2118   21.0974 F   0  0  0  0  0  0
  -21.5630   -3.4537   25.7739 F   0  0  0  0  0  0
  -30.0038  -13.4017   20.3564 N   0  0  0  0  0  0
  -26.2970  -12.9322   20.3268 N   0  0  0  0  0  0
  -25.9321  -11.6496   20.5813 N   0  0  0  0  0  0
  -22.0490  -12.8198   22.0365 N   0  0  0  0  0  0
  -25.4355  -15.1894   20.4039 N   0  0  0  0  0  0
  -31.8703  -14.6879   20.2539 O   0  0  0  0  0  0
  -21.6620   -6.8874   21.4229 O   0  0  0  0  0  0
  -22.3541  -14.5586   20.6759 O   0  0  0  0  0  0
  -24.6160  -31.8689   23.2081 C   0  0  0  0  0  0
  -25.9034  -32.4843   23.8392 C   0  0  1  0  0  0
  -27.2209  -27.3944   20.1082 C   0  0  0  0  0  0
  -25.5873  -33.8643   24.2326 N   0  0  0  0  0  0
  -23.4038  -30.4964   21.5473 C   0  0  2  0  0  0
  -24.8484  -28.9541   20.1169 C   0  0  0  0  0  0
  -22.7373  -29.4706   22.4936 C   0  0  0  0  0  0
  -18.0258  -28.1388   22.8519 C   0  0  0  0  0  0
  -24.1479  -36.7327   23.2640 C   0  0  0  0  0  0
  -25.9373  -30.8241   21.3646 C   0  0  0  0  0  0
  -26.0092  -29.4520   20.7210 C   0  0  0  0  0  0
  -27.1952  -28.6773   20.7135 C   0  0  0  0  0  0
  -26.0342  -26.9164   19.5056 C   0  0  0  0  0  0
  -24.8566  -27.6878   19.5091 C   0  0  0  0  0  0
  -23.6172  -29.8312   20.1621 C   0  0  0  0  0  0
  -25.4095  -36.3146   24.0347 C   0  0  1  0  0  0
  -20.5850  -28.3710   23.1319 C   0  0  2  0  0  0
  -20.6749  -26.9441   22.5430 C   0  0  0  0  0  0
  -19.5732  -26.6422   21.5218 C   0  0  0  0  0  0
  -18.1907  -26.7934   22.1649 C   0  0  0  0  0  0
  -19.1509  -28.8848   23.2927 C   0  0  0  0  0  0
  -18.9445  -30.1428   23.8981 C   0  0  0  0  0  0
  -17.6464  -30.6606   24.0581 C   0  0  0  0  0  0
  -25.9034  -34.9506   23.5150 C   0  0  0  0  0  0
  -16.5347  -29.9133   23.6315 C   0  0  0  0  0  0
  -16.7251  -28.6527   23.0376 C   0  0  0  0  0  0
  -26.4451  -31.6583   25.0716 C   0  0  0  0  0  0
  -25.3678  -31.3584   26.1414 C   0  0  0  0  0  0
  -27.0306  -30.3058   24.6036 C   0  0  0  0  0  0
  -27.6021  -32.4259   25.7505 C   0  0  0  0  0  0
  -27.5567  -37.1811   24.8471 C   0  0  0  0  0  0
  -21.4093  -29.3082   22.3686 N   0  0  0  0  0  0
  -26.4287  -37.3833   23.9415 N   0  0  0  0  0  0
  -24.6712  -31.0774   22.0994 N   0  0  0  0  0  0
  -23.4132  -28.8230   23.2979 O   0  0  0  0  0  0
  -28.3963  -26.6615   20.1460 O   0  0  0  0  0  0
  -26.5635  -34.8962   22.4736 O   0  0  0  0  0  0
  -23.5349  -32.1440   23.7469 O   0  0  0  0  0  0
  -27.6776  -21.7316   20.0093 C   0  0  0  0  0  0
  -27.7272  -23.0052   19.4056 C   0  0  0  0  0  0
  -28.1902  -21.5528   21.3123 C   0  0  0  0  0  0
  -28.2795  -24.0965   20.1081 C   0  0  0  0  0  0
  -28.6873  -22.7147   21.9635 C   0  0  0  0  0  0
  -30.6103  -16.9546   18.2890 C   0  0  0  0  0  0
  -29.5301  -15.9975   18.7859 C   0  0  0  0  0  0
  -30.6425  -17.9325   19.4457 C   0  0  1  0  0  0
  -30.2148  -17.0912   20.6876 C   0  0  1  0  0  0
  -29.2017  -22.6732   23.3891 C   0  0  0  0  0  0
  -31.9550  -18.7156   19.6040 C   0  0  0  0  0  0
  -28.1229  -20.1480   21.9704 C   0  0  0  0  0  0
  -28.5324  -25.4389   19.3862 C   0  0  0  0  0  0
  -29.0179  -17.8160   21.4007 C   0  0  0  0  0  0
  -28.7398  -23.9408   21.3745 N   0  0  0  0  0  0
  -29.8609  -15.7186   20.1955 N   0  0  0  0  0  0
  -29.2872  -19.2696   21.6555 N   0  3  0  0  0  0
  -31.4743  -12.4589   19.1248 H   0  0  0  0  0  0
  -30.4040  -11.3702   19.9604 H   0  0  0  0  0  0
  -29.7063  -11.4436   17.6195 H   0  0  0  0  0  0
  -29.7232  -13.1621   17.5484 H   0  0  0  0  0  0
  -27.7530  -11.2787   18.8371 H   0  0  0  0  0  0
  -27.3868  -12.5827   17.7558 H   0  0  0  0  0  0
  -27.6425  -14.2332   19.4774 H   0  0  0  0  0  0
  -28.7072  -12.1060   21.3961 H   0  0  0  0  0  0
  -28.4790  -13.7993   21.7700 H   0  0  0  0  0  0
  -25.2734   -9.5673   22.4783 H   0  0  0  0  0  0
  -23.9930   -7.4627   22.7492 H   0  0  0  0  0  0
  -21.0827   -8.8787   19.8935 H   0  0  0  0  0  0
  -22.3705  -10.9676   19.6132 H   0  0  0  0  0  0
  -21.2047   -7.6135   23.9702 H   0  0  0  0  0  0
  -21.1457   -6.0519   25.9066 H   0  0  0  0  0  0
  -22.0608   -2.7591   23.2858 H   0  0  0  0  0  0
  -22.4058  -11.9788   22.4663 H   0  0  0  0  0  0
  -21.1125  -13.1254   22.2602 H   0  0  0  0  0  0
  -24.6774  -15.8545   20.5087 H   0  0  0  0  0  0
  -26.2927  -15.6171   20.0849 H   0  0  0  0  0  0
  -26.7084  -32.5584   23.1140 H   0  0  0  0  0  0
  -24.9837  -33.9806   25.0338 H   0  0  0  0  0  0
  -22.6950  -31.3165   21.4076 H   0  0  0  0  0  0
  -23.3784  -35.9627   23.3310 H   0  0  0  0  0  0
  -24.3531  -36.8952   22.2048 H   0  0  0  0  0  0
  -23.7192  -37.6503   23.6672 H   0  0  0  0  0  0
  -26.0351  -31.5774   20.5826 H   0  0  0  0  0  0
  -26.8318  -30.8944   21.9720 H   0  0  0  0  0  0
  -28.0918  -29.0584   21.1820 H   0  0  0  0  0  0
  -25.9845  -25.9431   19.0429 H   0  0  0  0  0  0
  -23.9609  -27.2980   19.0430 H   0  0  0  0  0  0
  -23.7369  -30.6127   19.4118 H   0  0  0  0  0  0
  -22.7411  -29.2600   19.8531 H   0  0  0  0  0  0
  -25.1237  -36.2030   25.0840 H   0  0  0  0  0  0
  -20.9917  -28.3316   24.1455 H   0  0  0  0  0  0
  -20.5644  -26.2314   23.3610 H   0  0  0  0  0  0
  -21.6614  -26.7468   22.1229 H   0  0  0  0  0  0
  -19.6895  -25.6344   21.1215 H   0  0  0  0  0  0
  -19.6667  -27.3260   20.6767 H   0  0  0  0  0  0
  -17.4147  -26.6686   21.4078 H   0  0  0  0  0  0
  -18.0332  -26.0069   22.9048 H   0  0  0  0  0  0
  -19.7927  -30.7183   24.2428 H   0  0  0  0  0  0
  -17.5051  -31.6298   24.5163 H   0  0  0  0  0  0
  -15.5362  -30.3102   23.7565 H   0  0  0  0  0  0
  -15.8637  -28.0855   22.7109 H   0  0  0  0  0  0
  -24.5978  -30.6816   25.7693 H   0  0  0  0  0  0
  -24.8710  -32.2679   26.4802 H   0  0  0  0  0  0
  -25.8027  -30.8796   27.0205 H   0  0  0  0  0  0
  -26.2871  -29.6810   24.1094 H   0  0  0  0  0  0
  -27.4131  -29.7270   25.4449 H   0  0  0  0  0  0
  -27.8665  -30.4428   23.9174 H   0  0  0  0  0  0
  -27.2681  -33.3617   26.1998 H   0  0  0  0  0  0
  -28.3899  -32.6673   25.0354 H   0  0  0  0  0  0
  -28.0603  -31.8390   26.5485 H   0  0  0  0  0  0
  -28.2554  -38.0130   24.7538 H   0  0  0  0  0  0
  -28.1085  -36.2657   24.6294 H   0  0  0  0  0  0
  -27.2266  -37.1423   25.8864 H   0  0  0  0  0  0
  -20.9218  -29.8864   21.6981 H   0  0  0  0  0  0
  -26.0204  -38.2914   24.1472 H   0  0  0  0  0  0
  -27.2615  -20.8977   19.4628 H   0  0  0  0  0  0
  -27.3720  -23.1258   18.3922 H   0  0  0  0  0  0
  -30.3709  -17.4229   17.3326 H   0  0  0  0  0  0
  -31.5684  -16.4423   18.1798 H   0  0  0  0  0  0
  -29.4518  -15.1253   18.1483 H   0  0  0  0  0  0
  -28.5534  -16.4868   18.7365 H   0  0  0  0  0  0
  -29.8624  -18.6607   19.2107 H   0  0  0  0  0  0
  -31.0511  -17.0007   21.3836 H   0  0  0  0  0  0
  -28.3622  -22.6315   24.0837 H   0  0  0  0  0  0
  -29.7870  -23.5630   23.6242 H   0  0  0  0  0  0
  -29.8369  -21.8037   23.5596 H   0  0  0  0  0  0
  -32.8103  -18.0526   19.7291 H   0  0  0  0  0  0
  -31.9236  -19.3797   20.4693 H   0  0  0  0  0  0
  -32.1431  -19.3406   18.7314 H   0  0  0  0  0  0
  -27.1997  -19.6705   21.6348 H   0  0  0  0  0  0
  -28.0187  -20.2325   23.0541 H   0  0  0  0  0  0
  -27.9837  -25.4779   18.4458 H   0  0  0  0  0  0
  -29.5762  -25.4163   19.0694 H   0  0  0  0  0  0
  -28.7743  -17.3109   22.3360 H   0  0  0  0  0  0
  -28.1330  -17.7308   20.7674 H   0  0  0  0  0  0
  -29.9744  -19.3511   22.3881 H   0  0  0  0  0  0
  -29.6996  -19.6404   20.8158 H   0  0  0  0  0  0
  1 25  1  0  0  0
  1 30  2  0  0  0
  1 86  1  0  0  0
  2  3  1  0  0  0
  2 25  1  0  0  0
  2 88  1  0  0  0
  2 89  1  0  0  0
  3  4  1  0  0  0
  3 90  1  0  0  0
  3 91  1  0  0  0
  4  5  1  0  0  0
  4 92  1  0  0  0
  4 93  1  0  0  0
  5  6  1  0  0  0
  5 26  1  0  0  0
  5 94  1  0  0  0
  6 25  1  0  0  0
  6 95  1  0  0  0
  6 96  1  0  0  0
  7  8  2  0  0  0
  7 26  1  0  0  0
  7 29  1  0  0  0
  8  9  1  0  0  0
  8 22  1  0  0  0
  9 10  1  0  0  0
  9 27  2  0  0  0
 10 11  2  0  0  0
 10 15  1  0  0  0
 11 12  1  0  0  0
 11 97  1  0  0  0
 12 13  2  0  0  0
 12 98  1  0  0  0
 13 14  1  0  0  0
 13 31  1  0  0  0
 14 15  2  0  0  0
 14 99  1  0  0  0
 15100  1  0  0  0
 16 17  2  0  0  0
 16 21  1  0  0  0
 16 31  1  0  0  0
 17 18  1  0  0  0
 17101  1  0  0  0
 18 19  2  0  0  0
 18102  1  0  0  0
 19 20  1  0  0  0
 19 24  1  0  0  0
 20 21  2  0  0  0
 20103  1  0  0  0
 21 23  1  0  0  0
 22 28  1  0  0  0
 22 32  2  0  0  0
 26 27  1  0  0  0
 28104  1  0  0  0
 28105  1  0  0  0
 29106  1  0  0  0
 29107  1  0  0  0
 33 34  1  0  0  0
 33 66  1  0  0  0
 33 70  2  0  0  0
 34 36  1  0  0  0
 34 59  1  0  0  0
 34108  1  0  0  0
 35 44  2  0  0  0
 35 45  1  0  0  0
 35 68  1  0  0  0
 36 56  1  0  0  0
 36109  1  0  0  0
 37 39  1  0  0  0
 37 47  1  0  0  0
 37 66  1  0  0  0
 37110  1  0  0  0
 38 43  2  0  0  0
 38 46  1  0  0  0
 38 47  1  0  0  0
 39 64  1  0  0  0
 39 67  2  0  0  0
 40 52  1  0  0  0
 40 53  2  0  0  0
 40 58  1  0  0  0
 41111  1  0  0  0
 41112  1  0  0  0
 41113  1  0  0  0
 41 48  1  0  0  0
 42 43  1  0  0  0
 42 66  1  0  0  0
 42114  1  0  0  0
 42115  1  0  0  0
 43 44  1  0  0  0
 44116  1  0  0  0
 45 46  2  0  0  0
 45117  1  0  0  0
 46118  1  0  0  0
 47119  1  0  0  0
 47120  1  0  0  0
 48 56  1  0  0  0
 48 65  1  0  0  0
 48121  1  0  0  0
 49 50  1  0  0  0
 49 53  1  0  0  0
 49 64  1  0  0  0
 49122  1  0  0  0
 50 51  1  0  0  0
 50123  1  0  0  0
 50124  1  0  0  0
 51 52  1  0  0  0
 51125  1  0  0  0
 51126  1  0  0  0
 52127  1  0  0  0
 52128  1  0  0  0
 53 54  1  0  0  0
 54 55  2  0  0  0
 54129  1  0  0  0
 55 57  1  0  0  0
 55130  1  0  0  0
 56 69  2  0  0  0
 57 58  2  0  0  0
 57131  1  0  0  0
 58132  1  0  0  0
 59 60  1  0  0  0
 59 61  1  0  0  0
 59 62  1  0  0  0
 60133  1  0  0  0
 60134  1  0  0  0
 60135  1  0  0  0
 61136  1  0  0  0
 61137  1  0  0  0
 61138  1  0  0  0
 62139  1  0  0  0
 62140  1  0  0  0
 62141  1  0  0  0
 63 65  1  0  0  0
 63142  1  0  0  0
 63143  1  0  0  0
 63144  1  0  0  0
 64145  1  0  0  0
 65146  1  0  0  0
 68 83  1  0  0  0
 71 72  2  0  0  0
 71 73  1  0  0  0
 71147  1  0  0  0
 72 74  1  0  0  0
 72148  1  0  0  0
 73 75  2  0  0  0
 73 82  1  0  0  0
 74 83  1  0  0  0
 74 85  2  0  0  0
 75 80  1  0  0  0
 75 85  1  0  0  0
 76 77  1  0  0  0
 76 78  1  0  0  0
 76149  1  0  0  0
 76150  1  0  0  0
 77 86  1  0  0  0
 77151  1  0  0  0
 77152  1  0  0  0
 78 79  1  0  0  0
 78 81  1  0  0  0
 78153  1  0  0  0
 79 84  1  0  0  0
 79 86  1  0  0  0
 79154  1  0  0  0
 80155  1  0  0  0
 80156  1  0  0  0
 80157  1  0  0  0
 81158  1  0  0  0
 81159  1  0  0  0
 81160  1  0  0  0
 82 87  1  0  0  0
 82161  1  0  0  0
 82162  1  0  0  0
 83163  1  0  0  0
 83164  1  0  0  0
 84 87  1  0  0  0
 84165  1  0  0  0
 84166  1  0  0  0
 87167  1  0  0  0
 87168  1  0  0  0
M  CHG  1  87   1
M  ISO  4   1 100  68 101  83 101  86 100
M  END
> <chiral flag>
0

> <version>
0

> <s_m_source_file>
/data/baiqing/PycharmProjects/Reinvent-master-3.2/result/LINK_invent/BTK/process_docking_weight1_custom_sum_contain_oxygen_bond_distance_aromatic_linkinvent_7_9_3/rearranged_h_0115.sdf

> <i_m_source_file_index>
85

> <r_mmod_Potential_Energy-OPLS-2005>
8.91894912719727

> <r_mmod_Stretch_Energy-OPLS-2005>
54.5758476257324

> <r_mmod_Bend_Energy-OPLS-2005>
157.432723999023

> <r_mmod_Torsional_Energy-OPLS-2005>
361.052917480469

> <r_mmod_Improper_Torsional_Energy-OPLS-2005>
16.3331661224365

> <r_mmod_Van_der_Waal_Energy-OPLS-2005>
146.261489868164

> <r_mmod_Electrostatic_Energy-OPLS-2005>
-299.494781494141

> <r_mmod_Solvation_Energy-OPLS-2005>
-471.542144775391

> <b_mmod_Minimization_Converged-OPLS-2005>
0

> <r_mmod_RMS_Derivative-OPLS-2005>
4.35599946975708

$$$$
85
                    3D
 Structure written by MMmdl.
157165  0  0  1  0            999 V2000
  -30.5728  -14.7483   20.4919 C   0  0  0  0  0  0
  -30.4427  -12.4656   19.4612 C   0  0  0  0  0  0
  -29.5067  -12.4991   18.2311 C   0  0  0  0  0  0
  -28.0311  -12.3240   18.6498 C   0  0  0  0  0  0
  -27.6431  -13.2177   19.8542 C   0  0  2  0  0  0
  -28.6905  -13.1267   20.9835 C   0  0  0  0  0  0
  -25.2538  -13.8167   20.5690 C   0  0  0  0  0  0
  -24.1831  -13.0441   20.9220 C   0  0  0  0  0  0
  -24.6397  -11.6923   20.8813 C   0  0  0  0  0  0
  -23.9075  -10.4291   21.0459 C   0  0  0  0  0  0
  -24.3619   -9.4196   21.9208 C   0  0  0  0  0  0
  -23.6287   -8.2241   22.0761 C   0  0  0  0  0  0
  -22.4269   -8.0294   21.3551 C   0  0  0  0  0  0
  -21.9929   -9.0280   20.4649 C   0  0  0  0  0  0
  -22.7269  -10.2147   20.3077 C   0  0  0  0  0  0
  -21.6854   -6.0748   22.5278 C   0  0  0  0  0  0
  -21.4006   -6.5646   23.8216 C   0  0  0  0  0  0
  -21.3651   -5.6798   24.9179 C   0  0  0  0  0  0
  -21.6032   -4.3058   24.7231 C   0  0  0  0  0  0
  -21.8821   -3.8168   23.4348 C   0  0  0  0  0  0
  -21.9181   -4.6984   22.3399 C   0  0  0  0  0  0
  -22.7844  -13.5226   21.1871 C   0  0  0  0  0  0
  -22.1661   -4.2160   21.0971 F   0  0  0  0  0  0
  -21.5621   -3.4540   25.7750 F   0  0  0  0  0  0
  -29.9843  -13.5069   20.4055 N   0  0  0  0  0  0
  -26.2950  -12.9340   20.3320 N   0  0  0  0  0  0
  -25.9306  -11.6520   20.5802 N   0  0  0  0  0  0
  -22.0480  -12.8229   22.0415 N   0  0  0  0  0  0
  -25.4258  -15.1914   20.4074 N   0  0  0  0  0  0
  -31.7590  -14.8955   20.1867 O   0  0  0  0  0  0
  -21.6641   -6.8906   21.4241 O   0  0  0  0  0  0
  -22.3537  -14.5552   20.6725 O   0  0  0  0  0  0
  -24.6290  -31.8538   23.1913 C   0  0  0  0  0  0
  -25.9119  -32.4740   23.8283 C   0  0  1  0  0  0
  -27.2453  -27.2277   20.1707 C   0  0  0  0  0  0
  -25.5951  -33.8545   24.2228 N   0  0  0  0  0  0
  -23.4371  -30.4628   21.5364 C   0  0  2  0  0  0
  -24.8920  -28.8972   20.1142 C   0  0  0  0  0  0
  -22.7546  -29.4522   22.4905 C   0  0  0  0  0  0
  -18.0263  -28.1390   22.8412 C   0  0  0  0  0  0
  -24.1494  -36.7287   23.2667 C   0  0  0  0  0  0
  -25.9832  -30.7513   21.3820 C   0  0  0  0  0  0
  -26.0579  -29.3680   20.7294 C   0  0  0  0  0  0
  -27.2285  -28.5428   20.7457 C   0  0  0  0  0  0
  -26.0556  -26.8238   19.5171 C   0  0  0  0  0  0
  -24.8986  -27.6348   19.4944 C   0  0  0  0  0  0
  -23.6635  -29.7857   20.1581 C   0  0  0  0  0  0
  -25.4125  -36.3072   24.0324 C   0  0  1  0  0  0
  -20.5891  -28.3713   23.1242 C   0  0  2  0  0  0
  -20.6789  -26.9442   22.5420 C   0  0  0  0  0  0
  -19.5778  -26.6377   21.5223 C   0  0  0  0  0  0
  -18.1903  -26.7912   22.1560 C   0  0  0  0  0  0
  -19.1529  -28.8861   23.2793 C   0  0  0  0  0  0
  -18.9449  -30.1431   23.8855 C   0  0  0  0  0  0
  -17.6464  -30.6590   24.0550 C   0  0  0  0  0  0
  -25.9090  -34.9444   23.5112 C   0  0  0  0  0  0
  -16.5339  -29.9117   23.6301 C   0  0  0  0  0  0
  -16.7251  -28.6522   23.0345 C   0  0  0  0  0  0
  -26.4503  -31.6561   25.0701 C   0  0  0  0  0  0
  -25.3735  -31.3675   26.1469 C   0  0  0  0  0  0
  -27.0441  -30.2976   24.6229 C   0  0  0  0  0  0
  -27.6074  -32.4349   25.7458 C   0  0  0  0  0  0
  -27.5583  -37.1766   24.8462 C   0  0  0  0  0  0
  -21.4249  -29.3041   22.3639 N   0  0  0  0  0  0
  -26.4311  -37.3758   23.9402 N   0  0  0  0  0  0
  -24.7008  -31.0429   22.0920 N   0  0  0  0  0  0
  -23.4148  -28.8087   23.3074 O   0  0  0  0  0  0
  -28.3731  -26.3788   20.2997 O   0  0  0  0  0  0
  -26.5646  -34.8920   22.4687 O   0  0  0  0  0  0
  -23.5423  -32.1410   23.7146 O   0  0  0  0  0  0
  -27.2442  -21.4194   20.7267 C   0  0  0  0  0  0
  -27.4792  -20.0769   20.5477 C   0  0  0  0  0  0
  -29.4315  -21.1313   20.6006 C   0  0  0  0  0  0
  -28.4696  -22.1525   20.7764 C   0  0  0  0  0  0
  -29.1798  -23.7508   23.5191 C   0  0  0  0  0  0
  -29.4059  -18.4552   20.0158 C   0  0  0  0  0  0
  -29.9618  -17.3234   21.0366 C   0  0  0  0  0  0
  -28.4345  -24.9012   19.9659 C   0  0  0  0  0  0
  -28.5085  -23.7385   21.1051 C   0  0  2  0  0  0
  -28.8413  -19.8343   20.4347 N   0  0  0  0  0  0
  -29.7357  -15.8275   20.7498 N   0  0  0  0  0  0
  -29.5619  -24.0292   22.1145 N   0  3  0  0  0  0
  -31.4743  -12.6202   19.1506 H   0  0  0  0  0  0
  -30.4179  -11.4888   19.9375 H   0  0  0  0  0  0
  -29.7842  -11.7141   17.5241 H   0  0  0  0  0  0
  -29.6238  -13.4429   17.6983 H   0  0  0  0  0  0
  -27.8895  -11.2758   18.9149 H   0  0  0  0  0  0
  -27.3697  -12.5168   17.8061 H   0  0  0  0  0  0
  -27.6443  -14.2410   19.4819 H   0  0  0  0  0  0
  -28.7397  -12.1162   21.3891 H   0  0  0  0  0  0
  -28.4262  -13.7719   21.8242 H   0  0  0  0  0  0
  -25.2741   -9.5670   22.4807 H   0  0  0  0  0  0
  -23.9991   -7.4625   22.7492 H   0  0  0  0  0  0
  -21.0851   -8.8809   19.8957 H   0  0  0  0  0  0
  -22.3719  -10.9707   19.6213 H   0  0  0  0  0  0
  -21.2010   -7.6163   23.9727 H   0  0  0  0  0  0
  -21.1460   -6.0528   25.9081 H   0  0  0  0  0  0
  -22.0609   -2.7625   23.2846 H   0  0  0  0  0  0
  -22.4078  -11.9855   22.4757 H   0  0  0  0  0  0
  -21.1105  -13.1281   22.2667 H   0  0  0  0  0  0
  -24.6563  -15.8432   20.5104 H   0  0  0  0  0  0
  -26.2568  -15.6190   20.0206 H   0  0  0  0  0  0
  -26.7214  -32.5374   23.1038 H   0  0  0  0  0  0
  -25.0029  -33.9645   25.0344 H   0  0  0  0  0  0
  -22.7325  -31.2836   21.3735 H   0  0  0  0  0  0
  -23.3737  -35.9622   23.3311 H   0  0  0  0  0  0
  -24.3575  -36.8952   22.2083 H   0  0  0  0  0  0
  -23.7271  -37.6495   23.6705 H   0  0  0  0  0  0
  -26.1235  -31.4928   20.5959 H   0  0  0  0  0  0
  -26.8609  -30.8162   22.0126 H   0  0  0  0  0  0
  -28.1189  -28.8795   21.2640 H   0  0  0  0  0  0
  -25.9687  -25.8515   19.0635 H   0  0  0  0  0  0
  -24.0000  -27.2651   19.0154 H   0  0  0  0  0  0
  -23.7946  -30.5572   19.3995 H   0  0  0  0  0  0
  -22.7859  -29.2172   19.8461 H   0  0  0  0  0  0
  -25.1291  -36.1928   25.0783 H   0  0  0  0  0  0
  -20.9852  -28.3342   24.1418 H   0  0  0  0  0  0
  -20.5749  -26.2330   23.3630 H   0  0  0  0  0  0
  -21.6660  -26.7552   22.1207 H   0  0  0  0  0  0
  -19.7030  -25.6290   21.1255 H   0  0  0  0  0  0
  -19.6765  -27.3179   20.6731 H   0  0  0  0  0  0
  -17.4245  -26.6592   21.3929 H   0  0  0  0  0  0
  -18.0302  -26.0079   22.8978 H   0  0  0  0  0  0
  -19.7967  -30.7208   24.2234 H   0  0  0  0  0  0
  -17.5087  -31.6279   24.5192 H   0  0  0  0  0  0
  -15.5342  -30.3060   23.7756 H   0  0  0  0  0  0
  -15.8603  -28.0918   22.7125 H   0  0  0  0  0  0
  -24.5963  -30.6953   25.7777 H   0  0  0  0  0  0
  -24.8832  -32.2821   26.4829 H   0  0  0  0  0  0
  -25.8065  -30.8927   27.0294 H   0  0  0  0  0  0
  -26.3074  -29.6570   24.1341 H   0  0  0  0  0  0
  -27.4288  -29.7392   25.4772 H   0  0  0  0  0  0
  -27.8842  -30.4276   23.9385 H   0  0  0  0  0  0
  -27.2754  -33.3745   26.1894 H   0  0  0  0  0  0
  -28.3913  -32.6750   25.0251 H   0  0  0  0  0  0
  -28.0706  -31.8554   26.5473 H   0  0  0  0  0  0
  -28.2574  -38.0078   24.7556 H   0  0  0  0  0  0
  -28.1089  -36.2618   24.6239 H   0  0  0  0  0  0
  -27.2292  -37.1417   25.8859 H   0  0  0  0  0  0
  -20.9502  -29.8748   21.6797 H   0  0  0  0  0  0
  -26.0175  -38.2813   24.1406 H   0  0  0  0  0  0
  -26.2565  -21.8483   20.8247 H   0  0  0  0  0  0
  -26.7665  -19.2667   20.4532 H   0  0  0  0  0  0
  -30.5132  -21.1943   20.5634 H   0  0  0  0  0  0
  -30.0335  -23.9060   24.1878 H   0  0  0  0  0  0
  -28.8390  -22.7225   23.6558 H   0  0  0  0  0  0
  -28.3762  -24.4218   23.8353 H   0  0  0  0  0  0
  -28.5954  -17.9798   19.4547 H   0  0  0  0  0  0
  -30.1746  -18.6384   19.2634 H   0  0  0  0  0  0
  -29.5082  -17.5113   22.0107 H   0  0  0  0  0  0
  -31.0301  -17.4840   21.1761 H   0  0  0  0  0  0
  -27.6383  -24.6267   19.2810 H   0  0  0  0  0  0
  -29.3460  -24.8037   19.3741 H   0  0  0  0  0  0
  -27.5627  -23.8955   21.6275 H   0  0  0  0  0  0
  -28.7783  -15.5425   20.8842 H   0  0  0  0  0  0
  -30.4034  -23.5212   21.8926 H   0  0  0  0  0  0
  -29.7844  -25.0110   22.0595 H   0  0  0  0  0  0
  1 25  1  0  0  0
  1 30  2  0  0  0
  1 81  1  0  0  0
  2  3  1  0  0  0
  2 25  1  0  0  0
  2 83  1  0  0  0
  2 84  1  0  0  0
  3  4  1  0  0  0
  3 85  1  0  0  0
  3 86  1  0  0  0
  4  5  1  0  0  0
  4 87  1  0  0  0
  4 88  1  0  0  0
  5  6  1  0  0  0
  5 26  1  0  0  0
  5 89  1  0  0  0
  6 25  1  0  0  0
  6 90  1  0  0  0
  6 91  1  0  0  0
  7  8  2  0  0  0
  7 26  1  0  0  0
  7 29  1  0  0  0
  8  9  1  0  0  0
  8 22  1  0  0  0
  9 10  1  0  0  0
  9 27  2  0  0  0
 10 11  2  0  0  0
 10 15  1  0  0  0
 11 12  1  0  0  0
 11 92  1  0  0  0
 12 13  2  0  0  0
 12 93  1  0  0  0
 13 14  1  0  0  0
 13 31  1  0  0  0
 14 15  2  0  0  0
 14 94  1  0  0  0
 15 95  1  0  0  0
 16 17  2  0  0  0
 16 21  1  0  0  0
 16 31  1  0  0  0
 17 18  1  0  0  0
 17 96  1  0  0  0
 18 19  2  0  0  0
 18 97  1  0  0  0
 19 20  1  0  0  0
 19 24  1  0  0  0
 20 21  2  0  0  0
 20 98  1  0  0  0
 21 23  1  0  0  0
 22 28  1  0  0  0
 22 32  2  0  0  0
 26 27  1  0  0  0
 28 99  1  0  0  0
 28100  1  0  0  0
 29101  1  0  0  0
 29102  1  0  0  0
 33 34  1  0  0  0
 33 66  1  0  0  0
 33 70  2  0  0  0
 34 36  1  0  0  0
 34 59  1  0  0  0
 34103  1  0  0  0
 35 44  2  0  0  0
 35 45  1  0  0  0
 35 68  1  0  0  0
 36 56  1  0  0  0
 36104  1  0  0  0
 37 39  1  0  0  0
 37 47  1  0  0  0
 37 66  1  0  0  0
 37105  1  0  0  0
 38 43  2  0  0  0
 38 46  1  0  0  0
 38 47  1  0  0  0
 39 64  1  0  0  0
 39 67  2  0  0  0
 40 52  1  0  0  0
 40 53  2  0  0  0
 40 58  1  0  0  0
 41106  1  0  0  0
 41107  1  0  0  0
 41108  1  0  0  0
 41 48  1  0  0  0
 42 43  1  0  0  0
 42 66  1  0  0  0
 42109  1  0  0  0
 42110  1  0  0  0
 43 44  1  0  0  0
 44111  1  0  0  0
 45 46  2  0  0  0
 45112  1  0  0  0
 46113  1  0  0  0
 47114  1  0  0  0
 47115  1  0  0  0
 48 56  1  0  0  0
 48 65  1  0  0  0
 48116  1  0  0  0
 49 50  1  0  0  0
 49 53  1  0  0  0
 49 64  1  0  0  0
 49117  1  0  0  0
 50 51  1  0  0  0
 50118  1  0  0  0
 50119  1  0  0  0
 51 52  1  0  0  0
 51120  1  0  0  0
 51121  1  0  0  0
 52122  1  0  0  0
 52123  1  0  0  0
 53 54  1  0  0  0
 54 55  2  0  0  0
 54124  1  0  0  0
 55 57  1  0  0  0
 55125  1  0  0  0
 56 69  2  0  0  0
 57 58  2  0  0  0
 57126  1  0  0  0
 58127  1  0  0  0
 59 60  1  0  0  0
 59 61  1  0  0  0
 59 62  1  0  0  0
 60128  1  0  0  0
 60129  1  0  0  0
 60130  1  0  0  0
 61131  1  0  0  0
 61132  1  0  0  0
 61133  1  0  0  0
 62134  1  0  0  0
 62135  1  0  0  0
 62136  1  0  0  0
 63 65  1  0  0  0
 63137  1  0  0  0
 63138  1  0  0  0
 63139  1  0  0  0
 64140  1  0  0  0
 65141  1  0  0  0
 68 78  1  0  0  0
 71 72  2  0  0  0
 71 74  1  0  0  0
 71142  1  0  0  0
 72 80  1  0  0  0
 72143  1  0  0  0
 73 74  2  0  0  0
 73 80  1  0  0  0
 73144  1  0  0  0
 74 79  1  0  0  0
 75 82  1  0  0  0
 75145  1  0  0  0
 75146  1  0  0  0
 75147  1  0  0  0
 76 77  1  0  0  0
 76 80  1  0  0  0
 76148  1  0  0  0
 76149  1  0  0  0
 77 81  1  0  0  0
 77150  1  0  0  0
 77151  1  0  0  0
 78152  1  0  0  0
 78153  1  0  0  0
 78 79  1  0  0  0
 79 82  1  0  0  0
 79154  1  0  0  0
 81155  1  0  0  0
 82156  1  0  0  0
 82157  1  0  0  0
M  CHG  1  82   1
M  ISO  4   1 100  68 101  78 101  81 100
M  END
> <chiral flag>
0

> <version>
0

> <s_m_source_file>
/data/baiqing/PycharmProjects/Reinvent-master-3.2/result/LINK_invent/BTK/process_docking_weight1_custom_sum_contain_oxygen_bond_distance_aromatic_linkinvent_7_9_3/rearranged_h_0115.sdf

> <i_m_source_file_index>
86

> <r_mmod_Potential_Energy-OPLS-2005>
40.1299438476562

> <r_mmod_Stretch_Energy-OPLS-2005>
141.021209716797

> <r_mmod_Bend_Energy-OPLS-2005>
214.095855712891

> <r_mmod_Torsional_Energy-OPLS-2005>
231.109100341797

> <r_mmod_Improper_Torsional_Energy-OPLS-2005>
5.93005895614624

> <r_mmod_Van_der_Waal_Energy-OPLS-2005>
109.908256530762

> <r_mmod_Electrostatic_Energy-OPLS-2005>
-313.714752197266

> <r_mmod_Solvation_Energy-OPLS-2005>
-445.381896972656

> <b_mmod_Minimization_Converged-OPLS-2005>
0

> <r_mmod_RMS_Derivative-OPLS-2005>
7.06467771530151

$$$$
86
                    3D
 Structure written by MMmdl.
148156  0  0  1  0            999 V2000
  -30.3951  -15.3783   20.3749 C   0  0  0  0  0  0
  -30.4409  -12.8977   19.5217 C   0  0  0  0  0  0
  -29.5437  -12.5917   18.2951 C   0  0  0  0  0  0
  -28.0961  -12.2984   18.7275 C   0  0  0  0  0  0
  -27.6060  -13.2839   19.8151 C   0  0  2  0  0  0
  -28.6369  -13.5056   20.9413 C   0  0  0  0  0  0
  -25.2361  -13.8260   20.5769 C   0  0  0  0  0  0
  -24.1730  -13.0438   20.9283 C   0  0  0  0  0  0
  -24.6396  -11.6941   20.8761 C   0  0  0  0  0  0
  -23.9093  -10.4297   21.0406 C   0  0  0  0  0  0
  -24.3636   -9.4215   21.9190 C   0  0  0  0  0  0
  -23.6311   -8.2245   22.0747 C   0  0  0  0  0  0
  -22.4288   -8.0286   21.3541 C   0  0  0  0  0  0
  -21.9928   -9.0265   20.4644 C   0  0  0  0  0  0
  -22.7260  -10.2144   20.3056 C   0  0  0  0  0  0
  -21.6856   -6.0747   22.5282 C   0  0  0  0  0  0
  -21.4023   -6.5647   23.8218 C   0  0  0  0  0  0
  -21.3660   -5.6789   24.9177 C   0  0  0  0  0  0
  -21.6034   -4.3049   24.7222 C   0  0  0  0  0  0
  -21.8817   -3.8153   23.4340 C   0  0  0  0  0  0
  -21.9195   -4.6976   22.3403 C   0  0  0  0  0  0
  -22.7739  -13.5189   21.1935 C   0  0  0  0  0  0
  -22.1660   -4.2162   21.0979 F   0  0  0  0  0  0
  -21.5633   -3.4532   25.7737 F   0  0  0  0  0  0
  -29.8451  -14.0549   20.2969 N   0  0  0  0  0  0
  -26.2797  -12.9551   20.3204 N   0  0  0  0  0  0
  -25.9338  -11.6648   20.5712 N   0  0  0  0  0  0
  -22.0374  -12.8171   22.0478 N   0  0  0  0  0  0
  -25.3987  -15.2001   20.4237 N   0  0  0  0  0  0
  -31.6297  -15.3569   20.2418 O   0  0  0  0  0  0
  -21.6637   -6.8893   21.4241 O   0  0  0  0  0  0
  -22.3430  -14.5497   20.6785 O   0  0  0  0  0  0
  -24.6701  -31.8180   23.1663 C   0  0  0  0  0  0
  -25.9350  -32.4562   23.8157 C   0  0  1  0  0  0
  -27.2216  -26.8568   20.2166 C   0  0  0  0  0  0
  -25.5988  -33.8384   24.2043 N   0  0  0  0  0  0
  -23.4878  -30.4264   21.5183 C   0  0  2  0  0  0
  -24.9428  -28.7941   20.1262 C   0  0  0  0  0  0
  -22.7704  -29.4419   22.4800 C   0  0  0  0  0  0
  -18.0332  -28.1415   22.8476 C   0  0  0  0  0  0
  -24.1484  -36.7172   23.2649 C   0  0  0  0  0  0
  -26.0622  -30.6030   21.4074 C   0  0  0  0  0  0
  -26.1310  -29.1830   20.7580 C   0  0  0  0  0  0
  -27.2658  -28.2415   20.7673 C   0  0  0  0  0  0
  -25.9992  -26.6331   19.5425 C   0  0  0  0  0  0
  -24.9062  -27.5403   19.4964 C   0  0  0  0  0  0
  -23.7319  -29.7304   20.1510 C   0  0  0  0  0  0
  -25.4131  -36.2951   24.0296 C   0  0  1  0  0  0
  -20.5959  -28.3757   23.1192 C   0  0  2  0  0  0
  -20.6797  -26.9432   22.5416 C   0  0  0  0  0  0
  -19.5764  -26.6386   21.5227 C   0  0  0  0  0  0
  -18.1950  -26.7950   22.1638 C   0  0  0  0  0  0
  -19.1594  -28.8910   23.2810 C   0  0  0  0  0  0
  -18.9498  -30.1504   23.8837 C   0  0  0  0  0  0
  -17.6489  -30.6602   24.0558 C   0  0  0  0  0  0
  -25.9108  -34.9334   23.4998 C   0  0  0  0  0  0
  -16.5380  -29.9082   23.6363 C   0  0  0  0  0  0
  -16.7313  -28.6508   23.0374 C   0  0  0  0  0  0
  -26.4559  -31.6547   25.0725 C   0  0  0  0  0  0
  -25.3658  -31.3846   26.1375 C   0  0  0  0  0  0
  -27.0461  -30.2899   24.6531 C   0  0  0  0  0  0
  -27.6040  -32.4376   25.7524 C   0  0  0  0  0  0
  -27.5564  -37.1733   24.8457 C   0  0  0  0  0  0
  -21.4374  -29.3028   22.3525 N   0  0  0  0  0  0
  -26.4261  -37.3703   23.9414 N   0  0  0  0  0  0
  -24.7620  -30.9783   22.0831 N   0  0  0  0  0  0
  -23.4222  -28.8000   23.3073 O   0  0  0  0  0  0
  -28.2255  -25.7280   20.1944 O   0  0  0  0  0  0
  -26.5732  -34.8883   22.4605 O   0  0  0  0  0  0
  -23.5763  -32.1178   23.6717 O   0  0  0  0  0  0
  -29.1993  -20.0481   18.6690 C   0  0  0  0  0  0
  -28.7212  -22.4002   18.6528 C   0  0  0  0  0  0
  -29.2293  -19.9102   20.0754 C   0  0  0  0  0  0
  -28.6593  -22.5505   20.0557 C   0  0  0  0  0  0
  -28.4402  -24.2154   22.1414 C   0  0  0  0  0  0
  -29.8143  -18.3438   20.7102 C   0  0  0  0  0  0
  -28.0514  -24.1191   20.6606 C   0  0  1  0  0  0
  -28.9656  -21.2205   18.0009 N   0  0  0  0  0  0
  -28.9251  -21.2292   20.7271 N   0  0  0  0  0  0
  -29.6230  -16.6726   20.4103 N   0  0  0  0  0  0
  -31.4471  -13.1357   19.1739 H   0  0  0  0  0  0
  -30.5541  -12.0158   20.1557 H   0  0  0  0  0  0
  -29.9475  -11.7505   17.7296 H   0  0  0  0  0  0
  -29.5551  -13.4496   17.6208 H   0  0  0  0  0  0
  -28.0683  -11.2825   19.1223 H   0  0  0  0  0  0
  -27.4276  -12.3108   17.8661 H   0  0  0  0  0  0
  -27.5066  -14.2379   19.2959 H   0  0  0  0  0  0
  -28.8348  -12.5846   21.4934 H   0  0  0  0  0  0
  -28.2563  -14.2256   21.6663 H   0  0  0  0  0  0
  -25.2775   -9.5709   22.4771 H   0  0  0  0  0  0
  -24.0021   -7.4637   22.7464 H   0  0  0  0  0  0
  -21.0863   -8.8799   19.8948 H   0  0  0  0  0  0
  -22.3724  -10.9689   19.6169 H   0  0  0  0  0  0
  -21.2015   -7.6156   23.9736 H   0  0  0  0  0  0
  -21.1483   -6.0514   25.9083 H   0  0  0  0  0  0
  -22.0594   -2.7616   23.2832 H   0  0  0  0  0  0
  -22.3980  -11.9848   22.4901 H   0  0  0  0  0  0
  -21.0987  -13.1210   22.2657 H   0  0  0  0  0  0
  -24.6312  -15.8506   20.5514 H   0  0  0  0  0  0
  -26.2400  -15.6433   20.0805 H   0  0  0  0  0  0
  -26.7423  -32.5081   23.0870 H   0  0  0  0  0  0
  -25.0037  -33.9427   25.0133 H   0  0  0  0  0  0
  -22.8058  -31.2606   21.3409 H   0  0  0  0  0  0
  -23.3782  -35.9466   23.3271 H   0  0  0  0  0  0
  -24.3552  -36.8868   22.2074 H   0  0  0  0  0  0
  -23.7200  -37.6326   23.6736 H   0  0  0  0  0  0
  -26.2549  -31.3409   20.6279 H   0  0  0  0  0  0
  -26.9176  -30.6612   22.0694 H   0  0  0  0  0  0
  -28.1718  -28.5521   21.2681 H   0  0  0  0  0  0
  -25.8644  -25.6782   19.0544 H   0  0  0  0  0  0
  -24.0037  -27.2346   18.9843 H   0  0  0  0  0  0
  -23.8924  -30.4915   19.3871 H   0  0  0  0  0  0
  -22.8408  -29.1845   19.8357 H   0  0  0  0  0  0
  -25.1333  -36.1728   25.0786 H   0  0  0  0  0  0
  -21.0045  -28.3366   24.1318 H   0  0  0  0  0  0
  -20.5683  -26.2372   23.3660 H   0  0  0  0  0  0
  -21.6659  -26.7398   22.1213 H   0  0  0  0  0  0
  -19.6907  -25.6287   21.1277 H   0  0  0  0  0  0
  -19.6690  -27.3186   20.6745 H   0  0  0  0  0  0
  -17.4217  -26.6712   21.4038 H   0  0  0  0  0  0
  -18.0322  -26.0101   22.9044 H   0  0  0  0  0  0
  -19.7964  -30.7347   24.2170 H   0  0  0  0  0  0
  -17.5031  -31.6274   24.5173 H   0  0  0  0  0  0
  -15.5374  -30.2954   23.7721 H   0  0  0  0  0  0
  -15.8721  -28.0806   22.7122 H   0  0  0  0  0  0
  -24.5767  -30.7295   25.7661 H   0  0  0  0  0  0
  -24.8941  -32.3083   26.4744 H   0  0  0  0  0  0
  -25.7852  -30.9003   27.0200 H   0  0  0  0  0  0
  -26.3153  -29.6562   24.1499 H   0  0  0  0  0  0
  -27.3899  -29.7299   25.5233 H   0  0  0  0  0  0
  -27.9134  -30.4049   24.0030 H   0  0  0  0  0  0
  -27.2582  -33.3701   26.1994 H   0  0  0  0  0  0
  -28.3899  -32.6909   25.0399 H   0  0  0  0  0  0
  -28.0648  -31.8584   26.5531 H   0  0  0  0  0  0
  -28.2560  -38.0053   24.7556 H   0  0  0  0  0  0
  -28.1085  -36.2591   24.6229 H   0  0  0  0  0  0
  -27.2283  -37.1309   25.8857 H   0  0  0  0  0  0
  -20.9665  -29.8672   21.6594 H   0  0  0  0  0  0
  -26.0106  -38.2750   24.1468 H   0  0  0  0  0  0
  -29.4210  -19.1922   18.0476 H   0  0  0  0  0  0
  -28.5173  -23.2528   18.0225 H   0  0  0  0  0  0
  -28.1313  -23.3243   22.6874 H   0  0  0  0  0  0
  -27.9689  -25.0725   22.6227 H   0  0  0  0  0  0
  -29.5184  -24.3211   22.2549 H   0  0  0  0  0  0
  -29.6205  -18.4263   21.7794 H   0  0  0  0  0  0
  -30.8964  -18.4646   20.6409 H   0  0  0  0  0  0
  -26.9711  -23.9739   20.6353 H   0  0  0  0  0  0
  -28.6376  -16.4589   20.3684 H   0  0  0  0  0  0
  1 25  1  0  0  0
  1 30  2  0  0  0
  1 80  1  0  0  0
  2  3  1  0  0  0
  2 25  1  0  0  0
  2 81  1  0  0  0
  2 82  1  0  0  0
  3  4  1  0  0  0
  3 83  1  0  0  0
  3 84  1  0  0  0
  4  5  1  0  0  0
  4 85  1  0  0  0
  4 86  1  0  0  0
  5  6  1  0  0  0
  5 26  1  0  0  0
  5 87  1  0  0  0
  6 25  1  0  0  0
  6 88  1  0  0  0
  6 89  1  0  0  0
  7  8  2  0  0  0
  7 26  1  0  0  0
  7 29  1  0  0  0
  8  9  1  0  0  0
  8 22  1  0  0  0
  9 10  1  0  0  0
  9 27  2  0  0  0
 10 11  2  0  0  0
 10 15  1  0  0  0
 11 12  1  0  0  0
 11 90  1  0  0  0
 12 13  2  0  0  0
 12 91  1  0  0  0
 13 14  1  0  0  0
 13 31  1  0  0  0
 14 15  2  0  0  0
 14 92  1  0  0  0
 15 93  1  0  0  0
 16 17  2  0  0  0
 16 21  1  0  0  0
 16 31  1  0  0  0
 17 18  1  0  0  0
 17 94  1  0  0  0
 18 19  2  0  0  0
 18 95  1  0  0  0
 19 20  1  0  0  0
 19 24  1  0  0  0
 20 21  2  0  0  0
 20 96  1  0  0  0
 21 23  1  0  0  0
 22 28  1  0  0  0
 22 32  2  0  0  0
 26 27  1  0  0  0
 28 97  1  0  0  0
 28 98  1  0  0  0
 29 99  1  0  0  0
 29100  1  0  0  0
 33 34  1  0  0  0
 33 66  1  0  0  0
 33 70  2  0  0  0
 34 36  1  0  0  0
 34 59  1  0  0  0
 34101  1  0  0  0
 35 44  2  0  0  0
 35 45  1  0  0  0
 35 68  1  0  0  0
 36 56  1  0  0  0
 36102  1  0  0  0
 37 39  1  0  0  0
 37 47  1  0  0  0
 37 66  1  0  0  0
 37103  1  0  0  0
 38 43  2  0  0  0
 38 46  1  0  0  0
 38 47  1  0  0  0
 39 64  1  0  0  0
 39 67  2  0  0  0
 40 52  1  0  0  0
 40 53  2  0  0  0
 40 58  1  0  0  0
 41104  1  0  0  0
 41105  1  0  0  0
 41106  1  0  0  0
 41 48  1  0  0  0
 42 43  1  0  0  0
 42 66  1  0  0  0
 42107  1  0  0  0
 42108  1  0  0  0
 43 44  1  0  0  0
 44109  1  0  0  0
 45 46  2  0  0  0
 45110  1  0  0  0
 46111  1  0  0  0
 47112  1  0  0  0
 47113  1  0  0  0
 48 56  1  0  0  0
 48 65  1  0  0  0
 48114  1  0  0  0
 49 50  1  0  0  0
 49 53  1  0  0  0
 49 64  1  0  0  0
 49115  1  0  0  0
 50 51  1  0  0  0
 50116  1  0  0  0
 50117  1  0  0  0
 51 52  1  0  0  0
 51118  1  0  0  0
 51119  1  0  0  0
 52120  1  0  0  0
 52121  1  0  0  0
 53 54  1  0  0  0
 54 55  2  0  0  0
 54122  1  0  0  0
 55 57  1  0  0  0
 55123  1  0  0  0
 56 69  2  0  0  0
 57 58  2  0  0  0
 57124  1  0  0  0
 58125  1  0  0  0
 59 60  1  0  0  0
 59 61  1  0  0  0
 59 62  1  0  0  0
 60126  1  0  0  0
 60127  1  0  0  0
 60128  1  0  0  0
 61129  1  0  0  0
 61130  1  0  0  0
 61131  1  0  0  0
 62132  1  0  0  0
 62133  1  0  0  0
 62134  1  0  0  0
 63 65  1  0  0  0
 63135  1  0  0  0
 63136  1  0  0  0
 63137  1  0  0  0
 64138  1  0  0  0
 65139  1  0  0  0
 68 77  1  0  0  0
 71 73  2  0  0  0
 71 78  1  0  0  0
 71140  1  0  0  0
 72 74  1  0  0  0
 72 78  2  0  0  0
 72141  1  0  0  0
 73 76  1  0  0  0
 73 79  1  0  0  0
 74 77  1  0  0  0
 74 79  2  0  0  0
 75142  1  0  0  0
 75143  1  0  0  0
 75144  1  0  0  0
 75 77  1  0  0  0
 76 80  1  0  0  0
 76145  1  0  0  0
 76146  1  0  0  0
 77147  1  0  0  0
 80148  1  0  0  0
M  ISO  4   1 100  68 101  77 101  80 100
M  END
> <chiral flag>
0

> <version>
0

> <s_m_source_file>
/data/baiqing/PycharmProjects/Reinvent-master-3.2/result/LINK_invent/BTK/process_docking_weight1_custom_sum_contain_oxygen_bond_distance_aromatic_linkinvent_7_9_3/rearranged_h_0115.sdf

> <i_m_source_file_index>
87

> <r_mmod_Potential_Energy-OPLS-2005>
1591.38146972656

> <r_mmod_Stretch_Energy-OPLS-2005>
709.774475097656

> <r_mmod_Bend_Energy-OPLS-2005>
492.597595214844

> <r_mmod_Torsional_Energy-OPLS-2005>
236.888305664062

> <r_mmod_Improper_Torsional_Energy-OPLS-2005>
6.3683648109436

> <r_mmod_Van_der_Waal_Energy-OPLS-2005>
119.237800598145

> <r_mmod_Electrostatic_Energy-OPLS-2005>
-313.770599365234

> <r_mmod_Solvation_Energy-OPLS-2005>
-234.907897949219

> <b_mmod_Minimization_Converged-OPLS-2005>
0

> <r_mmod_RMS_Derivative-OPLS-2005>
2.2844660282135

$$$$
87
                    3D
 Structure written by MMmdl.
166174  0  0  1  0            999 V2000
  -30.6260  -14.7210   20.4831 C   0  0  0  0  0  0
  -30.4329  -12.4503   19.4613 C   0  0  0  0  0  0
  -29.5078  -12.5089   18.2276 C   0  0  0  0  0  0
  -28.0338  -12.3329   18.6425 C   0  0  0  0  0  0
  -27.6419  -13.2281   19.8488 C   0  0  2  0  0  0
  -28.6888  -13.1541   20.9807 C   0  0  0  0  0  0
  -25.2513  -13.8186   20.5677 C   0  0  0  0  0  0
  -24.1803  -13.0435   20.9198 C   0  0  0  0  0  0
  -24.6387  -11.6913   20.8729 C   0  0  0  0  0  0
  -23.9051  -10.4299   21.0388 C   0  0  0  0  0  0
  -24.3606   -9.4216   21.9171 C   0  0  0  0  0  0
  -23.6294   -8.2241   22.0746 C   0  0  0  0  0  0
  -22.4276   -8.0271   21.3536 C   0  0  0  0  0  0
  -21.9906   -9.0241   20.4636 C   0  0  0  0  0  0
  -22.7218  -10.2132   20.3040 C   0  0  0  0  0  0
  -21.6858   -6.0729   22.5275 C   0  0  0  0  0  0
  -21.4016   -6.5635   23.8208 C   0  0  0  0  0  0
  -21.3660   -5.6789   24.9171 C   0  0  0  0  0  0
  -21.6046   -4.3052   24.7221 C   0  0  0  0  0  0
  -21.8819   -3.8140   23.4343 C   0  0  0  0  0  0
  -21.9194   -4.6955   22.3401 C   0  0  0  0  0  0
  -22.7824  -13.5223   21.1861 C   0  0  0  0  0  0
  -22.1653   -4.2136   21.0980 F   0  0  0  0  0  0
  -21.5635   -3.4542   25.7736 F   0  0  0  0  0  0
  -29.9881  -13.5069   20.3956 N   0  0  0  0  0  0
  -26.2937  -12.9384   20.3268 N   0  0  0  0  0  0
  -25.9320  -11.6528   20.5738 N   0  0  0  0  0  0
  -22.0463  -12.8221   22.0426 N   0  0  0  0  0  0
  -25.4203  -15.1911   20.4065 N   0  0  0  0  0  0
  -31.8196  -14.8121   20.1843 O   0  0  0  0  0  0
  -21.6636   -6.8871   21.4236 O   0  0  0  0  0  0
  -22.3499  -14.5523   20.6698 O   0  0  0  0  0  0
  -24.6302  -31.8560   23.1980 C   0  0  0  0  0  0
  -25.9123  -32.4765   23.8332 C   0  0  1  0  0  0
  -27.2200  -27.2681   20.1413 C   0  0  0  0  0  0
  -25.5919  -33.8566   24.2258 N   0  0  0  0  0  0
  -23.4283  -30.4780   21.5404 C   0  0  2  0  0  0
  -24.8768  -28.9227   20.1124 C   0  0  0  0  0  0
  -22.7502  -29.4612   22.4903 C   0  0  0  0  0  0
  -18.0292  -28.1398   22.8487 C   0  0  0  0  0  0
  -24.1483  -36.7281   23.2644 C   0  0  0  0  0  0
  -25.9729  -30.7718   21.3767 C   0  0  0  0  0  0
  -26.0470  -29.3940   20.7219 C   0  0  0  0  0  0
  -27.2250  -28.5798   20.7222 C   0  0  0  0  0  0
  -26.0315  -26.8633   19.4985 C   0  0  0  0  0  0
  -24.8728  -27.6651   19.4888 C   0  0  0  0  0  0
  -23.6477  -29.8101   20.1571 C   0  0  0  0  0  0
  -25.4111  -36.3078   24.0332 C   0  0  1  0  0  0
  -20.5898  -28.3707   23.1266 C   0  0  2  0  0  0
  -20.6780  -26.9425   22.5411 C   0  0  0  0  0  0
  -19.5757  -26.6387   21.5216 C   0  0  0  0  0  0
  -18.1935  -26.7939   22.1625 C   0  0  0  0  0  0
  -19.1548  -28.8866   23.2873 C   0  0  0  0  0  0
  -18.9471  -30.1464   23.8899 C   0  0  0  0  0  0
  -17.6475  -30.6601   24.0562 C   0  0  0  0  0  0
  -25.9052  -34.9449   23.5098 C   0  0  0  0  0  0
  -16.5362  -29.9104   23.6336 C   0  0  0  0  0  0
  -16.7279  -28.6516   23.0362 C   0  0  0  0  0  0
  -26.4491  -31.6597   25.0723 C   0  0  0  0  0  0
  -25.3709  -31.3753   26.1441 C   0  0  0  0  0  0
  -27.0346  -30.3019   24.6208 C   0  0  0  0  0  0
  -27.6041  -32.4341   25.7491 C   0  0  0  0  0  0
  -27.5575  -37.1799   24.8467 C   0  0  0  0  0  0
  -21.4207  -29.3054   22.3649 N   0  0  0  0  0  0
  -26.4286  -37.3778   23.9414 N   0  0  0  0  0  0
  -24.6962  -31.0528   22.0951 N   0  0  0  0  0  0
  -23.4199  -28.8155   23.3006 O   0  0  0  0  0  0
  -28.3097  -26.3698   20.1641 O   0  0  0  0  0  0
  -26.5628  -34.8927   22.4674 O   0  0  0  0  0  0
  -23.5450  -32.1374   23.7282 O   0  0  0  0  0  0
  -29.4292  -19.7931   21.0931 C   0  0  0  0  0  0
  -29.7621  -18.6104   20.4355 C   0  0  0  0  0  0
  -29.5595  -18.9433   19.0586 C   0  0  0  0  0  0
  -29.1963  -20.2832   18.9411 C   0  0  0  0  0  0
  -29.7486  -17.9583   17.9291 C   0  0  0  0  0  0
  -27.4337  -20.9729   17.2791 C   0  0  0  0  0  0
  -29.8450  -20.8111   16.5110 C   0  0  0  0  0  0
  -28.4092  -25.1164   22.2094 C   0  0  0  0  0  0
  -30.3506  -17.2623   21.0550 C   0  0  0  0  0  0
  -28.8357  -23.6837   20.0810 C   0  0  0  0  0  0
  -28.4744  -22.2052   20.6718 C   0  0  0  0  0  0
  -28.9052  -21.0877   17.6966 C   0  0  0  0  0  0
  -28.0912  -24.9847   20.7114 C   0  0  2  0  0  0
  -29.0607  -20.8477   20.2208 N   0  0  0  0  0  0
  -29.8704  -15.8537   20.7323 N   0  0  0  0  0  0
  -31.4725  -12.5809   19.1552 H   0  0  0  0  0  0
  -30.3806  -11.4721   19.9417 H   0  0  0  0  0  0
  -29.7917  -11.7390   17.5088 H   0  0  0  0  0  0
  -29.6349  -13.4659   17.7174 H   0  0  0  0  0  0
  -27.8902  -11.2834   18.9012 H   0  0  0  0  0  0
  -27.3750  -12.5300   17.7954 H   0  0  0  0  0  0
  -27.6399  -14.2510   19.4734 H   0  0  0  0  0  0
  -28.7261  -12.1543   21.4139 H   0  0  0  0  0  0
  -28.4272  -13.8314   21.7953 H   0  0  0  0  0  0
  -25.2749   -9.5697   22.4744 H   0  0  0  0  0  0
  -24.0004   -7.4632   22.7471 H   0  0  0  0  0  0
  -21.0832   -8.8751   19.8950 H   0  0  0  0  0  0
  -22.3660  -10.9666   19.6149 H   0  0  0  0  0  0
  -21.2004   -7.6144   23.9709 H   0  0  0  0  0  0
  -21.1483   -6.0519   25.9078 H   0  0  0  0  0  0
  -22.0601   -2.7599   23.2846 H   0  0  0  0  0  0
  -22.4073  -11.9894   22.4845 H   0  0  0  0  0  0
  -21.1068  -13.1232   22.2600 H   0  0  0  0  0  0
  -24.6533  -15.8455   20.5185 H   0  0  0  0  0  0
  -26.2650  -15.6319   20.0651 H   0  0  0  0  0  0
  -26.7193  -32.5422   23.1079 H   0  0  0  0  0  0
  -25.0055  -33.9697   25.0392 H   0  0  0  0  0  0
  -22.7248  -31.3005   21.3934 H   0  0  0  0  0  0
  -23.3752  -35.9607   23.3308 H   0  0  0  0  0  0
  -24.3572  -36.8899   22.2057 H   0  0  0  0  0  0
  -23.7225  -37.6479   23.6664 H   0  0  0  0  0  0
  -26.1096  -31.5317   20.6062 H   0  0  0  0  0  0
  -26.8508  -30.8225   22.0096 H   0  0  0  0  0  0
  -28.1227  -28.9351   21.2085 H   0  0  0  0  0  0
  -25.9879  -25.9005   19.0091 H   0  0  0  0  0  0
  -23.9777  -27.2995   19.0042 H   0  0  0  0  0  0
  -23.7768  -30.5859   19.4016 H   0  0  0  0  0  0
  -22.7656  -29.2453   19.8493 H   0  0  0  0  0  0
  -25.1298  -36.1926   25.0824 H   0  0  0  0  0  0
  -20.9992  -28.3289   24.1385 H   0  0  0  0  0  0
  -20.5677  -26.2321   23.3620 H   0  0  0  0  0  0
  -21.6648  -26.7453   22.1204 H   0  0  0  0  0  0
  -19.6916  -25.6292   21.1255 H   0  0  0  0  0  0
  -19.6690  -27.3187   20.6739 H   0  0  0  0  0  0
  -17.4204  -26.6683   21.4027 H   0  0  0  0  0  0
  -18.0334  -26.0086   22.9028 H   0  0  0  0  0  0
  -19.7949  -30.7272   24.2270 H   0  0  0  0  0  0
  -17.5037  -31.6281   24.5167 H   0  0  0  0  0  0
  -15.5365  -30.3017   23.7656 H   0  0  0  0  0  0
  -15.8674  -28.0837   22.7090 H   0  0  0  0  0  0
  -24.5872  -30.7118   25.7766 H   0  0  0  0  0  0
  -24.8911  -32.2928   26.4861 H   0  0  0  0  0  0
  -25.8013  -30.8927   27.0224 H   0  0  0  0  0  0
  -26.2941  -29.6761   24.1213 H   0  0  0  0  0  0
  -27.4018  -29.7289   25.4731 H   0  0  0  0  0  0
  -27.8819  -30.4309   23.9468 H   0  0  0  0  0  0
  -27.2649  -33.3646   26.2058 H   0  0  0  0  0  0
  -28.3853  -32.6894   25.0318 H   0  0  0  0  0  0
  -28.0710  -31.8474   26.5415 H   0  0  0  0  0  0
  -28.2603  -38.0089   24.7519 H   0  0  0  0  0  0
  -28.1065  -36.2622   24.6292 H   0  0  0  0  0  0
  -27.2297  -37.1448   25.8872 H   0  0  0  0  0  0
  -20.9390  -29.8780   21.6857 H   0  0  0  0  0  0
  -26.0166  -38.2853   24.1419 H   0  0  0  0  0  0
  -29.4189  -19.9822   22.1592 H   0  0  0  0  0  0
  -29.7729  -16.9327   18.2923 H   0  0  0  0  0  0
  -30.6878  -18.1473   17.4096 H   0  0  0  0  0  0
  -28.9268  -18.0239   17.2161 H   0  0  0  0  0  0
  -26.7748  -21.3020   18.0822 H   0  0  0  0  0  0
  -27.1718  -19.9427   17.0360 H   0  0  0  0  0  0
  -27.2177  -21.5876   16.4046 H   0  0  0  0  0  0
  -30.8886  -20.8970   16.8155 H   0  0  0  0  0  0
  -29.6798  -21.5391   15.7160 H   0  0  0  0  0  0
  -29.6973  -19.8296   16.0663 H   0  0  0  0  0  0
  -28.1310  -24.2225   22.7664 H   0  0  0  0  0  0
  -27.8619  -25.9470   22.6564 H   0  0  0  0  0  0
  -29.4721  -25.2963   22.3728 H   0  0  0  0  0  0
  -30.2709  -17.3610   22.1374 H   0  0  0  0  0  0
  -31.4224  -17.2994   20.8563 H   0  0  0  0  0  0
  -28.5788  -23.7286   19.0278 H   0  0  0  0  0  0
  -29.9142  -23.8284   20.1361 H   0  0  0  0  0  0
  -27.3927  -22.0960   20.5943 H   0  0  0  0  0  0
  -28.6612  -22.2548   21.7437 H   0  0  0  0  0  0
  -29.1034  -22.1276   17.9120 H   0  0  0  0  0  0
  -27.0278  -24.7541   20.6483 H   0  0  0  0  0  0
  -28.8838  -15.6952   20.8682 H   0  0  0  0  0  0
  1 25  1  0  0  0
  1 30  2  0  0  0
  1 85  1  0  0  0
  2  3  1  0  0  0
  2 25  1  0  0  0
  2 86  1  0  0  0
  2 87  1  0  0  0
  3  4  1  0  0  0
  3 88  1  0  0  0
  3 89  1  0  0  0
  4  5  1  0  0  0
  4 90  1  0  0  0
  4 91  1  0  0  0
  5  6  1  0  0  0
  5 26  1  0  0  0
  5 92  1  0  0  0
  6 25  1  0  0  0
  6 93  1  0  0  0
  6 94  1  0  0  0
  7  8  2  0  0  0
  7 26  1  0  0  0
  7 29  1  0  0  0
  8  9  1  0  0  0
  8 22  1  0  0  0
  9 10  1  0  0  0
  9 27  2  0  0  0
 10 11  2  0  0  0
 10 15  1  0  0  0
 11 12  1  0  0  0
 11 95  1  0  0  0
 12 13  2  0  0  0
 12 96  1  0  0  0
 13 14  1  0  0  0
 13 31  1  0  0  0
 14 15  2  0  0  0
 14 97  1  0  0  0
 15 98  1  0  0  0
 16 17  2  0  0  0
 16 21  1  0  0  0
 16 31  1  0  0  0
 17 18  1  0  0  0
 17 99  1  0  0  0
 18 19  2  0  0  0
 18100  1  0  0  0
 19 20  1  0  0  0
 19 24  1  0  0  0
 20 21  2  0  0  0
 20101  1  0  0  0
 21 23  1  0  0  0
 22 28  1  0  0  0
 22 32  2  0  0  0
 26 27  1  0  0  0
 28102  1  0  0  0
 28103  1  0  0  0
 29104  1  0  0  0
 29105  1  0  0  0
 33 34  1  0  0  0
 33 66  1  0  0  0
 33 70  2  0  0  0
 34 36  1  0  0  0
 34 59  1  0  0  0
 34106  1  0  0  0
 35 44  2  0  0  0
 35 45  1  0  0  0
 35 68  1  0  0  0
 36 56  1  0  0  0
 36107  1  0  0  0
 37 39  1  0  0  0
 37 47  1  0  0  0
 37 66  1  0  0  0
 37108  1  0  0  0
 38 43  2  0  0  0
 38 46  1  0  0  0
 38 47  1  0  0  0
 39 64  1  0  0  0
 39 67  2  0  0  0
 40 52  1  0  0  0
 40 53  2  0  0  0
 40 58  1  0  0  0
 41109  1  0  0  0
 41110  1  0  0  0
 41111  1  0  0  0
 41 48  1  0  0  0
 42 43  1  0  0  0
 42 66  1  0  0  0
 42112  1  0  0  0
 42113  1  0  0  0
 43 44  1  0  0  0
 44114  1  0  0  0
 45 46  2  0  0  0
 45115  1  0  0  0
 46116  1  0  0  0
 47117  1  0  0  0
 47118  1  0  0  0
 48 56  1  0  0  0
 48 65  1  0  0  0
 48119  1  0  0  0
 49 50  1  0  0  0
 49 53  1  0  0  0
 49 64  1  0  0  0
 49120  1  0  0  0
 50 51  1  0  0  0
 50121  1  0  0  0
 50122  1  0  0  0
 51 52  1  0  0  0
 51123  1  0  0  0
 51124  1  0  0  0
 52125  1  0  0  0
 52126  1  0  0  0
 53 54  1  0  0  0
 54 55  2  0  0  0
 54127  1  0  0  0
 55 57  1  0  0  0
 55128  1  0  0  0
 56 69  2  0  0  0
 57 58  2  0  0  0
 57129  1  0  0  0
 58130  1  0  0  0
 59 60  1  0  0  0
 59 61  1  0  0  0
 59 62  1  0  0  0
 60131  1  0  0  0
 60132  1  0  0  0
 60133  1  0  0  0
 61134  1  0  0  0
 61135  1  0  0  0
 61136  1  0  0  0
 62137  1  0  0  0
 62138  1  0  0  0
 62139  1  0  0  0
 63 65  1  0  0  0
 63140  1  0  0  0
 63141  1  0  0  0
 63142  1  0  0  0
 64143  1  0  0  0
 65144  1  0  0  0
 68 83  1  0  0  0
 71 72  2  0  0  0
 71 84  1  0  0  0
 71145  1  0  0  0
 72 73  1  0  0  0
 72 79  1  0  0  0
 73 74  2  0  0  0
 73 75  1  0  0  0
 74 82  1  0  0  0
 74 84  1  0  0  0
 75146  1  0  0  0
 75147  1  0  0  0
 75148  1  0  0  0
 76149  1  0  0  0
 76150  1  0  0  0
 76151  1  0  0  0
 76 82  1  0  0  0
 77 82  1  0  0  0
 77152  1  0  0  0
 77153  1  0  0  0
 77154  1  0  0  0
 78155  1  0  0  0
 78156  1  0  0  0
 78157  1  0  0  0
 78 83  1  0  0  0
 79 85  1  0  0  0
 79158  1  0  0  0
 79159  1  0  0  0
 80 81  1  0  0  0
 80 83  1  0  0  0
 80160  1  0  0  0
 80161  1  0  0  0
 81 84  1  0  0  0
 81162  1  0  0  0
 81163  1  0  0  0
 82164  1  0  0  0
 83165  1  0  0  0
 85166  1  0  0  0
M  ISO  4   1 100  68 101  83 101  85 100
M  END
> <chiral flag>
0

> <version>
0

> <s_m_source_file>
/data/baiqing/PycharmProjects/Reinvent-master-3.2/result/LINK_invent/BTK/process_docking_weight1_custom_sum_contain_oxygen_bond_distance_aromatic_linkinvent_7_9_3/rearranged_h_0115.sdf

> <i_m_source_file_index>
88

> <r_mmod_Potential_Energy-OPLS-2005>
83.7364120483398

> <r_mmod_Stretch_Energy-OPLS-2005>
120.933090209961

> <r_mmod_Bend_Energy-OPLS-2005>
189.592956542969

> <r_mmod_Torsional_Energy-OPLS-2005>
242.603652954102

> <r_mmod_Improper_Torsional_Energy-OPLS-2005>
5.28027391433716

> <r_mmod_Van_der_Waal_Energy-OPLS-2005>
114.638694763184

> <r_mmod_Electrostatic_Energy-OPLS-2005>
-461.789245605469

> <r_mmod_Solvation_Energy-OPLS-2005>
-206.667404174805

> <b_mmod_Minimization_Converged-OPLS-2005>
0

> <r_mmod_RMS_Derivative-OPLS-2005>
1.53453803062439

$$$$
88
                    3D
 Structure written by MMmdl.
170178  0  0  1  0            999 V2000
  -30.6444  -14.6113   20.5152 C   0  0  0  0  0  0
  -30.4312  -12.3839   19.4368 C   0  0  0  0  0  0
  -29.4950  -12.4868   18.2139 C   0  0  0  0  0  0
  -28.0216  -12.3266   18.6381 C   0  0  0  0  0  0
  -27.6495  -13.2085   19.8587 C   0  0  2  0  0  0
  -28.6966  -13.0730   20.9859 C   0  0  0  0  0  0
  -25.2561  -13.8148   20.5693 C   0  0  0  0  0  0
  -24.1828  -13.0439   20.9218 C   0  0  0  0  0  0
  -24.6371  -11.6901   20.8769 C   0  0  0  0  0  0
  -23.9040  -10.4294   21.0425 C   0  0  0  0  0  0
  -24.3597   -9.4221   21.9206 C   0  0  0  0  0  0
  -23.6277   -8.2251   22.0768 C   0  0  0  0  0  0
  -22.4269   -8.0279   21.3540 C   0  0  0  0  0  0
  -21.9907   -9.0259   20.4649 C   0  0  0  0  0  0
  -22.7221  -10.2140   20.3067 C   0  0  0  0  0  0
  -21.6848   -6.0736   22.5276 C   0  0  0  0  0  0
  -21.4012   -6.5643   23.8207 C   0  0  0  0  0  0
  -21.3654   -5.6800   24.9172 C   0  0  0  0  0  0
  -21.6044   -4.3059   24.7228 C   0  0  0  0  0  0
  -21.8821   -3.8152   23.4347 C   0  0  0  0  0  0
  -21.9195   -4.6966   22.3402 C   0  0  0  0  0  0
  -22.7859  -13.5251   21.1862 C   0  0  0  0  0  0
  -22.1667   -4.2153   21.0982 F   0  0  0  0  0  0
  -21.5625   -3.4546   25.7743 F   0  0  0  0  0  0
  -30.0051  -13.4084   20.4082 N   0  0  0  0  0  0
  -26.2965  -12.9307   20.3314 N   0  0  0  0  0  0
  -25.9293  -11.6474   20.5788 N   0  0  0  0  0  0
  -22.0478  -12.8248   22.0389 N   0  0  0  0  0  0
  -25.4307  -15.1862   20.4042 N   0  0  0  0  0  0
  -31.8159  -14.7544   20.1557 O   0  0  0  0  0  0
  -21.6636   -6.8879   21.4235 O   0  0  0  0  0  0
  -22.3575  -14.5576   20.6706 O   0  0  0  0  0  0
  -24.6198  -31.8656   23.2068 C   0  0  0  0  0  0
  -25.9055  -32.4818   23.8390 C   0  0  1  0  0  0
  -27.2232  -27.3653   20.0904 C   0  0  0  0  0  0
  -25.5881  -33.8621   24.2307 N   0  0  0  0  0  0
  -23.4098  -30.4875   21.5527 C   0  0  2  0  0  0
  -24.8522  -28.9462   20.1155 C   0  0  0  0  0  0
  -22.7451  -29.4623   22.5010 C   0  0  0  0  0  0
  -18.0273  -28.1364   22.8499 C   0  0  0  0  0  0
  -24.1472  -36.7303   23.2641 C   0  0  0  0  0  0
  -25.9467  -30.8066   21.3707 C   0  0  0  0  0  0
  -26.0186  -29.4371   20.7124 C   0  0  0  0  0  0
  -27.2053  -28.6554   20.6918 C   0  0  0  0  0  0
  -26.0249  -26.9005   19.5005 C   0  0  0  0  0  0
  -24.8533  -27.6814   19.5072 C   0  0  0  0  0  0
  -23.6175  -29.8210   20.1684 C   0  0  0  0  0  0
  -25.4103  -36.3115   24.0332 C   0  0  1  0  0  0
  -20.5865  -28.3647   23.1320 C   0  0  2  0  0  0
  -20.6752  -26.9378   22.5428 C   0  0  0  0  0  0
  -19.5726  -26.6370   21.5216 C   0  0  0  0  0  0
  -18.1908  -26.7913   22.1626 C   0  0  0  0  0  0
  -19.1524  -28.8826   23.2900 C   0  0  0  0  0  0
  -18.9448  -30.1438   23.8906 C   0  0  0  0  0  0
  -17.6449  -30.6573   24.0553 C   0  0  0  0  0  0
  -25.9045  -34.9472   23.5123 C   0  0  0  0  0  0
  -16.5340  -29.9072   23.6322 C   0  0  0  0  0  0
  -16.7262  -28.6487   23.0350 C   0  0  0  0  0  0
  -26.4449  -31.6632   25.0756 C   0  0  0  0  0  0
  -25.3661  -31.3711   26.1455 C   0  0  0  0  0  0
  -27.0340  -30.3086   24.6189 C   0  0  0  0  0  0
  -27.6010  -32.4379   25.7532 C   0  0  0  0  0  0
  -27.5574  -37.1813   24.8460 C   0  0  0  0  0  0
  -21.4172  -29.3013   22.3739 N   0  0  0  0  0  0
  -26.4287  -37.3803   23.9401 N   0  0  0  0  0  0
  -24.6779  -31.0694   22.1006 N   0  0  0  0  0  0
  -23.4214  -28.8160   23.3048 O   0  0  0  0  0  0
  -28.3929  -26.6086   20.1125 O   0  0  0  0  0  0
  -26.5647  -34.8923   22.4714 O   0  0  0  0  0  0
  -23.5366  -32.1443   23.7413 O   0  0  0  0  0  0
  -30.8570  -19.5481   21.1067 C   0  0  0  0  0  0
  -28.3707  -20.1389   19.9417 C   0  0  0  0  0  0
  -29.2101  -21.3221   20.5472 C   0  0  2  0  0  0
  -30.0274  -18.3696   20.5217 C   0  0  1  0  0  0
  -29.2613  -24.3497   21.7353 C   0  0  0  0  0  0
  -32.9293  -21.6828   20.1634 C   0  0  0  0  0  0
  -31.8657  -21.8625   22.4652 C   0  0  0  0  0  0
  -28.9512  -22.6824   19.7412 C   0  0  0  0  0  0
  -30.3814  -17.0350   21.3188 C   0  0  0  0  0  0
  -28.5008  -25.2814   19.5033 C   0  0  0  0  0  0
  -28.4751  -24.0218   20.4583 C   0  0  2  0  0  0
  -31.6197  -21.8666   20.9432 C   0  0  0  0  0  0
  -30.6294  -20.8748   20.4736 N   0  0  0  0  0  0
  -29.8862  -15.6859   20.8882 N   0  0  0  0  0  0
  -28.6083  -18.8076   20.5885 N   0  3  0  0  0  0
  -31.4693  -12.5119   19.1249 H   0  0  0  0  0  0
  -30.3736  -11.3909   19.8864 H   0  0  0  0  0  0
  -29.7522  -11.7229   17.4786 H   0  0  0  0  0  0
  -29.6318  -13.4492   17.7182 H   0  0  0  0  0  0
  -27.8655  -11.2757   18.8849 H   0  0  0  0  0  0
  -27.3584  -12.5405   17.7992 H   0  0  0  0  0  0
  -27.6684  -14.2406   19.5081 H   0  0  0  0  0  0
  -28.7122  -12.0559   21.3811 H   0  0  0  0  0  0
  -28.4494  -13.7173   21.8315 H   0  0  0  0  0  0
  -25.2726   -9.5708   22.4803 H   0  0  0  0  0  0
  -23.9984   -7.4652   22.7497 H   0  0  0  0  0  0
  -21.0840   -8.8767   19.8956 H   0  0  0  0  0  0
  -22.3669  -10.9683   19.6190 H   0  0  0  0  0  0
  -21.2003   -7.6152   23.9710 H   0  0  0  0  0  0
  -21.1470   -6.0531   25.9073 H   0  0  0  0  0  0
  -22.0607   -2.7617   23.2849 H   0  0  0  0  0  0
  -22.4055  -11.9877   22.4747 H   0  0  0  0  0  0
  -21.1108  -13.1300   22.2599 H   0  0  0  0  0  0
  -24.6537  -15.8334   20.4829 H   0  0  0  0  0  0
  -26.2508  -15.5988   19.9809 H   0  0  0  0  0  0
  -26.7129  -32.5497   23.1152 H   0  0  0  0  0  0
  -24.9924  -33.9764   25.0381 H   0  0  0  0  0  0
  -22.6977  -31.3038   21.4143 H   0  0  0  0  0  0
  -23.3748  -35.9625   23.3316 H   0  0  0  0  0  0
  -24.3529  -36.8940   22.2051 H   0  0  0  0  0  0
  -23.7215  -37.6494   23.6677 H   0  0  0  0  0  0
  -26.0688  -31.5698   20.6019 H   0  0  0  0  0  0
  -26.8305  -30.8590   21.9954 H   0  0  0  0  0  0
  -28.1090  -29.0310   21.1514 H   0  0  0  0  0  0
  -25.9540  -25.9274   19.0434 H   0  0  0  0  0  0
  -23.9518  -27.2969   19.0494 H   0  0  0  0  0  0
  -23.7241  -30.5960   19.4086 H   0  0  0  0  0  0
  -22.7391  -29.2434   19.8755 H   0  0  0  0  0  0
  -25.1283  -36.1991   25.0831 H   0  0  0  0  0  0
  -20.9937  -28.3217   24.1449 H   0  0  0  0  0  0
  -20.5649  -26.2248   23.3610 H   0  0  0  0  0  0
  -21.6616  -26.7403   22.1220 H   0  0  0  0  0  0
  -19.6868  -25.6290   21.1223 H   0  0  0  0  0  0
  -19.6669  -27.3194   20.6761 H   0  0  0  0  0  0
  -17.4181  -26.6686   21.4019 H   0  0  0  0  0  0
  -18.0278  -26.0041   22.8999 H   0  0  0  0  0  0
  -19.7928  -30.7240   24.2286 H   0  0  0  0  0  0
  -17.5006  -31.6251   24.5166 H   0  0  0  0  0  0
  -15.5337  -30.2968   23.7649 H   0  0  0  0  0  0
  -15.8661  -28.0807   22.7060 H   0  0  0  0  0  0
  -24.5853  -30.7072   25.7720 H   0  0  0  0  0  0
  -24.8791  -32.2834   26.4906 H   0  0  0  0  0  0
  -25.7932  -30.8839   27.0228 H   0  0  0  0  0  0
  -26.2946  -29.6829   24.1169 H   0  0  0  0  0  0
  -27.4033  -29.7349   25.4706 H   0  0  0  0  0  0
  -27.8799  -30.4441   23.9444 H   0  0  0  0  0  0
  -27.2640  -33.3684   26.2115 H   0  0  0  0  0  0
  -28.3798  -32.6949   25.0340 H   0  0  0  0  0  0
  -28.0706  -31.8506   26.5435 H   0  0  0  0  0  0
  -28.2595  -38.0113   24.7534 H   0  0  0  0  0  0
  -28.1079  -36.2644   24.6284 H   0  0  0  0  0  0
  -27.2271  -37.1457   25.8858 H   0  0  0  0  0  0
  -20.9351  -29.8770   21.6976 H   0  0  0  0  0  0
  -26.0184  -38.2885   24.1415 H   0  0  0  0  0  0
  -31.9099  -19.2826   21.0177 H   0  0  0  0  0  0
  -30.6505  -19.6128   22.1763 H   0  0  0  0  0  0
  -28.5806  -20.0538   18.8746 H   0  0  0  0  0  0
  -27.3089  -20.3761   20.0181 H   0  0  0  0  0  0
  -28.9190  -21.4556   21.5901 H   0  0  0  0  0  0
  -30.2998  -18.2349   19.4732 H   0  0  0  0  0  0
  -29.3200  -23.5006   22.4130 H   0  0  0  0  0  0
  -28.7714  -25.1558   22.2841 H   0  0  0  0  0  0
  -30.2721  -24.6864   21.5070 H   0  0  0  0  0  0
  -33.6507  -22.4554   20.4319 H   0  0  0  0  0  0
  -32.7613  -21.7593   19.0884 H   0  0  0  0  0  0
  -33.4045  -20.7226   20.3595 H   0  0  0  0  0  0
  -32.4735  -22.7216   22.7503 H   0  0  0  0  0  0
  -32.4095  -20.9768   22.7956 H   0  0  0  0  0  0
  -30.9372  -21.9228   23.0331 H   0  0  0  0  0  0
  -28.1788  -22.4761   19.0000 H   0  0  0  0  0  0
  -29.8174  -22.9002   19.1161 H   0  0  0  0  0  0
  -30.0610  -17.1634   22.3533 H   0  0  0  0  0  0
  -31.4696  -16.9799   21.3834 H   0  0  0  0  0  0
  -27.8247  -25.1400   18.6629 H   0  0  0  0  0  0
  -29.4818  -25.2921   19.0293 H   0  0  0  0  0  0
  -27.4403  -23.8654   20.7667 H   0  0  0  0  0  0
  -31.2791  -22.8672   20.6891 H   0  0  0  0  0  0
  -28.9212  -15.4754   21.0936 H   0  0  0  0  0  0
  -28.0264  -18.1257   20.1329 H   0  0  0  0  0  0
  -28.3208  -18.8717   21.5511 H   0  0  0  0  0  0
  1 25  1  0  0  0
  1 30  2  0  0  0
  1 84  1  0  0  0
  2  3  1  0  0  0
  2 25  1  0  0  0
  2 86  1  0  0  0
  2 87  1  0  0  0
  3  4  1  0  0  0
  3 88  1  0  0  0
  3 89  1  0  0  0
  4  5  1  0  0  0
  4 90  1  0  0  0
  4 91  1  0  0  0
  5  6  1  0  0  0
  5 26  1  0  0  0
  5 92  1  0  0  0
  6 25  1  0  0  0
  6 93  1  0  0  0
  6 94  1  0  0  0
  7  8  2  0  0  0
  7 26  1  0  0  0
  7 29  1  0  0  0
  8  9  1  0  0  0
  8 22  1  0  0  0
  9 10  1  0  0  0
  9 27  2  0  0  0
 10 11  2  0  0  0
 10 15  1  0  0  0
 11 12  1  0  0  0
 11 95  1  0  0  0
 12 13  2  0  0  0
 12 96  1  0  0  0
 13 14  1  0  0  0
 13 31  1  0  0  0
 14 15  2  0  0  0
 14 97  1  0  0  0
 15 98  1  0  0  0
 16 17  2  0  0  0
 16 21  1  0  0  0
 16 31  1  0  0  0
 17 18  1  0  0  0
 17 99  1  0  0  0
 18 19  2  0  0  0
 18100  1  0  0  0
 19 20  1  0  0  0
 19 24  1  0  0  0
 20 21  2  0  0  0
 20101  1  0  0  0
 21 23  1  0  0  0
 22 28  1  0  0  0
 22 32  2  0  0  0
 26 27  1  0  0  0
 28102  1  0  0  0
 28103  1  0  0  0
 29104  1  0  0  0
 29105  1  0  0  0
 33 34  1  0  0  0
 33 66  1  0  0  0
 33 70  2  0  0  0
 34 36  1  0  0  0
 34 59  1  0  0  0
 34106  1  0  0  0
 35 44  2  0  0  0
 35 45  1  0  0  0
 35 68  1  0  0  0
 36 56  1  0  0  0
 36107  1  0  0  0
 37 39  1  0  0  0
 37 47  1  0  0  0
 37 66  1  0  0  0
 37108  1  0  0  0
 38 43  2  0  0  0
 38 46  1  0  0  0
 38 47  1  0  0  0
 39 64  1  0  0  0
 39 67  2  0  0  0
 40 52  1  0  0  0
 40 53  2  0  0  0
 40 58  1  0  0  0
 41109  1  0  0  0
 41110  1  0  0  0
 41111  1  0  0  0
 41 48  1  0  0  0
 42 43  1  0  0  0
 42 66  1  0  0  0
 42112  1  0  0  0
 42113  1  0  0  0
 43 44  1  0  0  0
 44114  1  0  0  0
 45 46  2  0  0  0
 45115  1  0  0  0
 46116  1  0  0  0
 47117  1  0  0  0
 47118  1  0  0  0
 48 56  1  0  0  0
 48 65  1  0  0  0
 48119  1  0  0  0
 49 50  1  0  0  0
 49 53  1  0  0  0
 49 64  1  0  0  0
 49120  1  0  0  0
 50 51  1  0  0  0
 50121  1  0  0  0
 50122  1  0  0  0
 51 52  1  0  0  0
 51123  1  0  0  0
 51124  1  0  0  0
 52125  1  0  0  0
 52126  1  0  0  0
 53 54  1  0  0  0
 54 55  2  0  0  0
 54127  1  0  0  0
 55 57  1  0  0  0
 55128  1  0  0  0
 56 69  2  0  0  0
 57 58  2  0  0  0
 57129  1  0  0  0
 58130  1  0  0  0
 59 60  1  0  0  0
 59 61  1  0  0  0
 59 62  1  0  0  0
 60131  1  0  0  0
 60132  1  0  0  0
 60133  1  0  0  0
 61134  1  0  0  0
 61135  1  0  0  0
 61136  1  0  0  0
 62137  1  0  0  0
 62138  1  0  0  0
 62139  1  0  0  0
 63 65  1  0  0  0
 63140  1  0  0  0
 63141  1  0  0  0
 63142  1  0  0  0
 64143  1  0  0  0
 65144  1  0  0  0
 68 80  1  0  0  0
 71 74  1  0  0  0
 71 83  1  0  0  0
 71145  1  0  0  0
 71146  1  0  0  0
 72 73  1  0  0  0
 72 85  1  0  0  0
 72147  1  0  0  0
 72148  1  0  0  0
 73 78  1  0  0  0
 73 83  1  0  0  0
 73149  1  0  0  0
 74 79  1  0  0  0
 74 85  1  0  0  0
 74150  1  0  0  0
 75151  1  0  0  0
 75152  1  0  0  0
 75153  1  0  0  0
 75 81  1  0  0  0
 76154  1  0  0  0
 76155  1  0  0  0
 76156  1  0  0  0
 76 82  1  0  0  0
 77 82  1  0  0  0
 77157  1  0  0  0
 77158  1  0  0  0
 77159  1  0  0  0
 78 81  1  0  0  0
 78160  1  0  0  0
 78161  1  0  0  0
 79 84  1  0  0  0
 79162  1  0  0  0
 79163  1  0  0  0
 80 81  1  0  0  0
 80164  1  0  0  0
 80165  1  0  0  0
 81166  1  0  0  0
 82 83  1  0  0  0
 82167  1  0  0  0
 84168  1  0  0  0
 85169  1  0  0  0
 85170  1  0  0  0
M  CHG  1  85   1
M  ISO  4   1 100  68 101  80 101  84 100
M  END
> <chiral flag>
0

> <version>
0

> <s_m_source_file>
/data/baiqing/PycharmProjects/Reinvent-master-3.2/result/LINK_invent/BTK/process_docking_weight1_custom_sum_contain_oxygen_bond_distance_aromatic_linkinvent_7_9_3/rearranged_h_0115.sdf

> <i_m_source_file_index>
89

> <r_mmod_Potential_Energy-OPLS-2005>
-120.044357299805

> <r_mmod_Stretch_Energy-OPLS-2005>
72.8452911376953

> <r_mmod_Bend_Energy-OPLS-2005>
160.864166259766

> <r_mmod_Torsional_Energy-OPLS-2005>
265.853088378906

> <r_mmod_Improper_Torsional_Energy-OPLS-2005>
4.2940731048584

> <r_mmod_Van_der_Waal_Energy-OPLS-2005>
143.304336547852

> <r_mmod_Electrostatic_Energy-OPLS-2005>
-326.355834960938

> <r_mmod_Solvation_Energy-OPLS-2005>
-475.757476806641

> <b_mmod_Minimization_Converged-OPLS-2005>
0

> <r_mmod_RMS_Derivative-OPLS-2005>
2.17044591903687

$$$$
89
                    3D
 Structure written by MMmdl.
160168  0  0  1  0            999 V2000
  -30.6227  -14.6707   20.4527 C   0  0  0  0  0  0
  -30.4315  -12.3885   19.4899 C   0  0  0  0  0  0
  -29.5292  -12.4869   18.2414 C   0  0  0  0  0  0
  -28.0455  -12.3394   18.6385 C   0  0  0  0  0  0
  -27.6497  -13.2249   19.8510 C   0  0  2  0  0  0
  -28.6846  -13.1299   20.9939 C   0  0  0  0  0  0
  -25.2542  -13.8164   20.5609 C   0  0  0  0  0  0
  -24.1837  -13.0448   20.9177 C   0  0  0  0  0  0
  -24.6403  -11.6909   20.8698 C   0  0  0  0  0  0
  -23.9060  -10.4306   21.0372 C   0  0  0  0  0  0
  -24.3616   -9.4240   21.9170 C   0  0  0  0  0  0
  -23.6305   -8.2260   22.0757 C   0  0  0  0  0  0
  -22.4278   -8.0271   21.3547 C   0  0  0  0  0  0
  -21.9906   -9.0240   20.4648 C   0  0  0  0  0  0
  -22.7224  -10.2125   20.3052 C   0  0  0  0  0  0
  -21.6865   -6.0735   22.5288 C   0  0  0  0  0  0
  -21.4017   -6.5633   23.8218 C   0  0  0  0  0  0
  -21.3673   -5.6784   24.9176 C   0  0  0  0  0  0
  -21.6051   -4.3045   24.7222 C   0  0  0  0  0  0
  -21.8823   -3.8139   23.4339 C   0  0  0  0  0  0
  -21.9200   -4.6965   22.3400 C   0  0  0  0  0  0
  -22.7854  -13.5248   21.1848 C   0  0  0  0  0  0
  -22.1672   -4.2147   21.0982 F   0  0  0  0  0  0
  -21.5628   -3.4533   25.7737 F   0  0  0  0  0  0
  -30.0010  -13.4487   20.4265 N   0  0  0  0  0  0
  -26.2970  -12.9367   20.3208 N   0  0  0  0  0  0
  -25.9320  -11.6520   20.5677 N   0  0  0  0  0  0
  -22.0470  -12.8259   22.0380 N   0  0  0  0  0  0
  -25.4236  -15.1880   20.3941 N   0  0  0  0  0  0
  -31.8037  -14.7828   20.1131 O   0  0  0  0  0  0
  -21.6640   -6.8870   21.4252 O   0  0  0  0  0  0
  -22.3558  -14.5557   20.6688 O   0  0  0  0  0  0
  -24.6315  -31.8571   23.2020 C   0  0  0  0  0  0
  -25.9152  -32.4769   23.8338 C   0  0  1  0  0  0
  -27.2013  -27.2666   20.0785 C   0  0  0  0  0  0
  -25.5959  -33.8560   24.2280 N   0  0  0  0  0  0
  -23.4243  -30.4858   21.5495 C   0  0  2  0  0  0
  -24.8613  -28.9422   20.1079 C   0  0  0  0  0  0
  -22.7501  -29.4614   22.4936 C   0  0  0  0  0  0
  -18.0297  -28.1379   22.8486 C   0  0  0  0  0  0
  -24.1491  -36.7281   23.2625 C   0  0  0  0  0  0
  -25.9725  -30.7681   21.3804 C   0  0  0  0  0  0
  -26.0383  -29.3938   20.7165 C   0  0  0  0  0  0
  -27.2071  -28.5639   20.7007 C   0  0  0  0  0  0
  -25.9960  -26.8992   19.4321 C   0  0  0  0  0  0
  -24.8453  -27.7027   19.4597 C   0  0  0  0  0  0
  -23.6344  -29.8299   20.1632 C   0  0  0  0  0  0
  -25.4113  -36.3061   24.0320 C   0  0  1  0  0  0
  -20.5903  -28.3686   23.1280 C   0  0  2  0  0  0
  -20.6774  -26.9405   22.5409 C   0  0  0  0  0  0
  -19.5749  -26.6377   21.5210 C   0  0  0  0  0  0
  -18.1931  -26.7923   22.1618 C   0  0  0  0  0  0
  -19.1554  -28.8849   23.2873 C   0  0  0  0  0  0
  -18.9464  -30.1441   23.8890 C   0  0  0  0  0  0
  -17.6461  -30.6570   24.0568 C   0  0  0  0  0  0
  -25.9060  -34.9441   23.5102 C   0  0  0  0  0  0
  -16.5358  -29.9073   23.6341 C   0  0  0  0  0  0
  -16.7281  -28.6498   23.0347 C   0  0  0  0  0  0
  -26.4526  -31.6574   25.0704 C   0  0  0  0  0  0
  -25.3760  -31.3718   26.1435 C   0  0  0  0  0  0
  -27.0376  -30.2988   24.6171 C   0  0  0  0  0  0
  -27.6108  -32.4317   25.7462 C   0  0  0  0  0  0
  -27.5588  -37.1765   24.8461 C   0  0  0  0  0  0
  -21.4211  -29.3035   22.3662 N   0  0  0  0  0  0
  -26.4290  -37.3759   23.9422 N   0  0  0  0  0  0
  -24.6962  -31.0519   22.1016 N   0  0  0  0  0  0
  -23.4203  -28.8113   23.3010 O   0  0  0  0  0  0
  -28.3112  -26.3866   20.1259 O   0  0  0  0  0  0
  -26.5613  -34.8922   22.4658 O   0  0  0  0  0  0
  -23.5475  -32.1413   23.7314 O   0  0  0  0  0  0
  -29.0627  -20.9982   20.6135 C   0  0  0  0  0  0
  -29.1293  -24.8694   18.3126 C   0  0  0  0  0  0
  -28.6160  -23.7286   20.5424 C   0  0  0  0  0  0
  -30.3407  -23.9059   18.4362 C   0  0  0  0  0  0
  -28.8754  -22.3398   19.7646 C   0  0  1  0  0  0
  -28.2755  -24.9733   19.6001 C   0  0  2  0  0  0
  -30.0234  -17.1985   18.5687 C   0  0  0  0  0  0
  -29.2096  -18.3895   20.7055 C   0  0  0  0  0  0
  -30.1076  -17.1988   20.1072 C   0  0  2  0  0  0
  -29.2309  -19.7562   20.0299 N   0  0  0  0  0  0
  -29.8271  -15.7878   20.5999 N   0  0  0  0  0  0
  -29.9594  -22.5050   18.7634 N   0  3  0  0  0  0
  -29.0562  -21.0900   21.8421 O   0  0  0  0  0  0
  -31.4855  -12.4751   19.2204 H   0  0  0  0  0  0
  -30.3249  -11.4078   19.9567 H   0  0  0  0  0  0
  -29.7982  -11.7136   17.5210 H   0  0  0  0  0  0
  -29.6929  -13.4439   17.7454 H   0  0  0  0  0  0
  -27.8752  -11.2898   18.8779 H   0  0  0  0  0  0
  -27.4034  -12.5610   17.7861 H   0  0  0  0  0  0
  -27.6551  -14.2517   19.4860 H   0  0  0  0  0  0
  -28.6843  -12.1278   21.4258 H   0  0  0  0  0  0
  -28.4312  -13.8113   21.8079 H   0  0  0  0  0  0
  -25.2754   -9.5719   22.4745 H   0  0  0  0  0  0
  -24.0016   -7.4650   22.7463 H   0  0  0  0  0  0
  -21.0844   -8.8754   19.8939 H   0  0  0  0  0  0
  -22.3677  -10.9660   19.6150 H   0  0  0  0  0  0
  -21.2014   -7.6138   23.9727 H   0  0  0  0  0  0
  -21.1494   -6.0505   25.9080 H   0  0  0  0  0  0
  -22.0589   -2.7601   23.2840 H   0  0  0  0  0  0
  -22.4059  -11.9945   22.4852 H   0  0  0  0  0  0
  -21.1066  -13.1288   22.2505 H   0  0  0  0  0  0
  -24.6393  -15.8274   20.4599 H   0  0  0  0  0  0
  -26.2502  -15.6141   19.9947 H   0  0  0  0  0  0
  -26.7195  -32.5392   23.1052 H   0  0  0  0  0  0
  -25.0111  -33.9703   25.0427 H   0  0  0  0  0  0
  -22.7182  -31.3064   21.4107 H   0  0  0  0  0  0
  -23.3763  -35.9601   23.3261 H   0  0  0  0  0  0
  -24.3593  -36.8928   22.2046 H   0  0  0  0  0  0
  -23.7245  -37.6471   23.6676 H   0  0  0  0  0  0
  -26.1081  -31.5288   20.6102 H   0  0  0  0  0  0
  -26.8536  -30.8145   22.0116 H   0  0  0  0  0  0
  -28.1104  -28.9024   21.1875 H   0  0  0  0  0  0
  -25.8722  -25.9847   18.8812 H   0  0  0  0  0  0
  -23.9442  -27.3621   18.9683 H   0  0  0  0  0  0
  -23.7490  -30.6099   19.4095 H   0  0  0  0  0  0
  -22.7522  -29.2611   19.8634 H   0  0  0  0  0  0
  -25.1284  -36.1899   25.0807 H   0  0  0  0  0  0
  -20.9984  -28.3251   24.1411 H   0  0  0  0  0  0
  -20.5700  -26.2273   23.3586 H   0  0  0  0  0  0
  -21.6628  -26.7438   22.1180 H   0  0  0  0  0  0
  -19.6908  -25.6297   21.1213 H   0  0  0  0  0  0
  -19.6688  -27.3201   20.6751 H   0  0  0  0  0  0
  -17.4192  -26.6675   21.4023 H   0  0  0  0  0  0
  -18.0334  -26.0068   22.9023 H   0  0  0  0  0  0
  -19.7930  -30.7264   24.2253 H   0  0  0  0  0  0
  -17.5014  -31.6257   24.5143 H   0  0  0  0  0  0
  -15.5357  -30.2964   23.7662 H   0  0  0  0  0  0
  -15.8678  -28.0813   22.7065 H   0  0  0  0  0  0
  -24.5939  -30.7066   25.7759 H   0  0  0  0  0  0
  -24.8945  -32.2881   26.4860 H   0  0  0  0  0  0
  -25.8073  -30.8892   27.0213 H   0  0  0  0  0  0
  -26.2943  -29.6707   24.1249 H   0  0  0  0  0  0
  -27.4122  -29.7277   25.4674 H   0  0  0  0  0  0
  -27.8798  -30.4263   23.9374 H   0  0  0  0  0  0
  -27.2739  -33.3624   26.2041 H   0  0  0  0  0  0
  -28.3899  -32.6861   25.0267 H   0  0  0  0  0  0
  -28.0797  -31.8437   26.5356 H   0  0  0  0  0  0
  -28.2563  -38.0102   24.7564 H   0  0  0  0  0  0
  -28.1121  -36.2633   24.6217 H   0  0  0  0  0  0
  -27.2308  -37.1338   25.8859 H   0  0  0  0  0  0
  -20.9361  -29.8795   21.6915 H   0  0  0  0  0  0
  -26.0161  -38.2817   24.1478 H   0  0  0  0  0  0
  -28.4999  -24.5370   17.4870 H   0  0  0  0  0  0
  -29.4847  -25.8559   18.0173 H   0  0  0  0  0  0
  -29.4901  -23.9651   21.1487 H   0  0  0  0  0  0
  -27.7949  -23.5953   21.2482 H   0  0  0  0  0  0
  -31.0122  -24.2806   19.2091 H   0  0  0  0  0  0
  -30.9206  -23.9088   17.5109 H   0  0  0  0  0  0
  -27.9696  -22.1578   19.1820 H   0  0  0  0  0  0
  -27.2784  -24.7046   19.2788 H   0  0  0  0  0  0
  -28.9971  -17.0567   18.2260 H   0  0  0  0  0  0
  -30.6350  -16.4079   18.1329 H   0  0  0  0  0  0
  -30.3914  -18.1349   18.1531 H   0  0  0  0  0  0
  -29.4366  -18.4980   21.7666 H   0  0  0  0  0  0
  -28.1705  -18.0553   20.6670 H   0  0  0  0  0  0
  -31.1441  -17.4207   20.3727 H   0  0  0  0  0  0
  -29.2124  -19.7295   19.0176 H   0  0  0  0  0  0
  -28.8835  -15.6085   20.9090 H   0  0  0  0  0  0
  -30.7765  -22.0271   19.1107 H   0  0  0  0  0  0
  -29.6884  -22.0251   17.9204 H   0  0  0  0  0  0
  1 25  1  0  0  0
  1 30  2  0  0  0
  1 81  1  0  0  0
  2  3  1  0  0  0
  2 25  1  0  0  0
  2 84  1  0  0  0
  2 85  1  0  0  0
  3  4  1  0  0  0
  3 86  1  0  0  0
  3 87  1  0  0  0
  4  5  1  0  0  0
  4 88  1  0  0  0
  4 89  1  0  0  0
  5  6  1  0  0  0
  5 26  1  0  0  0
  5 90  1  0  0  0
  6 25  1  0  0  0
  6 91  1  0  0  0
  6 92  1  0  0  0
  7  8  2  0  0  0
  7 26  1  0  0  0
  7 29  1  0  0  0
  8  9  1  0  0  0
  8 22  1  0  0  0
  9 10  1  0  0  0
  9 27  2  0  0  0
 10 11  2  0  0  0
 10 15  1  0  0  0
 11 12  1  0  0  0
 11 93  1  0  0  0
 12 13  2  0  0  0
 12 94  1  0  0  0
 13 14  1  0  0  0
 13 31  1  0  0  0
 14 15  2  0  0  0
 14 95  1  0  0  0
 15 96  1  0  0  0
 16 17  2  0  0  0
 16 21  1  0  0  0
 16 31  1  0  0  0
 17 18  1  0  0  0
 17 97  1  0  0  0
 18 19  2  0  0  0
 18 98  1  0  0  0
 19 20  1  0  0  0
 19 24  1  0  0  0
 20 21  2  0  0  0
 20 99  1  0  0  0
 21 23  1  0  0  0
 22 28  1  0  0  0
 22 32  2  0  0  0
 26 27  1  0  0  0
 28100  1  0  0  0
 28101  1  0  0  0
 29102  1  0  0  0
 29103  1  0  0  0
 33 34  1  0  0  0
 33 66  1  0  0  0
 33 70  2  0  0  0
 34 36  1  0  0  0
 34 59  1  0  0  0
 34104  1  0  0  0
 35 44  2  0  0  0
 35 45  1  0  0  0
 35 68  1  0  0  0
 36 56  1  0  0  0
 36105  1  0  0  0
 37 39  1  0  0  0
 37 47  1  0  0  0
 37 66  1  0  0  0
 37106  1  0  0  0
 38 43  2  0  0  0
 38 46  1  0  0  0
 38 47  1  0  0  0
 39 64  1  0  0  0
 39 67  2  0  0  0
 40 52  1  0  0  0
 40 53  2  0  0  0
 40 58  1  0  0  0
 41107  1  0  0  0
 41108  1  0  0  0
 41109  1  0  0  0
 41 48  1  0  0  0
 42 43  1  0  0  0
 42 66  1  0  0  0
 42110  1  0  0  0
 42111  1  0  0  0
 43 44  1  0  0  0
 44112  1  0  0  0
 45 46  2  0  0  0
 45113  1  0  0  0
 46114  1  0  0  0
 47115  1  0  0  0
 47116  1  0  0  0
 48 56  1  0  0  0
 48 65  1  0  0  0
 48117  1  0  0  0
 49 50  1  0  0  0
 49 53  1  0  0  0
 49 64  1  0  0  0
 49118  1  0  0  0
 50 51  1  0  0  0
 50119  1  0  0  0
 50120  1  0  0  0
 51 52  1  0  0  0
 51121  1  0  0  0
 51122  1  0  0  0
 52123  1  0  0  0
 52124  1  0  0  0
 53 54  1  0  0  0
 54 55  2  0  0  0
 54125  1  0  0  0
 55 57  1  0  0  0
 55126  1  0  0  0
 56 69  2  0  0  0
 57 58  2  0  0  0
 57127  1  0  0  0
 58128  1  0  0  0
 59 60  1  0  0  0
 59 61  1  0  0  0
 59 62  1  0  0  0
 60129  1  0  0  0
 60130  1  0  0  0
 60131  1  0  0  0
 61132  1  0  0  0
 61133  1  0  0  0
 61134  1  0  0  0
 62135  1  0  0  0
 62136  1  0  0  0
 62137  1  0  0  0
 63 65  1  0  0  0
 63138  1  0  0  0
 63139  1  0  0  0
 63140  1  0  0  0
 64141  1  0  0  0
 65142  1  0  0  0
 68 76  1  0  0  0
 71 80  1  0  0  0
 71 83  2  0  0  0
 71 75  1  0  0  0
 72 74  1  0  0  0
 72 76  1  0  0  0
 72143  1  0  0  0
 72144  1  0  0  0
 73 75  1  0  0  0
 73 76  1  0  0  0
 73145  1  0  0  0
 73146  1  0  0  0
 74 82  1  0  0  0
 74147  1  0  0  0
 74148  1  0  0  0
 75 82  1  0  0  0
 75149  1  0  0  0
 76150  1  0  0  0
 77151  1  0  0  0
 77152  1  0  0  0
 77153  1  0  0  0
 77 79  1  0  0  0
 78 79  1  0  0  0
 78 80  1  0  0  0
 78154  1  0  0  0
 78155  1  0  0  0
 79 81  1  0  0  0
 79156  1  0  0  0
 80157  1  0  0  0
 81158  1  0  0  0
 82159  1  0  0  0
 82160  1  0  0  0
M  CHG  1  82   1
M  ISO  4   1 100  68 101  76 101  81 100
M  END
> <chiral flag>
0

> <version>
0

> <s_m_source_file>
/data/baiqing/PycharmProjects/Reinvent-master-3.2/result/LINK_invent/BTK/process_docking_weight1_custom_sum_contain_oxygen_bond_distance_aromatic_linkinvent_7_9_3/rearranged_h_0115.sdf

> <i_m_source_file_index>
90

> <r_mmod_Potential_Energy-OPLS-2005>
-218.774520874023

> <r_mmod_Stretch_Energy-OPLS-2005>
109.22257232666

> <r_mmod_Bend_Energy-OPLS-2005>
159.424179077148

> <r_mmod_Torsional_Energy-OPLS-2005>
259.524230957031

> <r_mmod_Improper_Torsional_Energy-OPLS-2005>
7.60196208953857

> <r_mmod_Van_der_Waal_Energy-OPLS-2005>
135.845474243164

> <r_mmod_Electrostatic_Energy-OPLS-2005>
-432.018280029297

> <r_mmod_Solvation_Energy-OPLS-2005>
-526.909851074219

> <b_mmod_Minimization_Converged-OPLS-2005>
0

> <r_mmod_RMS_Derivative-OPLS-2005>
3.90588116645813

$$$$
90
                    3D
 Structure written by MMmdl.
157165  0  0  1  0            999 V2000
  -30.6759  -14.5075   20.5517 C   0  0  0  0  0  0
  -30.4184  -12.3170   19.4317 C   0  0  0  0  0  0
  -29.4880  -12.4895   18.2120 C   0  0  0  0  0  0
  -28.0136  -12.3297   18.6354 C   0  0  0  0  0  0
  -27.6532  -13.1986   19.8687 C   0  0  2  0  0  0
  -28.6945  -13.0072   20.9941 C   0  0  0  0  0  0
  -25.2542  -13.8135   20.5663 C   0  0  0  0  0  0
  -24.1798  -13.0436   20.9194 C   0  0  0  0  0  0
  -24.6337  -11.6893   20.8747 C   0  0  0  0  0  0
  -23.9000  -10.4282   21.0399 C   0  0  0  0  0  0
  -24.3568   -9.4215   21.9186 C   0  0  0  0  0  0
  -23.6269   -8.2235   22.0750 C   0  0  0  0  0  0
  -22.4254   -8.0258   21.3533 C   0  0  0  0  0  0
  -21.9887   -9.0221   20.4632 C   0  0  0  0  0  0
  -22.7180  -10.2111   20.3048 C   0  0  0  0  0  0
  -21.6850   -6.0720   22.5274 C   0  0  0  0  0  0
  -21.4000   -6.5621   23.8202 C   0  0  0  0  0  0
  -21.3672   -5.6783   24.9177 C   0  0  0  0  0  0
  -21.6042   -4.3045   24.7228 C   0  0  0  0  0  0
  -21.8820   -3.8129   23.4350 C   0  0  0  0  0  0
  -21.9188   -4.6945   22.3399 C   0  0  0  0  0  0
  -22.7819  -13.5219   21.1874 C   0  0  0  0  0  0
  -22.1659   -4.2128   21.0985 F   0  0  0  0  0  0
  -21.5643   -3.4535   25.7745 F   0  0  0  0  0  0
  -30.0201  -13.3177   20.4348 N   0  0  0  0  0  0
  -26.2959  -12.9290   20.3345 N   0  0  0  0  0  0
  -25.9252  -11.6456   20.5775 N   0  0  0  0  0  0
  -22.0481  -12.8200   22.0420 N   0  0  0  0  0  0
  -25.4320  -15.1838   20.4012 N   0  0  0  0  0  0
  -31.8202  -14.6868   20.1306 O   0  0  0  0  0  0
  -21.6630   -6.8854   21.4230 O   0  0  0  0  0  0
  -22.3530  -14.5561   20.6767 O   0  0  0  0  0  0
  -24.6184  -31.8660   23.2094 C   0  0  0  0  0  0
  -25.9049  -32.4803   23.8405 C   0  0  1  0  0  0
  -27.2222  -27.4013   20.0517 C   0  0  0  0  0  0
  -25.5871  -33.8604   24.2309 N   0  0  0  0  0  0
  -23.4071  -30.4923   21.5552 C   0  0  2  0  0  0
  -24.8435  -28.9535   20.1158 C   0  0  0  0  0  0
  -22.7444  -29.4659   22.5024 C   0  0  0  0  0  0
  -18.0280  -28.1393   22.8499 C   0  0  0  0  0  0
  -24.1485  -36.7347   23.2633 C   0  0  0  0  0  0
  -25.9461  -30.8098   21.3738 C   0  0  0  0  0  0
  -26.0122  -29.4484   20.7046 C   0  0  0  0  0  0
  -27.2020  -28.6789   20.6666 C   0  0  0  0  0  0
  -26.0143  -26.9135   19.4949 C   0  0  0  0  0  0
  -24.8380  -27.6850   19.5160 C   0  0  0  0  0  0
  -23.6136  -29.8311   20.1694 C   0  0  0  0  0  0
  -25.4087  -36.3109   24.0338 C   0  0  1  0  0  0
  -20.5877  -28.3691   23.1312 C   0  0  2  0  0  0
  -20.6781  -26.9439   22.5400 C   0  0  0  0  0  0
  -19.5755  -26.6416   21.5206 C   0  0  0  0  0  0
  -18.1936  -26.7953   22.1611 C   0  0  0  0  0  0
  -19.1530  -28.8859   23.2897 C   0  0  0  0  0  0
  -18.9463  -30.1471   23.8920 C   0  0  0  0  0  0
  -17.6456  -30.6600   24.0575 C   0  0  0  0  0  0
  -25.9034  -34.9475   23.5141 C   0  0  0  0  0  0
  -16.5351  -29.9103   23.6331 C   0  0  0  0  0  0
  -16.7271  -28.6517   23.0363 C   0  0  0  0  0  0
  -26.4456  -31.6596   25.0762 C   0  0  0  0  0  0
  -25.3719  -31.3633   26.1493 C   0  0  0  0  0  0
  -27.0325  -30.3051   24.6175 C   0  0  0  0  0  0
  -27.6031  -32.4354   25.7504 C   0  0  0  0  0  0
  -27.5602  -37.1783   24.8440 C   0  0  0  0  0  0
  -21.4172  -29.3045   22.3732 N   0  0  0  0  0  0
  -26.4278  -37.3799   23.9429 N   0  0  0  0  0  0
  -24.6766  -31.0714   22.1038 N   0  0  0  0  0  0
  -23.4215  -28.8203   23.3069 O   0  0  0  0  0  0
  -28.4105  -26.6822   20.0500 O   0  0  0  0  0  0
  -26.5649  -34.8920   22.4740 O   0  0  0  0  0  0
  -23.5355  -32.1499   23.7439 O   0  0  0  0  0  0
  -28.2167  -23.0408   20.0952 C   0  0  0  0  0  0
  -30.4290  -23.6470   19.5448 C   0  0  0  0  0  0
  -29.1170  -24.2809   20.0437 C   0  0  1  0  0  0
  -29.1851  -21.9286   20.5525 C   0  0  1  0  0  0
  -28.6034  -25.5075   19.2236 C   0  0  0  0  0  0
  -28.7519  -20.4545   20.2813 C   0  0  0  0  0  0
  -30.3344  -16.9553   21.1925 C   0  0  0  0  0  0
  -29.3774  -18.0039   20.5286 C   0  0  0  0  0  0
  -29.9286  -15.5389   21.0088 N   0  0  0  0  0  0
  -29.6386  -19.4279   20.9198 N   0  3  0  0  0  0
  -30.3543  -22.2355   19.7954 O   0  0  0  0  0  0
  -31.4633  -12.4167   19.1332 H   0  0  0  0  0  0
  -30.3196  -11.3125   19.8463 H   0  0  0  0  0  0
  -29.7342  -11.7604   17.4397 H   0  0  0  0  0  0
  -29.6359  -13.4747   17.7670 H   0  0  0  0  0  0
  -27.8577  -11.2761   18.8771 H   0  0  0  0  0  0
  -27.3468  -12.5494   17.8018 H   0  0  0  0  0  0
  -27.6901  -14.2385   19.5431 H   0  0  0  0  0  0
  -28.6771  -11.9760   21.3517 H   0  0  0  0  0  0
  -28.4542  -13.6210   21.8636 H   0  0  0  0  0  0
  -25.2702   -9.5710   22.4778 H   0  0  0  0  0  0
  -23.9982   -7.4626   22.7474 H   0  0  0  0  0  0
  -21.0825   -8.8711   19.8936 H   0  0  0  0  0  0
  -22.3620  -10.9642   19.6163 H   0  0  0  0  0  0
  -21.1985   -7.6128   23.9700 H   0  0  0  0  0  0
  -21.1498   -6.0518   25.9078 H   0  0  0  0  0  0
  -22.0594   -2.7593   23.2854 H   0  0  0  0  0  0
  -22.4103  -11.9817   22.4719 H   0  0  0  0  0  0
  -21.1106  -13.1211   22.2663 H   0  0  0  0  0  0
  -24.6635  -15.8421   20.4750 H   0  0  0  0  0  0
  -26.2768  -15.6031   20.0328 H   0  0  0  0  0  0
  -26.7115  -32.5463   23.1155 H   0  0  0  0  0  0
  -24.9848  -33.9727   25.0333 H   0  0  0  0  0  0
  -22.6975  -31.3109   21.4169 H   0  0  0  0  0  0
  -23.3756  -35.9675   23.3241 H   0  0  0  0  0  0
  -24.3583  -36.9039   22.2063 H   0  0  0  0  0  0
  -23.7228  -37.6516   23.6715 H   0  0  0  0  0  0
  -26.0817  -31.5811   20.6135 H   0  0  0  0  0  0
  -26.8255  -30.8421   22.0036 H   0  0  0  0  0  0
  -28.1113  -29.0662   21.1050 H   0  0  0  0  0  0
  -25.9310  -25.9338   19.0523 H   0  0  0  0  0  0
  -23.9272  -27.2895   19.0859 H   0  0  0  0  0  0
  -23.7307  -30.6115   19.4176 H   0  0  0  0  0  0
  -22.7300  -29.2632   19.8706 H   0  0  0  0  0  0
  -25.1243  -36.1975   25.0833 H   0  0  0  0  0  0
  -20.9927  -28.3269   24.1446 H   0  0  0  0  0  0
  -20.5723  -26.2297   23.3577 H   0  0  0  0  0  0
  -21.6649  -26.7517   22.1168 H   0  0  0  0  0  0
  -19.6929  -25.6340   21.1229 H   0  0  0  0  0  0
  -19.6701  -27.3218   20.6737 H   0  0  0  0  0  0
  -17.4211  -26.6723   21.4018 H   0  0  0  0  0  0
  -18.0314  -26.0086   22.8986 H   0  0  0  0  0  0
  -19.7942  -30.7279   24.2305 H   0  0  0  0  0  0
  -17.5022  -31.6273   24.5200 H   0  0  0  0  0  0
  -15.5349  -30.3008   23.7673 H   0  0  0  0  0  0
  -15.8665  -28.0834   22.7089 H   0  0  0  0  0  0
  -24.5903  -30.6991   25.7791 H   0  0  0  0  0  0
  -24.8860  -32.2718   26.5065 H   0  0  0  0  0  0
  -25.8055  -30.8700   27.0209 H   0  0  0  0  0  0
  -26.2888  -29.6749   24.1289 H   0  0  0  0  0  0
  -27.4142  -29.7328   25.4640 H   0  0  0  0  0  0
  -27.8701  -30.4368   23.9328 H   0  0  0  0  0  0
  -27.2682  -33.3673   26.2086 H   0  0  0  0  0  0
  -28.3813  -32.6912   25.0301 H   0  0  0  0  0  0
  -28.0771  -31.8507   26.5395 H   0  0  0  0  0  0
  -28.2518  -38.0191   24.7641 H   0  0  0  0  0  0
  -28.1205  -36.2716   24.6078 H   0  0  0  0  0  0
  -27.2337  -37.1207   25.8844 H   0  0  0  0  0  0
  -20.9377  -29.8732   21.6898 H   0  0  0  0  0  0
  -26.0175  -38.2871   24.1486 H   0  0  0  0  0  0
  -27.8287  -22.8112   19.1018 H   0  0  0  0  0  0
  -27.3663  -23.1682   20.7653 H   0  0  0  0  0  0
  -31.2889  -24.0676   20.0646 H   0  0  0  0  0  0
  -30.5872  -23.7994   18.4750 H   0  0  0  0  0  0
  -29.2872  -24.6199   21.0672 H   0  0  0  0  0  0
  -29.4146  -22.0684   21.6097 H   0  0  0  0  0  0
  -27.7632  -25.2142   18.6009 H   0  0  0  0  0  0
  -29.3639  -25.7961   18.4976 H   0  0  0  0  0  0
  -28.7214  -20.2908   19.2035 H   0  0  0  0  0  0
  -27.7372  -20.3017   20.6505 H   0  0  0  0  0  0
  -30.3780  -17.1301   22.2682 H   0  0  0  0  0  0
  -31.3499  -17.1089   20.8203 H   0  0  0  0  0  0
  -28.3436  -17.7615   20.7757 H   0  0  0  0  0  0
  -29.4616  -17.9236   19.4445 H   0  0  0  0  0  0
  -28.9887  -15.2981   21.2867 H   0  0  0  0  0  0
  -29.5281  -19.5064   21.9199 H   0  0  0  0  0  0
  -30.5971  -19.6628   20.7116 H   0  0  0  0  0  0
  1 25  1  0  0  0
  1 30  2  0  0  0
  1 79  1  0  0  0
  2  3  1  0  0  0
  2 25  1  0  0  0
  2 82  1  0  0  0
  2 83  1  0  0  0
  3  4  1  0  0  0
  3 84  1  0  0  0
  3 85  1  0  0  0
  4  5  1  0  0  0
  4 86  1  0  0  0
  4 87  1  0  0  0
  5  6  1  0  0  0
  5 26  1  0  0  0
  5 88  1  0  0  0
  6 25  1  0  0  0
  6 89  1  0  0  0
  6 90  1  0  0  0
  7  8  2  0  0  0
  7 26  1  0  0  0
  7 29  1  0  0  0
  8  9  1  0  0  0
  8 22  1  0  0  0
  9 10  1  0  0  0
  9 27  2  0  0  0
 10 11  2  0  0  0
 10 15  1  0  0  0
 11 12  1  0  0  0
 11 91  1  0  0  0
 12 13  2  0  0  0
 12 92  1  0  0  0
 13 14  1  0  0  0
 13 31  1  0  0  0
 14 15  2  0  0  0
 14 93  1  0  0  0
 15 94  1  0  0  0
 16 17  2  0  0  0
 16 21  1  0  0  0
 16 31  1  0  0  0
 17 18  1  0  0  0
 17 95  1  0  0  0
 18 19  2  0  0  0
 18 96  1  0  0  0
 19 20  1  0  0  0
 19 24  1  0  0  0
 20 21  2  0  0  0
 20 97  1  0  0  0
 21 23  1  0  0  0
 22 28  1  0  0  0
 22 32  2  0  0  0
 26 27  1  0  0  0
 28 98  1  0  0  0
 28 99  1  0  0  0
 29100  1  0  0  0
 29101  1  0  0  0
 33 34  1  0  0  0
 33 66  1  0  0  0
 33 70  2  0  0  0
 34 36  1  0  0  0
 34 59  1  0  0  0
 34102  1  0  0  0
 35 44  2  0  0  0
 35 45  1  0  0  0
 35 68  1  0  0  0
 36 56  1  0  0  0
 36103  1  0  0  0
 37 39  1  0  0  0
 37 47  1  0  0  0
 37 66  1  0  0  0
 37104  1  0  0  0
 38 43  2  0  0  0
 38 46  1  0  0  0
 38 47  1  0  0  0
 39 64  1  0  0  0
 39 67  2  0  0  0
 40 52  1  0  0  0
 40 53  2  0  0  0
 40 58  1  0  0  0
 41105  1  0  0  0
 41106  1  0  0  0
 41107  1  0  0  0
 41 48  1  0  0  0
 42 43  1  0  0  0
 42 66  1  0  0  0
 42108  1  0  0  0
 42109  1  0  0  0
 43 44  1  0  0  0
 44110  1  0  0  0
 45 46  2  0  0  0
 45111  1  0  0  0
 46112  1  0  0  0
 47113  1  0  0  0
 47114  1  0  0  0
 48 56  1  0  0  0
 48 65  1  0  0  0
 48115  1  0  0  0
 49 50  1  0  0  0
 49 53  1  0  0  0
 49 64  1  0  0  0
 49116  1  0  0  0
 50 51  1  0  0  0
 50117  1  0  0  0
 50118  1  0  0  0
 51 52  1  0  0  0
 51119  1  0  0  0
 51120  1  0  0  0
 52121  1  0  0  0
 52122  1  0  0  0
 53 54  1  0  0  0
 54 55  2  0  0  0
 54123  1  0  0  0
 55 57  1  0  0  0
 55124  1  0  0  0
 56 69  2  0  0  0
 57 58  2  0  0  0
 57125  1  0  0  0
 58126  1  0  0  0
 59 60  1  0  0  0
 59 61  1  0  0  0
 59 62  1  0  0  0
 60127  1  0  0  0
 60128  1  0  0  0
 60129  1  0  0  0
 61130  1  0  0  0
 61131  1  0  0  0
 61132  1  0  0  0
 62133  1  0  0  0
 62134  1  0  0  0
 62135  1  0  0  0
 63 65  1  0  0  0
 63136  1  0  0  0
 63137  1  0  0  0
 63138  1  0  0  0
 64139  1  0  0  0
 65140  1  0  0  0
 68 75  1  0  0  0
 71 73  1  0  0  0
 71 74  1  0  0  0
 71141  1  0  0  0
 71142  1  0  0  0
 72 73  1  0  0  0
 72 81  1  0  0  0
 72143  1  0  0  0
 72144  1  0  0  0
 73 75  1  0  0  0
 73145  1  0  0  0
 74 76  1  0  0  0
 74 81  1  0  0  0
 74146  1  0  0  0
 75147  1  0  0  0
 75148  1  0  0  0
 76 80  1  0  0  0
 76149  1  0  0  0
 76150  1  0  0  0
 77 78  1  0  0  0
 77 79  1  0  0  0
 77151  1  0  0  0
 77152  1  0  0  0
 78 80  1  0  0  0
 78153  1  0  0  0
 78154  1  0  0  0
 79155  1  0  0  0
 80156  1  0  0  0
 80157  1  0  0  0
M  CHG  1  80   1
M  ISO  4   1 100  68 101  75 101  79 100
M  END
> <chiral flag>
0

> <version>
0

> <s_m_source_file>
/data/baiqing/PycharmProjects/Reinvent-master-3.2/result/LINK_invent/BTK/process_docking_weight1_custom_sum_contain_oxygen_bond_distance_aromatic_linkinvent_7_9_3/rearranged_h_0115.sdf

> <i_m_source_file_index>
91

> <r_mmod_Potential_Energy-OPLS-2005>
-201.213714599609

> <r_mmod_Stretch_Energy-OPLS-2005>
44.3694343566895

> <r_mmod_Bend_Energy-OPLS-2005>
133.918014526367

> <r_mmod_Torsional_Energy-OPLS-2005>
248.424926757812

> <r_mmod_Improper_Torsional_Energy-OPLS-2005>
3.94111061096191

> <r_mmod_Van_der_Waal_Energy-OPLS-2005>
129.164093017578

> <r_mmod_Electrostatic_Energy-OPLS-2005>
-316.234954833984

> <r_mmod_Solvation_Energy-OPLS-2005>
-464.152496337891

> <b_mmod_Minimization_Converged-OPLS-2005>
0

> <r_mmod_RMS_Derivative-OPLS-2005>
4.07591724395752

$$$$
91
                    3D
 Structure written by MMmdl.
170178  0  0  1  0            999 V2000
  -30.6631  -14.5468   20.4945 C   0  0  0  0  0  0
  -30.4150  -12.3340   19.4354 C   0  0  0  0  0  0
  -29.4992  -12.5268   18.2067 C   0  0  0  0  0  0
  -28.0203  -12.3684   18.6160 C   0  0  0  0  0  0
  -27.6571  -13.2138   19.8689 C   0  0  2  0  0  0
  -28.7022  -13.0371   20.9975 C   0  0  0  0  0  0
  -25.2575  -13.8197   20.5664 C   0  0  0  0  0  0
  -24.1838  -13.0459   20.9176 C   0  0  0  0  0  0
  -24.6430  -11.6934   20.8749 C   0  0  0  0  0  0
  -23.9112  -10.4309   21.0391 C   0  0  0  0  0  0
  -24.3669   -9.4233   21.9163 C   0  0  0  0  0  0
  -23.6343   -8.2265   22.0762 C   0  0  0  0  0  0
  -22.4313   -8.0311   21.3559 C   0  0  0  0  0  0
  -21.9940   -9.0291   20.4646 C   0  0  0  0  0  0
  -22.7279  -10.2161   20.3049 C   0  0  0  0  0  0
  -21.6866   -6.0750   22.5281 C   0  0  0  0  0  0
  -21.4012   -6.5649   23.8229 C   0  0  0  0  0  0
  -21.3654   -5.6805   24.9168 C   0  0  0  0  0  0
  -21.6040   -4.3072   24.7215 C   0  0  0  0  0  0
  -21.8823   -3.8169   23.4335 C   0  0  0  0  0  0
  -21.9192   -4.6976   22.3393 C   0  0  0  0  0  0
  -22.7867  -13.5242   21.1829 C   0  0  0  0  0  0
  -22.1647   -4.2162   21.0962 F   0  0  0  0  0  0
  -21.5635   -3.4552   25.7718 F   0  0  0  0  0  0
  -30.0255  -13.3411   20.4379 N   0  0  0  0  0  0
  -26.3022  -12.9365   20.3360 N   0  0  0  0  0  0
  -25.9355  -11.6519   20.5765 N   0  0  0  0  0  0
  -22.0491  -12.8264   22.0402 N   0  0  0  0  0  0
  -25.4337  -15.1919   20.4072 N   0  0  0  0  0  0
  -31.8137  -14.6956   20.0760 O   0  0  0  0  0  0
  -21.6688   -6.8909   21.4260 O   0  0  0  0  0  0
  -22.3550  -14.5536   20.6661 O   0  0  0  0  0  0
  -24.6145  -31.8656   23.2096 C   0  0  0  0  0  0
  -25.8979  -32.4853   23.8436 C   0  0  1  0  0  0
  -27.2598  -27.4104   20.1059 C   0  0  0  0  0  0
  -25.5799  -33.8647   24.2371 N   0  0  0  0  0  0
  -23.4108  -30.4843   21.5498 C   0  0  2  0  0  0
  -24.8639  -28.9486   20.1146 C   0  0  0  0  0  0
  -22.7433  -29.4629   22.4991 C   0  0  0  0  0  0
  -18.0282  -28.1379   22.8515 C   0  0  0  0  0  0
  -24.1462  -36.7302   23.2655 C   0  0  0  0  0  0
  -25.9371  -30.8236   21.3639 C   0  0  0  0  0  0
  -26.0194  -29.4525   20.7201 C   0  0  0  0  0  0
  -27.2130  -28.6918   20.7132 C   0  0  0  0  0  0
  -26.0783  -26.9300   19.4968 C   0  0  0  0  0  0
  -24.8905  -27.6875   19.4962 C   0  0  0  0  0  0
  -23.6222  -29.8120   20.1657 C   0  0  0  0  0  0
  -25.4085  -36.3168   24.0404 C   0  0  1  0  0  0
  -20.5866  -28.3686   23.1313 C   0  0  2  0  0  0
  -20.6748  -26.9399   22.5453 C   0  0  0  0  0  0
  -19.5731  -26.6390   21.5235 C   0  0  0  0  0  0
  -18.1912  -26.7942   22.1632 C   0  0  0  0  0  0
  -19.1525  -28.8843   23.2926 C   0  0  0  0  0  0
  -18.9443  -30.1428   23.8985 C   0  0  0  0  0  0
  -17.6448  -30.6589   24.0567 C   0  0  0  0  0  0
  -25.9004  -34.9512   23.5212 C   0  0  0  0  0  0
  -16.5345  -29.9102   23.6290 C   0  0  0  0  0  0
  -16.7269  -28.6486   23.0379 C   0  0  0  0  0  0
  -26.4419  -31.6611   25.0739 C   0  0  0  0  0  0
  -25.3682  -31.3605   26.1475 C   0  0  0  0  0  0
  -27.0237  -30.3096   24.6011 C   0  0  0  0  0  0
  -27.6090  -32.4285   25.7406 C   0  0  0  0  0  0
  -27.5602  -37.1788   24.8476 C   0  0  0  0  0  0
  -21.4161  -29.3036   22.3716 N   0  0  0  0  0  0
  -26.4284  -37.3849   23.9457 N   0  0  0  0  0  0
  -24.6734  -31.0718   22.1026 N   0  0  0  0  0  0
  -23.4168  -28.8164   23.3064 O   0  0  0  0  0  0
  -28.4654  -26.7182   20.1542 O   0  0  0  0  0  0
  -26.5637  -34.8961   22.4810 O   0  0  0  0  0  0
  -23.5309  -32.1413   23.7471 O   0  0  0  0  0  0
  -29.8863  -19.1965   20.0499 C   0  0  0  0  0  0
  -30.0046  -18.8392   18.7191 C   0  0  0  0  0  0
  -29.9301  -16.8859   20.2433 C   0  0  0  0  0  0
  -29.0398  -20.3971   15.3163 C   0  0  0  0  0  0
  -27.6168  -19.3717   17.1501 C   0  0  0  0  0  0
  -26.9249  -23.9157   20.5625 C   0  0  0  0  0  0
  -28.4587  -25.3963   18.0213 C   0  0  0  0  0  0
  -30.0252  -20.6098   20.6343 C   0  0  0  0  0  0
  -30.1660  -19.7272   17.5174 C   0  0  0  0  0  0
  -29.1397  -22.8499   19.7471 C   0  0  0  0  0  0
  -28.8623  -20.2237   16.8363 C   0  0  0  0  0  0
  -28.4372  -24.1230   20.3474 C   0  0  1  0  0  0
  -28.7605  -25.4385   19.5327 C   0  0  2  0  0  0
  -29.7858  -18.0580   20.8951 N   0  0  0  0  0  0
  -29.9179  -15.6070   20.8925 N   0  0  0  0  0  0
  -28.8733  -21.5455   20.4489 N   0  3  0  0  0  0
  -30.0515  -17.0975   18.5016 S   0  0  0  0  0  0
  -31.4676  -12.4092   19.1527 H   0  0  0  0  0  0
  -30.2872  -11.3278   19.8381 H   0  0  0  0  0  0
  -29.7543  -11.8080   17.4276 H   0  0  0  0  0  0
  -29.6535  -13.5156   17.7707 H   0  0  0  0  0  0
  -27.8500  -11.3128   18.8254 H   0  0  0  0  0  0
  -27.3634  -12.6241   17.7835 H   0  0  0  0  0  0
  -27.6828  -14.2578   19.5557 H   0  0  0  0  0  0
  -28.6953  -12.0130   21.3752 H   0  0  0  0  0  0
  -28.4639  -13.6689   21.8570 H   0  0  0  0  0  0
  -25.2807   -9.5732   22.4751 H   0  0  0  0  0  0
  -24.0057   -7.4665   22.7501 H   0  0  0  0  0  0
  -21.0848   -8.8830   19.8975 H   0  0  0  0  0  0
  -22.3737  -10.9714   19.6190 H   0  0  0  0  0  0
  -21.2034   -7.6163   23.9732 H   0  0  0  0  0  0
  -21.1452   -6.0522   25.9077 H   0  0  0  0  0  0
  -22.0614   -2.7636   23.2831 H   0  0  0  0  0  0
  -22.4065  -11.9929   22.4823 H   0  0  0  0  0  0
  -21.1116  -13.1337   22.2545 H   0  0  0  0  0  0
  -24.6768  -15.8575   20.5188 H   0  0  0  0  0  0
  -26.2966  -15.6283   20.1105 H   0  0  0  0  0  0
  -26.7047  -32.5600   23.1203 H   0  0  0  0  0  0
  -24.9854  -33.9811   25.0452 H   0  0  0  0  0  0
  -22.7037  -31.3053   21.4071 H   0  0  0  0  0  0
  -23.3797  -35.9551   23.3299 H   0  0  0  0  0  0
  -24.3541  -36.8913   22.2062 H   0  0  0  0  0  0
  -23.7092  -37.6463   23.6643 H   0  0  0  0  0  0
  -26.0369  -31.5781   20.5827 H   0  0  0  0  0  0
  -26.8274  -30.8943   21.9751 H   0  0  0  0  0  0
  -28.1061  -29.0879   21.1783 H   0  0  0  0  0  0
  -26.0454  -25.9694   19.0169 H   0  0  0  0  0  0
  -24.0073  -27.2944   19.0111 H   0  0  0  0  0  0
  -23.7284  -30.5835   19.4029 H   0  0  0  0  0  0
  -22.7488  -29.2244   19.8794 H   0  0  0  0  0  0
  -25.1230  -36.2086   25.0903 H   0  0  0  0  0  0
  -20.9996  -28.3275   24.1415 H   0  0  0  0  0  0
  -20.5599  -26.2301   23.3661 H   0  0  0  0  0  0
  -21.6613  -26.7404   22.1246 H   0  0  0  0  0  0
  -19.6863  -25.6297   21.1251 H   0  0  0  0  0  0
  -19.6681  -27.3218   20.6776 H   0  0  0  0  0  0
  -17.4194  -26.6769   21.4018 H   0  0  0  0  0  0
  -18.0260  -26.0050   22.8978 H   0  0  0  0  0  0
  -19.7912  -30.7200   24.2441 H   0  0  0  0  0  0
  -17.5000  -31.6278   24.5142 H   0  0  0  0  0  0
  -15.5342  -30.3048   23.7521 H   0  0  0  0  0  0
  -15.8676  -28.0806   22.7110 H   0  0  0  0  0  0
  -24.5940  -30.6878   25.7736 H   0  0  0  0  0  0
  -24.8734  -32.2677   26.4965 H   0  0  0  0  0  0
  -25.8031  -30.8733   27.0216 H   0  0  0  0  0  0
  -26.2718  -29.6868   24.1149 H   0  0  0  0  0  0
  -27.4158  -29.7312   25.4381 H   0  0  0  0  0  0
  -27.8500  -30.4493   23.9041 H   0  0  0  0  0  0
  -27.2850  -33.3612   26.2031 H   0  0  0  0  0  0
  -28.3804  -32.6787   25.0107 H   0  0  0  0  0  0
  -28.0870  -31.8356   26.5213 H   0  0  0  0  0  0
  -28.2633  -38.0091   24.7625 H   0  0  0  0  0  0
  -28.1107  -36.2643   24.6188 H   0  0  0  0  0  0
  -27.2350  -37.1311   25.8889 H   0  0  0  0  0  0
  -20.9326  -29.8757   21.6923 H   0  0  0  0  0  0
  -26.0231  -38.2940   24.1502 H   0  0  0  0  0  0
  -28.1426  -20.8205   14.8619 H   0  0  0  0  0  0
  -29.2452  -19.4480   14.8172 H   0  0  0  0  0  0
  -29.8621  -21.0775   15.0885 H   0  0  0  0  0  0
  -26.7394  -19.7599   16.6309 H   0  0  0  0  0  0
  -27.3755  -19.3784   18.2133 H   0  0  0  0  0  0
  -27.7613  -18.3347   16.8448 H   0  0  0  0  0  0
  -26.7172  -23.0503   21.1901 H   0  0  0  0  0  0
  -26.3951  -23.7741   19.6196 H   0  0  0  0  0  0
  -26.4821  -24.7665   21.0825 H   0  0  0  0  0  0
  -29.1632  -24.7381   17.5139 H   0  0  0  0  0  0
  -28.5626  -26.3814   17.5630 H   0  0  0  0  0  0
  -27.4651  -25.0151   17.8033 H   0  0  0  0  0  0
  -30.9407  -21.0625   20.2516 H   0  0  0  0  0  0
  -30.1958  -20.5289   21.7079 H   0  0  0  0  0  0
  -30.7473  -19.1723   16.7780 H   0  0  0  0  0  0
  -30.8003  -20.5776   17.7715 H   0  0  0  0  0  0
  -30.2142  -23.0400   19.7080 H   0  0  0  0  0  0
  -28.8234  -22.7405   18.7131 H   0  0  0  0  0  0
  -28.6447  -21.2150   17.2275 H   0  0  0  0  0  0
  -28.8783  -24.2607   21.3360 H   0  0  0  0  0  0
  -29.8509  -25.4937   19.5600 H   0  0  0  0  0  0
  -29.0778  -15.3946   21.4086 H   0  0  0  0  0  0
  -28.5617  -21.7458   21.3846 H   0  0  0  0  0  0
  -28.1249  -21.0570   19.9865 H   0  0  0  0  0  0
  1 25  1  0  0  0
  1 30  2  0  0  0
  1 85  1  0  0  0
  2  3  1  0  0  0
  2 25  1  0  0  0
  2 88  1  0  0  0
  2 89  1  0  0  0
  3  4  1  0  0  0
  3 90  1  0  0  0
  3 91  1  0  0  0
  4  5  1  0  0  0
  4 92  1  0  0  0
  4 93  1  0  0  0
  5  6  1  0  0  0
  5 26  1  0  0  0
  5 94  1  0  0  0
  6 25  1  0  0  0
  6 95  1  0  0  0
  6 96  1  0  0  0
  7  8  2  0  0  0
  7 26  1  0  0  0
  7 29  1  0  0  0
  8  9  1  0  0  0
  8 22  1  0  0  0
  9 10  1  0  0  0
  9 27  2  0  0  0
 10 11  2  0  0  0
 10 15  1  0  0  0
 11 12  1  0  0  0
 11 97  1  0  0  0
 12 13  2  0  0  0
 12 98  1  0  0  0
 13 14  1  0  0  0
 13 31  1  0  0  0
 14 15  2  0  0  0
 14 99  1  0  0  0
 15100  1  0  0  0
 16 17  2  0  0  0
 16 21  1  0  0  0
 16 31  1  0  0  0
 17 18  1  0  0  0
 17101  1  0  0  0
 18 19  2  0  0  0
 18102  1  0  0  0
 19 20  1  0  0  0
 19 24  1  0  0  0
 20 21  2  0  0  0
 20103  1  0  0  0
 21 23  1  0  0  0
 22 28  1  0  0  0
 22 32  2  0  0  0
 26 27  1  0  0  0
 28104  1  0  0  0
 28105  1  0  0  0
 29106  1  0  0  0
 29107  1  0  0  0
 33 34  1  0  0  0
 33 66  1  0  0  0
 33 70  2  0  0  0
 34 36  1  0  0  0
 34 59  1  0  0  0
 34108  1  0  0  0
 35 44  2  0  0  0
 35 45  1  0  0  0
 35 68  1  0  0  0
 36 56  1  0  0  0
 36109  1  0  0  0
 37 39  1  0  0  0
 37 47  1  0  0  0
 37 66  1  0  0  0
 37110  1  0  0  0
 38 43  2  0  0  0
 38 46  1  0  0  0
 38 47  1  0  0  0
 39 64  1  0  0  0
 39 67  2  0  0  0
 40 52  1  0  0  0
 40 53  2  0  0  0
 40 58  1  0  0  0
 41111  1  0  0  0
 41112  1  0  0  0
 41113  1  0  0  0
 41 48  1  0  0  0
 42 43  1  0  0  0
 42 66  1  0  0  0
 42114  1  0  0  0
 42115  1  0  0  0
 43 44  1  0  0  0
 44116  1  0  0  0
 45 46  2  0  0  0
 45117  1  0  0  0
 46118  1  0  0  0
 47119  1  0  0  0
 47120  1  0  0  0
 48 56  1  0  0  0
 48 65  1  0  0  0
 48121  1  0  0  0
 49 50  1  0  0  0
 49 53  1  0  0  0
 49 64  1  0  0  0
 49122  1  0  0  0
 50 51  1  0  0  0
 50123  1  0  0  0
 50124  1  0  0  0
 51 52  1  0  0  0
 51125  1  0  0  0
 51126  1  0  0  0
 52127  1  0  0  0
 52128  1  0  0  0
 53 54  1  0  0  0
 54 55  2  0  0  0
 54129  1  0  0  0
 55 57  1  0  0  0
 55130  1  0  0  0
 56 69  2  0  0  0
 57 58  2  0  0  0
 57131  1  0  0  0
 58132  1  0  0  0
 59 60  1  0  0  0
 59 61  1  0  0  0
 59 62  1  0  0  0
 60133  1  0  0  0
 60134  1  0  0  0
 60135  1  0  0  0
 61136  1  0  0  0
 61137  1  0  0  0
 61138  1  0  0  0
 62139  1  0  0  0
 62140  1  0  0  0
 62141  1  0  0  0
 63 65  1  0  0  0
 63142  1  0  0  0
 63143  1  0  0  0
 63144  1  0  0  0
 64145  1  0  0  0
 65146  1  0  0  0
 68 83  1  0  0  0
 71 72  2  0  0  0
 71 78  1  0  0  0
 71 84  1  0  0  0
 72 79  1  0  0  0
 72 87  1  0  0  0
 73 84  2  0  0  0
 73 85  1  0  0  0
 73 87  1  0  0  0
 74147  1  0  0  0
 74148  1  0  0  0
 74149  1  0  0  0
 74 81  1  0  0  0
 75 81  1  0  0  0
 75150  1  0  0  0
 75151  1  0  0  0
 75152  1  0  0  0
 76153  1  0  0  0
 76154  1  0  0  0
 76155  1  0  0  0
 76 82  1  0  0  0
 77156  1  0  0  0
 77157  1  0  0  0
 77158  1  0  0  0
 77 83  1  0  0  0
 78 86  1  0  0  0
 78159  1  0  0  0
 78160  1  0  0  0
 79 81  1  0  0  0
 79161  1  0  0  0
 79162  1  0  0  0
 80 82  1  0  0  0
 80 86  1  0  0  0
 80163  1  0  0  0
 80164  1  0  0  0
 81165  1  0  0  0
 82 83  1  0  0  0
 82166  1  0  0  0
 83167  1  0  0  0
 85168  1  0  0  0
 86169  1  0  0  0
 86170  1  0  0  0
M  CHG  1  86   1
M  ISO  4   1 100  68 101  83 101  85 100
M  END
> <chiral flag>
0

> <version>
0

> <s_m_source_file>
/data/baiqing/PycharmProjects/Reinvent-master-3.2/result/LINK_invent/BTK/process_docking_weight1_custom_sum_contain_oxygen_bond_distance_aromatic_linkinvent_7_9_3/rearranged_h_0115.sdf

> <i_m_source_file_index>
92

> <r_mmod_Potential_Energy-OPLS-2005>
-270.586730957031

> <r_mmod_Stretch_Energy-OPLS-2005>
50.6691360473633

> <r_mmod_Bend_Energy-OPLS-2005>
152.938171386719

> <r_mmod_Torsional_Energy-OPLS-2005>
242.6806640625

> <r_mmod_Improper_Torsional_Energy-OPLS-2005>
5.71213579177856

> <r_mmod_Van_der_Waal_Energy-OPLS-2005>
116.866828918457

> <r_mmod_Electrostatic_Energy-OPLS-2005>
-393.040802001953

> <r_mmod_Solvation_Energy-OPLS-2005>
-468.145263671875

> <b_mmod_Minimization_Converged-OPLS-2005>
0

> <r_mmod_RMS_Derivative-OPLS-2005>
5.43496513366699

$$$$
92
                    3D
 Structure written by MMmdl.
165173  0  0  1  0            999 V2000
  -30.7063  -14.4323   20.5737 C   0  0  0  0  0  0
  -30.4180  -12.2789   19.4154 C   0  0  0  0  0  0
  -29.4915  -12.4989   18.2019 C   0  0  0  0  0  0
  -28.0111  -12.3697   18.6124 C   0  0  0  0  0  0
  -27.6637  -13.2009   19.8763 C   0  0  2  0  0  0
  -28.7025  -12.9578   20.9942 C   0  0  0  0  0  0
  -25.2607  -13.8152   20.5677 C   0  0  0  0  0  0
  -24.1850  -13.0443   20.9185 C   0  0  0  0  0  0
  -24.6388  -11.6905   20.8733 C   0  0  0  0  0  0
  -23.9051  -10.4295   21.0412 C   0  0  0  0  0  0
  -24.3611   -9.4214   21.9187 C   0  0  0  0  0  0
  -23.6297   -8.2243   22.0749 C   0  0  0  0  0  0
  -22.4271   -8.0279   21.3542 C   0  0  0  0  0  0
  -21.9910   -9.0252   20.4638 C   0  0  0  0  0  0
  -22.7231  -10.2136   20.3057 C   0  0  0  0  0  0
  -21.6853   -6.0743   22.5284 C   0  0  0  0  0  0
  -21.4011   -6.5644   23.8217 C   0  0  0  0  0  0
  -21.3657   -5.6796   24.9178 C   0  0  0  0  0  0
  -21.6045   -4.3059   24.7224 C   0  0  0  0  0  0
  -21.8818   -3.8152   23.4345 C   0  0  0  0  0  0
  -21.9192   -4.6973   22.3407 C   0  0  0  0  0  0
  -22.7872  -13.5253   21.1850 C   0  0  0  0  0  0
  -22.1662   -4.2163   21.0983 F   0  0  0  0  0  0
  -21.5628   -3.4537   25.7734 F   0  0  0  0  0  0
  -30.0381  -13.2544   20.4479 N   0  0  0  0  0  0
  -26.3030  -12.9311   20.3357 N   0  0  0  0  0  0
  -25.9312  -11.6475   20.5765 N   0  0  0  0  0  0
  -22.0503  -12.8241   22.0393 N   0  0  0  0  0  0
  -25.4346  -15.1869   20.4069 N   0  0  0  0  0  0
  -31.8336  -14.5995   20.0945 O   0  0  0  0  0  0
  -21.6631   -6.8879   21.4242 O   0  0  0  0  0  0
  -22.3568  -14.5570   20.6708 O   0  0  0  0  0  0
  -24.6124  -31.8713   23.2130 C   0  0  0  0  0  0
  -25.9027  -32.4848   23.8423 C   0  0  1  0  0  0
  -27.2327  -27.4640   20.0897 C   0  0  0  0  0  0
  -25.5868  -33.8641   24.2359 N   0  0  0  0  0  0
  -23.3997  -30.4954   21.5510 C   0  0  2  0  0  0
  -24.8481  -28.9630   20.1164 C   0  0  0  0  0  0
  -22.7411  -29.4677   22.4995 C   0  0  0  0  0  0
  -18.0287  -28.1380   22.8478 C   0  0  0  0  0  0
  -24.1491  -36.7315   23.2643 C   0  0  0  0  0  0
  -25.9272  -30.8406   21.3669 C   0  0  0  0  0  0
  -26.0035  -29.4750   20.7210 C   0  0  0  0  0  0
  -27.2012  -28.7274   20.7185 C   0  0  0  0  0  0
  -26.0707  -26.9625   19.4748 C   0  0  0  0  0  0
  -24.8726  -27.7011   19.4946 C   0  0  0  0  0  0
  -23.6091  -29.8278   20.1658 C   0  0  0  0  0  0
  -25.4099  -36.3131   24.0364 C   0  0  1  0  0  0
  -20.5870  -28.3649   23.1327 C   0  0  2  0  0  0
  -20.6778  -26.9381   22.5424 C   0  0  0  0  0  0
  -19.5757  -26.6378   21.5221 C   0  0  0  0  0  0
  -18.1932  -26.7926   22.1625 C   0  0  0  0  0  0
  -19.1531  -28.8828   23.2899 C   0  0  0  0  0  0
  -18.9460  -30.1430   23.8908 C   0  0  0  0  0  0
  -17.6465  -30.6567   24.0571 C   0  0  0  0  0  0
  -25.9017  -34.9487   23.5158 C   0  0  0  0  0  0
  -16.5356  -29.9079   23.6329 C   0  0  0  0  0  0
  -16.7274  -28.6507   23.0331 C   0  0  0  0  0  0
  -26.4444  -31.6622   25.0750 C   0  0  0  0  0  0
  -25.3706  -31.3727   26.1501 C   0  0  0  0  0  0
  -27.0285  -30.3089   24.6080 C   0  0  0  0  0  0
  -27.6037  -32.4315   25.7493 C   0  0  0  0  0  0
  -27.5589  -37.1805   24.8462 C   0  0  0  0  0  0
  -21.4142  -29.3038   22.3756 N   0  0  0  0  0  0
  -26.4290  -37.3814   23.9418 N   0  0  0  0  0  0
  -24.6643  -31.0837   22.1017 N   0  0  0  0  0  0
  -23.4208  -28.8230   23.3027 O   0  0  0  0  0  0
  -28.3721  -26.7068   20.0220 O   0  0  0  0  0  0
  -26.5581  -34.8925   22.4723 O   0  0  0  0  0  0
  -23.5321  -32.1448   23.7530 O   0  0  0  0  0  0
  -29.4324  -17.6035   21.9907 C   0  0  0  0  0  0
  -31.2394  -18.7462   20.2969 C   0  0  0  0  0  0
  -30.5424  -19.6078   21.1673 C   0  0  0  0  0  0
  -29.5880  -19.0069   22.0294 C   0  0  0  0  0  0
  -30.2171  -16.8177   21.1225 C   0  0  0  0  0  0
  -30.9601  -21.0281   21.1489 C   0  0  0  0  0  0
  -30.8766  -21.9463   22.1316 C   0  0  0  0  0  0
  -28.7147  -19.8039   22.9837 C   0  0  0  0  0  0
  -32.6162  -23.5007   22.9719 C   0  0  0  0  0  0
  -28.3459  -23.8243   20.8459 C   0  0  0  0  0  0
  -30.3670  -24.4588   22.2949 C   0  0  0  0  0  0
  -28.8889  -26.2724   21.2746 C   0  0  0  0  0  0
  -31.4208  -23.3604   22.0167 C   0  0  2  0  0  0
  -29.4683  -24.8500   21.0986 C   0  0  2  0  0  0
  -31.0839  -17.4088   20.2709 N   0  0  0  0  0  0
  -30.0125  -15.4123   21.1817 N   0  0  0  0  0  0
  -31.4632  -12.3665   19.1138 H   0  0  0  0  0  0
  -30.3087  -11.2636   19.8002 H   0  0  0  0  0  0
  -29.7233  -11.7789   17.4153 H   0  0  0  0  0  0
  -29.6701  -13.4871   17.7741 H   0  0  0  0  0  0
  -27.8101  -11.3132   18.7970 H   0  0  0  0  0  0
  -27.3644  -12.6580   17.7833 H   0  0  0  0  0  0
  -27.7156  -14.2518   19.5912 H   0  0  0  0  0  0
  -28.6686  -11.9160   21.3166 H   0  0  0  0  0  0
  -28.4658  -13.5398   21.8849 H   0  0  0  0  0  0
  -25.2761   -9.5693   22.4757 H   0  0  0  0  0  0
  -24.0012   -7.4634   22.7463 H   0  0  0  0  0  0
  -21.0846   -8.8774   19.8937 H   0  0  0  0  0  0
  -22.3701  -10.9678   19.6163 H   0  0  0  0  0  0
  -21.1995   -7.6150   23.9732 H   0  0  0  0  0  0
  -21.1479   -6.0517   25.9084 H   0  0  0  0  0  0
  -22.0594   -2.7616   23.2840 H   0  0  0  0  0  0
  -22.4103  -11.9895   22.4784 H   0  0  0  0  0  0
  -21.1119  -13.1263   22.2582 H   0  0  0  0  0  0
  -24.6682  -15.8431   20.5116 H   0  0  0  0  0  0
  -26.2850  -15.6231   20.0730 H   0  0  0  0  0  0
  -26.7105  -32.5575   23.1198 H   0  0  0  0  0  0
  -25.0057  -33.9805   25.0531 H   0  0  0  0  0  0
  -22.6865  -31.3110   21.4108 H   0  0  0  0  0  0
  -23.3768  -35.9637   23.3310 H   0  0  0  0  0  0
  -24.3602  -36.8910   22.2057 H   0  0  0  0  0  0
  -23.7231  -37.6518   23.6635 H   0  0  0  0  0  0
  -26.0394  -31.6018   20.5938 H   0  0  0  0  0  0
  -26.8176  -30.8945   21.9815 H   0  0  0  0  0  0
  -28.0958  -29.1214   21.1788 H   0  0  0  0  0  0
  -26.0970  -25.9998   18.9827 H   0  0  0  0  0  0
  -23.9866  -27.3005   19.0220 H   0  0  0  0  0  0
  -23.7175  -30.6017   19.4060 H   0  0  0  0  0  0
  -22.7346  -29.2468   19.8681 H   0  0  0  0  0  0
  -25.1281  -36.2006   25.0863 H   0  0  0  0  0  0
  -20.9947  -28.3188   24.1449 H   0  0  0  0  0  0
  -20.5692  -26.2233   23.3598 H   0  0  0  0  0  0
  -21.6646  -26.7436   22.1197 H   0  0  0  0  0  0
  -19.6922  -25.6299   21.1220 H   0  0  0  0  0  0
  -19.6712  -27.3211   20.6772 H   0  0  0  0  0  0
  -17.4211  -26.6674   21.4018 H   0  0  0  0  0  0
  -18.0306  -26.0055   22.9002 H   0  0  0  0  0  0
  -19.7935  -30.7234   24.2277 H   0  0  0  0  0  0
  -17.5029  -31.6246   24.5162 H   0  0  0  0  0  0
  -15.5360  -30.3002   23.7634 H   0  0  0  0  0  0
  -15.8671  -28.0853   22.7028 H   0  0  0  0  0  0
  -24.5858  -30.7103   25.7838 H   0  0  0  0  0  0
  -24.8916  -32.2887   26.4961 H   0  0  0  0  0  0
  -25.8045  -30.8880   27.0261 H   0  0  0  0  0  0
  -26.2846  -29.6854   24.1103 H   0  0  0  0  0  0
  -27.4091  -29.7302   25.4510 H   0  0  0  0  0  0
  -27.8658  -30.4480   23.9237 H   0  0  0  0  0  0
  -27.2689  -33.3606   26.2110 H   0  0  0  0  0  0
  -28.3810  -32.6870   25.0285 H   0  0  0  0  0  0
  -28.0734  -31.8407   26.5360 H   0  0  0  0  0  0
  -28.2592  -38.0120   24.7529 H   0  0  0  0  0  0
  -28.1102  -36.2645   24.6255 H   0  0  0  0  0  0
  -27.2305  -37.1409   25.8867 H   0  0  0  0  0  0
  -20.9283  -29.8757   21.6987 H   0  0  0  0  0  0
  -26.0196  -38.2905   24.1419 H   0  0  0  0  0  0
  -28.7156  -17.1314   22.6487 H   0  0  0  0  0  0
  -31.9828  -19.1374   19.6167 H   0  0  0  0  0  0
  -31.4053  -21.3520   20.2178 H   0  0  0  0  0  0
  -30.4453  -21.7049   23.0897 H   0  0  0  0  0  0
  -27.8110  -19.2521   23.2413 H   0  0  0  0  0  0
  -28.3983  -20.7473   22.5390 H   0  0  0  0  0  0
  -29.2513  -20.0074   23.9100 H   0  0  0  0  0  0
  -33.3666  -22.7327   22.7812 H   0  0  0  0  0  0
  -32.3120  -23.4078   24.0154 H   0  0  0  0  0  0
  -33.1064  -24.4676   22.8536 H   0  0  0  0  0  0
  -28.7479  -22.8630   20.5291 H   0  0  0  0  0  0
  -27.6702  -24.1623   20.0591 H   0  0  0  0  0  0
  -27.7477  -23.6571   21.7429 H   0  0  0  0  0  0
  -30.9181  -25.3546   22.5857 H   0  0  0  0  0  0
  -29.7626  -24.2038   23.1659 H   0  0  0  0  0  0
  -29.6660  -26.9748   21.5784 H   0  0  0  0  0  0
  -28.1302  -26.2755   22.0619 H   0  0  0  0  0  0
  -31.8081  -23.5018   21.0066 H   0  0  0  0  0  0
  -30.1013  -24.8839   20.2105 H   0  0  0  0  0  0
  -29.1626  -15.1147   21.6326 H   0  0  0  0  0  0
  1 25  1  0  0  0
  1 30  2  0  0  0
  1 86  1  0  0  0
  2  3  1  0  0  0
  2 25  1  0  0  0
  2 87  1  0  0  0
  2 88  1  0  0  0
  3  4  1  0  0  0
  3 89  1  0  0  0
  3 90  1  0  0  0
  4  5  1  0  0  0
  4 91  1  0  0  0
  4 92  1  0  0  0
  5  6  1  0  0  0
  5 26  1  0  0  0
  5 93  1  0  0  0
  6 25  1  0  0  0
  6 94  1  0  0  0
  6 95  1  0  0  0
  7  8  2  0  0  0
  7 26  1  0  0  0
  7 29  1  0  0  0
  8  9  1  0  0  0
  8 22  1  0  0  0
  9 10  1  0  0  0
  9 27  2  0  0  0
 10 11  2  0  0  0
 10 15  1  0  0  0
 11 12  1  0  0  0
 11 96  1  0  0  0
 12 13  2  0  0  0
 12 97  1  0  0  0
 13 14  1  0  0  0
 13 31  1  0  0  0
 14 15  2  0  0  0
 14 98  1  0  0  0
 15 99  1  0  0  0
 16 17  2  0  0  0
 16 21  1  0  0  0
 16 31  1  0  0  0
 17 18  1  0  0  0
 17100  1  0  0  0
 18 19  2  0  0  0
 18101  1  0  0  0
 19 20  1  0  0  0
 19 24  1  0  0  0
 20 21  2  0  0  0
 20102  1  0  0  0
 21 23  1  0  0  0
 22 28  1  0  0  0
 22 32  2  0  0  0
 26 27  1  0  0  0
 28103  1  0  0  0
 28104  1  0  0  0
 29105  1  0  0  0
 29106  1  0  0  0
 33 34  1  0  0  0
 33 66  1  0  0  0
 33 70  2  0  0  0
 34 36  1  0  0  0
 34 59  1  0  0  0
 34107  1  0  0  0
 35 44  2  0  0  0
 35 45  1  0  0  0
 35 68  1  0  0  0
 36 56  1  0  0  0
 36108  1  0  0  0
 37 39  1  0  0  0
 37 47  1  0  0  0
 37 66  1  0  0  0
 37109  1  0  0  0
 38 43  2  0  0  0
 38 46  1  0  0  0
 38 47  1  0  0  0
 39 64  1  0  0  0
 39 67  2  0  0  0
 40 52  1  0  0  0
 40 53  2  0  0  0
 40 58  1  0  0  0
 41110  1  0  0  0
 41111  1  0  0  0
 41112  1  0  0  0
 41 48  1  0  0  0
 42 43  1  0  0  0
 42 66  1  0  0  0
 42113  1  0  0  0
 42114  1  0  0  0
 43 44  1  0  0  0
 44115  1  0  0  0
 45 46  2  0  0  0
 45116  1  0  0  0
 46117  1  0  0  0
 47118  1  0  0  0
 47119  1  0  0  0
 48 56  1  0  0  0
 48 65  1  0  0  0
 48120  1  0  0  0
 49 50  1  0  0  0
 49 53  1  0  0  0
 49 64  1  0  0  0
 49121  1  0  0  0
 50 51  1  0  0  0
 50122  1  0  0  0
 50123  1  0  0  0
 51 52  1  0  0  0
 51124  1  0  0  0
 51125  1  0  0  0
 52126  1  0  0  0
 52127  1  0  0  0
 53 54  1  0  0  0
 54 55  2  0  0  0
 54128  1  0  0  0
 55 57  1  0  0  0
 55129  1  0  0  0
 56 69  2  0  0  0
 57 58  2  0  0  0
 57130  1  0  0  0
 58131  1  0  0  0
 59 60  1  0  0  0
 59 61  1  0  0  0
 59 62  1  0  0  0
 60132  1  0  0  0
 60133  1  0  0  0
 60134  1  0  0  0
 61135  1  0  0  0
 61136  1  0  0  0
 61137  1  0  0  0
 62138  1  0  0  0
 62139  1  0  0  0
 62140  1  0  0  0
 63 65  1  0  0  0
 63141  1  0  0  0
 63142  1  0  0  0
 63143  1  0  0  0
 64144  1  0  0  0
 65145  1  0  0  0
 68 82  1  0  0  0
 71 74  2  0  0  0
 71 75  1  0  0  0
 71146  1  0  0  0
 72 73  2  0  0  0
 72 85  1  0  0  0
 72147  1  0  0  0
 73 74  1  0  0  0
 73 76  1  0  0  0
 74 78  1  0  0  0
 75 85  2  0  0  0
 75 86  1  0  0  0
 76 77  2  0  0  0
 76148  1  0  0  0
 77 83  1  0  0  0
 77149  1  0  0  0
 78150  1  0  0  0
 78151  1  0  0  0
 78152  1  0  0  0
 79153  1  0  0  0
 79154  1  0  0  0
 79155  1  0  0  0
 79 83  1  0  0  0
 80156  1  0  0  0
 80157  1  0  0  0
 80158  1  0  0  0
 80 84  1  0  0  0
 81 83  1  0  0  0
 81 84  1  0  0  0
 81159  1  0  0  0
 81160  1  0  0  0
 82 84  1  0  0  0
 82161  1  0  0  0
 82162  1  0  0  0
 83163  1  0  0  0
 84164  1  0  0  0
 86165  1  0  0  0
M  ISO  4   1 100  68 101  82 101  86 100
M  END
> <chiral flag>
0

> <version>
0

> <s_m_source_file>
/data/baiqing/PycharmProjects/Reinvent-master-3.2/result/LINK_invent/BTK/process_docking_weight1_custom_sum_contain_oxygen_bond_distance_aromatic_linkinvent_7_9_3/rearranged_h_0115.sdf

> <i_m_source_file_index>
93

> <r_mmod_Potential_Energy-OPLS-2005>
-135.766250610352

> <r_mmod_Stretch_Energy-OPLS-2005>
33.5088424682617

> <r_mmod_Bend_Energy-OPLS-2005>
105.055572509766

> <r_mmod_Torsional_Energy-OPLS-2005>
233.166091918945

> <r_mmod_Improper_Torsional_Energy-OPLS-2005>
3.2479202747345

> <r_mmod_Van_der_Waal_Energy-OPLS-2005>
158.082778930664

> <r_mmod_Electrostatic_Energy-OPLS-2005>
-455.951843261719

> <r_mmod_Solvation_Energy-OPLS-2005>
-222.512786865234

> <b_mmod_Minimization_Converged-OPLS-2005>
0

> <r_mmod_RMS_Derivative-OPLS-2005>
2.29640960693359

$$$$
93
                    3D
 Structure written by MMmdl.
172180  0  0  1  0            999 V2000
  -30.6966  -14.4378   20.6397 C   0  0  0  0  0  0
  -30.4243  -12.3462   19.3633 C   0  0  0  0  0  0
  -29.4742  -12.5592   18.1661 C   0  0  0  0  0  0
  -28.0076  -12.3504   18.5859 C   0  0  0  0  0  0
  -27.6530  -13.1742   19.8520 C   0  0  2  0  0  0
  -28.6987  -12.9306   20.9616 C   0  0  0  0  0  0
  -25.2576  -13.8001   20.5559 C   0  0  0  0  0  0
  -24.1839  -13.0387   20.9144 C   0  0  0  0  0  0
  -24.6344  -11.6830   20.8711 C   0  0  0  0  0  0
  -23.9012  -10.4251   21.0434 C   0  0  0  0  0  0
  -24.3589   -9.4169   21.9207 C   0  0  0  0  0  0
  -23.6255   -8.2230   22.0772 C   0  0  0  0  0  0
  -22.4227   -8.0264   21.3556 C   0  0  0  0  0  0
  -21.9848   -9.0242   20.4671 C   0  0  0  0  0  0
  -22.7197  -10.2104   20.3086 C   0  0  0  0  0  0
  -21.6846   -6.0714   22.5279 C   0  0  0  0  0  0
  -21.4000   -6.5635   23.8204 C   0  0  0  0  0  0
  -21.3659   -5.6813   24.9168 C   0  0  0  0  0  0
  -21.6041   -4.3074   24.7245 C   0  0  0  0  0  0
  -21.8826   -3.8138   23.4379 C   0  0  0  0  0  0
  -21.9164   -4.6940   22.3411 C   0  0  0  0  0  0
  -22.7894  -13.5258   21.1852 C   0  0  0  0  0  0
  -22.1646   -4.2117   21.1006 F   0  0  0  0  0  0
  -21.5607   -3.4554   25.7763 F   0  0  0  0  0  0
  -30.0238  -13.2789   20.4263 N   0  0  0  0  0  0
  -26.2978  -12.9142   20.3178 N   0  0  0  0  0  0
  -25.9244  -11.6346   20.5650 N   0  0  0  0  0  0
  -22.0547  -12.8287   22.0420 N   0  0  0  0  0  0
  -25.4331  -15.1687   20.3894 N   0  0  0  0  0  0
  -31.7751  -14.7037   20.1042 O   0  0  0  0  0  0
  -21.6613   -6.8849   21.4240 O   0  0  0  0  0  0
  -22.3663  -14.5611   20.6679 O   0  0  0  0  0  0
  -24.6151  -31.8683   23.2062 C   0  0  0  0  0  0
  -25.9054  -32.4822   23.8375 C   0  0  1  0  0  0
  -27.2405  -27.4225   20.1032 C   0  0  0  0  0  0
  -25.5929  -33.8616   24.2324 N   0  0  0  0  0  0
  -23.4049  -30.4848   21.5483 C   0  0  2  0  0  0
  -24.8521  -28.9355   20.1286 C   0  0  0  0  0  0
  -22.7379  -29.4678   22.5005 C   0  0  0  0  0  0
  -18.0236  -28.1370   22.8502 C   0  0  0  0  0  0
  -24.1513  -36.7303   23.2638 C   0  0  0  0  0  0
  -25.9323  -30.8227   21.3635 C   0  0  0  0  0  0
  -26.0104  -29.4503   20.7242 C   0  0  0  0  0  0
  -27.2082  -28.6990   20.7132 C   0  0  0  0  0  0
  -26.0666  -26.9152   19.5144 C   0  0  0  0  0  0
  -24.8732  -27.6634   19.5253 C   0  0  0  0  0  0
  -23.6158  -29.8055   20.1672 C   0  0  0  0  0  0
  -25.4133  -36.3127   24.0347 C   0  0  1  0  0  0
  -20.5832  -28.3667   23.1276 C   0  0  2  0  0  0
  -20.6715  -26.9395   22.5389 C   0  0  0  0  0  0
  -19.5682  -26.6387   21.5190 C   0  0  0  0  0  0
  -18.1876  -26.7909   22.1643 C   0  0  0  0  0  0
  -19.1483  -28.8824   23.2886 C   0  0  0  0  0  0
  -18.9436  -30.1447   23.8876 C   0  0  0  0  0  0
  -17.6441  -30.6601   24.0521 C   0  0  0  0  0  0
  -25.9056  -34.9484   23.5134 C   0  0  0  0  0  0
  -16.5334  -29.9094   23.6315 C   0  0  0  0  0  0
  -16.7219  -28.6508   23.0349 C   0  0  0  0  0  0
  -26.4485  -31.6567   25.0674 C   0  0  0  0  0  0
  -25.3758  -31.3638   26.1420 C   0  0  0  0  0  0
  -27.0279  -30.3008   24.6010 C   0  0  0  0  0  0
  -27.6092  -32.4260   25.7410 C   0  0  0  0  0  0
  -27.5596  -37.1818   24.8469 C   0  0  0  0  0  0
  -21.4121  -29.3018   22.3680 N   0  0  0  0  0  0
  -26.4324  -37.3799   23.9408 N   0  0  0  0  0  0
  -24.6691  -31.0775   22.0956 N   0  0  0  0  0  0
  -23.4156  -28.8269   23.3090 O   0  0  0  0  0  0
  -28.4216  -26.7233   19.9887 O   0  0  0  0  0  0
  -26.5606  -34.8940   22.4689 O   0  0  0  0  0  0
  -23.5348  -32.1439   23.7452 O   0  0  0  0  0  0
  -26.5339  -19.3423   19.1126 C   0  0  0  0  0  0
  -27.4065  -18.1722   19.6198 C   0  0  0  0  0  0
  -28.7559  -19.7852   20.9557 C   0  0  0  0  0  0
  -26.3858  -20.4476   20.1819 C   0  0  2  0  0  0
  -27.8331  -20.9377   20.4705 C   0  0  1  0  0  0
  -25.3750  -21.0045   22.5314 C   0  0  0  0  0  0
  -24.0819  -19.5624   20.9566 C   0  0  0  0  0  0
  -28.2638  -24.2168   20.2929 C   0  0  0  0  0  0
  -29.1472  -16.3138   21.1640 C   0  0  0  0  0  0
  -29.7306  -17.5339   20.3863 C   0  0  0  0  0  0
  -28.6338  -25.6112   20.8674 C   0  0  0  0  0  0
  -28.7922  -23.0563   21.1812 C   0  0  0  0  0  0
  -25.5059  -19.9778   21.3936 C   0  0  0  0  0  0
  -30.1588  -15.2968   21.5164 N   0  0  0  0  0  0
  -28.7707  -18.6252   20.0124 N   0  3  2  0  0  0
  -27.8234  -22.0290   21.3899 O   0  0  0  0  0  0
  -31.4594  -12.4872   19.0475 H   0  0  0  0  0  0
  -30.3838  -11.3208   19.7285 H   0  0  0  0  0  0
  -29.7418  -11.8806   17.3565 H   0  0  0  0  0  0
  -29.5964  -13.5703   17.7666 H   0  0  0  0  0  0
  -27.8641  -11.2831   18.7626 H   0  0  0  0  0  0
  -27.3397  -12.6022   17.7608 H   0  0  0  0  0  0
  -27.6917  -14.2144   19.5514 H   0  0  0  0  0  0
  -28.6956  -11.8698   21.2166 H   0  0  0  0  0  0
  -28.4494  -13.4586   21.8835 H   0  0  0  0  0  0
  -25.2749   -9.5631   22.4760 H   0  0  0  0  0  0
  -23.9968   -7.4624   22.7501 H   0  0  0  0  0  0
  -21.0766   -8.8762   19.8985 H   0  0  0  0  0  0
  -22.3684  -10.9641   19.6190 H   0  0  0  0  0  0
  -21.2010   -7.6154   23.9690 H   0  0  0  0  0  0
  -21.1474   -6.0546   25.9067 H   0  0  0  0  0  0
  -22.0602   -2.7594   23.2886 H   0  0  0  0  0  0
  -22.4197  -11.9903   22.4726 H   0  0  0  0  0  0
  -21.1172  -13.1251   22.2734 H   0  0  0  0  0  0
  -24.6361  -15.7932   20.4300 H   0  0  0  0  0  0
  -26.2297  -15.5443   19.9032 H   0  0  0  0  0  0
  -26.7109  -32.5535   23.1128 H   0  0  0  0  0  0
  -25.0142  -33.9766   25.0519 H   0  0  0  0  0  0
  -22.6950  -31.3003   21.3991 H   0  0  0  0  0  0
  -23.3775  -35.9626   23.3328 H   0  0  0  0  0  0
  -24.3593  -36.8875   22.2035 H   0  0  0  0  0  0
  -23.7251  -37.6523   23.6609 H   0  0  0  0  0  0
  -26.0461  -31.5789   20.5873 H   0  0  0  0  0  0
  -26.8232  -30.8858   21.9791 H   0  0  0  0  0  0
  -28.1074  -29.0968   21.1617 H   0  0  0  0  0  0
  -26.0816  -25.9503   19.0291 H   0  0  0  0  0  0
  -23.9813  -27.2591   19.0646 H   0  0  0  0  0  0
  -23.7265  -30.5724   19.4005 H   0  0  0  0  0  0
  -22.7436  -29.2214   19.8708 H   0  0  0  0  0  0
  -25.1308  -36.2005   25.0834 H   0  0  0  0  0  0
  -20.9911  -28.3237   24.1398 H   0  0  0  0  0  0
  -20.5614  -26.2283   23.3582 H   0  0  0  0  0  0
  -21.6575  -26.7413   22.1184 H   0  0  0  0  0  0
  -19.6849  -25.6327   21.1157 H   0  0  0  0  0  0
  -19.6567  -27.3235   20.6750 H   0  0  0  0  0  0
  -17.4135  -26.6651   21.4059 H   0  0  0  0  0  0
  -18.0271  -26.0047   22.9052 H   0  0  0  0  0  0
  -19.7927  -30.7268   24.2223 H   0  0  0  0  0  0
  -17.4997  -31.6290   24.5097 H   0  0  0  0  0  0
  -15.5341  -30.3034   23.7586 H   0  0  0  0  0  0
  -15.8614  -28.0838   22.7063 H   0  0  0  0  0  0
  -24.5972  -30.6951   25.7744 H   0  0  0  0  0  0
  -24.8905  -32.2758   26.4886 H   0  0  0  0  0  0
  -25.8141  -30.8795   27.0157 H   0  0  0  0  0  0
  -26.2771  -29.6768   24.1150 H   0  0  0  0  0  0
  -27.4140  -29.7245   25.4425 H   0  0  0  0  0  0
  -27.8582  -30.4316   23.9067 H   0  0  0  0  0  0
  -27.2763  -33.3558   26.2023 H   0  0  0  0  0  0
  -28.3868  -32.6811   25.0200 H   0  0  0  0  0  0
  -28.0788  -31.8345   26.5278 H   0  0  0  0  0  0
  -28.2653  -38.0088   24.7526 H   0  0  0  0  0  0
  -28.1081  -36.2628   24.6320 H   0  0  0  0  0  0
  -27.2309  -37.1481   25.8875 H   0  0  0  0  0  0
  -20.9331  -29.8569   21.6730 H   0  0  0  0  0  0
  -26.0231  -38.2899   24.1365 H   0  0  0  0  0  0
  -25.5638  -18.9940   18.7631 H   0  0  0  0  0  0
  -26.9964  -19.7601   18.2148 H   0  0  0  0  0  0
  -27.4653  -17.4121   18.8411 H   0  0  0  0  0  0
  -26.9212  -17.6947   20.4715 H   0  0  0  0  0  0
  -28.4666  -19.4515   21.9524 H   0  0  0  0  0  0
  -29.7714  -20.1745   21.0392 H   0  0  0  0  0  0
  -25.8626  -21.2891   19.7254 H   0  0  0  0  0  0
  -28.2297  -21.3169   19.5253 H   0  0  0  0  0  0
  -26.3148  -21.1004   23.0742 H   0  0  0  0  0  0
  -24.6351  -20.6850   23.2675 H   0  0  0  0  0  0
  -25.0793  -21.9876   22.1601 H   0  0  0  0  0  0
  -24.0757  -18.6608   20.3450 H   0  0  0  0  0  0
  -23.5703  -20.3450   20.3946 H   0  0  0  0  0  0
  -23.4613  -19.3352   21.8244 H   0  0  0  0  0  0
  -28.6671  -24.1060   19.2846 H   0  0  0  0  0  0
  -27.1834  -24.1422   20.1863 H   0  0  0  0  0  0
  -28.6600  -16.6319   22.0864 H   0  0  0  0  0  0
  -28.3645  -15.8559   20.5719 H   0  0  0  0  0  0
  -30.5838  -17.9543   20.9188 H   0  0  0  0  0  0
  -30.1356  -17.1582   19.4505 H   0  0  0  0  0  0
  -29.7028  -25.6103   21.0836 H   0  0  0  0  0  0
  -28.1395  -25.7744   21.8264 H   0  0  0  0  0  0
  -29.0182  -23.4437   22.1748 H   0  0  0  0  0  0
  -29.7385  -22.6563   20.8081 H   0  0  0  0  0  0
  -25.9641  -19.1004   21.8485 H   0  0  0  0  0  0
  -30.8963  -15.7226   22.0566 H   0  0  0  0  0  0
  -29.1757  -18.9964   19.1624 H   0  0  0  0  0  0
  1 25  1  0  0  0
  1 30  2  0  0  0
  1 84  1  0  0  0
  2  3  1  0  0  0
  2 25  1  0  0  0
  2 87  1  0  0  0
  2 88  1  0  0  0
  3  4  1  0  0  0
  3 89  1  0  0  0
  3 90  1  0  0  0
  4  5  1  0  0  0
  4 91  1  0  0  0
  4 92  1  0  0  0
  5  6  1  0  0  0
  5 26  1  0  0  0
  5 93  1  0  0  0
  6 25  1  0  0  0
  6 94  1  0  0  0
  6 95  1  0  0  0
  7  8  2  0  0  0
  7 26  1  0  0  0
  7 29  1  0  0  0
  8  9  1  0  0  0
  8 22  1  0  0  0
  9 10  1  0  0  0
  9 27  2  0  0  0
 10 11  2  0  0  0
 10 15  1  0  0  0
 11 12  1  0  0  0
 11 96  1  0  0  0
 12 13  2  0  0  0
 12 97  1  0  0  0
 13 14  1  0  0  0
 13 31  1  0  0  0
 14 15  2  0  0  0
 14 98  1  0  0  0
 15 99  1  0  0  0
 16 17  2  0  0  0
 16 21  1  0  0  0
 16 31  1  0  0  0
 17 18  1  0  0  0
 17100  1  0  0  0
 18 19  2  0  0  0
 18101  1  0  0  0
 19 20  1  0  0  0
 19 24  1  0  0  0
 20 21  2  0  0  0
 20102  1  0  0  0
 21 23  1  0  0  0
 22 28  1  0  0  0
 22 32  2  0  0  0
 26 27  1  0  0  0
 28103  1  0  0  0
 28104  1  0  0  0
 29105  1  0  0  0
 29106  1  0  0  0
 33 34  1  0  0  0
 33 66  1  0  0  0
 33 70  2  0  0  0
 34 36  1  0  0  0
 34 59  1  0  0  0
 34107  1  0  0  0
 35 44  2  0  0  0
 35 45  1  0  0  0
 35 68  1  0  0  0
 36 56  1  0  0  0
 36108  1  0  0  0
 37 39  1  0  0  0
 37 47  1  0  0  0
 37 66  1  0  0  0
 37109  1  0  0  0
 38 43  2  0  0  0
 38 46  1  0  0  0
 38 47  1  0  0  0
 39 64  1  0  0  0
 39 67  2  0  0  0
 40 52  1  0  0  0
 40 53  2  0  0  0
 40 58  1  0  0  0
 41110  1  0  0  0
 41111  1  0  0  0
 41112  1  0  0  0
 41 48  1  0  0  0
 42 43  1  0  0  0
 42 66  1  0  0  0
 42113  1  0  0  0
 42114  1  0  0  0
 43 44  1  0  0  0
 44115  1  0  0  0
 45 46  2  0  0  0
 45116  1  0  0  0
 46117  1  0  0  0
 47118  1  0  0  0
 47119  1  0  0  0
 48 56  1  0  0  0
 48 65  1  0  0  0
 48120  1  0  0  0
 49 50  1  0  0  0
 49 53  1  0  0  0
 49 64  1  0  0  0
 49121  1  0  0  0
 50 51  1  0  0  0
 50122  1  0  0  0
 50123  1  0  0  0
 51 52  1  0  0  0
 51124  1  0  0  0
 51125  1  0  0  0
 52126  1  0  0  0
 52127  1  0  0  0
 53 54  1  0  0  0
 54 55  2  0  0  0
 54128  1  0  0  0
 55 57  1  0  0  0
 55129  1  0  0  0
 56 69  2  0  0  0
 57 58  2  0  0  0
 57130  1  0  0  0
 58131  1  0  0  0
 59 60  1  0  0  0
 59 61  1  0  0  0
 59 62  1  0  0  0
 60132  1  0  0  0
 60133  1  0  0  0
 60134  1  0  0  0
 61135  1  0  0  0
 61136  1  0  0  0
 61137  1  0  0  0
 62138  1  0  0  0
 62139  1  0  0  0
 62140  1  0  0  0
 63 65  1  0  0  0
 63141  1  0  0  0
 63142  1  0  0  0
 63143  1  0  0  0
 64144  1  0  0  0
 65145  1  0  0  0
 68 81  1  0  0  0
 71 72  1  0  0  0
 71146  1  0  0  0
 71147  1  0  0  0
 71 74  1  0  0  0
 72 85  1  0  0  0
 72148  1  0  0  0
 72149  1  0  0  0
 73 75  1  0  0  0
 73 85  1  0  0  0
 73150  1  0  0  0
 73151  1  0  0  0
 74 75  1  0  0  0
 74 83  1  0  0  0
 74152  1  0  0  0
 75 86  1  0  0  0
 75153  1  0  0  0
 76154  1  0  0  0
 76155  1  0  0  0
 76156  1  0  0  0
 76 83  1  0  0  0
 77 83  1  0  0  0
 77157  1  0  0  0
 77158  1  0  0  0
 77159  1  0  0  0
 78 81  1  0  0  0
 78 82  1  0  0  0
 78160  1  0  0  0
 78161  1  0  0  0
 79 80  1  0  0  0
 79 84  1  0  0  0
 79162  1  0  0  0
 79163  1  0  0  0
 80164  1  0  0  0
 80165  1  0  0  0
 80 85  1  0  0  0
 81166  1  0  0  0
 81167  1  0  0  0
 82 86  1  0  0  0
 82168  1  0  0  0
 82169  1  0  0  0
 83170  1  0  0  0
 84171  1  0  0  0
 85172  1  0  0  0
M  CHG  1  85   1
M  ISO  4   1 100  68 101  81 101  84 100
M  END
> <chiral flag>
0

> <version>
0

> <s_m_source_file>
/data/baiqing/PycharmProjects/Reinvent-master-3.2/result/LINK_invent/BTK/process_docking_weight1_custom_sum_contain_oxygen_bond_distance_aromatic_linkinvent_7_9_3/rearranged_h_0115.sdf

> <i_m_source_file_index>
94

> <r_mmod_Potential_Energy-OPLS-2005>
8.17045497894287

> <r_mmod_Stretch_Energy-OPLS-2005>
40.9589347839355

> <r_mmod_Bend_Energy-OPLS-2005>
130.998718261719

> <r_mmod_Torsional_Energy-OPLS-2005>
348.786071777344

> <r_mmod_Improper_Torsional_Energy-OPLS-2005>
8.00717353820801

> <r_mmod_Van_der_Waal_Energy-OPLS-2005>
129.119064331055

> <r_mmod_Electrostatic_Energy-OPLS-2005>
-226.86833190918

> <r_mmod_Solvation_Energy-OPLS-2005>
-434.798736572266

> <b_mmod_Minimization_Converged-OPLS-2005>
0

> <r_mmod_RMS_Derivative-OPLS-2005>
6.49786329269409

$$$$
94
                    3D
 Structure written by MMmdl.
179188  0  0  1  0            999 V2000
  -30.7478  -14.3928   20.5831 C   0  0  0  0  0  0
  -30.4085  -12.2638   19.4138 C   0  0  0  0  0  0
  -29.4925  -12.5096   18.2002 C   0  0  0  0  0  0
  -28.0142  -12.3794   18.6102 C   0  0  0  0  0  0
  -27.6668  -13.2059   19.8781 C   0  0  2  0  0  0
  -28.7053  -12.9705   20.9985 C   0  0  0  0  0  0
  -25.2622  -13.8177   20.5669 C   0  0  0  0  0  0
  -24.1863  -13.0453   20.9149 C   0  0  0  0  0  0
  -24.6414  -11.6912   20.8718 C   0  0  0  0  0  0
  -23.9084  -10.4292   21.0407 C   0  0  0  0  0  0
  -24.3625   -9.4207   21.9196 C   0  0  0  0  0  0
  -23.6293   -8.2245   22.0762 C   0  0  0  0  0  0
  -22.4275   -8.0291   21.3547 C   0  0  0  0  0  0
  -21.9929   -9.0260   20.4639 C   0  0  0  0  0  0
  -22.7249  -10.2143   20.3055 C   0  0  0  0  0  0
  -21.6859   -6.0744   22.5275 C   0  0  0  0  0  0
  -21.4014   -6.5647   23.8208 C   0  0  0  0  0  0
  -21.3654   -5.6801   24.9173 C   0  0  0  0  0  0
  -21.6045   -4.3066   24.7224 C   0  0  0  0  0  0
  -21.8828   -3.8165   23.4341 C   0  0  0  0  0  0
  -21.9198   -4.6976   22.3394 C   0  0  0  0  0  0
  -22.7894  -13.5269   21.1824 C   0  0  0  0  0  0
  -22.1666   -4.2163   21.0970 F   0  0  0  0  0  0
  -21.5633   -3.4543   25.7741 F   0  0  0  0  0  0
  -30.0447  -13.2399   20.4488 N   0  0  0  0  0  0
  -26.3051  -12.9337   20.3357 N   0  0  0  0  0  0
  -25.9345  -11.6502   20.5763 N   0  0  0  0  0  0
  -22.0529  -12.8230   22.0351 N   0  0  0  0  0  0
  -25.4387  -15.1869   20.4051 N   0  0  0  0  0  0
  -31.8530  -14.5772   20.0674 O   0  0  0  0  0  0
  -21.6637   -6.8889   21.4242 O   0  0  0  0  0  0
  -22.3580  -14.5573   20.6679 O   0  0  0  0  0  0
  -24.6133  -31.8668   23.2156 C   0  0  0  0  0  0
  -25.9063  -32.4799   23.8415 C   0  0  1  0  0  0
  -27.2219  -27.4721   20.0779 C   0  0  0  0  0  0
  -25.5983  -33.8612   24.2336 N   0  0  0  0  0  0
  -23.3963  -30.4922   21.5589 C   0  0  2  0  0  0
  -24.8369  -28.9694   20.1125 C   0  0  0  0  0  0
  -22.7371  -29.4646   22.5060 C   0  0  0  0  0  0
  -18.0248  -28.1384   22.8510 C   0  0  0  0  0  0
  -24.1486  -36.7292   23.2637 C   0  0  0  0  0  0
  -25.9241  -30.8424   21.3664 C   0  0  0  0  0  0
  -25.9995  -29.4882   20.6981 C   0  0  0  0  0  0
  -27.2005  -28.7511   20.6677 C   0  0  0  0  0  0
  -26.0447  -26.9573   19.4924 C   0  0  0  0  0  0
  -24.8529  -27.7022   19.5050 C   0  0  0  0  0  0
  -23.5946  -29.8254   20.1732 C   0  0  0  0  0  0
  -25.4119  -36.3071   24.0318 C   0  0  1  0  0  0
  -20.5828  -28.3659   23.1390 C   0  0  2  0  0  0
  -20.6740  -26.9401   22.5501 C   0  0  0  0  0  0
  -19.5749  -26.6373   21.5263 C   0  0  0  0  0  0
  -18.1882  -26.7973   22.1551 C   0  0  0  0  0  0
  -19.1494  -28.8843   23.2934 C   0  0  0  0  0  0
  -18.9411  -30.1479   23.8911 C   0  0  0  0  0  0
  -17.6404  -30.6593   24.0591 C   0  0  0  0  0  0
  -25.9052  -34.9446   23.5090 C   0  0  0  0  0  0
  -16.5311  -29.9087   23.6354 C   0  0  0  0  0  0
  -16.7243  -28.6508   23.0385 C   0  0  0  0  0  0
  -26.4486  -31.6620   25.0773 C   0  0  0  0  0  0
  -25.3689  -31.3699   26.1465 C   0  0  0  0  0  0
  -27.0410  -30.3070   24.6234 C   0  0  0  0  0  0
  -27.6029  -32.4393   25.7548 C   0  0  0  0  0  0
  -27.5567  -37.1779   24.8451 C   0  0  0  0  0  0
  -21.4113  -29.2994   22.3780 N   0  0  0  0  0  0
  -26.4287  -37.3774   23.9397 N   0  0  0  0  0  0
  -24.6617  -31.0812   22.1042 N   0  0  0  0  0  0
  -23.4161  -28.8200   23.3093 O   0  0  0  0  0  0
  -28.3861  -26.7487   20.0833 O   0  0  0  0  0  0
  -26.5549  -34.8886   22.4605 O   0  0  0  0  0  0
  -23.5347  -32.1416   23.7605 O   0  0  0  0  0  0
  -29.0997  -17.3056   24.5624 C   0  0  0  0  0  0
  -29.5041  -22.7205   21.4012 C   0  0  0  0  0  0
  -30.4283  -22.4595   19.0957 C   0  0  0  0  0  0
  -30.7604  -22.0741   21.9955 C   0  0  0  0  0  0
  -31.6599  -21.7378   19.6762 C   0  0  0  0  0  0
  -30.3917  -17.4688   19.8330 C   0  0  0  0  0  0
  -31.0386  -18.8673   19.8272 C   0  0  0  0  0  0
  -30.5859  -19.0374   22.2758 C   0  0  0  0  0  0
  -29.8552  -23.4827   20.1039 C   0  0  1  0  0  0
  -30.5967  -16.7804   21.1901 C   0  0  1  0  0  0
  -29.8959  -17.6538   22.2345 C   0  0  1  0  0  0
  -31.3896  -21.0320   21.0364 C   0  0  2  0  0  0
  -29.2317  -16.4602   25.8214 C   0  0  0  0  0  0
  -28.9130  -24.9027   18.1683 C   0  0  0  0  0  0
  -28.2587  -25.4213   20.5927 C   0  0  0  0  0  0
  -28.6610  -24.3199   19.5747 C   0  0  2  0  0  0
  -29.9011  -16.9908   23.5373 N   0  0  0  0  0  0
  -30.1102  -15.3982   21.1955 N   0  0  0  0  0  0
  -30.6051  -19.7507   20.9570 N   0  3  1  0  0  0
  -28.2884  -18.2299   24.5155 O   0  0  0  0  0  0
  -31.4565  -12.3322   19.1196 H   0  0  0  0  0  0
  -30.2740  -11.2514   19.7990 H   0  0  0  0  0  0
  -29.7194  -11.8028   17.4001 H   0  0  0  0  0  0
  -29.6783  -13.5054   17.7945 H   0  0  0  0  0  0
  -27.8119  -11.3233   18.7894 H   0  0  0  0  0  0
  -27.3682  -12.6745   17.7817 H   0  0  0  0  0  0
  -27.7223  -14.2561   19.5953 H   0  0  0  0  0  0
  -28.6618  -11.9368   21.3475 H   0  0  0  0  0  0
  -28.4774  -13.5833   21.8720 H   0  0  0  0  0  0
  -25.2779   -9.5676   22.4759 H   0  0  0  0  0  0
  -24.0007   -7.4648   22.7495 H   0  0  0  0  0  0
  -21.0868   -8.8778   19.8939 H   0  0  0  0  0  0
  -22.3720  -10.9683   19.6150 H   0  0  0  0  0  0
  -21.2005   -7.6164   23.9709 H   0  0  0  0  0  0
  -21.1463   -6.0534   25.9067 H   0  0  0  0  0  0
  -22.0614   -2.7622   23.2845 H   0  0  0  0  0  0
  -22.4169  -11.9884   22.4700 H   0  0  0  0  0  0
  -21.1153  -13.1246   22.2584 H   0  0  0  0  0  0
  -24.6780  -15.8492   20.5096 H   0  0  0  0  0  0
  -26.2975  -15.6173   20.0854 H   0  0  0  0  0  0
  -26.7132  -32.5505   23.1188 H   0  0  0  0  0  0
  -25.0286  -33.9800   25.0587 H   0  0  0  0  0  0
  -22.6845  -31.3092   21.4267 H   0  0  0  0  0  0
  -23.3755  -35.9606   23.3276 H   0  0  0  0  0  0
  -24.3551  -36.8957   22.2044 H   0  0  0  0  0  0
  -23.7218  -37.6472   23.6715 H   0  0  0  0  0  0
  -26.0412  -31.6204   20.6118 H   0  0  0  0  0  0
  -26.8095  -30.8764   21.9918 H   0  0  0  0  0  0
  -28.1036  -29.1478   21.1084 H   0  0  0  0  0  0
  -26.0436  -25.9813   19.0296 H   0  0  0  0  0  0
  -23.9587  -27.2994   19.0498 H   0  0  0  0  0  0
  -23.6766  -30.5982   19.4072 H   0  0  0  0  0  0
  -22.7215  -29.2317   19.8969 H   0  0  0  0  0  0
  -25.1273  -36.1918   25.0814 H   0  0  0  0  0  0
  -20.9903  -28.3244   24.1517 H   0  0  0  0  0  0
  -20.5664  -26.2258   23.3671 H   0  0  0  0  0  0
  -21.6616  -26.7441   22.1317 H   0  0  0  0  0  0
  -19.6905  -25.6275   21.1306 H   0  0  0  0  0  0
  -19.6763  -27.3172   20.6796 H   0  0  0  0  0  0
  -17.4246  -26.6921   21.3837 H   0  0  0  0  0  0
  -18.0070  -26.0056   22.8831 H   0  0  0  0  0  0
  -19.7888  -30.7318   24.2265 H   0  0  0  0  0  0
  -17.4957  -31.6262   24.5213 H   0  0  0  0  0  0
  -15.5308  -30.2969   23.7710 H   0  0  0  0  0  0
  -15.8642  -28.0839   22.7074 H   0  0  0  0  0  0
  -24.6465  -30.6282   25.8038 H   0  0  0  0  0  0
  -24.8127  -32.2683   26.4141 H   0  0  0  0  0  0
  -25.8099  -30.9788   27.0643 H   0  0  0  0  0  0
  -26.3041  -29.6783   24.1233 H   0  0  0  0  0  0
  -27.4101  -29.7357   25.4765 H   0  0  0  0  0  0
  -27.8872  -30.4392   23.9486 H   0  0  0  0  0  0
  -27.2657  -33.3745   26.2030 H   0  0  0  0  0  0
  -28.3892  -32.6865   25.0405 H   0  0  0  0  0  0
  -28.0657  -31.8589   26.5542 H   0  0  0  0  0  0
  -28.2600  -38.0058   24.7505 H   0  0  0  0  0  0
  -28.1050  -36.2596   24.6296 H   0  0  0  0  0  0
  -27.2288  -37.1466   25.8854 H   0  0  0  0  0  0
  -20.9296  -29.8702   21.6982 H   0  0  0  0  0  0
  -26.0165  -38.2834   24.1458 H   0  0  0  0  0  0
  -29.0706  -23.3746   22.1557 H   0  0  0  0  0  0
  -28.7446  -21.9651   21.1964 H   0  0  0  0  0  0
  -29.6634  -21.7360   18.8142 H   0  0  0  0  0  0
  -30.7379  -22.9542   18.1747 H   0  0  0  0  0  0
  -30.5464  -21.6798   22.9855 H   0  0  0  0  0  0
  -31.4908  -22.8625   22.1771 H   0  0  0  0  0  0
  -32.4333  -22.4881   19.8415 H   0  0  0  0  0  0
  -32.1042  -21.0778   18.9337 H   0  0  0  0  0  0
  -30.8348  -16.8804   19.0285 H   0  0  0  0  0  0
  -29.3281  -17.5412   19.6030 H   0  0  0  0  0  0
  -30.7801  -19.3306   18.8746 H   0  0  0  0  0  0
  -32.1249  -18.7611   19.8415 H   0  0  0  0  0  0
  -31.6083  -18.9217   22.6363 H   0  0  0  0  0  0
  -30.0602  -19.6383   23.0145 H   0  0  0  0  0  0
  -30.6529  -24.1932   20.3315 H   0  0  0  0  0  0
  -31.6652  -16.7546   21.4165 H   0  0  0  0  0  0
  -28.8524  -17.7895   21.9371 H   0  0  0  0  0  0
  -32.3689  -20.7664   21.4389 H   0  0  0  0  0  0
  -30.2797  -16.3205   26.0875 H   0  0  0  0  0  0
  -28.7765  -15.4809   25.6696 H   0  0  0  0  0  0
  -28.7339  -16.9422   26.6640 H   0  0  0  0  0  0
  -28.9487  -24.1193   17.4112 H   0  0  0  0  0  0
  -29.8530  -25.4534   18.1343 H   0  0  0  0  0  0
  -28.1177  -25.5853   17.8657 H   0  0  0  0  0  0
  -28.9023  -25.4048   21.4698 H   0  0  0  0  0  0
  -27.2627  -25.2081   20.9895 H   0  0  0  0  0  0
  -27.8072  -23.6483   19.4791 H   0  0  0  0  0  0
  -30.5489  -16.2241   23.6607 H   0  0  0  0  0  0
  -29.2119  -15.2076   21.6118 H   0  0  0  0  0  0
  -29.6486  -20.0021   20.7550 H   0  0  0  0  0  0
  1 25  1  0  0  0
  1 30  2  0  0  0
  1 88  1  0  0  0
  2  3  1  0  0  0
  2 25  1  0  0  0
  2 91  1  0  0  0
  2 92  1  0  0  0
  3  4  1  0  0  0
  3 93  1  0  0  0
  3 94  1  0  0  0
  4  5  1  0  0  0
  4 95  1  0  0  0
  4 96  1  0  0  0
  5  6  1  0  0  0
  5 26  1  0  0  0
  5 97  1  0  0  0
  6 25  1  0  0  0
  6 98  1  0  0  0
  6 99  1  0  0  0
  7  8  2  0  0  0
  7 26  1  0  0  0
  7 29  1  0  0  0
  8  9  1  0  0  0
  8 22  1  0  0  0
  9 10  1  0  0  0
  9 27  2  0  0  0
 10 11  2  0  0  0
 10 15  1  0  0  0
 11 12  1  0  0  0
 11100  1  0  0  0
 12 13  2  0  0  0
 12101  1  0  0  0
 13 14  1  0  0  0
 13 31  1  0  0  0
 14 15  2  0  0  0
 14102  1  0  0  0
 15103  1  0  0  0
 16 17  2  0  0  0
 16 21  1  0  0  0
 16 31  1  0  0  0
 17 18  1  0  0  0
 17104  1  0  0  0
 18 19  2  0  0  0
 18105  1  0  0  0
 19 20  1  0  0  0
 19 24  1  0  0  0
 20 21  2  0  0  0
 20106  1  0  0  0
 21 23  1  0  0  0
 22 28  1  0  0  0
 22 32  2  0  0  0
 26 27  1  0  0  0
 28107  1  0  0  0
 28108  1  0  0  0
 29109  1  0  0  0
 29110  1  0  0  0
 33 34  1  0  0  0
 33 66  1  0  0  0
 33 70  2  0  0  0
 34 36  1  0  0  0
 34 59  1  0  0  0
 34111  1  0  0  0
 35 44  2  0  0  0
 35 45  1  0  0  0
 35 68  1  0  0  0
 36 56  1  0  0  0
 36112  1  0  0  0
 37 39  1  0  0  0
 37 47  1  0  0  0
 37 66  1  0  0  0
 37113  1  0  0  0
 38 43  2  0  0  0
 38 46  1  0  0  0
 38 47  1  0  0  0
 39 64  1  0  0  0
 39 67  2  0  0  0
 40 52  1  0  0  0
 40 53  2  0  0  0
 40 58  1  0  0  0
 41114  1  0  0  0
 41115  1  0  0  0
 41116  1  0  0  0
 41 48  1  0  0  0
 42 43  1  0  0  0
 42 66  1  0  0  0
 42117  1  0  0  0
 42118  1  0  0  0
 43 44  1  0  0  0
 44119  1  0  0  0
 45 46  2  0  0  0
 45120  1  0  0  0
 46121  1  0  0  0
 47122  1  0  0  0
 47123  1  0  0  0
 48 56  1  0  0  0
 48 65  1  0  0  0
 48124  1  0  0  0
 49 50  1  0  0  0
 49 53  1  0  0  0
 49 64  1  0  0  0
 49125  1  0  0  0
 50 51  1  0  0  0
 50126  1  0  0  0
 50127  1  0  0  0
 51 52  1  0  0  0
 51128  1  0  0  0
 51129  1  0  0  0
 52130  1  0  0  0
 52131  1  0  0  0
 53 54  1  0  0  0
 54 55  2  0  0  0
 54132  1  0  0  0
 55 57  1  0  0  0
 55133  1  0  0  0
 56 69  2  0  0  0
 57 58  2  0  0  0
 57134  1  0  0  0
 58135  1  0  0  0
 59 60  1  0  0  0
 59 61  1  0  0  0
 59 62  1  0  0  0
 60136  1  0  0  0
 60137  1  0  0  0
 60138  1  0  0  0
 61139  1  0  0  0
 61140  1  0  0  0
 61141  1  0  0  0
 62142  1  0  0  0
 62143  1  0  0  0
 62144  1  0  0  0
 63 65  1  0  0  0
 63145  1  0  0  0
 63146  1  0  0  0
 63147  1  0  0  0
 64148  1  0  0  0
 65149  1  0  0  0
 68 85  1  0  0  0
 71 83  1  0  0  0
 71 87  1  0  0  0
 71 90  2  0  0  0
 72 74  1  0  0  0
 72150  1  0  0  0
 72151  1  0  0  0
 72 79  1  0  0  0
 73 75  1  0  0  0
 73 79  1  0  0  0
 73152  1  0  0  0
 73153  1  0  0  0
 74154  1  0  0  0
 74155  1  0  0  0
 74 82  1  0  0  0
 75 82  1  0  0  0
 75156  1  0  0  0
 75157  1  0  0  0
 76 77  1  0  0  0
 76 80  1  0  0  0
 76158  1  0  0  0
 76159  1  0  0  0
 77160  1  0  0  0
 77161  1  0  0  0
 77 89  1  0  0  0
 78 81  1  0  0  0
 78 89  1  0  0  0
 78162  1  0  0  0
 78163  1  0  0  0
 79 86  1  0  0  0
 79164  1  0  0  0
 80 81  1  0  0  0
 80 88  1  0  0  0
 80165  1  0  0  0
 81 87  1  0  0  0
 81166  1  0  0  0
 82 89  1  0  0  0
 82167  1  0  0  0
 83168  1  0  0  0
 83169  1  0  0  0
 83170  1  0  0  0
 84171  1  0  0  0
 84172  1  0  0  0
 84173  1  0  0  0
 84 86  1  0  0  0
 85 86  1  0  0  0
 85174  1  0  0  0
 85175  1  0  0  0
 86176  1  0  0  0
 87177  1  0  0  0
 88178  1  0  0  0
 89179  1  0  0  0
M  CHG  1  89   1
M  ISO  4   1 100  68 101  85 101  88 100
M  END
> <chiral flag>
0

> <version>
0

> <s_m_source_file>
/data/baiqing/PycharmProjects/Reinvent-master-3.2/result/LINK_invent/BTK/process_docking_weight1_custom_sum_contain_oxygen_bond_distance_aromatic_linkinvent_7_9_3/rearranged_h_0115.sdf

> <i_m_source_file_index>
95

> <r_mmod_Potential_Energy-OPLS-2005>
-209.927139282227

> <r_mmod_Stretch_Energy-OPLS-2005>
37.1122894287109

> <r_mmod_Bend_Energy-OPLS-2005>
111.986442565918

> <r_mmod_Torsional_Energy-OPLS-2005>
317.878204345703

> <r_mmod_Improper_Torsional_Energy-OPLS-2005>
3.18489980697632

> <r_mmod_Van_der_Waal_Energy-OPLS-2005>
163.806976318359

> <r_mmod_Electrostatic_Energy-OPLS-2005>
-406.152038574219

> <r_mmod_Solvation_Energy-OPLS-2005>
-447.688201904297

> <b_mmod_Minimization_Converged-OPLS-2005>
0

> <r_mmod_RMS_Derivative-OPLS-2005>
3.59711170196533

$$$$
95
                    3D
 Structure written by MMmdl.
160168  0  0  1  0            999 V2000
  -30.6352  -14.7340   20.4592 C   0  0  0  0  0  0
  -30.4260  -12.4469   19.4822 C   0  0  0  0  0  0
  -29.5094  -12.4968   18.2410 C   0  0  0  0  0  0
  -28.0364  -12.3217   18.6563 C   0  0  0  0  0  0
  -27.6395  -13.2299   19.8509 C   0  0  2  0  0  0
  -28.6828  -13.1833   20.9885 C   0  0  0  0  0  0
  -25.2467  -13.8139   20.5630 C   0  0  0  0  0  0
  -24.1785  -13.0406   20.9212 C   0  0  0  0  0  0
  -24.6388  -11.6886   20.8774 C   0  0  0  0  0  0
  -23.9054  -10.4273   21.0416 C   0  0  0  0  0  0
  -24.3605   -9.4199   21.9203 C   0  0  0  0  0  0
  -23.6283   -8.2238   22.0776 C   0  0  0  0  0  0
  -22.4272   -8.0269   21.3545 C   0  0  0  0  0  0
  -21.9893   -9.0237   20.4648 C   0  0  0  0  0  0
  -22.7221  -10.2121   20.3060 C   0  0  0  0  0  0
  -21.6854   -6.0728   22.5279 C   0  0  0  0  0  0
  -21.4024   -6.5640   23.8210 C   0  0  0  0  0  0
  -21.3652   -5.6800   24.9174 C   0  0  0  0  0  0
  -21.6035   -4.3059   24.7233 C   0  0  0  0  0  0
  -21.8818   -3.8146   23.4359 C   0  0  0  0  0  0
  -21.9196   -4.6955   22.3411 C   0  0  0  0  0  0
  -22.7806  -13.5208   21.1838 C   0  0  0  0  0  0
  -22.1657   -4.2141   21.0986 F   0  0  0  0  0  0
  -21.5621   -3.4547   25.7745 F   0  0  0  0  0  0
  -29.9844  -13.5220   20.4013 N   0  0  0  0  0  0
  -26.2919  -12.9371   20.3284 N   0  0  0  0  0  0
  -25.9325  -11.6511   20.5788 N   0  0  0  0  0  0
  -22.0438  -12.8224   22.0404 N   0  0  0  0  0  0
  -25.4064  -15.1837   20.3855 N   0  0  0  0  0  0
  -31.8281  -14.7986   20.1514 O   0  0  0  0  0  0
  -21.6640   -6.8865   21.4237 O   0  0  0  0  0  0
  -22.3494  -14.5504   20.6648 O   0  0  0  0  0  0
  -24.6316  -31.8545   23.1966 C   0  0  0  0  0  0
  -25.9141  -32.4745   23.8322 C   0  0  1  0  0  0
  -27.2171  -27.2648   20.1349 C   0  0  0  0  0  0
  -25.5939  -33.8550   24.2245 N   0  0  0  0  0  0
  -23.4274  -30.4751   21.5414 C   0  0  2  0  0  0
  -24.8748  -28.9178   20.1129 C   0  0  0  0  0  0
  -22.7502  -29.4590   22.4927 C   0  0  0  0  0  0
  -18.0288  -28.1382   22.8482 C   0  0  0  0  0  0
  -24.1491  -36.7282   23.2637 C   0  0  0  0  0  0
  -25.9722  -30.7699   21.3725 C   0  0  0  0  0  0
  -26.0468  -29.3909   20.7180 C   0  0  0  0  0  0
  -27.2262  -28.5787   20.7118 C   0  0  0  0  0  0
  -26.0252  -26.8511   19.5093 C   0  0  0  0  0  0
  -24.8687  -27.6562   19.4958 C   0  0  0  0  0  0
  -23.6443  -29.8040   20.1592 C   0  0  0  0  0  0
  -25.4116  -36.3059   24.0319 C   0  0  1  0  0  0
  -20.5890  -28.3692   23.1275 C   0  0  2  0  0  0
  -20.6777  -26.9411   22.5411 C   0  0  0  0  0  0
  -19.5755  -26.6376   21.5214 C   0  0  0  0  0  0
  -18.1935  -26.7923   22.1621 C   0  0  0  0  0  0
  -19.1543  -28.8854   23.2867 C   0  0  0  0  0  0
  -18.9463  -30.1459   23.8882 C   0  0  0  0  0  0
  -17.6463  -30.6584   24.0555 C   0  0  0  0  0  0
  -25.9058  -34.9432   23.5079 C   0  0  0  0  0  0
  -16.5352  -29.9079   23.6333 C   0  0  0  0  0  0
  -16.7277  -28.6494   23.0354 C   0  0  0  0  0  0
  -26.4506  -31.6567   25.0714 C   0  0  0  0  0  0
  -25.3726  -31.3713   26.1431 C   0  0  0  0  0  0
  -27.0350  -30.2983   24.6191 C   0  0  0  0  0  0
  -27.6047  -32.4316   25.7503 C   0  0  0  0  0  0
  -27.5575  -37.1798   24.8460 C   0  0  0  0  0  0
  -21.4208  -29.3036   22.3667 N   0  0  0  0  0  0
  -26.4284  -37.3763   23.9404 N   0  0  0  0  0  0
  -24.6964  -31.0512   22.0934 N   0  0  0  0  0  0
  -23.4201  -28.8140   23.3033 O   0  0  0  0  0  0
  -28.3018  -26.3632   20.1399 O   0  0  0  0  0  0
  -26.5635  -34.8908   22.4651 O   0  0  0  0  0  0
  -23.5469  -32.1367   23.7270 O   0  0  0  0  0  0
  -28.1279  -20.1965   21.0783 C   0  0  0  0  0  0
  -30.1059  -19.8918   20.1954 C   0  0  0  0  0  0
  -29.2237  -20.9276   20.5138 C   0  0  0  0  0  0
  -28.4039  -18.8392   21.1383 C   0  0  0  0  0  0
  -27.5837  -17.7376   21.7223 C   0  0  0  0  0  0
  -30.3169  -22.8930   21.6152 C   0  0  0  0  0  0
  -30.2883  -22.7843   19.1237 C   0  0  0  0  0  0
  -28.1836  -23.5337   20.3066 C   0  0  0  0  0  0
  -28.1420  -25.0682   20.8836 C   0  0  0  0  0  0
  -30.4816  -17.3085   20.4510 C   0  0  0  0  0  0
  -29.4561  -22.5198   20.3933 C   0  0  0  0  0  0
  -29.6543  -18.5993   20.5741 N   0  0  0  0  0  0
  -29.9123  -15.9037   20.6350 N   0  0  0  0  0  0
  -31.4702  -12.5564   19.1857 H   0  0  0  0  0  0
  -30.3568  -11.4750   19.9736 H   0  0  0  0  0  0
  -29.7932  -11.7212   17.5282 H   0  0  0  0  0  0
  -29.6371  -13.4493   17.7246 H   0  0  0  0  0  0
  -27.8975  -11.2740   18.9273 H   0  0  0  0  0  0
  -27.3792  -12.5048   17.8060 H   0  0  0  0  0  0
  -27.6282  -14.2481   19.4621 H   0  0  0  0  0  0
  -28.7161  -12.1935   21.4454 H   0  0  0  0  0  0
  -28.4178  -13.8818   21.7844 H   0  0  0  0  0  0
  -25.2747   -9.5698   22.4782 H   0  0  0  0  0  0
  -23.9984   -7.4646   22.7517 H   0  0  0  0  0  0
  -21.0819   -8.8741   19.8967 H   0  0  0  0  0  0
  -22.3658  -10.9652   19.6170 H   0  0  0  0  0  0
  -21.2023   -7.6152   23.9704 H   0  0  0  0  0  0
  -21.1468   -6.0540   25.9073 H   0  0  0  0  0  0
  -22.0602   -2.7607   23.2866 H   0  0  0  0  0  0
  -22.4037  -11.9903   22.4832 H   0  0  0  0  0  0
  -21.1053  -13.1266   22.2561 H   0  0  0  0  0  0
  -24.6150  -15.8153   20.4452 H   0  0  0  0  0  0
  -26.2094  -15.5963   19.9313 H   0  0  0  0  0  0
  -26.7207  -32.5394   23.1066 H   0  0  0  0  0  0
  -25.0081  -33.9683   25.0388 H   0  0  0  0  0  0
  -22.7236  -31.2969   21.3944 H   0  0  0  0  0  0
  -23.3747  -35.9618   23.3288 H   0  0  0  0  0  0
  -24.3579  -36.8923   22.2053 H   0  0  0  0  0  0
  -23.7254  -37.6480   23.6678 H   0  0  0  0  0  0
  -26.1052  -31.5288   20.6005 H   0  0  0  0  0  0
  -26.8518  -30.8238   22.0023 H   0  0  0  0  0  0
  -28.1284  -28.9381   21.1863 H   0  0  0  0  0  0
  -25.9831  -25.8775   19.0424 H   0  0  0  0  0  0
  -23.9711  -27.2887   19.0179 H   0  0  0  0  0  0
  -23.7635  -30.5775   19.4000 H   0  0  0  0  0  0
  -22.7635  -29.2338   19.8588 H   0  0  0  0  0  0
  -25.1299  -36.1892   25.0812 H   0  0  0  0  0  0
  -20.9977  -28.3267   24.1398 H   0  0  0  0  0  0
  -20.5678  -26.2302   23.3614 H   0  0  0  0  0  0
  -21.6646  -26.7435   22.1206 H   0  0  0  0  0  0
  -19.6917  -25.6284   21.1252 H   0  0  0  0  0  0
  -19.6692  -27.3178   20.6737 H   0  0  0  0  0  0
  -17.4205  -26.6670   21.4024 H   0  0  0  0  0  0
  -18.0331  -26.0067   22.9020 H   0  0  0  0  0  0
  -19.7938  -30.7282   24.2243 H   0  0  0  0  0  0
  -17.5012  -31.6267   24.5155 H   0  0  0  0  0  0
  -15.5352  -30.2973   23.7664 H   0  0  0  0  0  0
  -15.8676  -28.0808   22.7080 H   0  0  0  0  0  0
  -24.5912  -30.7051   25.7757 H   0  0  0  0  0  0
  -24.8910  -32.2881   26.4840 H   0  0  0  0  0  0
  -25.8048  -30.8905   27.0215 H   0  0  0  0  0  0
  -26.2931  -29.6739   24.1200 H   0  0  0  0  0  0
  -27.4011  -29.7235   25.4708 H   0  0  0  0  0  0
  -27.8815  -30.4250   23.9439 H   0  0  0  0  0  0
  -27.2636  -33.3618   26.2058 H   0  0  0  0  0  0
  -28.3879  -32.6873   25.0356 H   0  0  0  0  0  0
  -28.0689  -31.8458   26.5446 H   0  0  0  0  0  0
  -28.2573  -38.0113   24.7512 H   0  0  0  0  0  0
  -28.1091  -36.2639   24.6274 H   0  0  0  0  0  0
  -27.2294  -37.1430   25.8864 H   0  0  0  0  0  0
  -20.9403  -29.8745   21.6853 H   0  0  0  0  0  0
  -26.0151  -38.2829   24.1415 H   0  0  0  0  0  0
  -27.2192  -20.6347   21.4700 H   0  0  0  0  0  0
  -31.0923  -19.9700   19.7569 H   0  0  0  0  0  0
  -28.1666  -17.1370   22.4211 H   0  0  0  0  0  0
  -27.2139  -17.0855   20.9354 H   0  0  0  0  0  0
  -26.7217  -18.1275   22.2637 H   0  0  0  0  0  0
  -31.2187  -22.2814   21.6666 H   0  0  0  0  0  0
  -29.7694  -22.7382   22.5455 H   0  0  0  0  0  0
  -30.6521  -23.9293   21.5897 H   0  0  0  0  0  0
  -31.2575  -22.2864   19.1520 H   0  0  0  0  0  0
  -30.4781  -23.8495   18.9837 H   0  0  0  0  0  0
  -29.7686  -22.4283   18.2339 H   0  0  0  0  0  0
  -27.7545  -23.5114   19.3047 H   0  0  0  0  0  0
  -27.4287  -23.0291   20.9091 H   0  0  0  0  0  0
  -28.8194  -25.1396   21.7317 H   0  0  0  0  0  0
  -27.1679  -25.1403   21.3703 H   0  0  0  0  0  0
  -31.3072  -17.4073   21.1571 H   0  0  0  0  0  0
  -30.9468  -17.3313   19.4642 H   0  0  0  0  0  0
  -28.9270  -15.8219   20.8210 H   0  0  0  0  0  0
  1 25  1  0  0  0
  1 30  2  0  0  0
  1 83  1  0  0  0
  2  3  1  0  0  0
  2 25  1  0  0  0
  2 84  1  0  0  0
  2 85  1  0  0  0
  3  4  1  0  0  0
  3 86  1  0  0  0
  3 87  1  0  0  0
  4  5  1  0  0  0
  4 88  1  0  0  0
  4 89  1  0  0  0
  5  6  1  0  0  0
  5 26  1  0  0  0
  5 90  1  0  0  0
  6 25  1  0  0  0
  6 91  1  0  0  0
  6 92  1  0  0  0
  7  8  2  0  0  0
  7 26  1  0  0  0
  7 29  1  0  0  0
  8  9  1  0  0  0
  8 22  1  0  0  0
  9 10  1  0  0  0
  9 27  2  0  0  0
 10 11  2  0  0  0
 10 15  1  0  0  0
 11 12  1  0  0  0
 11 93  1  0  0  0
 12 13  2  0  0  0
 12 94  1  0  0  0
 13 14  1  0  0  0
 13 31  1  0  0  0
 14 15  2  0  0  0
 14 95  1  0  0  0
 15 96  1  0  0  0
 16 17  2  0  0  0
 16 21  1  0  0  0
 16 31  1  0  0  0
 17 18  1  0  0  0
 17 97  1  0  0  0
 18 19  2  0  0  0
 18 98  1  0  0  0
 19 20  1  0  0  0
 19 24  1  0  0  0
 20 21  2  0  0  0
 20 99  1  0  0  0
 21 23  1  0  0  0
 22 28  1  0  0  0
 22 32  2  0  0  0
 26 27  1  0  0  0
 28100  1  0  0  0
 28101  1  0  0  0
 29102  1  0  0  0
 29103  1  0  0  0
 33 34  1  0  0  0
 33 66  1  0  0  0
 33 70  2  0  0  0
 34 36  1  0  0  0
 34 59  1  0  0  0
 34104  1  0  0  0
 35 44  2  0  0  0
 35 45  1  0  0  0
 35 68  1  0  0  0
 36 56  1  0  0  0
 36105  1  0  0  0
 37 39  1  0  0  0
 37 47  1  0  0  0
 37 66  1  0  0  0
 37106  1  0  0  0
 38 43  2  0  0  0
 38 46  1  0  0  0
 38 47  1  0  0  0
 39 64  1  0  0  0
 39 67  2  0  0  0
 40 52  1  0  0  0
 40 53  2  0  0  0
 40 58  1  0  0  0
 41107  1  0  0  0
 41108  1  0  0  0
 41109  1  0  0  0
 41 48  1  0  0  0
 42 43  1  0  0  0
 42 66  1  0  0  0
 42110  1  0  0  0
 42111  1  0  0  0
 43 44  1  0  0  0
 44112  1  0  0  0
 45 46  2  0  0  0
 45113  1  0  0  0
 46114  1  0  0  0
 47115  1  0  0  0
 47116  1  0  0  0
 48 56  1  0  0  0
 48 65  1  0  0  0
 48117  1  0  0  0
 49 50  1  0  0  0
 49 53  1  0  0  0
 49 64  1  0  0  0
 49118  1  0  0  0
 50 51  1  0  0  0
 50119  1  0  0  0
 50120  1  0  0  0
 51 52  1  0  0  0
 51121  1  0  0  0
 51122  1  0  0  0
 52123  1  0  0  0
 52124  1  0  0  0
 53 54  1  0  0  0
 54 55  2  0  0  0
 54125  1  0  0  0
 55 57  1  0  0  0
 55126  1  0  0  0
 56 69  2  0  0  0
 57 58  2  0  0  0
 57127  1  0  0  0
 58128  1  0  0  0
 59 60  1  0  0  0
 59 61  1  0  0  0
 59 62  1  0  0  0
 60129  1  0  0  0
 60130  1  0  0  0
 60131  1  0  0  0
 61132  1  0  0  0
 61133  1  0  0  0
 61134  1  0  0  0
 62135  1  0  0  0
 62136  1  0  0  0
 62137  1  0  0  0
 63 65  1  0  0  0
 63138  1  0  0  0
 63139  1  0  0  0
 63140  1  0  0  0
 64141  1  0  0  0
 65142  1  0  0  0
 68 79  1  0  0  0
 71 73  1  0  0  0
 71 74  2  0  0  0
 71143  1  0  0  0
 72 73  2  0  0  0
 72 82  1  0  0  0
 72144  1  0  0  0
 73 81  1  0  0  0
 74 75  1  0  0  0
 74 82  1  0  0  0
 75145  1  0  0  0
 75146  1  0  0  0
 75147  1  0  0  0
 76148  1  0  0  0
 76149  1  0  0  0
 76150  1  0  0  0
 76 81  1  0  0  0
 77 81  1  0  0  0
 77151  1  0  0  0
 77152  1  0  0  0
 77153  1  0  0  0
 78 79  1  0  0  0
 78 81  1  0  0  0
 78154  1  0  0  0
 78155  1  0  0  0
 79156  1  0  0  0
 79157  1  0  0  0
 80 82  1  0  0  0
 80 83  1  0  0  0
 80158  1  0  0  0
 80159  1  0  0  0
 83160  1  0  0  0
M  ISO  4   1 100  68 101  79 101  83 100
M  END
> <chiral flag>
0

> <version>
0

> <s_m_source_file>
/data/baiqing/PycharmProjects/Reinvent-master-3.2/result/LINK_invent/BTK/process_docking_weight1_custom_sum_contain_oxygen_bond_distance_aromatic_linkinvent_7_9_3/rearranged_h_0115.sdf

> <i_m_source_file_index>
96

> <r_mmod_Potential_Energy-OPLS-2005>
128.859344482422

> <r_mmod_Stretch_Energy-OPLS-2005>
125.371856689453

> <r_mmod_Bend_Energy-OPLS-2005>
208.093307495117

> <r_mmod_Torsional_Energy-OPLS-2005>
250.363952636719

> <r_mmod_Improper_Torsional_Energy-OPLS-2005>
6.57956171035767

> <r_mmod_Van_der_Waal_Energy-OPLS-2005>
114.439979553223

> <r_mmod_Electrostatic_Energy-OPLS-2005>
-458.850677490234

> <r_mmod_Solvation_Energy-OPLS-2005>
-200.380615234375

> <b_mmod_Minimization_Converged-OPLS-2005>
0

> <r_mmod_RMS_Derivative-OPLS-2005>
1.69637858867645

$$$$
96
                    3D
 Structure written by MMmdl.
178186  0  0  1  0            999 V2000
  -30.5726  -14.9854   20.4075 C   0  0  0  0  0  0
  -30.4513  -12.6216   19.4650 C   0  0  0  0  0  0
  -29.5102  -12.4958   18.2438 C   0  0  0  0  0  0
  -28.0606  -12.2140   18.6891 C   0  0  0  0  0  0
  -27.6192  -13.1582   19.8264 C   0  0  2  0  0  0
  -28.6913  -13.2549   20.9513 C   0  0  0  0  0  0
  -25.2445  -13.7875   20.5692 C   0  0  0  0  0  0
  -24.1719  -13.0240   20.9261 C   0  0  0  0  0  0
  -24.6275  -11.6725   20.8843 C   0  0  0  0  0  0
  -23.8956  -10.4170   21.0481 C   0  0  0  0  0  0
  -24.3541   -9.4105   21.9239 C   0  0  0  0  0  0
  -23.6230   -8.2141   22.0773 C   0  0  0  0  0  0
  -22.4215   -8.0206   21.3551 C   0  0  0  0  0  0
  -21.9844   -9.0178   20.4655 C   0  0  0  0  0  0
  -22.7157  -10.2056   20.3091 C   0  0  0  0  0  0
  -21.6822   -6.0684   22.5274 C   0  0  0  0  0  0
  -21.3999   -6.5606   23.8205 C   0  0  0  0  0  0
  -21.3657   -5.6768   24.9171 C   0  0  0  0  0  0
  -21.6052   -4.3030   24.7231 C   0  0  0  0  0  0
  -21.8828   -3.8114   23.4356 C   0  0  0  0  0  0
  -21.9190   -4.6921   22.3405 C   0  0  0  0  0  0
  -22.7775  -13.5136   21.1880 C   0  0  0  0  0  0
  -22.1657   -4.2112   21.0980 F   0  0  0  0  0  0
  -21.5649   -3.4522   25.7748 F   0  0  0  0  0  0
  -29.9435  -13.7287   20.3272 N   0  0  0  0  0  0
  -26.2820  -12.8964   20.3300 N   0  0  0  0  0  0
  -25.9183  -11.6206   20.5872 N   0  0  0  0  0  0
  -22.0375  -12.8199   22.0447 N   0  0  0  0  0  0
  -25.3965  -15.1576   20.4001 N   0  0  0  0  0  0
  -31.7994  -14.9843   20.2546 O   0  0  0  0  0  0
  -21.6587   -6.8812   21.4229 O   0  0  0  0  0  0
  -22.3529  -14.5465   20.6708 O   0  0  0  0  0  0
  -24.6377  -31.8499   23.1907 C   0  0  0  0  0  0
  -25.9178  -32.4725   23.8274 C   0  0  1  0  0  0
  -27.2444  -27.2047   20.1467 C   0  0  0  0  0  0
  -25.5947  -33.8528   24.2197 N   0  0  0  0  0  0
  -23.4384  -30.4693   21.5349 C   0  0  2  0  0  0
  -24.8928  -28.9011   20.1145 C   0  0  0  0  0  0
  -22.7531  -29.4600   22.4880 C   0  0  0  0  0  0
  -18.0306  -28.1393   22.8490 C   0  0  0  0  0  0
  -24.1493  -36.7266   23.2645 C   0  0  0  0  0  0
  -25.9895  -30.7449   21.3814 C   0  0  0  0  0  0
  -26.0666  -29.3611   20.7251 C   0  0  0  0  0  0
  -27.2419  -28.5309   20.7219 C   0  0  0  0  0  0
  -26.0426  -26.8279   19.5025 C   0  0  0  0  0  0
  -24.8906  -27.6446   19.4893 C   0  0  0  0  0  0
  -23.6626  -29.7939   20.1561 C   0  0  0  0  0  0
  -25.4128  -36.3046   24.0314 C   0  0  1  0  0  0
  -20.5917  -28.3730   23.1242 C   0  0  2  0  0  0
  -20.6792  -26.9437   22.5405 C   0  0  0  0  0  0
  -19.5761  -26.6385   21.5216 C   0  0  0  0  0  0
  -18.1943  -26.7934   22.1626 C   0  0  0  0  0  0
  -19.1562  -28.8874   23.2863 C   0  0  0  0  0  0
  -18.9478  -30.1471   23.8888 C   0  0  0  0  0  0
  -17.6471  -30.6589   24.0566 C   0  0  0  0  0  0
  -25.9076  -34.9422   23.5060 C   0  0  0  0  0  0
  -16.5365  -29.9087   23.6331 C   0  0  0  0  0  0
  -16.7289  -28.6503   23.0354 C   0  0  0  0  0  0
  -26.4511  -31.6577   25.0699 C   0  0  0  0  0  0
  -25.3688  -31.3770   26.1389 C   0  0  0  0  0  0
  -27.0390  -30.2975   24.6276 C   0  0  0  0  0  0
  -27.6050  -32.4337   25.7480 C   0  0  0  0  0  0
  -27.5581  -37.1789   24.8460 C   0  0  0  0  0  0
  -21.4235  -29.3065   22.3616 N   0  0  0  0  0  0
  -26.4294  -37.3753   23.9402 N   0  0  0  0  0  0
  -24.7072  -31.0414   22.0905 N   0  0  0  0  0  0
  -23.4199  -28.8159   23.3019 O   0  0  0  0  0  0
  -28.3473  -26.2902   20.1846 O   0  0  0  0  0  0
  -26.5662  -34.8912   22.4640 O   0  0  0  0  0  0
  -23.5512  -32.1353   23.7162 O   0  0  0  0  0  0
  -26.1195  -21.2948   17.6855 C   0  0  0  0  0  0
  -27.6229  -17.5143   19.9229 C   0  0  0  0  0  0
  -28.4708  -16.2383   19.9596 C   0  0  0  0  0  0
  -30.4135  -17.7240   20.4949 C   0  0  0  0  0  0
  -29.4236  -19.0875   20.4746 C   0  0  2  0  0  0
  -28.3491  -18.7521   19.4224 C   0  0  2  0  0  0
  -31.2684  -20.8384   21.0507 C   0  0  0  0  0  0
  -24.0380  -22.7898   15.1619 C   0  0  0  0  0  0
  -26.4093  -23.6893   15.2266 C   0  0  0  0  0  0
  -26.7122  -19.9021   17.8928 C   0  0  0  0  0  0
  -29.2764  -23.5888   20.2261 C   0  0  0  0  0  0
  -28.9908  -22.0151   20.6716 C   0  0  0  0  0  0
  -28.1302  -24.7814   20.3656 C   0  0  0  0  0  0
  -29.9392  -20.6785   20.3000 C   0  0  2  0  0  0
  -25.3096  -22.9539   16.0052 C   0  0  0  0  0  0
  -29.8590  -16.2460   20.4327 N   0  0  0  0  0  0
  -25.8027  -21.6445   16.4318 N   0  0  0  0  0  0
  -27.3739  -19.8398   19.2106 N   0  3  0  0  0  0
  -25.9786  -22.0508   18.6494 O   0  0  0  0  0  0
  -31.4688  -12.8114   19.1194 H   0  0  0  0  0  0
  -30.4964  -11.6818   20.0177 H   0  0  0  0  0  0
  -29.8548  -11.6976   17.5839 H   0  0  0  0  0  0
  -29.5451  -13.4157   17.6577 H   0  0  0  0  0  0
  -28.0120  -11.1798   19.0333 H   0  0  0  0  0  0
  -27.3776  -12.2869   17.8410 H   0  0  0  0  0  0
  -27.5106  -14.0773   19.2791 H   0  0  0  0  0  0
  -28.8360  -12.2809   21.4197 H   0  0  0  0  0  0
  -28.3854  -13.9112   21.7660 H   0  0  0  0  0  0
  -25.2684   -9.5587   22.4817 H   0  0  0  0  0  0
  -23.9943   -7.4522   22.7481 H   0  0  0  0  0  0
  -21.0783   -8.8691   19.8954 H   0  0  0  0  0  0
  -22.3632  -10.9609   19.6214 H   0  0  0  0  0  0
  -21.1973   -7.6112   23.9694 H   0  0  0  0  0  0
  -21.1487   -6.0500   25.9074 H   0  0  0  0  0  0
  -22.0616   -2.7575   23.2862 H   0  0  0  0  0  0
  -22.3940  -11.9868   22.4892 H   0  0  0  0  0  0
  -21.1012  -13.1302   22.2632 H   0  0  0  0  0  0
  -24.6177  -15.7962   20.5163 H   0  0  0  0  0  0
  -26.2398  -15.6065   20.0769 H   0  0  0  0  0  0
  -26.7257  -32.5363   23.1021 H   0  0  0  0  0  0
  -25.0046  -33.9633   25.0312 H   0  0  0  0  0  0
  -22.7390  -31.2940   21.3810 H   0  0  0  0  0  0
  -23.3751  -35.9599   23.3296 H   0  0  0  0  0  0
  -24.3583  -36.8907   22.2061 H   0  0  0  0  0  0
  -23.7239  -37.6458   23.6689 H   0  0  0  0  0  0
  -26.1436  -31.5044   20.6137 H   0  0  0  0  0  0
  -26.8595  -30.7925   22.0248 H   0  0  0  0  0  0
  -28.1391  -28.8865   21.2087 H   0  0  0  0  0  0
  -25.9659  -25.8760   18.9996 H   0  0  0  0  0  0
  -23.9974  -27.2859   18.9968 H   0  0  0  0  0  0
  -23.7876  -30.5659   19.3958 H   0  0  0  0  0  0
  -22.7796  -29.2289   19.8526 H   0  0  0  0  0  0
  -25.1315  -36.1880   25.0804 H   0  0  0  0  0  0
  -21.0025  -28.3320   24.1355 H   0  0  0  0  0  0
  -20.5693  -26.2343   23.3623 H   0  0  0  0  0  0
  -21.6656  -26.7449   22.1194 H   0  0  0  0  0  0
  -19.6921  -25.6291   21.1253 H   0  0  0  0  0  0
  -19.6683  -27.3186   20.6737 H   0  0  0  0  0  0
  -17.4211  -26.6695   21.4026 H   0  0  0  0  0  0
  -18.0337  -26.0078   22.9022 H   0  0  0  0  0  0
  -19.7952  -30.7301   24.2243 H   0  0  0  0  0  0
  -17.5021  -31.6267   24.5172 H   0  0  0  0  0  0
  -15.5362  -30.2979   23.7657 H   0  0  0  0  0  0
  -15.8693  -28.0812   22.7073 H   0  0  0  0  0  0
  -24.5845  -30.7161   25.7678 H   0  0  0  0  0  0
  -24.8904  -32.2964   26.4774 H   0  0  0  0  0  0
  -25.7939  -30.8933   27.0189 H   0  0  0  0  0  0
  -26.3017  -29.6684   24.1278 H   0  0  0  0  0  0
  -27.4004  -29.7295   25.4858 H   0  0  0  0  0  0
  -27.8914  -30.4208   23.9593 H   0  0  0  0  0  0
  -27.2647  -33.3651   26.2015 H   0  0  0  0  0  0
  -28.3877  -32.6878   25.0319 H   0  0  0  0  0  0
  -28.0702  -31.8491   26.5425 H   0  0  0  0  0  0
  -28.2590  -38.0094   24.7518 H   0  0  0  0  0  0
  -28.1087  -36.2625   24.6276 H   0  0  0  0  0  0
  -27.2305  -37.1418   25.8864 H   0  0  0  0  0  0
  -20.9434  -29.8755   21.6785 H   0  0  0  0  0  0
  -26.0165  -38.2827   24.1390 H   0  0  0  0  0  0
  -27.2114  -17.7005   20.9180 H   0  0  0  0  0  0
  -26.7604  -17.3188   19.2838 H   0  0  0  0  0  0
  -28.4947  -15.8399   18.9448 H   0  0  0  0  0  0
  -27.9144  -15.6084   20.6338 H   0  0  0  0  0  0
  -31.0552  -17.7844   21.3747 H   0  0  0  0  0  0
  -31.0984  -17.8105   19.6498 H   0  0  0  0  0  0
  -28.9456  -19.0880   21.4557 H   0  0  0  0  0  0
  -28.8490  -18.5455   18.4741 H   0  0  0  0  0  0
  -31.9947  -20.0883   20.7362 H   0  0  0  0  0  0
  -31.1290  -20.7358   22.1276 H   0  0  0  0  0  0
  -31.7136  -21.8163   20.8651 H   0  0  0  0  0  0
  -23.6581  -23.7603   14.8408 H   0  0  0  0  0  0
  -23.2427  -22.3025   15.7270 H   0  0  0  0  0  0
  -24.2254  -22.1983   14.2652 H   0  0  0  0  0  0
  -26.0741  -24.6800   14.9177 H   0  0  0  0  0  0
  -26.6943  -23.1409   14.3279 H   0  0  0  0  0  0
  -27.3052  -23.8240   15.8350 H   0  0  0  0  0  0
  -27.4321  -19.7079   17.0971 H   0  0  0  0  0  0
  -25.9264  -19.1490   17.8273 H   0  0  0  0  0  0
  -29.5856  -23.5758   19.1807 H   0  0  0  0  0  0
  -30.1611  -23.9209   20.7694 H   0  0  0  0  0  0
  -27.9644  -21.8520   20.3721 H   0  0  0  0  0  0
  -28.9101  -22.0314   21.7596 H   0  0  0  0  0  0
  -27.6974  -24.6790   21.3614 H   0  0  0  0  0  0
  -27.3387  -24.4680   19.6893 H   0  0  0  0  0  0
  -30.1916  -20.7847   19.2426 H   0  0  0  0  0  0
  -25.0508  -23.5621   16.8749 H   0  0  0  0  0  0
  -25.9568  -20.9549   15.7065 H   0  0  0  0  0  0
  -27.8717  -20.7134   19.2914 H   0  0  0  0  0  0
  -26.6733  -19.8506   19.9348 H   0  0  0  0  0  0
  1 25  1  0  0  0
  1 30  2  0  0  0
  1 86  1  0  0  0
  2  3  1  0  0  0
  2 25  1  0  0  0
  2 90  1  0  0  0
  2 91  1  0  0  0
  3  4  1  0  0  0
  3 92  1  0  0  0
  3 93  1  0  0  0
  4  5  1  0  0  0
  4 94  1  0  0  0
  4 95  1  0  0  0
  5  6  1  0  0  0
  5 26  1  0  0  0
  5 96  1  0  0  0
  6 25  1  0  0  0
  6 97  1  0  0  0
  6 98  1  0  0  0
  7  8  2  0  0  0
  7 26  1  0  0  0
  7 29  1  0  0  0
  8  9  1  0  0  0
  8 22  1  0  0  0
  9 10  1  0  0  0
  9 27  2  0  0  0
 10 11  2  0  0  0
 10 15  1  0  0  0
 11 12  1  0  0  0
 11 99  1  0  0  0
 12 13  2  0  0  0
 12100  1  0  0  0
 13 14  1  0  0  0
 13 31  1  0  0  0
 14 15  2  0  0  0
 14101  1  0  0  0
 15102  1  0  0  0
 16 17  2  0  0  0
 16 21  1  0  0  0
 16 31  1  0  0  0
 17 18  1  0  0  0
 17103  1  0  0  0
 18 19  2  0  0  0
 18104  1  0  0  0
 19 20  1  0  0  0
 19 24  1  0  0  0
 20 21  2  0  0  0
 20105  1  0  0  0
 21 23  1  0  0  0
 22 28  1  0  0  0
 22 32  2  0  0  0
 26 27  1  0  0  0
 28106  1  0  0  0
 28107  1  0  0  0
 29108  1  0  0  0
 29109  1  0  0  0
 33 34  1  0  0  0
 33 66  1  0  0  0
 33 70  2  0  0  0
 34 36  1  0  0  0
 34 59  1  0  0  0
 34110  1  0  0  0
 35 44  2  0  0  0
 35 45  1  0  0  0
 35 68  1  0  0  0
 36 56  1  0  0  0
 36111  1  0  0  0
 37 39  1  0  0  0
 37 47  1  0  0  0
 37 66  1  0  0  0
 37112  1  0  0  0
 38 43  2  0  0  0
 38 46  1  0  0  0
 38 47  1  0  0  0
 39 64  1  0  0  0
 39 67  2  0  0  0
 40 52  1  0  0  0
 40 53  2  0  0  0
 40 58  1  0  0  0
 41113  1  0  0  0
 41114  1  0  0  0
 41115  1  0  0  0
 41 48  1  0  0  0
 42 43  1  0  0  0
 42 66  1  0  0  0
 42116  1  0  0  0
 42117  1  0  0  0
 43 44  1  0  0  0
 44118  1  0  0  0
 45 46  2  0  0  0
 45119  1  0  0  0
 46120  1  0  0  0
 47121  1  0  0  0
 47122  1  0  0  0
 48 56  1  0  0  0
 48 65  1  0  0  0
 48123  1  0  0  0
 49 50  1  0  0  0
 49 53  1  0  0  0
 49 64  1  0  0  0
 49124  1  0  0  0
 50 51  1  0  0  0
 50125  1  0  0  0
 50126  1  0  0  0
 51 52  1  0  0  0
 51127  1  0  0  0
 51128  1  0  0  0
 52129  1  0  0  0
 52130  1  0  0  0
 53 54  1  0  0  0
 54 55  2  0  0  0
 54131  1  0  0  0
 55 57  1  0  0  0
 55132  1  0  0  0
 56 69  2  0  0  0
 57 58  2  0  0  0
 57133  1  0  0  0
 58134  1  0  0  0
 59 60  1  0  0  0
 59 61  1  0  0  0
 59 62  1  0  0  0
 60135  1  0  0  0
 60136  1  0  0  0
 60137  1  0  0  0
 61138  1  0  0  0
 61139  1  0  0  0
 61140  1  0  0  0
 62141  1  0  0  0
 62142  1  0  0  0
 62143  1  0  0  0
 63 65  1  0  0  0
 63144  1  0  0  0
 63145  1  0  0  0
 63146  1  0  0  0
 64147  1  0  0  0
 65148  1  0  0  0
 68 83  1  0  0  0
 71 80  1  0  0  0
 71 87  1  0  0  0
 71 89  2  0  0  0
 72 73  1  0  0  0
 72 76  1  0  0  0
 72149  1  0  0  0
 72150  1  0  0  0
 73 86  1  0  0  0
 73151  1  0  0  0
 73152  1  0  0  0
 74 86  1  0  0  0
 74153  1  0  0  0
 74154  1  0  0  0
 74 75  1  0  0  0
 75 76  1  0  0  0
 75 84  1  0  0  0
 75155  1  0  0  0
 76 88  1  0  0  0
 76156  1  0  0  0
 77157  1  0  0  0
 77158  1  0  0  0
 77159  1  0  0  0
 77 84  1  0  0  0
 78160  1  0  0  0
 78161  1  0  0  0
 78162  1  0  0  0
 78 85  1  0  0  0
 79 85  1  0  0  0
 79163  1  0  0  0
 79164  1  0  0  0
 79165  1  0  0  0
 80 88  1  0  0  0
 80166  1  0  0  0
 80167  1  0  0  0
 81 82  1  0  0  0
 81 83  1  0  0  0
 81168  1  0  0  0
 81169  1  0  0  0
 82 84  1  0  0  0
 82170  1  0  0  0
 82171  1  0  0  0
 83172  1  0  0  0
 83173  1  0  0  0
 84174  1  0  0  0
 85 87  1  0  0  0
 85175  1  0  0  0
 87176  1  0  0  0
 88177  1  0  0  0
 88178  1  0  0  0
M  CHG  1  88   1
M  ISO  4   1 100  68 101  83 101  86 100
M  END
> <chiral flag>
0

> <version>
0

> <s_m_source_file>
/data/baiqing/PycharmProjects/Reinvent-master-3.2/result/LINK_invent/BTK/process_docking_weight1_custom_sum_contain_oxygen_bond_distance_aromatic_linkinvent_7_9_3/rearranged_h_0115.sdf

> <i_m_source_file_index>
97

> <r_mmod_Potential_Energy-OPLS-2005>
393.808746337891

> <r_mmod_Stretch_Energy-OPLS-2005>
250.320419311523

> <r_mmod_Bend_Energy-OPLS-2005>
279.074066162109

> <r_mmod_Torsional_Energy-OPLS-2005>
342.063415527344

> <r_mmod_Improper_Torsional_Energy-OPLS-2005>
5.50385999679565

> <r_mmod_Van_der_Waal_Energy-OPLS-2005>
143.321075439453

> <r_mmod_Electrostatic_Energy-OPLS-2005>
-338.083435058594

> <r_mmod_Solvation_Energy-OPLS-2005>
-466.239379882812

> <b_mmod_Minimization_Converged-OPLS-2005>
0

> <r_mmod_RMS_Derivative-OPLS-2005>
1.63155603408813

$$$$
97
                    3D
 Structure written by MMmdl.
169178  0  0  1  0            999 V2000
  -30.6910  -14.4945   20.5310 C   0  0  0  0  0  0
  -30.4216  -12.3118   19.4225 C   0  0  0  0  0  0
  -29.4947  -12.5007   18.2027 C   0  0  0  0  0  0
  -28.0138  -12.3683   18.6134 C   0  0  0  0  0  0
  -27.6597  -13.2111   19.8687 C   0  0  2  0  0  0
  -28.7048  -13.0113   20.9905 C   0  0  0  0  0  0
  -25.2594  -13.8168   20.5695 C   0  0  0  0  0  0
  -24.1855  -13.0440   20.9201 C   0  0  0  0  0  0
  -24.6411  -11.6916   20.8745 C   0  0  0  0  0  0
  -23.9083  -10.4298   21.0407 C   0  0  0  0  0  0
  -24.3631   -9.4204   21.9179 C   0  0  0  0  0  0
  -23.6299   -8.2244   22.0750 C   0  0  0  0  0  0
  -22.4280   -8.0287   21.3545 C   0  0  0  0  0  0
  -21.9919   -9.0266   20.4649 C   0  0  0  0  0  0
  -22.7257  -10.2141   20.3054 C   0  0  0  0  0  0
  -21.6858   -6.0742   22.5284 C   0  0  0  0  0  0
  -21.4021   -6.5648   23.8218 C   0  0  0  0  0  0
  -21.3647   -5.6793   24.9176 C   0  0  0  0  0  0
  -21.6044   -4.3058   24.7219 C   0  0  0  0  0  0
  -21.8820   -3.8157   23.4339 C   0  0  0  0  0  0
  -21.9195   -4.6973   22.3402 C   0  0  0  0  0  0
  -22.7872  -13.5232   21.1836 C   0  0  0  0  0  0
  -22.1666   -4.2165   21.0974 F   0  0  0  0  0  0
  -21.5611   -3.4538   25.7726 F   0  0  0  0  0  0
  -30.0299  -13.3108   20.4285 N   0  0  0  0  0  0
  -26.3028  -12.9356   20.3355 N   0  0  0  0  0  0
  -25.9335  -11.6516   20.5762 N   0  0  0  0  0  0
  -22.0499  -12.8242   22.0389 N   0  0  0  0  0  0
  -25.4290  -15.1885   20.4070 N   0  0  0  0  0  0
  -31.8431  -14.6494   20.1185 O   0  0  0  0  0  0
  -21.6643   -6.8889   21.4243 O   0  0  0  0  0  0
  -22.3574  -14.5530   20.6663 O   0  0  0  0  0  0
  -24.6139  -31.8667   23.2070 C   0  0  0  0  0  0
  -25.9024  -32.4822   23.8379 C   0  0  1  0  0  0
  -27.2428  -27.4271   20.0988 C   0  0  0  0  0  0
  -25.5894  -33.8627   24.2318 N   0  0  0  0  0  0
  -23.4056  -30.4889   21.5460 C   0  0  2  0  0  0
  -24.8568  -28.9509   20.1142 C   0  0  0  0  0  0
  -22.7414  -29.4648   22.4943 C   0  0  0  0  0  0
  -18.0279  -28.1391   22.8486 C   0  0  0  0  0  0
  -24.1488  -36.7295   23.2640 C   0  0  0  0  0  0
  -25.9337  -30.8306   21.3620 C   0  0  0  0  0  0
  -26.0163  -29.4610   20.7152 C   0  0  0  0  0  0
  -27.2129  -28.7052   20.7092 C   0  0  0  0  0  0
  -26.0701  -26.9305   19.4965 C   0  0  0  0  0  0
  -24.8788  -27.6818   19.5057 C   0  0  0  0  0  0
  -23.6178  -29.8190   20.1613 C   0  0  0  0  0  0
  -25.4107  -36.3110   24.0341 C   0  0  1  0  0  0
  -20.5875  -28.3664   23.1304 C   0  0  2  0  0  0
  -20.6772  -26.9397   22.5422 C   0  0  0  0  0  0
  -19.5756  -26.6385   21.5219 C   0  0  0  0  0  0
  -18.1923  -26.7941   22.1615 C   0  0  0  0  0  0
  -19.1528  -28.8840   23.2899 C   0  0  0  0  0  0
  -18.9467  -30.1452   23.8899 C   0  0  0  0  0  0
  -17.6467  -30.6590   24.0575 C   0  0  0  0  0  0
  -25.9029  -34.9476   23.5124 C   0  0  0  0  0  0
  -16.5352  -29.9097   23.6335 C   0  0  0  0  0  0
  -16.7273  -28.6525   23.0334 C   0  0  0  0  0  0
  -26.4464  -31.6601   25.0702 C   0  0  0  0  0  0
  -25.3759  -31.3729   26.1481 C   0  0  0  0  0  0
  -27.0289  -30.3043   24.6066 C   0  0  0  0  0  0
  -27.6057  -32.4312   25.7457 C   0  0  0  0  0  0
  -27.5582  -37.1795   24.8467 C   0  0  0  0  0  0
  -21.4135  -29.3045   22.3700 N   0  0  0  0  0  0
  -26.4288  -37.3796   23.9428 N   0  0  0  0  0  0
  -24.6692  -31.0768   22.0968 N   0  0  0  0  0  0
  -23.4188  -28.8185   23.2973 O   0  0  0  0  0  0
  -28.3775  -26.6445   20.0678 O   0  0  0  0  0  0
  -26.5593  -34.8933   22.4683 O   0  0  0  0  0  0
  -23.5325  -32.1408   23.7453 O   0  0  0  0  0  0
  -28.7832  -18.3020   23.5222 C   0  0  0  0  0  0
  -28.3711  -23.4393   20.2463 C   0  0  0  0  0  0
  -29.5952  -23.8528   22.4172 C   0  0  0  0  0  0
  -28.9125  -21.9768   20.2540 C   0  0  0  0  0  0
  -30.1014  -22.3960   22.3724 C   0  0  0  0  0  0
  -27.8229  -18.2408   22.3456 C   0  0  0  0  0  0
  -29.5882  -19.5838   23.2819 C   0  0  0  0  0  0
  -29.2430  -24.4520   21.0349 C   0  0  2  0  0  0
  -29.0755  -21.4372   21.7024 C   0  0  2  0  0  0
  -28.5633  -18.9568   21.2112 C   0  0  2  0  0  0
  -28.5628  -25.8443   21.2447 C   0  0  0  0  0  0
  -29.2922  -17.9452   20.2650 C   0  0  0  0  0  0
  -30.3690  -16.9724   20.8469 C   0  0  0  0  0  0
  -29.9497  -15.5535   20.9235 N   0  0  0  0  0  0
  -29.4628  -19.9796   21.8462 N   0  3  2  0  0  0
  -31.4665  -12.4074   19.1210 H   0  0  0  0  0  0
  -30.3206  -11.3058   19.8319 H   0  0  0  0  0  0
  -29.7352  -11.7707   17.4282 H   0  0  0  0  0  0
  -29.6658  -13.4828   17.7585 H   0  0  0  0  0  0
  -27.8142  -11.3137   18.8039 H   0  0  0  0  0  0
  -27.3682  -12.6512   17.7807 H   0  0  0  0  0  0
  -27.6969  -14.2567   19.5623 H   0  0  0  0  0  0
  -28.6849  -11.9821   21.3506 H   0  0  0  0  0  0
  -28.4766  -13.6311   21.8589 H   0  0  0  0  0  0
  -25.2772   -9.5674   22.4759 H   0  0  0  0  0  0
  -24.0010   -7.4632   22.7464 H   0  0  0  0  0  0
  -21.0853   -8.8794   19.8950 H   0  0  0  0  0  0
  -22.3725  -10.9681   19.6168 H   0  0  0  0  0  0
  -21.2029   -7.6164   23.9730 H   0  0  0  0  0  0
  -21.1456   -6.0521   25.9078 H   0  0  0  0  0  0
  -22.0607   -2.7623   23.2834 H   0  0  0  0  0  0
  -22.4113  -11.9919   22.4820 H   0  0  0  0  0  0
  -21.1089  -13.1253   22.2520 H   0  0  0  0  0  0
  -24.6510  -15.8322   20.4991 H   0  0  0  0  0  0
  -26.2610  -15.6223   20.0277 H   0  0  0  0  0  0
  -26.7089  -32.5539   23.1144 H   0  0  0  0  0  0
  -25.0120  -33.9817   25.0512 H   0  0  0  0  0  0
  -22.6953  -31.3053   21.4032 H   0  0  0  0  0  0
  -23.3767  -35.9613   23.3293 H   0  0  0  0  0  0
  -24.3598  -36.8910   22.2057 H   0  0  0  0  0  0
  -23.7205  -37.6482   23.6661 H   0  0  0  0  0  0
  -26.0470  -31.5912   20.5885 H   0  0  0  0  0  0
  -26.8236  -30.8887   21.9779 H   0  0  0  0  0  0
  -28.1086  -29.0984   21.1725 H   0  0  0  0  0  0
  -26.0827  -25.9556   19.0307 H   0  0  0  0  0  0
  -23.9886  -27.2799   19.0428 H   0  0  0  0  0  0
  -23.7245  -30.5962   19.4021 H   0  0  0  0  0  0
  -22.7446  -29.2368   19.8623 H   0  0  0  0  0  0
  -25.1274  -36.1964   25.0829 H   0  0  0  0  0  0
  -20.9991  -28.3244   24.1412 H   0  0  0  0  0  0
  -20.5666  -26.2278   23.3613 H   0  0  0  0  0  0
  -21.6641  -26.7426   22.1216 H   0  0  0  0  0  0
  -19.6921  -25.6303   21.1230 H   0  0  0  0  0  0
  -19.6717  -27.3225   20.6772 H   0  0  0  0  0  0
  -17.4207  -26.6705   21.4003 H   0  0  0  0  0  0
  -18.0301  -26.0088   22.9005 H   0  0  0  0  0  0
  -19.7945  -30.7274   24.2261 H   0  0  0  0  0  0
  -17.5025  -31.6274   24.5180 H   0  0  0  0  0  0
  -15.5360  -30.3004   23.7663 H   0  0  0  0  0  0
  -15.8668  -28.0867   22.7011 H   0  0  0  0  0  0
  -24.5944  -30.7045   25.7849 H   0  0  0  0  0  0
  -24.8949  -32.2903   26.4890 H   0  0  0  0  0  0
  -25.8133  -30.8951   27.0253 H   0  0  0  0  0  0
  -26.2821  -29.6825   24.1121 H   0  0  0  0  0  0
  -27.4076  -29.7258   25.4497 H   0  0  0  0  0  0
  -27.8652  -30.4374   23.9205 H   0  0  0  0  0  0
  -27.2696  -33.3624   26.2032 H   0  0  0  0  0  0
  -28.3869  -32.6839   25.0278 H   0  0  0  0  0  0
  -28.0728  -31.8433   26.5372 H   0  0  0  0  0  0
  -28.2585  -38.0106   24.7526 H   0  0  0  0  0  0
  -28.1079  -36.2635   24.6250 H   0  0  0  0  0  0
  -27.2319  -37.1386   25.8874 H   0  0  0  0  0  0
  -20.9267  -29.8778   21.6954 H   0  0  0  0  0  0
  -26.0168  -38.2864   24.1461 H   0  0  0  0  0  0
  -29.4343  -17.4294   23.5417 H   0  0  0  0  0  0
  -28.2576  -18.3220   24.4772 H   0  0  0  0  0  0
  -27.3624  -23.4384   20.6639 H   0  0  0  0  0  0
  -28.2688  -23.7825   19.2165 H   0  0  0  0  0  0
  -30.3496  -24.4771   22.8995 H   0  0  0  0  0  0
  -28.7174  -23.8948   23.0636 H   0  0  0  0  0  0
  -29.8707  -21.9387   19.7346 H   0  0  0  0  0  0
  -28.2304  -21.3608   19.6703 H   0  0  0  0  0  0
  -30.3340  -22.1046   23.3963 H   0  0  0  0  0  0
  -31.0536  -22.3583   21.8386 H   0  0  0  0  0  0
  -26.9127  -18.7897   22.5882 H   0  0  0  0  0  0
  -27.5286  -17.2210   22.0945 H   0  0  0  0  0  0
  -30.6349  -19.4572   23.5607 H   0  0  0  0  0  0
  -29.1717  -20.3452   23.9421 H   0  0  0  0  0  0
  -30.1749  -24.6021   20.4860 H   0  0  0  0  0  0
  -28.1119  -21.5478   22.2034 H   0  0  0  0  0  0
  -27.8075  -19.4546   20.6042 H   0  0  0  0  0  0
  -29.1808  -26.4388   21.9197 H   0  0  0  0  0  0
  -27.6149  -25.6917   21.7653 H   0  0  0  0  0  0
  -29.7576  -18.5246   19.4665 H   0  0  0  0  0  0
  -28.5334  -17.3544   19.7486 H   0  0  0  0  0  0
  -30.7389  -17.2993   21.8152 H   0  0  0  0  0  0
  -31.2401  -17.0495   20.1931 H   0  0  0  0  0  0
  -29.0098  -15.3522   21.2315 H   0  0  0  0  0  0
  -30.3717  -19.8772   21.4191 H   0  0  0  0  0  0
  1 25  1  0  0  0
  1 30  2  0  0  0
  1 84  1  0  0  0
  2  3  1  0  0  0
  2 25  1  0  0  0
  2 86  1  0  0  0
  2 87  1  0  0  0
  3  4  1  0  0  0
  3 88  1  0  0  0
  3 89  1  0  0  0
  4  5  1  0  0  0
  4 90  1  0  0  0
  4 91  1  0  0  0
  5  6  1  0  0  0
  5 26  1  0  0  0
  5 92  1  0  0  0
  6 25  1  0  0  0
  6 93  1  0  0  0
  6 94  1  0  0  0
  7  8  2  0  0  0
  7 26  1  0  0  0
  7 29  1  0  0  0
  8  9  1  0  0  0
  8 22  1  0  0  0
  9 10  1  0  0  0
  9 27  2  0  0  0
 10 11  2  0  0  0
 10 15  1  0  0  0
 11 12  1  0  0  0
 11 95  1  0  0  0
 12 13  2  0  0  0
 12 96  1  0  0  0
 13 14  1  0  0  0
 13 31  1  0  0  0
 14 15  2  0  0  0
 14 97  1  0  0  0
 15 98  1  0  0  0
 16 17  2  0  0  0
 16 21  1  0  0  0
 16 31  1  0  0  0
 17 18  1  0  0  0
 17 99  1  0  0  0
 18 19  2  0  0  0
 18100  1  0  0  0
 19 20  1  0  0  0
 19 24  1  0  0  0
 20 21  2  0  0  0
 20101  1  0  0  0
 21 23  1  0  0  0
 22 28  1  0  0  0
 22 32  2  0  0  0
 26 27  1  0  0  0
 28102  1  0  0  0
 28103  1  0  0  0
 29104  1  0  0  0
 29105  1  0  0  0
 33 34  1  0  0  0
 33 66  1  0  0  0
 33 70  2  0  0  0
 34 36  1  0  0  0
 34 59  1  0  0  0
 34106  1  0  0  0
 35 44  2  0  0  0
 35 45  1  0  0  0
 35 68  1  0  0  0
 36 56  1  0  0  0
 36107  1  0  0  0
 37 39  1  0  0  0
 37 47  1  0  0  0
 37 66  1  0  0  0
 37108  1  0  0  0
 38 43  2  0  0  0
 38 46  1  0  0  0
 38 47  1  0  0  0
 39 64  1  0  0  0
 39 67  2  0  0  0
 40 52  1  0  0  0
 40 53  2  0  0  0
 40 58  1  0  0  0
 41109  1  0  0  0
 41110  1  0  0  0
 41111  1  0  0  0
 41 48  1  0  0  0
 42 43  1  0  0  0
 42 66  1  0  0  0
 42112  1  0  0  0
 42113  1  0  0  0
 43 44  1  0  0  0
 44114  1  0  0  0
 45 46  2  0  0  0
 45115  1  0  0  0
 46116  1  0  0  0
 47117  1  0  0  0
 47118  1  0  0  0
 48 56  1  0  0  0
 48 65  1  0  0  0
 48119  1  0  0  0
 49 50  1  0  0  0
 49 53  1  0  0  0
 49 64  1  0  0  0
 49120  1  0  0  0
 50 51  1  0  0  0
 50121  1  0  0  0
 50122  1  0  0  0
 51 52  1  0  0  0
 51123  1  0  0  0
 51124  1  0  0  0
 52125  1  0  0  0
 52126  1  0  0  0
 53 54  1  0  0  0
 54 55  2  0  0  0
 54127  1  0  0  0
 55 57  1  0  0  0
 55128  1  0  0  0
 56 69  2  0  0  0
 57 58  2  0  0  0
 57129  1  0  0  0
 58130  1  0  0  0
 59 60  1  0  0  0
 59 61  1  0  0  0
 59 62  1  0  0  0
 60131  1  0  0  0
 60132  1  0  0  0
 60133  1  0  0  0
 61134  1  0  0  0
 61135  1  0  0  0
 61136  1  0  0  0
 62137  1  0  0  0
 62138  1  0  0  0
 62139  1  0  0  0
 63 65  1  0  0  0
 63140  1  0  0  0
 63141  1  0  0  0
 63142  1  0  0  0
 64143  1  0  0  0
 65144  1  0  0  0
 68 81  1  0  0  0
 71 76  1  0  0  0
 71 77  1  0  0  0
 71145  1  0  0  0
 71146  1  0  0  0
 72 74  1  0  0  0
 72 78  1  0  0  0
 72147  1  0  0  0
 72148  1  0  0  0
 73 75  1  0  0  0
 73 78  1  0  0  0
 73149  1  0  0  0
 73150  1  0  0  0
 74151  1  0  0  0
 74152  1  0  0  0
 74 79  1  0  0  0
 75 79  1  0  0  0
 75153  1  0  0  0
 75154  1  0  0  0
 76 80  1  0  0  0
 76155  1  0  0  0
 76156  1  0  0  0
 77157  1  0  0  0
 77158  1  0  0  0
 77 85  1  0  0  0
 78 81  1  0  0  0
 78159  1  0  0  0
 79 85  1  0  0  0
 79160  1  0  0  0
 80 82  1  0  0  0
 80 85  1  0  0  0
 80161  1  0  0  0
 81162  1  0  0  0
 81163  1  0  0  0
 82 83  1  0  0  0
 82164  1  0  0  0
 82165  1  0  0  0
 83 84  1  0  0  0
 83166  1  0  0  0
 83167  1  0  0  0
 84168  1  0  0  0
 85169  1  0  0  0
M  CHG  1  85   1
M  ISO  4   1 100  68 101  81 101  84 100
M  END
> <chiral flag>
0

> <version>
0

> <s_m_source_file>
/data/baiqing/PycharmProjects/Reinvent-master-3.2/result/LINK_invent/BTK/process_docking_weight1_custom_sum_contain_oxygen_bond_distance_aromatic_linkinvent_7_9_3/rearranged_h_0115.sdf

> <i_m_source_file_index>
98

> <r_mmod_Potential_Energy-OPLS-2005>
55.3689117431641

> <r_mmod_Stretch_Energy-OPLS-2005>
45.8316764831543

> <r_mmod_Bend_Energy-OPLS-2005>
133.397003173828

> <r_mmod_Torsional_Energy-OPLS-2005>
353.982391357422

> <r_mmod_Improper_Torsional_Energy-OPLS-2005>
4.68097925186157

> <r_mmod_Van_der_Waal_Energy-OPLS-2005>
129.692276000977

> <r_mmod_Electrostatic_Energy-OPLS-2005>
-191.960479736328

> <r_mmod_Solvation_Energy-OPLS-2005>
-435.849151611328

> <b_mmod_Minimization_Converged-OPLS-2005>
0

> <r_mmod_RMS_Derivative-OPLS-2005>
2.5863254070282

$$$$
98
                    3D
 Structure written by MMmdl.
153161  0  0  1  0            999 V2000
  -30.6117  -14.8476   20.4120 C   0  0  0  0  0  0
  -30.4310  -12.5211   19.4826 C   0  0  0  0  0  0
  -29.5128  -12.5191   18.2410 C   0  0  0  0  0  0
  -28.0423  -12.3292   18.6576 C   0  0  0  0  0  0
  -27.6341  -13.2503   19.8395 C   0  0  2  0  0  0
  -28.6833  -13.2560   20.9727 C   0  0  0  0  0  0
  -25.2466  -13.8228   20.5727 C   0  0  0  0  0  0
  -24.1776  -13.0439   20.9227 C   0  0  0  0  0  0
  -24.6398  -11.6934   20.8739 C   0  0  0  0  0  0
  -23.9077  -10.4296   21.0390 C   0  0  0  0  0  0
  -24.3624   -9.4213   21.9172 C   0  0  0  0  0  0
  -23.6299   -8.2246   22.0746 C   0  0  0  0  0  0
  -22.4282   -8.0280   21.3543 C   0  0  0  0  0  0
  -21.9920   -9.0245   20.4636 C   0  0  0  0  0  0
  -22.7245  -10.2130   20.3043 C   0  0  0  0  0  0
  -21.6861   -6.0728   22.5274 C   0  0  0  0  0  0
  -21.4009   -6.5629   23.8205 C   0  0  0  0  0  0
  -21.3663   -5.6792   24.9165 C   0  0  0  0  0  0
  -21.6055   -4.3054   24.7229 C   0  0  0  0  0  0
  -21.8818   -3.8142   23.4345 C   0  0  0  0  0  0
  -21.9192   -4.6953   22.3398 C   0  0  0  0  0  0
  -22.7794  -13.5197   21.1890 C   0  0  0  0  0  0
  -22.1663   -4.2136   21.0978 F   0  0  0  0  0  0
  -21.5634   -3.4543   25.7739 F   0  0  0  0  0  0
  -29.9700  -13.6214   20.3698 N   0  0  0  0  0  0
  -26.2914  -12.9479   20.3275 N   0  0  0  0  0  0
  -25.9342  -11.6600   20.5738 N   0  0  0  0  0  0
  -22.0448  -12.8166   22.0443 N   0  0  0  0  0  0
  -25.4115  -15.1950   20.4170 N   0  0  0  0  0  0
  -31.8180  -14.8799   20.1521 O   0  0  0  0  0  0
  -21.6647   -6.8874   21.4238 O   0  0  0  0  0  0
  -22.3458  -14.5496   20.6736 O   0  0  0  0  0  0
  -24.6409  -31.8476   23.1923 C   0  0  0  0  0  0
  -25.9192  -32.4704   23.8290 C   0  0  1  0  0  0
  -27.2247  -27.1841   20.1440 C   0  0  0  0  0  0
  -25.5968  -33.8512   24.2213 N   0  0  0  0  0  0
  -23.4412  -30.4667   21.5393 C   0  0  2  0  0  0
  -24.8907  -28.8982   20.1156 C   0  0  0  0  0  0
  -22.7548  -29.4552   22.4913 C   0  0  0  0  0  0
  -18.0297  -28.1397   22.8484 C   0  0  0  0  0  0
  -24.1498  -36.7254   23.2640 C   0  0  0  0  0  0
  -25.9936  -30.7369   21.3816 C   0  0  0  0  0  0
  -26.0664  -29.3503   20.7282 C   0  0  0  0  0  0
  -27.2355  -28.5094   20.7228 C   0  0  0  0  0  0
  -26.0269  -26.8229   19.4918 C   0  0  0  0  0  0
  -24.8801  -27.6450   19.4842 C   0  0  0  0  0  0
  -23.6655  -29.7954   20.1581 C   0  0  0  0  0  0
  -25.4133  -36.3033   24.0314 C   0  0  1  0  0  0
  -20.5911  -28.3699   23.1277 C   0  0  2  0  0  0
  -20.6802  -26.9408   22.5432 C   0  0  0  0  0  0
  -19.5770  -26.6386   21.5241 C   0  0  0  0  0  0
  -18.1939  -26.7935   22.1640 C   0  0  0  0  0  0
  -19.1556  -28.8868   23.2866 C   0  0  0  0  0  0
  -18.9467  -30.1470   23.8879 C   0  0  0  0  0  0
  -17.6461  -30.6588   24.0566 C   0  0  0  0  0  0
  -25.9081  -34.9405   23.5066 C   0  0  0  0  0  0
  -16.5351  -29.9079   23.6339 C   0  0  0  0  0  0
  -16.7285  -28.6509   23.0345 C   0  0  0  0  0  0
  -26.4547  -31.6532   25.0713 C   0  0  0  0  0  0
  -25.3760  -31.3694   26.1420 C   0  0  0  0  0  0
  -27.0431  -30.2950   24.6233 C   0  0  0  0  0  0
  -27.6072  -32.4321   25.7488 C   0  0  0  0  0  0
  -27.5579  -37.1780   24.8460 C   0  0  0  0  0  0
  -21.4242  -29.3031   22.3651 N   0  0  0  0  0  0
  -26.4304  -37.3749   23.9384 N   0  0  0  0  0  0
  -24.7120  -31.0363   22.0938 N   0  0  0  0  0  0
  -23.4209  -28.8085   23.3038 O   0  0  0  0  0  0
  -28.3137  -26.2562   20.1543 O   0  0  0  0  0  0
  -26.5659  -34.8897   22.4641 O   0  0  0  0  0  0
  -23.5538  -32.1315   23.7189 O   0  0  0  0  0  0
  -28.9926  -19.5424   19.2967 C   0  0  0  0  0  0
  -28.7037  -20.9628   19.1974 C   0  0  0  0  0  0
  -30.1655  -19.9452   21.3082 C   0  0  0  0  0  0
  -29.7768  -18.9594   20.3443 C   0  0  0  0  0  0
  -29.1557  -21.9605   20.1295 C   0  0  0  0  0  0
  -29.8806  -21.3644   21.2158 C   0  0  0  0  0  0
  -30.4683  -22.2611   22.2890 C   0  0  0  0  0  0
  -29.1244  -23.5743   19.8141 C   0  0  0  0  0  0
  -30.4787  -17.4814   20.3107 C   0  0  0  0  0  0
  -28.1126  -24.7474   20.4043 C   0  0  0  0  0  0
  -29.8959  -16.0554   20.5123 N   0  0  0  0  0  0
  -31.4716  -12.6412   19.1728 H   0  0  0  0  0  0
  -30.3834  -11.5629   20.0037 H   0  0  0  0  0  0
  -29.8101  -11.7308   17.5481 H   0  0  0  0  0  0
  -29.6248  -13.4615   17.7012 H   0  0  0  0  0  0
  -27.9129  -11.2843   18.9421 H   0  0  0  0  0  0
  -27.3834  -12.4950   17.8040 H   0  0  0  0  0  0
  -27.6031  -14.2595   19.4283 H   0  0  0  0  0  0
  -28.7436  -12.2796   21.4542 H   0  0  0  0  0  0
  -28.4078  -13.9694   21.7528 H   0  0  0  0  0  0
  -25.2770   -9.5687   22.4756 H   0  0  0  0  0  0
  -24.0009   -7.4633   22.7468 H   0  0  0  0  0  0
  -21.0853   -8.8753   19.8943 H   0  0  0  0  0  0
  -22.3693  -10.9658   19.6155 H   0  0  0  0  0  0
  -21.1992   -7.6141   23.9697 H   0  0  0  0  0  0
  -21.1496   -6.0524   25.9069 H   0  0  0  0  0  0
  -22.0597   -2.7604   23.2849 H   0  0  0  0  0  0
  -22.4089  -11.9843   22.4846 H   0  0  0  0  0  0
  -21.1048  -13.1140   22.2637 H   0  0  0  0  0  0
  -24.6431  -15.8464   20.5339 H   0  0  0  0  0  0
  -26.2587  -15.6422   20.0909 H   0  0  0  0  0  0
  -26.7248  -32.5334   23.1029 H   0  0  0  0  0  0
  -25.0102  -33.9625   25.0348 H   0  0  0  0  0  0
  -22.7423  -31.2924   21.3884 H   0  0  0  0  0  0
  -23.3770  -35.9574   23.3311 H   0  0  0  0  0  0
  -24.3564  -36.8876   22.2049 H   0  0  0  0  0  0
  -23.7241  -37.6448   23.6678 H   0  0  0  0  0  0
  -26.1333  -31.4883   20.6022 H   0  0  0  0  0  0
  -26.8726  -30.7931   22.0145 H   0  0  0  0  0  0
  -28.1397  -28.8541   21.2030 H   0  0  0  0  0  0
  -25.9568  -25.8754   18.9784 H   0  0  0  0  0  0
  -23.9846  -27.2979   18.9886 H   0  0  0  0  0  0
  -23.8006  -30.5717   19.4034 H   0  0  0  0  0  0
  -22.7800  -29.2365   19.8501 H   0  0  0  0  0  0
  -25.1332  -36.1883   25.0811 H   0  0  0  0  0  0
  -20.9996  -28.3290   24.1406 H   0  0  0  0  0  0
  -20.5737  -26.2299   23.3644 H   0  0  0  0  0  0
  -21.6657  -26.7454   22.1193 H   0  0  0  0  0  0
  -19.6920  -25.6302   21.1254 H   0  0  0  0  0  0
  -19.6703  -27.3222   20.6787 H   0  0  0  0  0  0
  -17.4219  -26.6694   21.4033 H   0  0  0  0  0  0
  -18.0303  -26.0084   22.9046 H   0  0  0  0  0  0
  -19.7940  -30.7304   24.2234 H   0  0  0  0  0  0
  -17.5007  -31.6261   24.5182 H   0  0  0  0  0  0
  -15.5348  -30.2972   23.7671 H   0  0  0  0  0  0
  -15.8693  -28.0827   22.7054 H   0  0  0  0  0  0
  -24.5935  -30.7044   25.7745 H   0  0  0  0  0  0
  -24.8976  -32.2874   26.4851 H   0  0  0  0  0  0
  -25.8089  -30.8866   27.0189 H   0  0  0  0  0  0
  -26.3048  -29.6643   24.1268 H   0  0  0  0  0  0
  -27.4094  -29.7253   25.4783 H   0  0  0  0  0  0
  -27.8920  -30.4209   23.9517 H   0  0  0  0  0  0
  -27.2644  -33.3630   26.2015 H   0  0  0  0  0  0
  -28.3899  -32.6846   25.0340 H   0  0  0  0  0  0
  -28.0704  -31.8483   26.5449 H   0  0  0  0  0  0
  -28.2620  -38.0061   24.7514 H   0  0  0  0  0  0
  -28.1067  -36.2593   24.6323 H   0  0  0  0  0  0
  -27.2281  -37.1463   25.8860 H   0  0  0  0  0  0
  -20.9457  -29.8734   21.6822 H   0  0  0  0  0  0
  -26.0183  -38.2826   24.1369 H   0  0  0  0  0  0
  -28.6744  -18.9068   18.4810 H   0  0  0  0  0  0
  -28.1781  -21.2991   18.3147 H   0  0  0  0  0  0
  -30.7958  -19.6112   22.1212 H   0  0  0  0  0  0
  -30.7110  -21.6892   23.1857 H   0  0  0  0  0  0
  -29.7677  -23.0450   22.5747 H   0  0  0  0  0  0
  -31.3868  -22.7283   21.9326 H   0  0  0  0  0  0
  -30.1352  -23.9237   20.0282 H   0  0  0  0  0  0
  -29.0624  -23.6473   18.7291 H   0  0  0  0  0  0
  -31.3144  -17.5437   21.0092 H   0  0  0  0  0  0
  -30.9655  -17.4399   19.3357 H   0  0  0  0  0  0
  -28.1425  -24.6563   21.4893 H   0  0  0  0  0  0
  -27.0991  -24.4563   20.1385 H   0  0  0  0  0  0
  -28.8995  -15.9881   20.6544 H   0  0  0  0  0  0
  1 25  1  0  0  0
  1 30  2  0  0  0
  1 81  1  0  0  0
  2  3  1  0  0  0
  2 25  1  0  0  0
  2 82  1  0  0  0
  2 83  1  0  0  0
  3  4  1  0  0  0
  3 84  1  0  0  0
  3 85  1  0  0  0
  4  5  1  0  0  0
  4 86  1  0  0  0
  4 87  1  0  0  0
  5  6  1  0  0  0
  5 26  1  0  0  0
  5 88  1  0  0  0
  6 25  1  0  0  0
  6 89  1  0  0  0
  6 90  1  0  0  0
  7  8  2  0  0  0
  7 26  1  0  0  0
  7 29  1  0  0  0
  8  9  1  0  0  0
  8 22  1  0  0  0
  9 10  1  0  0  0
  9 27  2  0  0  0
 10 11  2  0  0  0
 10 15  1  0  0  0
 11 12  1  0  0  0
 11 91  1  0  0  0
 12 13  2  0  0  0
 12 92  1  0  0  0
 13 14  1  0  0  0
 13 31  1  0  0  0
 14 15  2  0  0  0
 14 93  1  0  0  0
 15 94  1  0  0  0
 16 17  2  0  0  0
 16 21  1  0  0  0
 16 31  1  0  0  0
 17 18  1  0  0  0
 17 95  1  0  0  0
 18 19  2  0  0  0
 18 96  1  0  0  0
 19 20  1  0  0  0
 19 24  1  0  0  0
 20 21  2  0  0  0
 20 97  1  0  0  0
 21 23  1  0  0  0
 22 28  1  0  0  0
 22 32  2  0  0  0
 26 27  1  0  0  0
 28 98  1  0  0  0
 28 99  1  0  0  0
 29100  1  0  0  0
 29101  1  0  0  0
 33 34  1  0  0  0
 33 66  1  0  0  0
 33 70  2  0  0  0
 34 36  1  0  0  0
 34 59  1  0  0  0
 34102  1  0  0  0
 35 44  2  0  0  0
 35 45  1  0  0  0
 35 68  1  0  0  0
 36 56  1  0  0  0
 36103  1  0  0  0
 37 39  1  0  0  0
 37 47  1  0  0  0
 37 66  1  0  0  0
 37104  1  0  0  0
 38 43  2  0  0  0
 38 46  1  0  0  0
 38 47  1  0  0  0
 39 64  1  0  0  0
 39 67  2  0  0  0
 40 52  1  0  0  0
 40 53  2  0  0  0
 40 58  1  0  0  0
 41105  1  0  0  0
 41106  1  0  0  0
 41107  1  0  0  0
 41 48  1  0  0  0
 42 43  1  0  0  0
 42 66  1  0  0  0
 42108  1  0  0  0
 42109  1  0  0  0
 43 44  1  0  0  0
 44110  1  0  0  0
 45 46  2  0  0  0
 45111  1  0  0  0
 46112  1  0  0  0
 47113  1  0  0  0
 47114  1  0  0  0
 48 56  1  0  0  0
 48 65  1  0  0  0
 48115  1  0  0  0
 49 50  1  0  0  0
 49 53  1  0  0  0
 49 64  1  0  0  0
 49116  1  0  0  0
 50 51  1  0  0  0
 50117  1  0  0  0
 50118  1  0  0  0
 51 52  1  0  0  0
 51119  1  0  0  0
 51120  1  0  0  0
 52121  1  0  0  0
 52122  1  0  0  0
 53 54  1  0  0  0
 54 55  2  0  0  0
 54123  1  0  0  0
 55 57  1  0  0  0
 55124  1  0  0  0
 56 69  2  0  0  0
 57 58  2  0  0  0
 57125  1  0  0  0
 58126  1  0  0  0
 59 60  1  0  0  0
 59 61  1  0  0  0
 59 62  1  0  0  0
 60127  1  0  0  0
 60128  1  0  0  0
 60129  1  0  0  0
 61130  1  0  0  0
 61131  1  0  0  0
 61132  1  0  0  0
 62133  1  0  0  0
 62134  1  0  0  0
 62135  1  0  0  0
 63 65  1  0  0  0
 63136  1  0  0  0
 63137  1  0  0  0
 63138  1  0  0  0
 64139  1  0  0  0
 65140  1  0  0  0
 68 80  1  0  0  0
 71 72  2  0  0  0
 71 74  1  0  0  0
 71141  1  0  0  0
 72 75  1  0  0  0
 72142  1  0  0  0
 73 74  2  0  0  0
 73 76  1  0  0  0
 73143  1  0  0  0
 74 79  1  0  0  0
 75 76  2  0  0  0
 75 78  1  0  0  0
 76 77  1  0  0  0
 77144  1  0  0  0
 77145  1  0  0  0
 77146  1  0  0  0
 78 80  1  0  0  0
 78147  1  0  0  0
 78148  1  0  0  0
 79 81  1  0  0  0
 79149  1  0  0  0
 79150  1  0  0  0
 80151  1  0  0  0
 80152  1  0  0  0
 81153  1  0  0  0
M  ISO  4   1 100  68 101  80 101  81 100
M  END
> <chiral flag>
0

> <version>
0

> <s_m_source_file>
/data/baiqing/PycharmProjects/Reinvent-master-3.2/result/LINK_invent/BTK/process_docking_weight1_custom_sum_contain_oxygen_bond_distance_aromatic_linkinvent_7_9_3/rearranged_h_0115.sdf

> <i_m_source_file_index>
99

> <r_mmod_Potential_Energy-OPLS-2005>
317.777160644531

> <r_mmod_Stretch_Energy-OPLS-2005>
186.302536010742

> <r_mmod_Bend_Energy-OPLS-2005>
233.452117919922

> <r_mmod_Torsional_Energy-OPLS-2005>
232.509002685547

> <r_mmod_Improper_Torsional_Energy-OPLS-2005>
9.69098663330078

> <r_mmod_Van_der_Waal_Energy-OPLS-2005>
133.931823730469

> <r_mmod_Electrostatic_Energy-OPLS-2005>
-405.963500976562

> <r_mmod_Solvation_Energy-OPLS-2005>
-207.966415405273

> <b_mmod_Minimization_Converged-OPLS-2005>
0

> <r_mmod_RMS_Derivative-OPLS-2005>
3.00537633895874

$$$$
