0
                    3D
 Structure written by MMmdl.
157164  0  0  1  0            999 V2000
  -30.6314  -14.5651   20.5610 C   0  0  0  0  0  0
  -30.4522  -12.3726   19.4184 C   0  0  0  0  0  0
  -29.4949  -12.4696   18.2050 C   0  0  0  0  0  0
  -28.0213  -12.3176   18.6367 C   0  0  0  0  0  0
  -27.6566  -13.1889   19.8701 C   0  0  2  0  0  0
  -28.7044  -12.9849   20.9868 C   0  0  0  0  0  0
  -25.2590  -13.8096   20.5720 C   0  0  0  0  0  0
  -24.1801  -13.0404   20.9235 C   0  0  0  0  0  0
  -24.6327  -11.6874   20.8739 C   0  0  0  0  0  0
  -23.8974  -10.4266   21.0414 C   0  0  0  0  0  0
  -24.3530   -9.4189   21.9183 C   0  0  0  0  0  0
  -23.6237   -8.2203   22.0740 C   0  0  0  0  0  0
  -22.4225   -8.0228   21.3528 C   0  0  0  0  0  0
  -21.9846   -9.0187   20.4625 C   0  0  0  0  0  0
  -22.7160  -10.2094   20.3062 C   0  0  0  0  0  0
  -21.6830   -6.0655   22.5248 C   0  0  0  0  0  0
  -21.3975   -6.5584   23.8169 C   0  0  0  0  0  0
  -21.3676   -5.6777   24.9148 C   0  0  0  0  0  0
  -21.6073   -4.3035   24.7229 C   0  0  0  0  0  0
  -21.8836   -3.8095   23.4358 C   0  0  0  0  0  0
  -21.9193   -4.6886   22.3397 C   0  0  0  0  0  0
  -22.7836  -13.5236   21.1892 C   0  0  0  0  0  0
  -22.1660   -4.2066   21.0969 F   0  0  0  0  0  0
  -21.5681   -3.4536   25.7749 F   0  0  0  0  0  0
  -30.0222  -13.3488   20.4351 N   0  0  0  0  0  0
  -26.2975  -12.9211   20.3349 N   0  0  0  0  0  0
  -25.9245  -11.6399   20.5765 N   0  0  0  0  0  0
  -22.0458  -12.8186   22.0425 N   0  0  0  0  0  0
  -25.4389  -15.1782   20.4056 N   0  0  0  0  0  0
  -31.7487  -14.7989   20.0861 O   0  0  0  0  0  0
  -21.6637   -6.8788   21.4212 O   0  0  0  0  0  0
  -22.3533  -14.5551   20.6771 O   0  0  0  0  0  0
  -24.6203  -31.8646   23.2120 C   0  0  0  0  0  0
  -25.9087  -32.4790   23.8392 C   0  0  1  0  0  0
  -27.2103  -27.3782   20.0738 C   0  0  0  0  0  0
  -25.5945  -33.8597   24.2307 N   0  0  0  0  0  0
  -23.4057  -30.4995   21.5495 C   0  0  2  0  0  0
  -24.8468  -28.9663   20.0980 C   0  0  0  0  0  0
  -22.7392  -29.4695   22.4889 C   0  0  0  0  0  0
  -18.0299  -28.1337   22.8462 C   0  0  0  0  0  0
  -24.1491  -36.7304   23.2650 C   0  0  0  0  0  0
  -25.9452  -30.8093   21.3803 C   0  0  0  0  0  0
  -26.0126  -29.4478   20.7081 C   0  0  0  0  0  0
  -27.1920  -28.6580   20.6987 C   0  0  0  0  0  0
  -26.0242  -26.9289   19.4532 C   0  0  0  0  0  0
  -24.8525  -27.7108   19.4670 C   0  0  0  0  0  0
  -23.6154  -29.8481   20.1579 C   0  0  0  0  0  0
  -25.4117  -36.3096   24.0328 C   0  0  1  0  0  0
  -20.5872  -28.3691   23.1277 C   0  0  2  0  0  0
  -20.6822  -26.9383   22.5474 C   0  0  0  0  0  0
  -19.5852  -26.6287   21.5266 C   0  0  0  0  0  0
  -18.1976  -26.7876   22.1595 C   0  0  0  0  0  0
  -19.1521  -28.8823   23.2874 C   0  0  0  0  0  0
  -18.9456  -30.1422   23.8869 C   0  0  0  0  0  0
  -17.6468  -30.6589   24.0490 C   0  0  0  0  0  0
  -25.9046  -34.9467   23.5119 C   0  0  0  0  0  0
  -16.5365  -29.9058   23.6276 C   0  0  0  0  0  0
  -16.7282  -28.6441   23.0352 C   0  0  0  0  0  0
  -26.4503  -31.6571   25.0724 C   0  0  0  0  0  0
  -25.3733  -31.3734   26.1445 C   0  0  0  0  0  0
  -27.0377  -30.3002   24.6170 C   0  0  0  0  0  0
  -27.6033  -32.4349   25.7487 C   0  0  0  0  0  0
  -27.5572  -37.1808   24.8457 C   0  0  0  0  0  0
  -21.4107  -29.3065   22.3632 N   0  0  0  0  0  0
  -26.4298  -37.3786   23.9399 N   0  0  0  0  0  0
  -24.6748  -31.0734   22.1036 N   0  0  0  0  0  0
  -23.4179  -28.8228   23.2929 O   0  0  0  0  0  0
  -28.3548  -26.5880   20.1263 O   0  0  0  0  0  0
  -26.5595  -34.8941   22.4683 O   0  0  0  0  0  0
  -23.5402  -32.1449   23.7494 O   0  0  0  0  0  0
  -28.2806  -24.0535   19.4937 C   0  0  0  0  0  0
  -29.2833  -19.2307   20.4580 C   0  0  0  0  0  0
  -29.6423  -17.9428   22.6938 C   0  0  0  0  0  0
  -28.2096  -21.0075   22.0018 C   0  0  0  0  0  0
  -28.5950  -25.5418   19.1411 C   0  0  0  0  0  0
  -28.8529  -21.7142   19.6626 C   0  0  0  0  0  0
  -30.1536  -18.1809   21.2564 C   0  0  1  0  0  0
  -29.2270  -20.7597   20.8675 C   0  0  2  0  0  0
  -29.1498  -23.1661   19.8459 N   0  0  0  0  0  0
  -29.8744  -15.5511   21.0997 N   0  0  0  0  0  0
  -30.2372  -16.9080   20.4537 N   0  3  0  0  0  0
  -28.6136  -18.8436   19.4912 O   0  0  0  0  0  0
  -30.4351  -21.1288   21.3029 F   0  0  0  0  0  0
  -31.4816  -12.5373   19.0929 H   0  0  0  0  0  0
  -30.4289  -11.3668   19.8399 H   0  0  0  0  0  0
  -29.7422  -11.6907   17.4814 H   0  0  0  0  0  0
  -29.6364  -13.4196   17.6893 H   0  0  0  0  0  0
  -27.8676  -11.2666   18.8820 H   0  0  0  0  0  0
  -27.3494  -12.5293   17.8022 H   0  0  0  0  0  0
  -27.6922  -14.2300   19.5497 H   0  0  0  0  0  0
  -28.7127  -11.9339   21.2892 H   0  0  0  0  0  0
  -28.4517  -13.5441   21.8888 H   0  0  0  0  0  0
  -25.2663   -9.5681   22.4756 H   0  0  0  0  0  0
  -23.9950   -7.4602   22.7461 H   0  0  0  0  0  0
  -21.0784   -8.8685   19.8915 H   0  0  0  0  0  0
  -22.3595  -10.9604   19.6158 H   0  0  0  0  0  0
  -21.1907   -7.6084   23.9624 H   0  0  0  0  0  0
  -21.1514   -6.0510   25.9048 H   0  0  0  0  0  0
  -22.0603   -2.7552   23.2892 H   0  0  0  0  0  0
  -22.4045  -11.9840   22.4811 H   0  0  0  0  0  0
  -21.1044  -13.1142   22.2547 H   0  0  0  0  0  0
  -24.6783  -15.8391   20.5196 H   0  0  0  0  0  0
  -26.2551  -15.5945   19.9754 H   0  0  0  0  0  0
  -26.7128  -32.5444   23.1113 H   0  0  0  0  0  0
  -25.0030  -33.9737   25.0397 H   0  0  0  0  0  0
  -22.6997  -31.3234   21.4204 H   0  0  0  0  0  0
  -23.3759  -35.9636   23.3335 H   0  0  0  0  0  0
  -24.3570  -36.8913   22.2068 H   0  0  0  0  0  0
  -23.7270  -37.6519   23.6664 H   0  0  0  0  0  0
  -26.0800  -31.5917   20.6330 H   0  0  0  0  0  0
  -26.8249  -30.8399   22.0123 H   0  0  0  0  0  0
  -28.0902  -29.0304   21.1720 H   0  0  0  0  0  0
  -25.9786  -25.9651   18.9668 H   0  0  0  0  0  0
  -23.9539  -27.3402   18.9952 H   0  0  0  0  0  0
  -23.7416  -30.6407   19.4211 H   0  0  0  0  0  0
  -22.7311  -29.2924   19.8416 H   0  0  0  0  0  0
  -25.1316  -36.1935   25.0823 H   0  0  0  0  0  0
  -20.9945  -28.3328   24.1428 H   0  0  0  0  0  0
  -20.5723  -26.2308   23.3693 H   0  0  0  0  0  0
  -21.6725  -26.7433   22.1321 H   0  0  0  0  0  0
  -19.7070  -25.6156   21.1401 H   0  0  0  0  0  0
  -19.6848  -27.2998   20.6700 H   0  0  0  0  0  0
  -17.4282  -26.6597   21.3957 H   0  0  0  0  0  0
  -18.0339  -26.0005   22.8965 H   0  0  0  0  0  0
  -19.7965  -30.7210   24.2223 H   0  0  0  0  0  0
  -17.5043  -31.6298   24.5039 H   0  0  0  0  0  0
  -15.5369  -30.3010   23.7535 H   0  0  0  0  0  0
  -15.8671  -28.0759   22.7101 H   0  0  0  0  0  0
  -24.5825  -30.7187   25.7775 H   0  0  0  0  0  0
  -24.9015  -32.2926   26.4930 H   0  0  0  0  0  0
  -25.8029  -30.8826   27.0177 H   0  0  0  0  0  0
  -26.2950  -29.6674   24.1294 H   0  0  0  0  0  0
  -27.4210  -29.7342   25.4672 H   0  0  0  0  0  0
  -27.8757  -30.4335   23.9322 H   0  0  0  0  0  0
  -27.2569  -33.3613   26.2113 H   0  0  0  0  0  0
  -28.3793  -32.6998   25.0278 H   0  0  0  0  0  0
  -28.0745  -31.8447   26.5356 H   0  0  0  0  0  0
  -28.2610  -38.0087   24.7474 H   0  0  0  0  0  0
  -28.1048  -36.2609   24.6318 H   0  0  0  0  0  0
  -27.2260  -37.1502   25.8855 H   0  0  0  0  0  0
  -20.9234  -29.8762   21.6848 H   0  0  0  0  0  0
  -26.0173  -38.2865   24.1396 H   0  0  0  0  0  0
  -27.2453  -23.7763   19.2710 H   0  0  0  0  0  0
  -29.6895  -18.8529   23.2857 H   0  0  0  0  0  0
  -30.2676  -17.2232   23.2202 H   0  0  0  0  0  0
  -28.6152  -17.5811   22.7163 H   0  0  0  0  0  0
  -28.5477  -20.6335   22.9660 H   0  0  0  0  0  0
  -27.2398  -20.5613   21.7674 H   0  0  0  0  0  0
  -28.0344  -22.0723   22.1464 H   0  0  0  0  0  0
  -28.0895  -25.7812   18.2049 H   0  0  0  0  0  0
  -29.6548  -25.6051   18.8939 H   0  0  0  0  0  0
  -29.4112  -21.3765   18.7869 H   0  0  0  0  0  0
  -27.8086  -21.5415   19.3928 H   0  0  0  0  0  0
  -31.1688  -18.5677   21.3284 H   0  0  0  0  0  0
  -28.9157  -15.4045   21.3782 H   0  0  0  0  0  0
  -31.1688  -16.7921   20.0684 H   0  0  0  0  0  0
  -29.6161  -17.0716   19.6689 H   0  0  0  0  0  0
  1 25  1  0  0  0
  1 30  2  0  0  0
  1 80  1  0  0  0
  2  3  1  0  0  0
  2 25  1  0  0  0
  2 84  1  0  0  0
  2 85  1  0  0  0
  3  4  1  0  0  0
  3 86  1  0  0  0
  3 87  1  0  0  0
  4  5  1  0  0  0
  4 88  1  0  0  0
  4 89  1  0  0  0
  5  6  1  0  0  0
  5 26  1  0  0  0
  5 90  1  0  0  0
  6 25  1  0  0  0
  6 91  1  0  0  0
  6 92  1  0  0  0
  7  8  2  0  0  0
  7 26  1  0  0  0
  7 29  1  0  0  0
  8  9  1  0  0  0
  8 22  1  0  0  0
  9 10  1  0  0  0
  9 27  2  0  0  0
 10 11  2  0  0  0
 10 15  1  0  0  0
 11 12  1  0  0  0
 11 93  1  0  0  0
 12 13  2  0  0  0
 12 94  1  0  0  0
 13 14  1  0  0  0
 13 31  1  0  0  0
 14 15  2  0  0  0
 14 95  1  0  0  0
 15 96  1  0  0  0
 16 17  2  0  0  0
 16 21  1  0  0  0
 16 31  1  0  0  0
 17 18  1  0  0  0
 17 97  1  0  0  0
 18 19  2  0  0  0
 18 98  1  0  0  0
 19 20  1  0  0  0
 19 24  1  0  0  0
 20 21  2  0  0  0
 20 99  1  0  0  0
 21 23  1  0  0  0
 22 28  1  0  0  0
 22 32  2  0  0  0
 26 27  1  0  0  0
 28100  1  0  0  0
 28101  1  0  0  0
 29102  1  0  0  0
 29103  1  0  0  0
 33 34  1  0  0  0
 33 66  1  0  0  0
 33 70  2  0  0  0
 34 36  1  0  0  0
 34 59  1  0  0  0
 34104  1  0  0  0
 35 44  2  0  0  0
 35 45  1  0  0  0
 35 68  1  0  0  0
 36 56  1  0  0  0
 36105  1  0  0  0
 37 39  1  0  0  0
 37 47  1  0  0  0
 37 66  1  0  0  0
 37106  1  0  0  0
 38 43  2  0  0  0
 38 46  1  0  0  0
 38 47  1  0  0  0
 39 64  1  0  0  0
 39 67  2  0  0  0
 40 52  1  0  0  0
 40 53  2  0  0  0
 40 58  1  0  0  0
 41107  1  0  0  0
 41108  1  0  0  0
 41109  1  0  0  0
 41 48  1  0  0  0
 42 43  1  0  0  0
 42 66  1  0  0  0
 42110  1  0  0  0
 42111  1  0  0  0
 43 44  1  0  0  0
 44112  1  0  0  0
 45 46  2  0  0  0
 45113  1  0  0  0
 46114  1  0  0  0
 47115  1  0  0  0
 47116  1  0  0  0
 48 56  1  0  0  0
 48 65  1  0  0  0
 48117  1  0  0  0
 49 50  1  0  0  0
 49 53  1  0  0  0
 49 64  1  0  0  0
 49118  1  0  0  0
 50 51  1  0  0  0
 50119  1  0  0  0
 50120  1  0  0  0
 51 52  1  0  0  0
 51121  1  0  0  0
 51122  1  0  0  0
 52123  1  0  0  0
 52124  1  0  0  0
 53 54  1  0  0  0
 54 55  2  0  0  0
 54125  1  0  0  0
 55 57  1  0  0  0
 55126  1  0  0  0
 56 69  2  0  0  0
 57 58  2  0  0  0
 57127  1  0  0  0
 58128  1  0  0  0
 59 60  1  0  0  0
 59 61  1  0  0  0
 59 62  1  0  0  0
 60129  1  0  0  0
 60130  1  0  0  0
 60131  1  0  0  0
 61132  1  0  0  0
 61133  1  0  0  0
 61134  1  0  0  0
 62135  1  0  0  0
 62136  1  0  0  0
 62137  1  0  0  0
 63 65  1  0  0  0
 63138  1  0  0  0
 63139  1  0  0  0
 63140  1  0  0  0
 64141  1  0  0  0
 65142  1  0  0  0
 68 75  1  0  0  0
 71 75  1  0  0  0
 71 79  2  0  0  0
 71143  1  0  0  0
 72 77  1  0  0  0
 72 78  1  0  0  0
 72 82  2  0  0  0
 73144  1  0  0  0
 73145  1  0  0  0
 73146  1  0  0  0
 73 77  1  0  0  0
 74147  1  0  0  0
 74148  1  0  0  0
 74149  1  0  0  0
 74 78  1  0  0  0
 75150  1  0  0  0
 75151  1  0  0  0
 76 78  1  0  0  0
 76 79  1  0  0  0
 76152  1  0  0  0
 76153  1  0  0  0
 77 81  1  0  0  0
 77154  1  0  0  0
 78 83  1  0  0  0
 80 81  1  0  0  0
 80155  1  0  0  0
 81156  1  0  0  0
 81157  1  0  0  0
M  CHG  1  81   1
M  ISO  4   1 100  68 101  75 101  80 100
M  END
> <chiral flag>
0

> <version>
0

> <s_m_source_file>
/data/baiqing/PycharmProjects/Reinvent-master-3.2/result/LINK_invent/BTK/process_docking_weight1_custom_sum_contain_oxygen_bond_distance_aromatic_linkinvent_7_9_3/rearranged_h_0003.sdf

> <i_m_source_file_index>
1

> <r_mmod_Potential_Energy-OPLS-2005>
-239.975143432617

> <r_mmod_Stretch_Energy-OPLS-2005>
66.2649307250977

> <r_mmod_Bend_Energy-OPLS-2005>
130.252075195312

> <r_mmod_Torsional_Energy-OPLS-2005>
251.750579833984

> <r_mmod_Improper_Torsional_Energy-OPLS-2005>
8.43357753753662

> <r_mmod_Van_der_Waal_Energy-OPLS-2005>
141.399475097656

> <r_mmod_Electrostatic_Energy-OPLS-2005>
-399.267791748047

> <r_mmod_Solvation_Energy-OPLS-2005>
-468.596374511719

> <b_mmod_Minimization_Converged-OPLS-2005>
0

> <r_mmod_RMS_Derivative-OPLS-2005>
5.8173508644104

$$$$
1
                    3D
 Structure written by MMmdl.
178185  0  0  1  0            999 V2000
  -30.7297  -14.3950   20.6194 C   0  0  0  0  0  0
  -30.4198  -12.2762   19.4057 C   0  0  0  0  0  0
  -29.4896  -12.5098   18.1983 C   0  0  0  0  0  0
  -28.0111  -12.3746   18.6120 C   0  0  0  0  0  0
  -27.6677  -13.1988   19.8816 C   0  0  2  0  0  0
  -28.7060  -12.9393   20.9976 C   0  0  0  0  0  0
  -25.2613  -13.8149   20.5674 C   0  0  0  0  0  0
  -24.1849  -13.0437   20.9157 C   0  0  0  0  0  0
  -24.6390  -11.6896   20.8727 C   0  0  0  0  0  0
  -23.9053  -10.4289   21.0399 C   0  0  0  0  0  0
  -24.3607   -9.4210   21.9180 C   0  0  0  0  0  0
  -23.6284   -8.2244   22.0755 C   0  0  0  0  0  0
  -22.4268   -8.0280   21.3544 C   0  0  0  0  0  0
  -21.9901   -9.0252   20.4645 C   0  0  0  0  0  0
  -22.7227  -10.2131   20.3052 C   0  0  0  0  0  0
  -21.6852   -6.0733   22.5278 C   0  0  0  0  0  0
  -21.4013   -6.5639   23.8211 C   0  0  0  0  0  0
  -21.3658   -5.6793   24.9173 C   0  0  0  0  0  0
  -21.6045   -4.3055   24.7227 C   0  0  0  0  0  0
  -21.8819   -3.8145   23.4348 C   0  0  0  0  0  0
  -21.9194   -4.6961   22.3402 C   0  0  0  0  0  0
  -22.7877  -13.5244   21.1831 C   0  0  0  0  0  0
  -22.1662   -4.2145   21.0980 F   0  0  0  0  0  0
  -21.5628   -3.4538   25.7739 F   0  0  0  0  0  0
  -30.0467  -13.2334   20.4567 N   0  0  0  0  0  0
  -26.3050  -12.9303   20.3384 N   0  0  0  0  0  0
  -25.9315  -11.6467   20.5761 N   0  0  0  0  0  0
  -22.0511  -12.8238   22.0385 N   0  0  0  0  0  0
  -25.4354  -15.1864   20.4087 N   0  0  0  0  0  0
  -31.8073  -14.6342   20.0653 O   0  0  0  0  0  0
  -21.6637   -6.8875   21.4238 O   0  0  0  0  0  0
  -22.3562  -14.5552   20.6682 O   0  0  0  0  0  0
  -24.6063  -31.8717   23.2101 C   0  0  0  0  0  0
  -25.8980  -32.4854   23.8370 C   0  0  1  0  0  0
  -27.2447  -27.4832   20.1029 C   0  0  0  0  0  0
  -25.5849  -33.8644   24.2313 N   0  0  0  0  0  0
  -23.3911  -30.4924   21.5513 C   0  0  2  0  0  0
  -24.8415  -28.9626   20.1126 C   0  0  0  0  0  0
  -22.7366  -29.4658   22.5019 C   0  0  0  0  0  0
  -18.0254  -28.1346   22.8498 C   0  0  0  0  0  0
  -24.1491  -36.7344   23.2636 C   0  0  0  0  0  0
  -25.9094  -30.8599   21.3478 C   0  0  0  0  0  0
  -25.9936  -29.4931   20.7061 C   0  0  0  0  0  0
  -27.1970  -28.7621   20.7006 C   0  0  0  0  0  0
  -26.0865  -26.9649   19.4908 C   0  0  0  0  0  0
  -24.8807  -27.6957   19.5007 C   0  0  0  0  0  0
  -23.5951  -29.8177   20.1662 C   0  0  0  0  0  0
  -25.4114  -36.3144   24.0334 C   0  0  1  0  0  0
  -20.5839  -28.3622   23.1349 C   0  0  2  0  0  0
  -20.6747  -26.9368   22.5425 C   0  0  0  0  0  0
  -19.5733  -26.6370   21.5207 C   0  0  0  0  0  0
  -18.1905  -26.7903   22.1615 C   0  0  0  0  0  0
  -19.1502  -28.8800   23.2924 C   0  0  0  0  0  0
  -18.9442  -30.1411   23.8927 C   0  0  0  0  0  0
  -17.6451  -30.6574   24.0557 C   0  0  0  0  0  0
  -25.9025  -34.9500   23.5134 C   0  0  0  0  0  0
  -16.5338  -29.9083   23.6314 C   0  0  0  0  0  0
  -16.7242  -28.6488   23.0345 C   0  0  0  0  0  0
  -26.4426  -31.6603   25.0668 C   0  0  0  0  0  0
  -25.3695  -31.3709   26.1421 C   0  0  0  0  0  0
  -27.0218  -30.3057   24.5959 C   0  0  0  0  0  0
  -27.6007  -32.4304   25.7440 C   0  0  0  0  0  0
  -27.5593  -37.1830   24.8457 C   0  0  0  0  0  0
  -21.4100  -29.3006   22.3777 N   0  0  0  0  0  0
  -26.4309  -37.3823   23.9397 N   0  0  0  0  0  0
  -24.6546  -31.0866   22.0973 N   0  0  0  0  0  0
  -23.4181  -28.8206   23.3029 O   0  0  0  0  0  0
  -28.3969  -26.7351   20.0769 O   0  0  0  0  0  0
  -26.5608  -34.8947   22.4709 O   0  0  0  0  0  0
  -23.5279  -32.1422   23.7553 O   0  0  0  0  0  0
  -33.9116  -24.9427   25.2553 C   0  0  0  0  0  0
  -30.5019  -25.5665   25.1620 C   0  0  0  0  0  0
  -32.8294  -25.4512   26.2101 C   0  0  0  0  0  0
  -31.7641  -26.3426   25.5290 C   0  0  0  0  0  0
  -33.4822  -20.4475   22.9341 C   0  0  0  0  0  0
  -32.8240  -19.1126   23.3127 C   0  0  0  0  0  0
  -34.2090  -21.1182   24.1073 C   0  0  0  0  0  0
  -31.8968  -18.6071   22.1993 C   0  0  0  0  0  0
  -35.0109  -22.3514   23.6591 C   0  0  0  0  0  0
  -31.4308  -17.1576   22.3959 C   0  0  0  0  0  0
  -28.7619  -25.1087   21.8378 C   0  0  0  0  0  0
  -35.5929  -23.1649   24.8284 C   0  0  0  0  0  0
  -30.4165  -16.7545   21.3142 C   0  0  0  0  0  0
  -28.9465  -24.9097   23.3555 C   0  0  0  0  0  0
  -29.0279  -26.5420   21.3446 C   0  0  0  0  0  0
  -34.5436  -23.8171   25.6082 N   0  0  0  0  0  0
  -30.1982  -25.4683   23.8627 N   0  0  0  0  0  0
  -30.0957  -15.3304   21.3377 N   0  0  0  0  0  0
  -34.1808  -25.5534   24.2193 O   0  0  0  0  0  0
  -29.7935  -25.0851   26.0477 O   0  0  0  0  0  0
  -31.4646  -12.3713   19.1037 H   0  0  0  0  0  0
  -30.3126  -11.2564   19.7787 H   0  0  0  0  0  0
  -29.7203  -11.7994   17.4033 H   0  0  0  0  0  0
  -29.6659  -13.5030   17.7819 H   0  0  0  0  0  0
  -27.8131  -11.3173   18.7926 H   0  0  0  0  0  0
  -27.3609  -12.6673   17.7866 H   0  0  0  0  0  0
  -27.7263  -14.2526   19.6068 H   0  0  0  0  0  0
  -28.6684  -11.8946   21.3105 H   0  0  0  0  0  0
  -28.4659  -13.5133   21.8934 H   0  0  0  0  0  0
  -25.2752   -9.5688   22.4752 H   0  0  0  0  0  0
  -23.9996   -7.4639   22.7476 H   0  0  0  0  0  0
  -21.0833   -8.8766   19.8953 H   0  0  0  0  0  0
  -22.3682  -10.9668   19.6159 H   0  0  0  0  0  0
  -21.2006   -7.6147   23.9712 H   0  0  0  0  0  0
  -21.1479   -6.0524   25.9076 H   0  0  0  0  0  0
  -22.0601   -2.7608   23.2849 H   0  0  0  0  0  0
  -22.4120  -11.9893   22.4770 H   0  0  0  0  0  0
  -21.1134  -13.1268   22.2592 H   0  0  0  0  0  0
  -24.6726  -15.8459   20.5194 H   0  0  0  0  0  0
  -26.2955  -15.6241   20.1015 H   0  0  0  0  0  0
  -26.7060  -32.5608   23.1153 H   0  0  0  0  0  0
  -24.9947  -33.9797   25.0420 H   0  0  0  0  0  0
  -22.6763  -31.3067   21.4138 H   0  0  0  0  0  0
  -23.3749  -35.9678   23.3305 H   0  0  0  0  0  0
  -24.3586  -36.8945   22.2047 H   0  0  0  0  0  0
  -23.7241  -37.6549   23.6650 H   0  0  0  0  0  0
  -25.9934  -31.6231   20.5726 H   0  0  0  0  0  0
  -26.8067  -30.9332   21.9496 H   0  0  0  0  0  0
  -28.0844  -29.1873   21.1476 H   0  0  0  0  0  0
  -26.1181  -25.9938   19.0172 H   0  0  0  0  0  0
  -23.9974  -27.2817   19.0344 H   0  0  0  0  0  0
  -23.6844  -30.5878   19.3991 H   0  0  0  0  0  0
  -22.7238  -29.2240   19.8835 H   0  0  0  0  0  0
  -25.1293  -36.2019   25.0827 H   0  0  0  0  0  0
  -20.9932  -28.3175   24.1468 H   0  0  0  0  0  0
  -20.5645  -26.2217   23.3594 H   0  0  0  0  0  0
  -21.6620  -26.7418   22.1220 H   0  0  0  0  0  0
  -19.6899  -25.6298   21.1198 H   0  0  0  0  0  0
  -19.6674  -27.3215   20.6768 H   0  0  0  0  0  0
  -17.4176  -26.6642   21.4018 H   0  0  0  0  0  0
  -18.0307  -26.0032   22.9000 H   0  0  0  0  0  0
  -19.7925  -30.7199   24.2324 H   0  0  0  0  0  0
  -17.5014  -31.6265   24.5141 H   0  0  0  0  0  0
  -15.5343  -30.2997   23.7622 H   0  0  0  0  0  0
  -15.8635  -28.0823   22.7050 H   0  0  0  0  0  0
  -24.5870  -30.7044   25.7769 H   0  0  0  0  0  0
  -24.8874  -32.2863   26.4860 H   0  0  0  0  0  0
  -25.8040  -30.8893   27.0184 H   0  0  0  0  0  0
  -26.2727  -29.6892   24.0974 H   0  0  0  0  0  0
  -27.3963  -29.7220   25.4373 H   0  0  0  0  0  0
  -27.8568  -30.4379   23.9073 H   0  0  0  0  0  0
  -27.2611  -33.3580   26.2065 H   0  0  0  0  0  0
  -28.3805  -32.6897   25.0263 H   0  0  0  0  0  0
  -28.0680  -31.8381   26.5315 H   0  0  0  0  0  0
  -28.2616  -38.0133   24.7533 H   0  0  0  0  0  0
  -28.1086  -36.2660   24.6258 H   0  0  0  0  0  0
  -27.2306  -37.1458   25.8860 H   0  0  0  0  0  0
  -20.9241  -29.8725   21.7018 H   0  0  0  0  0  0
  -26.0205  -38.2901   24.1411 H   0  0  0  0  0  0
  -33.3323  -26.0293   26.9858 H   0  0  0  0  0  0
  -32.3645  -24.6079   26.7239 H   0  0  0  0  0  0
  -31.4631  -27.1207   26.2312 H   0  0  0  0  0  0
  -32.1495  -26.8823   24.6630 H   0  0  0  0  0  0
  -32.7266  -21.1343   22.5490 H   0  0  0  0  0  0
  -34.1836  -20.2755   22.1161 H   0  0  0  0  0  0
  -32.2519  -19.2228   24.2352 H   0  0  0  0  0  0
  -33.6014  -18.3740   23.5167 H   0  0  0  0  0  0
  -34.8835  -20.4062   24.5848 H   0  0  0  0  0  0
  -33.4748  -21.3995   24.8632 H   0  0  0  0  0  0
  -32.4080  -18.6820   21.2379 H   0  0  0  0  0  0
  -31.0287  -19.2657   22.1333 H   0  0  0  0  0  0
  -34.3842  -22.9988   23.0440 H   0  0  0  0  0  0
  -35.8266  -22.0284   23.0108 H   0  0  0  0  0  0
  -30.9839  -17.0358   23.3834 H   0  0  0  0  0  0
  -32.2984  -16.4972   22.3607 H   0  0  0  0  0  0
  -27.7349  -24.8334   21.5917 H   0  0  0  0  0  0
  -29.3930  -24.4134   21.2842 H   0  0  0  0  0  0
  -36.2916  -23.9132   24.4499 H   0  0  0  0  0  0
  -36.1732  -22.5153   25.4852 H   0  0  0  0  0  0
  -30.7911  -17.0293   20.3257 H   0  0  0  0  0  0
  -29.4914  -17.3167   21.4472 H   0  0  0  0  0  0
  -28.8953  -23.8468   23.5995 H   0  0  0  0  0  0
  -28.1146  -25.3884   23.8767 H   0  0  0  0  0  0
  -30.0999  -26.7039   21.2307 H   0  0  0  0  0  0
  -28.6937  -27.2488   22.1057 H   0  0  0  0  0  0
  -34.2809  -23.3811   26.4829 H   0  0  0  0  0  0
  -30.8537  -25.8533   23.1964 H   0  0  0  0  0  0
  -29.2251  -15.0561   21.7700 H   0  0  0  0  0  0
  1 25  1  0  0  0
  1 30  2  0  0  0
  1 88  1  0  0  0
  2  3  1  0  0  0
  2 25  1  0  0  0
  2 91  1  0  0  0
  2 92  1  0  0  0
  3  4  1  0  0  0
  3 93  1  0  0  0
  3 94  1  0  0  0
  4  5  1  0  0  0
  4 95  1  0  0  0
  4 96  1  0  0  0
  5  6  1  0  0  0
  5 26  1  0  0  0
  5 97  1  0  0  0
  6 25  1  0  0  0
  6 98  1  0  0  0
  6 99  1  0  0  0
  7  8  2  0  0  0
  7 26  1  0  0  0
  7 29  1  0  0  0
  8  9  1  0  0  0
  8 22  1  0  0  0
  9 10  1  0  0  0
  9 27  2  0  0  0
 10 11  2  0  0  0
 10 15  1  0  0  0
 11 12  1  0  0  0
 11100  1  0  0  0
 12 13  2  0  0  0
 12101  1  0  0  0
 13 14  1  0  0  0
 13 31  1  0  0  0
 14 15  2  0  0  0
 14102  1  0  0  0
 15103  1  0  0  0
 16 17  2  0  0  0
 16 21  1  0  0  0
 16 31  1  0  0  0
 17 18  1  0  0  0
 17104  1  0  0  0
 18 19  2  0  0  0
 18105  1  0  0  0
 19 20  1  0  0  0
 19 24  1  0  0  0
 20 21  2  0  0  0
 20106  1  0  0  0
 21 23  1  0  0  0
 22 28  1  0  0  0
 22 32  2  0  0  0
 26 27  1  0  0  0
 28107  1  0  0  0
 28108  1  0  0  0
 29109  1  0  0  0
 29110  1  0  0  0
 33 34  1  0  0  0
 33 66  1  0  0  0
 33 70  2  0  0  0
 34 36  1  0  0  0
 34 59  1  0  0  0
 34111  1  0  0  0
 35 44  2  0  0  0
 35 45  1  0  0  0
 35 68  1  0  0  0
 36 56  1  0  0  0
 36112  1  0  0  0
 37 39  1  0  0  0
 37 47  1  0  0  0
 37 66  1  0  0  0
 37113  1  0  0  0
 38 43  2  0  0  0
 38 46  1  0  0  0
 38 47  1  0  0  0
 39 64  1  0  0  0
 39 67  2  0  0  0
 40 52  1  0  0  0
 40 53  2  0  0  0
 40 58  1  0  0  0
 41114  1  0  0  0
 41115  1  0  0  0
 41116  1  0  0  0
 41 48  1  0  0  0
 42 43  1  0  0  0
 42 66  1  0  0  0
 42117  1  0  0  0
 42118  1  0  0  0
 43 44  1  0  0  0
 44119  1  0  0  0
 45 46  2  0  0  0
 45120  1  0  0  0
 46121  1  0  0  0
 47122  1  0  0  0
 47123  1  0  0  0
 48 56  1  0  0  0
 48 65  1  0  0  0
 48124  1  0  0  0
 49 50  1  0  0  0
 49 53  1  0  0  0
 49 64  1  0  0  0
 49125  1  0  0  0
 50 51  1  0  0  0
 50126  1  0  0  0
 50127  1  0  0  0
 51 52  1  0  0  0
 51128  1  0  0  0
 51129  1  0  0  0
 52130  1  0  0  0
 52131  1  0  0  0
 53 54  1  0  0  0
 54 55  2  0  0  0
 54132  1  0  0  0
 55 57  1  0  0  0
 55133  1  0  0  0
 56 69  2  0  0  0
 57 58  2  0  0  0
 57134  1  0  0  0
 58135  1  0  0  0
 59 60  1  0  0  0
 59 61  1  0  0  0
 59 62  1  0  0  0
 60136  1  0  0  0
 60137  1  0  0  0
 60138  1  0  0  0
 61139  1  0  0  0
 61140  1  0  0  0
 61141  1  0  0  0
 62142  1  0  0  0
 62143  1  0  0  0
 62144  1  0  0  0
 63 65  1  0  0  0
 63145  1  0  0  0
 63146  1  0  0  0
 63147  1  0  0  0
 64148  1  0  0  0
 65149  1  0  0  0
 68 85  1  0  0  0
 71 73  1  0  0  0
 71 86  1  0  0  0
 71 89  2  0  0  0
 72 74  1  0  0  0
 72 87  1  0  0  0
 72 90  2  0  0  0
 73 74  1  0  0  0
 73150  1  0  0  0
 73151  1  0  0  0
 74152  1  0  0  0
 74153  1  0  0  0
 75 76  1  0  0  0
 75 77  1  0  0  0
 75154  1  0  0  0
 75155  1  0  0  0
 76 78  1  0  0  0
 76156  1  0  0  0
 76157  1  0  0  0
 77 79  1  0  0  0
 77158  1  0  0  0
 77159  1  0  0  0
 78 80  1  0  0  0
 78160  1  0  0  0
 78161  1  0  0  0
 79 82  1  0  0  0
 79162  1  0  0  0
 79163  1  0  0  0
 80 83  1  0  0  0
 80164  1  0  0  0
 80165  1  0  0  0
 81 84  1  0  0  0
 81 85  1  0  0  0
 81166  1  0  0  0
 81167  1  0  0  0
 82 86  1  0  0  0
 82168  1  0  0  0
 82169  1  0  0  0
 83 88  1  0  0  0
 83170  1  0  0  0
 83171  1  0  0  0
 84 87  1  0  0  0
 84172  1  0  0  0
 84173  1  0  0  0
 85174  1  0  0  0
 85175  1  0  0  0
 86176  1  0  0  0
 87177  1  0  0  0
 88178  1  0  0  0
M  ISO  4   1 100  68 101  85 101  88 100
M  END
> <chiral flag>
0

> <version>
0

> <s_m_source_file>
/data/baiqing/PycharmProjects/Reinvent-master-3.2/result/LINK_invent/BTK/process_docking_weight1_custom_sum_contain_oxygen_bond_distance_aromatic_linkinvent_7_9_3/rearranged_h_0003.sdf

> <i_m_source_file_index>
2

> <r_mmod_Potential_Energy-OPLS-2005>
-302.775909423828

> <r_mmod_Stretch_Energy-OPLS-2005>
30.8524150848389

> <r_mmod_Bend_Energy-OPLS-2005>
89.9131011962891

> <r_mmod_Torsional_Energy-OPLS-2005>
223.650604248047

> <r_mmod_Improper_Torsional_Energy-OPLS-2005>
3.27025055885315

> <r_mmod_Van_der_Waal_Energy-OPLS-2005>
139.989654541016

> <r_mmod_Electrostatic_Energy-OPLS-2005>
-542.780395507812

> <r_mmod_Solvation_Energy-OPLS-2005>
-254.24284362793

> <b_mmod_Minimization_Converged-OPLS-2005>
0

> <r_mmod_RMS_Derivative-OPLS-2005>
1.23672699928284

$$$$
2
                    3D
 Structure written by MMmdl.
176184  0  0  1  0            999 V2000
  -30.7907  -14.3461   20.7018 C   0  0  0  0  0  0
  -30.4143  -12.2909   19.3862 C   0  0  0  0  0  0
  -29.4802  -12.5365   18.1878 C   0  0  0  0  0  0
  -28.0069  -12.3852   18.6084 C   0  0  0  0  0  0
  -27.6682  -13.2038   19.8815 C   0  0  2  0  0  0
  -28.7079  -12.9452   20.9946 C   0  0  0  0  0  0
  -25.2618  -13.8158   20.5678 C   0  0  0  0  0  0
  -24.1856  -13.0440   20.9157 C   0  0  0  0  0  0
  -24.6400  -11.6902   20.8721 C   0  0  0  0  0  0
  -23.9062  -10.4292   21.0398 C   0  0  0  0  0  0
  -24.3613   -9.4212   21.9181 C   0  0  0  0  0  0
  -23.6288   -8.2246   22.0758 C   0  0  0  0  0  0
  -22.4272   -8.0282   21.3546 C   0  0  0  0  0  0
  -21.9905   -9.0255   20.4649 C   0  0  0  0  0  0
  -22.7231  -10.2133   20.3051 C   0  0  0  0  0  0
  -21.6854   -6.0729   22.5278 C   0  0  0  0  0  0
  -21.4014   -6.5632   23.8208 C   0  0  0  0  0  0
  -21.3658   -5.6791   24.9175 C   0  0  0  0  0  0
  -21.6044   -4.3055   24.7228 C   0  0  0  0  0  0
  -21.8820   -3.8143   23.4352 C   0  0  0  0  0  0
  -21.9192   -4.6956   22.3407 C   0  0  0  0  0  0
  -22.7879  -13.5243   21.1827 C   0  0  0  0  0  0
  -22.1662   -4.2139   21.0981 F   0  0  0  0  0  0
  -21.5630   -3.4540   25.7747 F   0  0  0  0  0  0
  -30.0540  -13.2304   20.4588 N   0  0  0  0  0  0
  -26.3063  -12.9322   20.3394 N   0  0  0  0  0  0
  -25.9332  -11.6479   20.5759 N   0  0  0  0  0  0
  -22.0510  -12.8240   22.0376 N   0  0  0  0  0  0
  -25.4345  -15.1873   20.4099 N   0  0  0  0  0  0
  -31.7849  -14.6493   20.0354 O   0  0  0  0  0  0
  -21.6640   -6.8874   21.4239 O   0  0  0  0  0  0
  -22.3566  -14.5555   20.6680 O   0  0  0  0  0  0
  -24.6125  -31.8704   23.2106 C   0  0  0  0  0  0
  -25.9030  -32.4833   23.8401 C   0  0  1  0  0  0
  -27.2395  -27.4658   20.0955 C   0  0  0  0  0  0
  -25.5907  -33.8631   24.2338 N   0  0  0  0  0  0
  -23.3990  -30.4912   21.5510 C   0  0  2  0  0  0
  -24.8488  -28.9614   20.1118 C   0  0  0  0  0  0
  -22.7395  -29.4648   22.4998 C   0  0  0  0  0  0
  -18.0270  -28.1358   22.8486 C   0  0  0  0  0  0
  -24.1484  -36.7301   23.2627 C   0  0  0  0  0  0
  -25.9228  -30.8472   21.3562 C   0  0  0  0  0  0
  -26.0039  -29.4811   20.7110 C   0  0  0  0  0  0
  -27.2027  -28.7379   20.7072 C   0  0  0  0  0  0
  -26.0787  -26.9577   19.4823 C   0  0  0  0  0  0
  -24.8788  -27.6965   19.4958 C   0  0  0  0  0  0
  -23.6062  -29.8224   20.1646 C   0  0  0  0  0  0
  -25.4097  -36.3112   24.0350 C   0  0  1  0  0  0
  -20.5856  -28.3645   23.1324 C   0  0  2  0  0  0
  -20.6764  -26.9382   22.5413 C   0  0  0  0  0  0
  -19.5743  -26.6375   21.5204 C   0  0  0  0  0  0
  -18.1915  -26.7900   22.1610 C   0  0  0  0  0  0
  -19.1517  -28.8813   23.2902 C   0  0  0  0  0  0
  -18.9455  -30.1414   23.8913 C   0  0  0  0  0  0
  -17.6464  -30.6568   24.0560 C   0  0  0  0  0  0
  -25.9041  -34.9482   23.5141 C   0  0  0  0  0  0
  -16.5350  -29.9074   23.6323 C   0  0  0  0  0  0
  -16.7262  -28.6491   23.0341 C   0  0  0  0  0  0
  -26.4468  -31.6594   25.0703 C   0  0  0  0  0  0
  -25.3730  -31.3684   26.1451 C   0  0  0  0  0  0
  -27.0311  -30.3066   24.6005 C   0  0  0  0  0  0
  -27.6064  -32.4296   25.7454 C   0  0  0  0  0  0
  -27.5598  -37.1761   24.8445 C   0  0  0  0  0  0
  -21.4124  -29.3025   22.3748 N   0  0  0  0  0  0
  -26.4264  -37.3815   23.9458 N   0  0  0  0  0  0
  -24.6629  -31.0827   22.0991 N   0  0  0  0  0  0
  -23.4180  -28.8188   23.3021 O   0  0  0  0  0  0
  -28.3727  -26.6919   20.0984 O   0  0  0  0  0  0
  -26.5594  -34.8932   22.4696 O   0  0  0  0  0  0
  -23.5328  -32.1435   23.7521 O   0  0  0  0  0  0
  -31.9094  -18.6504   23.4478 C   0  0  0  0  0  0
  -30.0515  -17.1567   22.9446 C   0  0  0  0  0  0
  -32.3110  -16.5752   22.2404 C   0  0  0  0  0  0
  -30.5319  -18.3504   23.5338 C   0  0  0  0  0  0
  -32.8049  -17.7646   22.8133 C   0  0  0  0  0  0
  -30.9302  -16.2674   22.2912 C   0  0  0  0  0  0
  -29.5980  -19.3186   24.2045 C   0  0  0  0  0  0
  -26.9451  -22.4062   21.2406 C   0  0  0  0  0  0
  -25.6807  -22.2082   22.0845 C   0  0  0  0  0  0
  -25.2691  -20.7341   22.3078 C   0  0  0  0  0  0
  -26.2562  -19.8746   23.1234 C   0  0  0  0  0  0
  -26.6298  -20.4650   24.4998 C   0  0  0  0  0  0
  -29.6508  -25.0497   21.3924 C   0  0  0  0  0  0
  -27.4155  -19.5029   25.4169 C   0  0  0  0  0  0
  -28.9431  -23.8038   20.8240 C   0  0  0  0  0  0
  -28.8080  -26.3386   21.4109 C   0  0  0  0  0  0
  -34.2907  -18.0911   22.7356 C   0  0  0  0  0  0
  -30.3798  -15.0687   21.7569 N   0  0  0  0  0  0
  -28.4896  -18.7855   24.7330 N   0  0  0  0  0  0
  -27.7503  -23.4210   21.5788 N   0  0  0  0  0  0
  -29.8789  -20.5157   24.2890 O   0  0  0  0  0  0
  -27.1791  -21.6712   20.2800 O   0  0  0  0  0  0
  -34.6716  -18.8376   23.7729 F   0  0  0  0  0  0
  -35.0246  -16.9778   22.7371 F   0  0  0  0  0  0
  -34.5413  -18.7638   21.6133 F   0  0  0  0  0  0
  -31.4572  -12.3869   19.0778 H   0  0  0  0  0  0
  -30.3079  -11.2663   19.7453 H   0  0  0  0  0  0
  -29.7112  -11.8416   17.3788 H   0  0  0  0  0  0
  -29.6471  -13.5381   17.7876 H   0  0  0  0  0  0
  -27.8177  -11.3258   18.7852 H   0  0  0  0  0  0
  -27.3505  -12.6790   17.7880 H   0  0  0  0  0  0
  -27.7258  -14.2584   19.6108 H   0  0  0  0  0  0
  -28.6675  -11.9028   21.3131 H   0  0  0  0  0  0
  -28.4517  -13.5242   21.8820 H   0  0  0  0  0  0
  -25.2756   -9.5690   22.4755 H   0  0  0  0  0  0
  -23.9995   -7.4644   22.7483 H   0  0  0  0  0  0
  -21.0833   -8.8772   19.8962 H   0  0  0  0  0  0
  -22.3688  -10.9670   19.6162 H   0  0  0  0  0  0
  -21.2003   -7.6141   23.9710 H   0  0  0  0  0  0
  -21.1478   -6.0523   25.9076 H   0  0  0  0  0  0
  -22.0599   -2.7604   23.2859 H   0  0  0  0  0  0
  -22.4108  -11.9893   22.4764 H   0  0  0  0  0  0
  -21.1132  -13.1275   22.2582 H   0  0  0  0  0  0
  -24.6709  -15.8452   20.5198 H   0  0  0  0  0  0
  -26.2959  -15.6268   20.1104 H   0  0  0  0  0  0
  -26.7107  -32.5567   23.1183 H   0  0  0  0  0  0
  -25.0098  -33.9810   25.0512 H   0  0  0  0  0  0
  -22.6848  -31.3051   21.4111 H   0  0  0  0  0  0
  -23.3766  -35.9609   23.3259 H   0  0  0  0  0  0
  -24.3598  -36.8937   22.2048 H   0  0  0  0  0  0
  -23.7196  -37.6488   23.6652 H   0  0  0  0  0  0
  -26.0174  -31.6077   20.5799 H   0  0  0  0  0  0
  -26.8184  -30.9141   21.9616 H   0  0  0  0  0  0
  -28.0940  -29.1383   21.1681 H   0  0  0  0  0  0
  -26.1007  -25.9833   19.0146 H   0  0  0  0  0  0
  -23.9918  -27.2887   19.0311 H   0  0  0  0  0  0
  -23.7069  -30.5980   19.4040 H   0  0  0  0  0  0
  -22.7319  -29.2385   19.8729 H   0  0  0  0  0  0
  -25.1244  -36.1970   25.0839 H   0  0  0  0  0  0
  -20.9949  -28.3200   24.1443 H   0  0  0  0  0  0
  -20.5659  -26.2239   23.3593 H   0  0  0  0  0  0
  -21.6637  -26.7421   22.1202 H   0  0  0  0  0  0
  -19.6921  -25.6296   21.1213 H   0  0  0  0  0  0
  -19.6695  -27.3198   20.6744 H   0  0  0  0  0  0
  -17.4187  -26.6647   21.4009 H   0  0  0  0  0  0
  -18.0318  -26.0021   22.8985 H   0  0  0  0  0  0
  -19.7937  -30.7216   24.2289 H   0  0  0  0  0  0
  -17.5026  -31.6257   24.5147 H   0  0  0  0  0  0
  -15.5350  -30.2991   23.7649 H   0  0  0  0  0  0
  -15.8649  -28.0835   22.7046 H   0  0  0  0  0  0
  -24.5924  -30.7010   25.7787 H   0  0  0  0  0  0
  -24.8884  -32.2831   26.4881 H   0  0  0  0  0  0
  -25.8071  -30.8874   27.0219 H   0  0  0  0  0  0
  -26.2849  -29.6809   24.1095 H   0  0  0  0  0  0
  -27.4204  -29.7301   25.4405 H   0  0  0  0  0  0
  -27.8611  -30.4459   23.9069 H   0  0  0  0  0  0
  -27.2728  -33.3610   26.2042 H   0  0  0  0  0  0
  -28.3862  -32.6822   25.0256 H   0  0  0  0  0  0
  -28.0734  -31.8388   26.5345 H   0  0  0  0  0  0
  -28.2510  -38.0161   24.7676 H   0  0  0  0  0  0
  -28.1199  -36.2713   24.6033 H   0  0  0  0  0  0
  -27.2353  -37.1124   25.8844 H   0  0  0  0  0  0
  -20.9270  -29.8759   21.6995 H   0  0  0  0  0  0
  -26.0152  -38.2865   24.1569 H   0  0  0  0  0  0
  -32.2889  -19.5679   23.8752 H   0  0  0  0  0  0
  -28.9958  -16.9234   22.9770 H   0  0  0  0  0  0
  -33.0149  -15.9056   21.7699 H   0  0  0  0  0  0
  -24.8699  -22.7232   21.5690 H   0  0  0  0  0  0
  -25.7884  -22.7148   23.0439 H   0  0  0  0  0  0
  -25.1121  -20.2562   21.3394 H   0  0  0  0  0  0
  -24.2939  -20.7151   22.7958 H   0  0  0  0  0  0
  -27.1593  -19.7185   22.5333 H   0  0  0  0  0  0
  -25.8186  -18.8851   23.2628 H   0  0  0  0  0  0
  -25.7269  -20.7822   25.0243 H   0  0  0  0  0  0
  -27.2204  -21.3695   24.3545 H   0  0  0  0  0  0
  -30.5581  -25.2320   20.8149 H   0  0  0  0  0  0
  -29.9894  -24.8338   22.4069 H   0  0  0  0  0  0
  -26.7318  -18.7585   25.8278 H   0  0  0  0  0  0
  -27.8204  -20.0462   26.2730 H   0  0  0  0  0  0
  -29.6383  -22.9628   20.8209 H   0  0  0  0  0  0
  -28.6700  -23.9796   19.7824 H   0  0  0  0  0  0
  -29.4015  -27.1559   21.8225 H   0  0  0  0  0  0
  -27.9566  -26.2016   22.0811 H   0  0  0  0  0  0
  -29.5256  -14.7395   22.1805 H   0  0  0  0  0  0
  -28.3919  -17.7822   24.6629 H   0  0  0  0  0  0
  -27.5015  -23.9737   22.3887 H   0  0  0  0  0  0
  1 25  1  0  0  0
  1 30  2  0  0  0
  1 88  1  0  0  0
  2  3  1  0  0  0
  2 25  1  0  0  0
  2 96  1  0  0  0
  2 97  1  0  0  0
  3  4  1  0  0  0
  3 98  1  0  0  0
  3 99  1  0  0  0
  4  5  1  0  0  0
  4100  1  0  0  0
  4101  1  0  0  0
  5  6  1  0  0  0
  5 26  1  0  0  0
  5102  1  0  0  0
  6 25  1  0  0  0
  6103  1  0  0  0
  6104  1  0  0  0
  7  8  2  0  0  0
  7 26  1  0  0  0
  7 29  1  0  0  0
  8  9  1  0  0  0
  8 22  1  0  0  0
  9 10  1  0  0  0
  9 27  2  0  0  0
 10 11  2  0  0  0
 10 15  1  0  0  0
 11 12  1  0  0  0
 11105  1  0  0  0
 12 13  2  0  0  0
 12106  1  0  0  0
 13 14  1  0  0  0
 13 31  1  0  0  0
 14 15  2  0  0  0
 14107  1  0  0  0
 15108  1  0  0  0
 16 17  2  0  0  0
 16 21  1  0  0  0
 16 31  1  0  0  0
 17 18  1  0  0  0
 17109  1  0  0  0
 18 19  2  0  0  0
 18110  1  0  0  0
 19 20  1  0  0  0
 19 24  1  0  0  0
 20 21  2  0  0  0
 20111  1  0  0  0
 21 23  1  0  0  0
 22 28  1  0  0  0
 22 32  2  0  0  0
 26 27  1  0  0  0
 28112  1  0  0  0
 28113  1  0  0  0
 29114  1  0  0  0
 29115  1  0  0  0
 33 34  1  0  0  0
 33 66  1  0  0  0
 33 70  2  0  0  0
 34 36  1  0  0  0
 34 59  1  0  0  0
 34116  1  0  0  0
 35 44  2  0  0  0
 35 45  1  0  0  0
 35 68  1  0  0  0
 36 56  1  0  0  0
 36117  1  0  0  0
 37 39  1  0  0  0
 37 47  1  0  0  0
 37 66  1  0  0  0
 37118  1  0  0  0
 38 43  2  0  0  0
 38 46  1  0  0  0
 38 47  1  0  0  0
 39 64  1  0  0  0
 39 67  2  0  0  0
 40 52  1  0  0  0
 40 53  2  0  0  0
 40 58  1  0  0  0
 41119  1  0  0  0
 41120  1  0  0  0
 41121  1  0  0  0
 41 48  1  0  0  0
 42 43  1  0  0  0
 42 66  1  0  0  0
 42122  1  0  0  0
 42123  1  0  0  0
 43 44  1  0  0  0
 44124  1  0  0  0
 45 46  2  0  0  0
 45125  1  0  0  0
 46126  1  0  0  0
 47127  1  0  0  0
 47128  1  0  0  0
 48 56  1  0  0  0
 48 65  1  0  0  0
 48129  1  0  0  0
 49 50  1  0  0  0
 49 53  1  0  0  0
 49 64  1  0  0  0
 49130  1  0  0  0
 50 51  1  0  0  0
 50131  1  0  0  0
 50132  1  0  0  0
 51 52  1  0  0  0
 51133  1  0  0  0
 51134  1  0  0  0
 52135  1  0  0  0
 52136  1  0  0  0
 53 54  1  0  0  0
 54 55  2  0  0  0
 54137  1  0  0  0
 55 57  1  0  0  0
 55138  1  0  0  0
 56 69  2  0  0  0
 57 58  2  0  0  0
 57139  1  0  0  0
 58140  1  0  0  0
 59 60  1  0  0  0
 59 61  1  0  0  0
 59 62  1  0  0  0
 60141  1  0  0  0
 60142  1  0  0  0
 60143  1  0  0  0
 61144  1  0  0  0
 61145  1  0  0  0
 61146  1  0  0  0
 62147  1  0  0  0
 62148  1  0  0  0
 62149  1  0  0  0
 63 65  1  0  0  0
 63150  1  0  0  0
 63151  1  0  0  0
 63152  1  0  0  0
 64153  1  0  0  0
 65154  1  0  0  0
 68 86  1  0  0  0
 71 74  2  0  0  0
 71 75  1  0  0  0
 71155  1  0  0  0
 72 74  1  0  0  0
 72 76  2  0  0  0
 72156  1  0  0  0
 73 75  2  0  0  0
 73 76  1  0  0  0
 73157  1  0  0  0
 74 77  1  0  0  0
 75 87  1  0  0  0
 76 88  1  0  0  0
 77 89  1  0  0  0
 77 91  2  0  0  0
 78 79  1  0  0  0
 78 90  1  0  0  0
 78 92  2  0  0  0
 79 80  1  0  0  0
 79158  1  0  0  0
 79159  1  0  0  0
 80 81  1  0  0  0
 80160  1  0  0  0
 80161  1  0  0  0
 81 82  1  0  0  0
 81162  1  0  0  0
 81163  1  0  0  0
 82 84  1  0  0  0
 82164  1  0  0  0
 82165  1  0  0  0
 83 85  1  0  0  0
 83 86  1  0  0  0
 83166  1  0  0  0
 83167  1  0  0  0
 84 89  1  0  0  0
 84168  1  0  0  0
 84169  1  0  0  0
 85 90  1  0  0  0
 85170  1  0  0  0
 85171  1  0  0  0
 86172  1  0  0  0
 86173  1  0  0  0
 87 93  1  0  0  0
 87 94  1  0  0  0
 87 95  1  0  0  0
 88174  1  0  0  0
 89175  1  0  0  0
 90176  1  0  0  0
M  ISO  4   1 100  68 101  86 101  88 100
M  END
> <chiral flag>
0

> <version>
0

> <s_m_source_file>
/data/baiqing/PycharmProjects/Reinvent-master-3.2/result/LINK_invent/BTK/process_docking_weight1_custom_sum_contain_oxygen_bond_distance_aromatic_linkinvent_7_9_3/rearranged_h_0003.sdf

> <i_m_source_file_index>
3

> <r_mmod_Potential_Energy-OPLS-2005>
-199.234512329102

> <r_mmod_Stretch_Energy-OPLS-2005>
34.191104888916

> <r_mmod_Bend_Energy-OPLS-2005>
96.9668197631836

> <r_mmod_Torsional_Energy-OPLS-2005>
244.16862487793

> <r_mmod_Improper_Torsional_Energy-OPLS-2005>
2.08640837669373

> <r_mmod_Van_der_Waal_Energy-OPLS-2005>
152.729644775391

> <r_mmod_Electrostatic_Energy-OPLS-2005>
-483.801696777344

> <r_mmod_Solvation_Energy-OPLS-2005>
-252.979690551758

> <b_mmod_Minimization_Converged-OPLS-2005>
0

> <r_mmod_RMS_Derivative-OPLS-2005>
1.58877158164978

$$$$
3
                    3D
 Structure written by MMmdl.
156164  0  0  1  0            999 V2000
  -30.7464  -14.5036   20.6272 C   0  0  0  0  0  0
  -30.4201  -12.3566   19.4276 C   0  0  0  0  0  0
  -29.4900  -12.5276   18.2119 C   0  0  0  0  0  0
  -28.0166  -12.3689   18.6314 C   0  0  0  0  0  0
  -27.6593  -13.2210   19.8787 C   0  0  2  0  0  0
  -28.7062  -13.0359   21.0018 C   0  0  0  0  0  0
  -25.2520  -13.8156   20.5608 C   0  0  0  0  0  0
  -24.1815  -13.0417   20.9183 C   0  0  0  0  0  0
  -24.6417  -11.6904   20.8764 C   0  0  0  0  0  0
  -23.9082  -10.4281   21.0408 C   0  0  0  0  0  0
  -24.3627   -9.4196   21.9191 C   0  0  0  0  0  0
  -23.6283   -8.2248   22.0769 C   0  0  0  0  0  0
  -22.4260   -8.0288   21.3560 C   0  0  0  0  0  0
  -21.9905   -9.0256   20.4658 C   0  0  0  0  0  0
  -22.7251  -10.2125   20.3065 C   0  0  0  0  0  0
  -21.6857   -6.0733   22.5280 C   0  0  0  0  0  0
  -21.4019   -6.5632   23.8211 C   0  0  0  0  0  0
  -21.3659   -5.6788   24.9170 C   0  0  0  0  0  0
  -21.6043   -4.3054   24.7220 C   0  0  0  0  0  0
  -21.8819   -3.8146   23.4341 C   0  0  0  0  0  0
  -21.9202   -4.6961   22.3403 C   0  0  0  0  0  0
  -22.7827  -13.5203   21.1822 C   0  0  0  0  0  0
  -22.1663   -4.2144   21.0982 F   0  0  0  0  0  0
  -21.5625   -3.4541   25.7734 F   0  0  0  0  0  0
  -30.0290  -13.3530   20.4454 N   0  0  0  0  0  0
  -26.3023  -12.9380   20.3414 N   0  0  0  0  0  0
  -25.9359  -11.6529   20.5838 N   0  0  0  0  0  0
  -22.0477  -12.8221   22.0408 N   0  0  0  0  0  0
  -25.4080  -15.1842   20.3798 N   0  0  0  0  0  0
  -31.8203  -14.6944   20.0540 O   0  0  0  0  0  0
  -21.6641   -6.8871   21.4242 O   0  0  0  0  0  0
  -22.3495  -14.5489   20.6645 O   0  0  0  0  0  0
  -24.6188  -31.8653   23.2057 C   0  0  0  0  0  0
  -25.9066  -32.4809   23.8362 C   0  0  1  0  0  0
  -27.2214  -27.3714   20.1080 C   0  0  0  0  0  0
  -25.5923  -33.8610   24.2301 N   0  0  0  0  0  0
  -23.4106  -30.4889   21.5472 C   0  0  2  0  0  0
  -24.8573  -28.9577   20.1075 C   0  0  0  0  0  0
  -22.7443  -29.4631   22.4941 C   0  0  0  0  0  0
  -18.0289  -28.1378   22.8497 C   0  0  0  0  0  0
  -24.1494  -36.7305   23.2628 C   0  0  0  0  0  0
  -25.9463  -30.8105   21.3729 C   0  0  0  0  0  0
  -26.0211  -29.4425   20.7169 C   0  0  0  0  0  0
  -27.2048  -28.6567   20.7165 C   0  0  0  0  0  0
  -26.0392  -26.9375   19.4596 C   0  0  0  0  0  0
  -24.8648  -27.7089   19.4720 C   0  0  0  0  0  0
  -23.6224  -29.8293   20.1604 C   0  0  0  0  0  0
  -25.4121  -36.3105   24.0323 C   0  0  1  0  0  0
  -20.5878  -28.3671   23.1306 C   0  0  2  0  0  0
  -20.6788  -26.9405   22.5422 C   0  0  0  0  0  0
  -19.5766  -26.6383   21.5229 C   0  0  0  0  0  0
  -18.1939  -26.7923   22.1632 C   0  0  0  0  0  0
  -19.1536  -28.8846   23.2901 C   0  0  0  0  0  0
  -18.9460  -30.1458   23.8909 C   0  0  0  0  0  0
  -17.6459  -30.6587   24.0567 C   0  0  0  0  0  0
  -25.9053  -34.9472   23.5112 C   0  0  0  0  0  0
  -16.5351  -29.9087   23.6328 C   0  0  0  0  0  0
  -16.7277  -28.6506   23.0347 C   0  0  0  0  0  0
  -26.4480  -31.6585   25.0697 C   0  0  0  0  0  0
  -25.3727  -31.3709   26.1428 C   0  0  0  0  0  0
  -27.0304  -30.3016   24.6096 C   0  0  0  0  0  0
  -27.6057  -32.4301   25.7469 C   0  0  0  0  0  0
  -27.5585  -37.1812   24.8464 C   0  0  0  0  0  0
  -21.4156  -29.3031   22.3702 N   0  0  0  0  0  0
  -26.4305  -37.3795   23.9397 N   0  0  0  0  0  0
  -24.6767  -31.0706   22.0991 N   0  0  0  0  0  0
  -23.4200  -28.8167   23.2988 O   0  0  0  0  0  0
  -28.3515  -26.5557   20.1770 O   0  0  0  0  0  0
  -26.5611  -34.8930   22.4672 O   0  0  0  0  0  0
  -23.5365  -32.1432   23.7409 O   0  0  0  0  0  0
  -27.4508  -17.8191   21.3452 C   0  0  0  0  0  0
  -28.0751  -19.0115   20.9262 C   0  0  0  0  0  0
  -28.1926  -16.6319   21.5085 C   0  0  0  0  0  0
  -30.2067  -17.8319   20.8596 C   0  0  0  0  0  0
  -29.4635  -19.0420   20.6823 C   0  0  0  0  0  0
  -29.5774  -16.6096   21.2499 C   0  0  0  0  0  0
  -30.1256  -20.3319   20.1321 C   0  0  0  0  0  0
  -29.2097  -24.1384   20.5570 C   0  0  0  0  0  0
  -28.9571  -22.6231   20.1949 C   0  0  0  0  0  0
  -28.1630  -25.1252   19.9383 C   0  0  0  0  0  0
  -30.3248  -15.4148   21.5334 N   0  0  0  0  0  0
  -29.8788  -21.6304   20.8461 N   0  3  0  0  0  0
  -31.4614  -12.4545   19.1143 H   0  0  0  0  0  0
  -30.3354  -11.3493   19.8396 H   0  0  0  0  0  0
  -29.7421  -11.8017   17.4378 H   0  0  0  0  0  0
  -29.6407  -13.5143   17.7711 H   0  0  0  0  0  0
  -27.8454  -11.3134   18.8435 H   0  0  0  0  0  0
  -27.3587  -12.6200   17.7986 H   0  0  0  0  0  0
  -27.6938  -14.2663   19.5698 H   0  0  0  0  0  0
  -28.6993  -12.0059   21.3606 H   0  0  0  0  0  0
  -28.4667  -13.6514   21.8690 H   0  0  0  0  0  0
  -25.2768   -9.5654   22.4764 H   0  0  0  0  0  0
  -23.9991   -7.4630   22.7482 H   0  0  0  0  0  0
  -21.0848   -8.8767   19.8946 H   0  0  0  0  0  0
  -22.3718  -10.9657   19.6170 H   0  0  0  0  0  0
  -21.2018   -7.6137   23.9717 H   0  0  0  0  0  0
  -21.1479   -6.0512   25.9069 H   0  0  0  0  0  0
  -22.0612   -2.7610   23.2845 H   0  0  0  0  0  0
  -22.4063  -11.9864   22.4775 H   0  0  0  0  0  0
  -21.1114  -13.1270   22.2636 H   0  0  0  0  0  0
  -24.6270  -15.8247   20.4578 H   0  0  0  0  0  0
  -26.2514  -15.6284   20.0398 H   0  0  0  0  0  0
  -26.7128  -32.5509   23.1112 H   0  0  0  0  0  0
  -25.0112  -33.9780   25.0471 H   0  0  0  0  0  0
  -22.7018  -31.3068   21.4073 H   0  0  0  0  0  0
  -23.3763  -35.9634   23.3310 H   0  0  0  0  0  0
  -24.3582  -36.8905   22.2039 H   0  0  0  0  0  0
  -23.7250  -37.6513   23.6640 H   0  0  0  0  0  0
  -26.0704  -31.5754   20.6046 H   0  0  0  0  0  0
  -26.8294  -30.8584   21.9980 H   0  0  0  0  0  0
  -28.0932  -29.0164   21.2180 H   0  0  0  0  0  0
  -25.9900  -25.9915   18.9410 H   0  0  0  0  0  0
  -23.9747  -27.3376   18.9823 H   0  0  0  0  0  0
  -23.7378  -30.6073   19.4055 H   0  0  0  0  0  0
  -22.7451  -29.2542   19.8583 H   0  0  0  0  0  0
  -25.1300  -36.1965   25.0818 H   0  0  0  0  0  0
  -20.9990  -28.3244   24.1412 H   0  0  0  0  0  0
  -20.5738  -26.2266   23.3601 H   0  0  0  0  0  0
  -21.6647  -26.7465   22.1185 H   0  0  0  0  0  0
  -19.6944  -25.6304   21.1236 H   0  0  0  0  0  0
  -19.6711  -27.3211   20.6776 H   0  0  0  0  0  0
  -17.4216  -26.6686   21.4020 H   0  0  0  0  0  0
  -18.0338  -26.0049   22.9015 H   0  0  0  0  0  0
  -19.7939  -30.7281   24.2267 H   0  0  0  0  0  0
  -17.5013  -31.6261   24.5167 H   0  0  0  0  0  0
  -15.5357  -30.2998   23.7639 H   0  0  0  0  0  0
  -15.8677  -28.0840   22.7043 H   0  0  0  0  0  0
  -24.5919  -30.7040   25.7749 H   0  0  0  0  0  0
  -24.8896  -32.2872   26.4833 H   0  0  0  0  0  0
  -25.8052  -30.8900   27.0210 H   0  0  0  0  0  0
  -26.2844  -29.6791   24.1137 H   0  0  0  0  0  0
  -27.4045  -29.7234   25.4556 H   0  0  0  0  0  0
  -27.8703  -30.4312   23.9265 H   0  0  0  0  0  0
  -27.2683  -33.3604   26.2055 H   0  0  0  0  0  0
  -28.3868  -32.6852   25.0293 H   0  0  0  0  0  0
  -28.0729  -31.8414   26.5377 H   0  0  0  0  0  0
  -28.2611  -38.0100   24.7508 H   0  0  0  0  0  0
  -28.1074  -36.2633   24.6305 H   0  0  0  0  0  0
  -27.2292  -37.1472   25.8863 H   0  0  0  0  0  0
  -20.9327  -29.8750   21.6914 H   0  0  0  0  0  0
  -26.0189  -38.2872   24.1398 H   0  0  0  0  0  0
  -26.3882  -17.8144   21.5443 H   0  0  0  0  0  0
  -27.4732  -19.8988   20.7844 H   0  0  0  0  0  0
  -27.6851  -15.7459   21.8621 H   0  0  0  0  0  0
  -31.2723  -17.8368   20.6757 H   0  0  0  0  0  0
  -29.8717  -20.4253   19.0768 H   0  0  0  0  0  0
  -31.2047  -20.1751   20.1539 H   0  0  0  0  0  0
  -30.2067  -24.4268   20.2236 H   0  0  0  0  0  0
  -29.2019  -24.2597   21.6407 H   0  0  0  0  0  0
  -29.0307  -22.5267   19.1111 H   0  0  0  0  0  0
  -27.9352  -22.3455   20.4553 H   0  0  0  0  0  0
  -27.1965  -24.8066   20.3322 H   0  0  0  0  0  0
  -28.1287  -24.9709   18.8597 H   0  0  0  0  0  0
  -31.1553  -15.6774   22.0446 H   0  0  0  0  0  0
  -30.7834  -22.0700   20.8924 H   0  0  0  0  0  0
  -29.6000  -21.4468   21.7960 H   0  0  0  0  0  0
  1 25  1  0  0  0
  1 30  2  0  0  0
  1 81  1  0  0  0
  2  3  1  0  0  0
  2 25  1  0  0  0
  2 83  1  0  0  0
  2 84  1  0  0  0
  3  4  1  0  0  0
  3 85  1  0  0  0
  3 86  1  0  0  0
  4  5  1  0  0  0
  4 87  1  0  0  0
  4 88  1  0  0  0
  5  6  1  0  0  0
  5 26  1  0  0  0
  5 89  1  0  0  0
  6 25  1  0  0  0
  6 90  1  0  0  0
  6 91  1  0  0  0
  7  8  2  0  0  0
  7 26  1  0  0  0
  7 29  1  0  0  0
  8  9  1  0  0  0
  8 22  1  0  0  0
  9 10  1  0  0  0
  9 27  2  0  0  0
 10 11  2  0  0  0
 10 15  1  0  0  0
 11 12  1  0  0  0
 11 92  1  0  0  0
 12 13  2  0  0  0
 12 93  1  0  0  0
 13 14  1  0  0  0
 13 31  1  0  0  0
 14 15  2  0  0  0
 14 94  1  0  0  0
 15 95  1  0  0  0
 16 17  2  0  0  0
 16 21  1  0  0  0
 16 31  1  0  0  0
 17 18  1  0  0  0
 17 96  1  0  0  0
 18 19  2  0  0  0
 18 97  1  0  0  0
 19 20  1  0  0  0
 19 24  1  0  0  0
 20 21  2  0  0  0
 20 98  1  0  0  0
 21 23  1  0  0  0
 22 28  1  0  0  0
 22 32  2  0  0  0
 26 27  1  0  0  0
 28 99  1  0  0  0
 28100  1  0  0  0
 29101  1  0  0  0
 29102  1  0  0  0
 33 34  1  0  0  0
 33 66  1  0  0  0
 33 70  2  0  0  0
 34 36  1  0  0  0
 34 59  1  0  0  0
 34103  1  0  0  0
 35 44  2  0  0  0
 35 45  1  0  0  0
 35 68  1  0  0  0
 36 56  1  0  0  0
 36104  1  0  0  0
 37 39  1  0  0  0
 37 47  1  0  0  0
 37 66  1  0  0  0
 37105  1  0  0  0
 38 43  2  0  0  0
 38 46  1  0  0  0
 38 47  1  0  0  0
 39 64  1  0  0  0
 39 67  2  0  0  0
 40 52  1  0  0  0
 40 53  2  0  0  0
 40 58  1  0  0  0
 41106  1  0  0  0
 41107  1  0  0  0
 41108  1  0  0  0
 41 48  1  0  0  0
 42 43  1  0  0  0
 42 66  1  0  0  0
 42109  1  0  0  0
 42110  1  0  0  0
 43 44  1  0  0  0
 44111  1  0  0  0
 45 46  2  0  0  0
 45112  1  0  0  0
 46113  1  0  0  0
 47114  1  0  0  0
 47115  1  0  0  0
 48 56  1  0  0  0
 48 65  1  0  0  0
 48116  1  0  0  0
 49 50  1  0  0  0
 49 53  1  0  0  0
 49 64  1  0  0  0
 49117  1  0  0  0
 50 51  1  0  0  0
 50118  1  0  0  0
 50119  1  0  0  0
 51 52  1  0  0  0
 51120  1  0  0  0
 51121  1  0  0  0
 52122  1  0  0  0
 52123  1  0  0  0
 53 54  1  0  0  0
 54 55  2  0  0  0
 54124  1  0  0  0
 55 57  1  0  0  0
 55125  1  0  0  0
 56 69  2  0  0  0
 57 58  2  0  0  0
 57126  1  0  0  0
 58127  1  0  0  0
 59 60  1  0  0  0
 59 61  1  0  0  0
 59 62  1  0  0  0
 60128  1  0  0  0
 60129  1  0  0  0
 60130  1  0  0  0
 61131  1  0  0  0
 61132  1  0  0  0
 61133  1  0  0  0
 62134  1  0  0  0
 62135  1  0  0  0
 62136  1  0  0  0
 63 65  1  0  0  0
 63137  1  0  0  0
 63138  1  0  0  0
 63139  1  0  0  0
 64140  1  0  0  0
 65141  1  0  0  0
 68 80  1  0  0  0
 71 72  2  0  0  0
 71 73  1  0  0  0
 71142  1  0  0  0
 72 75  1  0  0  0
 72143  1  0  0  0
 73 76  2  0  0  0
 73144  1  0  0  0
 74 75  2  0  0  0
 74 76  1  0  0  0
 74145  1  0  0  0
 75 77  1  0  0  0
 76 81  1  0  0  0
 77 82  1  0  0  0
 77146  1  0  0  0
 77147  1  0  0  0
 78 79  1  0  0  0
 78 80  1  0  0  0
 78148  1  0  0  0
 78149  1  0  0  0
 79 82  1  0  0  0
 79150  1  0  0  0
 79151  1  0  0  0
 80152  1  0  0  0
 80153  1  0  0  0
 81154  1  0  0  0
 82155  1  0  0  0
 82156  1  0  0  0
M  CHG  1  82   1
M  ISO  4   1 100  68 101  80 101  81 100
M  END
> <chiral flag>
0

> <version>
0

> <s_m_source_file>
/data/baiqing/PycharmProjects/Reinvent-master-3.2/result/LINK_invent/BTK/process_docking_weight1_custom_sum_contain_oxygen_bond_distance_aromatic_linkinvent_7_9_3/rearranged_h_0003.sdf

> <i_m_source_file_index>
4

> <r_mmod_Potential_Energy-OPLS-2005>
-168.487808227539

> <r_mmod_Stretch_Energy-OPLS-2005>
53.3097610473633

> <r_mmod_Bend_Energy-OPLS-2005>
129.124069213867

> <r_mmod_Torsional_Energy-OPLS-2005>
262.076812744141

> <r_mmod_Improper_Torsional_Energy-OPLS-2005>
8.60186576843262

> <r_mmod_Van_der_Waal_Energy-OPLS-2005>
141.568786621094

> <r_mmod_Electrostatic_Energy-OPLS-2005>
-311.963745117188

> <r_mmod_Solvation_Energy-OPLS-2005>
-475.174072265625

> <b_mmod_Minimization_Converged-OPLS-2005>
0

> <r_mmod_RMS_Derivative-OPLS-2005>
2.13928484916687

$$$$
4
                    3D
 Structure written by MMmdl.
167175  0  0  1  0            999 V2000
  -30.7294  -14.4263   20.4832 C   0  0  0  0  0  0
  -30.4064  -12.2532   19.4343 C   0  0  0  0  0  0
  -29.4936  -12.4709   18.2096 C   0  0  0  0  0  0
  -28.0117  -12.3554   18.6160 C   0  0  0  0  0  0
  -27.6580  -13.2089   19.8643 C   0  0  2  0  0  0
  -28.7003  -13.0239   20.9921 C   0  0  0  0  0  0
  -25.2587  -13.8176   20.5675 C   0  0  0  0  0  0
  -24.1839  -13.0452   20.9181 C   0  0  0  0  0  0
  -24.6394  -11.6922   20.8739 C   0  0  0  0  0  0
  -23.9058  -10.4309   21.0397 C   0  0  0  0  0  0
  -24.3614   -9.4225   21.9174 C   0  0  0  0  0  0
  -23.6299   -8.2255   22.0739 C   0  0  0  0  0  0
  -22.4283   -8.0286   21.3532 C   0  0  0  0  0  0
  -21.9914   -9.0258   20.4637 C   0  0  0  0  0  0
  -22.7229  -10.2143   20.3046 C   0  0  0  0  0  0
  -21.6859   -6.0739   22.5279 C   0  0  0  0  0  0
  -21.4019   -6.5641   23.8214 C   0  0  0  0  0  0
  -21.3657   -5.6790   24.9172 C   0  0  0  0  0  0
  -21.6049   -4.3056   24.7218 C   0  0  0  0  0  0
  -21.8819   -3.8147   23.4339 C   0  0  0  0  0  0
  -21.9197   -4.6967   22.3398 C   0  0  0  0  0  0
  -22.7859  -13.5247   21.1837 C   0  0  0  0  0  0
  -22.1664   -4.2150   21.0974 F   0  0  0  0  0  0
  -21.5626   -3.4534   25.7730 F   0  0  0  0  0  0
  -30.0360  -13.2649   20.4305 N   0  0  0  0  0  0
  -26.3014  -12.9351   20.3330 N   0  0  0  0  0  0
  -25.9323  -11.6509   20.5767 N   0  0  0  0  0  0
  -22.0493  -12.8248   22.0393 N   0  0  0  0  0  0
  -25.4317  -15.1893   20.4079 N   0  0  0  0  0  0
  -31.9300  -14.5117   20.2153 O   0  0  0  0  0  0
  -21.6643   -6.8880   21.4241 O   0  0  0  0  0  0
  -22.3545  -14.5550   20.6679 O   0  0  0  0  0  0
  -24.6105  -31.8713   23.2132 C   0  0  0  0  0  0
  -25.9018  -32.4840   23.8410 C   0  0  1  0  0  0
  -27.2342  -27.4751   20.0791 C   0  0  0  0  0  0
  -25.5892  -33.8637   24.2347 N   0  0  0  0  0  0
  -23.3932  -30.4962   21.5532 C   0  0  2  0  0  0
  -24.8354  -28.9654   20.1167 C   0  0  0  0  0  0
  -22.7372  -29.4680   22.5014 C   0  0  0  0  0  0
  -18.0261  -28.1364   22.8502 C   0  0  0  0  0  0
  -24.1485  -36.7320   23.2638 C   0  0  0  0  0  0
  -25.9180  -30.8488   21.3582 C   0  0  0  0  0  0
  -25.9923  -29.4855   20.7077 C   0  0  0  0  0  0
  -27.1899  -28.7434   20.6911 C   0  0  0  0  0  0
  -26.0495  -26.9476   19.5143 C   0  0  0  0  0  0
  -24.8558  -27.6925   19.5221 C   0  0  0  0  0  0
  -23.5961  -29.8267   20.1674 C   0  0  0  0  0  0
  -25.4107  -36.3121   24.0344 C   0  0  1  0  0  0
  -20.5851  -28.3653   23.1331 C   0  0  2  0  0  0
  -20.6756  -26.9394   22.5416 C   0  0  0  0  0  0
  -19.5737  -26.6382   21.5210 C   0  0  0  0  0  0
  -18.1915  -26.7914   22.1624 C   0  0  0  0  0  0
  -19.1508  -28.8823   23.2917 C   0  0  0  0  0  0
  -18.9439  -30.1433   23.8925 C   0  0  0  0  0  0
  -17.6443  -30.6576   24.0563 C   0  0  0  0  0  0
  -25.9028  -34.9487   23.5142 C   0  0  0  0  0  0
  -16.5336  -29.9081   23.6320 C   0  0  0  0  0  0
  -16.7253  -28.6489   23.0353 C   0  0  0  0  0  0
  -26.4465  -31.6602   25.0717 C   0  0  0  0  0  0
  -25.3759  -31.3690   26.1483 C   0  0  0  0  0  0
  -27.0289  -30.3056   24.6059 C   0  0  0  0  0  0
  -27.6047  -32.4315   25.7471 C   0  0  0  0  0  0
  -27.5580  -37.1814   24.8466 C   0  0  0  0  0  0
  -21.4104  -29.3033   22.3745 N   0  0  0  0  0  0
  -26.4293  -37.3801   23.9412 N   0  0  0  0  0  0
  -24.6588  -31.0856   22.1007 N   0  0  0  0  0  0
  -23.4165  -28.8224   23.3033 O   0  0  0  0  0  0
  -28.4457  -26.8229   20.0831 O   0  0  0  0  0  0
  -26.5577  -34.8934   22.4694 O   0  0  0  0  0  0
  -23.5313  -32.1433   23.7573 O   0  0  0  0  0  0
  -31.0504  -17.5725   17.5520 C   0  0  0  0  0  0
  -30.3507  -19.0794   19.3319 C   0  0  0  0  0  0
  -30.7193  -16.4728   18.3576 C   0  0  0  0  0  0
  -30.0223  -17.9717   20.1464 C   0  0  0  0  0  0
  -30.8820  -18.8849   18.0322 C   0  0  0  0  0  0
  -30.2383  -16.6584   19.6779 C   0  0  0  0  0  0
  -31.3339  -20.0331   17.1770 C   0  0  0  0  0  0
  -29.7341  -24.0368   14.9773 C   0  0  0  0  0  0
  -29.9607  -22.5549   15.2838 C   0  0  0  0  0  0
  -27.7894  -26.1120   16.8917 C   0  0  0  0  0  0
  -28.9912  -25.9578   17.8474 C   0  0  0  0  0  0
  -30.8670  -22.3809   16.5227 C   0  0  0  0  0  0
  -28.1445  -25.9038   15.4082 C   0  0  0  0  0  0
  -28.6426  -25.6446   19.3141 C   0  0  0  0  0  0
  -29.9781  -15.5376   20.5202 N   0  0  0  0  0  0
  -30.5921  -21.1407   17.2437 N   0  0  0  0  0  0
  -28.4983  -24.5046   15.1843 N   0  0  0  0  0  0
  -32.3057  -19.9195   16.4263 O   0  0  0  0  0  0
  -30.6775  -24.7546   14.6409 O   0  0  0  0  0  0
  -31.4567  -12.3113   19.1424 H   0  0  0  0  0  0
  -30.2663  -11.2531   19.8466 H   0  0  0  0  0  0
  -29.7264  -11.7388   17.4353 H   0  0  0  0  0  0
  -29.6801  -13.4517   17.7705 H   0  0  0  0  0  0
  -27.8097  -11.3040   18.8191 H   0  0  0  0  0  0
  -27.3693  -12.6293   17.7777 H   0  0  0  0  0  0
  -27.6927  -14.2500   19.5430 H   0  0  0  0  0  0
  -28.6532  -12.0126   21.3985 H   0  0  0  0  0  0
  -28.4949  -13.6960   21.8272 H   0  0  0  0  0  0
  -25.2760   -9.5713   22.4741 H   0  0  0  0  0  0
  -24.0016   -7.4648   22.7462 H   0  0  0  0  0  0
  -21.0839   -8.8770   19.8950 H   0  0  0  0  0  0
  -22.3678  -10.9675   19.6152 H   0  0  0  0  0  0
  -21.2013   -7.6147   23.9721 H   0  0  0  0  0  0
  -21.1477   -6.0512   25.9075 H   0  0  0  0  0  0
  -22.0601   -2.7609   23.2835 H   0  0  0  0  0  0
  -22.4112  -11.9927   22.4811 H   0  0  0  0  0  0
  -21.1100  -13.1267   22.2569 H   0  0  0  0  0  0
  -24.6658  -15.8456   20.5140 H   0  0  0  0  0  0
  -26.2810  -15.6262   20.0725 H   0  0  0  0  0  0
  -26.7086  -32.5564   23.1174 H   0  0  0  0  0  0
  -25.0072  -33.9810   25.0515 H   0  0  0  0  0  0
  -22.6808  -31.3124   21.4175 H   0  0  0  0  0  0
  -23.3739  -35.9656   23.3315 H   0  0  0  0  0  0
  -24.3580  -36.8912   22.2046 H   0  0  0  0  0  0
  -23.7241  -37.6536   23.6638 H   0  0  0  0  0  0
  -26.0249  -31.6164   20.5902 H   0  0  0  0  0  0
  -26.8102  -30.9023   21.9708 H   0  0  0  0  0  0
  -28.0867  -29.1481   21.1391 H   0  0  0  0  0  0
  -26.0191  -25.9683   19.0648 H   0  0  0  0  0  0
  -23.9618  -27.2788   19.0761 H   0  0  0  0  0  0
  -23.6977  -30.5998   19.4054 H   0  0  0  0  0  0
  -22.7221  -29.2401   19.8766 H   0  0  0  0  0  0
  -25.1283  -36.1985   25.0834 H   0  0  0  0  0  0
  -20.9951  -28.3202   24.1450 H   0  0  0  0  0  0
  -20.5652  -26.2258   23.3598 H   0  0  0  0  0  0
  -21.6632  -26.7442   22.1217 H   0  0  0  0  0  0
  -19.6901  -25.6298   21.1229 H   0  0  0  0  0  0
  -19.6677  -27.3202   20.6750 H   0  0  0  0  0  0
  -17.4192  -26.6673   21.4016 H   0  0  0  0  0  0
  -18.0305  -26.0039   22.9002 H   0  0  0  0  0  0
  -19.7916  -30.7235   24.2305 H   0  0  0  0  0  0
  -17.5003  -31.6260   24.5157 H   0  0  0  0  0  0
  -15.5337  -30.2995   23.7630 H   0  0  0  0  0  0
  -15.8652  -28.0816   22.7070 H   0  0  0  0  0  0
  -24.5917  -30.7051   25.7823 H   0  0  0  0  0  0
  -24.8973  -32.2844   26.4972 H   0  0  0  0  0  0
  -25.8136  -30.8827   27.0211 H   0  0  0  0  0  0
  -26.2809  -29.6816   24.1153 H   0  0  0  0  0  0
  -27.4112  -29.7289   25.4489 H   0  0  0  0  0  0
  -27.8622  -30.4386   23.9156 H   0  0  0  0  0  0
  -27.2661  -33.3593   26.2095 H   0  0  0  0  0  0
  -28.3827  -32.6911   25.0278 H   0  0  0  0  0  0
  -28.0753  -31.8418   26.5348 H   0  0  0  0  0  0
  -28.2614  -38.0096   24.7511 H   0  0  0  0  0  0
  -28.1061  -36.2634   24.6292 H   0  0  0  0  0  0
  -27.2305  -37.1461   25.8871 H   0  0  0  0  0  0
  -20.9238  -29.8746   21.6984 H   0  0  0  0  0  0
  -26.0185  -38.2885   24.1394 H   0  0  0  0  0  0
  -31.4567  -17.4034   16.5640 H   0  0  0  0  0  0
  -30.2229  -20.0783   19.7255 H   0  0  0  0  0  0
  -30.8815  -15.4842   17.9524 H   0  0  0  0  0  0
  -29.6453  -18.1389   21.1464 H   0  0  0  0  0  0
  -30.4021  -22.0632   14.4166 H   0  0  0  0  0  0
  -28.9947  -22.0759   15.4521 H   0  0  0  0  0  0
  -27.3447  -27.0985   17.0236 H   0  0  0  0  0  0
  -27.0153  -25.3912   17.1559 H   0  0  0  0  0  0
  -29.6288  -26.8404   17.7892 H   0  0  0  0  0  0
  -29.6128  -25.1366   17.5067 H   0  0  0  0  0  0
  -30.7115  -23.1902   17.2353 H   0  0  0  0  0  0
  -31.9173  -22.4508   16.2306 H   0  0  0  0  0  0
  -28.9431  -26.5858   15.1077 H   0  0  0  0  0  0
  -27.2830  -26.1464   14.7850 H   0  0  0  0  0  0
  -29.5125  -25.1621   19.7615 H   0  0  0  0  0  0
  -27.8427  -24.9118   19.4166 H   0  0  0  0  0  0
  -29.0511  -15.4610   20.9110 H   0  0  0  0  0  0
  -29.7917  -21.1208   17.8608 H   0  0  0  0  0  0
  -27.7831  -23.8229   15.4027 H   0  0  0  0  0  0
  1 25  1  0  0  0
  1 30  2  0  0  0
  1 85  1  0  0  0
  2  3  1  0  0  0
  2 25  1  0  0  0
  2 90  1  0  0  0
  2 91  1  0  0  0
  3  4  1  0  0  0
  3 92  1  0  0  0
  3 93  1  0  0  0
  4  5  1  0  0  0
  4 94  1  0  0  0
  4 95  1  0  0  0
  5  6  1  0  0  0
  5 26  1  0  0  0
  5 96  1  0  0  0
  6 25  1  0  0  0
  6 97  1  0  0  0
  6 98  1  0  0  0
  7  8  2  0  0  0
  7 26  1  0  0  0
  7 29  1  0  0  0
  8  9  1  0  0  0
  8 22  1  0  0  0
  9 10  1  0  0  0
  9 27  2  0  0  0
 10 11  2  0  0  0
 10 15  1  0  0  0
 11 12  1  0  0  0
 11 99  1  0  0  0
 12 13  2  0  0  0
 12100  1  0  0  0
 13 14  1  0  0  0
 13 31  1  0  0  0
 14 15  2  0  0  0
 14101  1  0  0  0
 15102  1  0  0  0
 16 17  2  0  0  0
 16 21  1  0  0  0
 16 31  1  0  0  0
 17 18  1  0  0  0
 17103  1  0  0  0
 18 19  2  0  0  0
 18104  1  0  0  0
 19 20  1  0  0  0
 19 24  1  0  0  0
 20 21  2  0  0  0
 20105  1  0  0  0
 21 23  1  0  0  0
 22 28  1  0  0  0
 22 32  2  0  0  0
 26 27  1  0  0  0
 28106  1  0  0  0
 28107  1  0  0  0
 29108  1  0  0  0
 29109  1  0  0  0
 33 34  1  0  0  0
 33 66  1  0  0  0
 33 70  2  0  0  0
 34 36  1  0  0  0
 34 59  1  0  0  0
 34110  1  0  0  0
 35 44  2  0  0  0
 35 45  1  0  0  0
 35 68  1  0  0  0
 36 56  1  0  0  0
 36111  1  0  0  0
 37 39  1  0  0  0
 37 47  1  0  0  0
 37 66  1  0  0  0
 37112  1  0  0  0
 38 43  2  0  0  0
 38 46  1  0  0  0
 38 47  1  0  0  0
 39 64  1  0  0  0
 39 67  2  0  0  0
 40 52  1  0  0  0
 40 53  2  0  0  0
 40 58  1  0  0  0
 41113  1  0  0  0
 41114  1  0  0  0
 41115  1  0  0  0
 41 48  1  0  0  0
 42 43  1  0  0  0
 42 66  1  0  0  0
 42116  1  0  0  0
 42117  1  0  0  0
 43 44  1  0  0  0
 44118  1  0  0  0
 45 46  2  0  0  0
 45119  1  0  0  0
 46120  1  0  0  0
 47121  1  0  0  0
 47122  1  0  0  0
 48 56  1  0  0  0
 48 65  1  0  0  0
 48123  1  0  0  0
 49 50  1  0  0  0
 49 53  1  0  0  0
 49 64  1  0  0  0
 49124  1  0  0  0
 50 51  1  0  0  0
 50125  1  0  0  0
 50126  1  0  0  0
 51 52  1  0  0  0
 51127  1  0  0  0
 51128  1  0  0  0
 52129  1  0  0  0
 52130  1  0  0  0
 53 54  1  0  0  0
 54 55  2  0  0  0
 54131  1  0  0  0
 55 57  1  0  0  0
 55132  1  0  0  0
 56 69  2  0  0  0
 57 58  2  0  0  0
 57133  1  0  0  0
 58134  1  0  0  0
 59 60  1  0  0  0
 59 61  1  0  0  0
 59 62  1  0  0  0
 60135  1  0  0  0
 60136  1  0  0  0
 60137  1  0  0  0
 61138  1  0  0  0
 61139  1  0  0  0
 61140  1  0  0  0
 62141  1  0  0  0
 62142  1  0  0  0
 62143  1  0  0  0
 63 65  1  0  0  0
 63144  1  0  0  0
 63145  1  0  0  0
 63146  1  0  0  0
 64147  1  0  0  0
 65148  1  0  0  0
 68 84  1  0  0  0
 71 73  2  0  0  0
 71 75  1  0  0  0
 71149  1  0  0  0
 72 74  1  0  0  0
 72 75  2  0  0  0
 72150  1  0  0  0
 73 76  1  0  0  0
 73151  1  0  0  0
 74 76  2  0  0  0
 74152  1  0  0  0
 75 77  1  0  0  0
 76 85  1  0  0  0
 77 86  1  0  0  0
 77 88  2  0  0  0
 78 79  1  0  0  0
 78 87  1  0  0  0
 78 89  2  0  0  0
 79 82  1  0  0  0
 79153  1  0  0  0
 79154  1  0  0  0
 80 81  1  0  0  0
 80 83  1  0  0  0
 80155  1  0  0  0
 80156  1  0  0  0
 81 84  1  0  0  0
 81157  1  0  0  0
 81158  1  0  0  0
 82 86  1  0  0  0
 82159  1  0  0  0
 82160  1  0  0  0
 83 87  1  0  0  0
 83161  1  0  0  0
 83162  1  0  0  0
 84163  1  0  0  0
 84164  1  0  0  0
 85165  1  0  0  0
 86166  1  0  0  0
 87167  1  0  0  0
M  ISO  4   1 100  68 101  84 101  85 100
M  END
> <chiral flag>
0

> <version>
0

> <s_m_source_file>
/data/baiqing/PycharmProjects/Reinvent-master-3.2/result/LINK_invent/BTK/process_docking_weight1_custom_sum_contain_oxygen_bond_distance_aromatic_linkinvent_7_9_3/rearranged_h_0003.sdf

> <i_m_source_file_index>
5

> <r_mmod_Potential_Energy-OPLS-2005>
-116.165054321289

> <r_mmod_Stretch_Energy-OPLS-2005>
32.1161155700684

> <r_mmod_Bend_Energy-OPLS-2005>
102.086959838867

> <r_mmod_Torsional_Energy-OPLS-2005>
265.309234619141

> <r_mmod_Improper_Torsional_Energy-OPLS-2005>
10.6623373031616

> <r_mmod_Van_der_Waal_Energy-OPLS-2005>
164.440628051758

> <r_mmod_Electrostatic_Energy-OPLS-2005>
-433.148162841797

> <r_mmod_Solvation_Energy-OPLS-2005>
-278.041229248047

> <b_mmod_Minimization_Converged-OPLS-2005>
0

> <r_mmod_RMS_Derivative-OPLS-2005>
1.52311885356903

$$$$
5
                    3D
 Structure written by MMmdl.
155163  0  0  1  0            999 V2000
  -30.7228  -14.3857   20.6517 C   0  0  0  0  0  0
  -30.4274  -12.2821   19.3987 C   0  0  0  0  0  0
  -29.4917  -12.5252   18.1966 C   0  0  0  0  0  0
  -28.0135  -12.3826   18.6089 C   0  0  0  0  0  0
  -27.6708  -13.1960   19.8841 C   0  0  2  0  0  0
  -28.7061  -12.9143   20.9953 C   0  0  0  0  0  0
  -25.2640  -13.8148   20.5684 C   0  0  0  0  0  0
  -24.1866  -13.0446   20.9156 C   0  0  0  0  0  0
  -24.6393  -11.6904   20.8710 C   0  0  0  0  0  0
  -23.9053  -10.4297   21.0391 C   0  0  0  0  0  0
  -24.3608   -9.4213   21.9172 C   0  0  0  0  0  0
  -23.6286   -8.2250   22.0749 C   0  0  0  0  0  0
  -22.4268   -8.0288   21.3541 C   0  0  0  0  0  0
  -21.9899   -9.0258   20.4641 C   0  0  0  0  0  0
  -22.7224  -10.2139   20.3046 C   0  0  0  0  0  0
  -21.6857   -6.0736   22.5279 C   0  0  0  0  0  0
  -21.4016   -6.5637   23.8212 C   0  0  0  0  0  0
  -21.3656   -5.6788   24.9172 C   0  0  0  0  0  0
  -21.6041   -4.3052   24.7221 C   0  0  0  0  0  0
  -21.8819   -3.8144   23.4344 C   0  0  0  0  0  0
  -21.9195   -4.6963   22.3401 C   0  0  0  0  0  0
  -22.7895  -13.5257   21.1828 C   0  0  0  0  0  0
  -22.1665   -4.2149   21.0979 F   0  0  0  0  0  0
  -21.5631   -3.4531   25.7732 F   0  0  0  0  0  0
  -30.0534  -13.2175   20.4689 N   0  0  0  0  0  0
  -26.3066  -12.9291   20.3378 N   0  0  0  0  0  0
  -25.9313  -11.6458   20.5734 N   0  0  0  0  0  0
  -22.0529  -12.8253   22.0385 N   0  0  0  0  0  0
  -25.4412  -15.1867   20.4147 N   0  0  0  0  0  0
  -31.7695  -14.6699   20.0593 O   0  0  0  0  0  0
  -21.6636   -6.8883   21.4244 O   0  0  0  0  0  0
  -22.3580  -14.5567   20.6686 O   0  0  0  0  0  0
  -24.6114  -31.8706   23.2118 C   0  0  0  0  0  0
  -25.9021  -32.4833   23.8406 C   0  0  1  0  0  0
  -27.2393  -27.4664   20.0940 C   0  0  0  0  0  0
  -25.5889  -33.8630   24.2340 N   0  0  0  0  0  0
  -23.3979  -30.4929   21.5516 C   0  0  2  0  0  0
  -24.8450  -28.9583   20.1204 C   0  0  0  0  0  0
  -22.7387  -29.4671   22.5009 C   0  0  0  0  0  0
  -18.0265  -28.1377   22.8491 C   0  0  0  0  0  0
  -24.1486  -36.7324   23.2638 C   0  0  0  0  0  0
  -25.9224  -30.8448   21.3599 C   0  0  0  0  0  0
  -26.0022  -29.4793   20.7128 C   0  0  0  0  0  0
  -27.2036  -28.7402   20.6970 C   0  0  0  0  0  0
  -26.0677  -26.9495   19.5003 C   0  0  0  0  0  0
  -24.8704  -27.6898   19.5134 C   0  0  0  0  0  0
  -23.6053  -29.8216   20.1675 C   0  0  0  0  0  0
  -25.4103  -36.3117   24.0340 C   0  0  1  0  0  0
  -20.5849  -28.3657   23.1330 C   0  0  2  0  0  0
  -20.6757  -26.9405   22.5409 C   0  0  0  0  0  0
  -19.5735  -26.6397   21.5204 C   0  0  0  0  0  0
  -18.1914  -26.7931   22.1611 C   0  0  0  0  0  0
  -19.1512  -28.8832   23.2913 C   0  0  0  0  0  0
  -18.9441  -30.1435   23.8931 C   0  0  0  0  0  0
  -17.6445  -30.6579   24.0579 C   0  0  0  0  0  0
  -25.9028  -34.9482   23.5137 C   0  0  0  0  0  0
  -16.5339  -29.9087   23.6325 C   0  0  0  0  0  0
  -16.7255  -28.6505   23.0340 C   0  0  0  0  0  0
  -26.4464  -31.6599   25.0719 C   0  0  0  0  0  0
  -25.3745  -31.3695   26.1479 C   0  0  0  0  0  0
  -27.0292  -30.3049   24.6064 C   0  0  0  0  0  0
  -27.6049  -32.4310   25.7477 C   0  0  0  0  0  0
  -27.5579  -37.1816   24.8465 C   0  0  0  0  0  0
  -21.4117  -29.3035   22.3748 N   0  0  0  0  0  0
  -26.4294  -37.3795   23.9407 N   0  0  0  0  0  0
  -24.6620  -31.0833   22.1003 N   0  0  0  0  0  0
  -23.4174  -28.8215   23.3043 O   0  0  0  0  0  0
  -28.4203  -26.7660   20.0549 O   0  0  0  0  0  0
  -26.5587  -34.8932   22.4696 O   0  0  0  0  0  0
  -23.5314  -32.1445   23.7532 O   0  0  0  0  0  0
  -28.6485  -17.0337   21.9666 C   0  0  0  0  0  0
  -30.6184  -17.4634   20.6031 C   0  0  0  0  0  0
  -28.2179  -18.3583   21.7678 C   0  0  0  0  0  0
  -30.1848  -18.7901   20.4076 C   0  0  0  0  0  0
  -29.8349  -16.5663   21.3661 C   0  0  0  0  0  0
  -28.9718  -19.2458   20.9620 C   0  0  0  0  0  0
  -28.0778  -24.3388   20.0531 C   0  0  0  0  0  0
  -28.4618  -25.5859   20.8637 C   0  0  0  0  0  0
  -26.8738  -22.1594   20.1272 C   0  0  0  0  0  0
  -27.2235  -20.8849   20.9059 C   0  0  0  0  0  0
  -30.1617  -15.1992   21.5574 N   0  0  0  0  0  0
  -27.4770  -23.3489   20.7237 N   0  0  0  0  0  0
  -28.2911  -24.2880   18.8385 O   0  0  0  0  0  0
  -28.5872  -20.5384   20.6766 O   0  0  0  0  0  0
  -31.4705  -12.3916   19.0958 H   0  0  0  0  0  0
  -30.3320  -11.2555   19.7553 H   0  0  0  0  0  0
  -29.7229  -11.8259   17.3922 H   0  0  0  0  0  0
  -29.6641  -13.5243   17.7926 H   0  0  0  0  0  0
  -27.8163  -11.3236   18.7802 H   0  0  0  0  0  0
  -27.3638  -12.6834   17.7860 H   0  0  0  0  0  0
  -27.7359  -14.2528   19.6238 H   0  0  0  0  0  0
  -28.6668  -11.8630   21.2845 H   0  0  0  0  0  0
  -28.4472  -13.4616   21.9016 H   0  0  0  0  0  0
  -25.2754   -9.5695   22.4742 H   0  0  0  0  0  0
  -23.9995   -7.4647   22.7476 H   0  0  0  0  0  0
  -21.0825   -8.8780   19.8954 H   0  0  0  0  0  0
  -22.3683  -10.9680   19.6158 H   0  0  0  0  0  0
  -21.2014   -7.6145   23.9712 H   0  0  0  0  0  0
  -21.1478   -6.0521   25.9074 H   0  0  0  0  0  0
  -22.0601   -2.7605   23.2847 H   0  0  0  0  0  0
  -22.4129  -11.9904   22.4765 H   0  0  0  0  0  0
  -21.1155  -13.1301   22.2585 H   0  0  0  0  0  0
  -24.6832  -15.8489   20.5362 H   0  0  0  0  0  0
  -26.3068  -15.6239   20.1238 H   0  0  0  0  0  0
  -26.7094  -32.5560   23.1180 H   0  0  0  0  0  0
  -25.0052  -33.9796   25.0492 H   0  0  0  0  0  0
  -22.6855  -31.3084   21.4119 H   0  0  0  0  0  0
  -23.3738  -35.9668   23.3315 H   0  0  0  0  0  0
  -24.3584  -36.8921   22.2050 H   0  0  0  0  0  0
  -23.7253  -37.6543   23.6639 H   0  0  0  0  0  0
  -26.0267  -31.6091   20.5886 H   0  0  0  0  0  0
  -26.8134  -30.9034   21.9730 H   0  0  0  0  0  0
  -28.1012  -29.1433   21.1456 H   0  0  0  0  0  0
  -26.0792  -25.9868   19.0109 H   0  0  0  0  0  0
  -23.9816  -27.2828   19.0509 H   0  0  0  0  0  0
  -23.7108  -30.5944   19.4049 H   0  0  0  0  0  0
  -22.7310  -29.2376   19.8741 H   0  0  0  0  0  0
  -25.1278  -36.1988   25.0833 H   0  0  0  0  0  0
  -20.9938  -28.3213   24.1450 H   0  0  0  0  0  0
  -20.5675  -26.2258   23.3582 H   0  0  0  0  0  0
  -21.6628  -26.7469   22.1188 H   0  0  0  0  0  0
  -19.6900  -25.6318   21.1208 H   0  0  0  0  0  0
  -19.6679  -27.3226   20.6749 H   0  0  0  0  0  0
  -17.4196  -26.6706   21.3998 H   0  0  0  0  0  0
  -18.0300  -26.0058   22.8984 H   0  0  0  0  0  0
  -19.7919  -30.7239   24.2323 H   0  0  0  0  0  0
  -17.4998  -31.6256   24.5183 H   0  0  0  0  0  0
  -15.5339  -30.2995   23.7633 H   0  0  0  0  0  0
  -15.8652  -28.0837   22.7033 H   0  0  0  0  0  0
  -24.5905  -30.7054   25.7820 H   0  0  0  0  0  0
  -24.8951  -32.2850   26.4957 H   0  0  0  0  0  0
  -25.8112  -30.8844   27.0215 H   0  0  0  0  0  0
  -26.2824  -29.6814   24.1131 H   0  0  0  0  0  0
  -27.4096  -29.7276   25.4501 H   0  0  0  0  0  0
  -27.8642  -30.4385   23.9181 H   0  0  0  0  0  0
  -27.2670  -33.3587   26.2107 H   0  0  0  0  0  0
  -28.3832  -32.6905   25.0287 H   0  0  0  0  0  0
  -28.0747  -31.8400   26.5350 H   0  0  0  0  0  0
  -28.2608  -38.0101   24.7497 H   0  0  0  0  0  0
  -28.1063  -36.2634   24.6303 H   0  0  0  0  0  0
  -27.2299  -37.1483   25.8870 H   0  0  0  0  0  0
  -20.9267  -29.8770   21.6989 H   0  0  0  0  0  0
  -26.0189  -38.2878   24.1394 H   0  0  0  0  0  0
  -28.0376  -16.3736   22.5669 H   0  0  0  0  0  0
  -31.5455  -17.1504   20.1445 H   0  0  0  0  0  0
  -27.2953  -18.6652   22.2387 H   0  0  0  0  0  0
  -30.7803  -19.4586   19.8019 H   0  0  0  0  0  0
  -29.4801  -25.4554   21.2305 H   0  0  0  0  0  0
  -27.8229  -25.6883   21.7431 H   0  0  0  0  0  0
  -25.7922  -22.3011   20.1389 H   0  0  0  0  0  0
  -27.1525  -22.0350   19.0798 H   0  0  0  0  0  0
  -26.5683  -20.0880   20.5486 H   0  0  0  0  0  0
  -27.0350  -21.0152   21.9726 H   0  0  0  0  0  0
  -29.5062  -14.7046   22.1428 H   0  0  0  0  0  0
  -27.3597  -23.4716   21.7207 H   0  0  0  0  0  0
  1 25  1  0  0  0
  1 30  2  0  0  0
  1 81  1  0  0  0
  2  3  1  0  0  0
  2 25  1  0  0  0
  2 85  1  0  0  0
  2 86  1  0  0  0
  3  4  1  0  0  0
  3 87  1  0  0  0
  3 88  1  0  0  0
  4  5  1  0  0  0
  4 89  1  0  0  0
  4 90  1  0  0  0
  5  6  1  0  0  0
  5 26  1  0  0  0
  5 91  1  0  0  0
  6 25  1  0  0  0
  6 92  1  0  0  0
  6 93  1  0  0  0
  7  8  2  0  0  0
  7 26  1  0  0  0
  7 29  1  0  0  0
  8  9  1  0  0  0
  8 22  1  0  0  0
  9 10  1  0  0  0
  9 27  2  0  0  0
 10 11  2  0  0  0
 10 15  1  0  0  0
 11 12  1  0  0  0
 11 94  1  0  0  0
 12 13  2  0  0  0
 12 95  1  0  0  0
 13 14  1  0  0  0
 13 31  1  0  0  0
 14 15  2  0  0  0
 14 96  1  0  0  0
 15 97  1  0  0  0
 16 17  2  0  0  0
 16 21  1  0  0  0
 16 31  1  0  0  0
 17 18  1  0  0  0
 17 98  1  0  0  0
 18 19  2  0  0  0
 18 99  1  0  0  0
 19 20  1  0  0  0
 19 24  1  0  0  0
 20 21  2  0  0  0
 20100  1  0  0  0
 21 23  1  0  0  0
 22 28  1  0  0  0
 22 32  2  0  0  0
 26 27  1  0  0  0
 28101  1  0  0  0
 28102  1  0  0  0
 29103  1  0  0  0
 29104  1  0  0  0
 33 34  1  0  0  0
 33 66  1  0  0  0
 33 70  2  0  0  0
 34 36  1  0  0  0
 34 59  1  0  0  0
 34105  1  0  0  0
 35 44  2  0  0  0
 35 45  1  0  0  0
 35 68  1  0  0  0
 36 56  1  0  0  0
 36106  1  0  0  0
 37 39  1  0  0  0
 37 47  1  0  0  0
 37 66  1  0  0  0
 37107  1  0  0  0
 38 43  2  0  0  0
 38 46  1  0  0  0
 38 47  1  0  0  0
 39 64  1  0  0  0
 39 67  2  0  0  0
 40 52  1  0  0  0
 40 53  2  0  0  0
 40 58  1  0  0  0
 41108  1  0  0  0
 41109  1  0  0  0
 41110  1  0  0  0
 41 48  1  0  0  0
 42 43  1  0  0  0
 42 66  1  0  0  0
 42111  1  0  0  0
 42112  1  0  0  0
 43 44  1  0  0  0
 44113  1  0  0  0
 45 46  2  0  0  0
 45114  1  0  0  0
 46115  1  0  0  0
 47116  1  0  0  0
 47117  1  0  0  0
 48 56  1  0  0  0
 48 65  1  0  0  0
 48118  1  0  0  0
 49 50  1  0  0  0
 49 53  1  0  0  0
 49 64  1  0  0  0
 49119  1  0  0  0
 50 51  1  0  0  0
 50120  1  0  0  0
 50121  1  0  0  0
 51 52  1  0  0  0
 51122  1  0  0  0
 51123  1  0  0  0
 52124  1  0  0  0
 52125  1  0  0  0
 53 54  1  0  0  0
 54 55  2  0  0  0
 54126  1  0  0  0
 55 57  1  0  0  0
 55127  1  0  0  0
 56 69  2  0  0  0
 57 58  2  0  0  0
 57128  1  0  0  0
 58129  1  0  0  0
 59 60  1  0  0  0
 59 61  1  0  0  0
 59 62  1  0  0  0
 60130  1  0  0  0
 60131  1  0  0  0
 60132  1  0  0  0
 61133  1  0  0  0
 61134  1  0  0  0
 61135  1  0  0  0
 62136  1  0  0  0
 62137  1  0  0  0
 62138  1  0  0  0
 63 65  1  0  0  0
 63139  1  0  0  0
 63140  1  0  0  0
 63141  1  0  0  0
 64142  1  0  0  0
 65143  1  0  0  0
 68 78  1  0  0  0
 71 73  2  0  0  0
 71 75  1  0  0  0
 71144  1  0  0  0
 72 74  1  0  0  0
 72 75  2  0  0  0
 72145  1  0  0  0
 73 76  1  0  0  0
 73146  1  0  0  0
 74 76  2  0  0  0
 74147  1  0  0  0
 75 81  1  0  0  0
 76 84  1  0  0  0
 77 78  1  0  0  0
 77 82  1  0  0  0
 77 83  2  0  0  0
 78148  1  0  0  0
 78149  1  0  0  0
 79 80  1  0  0  0
 79 82  1  0  0  0
 79150  1  0  0  0
 79151  1  0  0  0
 80 84  1  0  0  0
 80152  1  0  0  0
 80153  1  0  0  0
 81154  1  0  0  0
 82155  1  0  0  0
M  ISO  4   1 100  68 101  78 101  81 100
M  END
> <chiral flag>
0

> <version>
0

> <s_m_source_file>
/data/baiqing/PycharmProjects/Reinvent-master-3.2/result/LINK_invent/BTK/process_docking_weight1_custom_sum_contain_oxygen_bond_distance_aromatic_linkinvent_7_9_3/rearranged_h_0003.sdf

> <i_m_source_file_index>
6

> <r_mmod_Potential_Energy-OPLS-2005>
-122.820579528809

> <r_mmod_Stretch_Energy-OPLS-2005>
32.5141487121582

> <r_mmod_Bend_Energy-OPLS-2005>
95.6586685180664

> <r_mmod_Torsional_Energy-OPLS-2005>
246.454040527344

> <r_mmod_Improper_Torsional_Energy-OPLS-2005>
4.93206310272217

> <r_mmod_Van_der_Waal_Energy-OPLS-2005>
157.409820556641

> <r_mmod_Electrostatic_Energy-OPLS-2005>
-416.07177734375

> <r_mmod_Solvation_Energy-OPLS-2005>
-250.538330078125

> <b_mmod_Minimization_Converged-OPLS-2005>
0

> <r_mmod_RMS_Derivative-OPLS-2005>
0.768388986587524

$$$$
6
                    3D
 Structure written by MMmdl.
158166  0  0  1  0            999 V2000
  -30.7431  -14.3874   20.6511 C   0  0  0  0  0  0
  -30.4173  -12.2823   19.4082 C   0  0  0  0  0  0
  -29.4889  -12.5230   18.2021 C   0  0  0  0  0  0
  -28.0110  -12.3843   18.6135 C   0  0  0  0  0  0
  -27.6674  -13.2042   19.8850 C   0  0  2  0  0  0
  -28.7036  -12.9420   21.0009 C   0  0  0  0  0  0
  -25.2595  -13.8160   20.5688 C   0  0  0  0  0  0
  -24.1840  -13.0441   20.9178 C   0  0  0  0  0  0
  -24.6394  -11.6909   20.8729 C   0  0  0  0  0  0
  -23.9058  -10.4299   21.0404 C   0  0  0  0  0  0
  -24.3608   -9.4214   21.9181 C   0  0  0  0  0  0
  -23.6295   -8.2237   22.0747 C   0  0  0  0  0  0
  -22.4274   -8.0278   21.3545 C   0  0  0  0  0  0
  -21.9910   -9.0249   20.4639 C   0  0  0  0  0  0
  -22.7231  -10.2131   20.3048 C   0  0  0  0  0  0
  -21.6857   -6.0735   22.5285 C   0  0  0  0  0  0
  -21.4009   -6.5631   23.8220 C   0  0  0  0  0  0
  -21.3661   -5.6780   24.9180 C   0  0  0  0  0  0
  -21.6037   -4.3043   24.7225 C   0  0  0  0  0  0
  -21.8816   -3.8142   23.4343 C   0  0  0  0  0  0
  -21.9192   -4.6961   22.3407 C   0  0  0  0  0  0
  -22.7861  -13.5236   21.1849 C   0  0  0  0  0  0
  -22.1659   -4.2154   21.0985 F   0  0  0  0  0  0
  -21.5635   -3.4518   25.7732 F   0  0  0  0  0  0
  -30.0486  -13.2333   20.4680 N   0  0  0  0  0  0
  -26.3043  -12.9333   20.3397 N   0  0  0  0  0  0
  -25.9324  -11.6490   20.5768 N   0  0  0  0  0  0
  -22.0498  -12.8230   22.0402 N   0  0  0  0  0  0
  -25.4330  -15.1878   20.4127 N   0  0  0  0  0  0
  -31.8005  -14.6317   20.0610 O   0  0  0  0  0  0
  -21.6639   -6.8876   21.4245 O   0  0  0  0  0  0
  -22.3549  -14.5557   20.6726 O   0  0  0  0  0  0
  -24.6095  -31.8681   23.2118 C   0  0  0  0  0  0
  -25.9010  -32.4816   23.8400 C   0  0  1  0  0  0
  -27.2457  -27.4762   20.0988 C   0  0  0  0  0  0
  -25.5898  -33.8623   24.2340 N   0  0  0  0  0  0
  -23.3952  -30.4905   21.5494 C   0  0  2  0  0  0
  -24.8449  -28.9513   20.1224 C   0  0  0  0  0  0
  -22.7375  -29.4658   22.5004 C   0  0  0  0  0  0
  -18.0260  -28.1364   22.8485 C   0  0  0  0  0  0
  -24.1485  -36.7313   23.2636 C   0  0  0  0  0  0
  -25.9169  -30.8493   21.3542 C   0  0  0  0  0  0
  -25.9996  -29.4829   20.7103 C   0  0  0  0  0  0
  -27.2052  -28.7546   20.6908 C   0  0  0  0  0  0
  -26.0793  -26.9399   19.5179 C   0  0  0  0  0  0
  -24.8766  -27.6761   19.5257 C   0  0  0  0  0  0
  -23.6030  -29.8126   20.1674 C   0  0  0  0  0  0
  -25.4102  -36.3110   24.0341 C   0  0  1  0  0  0
  -20.5845  -28.3644   23.1326 C   0  0  2  0  0  0
  -20.6736  -26.9385   22.5416 C   0  0  0  0  0  0
  -19.5732  -26.6376   21.5199 C   0  0  0  0  0  0
  -18.1910  -26.7916   22.1605 C   0  0  0  0  0  0
  -19.1509  -28.8823   23.2892 C   0  0  0  0  0  0
  -18.9442  -30.1431   23.8893 C   0  0  0  0  0  0
  -17.6445  -30.6571   24.0552 C   0  0  0  0  0  0
  -25.9027  -34.9474   23.5129 C   0  0  0  0  0  0
  -16.5332  -29.9071   23.6322 C   0  0  0  0  0  0
  -16.7251  -28.6489   23.0343 C   0  0  0  0  0  0
  -26.4475  -31.6580   25.0705 C   0  0  0  0  0  0
  -25.3774  -31.3664   26.1475 C   0  0  0  0  0  0
  -27.0294  -30.3027   24.6037 C   0  0  0  0  0  0
  -27.6059  -32.4287   25.7470 C   0  0  0  0  0  0
  -27.5588  -37.1803   24.8462 C   0  0  0  0  0  0
  -21.4110  -29.3022   22.3749 N   0  0  0  0  0  0
  -26.4287  -37.3800   23.9422 N   0  0  0  0  0  0
  -24.6587  -31.0823   22.0988 N   0  0  0  0  0  0
  -23.4171  -28.8200   23.3026 O   0  0  0  0  0  0
  -28.4353  -26.7992   20.0344 O   0  0  0  0  0  0
  -26.5572  -34.8929   22.4679 O   0  0  0  0  0  0
  -23.5303  -32.1419   23.7544 O   0  0  0  0  0  0
  -29.8030  -17.2947   22.7666 C   0  0  0  0  0  0
  -30.9664  -17.4377   20.6359 C   0  0  0  0  0  0
  -29.8555  -18.6989   22.8919 C   0  0  0  0  0  0
  -31.0209  -18.8370   20.7654 C   0  0  0  0  0  0
  -30.3542  -16.6487   21.6392 C   0  0  0  0  0  0
  -30.4666  -19.4844   21.8852 C   0  0  0  0  0  0
  -30.3722  -23.0545   22.8621 C   0  0  0  0  0  0
  -29.9942  -21.5744   23.0029 C   0  0  0  0  0  0
  -28.6595  -26.1704   22.4058 C   0  0  0  0  0  0
  -29.6888  -25.4165   23.2688 C   0  0  0  0  0  0
  -28.5847  -25.7064   20.9349 C   0  0  0  0  0  0
  -30.2035  -15.2355   21.5431 N   0  0  0  0  0  0
  -29.4823  -23.9664   23.2817 N   0  0  0  0  0  0
  -31.4615  -23.3698   22.3742 O   0  0  0  0  0  0
  -30.5620  -20.8576   21.9080 O   0  0  0  0  0  0
  -31.4629  -12.3733   19.1062 H   0  0  0  0  0  0
  -30.3070  -11.2607   19.7749 H   0  0  0  0  0  0
  -29.7224  -11.8197   17.4021 H   0  0  0  0  0  0
  -29.6667  -13.5196   17.7940 H   0  0  0  0  0  0
  -27.8125  -11.3266   18.7920 H   0  0  0  0  0  0
  -27.3604  -12.6784   17.7892 H   0  0  0  0  0  0
  -27.7260  -14.2594   19.6154 H   0  0  0  0  0  0
  -28.6627  -11.8975   21.3133 H   0  0  0  0  0  0
  -28.4524  -13.5142   21.8940 H   0  0  0  0  0  0
  -25.2764   -9.5683   22.4745 H   0  0  0  0  0  0
  -24.0013   -7.4621   22.7459 H   0  0  0  0  0  0
  -21.0840   -8.8756   19.8947 H   0  0  0  0  0  0
  -22.3699  -10.9655   19.6135 H   0  0  0  0  0  0
  -21.1992   -7.6142   23.9726 H   0  0  0  0  0  0
  -21.1483   -6.0506   25.9083 H   0  0  0  0  0  0
  -22.0591   -2.7603   23.2836 H   0  0  0  0  0  0
  -22.4108  -11.9876   22.4764 H   0  0  0  0  0  0
  -21.1118  -13.1256   22.2620 H   0  0  0  0  0  0
  -24.6716  -15.8479   20.5291 H   0  0  0  0  0  0
  -26.2996  -15.6257   20.1245 H   0  0  0  0  0  0
  -26.7072  -32.5563   23.1165 H   0  0  0  0  0  0
  -25.0123  -33.9790   25.0534 H   0  0  0  0  0  0
  -22.6817  -31.3051   21.4069 H   0  0  0  0  0  0
  -23.3760  -35.9633   23.3283 H   0  0  0  0  0  0
  -24.3591  -36.8939   22.2056 H   0  0  0  0  0  0
  -23.7224  -37.6510   23.6656 H   0  0  0  0  0  0
  -26.0175  -31.6135   20.5817 H   0  0  0  0  0  0
  -26.8082  -30.9085   21.9667 H   0  0  0  0  0  0
  -28.1039  -29.1724   21.1225 H   0  0  0  0  0  0
  -26.1084  -25.9673   19.0462 H   0  0  0  0  0  0
  -23.9879  -27.2596   19.0716 H   0  0  0  0  0  0
  -23.7063  -30.5796   19.3990 H   0  0  0  0  0  0
  -22.7303  -29.2238   19.8796 H   0  0  0  0  0  0
  -25.1268  -36.1969   25.0832 H   0  0  0  0  0  0
  -20.9945  -28.3191   24.1443 H   0  0  0  0  0  0
  -20.5617  -26.2254   23.3593 H   0  0  0  0  0  0
  -21.6606  -26.7415   22.1226 H   0  0  0  0  0  0
  -19.6892  -25.6290   21.1223 H   0  0  0  0  0  0
  -19.6683  -27.3178   20.6718 H   0  0  0  0  0  0
  -17.4190  -26.6682   21.3993 H   0  0  0  0  0  0
  -18.0296  -26.0043   22.8983 H   0  0  0  0  0  0
  -19.7923  -30.7234   24.2271 H   0  0  0  0  0  0
  -17.5010  -31.6259   24.5136 H   0  0  0  0  0  0
  -15.5335  -30.2968   23.7653 H   0  0  0  0  0  0
  -15.8655  -28.0808   22.7053 H   0  0  0  0  0  0
  -24.5948  -30.6997   25.7826 H   0  0  0  0  0  0
  -24.8970  -32.2815   26.4960 H   0  0  0  0  0  0
  -25.8174  -30.8830   27.0208 H   0  0  0  0  0  0
  -26.2807  -29.6788   24.1144 H   0  0  0  0  0  0
  -27.4124  -29.7257   25.4462 H   0  0  0  0  0  0
  -27.8617  -30.4338   23.9120 H   0  0  0  0  0  0
  -27.2686  -33.3579   26.2072 H   0  0  0  0  0  0
  -28.3878  -32.6849   25.0310 H   0  0  0  0  0  0
  -28.0720  -31.8394   26.5373 H   0  0  0  0  0  0
  -28.2578  -38.0127   24.7541 H   0  0  0  0  0  0
  -28.1101  -36.2656   24.6226 H   0  0  0  0  0  0
  -27.2317  -37.1386   25.8867 H   0  0  0  0  0  0
  -20.9264  -29.8769   21.6998 H   0  0  0  0  0  0
  -26.0172  -38.2869   24.1452 H   0  0  0  0  0  0
  -29.3257  -16.7175   23.5468 H   0  0  0  0  0  0
  -31.3875  -17.0000   19.7428 H   0  0  0  0  0  0
  -29.4129  -19.1469   23.7687 H   0  0  0  0  0  0
  -31.4863  -19.4220   19.9850 H   0  0  0  0  0  0
  -28.9090  -21.4603   23.0109 H   0  0  0  0  0  0
  -30.3886  -21.2134   23.9534 H   0  0  0  0  0  0
  -28.9339  -27.2254   22.4388 H   0  0  0  0  0  0
  -27.6677  -26.1121   22.8558 H   0  0  0  0  0  0
  -29.6355  -25.7795   24.2960 H   0  0  0  0  0  0
  -30.6913  -25.6751   22.9216 H   0  0  0  0  0  0
  -27.7932  -24.9684   20.7975 H   0  0  0  0  0  0
  -29.5156  -25.2100   20.6605 H   0  0  0  0  0  0
  -29.4699  -14.8331   22.1060 H   0  0  0  0  0  0
  -28.6213  -23.6209   23.6860 H   0  0  0  0  0  0
  1 25  1  0  0  0
  1 30  2  0  0  0
  1 82  1  0  0  0
  2  3  1  0  0  0
  2 25  1  0  0  0
  2 86  1  0  0  0
  2 87  1  0  0  0
  3  4  1  0  0  0
  3 88  1  0  0  0
  3 89  1  0  0  0
  4  5  1  0  0  0
  4 90  1  0  0  0
  4 91  1  0  0  0
  5  6  1  0  0  0
  5 26  1  0  0  0
  5 92  1  0  0  0
  6 25  1  0  0  0
  6 93  1  0  0  0
  6 94  1  0  0  0
  7  8  2  0  0  0
  7 26  1  0  0  0
  7 29  1  0  0  0
  8  9  1  0  0  0
  8 22  1  0  0  0
  9 10  1  0  0  0
  9 27  2  0  0  0
 10 11  2  0  0  0
 10 15  1  0  0  0
 11 12  1  0  0  0
 11 95  1  0  0  0
 12 13  2  0  0  0
 12 96  1  0  0  0
 13 14  1  0  0  0
 13 31  1  0  0  0
 14 15  2  0  0  0
 14 97  1  0  0  0
 15 98  1  0  0  0
 16 17  2  0  0  0
 16 21  1  0  0  0
 16 31  1  0  0  0
 17 18  1  0  0  0
 17 99  1  0  0  0
 18 19  2  0  0  0
 18100  1  0  0  0
 19 20  1  0  0  0
 19 24  1  0  0  0
 20 21  2  0  0  0
 20101  1  0  0  0
 21 23  1  0  0  0
 22 28  1  0  0  0
 22 32  2  0  0  0
 26 27  1  0  0  0
 28102  1  0  0  0
 28103  1  0  0  0
 29104  1  0  0  0
 29105  1  0  0  0
 33 34  1  0  0  0
 33 66  1  0  0  0
 33 70  2  0  0  0
 34 36  1  0  0  0
 34 59  1  0  0  0
 34106  1  0  0  0
 35 44  2  0  0  0
 35 45  1  0  0  0
 35 68  1  0  0  0
 36 56  1  0  0  0
 36107  1  0  0  0
 37 39  1  0  0  0
 37 47  1  0  0  0
 37 66  1  0  0  0
 37108  1  0  0  0
 38 43  2  0  0  0
 38 46  1  0  0  0
 38 47  1  0  0  0
 39 64  1  0  0  0
 39 67  2  0  0  0
 40 52  1  0  0  0
 40 53  2  0  0  0
 40 58  1  0  0  0
 41109  1  0  0  0
 41110  1  0  0  0
 41111  1  0  0  0
 41 48  1  0  0  0
 42 43  1  0  0  0
 42 66  1  0  0  0
 42112  1  0  0  0
 42113  1  0  0  0
 43 44  1  0  0  0
 44114  1  0  0  0
 45 46  2  0  0  0
 45115  1  0  0  0
 46116  1  0  0  0
 47117  1  0  0  0
 47118  1  0  0  0
 48 56  1  0  0  0
 48 65  1  0  0  0
 48119  1  0  0  0
 49 50  1  0  0  0
 49 53  1  0  0  0
 49 64  1  0  0  0
 49120  1  0  0  0
 50 51  1  0  0  0
 50121  1  0  0  0
 50122  1  0  0  0
 51 52  1  0  0  0
 51123  1  0  0  0
 51124  1  0  0  0
 52125  1  0  0  0
 52126  1  0  0  0
 53 54  1  0  0  0
 54 55  2  0  0  0
 54127  1  0  0  0
 55 57  1  0  0  0
 55128  1  0  0  0
 56 69  2  0  0  0
 57 58  2  0  0  0
 57129  1  0  0  0
 58130  1  0  0  0
 59 60  1  0  0  0
 59 61  1  0  0  0
 59 62  1  0  0  0
 60131  1  0  0  0
 60132  1  0  0  0
 60133  1  0  0  0
 61134  1  0  0  0
 61135  1  0  0  0
 61136  1  0  0  0
 62137  1  0  0  0
 62138  1  0  0  0
 62139  1  0  0  0
 63 65  1  0  0  0
 63140  1  0  0  0
 63141  1  0  0  0
 63142  1  0  0  0
 64143  1  0  0  0
 65144  1  0  0  0
 68 81  1  0  0  0
 71 73  2  0  0  0
 71 75  1  0  0  0
 71145  1  0  0  0
 72 74  1  0  0  0
 72 75  2  0  0  0
 72146  1  0  0  0
 73 76  1  0  0  0
 73147  1  0  0  0
 74 76  2  0  0  0
 74148  1  0  0  0
 75 82  1  0  0  0
 76 85  1  0  0  0
 77 78  1  0  0  0
 77 83  1  0  0  0
 77 84  2  0  0  0
 78 85  1  0  0  0
 78149  1  0  0  0
 78150  1  0  0  0
 79 80  1  0  0  0
 79 81  1  0  0  0
 79151  1  0  0  0
 79152  1  0  0  0
 80 83  1  0  0  0
 80153  1  0  0  0
 80154  1  0  0  0
 81155  1  0  0  0
 81156  1  0  0  0
 82157  1  0  0  0
 83158  1  0  0  0
M  ISO  4   1 100  68 101  81 101  82 100
M  END
> <chiral flag>
0

> <version>
0

> <s_m_source_file>
/data/baiqing/PycharmProjects/Reinvent-master-3.2/result/LINK_invent/BTK/process_docking_weight1_custom_sum_contain_oxygen_bond_distance_aromatic_linkinvent_7_9_3/rearranged_h_0003.sdf

> <i_m_source_file_index>
7

> <r_mmod_Potential_Energy-OPLS-2005>
-97.9366073608398

> <r_mmod_Stretch_Energy-OPLS-2005>
33.1833610534668

> <r_mmod_Bend_Energy-OPLS-2005>
101.711311340332

> <r_mmod_Torsional_Energy-OPLS-2005>
238.483047485352

> <r_mmod_Improper_Torsional_Energy-OPLS-2005>
2.51409077644348

> <r_mmod_Van_der_Waal_Energy-OPLS-2005>
159.676986694336

> <r_mmod_Electrostatic_Energy-OPLS-2005>
-386.873962402344

> <r_mmod_Solvation_Energy-OPLS-2005>
-253.307403564453

> <b_mmod_Minimization_Converged-OPLS-2005>
0

> <r_mmod_RMS_Derivative-OPLS-2005>
1.57916808128357

$$$$
7
                    3D
 Structure written by MMmdl.
164172  0  0  1  0            999 V2000
  -30.7762  -14.3575   20.6906 C   0  0  0  0  0  0
  -30.4145  -12.2871   19.3977 C   0  0  0  0  0  0
  -29.4839  -12.5282   18.1949 C   0  0  0  0  0  0
  -28.0086  -12.3866   18.6121 C   0  0  0  0  0  0
  -27.6678  -13.2036   19.8859 C   0  0  2  0  0  0
  -28.7071  -12.9410   20.9984 C   0  0  0  0  0  0
  -25.2604  -13.8155   20.5683 C   0  0  0  0  0  0
  -24.1849  -13.0442   20.9185 C   0  0  0  0  0  0
  -24.6389  -11.6904   20.8734 C   0  0  0  0  0  0
  -23.9047  -10.4293   21.0399 C   0  0  0  0  0  0
  -24.3600   -9.4207   21.9177 C   0  0  0  0  0  0
  -23.6279   -8.2237   22.0751 C   0  0  0  0  0  0
  -22.4264   -8.0276   21.3542 C   0  0  0  0  0  0
  -21.9897   -9.0244   20.4641 C   0  0  0  0  0  0
  -22.7217  -10.2127   20.3048 C   0  0  0  0  0  0
  -21.6850   -6.0728   22.5277 C   0  0  0  0  0  0
  -21.4013   -6.5633   23.8212 C   0  0  0  0  0  0
  -21.3665   -5.6788   24.9176 C   0  0  0  0  0  0
  -21.6046   -4.3049   24.7229 C   0  0  0  0  0  0
  -21.8818   -3.8137   23.4351 C   0  0  0  0  0  0
  -21.9192   -4.6953   22.3406 C   0  0  0  0  0  0
  -22.7865  -13.5236   21.1847 C   0  0  0  0  0  0
  -22.1658   -4.2139   21.0981 F   0  0  0  0  0  0
  -21.5636   -3.4537   25.7744 F   0  0  0  0  0  0
  -30.0491  -13.2313   20.4640 N   0  0  0  0  0  0
  -26.3060  -12.9325   20.3421 N   0  0  0  0  0  0
  -25.9320  -11.6485   20.5768 N   0  0  0  0  0  0
  -22.0497  -12.8228   22.0394 N   0  0  0  0  0  0
  -25.4293  -15.1873   20.4043 N   0  0  0  0  0  0
  -31.7914  -14.6457   20.0469 O   0  0  0  0  0  0
  -21.6639   -6.8868   21.4238 O   0  0  0  0  0  0
  -22.3557  -14.5552   20.6708 O   0  0  0  0  0  0
  -24.6093  -31.8712   23.2124 C   0  0  0  0  0  0
  -25.8988  -32.4847   23.8412 C   0  0  1  0  0  0
  -27.2370  -27.4598   20.0841 C   0  0  0  0  0  0
  -25.5863  -33.8648   24.2357 N   0  0  0  0  0  0
  -23.3953  -30.4939   21.5542 C   0  0  2  0  0  0
  -24.8386  -28.9594   20.1222 C   0  0  0  0  0  0
  -22.7385  -29.4658   22.5009 C   0  0  0  0  0  0
  -18.0269  -28.1356   22.8485 C   0  0  0  0  0  0
  -24.1487  -36.7324   23.2644 C   0  0  0  0  0  0
  -25.9205  -30.8432   21.3599 C   0  0  0  0  0  0
  -25.9975  -29.4765   20.7135 C   0  0  0  0  0  0
  -27.1963  -28.7325   20.6941 C   0  0  0  0  0  0
  -26.0593  -26.9548   19.4841 C   0  0  0  0  0  0
  -24.8623  -27.6935   19.5120 C   0  0  0  0  0  0
  -23.5996  -29.8241   20.1702 C   0  0  0  0  0  0
  -25.4103  -36.3132   24.0357 C   0  0  1  0  0  0
  -20.5860  -28.3622   23.1330 C   0  0  2  0  0  0
  -20.6753  -26.9358   22.5410 C   0  0  0  0  0  0
  -19.5734  -26.6370   21.5201 C   0  0  0  0  0  0
  -18.1919  -26.7906   22.1620 C   0  0  0  0  0  0
  -19.1521  -28.8805   23.2910 C   0  0  0  0  0  0
  -18.9455  -30.1425   23.8894 C   0  0  0  0  0  0
  -17.6458  -30.6560   24.0557 C   0  0  0  0  0  0
  -25.9022  -34.9497   23.5155 C   0  0  0  0  0  0
  -16.5344  -29.9066   23.6319 C   0  0  0  0  0  0
  -16.7264  -28.6494   23.0321 C   0  0  0  0  0  0
  -26.4427  -31.6610   25.0715 C   0  0  0  0  0  0
  -25.3710  -31.3694   26.1487 C   0  0  0  0  0  0
  -27.0241  -30.3071   24.6031 C   0  0  0  0  0  0
  -27.6014  -32.4316   25.7471 C   0  0  0  0  0  0
  -27.5585  -37.1824   24.8471 C   0  0  0  0  0  0
  -21.4121  -29.3013   22.3753 N   0  0  0  0  0  0
  -26.4295  -37.3809   23.9412 N   0  0  0  0  0  0
  -24.6598  -31.0838   22.1010 N   0  0  0  0  0  0
  -23.4188  -28.8180   23.3013 O   0  0  0  0  0  0
  -28.4479  -26.8047   20.0419 O   0  0  0  0  0  0
  -26.5586  -34.8944   22.4720 O   0  0  0  0  0  0
  -23.5298  -32.1452   23.7540 O   0  0  0  0  0  0
  -25.4182  -21.6427   24.2281 C   0  0  0  0  0  0
  -25.5324  -20.2561   24.0095 C   0  0  0  0  0  0
  -26.4851  -22.4979   23.8940 C   0  0  0  0  0  0
  -27.7830  -20.5772   23.1303 C   0  0  0  0  0  0
  -26.7124  -19.7108   23.4604 C   0  0  0  0  0  0
  -27.6711  -21.9688   23.3455 C   0  0  0  0  0  0
  -28.4728  -16.5557   22.4611 C   0  0  0  0  0  0
  -28.8410  -24.8736   21.4568 C   0  0  0  0  0  0
  -31.3935  -15.2452   22.8307 C   0  0  0  0  0  0
  -26.7936  -18.1991   23.2623 C   0  0  0  0  0  0
  -28.8109  -22.9013   22.9761 C   0  0  0  0  0  0
  -29.6183  -16.3122   21.4721 C   0  0  0  0  0  0
  -28.4933  -25.3744   20.0493 C   0  0  0  0  0  0
  -27.8848  -17.7554   22.4003 N   0  0  0  0  0  0
  -28.5367  -23.5994   21.7270 N   0  0  0  0  0  0
  -30.4110  -15.1021   21.7506 N   0  0  0  0  0  0
  -28.1269  -15.6841   23.2617 O   0  0  0  0  0  0
  -29.3899  -25.6174   22.2759 O   0  0  0  0  0  0
  -31.4587  -12.3813   19.0934 H   0  0  0  0  0  0
  -30.3066  -11.2640   19.7607 H   0  0  0  0  0  0
  -29.7151  -11.8248   17.3940 H   0  0  0  0  0  0
  -29.6592  -13.5254   17.7861 H   0  0  0  0  0  0
  -27.8132  -11.3275   18.7885 H   0  0  0  0  0  0
  -27.3558  -12.6811   17.7900 H   0  0  0  0  0  0
  -27.7269  -14.2590   19.6194 H   0  0  0  0  0  0
  -28.6672  -11.8974   21.3136 H   0  0  0  0  0  0
  -28.4655  -13.5170   21.8902 H   0  0  0  0  0  0
  -25.2745   -9.5698   22.4752 H   0  0  0  0  0  0
  -23.9995   -7.4641   22.7479 H   0  0  0  0  0  0
  -21.0825   -8.8748   19.8957 H   0  0  0  0  0  0
  -22.3658  -10.9660   19.6157 H   0  0  0  0  0  0
  -21.1996   -7.6141   23.9711 H   0  0  0  0  0  0
  -21.1495   -6.0521   25.9082 H   0  0  0  0  0  0
  -22.0593   -2.7599   23.2854 H   0  0  0  0  0  0
  -22.4089  -11.9868   22.4765 H   0  0  0  0  0  0
  -21.1120  -13.1264   22.2606 H   0  0  0  0  0  0
  -24.6577  -15.8381   20.5035 H   0  0  0  0  0  0
  -26.2757  -15.6243   20.0654 H   0  0  0  0  0  0
  -26.7044  -32.5575   23.1180 H   0  0  0  0  0  0
  -24.9999  -33.9809   25.0489 H   0  0  0  0  0  0
  -22.6833  -31.3102   21.4159 H   0  0  0  0  0  0
  -23.3749  -35.9654   23.3318 H   0  0  0  0  0  0
  -24.3572  -36.8923   22.2054 H   0  0  0  0  0  0
  -23.7242  -37.6542   23.6628 H   0  0  0  0  0  0
  -26.0226  -31.6032   20.5835 H   0  0  0  0  0  0
  -26.8153  -30.9046   21.9681 H   0  0  0  0  0  0
  -28.0951  -29.1329   21.1420 H   0  0  0  0  0  0
  -26.0414  -26.0124   18.9591 H   0  0  0  0  0  0
  -23.9723  -27.2913   19.0465 H   0  0  0  0  0  0
  -23.7082  -30.5977   19.4099 H   0  0  0  0  0  0
  -22.7241  -29.2437   19.8721 H   0  0  0  0  0  0
  -25.1280  -36.2017   25.0851 H   0  0  0  0  0  0
  -20.9956  -28.3166   24.1453 H   0  0  0  0  0  0
  -20.5640  -26.2218   23.3592 H   0  0  0  0  0  0
  -21.6629  -26.7392   22.1213 H   0  0  0  0  0  0
  -19.6887  -25.6295   21.1204 H   0  0  0  0  0  0
  -19.6680  -27.3205   20.6751 H   0  0  0  0  0  0
  -17.4188  -26.6646   21.4022 H   0  0  0  0  0  0
  -18.0311  -26.0046   22.9018 H   0  0  0  0  0  0
  -19.7931  -30.7238   24.2256 H   0  0  0  0  0  0
  -17.5014  -31.6244   24.5154 H   0  0  0  0  0  0
  -15.5343  -30.2964   23.7649 H   0  0  0  0  0  0
  -15.8669  -28.0828   22.7000 H   0  0  0  0  0  0
  -24.5884  -30.7024   25.7852 H   0  0  0  0  0  0
  -24.8872  -32.2831   26.4954 H   0  0  0  0  0  0
  -25.8089  -30.8876   27.0242 H   0  0  0  0  0  0
  -26.2764  -29.6874   24.1069 H   0  0  0  0  0  0
  -27.4038  -29.7265   25.4444 H   0  0  0  0  0  0
  -27.8580  -30.4435   23.9144 H   0  0  0  0  0  0
  -27.2642  -33.3621   26.2057 H   0  0  0  0  0  0
  -28.3802  -32.6884   25.0277 H   0  0  0  0  0  0
  -28.0680  -31.8429   26.5381 H   0  0  0  0  0  0
  -28.2625  -38.0108   24.7514 H   0  0  0  0  0  0
  -28.1071  -36.2642   24.6296 H   0  0  0  0  0  0
  -27.2295  -37.1482   25.8878 H   0  0  0  0  0  0
  -20.9253  -29.8780   21.7044 H   0  0  0  0  0  0
  -26.0202  -38.2901   24.1399 H   0  0  0  0  0  0
  -24.5104  -22.0515   24.6537 H   0  0  0  0  0  0
  -24.7064  -19.6058   24.2702 H   0  0  0  0  0  0
  -26.3944  -23.5619   24.0646 H   0  0  0  0  0  0
  -28.7002  -20.1852   22.7137 H   0  0  0  0  0  0
  -30.9361  -15.6501   23.7330 H   0  0  0  0  0  0
  -32.2039  -15.9139   22.5360 H   0  0  0  0  0  0
  -31.8331  -14.2818   23.0969 H   0  0  0  0  0  0
  -25.8535  -17.8432   22.8374 H   0  0  0  0  0  0
  -26.8820  -17.7425   24.2502 H   0  0  0  0  0  0
  -29.7411  -22.3411   22.8684 H   0  0  0  0  0  0
  -28.9673  -23.6026   23.7979 H   0  0  0  0  0  0
  -30.2800  -17.1790   21.4757 H   0  0  0  0  0  0
  -29.1769  -16.2735   20.4725 H   0  0  0  0  0  0
  -29.2937  -25.0632   19.3769 H   0  0  0  0  0  0
  -27.5954  -24.8729   19.6942 H   0  0  0  0  0  0
  -28.2070  -18.4090   21.7008 H   0  0  0  0  0  0
  -28.0871  -23.0611   20.9983 H   0  0  0  0  0  0
  1 25  1  0  0  0
  1 30  2  0  0  0
  1 86  1  0  0  0
  2  3  1  0  0  0
  2 25  1  0  0  0
  2 89  1  0  0  0
  2 90  1  0  0  0
  3  4  1  0  0  0
  3 91  1  0  0  0
  3 92  1  0  0  0
  4  5  1  0  0  0
  4 93  1  0  0  0
  4 94  1  0  0  0
  5  6  1  0  0  0
  5 26  1  0  0  0
  5 95  1  0  0  0
  6 25  1  0  0  0
  6 96  1  0  0  0
  6 97  1  0  0  0
  7  8  2  0  0  0
  7 26  1  0  0  0
  7 29  1  0  0  0
  8  9  1  0  0  0
  8 22  1  0  0  0
  9 10  1  0  0  0
  9 27  2  0  0  0
 10 11  2  0  0  0
 10 15  1  0  0  0
 11 12  1  0  0  0
 11 98  1  0  0  0
 12 13  2  0  0  0
 12 99  1  0  0  0
 13 14  1  0  0  0
 13 31  1  0  0  0
 14 15  2  0  0  0
 14100  1  0  0  0
 15101  1  0  0  0
 16 17  2  0  0  0
 16 21  1  0  0  0
 16 31  1  0  0  0
 17 18  1  0  0  0
 17102  1  0  0  0
 18 19  2  0  0  0
 18103  1  0  0  0
 19 20  1  0  0  0
 19 24  1  0  0  0
 20 21  2  0  0  0
 20104  1  0  0  0
 21 23  1  0  0  0
 22 28  1  0  0  0
 22 32  2  0  0  0
 26 27  1  0  0  0
 28105  1  0  0  0
 28106  1  0  0  0
 29107  1  0  0  0
 29108  1  0  0  0
 33 34  1  0  0  0
 33 66  1  0  0  0
 33 70  2  0  0  0
 34 36  1  0  0  0
 34 59  1  0  0  0
 34109  1  0  0  0
 35 44  2  0  0  0
 35 45  1  0  0  0
 35 68  1  0  0  0
 36 56  1  0  0  0
 36110  1  0  0  0
 37 39  1  0  0  0
 37 47  1  0  0  0
 37 66  1  0  0  0
 37111  1  0  0  0
 38 43  2  0  0  0
 38 46  1  0  0  0
 38 47  1  0  0  0
 39 64  1  0  0  0
 39 67  2  0  0  0
 40 52  1  0  0  0
 40 53  2  0  0  0
 40 58  1  0  0  0
 41112  1  0  0  0
 41113  1  0  0  0
 41114  1  0  0  0
 41 48  1  0  0  0
 42 43  1  0  0  0
 42 66  1  0  0  0
 42115  1  0  0  0
 42116  1  0  0  0
 43 44  1  0  0  0
 44117  1  0  0  0
 45 46  2  0  0  0
 45118  1  0  0  0
 46119  1  0  0  0
 47120  1  0  0  0
 47121  1  0  0  0
 48 56  1  0  0  0
 48 65  1  0  0  0
 48122  1  0  0  0
 49 50  1  0  0  0
 49 53  1  0  0  0
 49 64  1  0  0  0
 49123  1  0  0  0
 50 51  1  0  0  0
 50124  1  0  0  0
 50125  1  0  0  0
 51 52  1  0  0  0
 51126  1  0  0  0
 51127  1  0  0  0
 52128  1  0  0  0
 52129  1  0  0  0
 53 54  1  0  0  0
 54 55  2  0  0  0
 54130  1  0  0  0
 55 57  1  0  0  0
 55131  1  0  0  0
 56 69  2  0  0  0
 57 58  2  0  0  0
 57132  1  0  0  0
 58133  1  0  0  0
 59 60  1  0  0  0
 59 61  1  0  0  0
 59 62  1  0  0  0
 60134  1  0  0  0
 60135  1  0  0  0
 60136  1  0  0  0
 61137  1  0  0  0
 61138  1  0  0  0
 61139  1  0  0  0
 62140  1  0  0  0
 62141  1  0  0  0
 62142  1  0  0  0
 63 65  1  0  0  0
 63143  1  0  0  0
 63144  1  0  0  0
 63145  1  0  0  0
 64146  1  0  0  0
 65147  1  0  0  0
 68 83  1  0  0  0
 71 72  2  0  0  0
 71 73  1  0  0  0
 71148  1  0  0  0
 72 75  1  0  0  0
 72149  1  0  0  0
 73 76  2  0  0  0
 73150  1  0  0  0
 74 75  2  0  0  0
 74 76  1  0  0  0
 74151  1  0  0  0
 75 80  1  0  0  0
 76 81  1  0  0  0
 77 82  1  0  0  0
 77 84  1  0  0  0
 77 87  2  0  0  0
 78 83  1  0  0  0
 78 85  1  0  0  0
 78 88  2  0  0  0
 79 86  1  0  0  0
 79152  1  0  0  0
 79153  1  0  0  0
 79154  1  0  0  0
 80 84  1  0  0  0
 80155  1  0  0  0
 80156  1  0  0  0
 81 85  1  0  0  0
 81157  1  0  0  0
 81158  1  0  0  0
 82 86  1  0  0  0
 82159  1  0  0  0
 82160  1  0  0  0
 83161  1  0  0  0
 83162  1  0  0  0
 84163  1  0  0  0
 85164  1  0  0  0
M  ISO  4   1 100  68 101  83 101  86 100
M  END
> <chiral flag>
0

> <version>
0

> <s_m_source_file>
/data/baiqing/PycharmProjects/Reinvent-master-3.2/result/LINK_invent/BTK/process_docking_weight1_custom_sum_contain_oxygen_bond_distance_aromatic_linkinvent_7_9_3/rearranged_h_0003.sdf

> <i_m_source_file_index>
8

> <r_mmod_Potential_Energy-OPLS-2005>
-163.290618896484

> <r_mmod_Stretch_Energy-OPLS-2005>
33.5977363586426

> <r_mmod_Bend_Energy-OPLS-2005>
101.096527099609

> <r_mmod_Torsional_Energy-OPLS-2005>
265.418273925781

> <r_mmod_Improper_Torsional_Energy-OPLS-2005>
6.14159154891968

> <r_mmod_Van_der_Waal_Energy-OPLS-2005>
151.049774169922

> <r_mmod_Electrostatic_Energy-OPLS-2005>
-468.89697265625

> <r_mmod_Solvation_Energy-OPLS-2005>
-259.137603759766

> <b_mmod_Minimization_Converged-OPLS-2005>
0

> <r_mmod_RMS_Derivative-OPLS-2005>
2.0152792930603

$$$$
8
                    3D
 Structure written by MMmdl.
165172  0  0  1  0            999 V2000
  -30.7747  -14.3376   20.7295 C   0  0  0  0  0  0
  -30.4219  -12.2904   19.3902 C   0  0  0  0  0  0
  -29.4866  -12.5231   18.1884 C   0  0  0  0  0  0
  -28.0123  -12.3637   18.6036 C   0  0  0  0  0  0
  -27.6655  -13.1910   19.8642 C   0  0  2  0  0  0
  -28.6963  -12.9274   20.9767 C   0  0  0  0  0  0
  -25.2642  -13.8128   20.5651 C   0  0  0  0  0  0
  -24.1866  -13.0432   20.9133 C   0  0  0  0  0  0
  -24.6395  -11.6891   20.8690 C   0  0  0  0  0  0
  -23.9067  -10.4280   21.0381 C   0  0  0  0  0  0
  -24.3617   -9.4193   21.9167 C   0  0  0  0  0  0
  -23.6273   -8.2247   22.0745 C   0  0  0  0  0  0
  -22.4251   -8.0296   21.3528 C   0  0  0  0  0  0
  -21.9879   -9.0289   20.4655 C   0  0  0  0  0  0
  -22.7221  -10.2155   20.3063 C   0  0  0  0  0  0
  -21.6843   -6.0737   22.5268 C   0  0  0  0  0  0
  -21.4035   -6.5647   23.8204 C   0  0  0  0  0  0
  -21.3678   -5.6798   24.9172 C   0  0  0  0  0  0
  -21.6034   -4.3055   24.7215 C   0  0  0  0  0  0
  -21.8799   -3.8143   23.4333 C   0  0  0  0  0  0
  -21.9178   -4.6963   22.3390 C   0  0  0  0  0  0
  -22.7879  -13.5239   21.1784 C   0  0  0  0  0  0
  -22.1648   -4.2152   21.0971 F   0  0  0  0  0  0
  -21.5618   -3.4547   25.7730 F   0  0  0  0  0  0
  -30.0500  -13.2164   20.4701 N   0  0  0  0  0  0
  -26.3042  -12.9263   20.3280 N   0  0  0  0  0  0
  -25.9297  -11.6440   20.5666 N   0  0  0  0  0  0
  -22.0463  -12.8228   22.0281 N   0  0  0  0  0  0
  -25.4418  -15.1842   20.4085 N   0  0  0  0  0  0
  -31.7368  -14.6950   20.0452 O   0  0  0  0  0  0
  -21.6620   -6.8891   21.4228 O   0  0  0  0  0  0
  -22.3578  -14.5553   20.6625 O   0  0  0  0  0  0
  -24.6121  -31.8705   23.2103 C   0  0  0  0  0  0
  -25.9028  -32.4834   23.8392 C   0  0  1  0  0  0
  -27.2382  -27.4679   20.0710 C   0  0  0  0  0  0
  -25.5897  -33.8634   24.2329 N   0  0  0  0  0  0
  -23.3971  -30.4976   21.5513 C   0  0  2  0  0  0
  -24.8385  -28.9647   20.1148 C   0  0  0  0  0  0
  -22.7390  -29.4693   22.5000 C   0  0  0  0  0  0
  -18.0278  -28.1392   22.8497 C   0  0  0  0  0  0
  -24.1483  -36.7327   23.2640 C   0  0  0  0  0  0
  -25.9224  -30.8452   21.3550 C   0  0  0  0  0  0
  -25.9984  -29.4814   20.7040 C   0  0  0  0  0  0
  -27.1981  -28.7415   20.6789 C   0  0  0  0  0  0
  -26.0532  -26.9528   19.4910 C   0  0  0  0  0  0
  -24.8596  -27.6967   19.5104 C   0  0  0  0  0  0
  -23.6016  -29.8317   20.1646 C   0  0  0  0  0  0
  -25.4108  -36.3131   24.0341 C   0  0  1  0  0  0
  -20.5866  -28.3667   23.1329 C   0  0  2  0  0  0
  -20.6772  -26.9410   22.5415 C   0  0  0  0  0  0
  -19.5744  -26.6396   21.5214 C   0  0  0  0  0  0
  -18.1923  -26.7947   22.1628 C   0  0  0  0  0  0
  -19.1525  -28.8852   23.2911 C   0  0  0  0  0  0
  -18.9452  -30.1466   23.8916 C   0  0  0  0  0  0
  -17.6449  -30.6592   24.0581 C   0  0  0  0  0  0
  -25.9035  -34.9492   23.5130 C   0  0  0  0  0  0
  -16.5345  -29.9097   23.6324 C   0  0  0  0  0  0
  -16.7266  -28.6520   23.0333 C   0  0  0  0  0  0
  -26.4462  -31.6606   25.0708 C   0  0  0  0  0  0
  -25.3734  -31.3682   26.1454 C   0  0  0  0  0  0
  -27.0275  -30.3067   24.6029 C   0  0  0  0  0  0
  -27.6059  -32.4300   25.7468 C   0  0  0  0  0  0
  -27.5585  -37.1826   24.8471 C   0  0  0  0  0  0
  -21.4126  -29.3037   22.3739 N   0  0  0  0  0  0
  -26.4297  -37.3813   23.9413 N   0  0  0  0  0  0
  -24.6629  -31.0849   22.0971 N   0  0  0  0  0  0
  -23.4188  -28.8213   23.3008 O   0  0  0  0  0  0
  -28.4459  -26.8022   20.0541 O   0  0  0  0  0  0
  -26.5597  -34.8949   22.4691 O   0  0  0  0  0  0
  -23.5326  -32.1439   23.7520 O   0  0  0  0  0  0
  -27.1157  -20.3367   23.6086 C   0  0  0  0  0  0
  -27.3928  -20.9710   22.2417 C   0  0  0  0  0  0
  -27.4594  -22.5071   22.3024 C   0  0  0  0  0  0
  -27.9200  -23.1540   20.9888 C   0  0  0  0  0  0
  -28.8915  -16.5023   24.0234 C   0  0  0  0  0  0
  -27.5448  -16.7721   24.7194 C   0  0  0  0  0  0
  -29.2476  -15.0067   24.0160 C   0  0  0  0  0  0
  -27.9516  -24.6818   21.1137 C   0  0  0  0  0  0
  -27.2460  -18.2632   24.9492 C   0  0  0  0  0  0
  -30.4798  -14.6347   23.1620 C   0  0  0  0  0  0
  -28.4659  -25.3913   19.8526 C   0  0  0  0  0  0
  -27.3276  -19.0232   23.7087 N   0  0  0  0  0  0
  -30.3796  -15.0851   21.7705 N   0  0  0  0  0  0
  -26.7362  -21.0184   24.5645 O   0  0  0  0  0  0
  -31.4644  -12.4054   19.0876 H   0  0  0  0  0  0
  -30.3336  -11.2614   19.7422 H   0  0  0  0  0  0
  -29.7252  -11.8214   17.3882 H   0  0  0  0  0  0
  -29.6532  -13.5219   17.7807 H   0  0  0  0  0  0
  -27.8342  -11.3056   18.7985 H   0  0  0  0  0  0
  -27.3516  -12.6334   17.7797 H   0  0  0  0  0  0
  -27.7275  -14.2435   19.5906 H   0  0  0  0  0  0
  -28.6471  -11.8911   21.3119 H   0  0  0  0  0  0
  -28.4164  -13.5213   21.8349 H   0  0  0  0  0  0
  -25.2758   -9.5652   22.4760 H   0  0  0  0  0  0
  -23.9938   -7.4664   22.7522 H   0  0  0  0  0  0
  -21.0763   -8.8875   19.9001 H   0  0  0  0  0  0
  -22.3657  -10.9715   19.6205 H   0  0  0  0  0  0
  -21.2050   -7.6161   23.9710 H   0  0  0  0  0  0
  -21.1518   -6.0525   25.9084 H   0  0  0  0  0  0
  -22.0543   -2.7604   23.2828 H   0  0  0  0  0  0
  -22.4005  -11.9871   22.4700 H   0  0  0  0  0  0
  -21.1042  -13.1251   22.2332 H   0  0  0  0  0  0
  -24.6886  -15.8516   20.5326 H   0  0  0  0  0  0
  -26.3157  -15.6142   20.1315 H   0  0  0  0  0  0
  -26.7105  -32.5548   23.1166 H   0  0  0  0  0  0
  -25.0073  -33.9803   25.0494 H   0  0  0  0  0  0
  -22.6841  -31.3132   21.4156 H   0  0  0  0  0  0
  -23.3748  -35.9659   23.3315 H   0  0  0  0  0  0
  -24.3580  -36.8916   22.2053 H   0  0  0  0  0  0
  -23.7234  -37.6539   23.6633 H   0  0  0  0  0  0
  -26.0299  -31.6084   20.5835 H   0  0  0  0  0  0
  -26.8135  -30.8990   21.9677 H   0  0  0  0  0  0
  -28.0968  -29.1487   21.1215 H   0  0  0  0  0  0
  -26.0229  -25.9881   19.0086 H   0  0  0  0  0  0
  -23.9664  -27.2906   19.0561 H   0  0  0  0  0  0
  -23.7116  -30.6084   19.4060 H   0  0  0  0  0  0
  -22.7227  -29.2563   19.8670 H   0  0  0  0  0  0
  -25.1286  -36.2006   25.0836 H   0  0  0  0  0  0
  -20.9970  -28.3226   24.1442 H   0  0  0  0  0  0
  -20.5687  -26.2274   23.3594 H   0  0  0  0  0  0
  -21.6644  -26.7459   22.1199 H   0  0  0  0  0  0
  -19.6893  -25.6304   21.1237 H   0  0  0  0  0  0
  -19.6692  -27.3223   20.6753 H   0  0  0  0  0  0
  -17.4200  -26.6711   21.4019 H   0  0  0  0  0  0
  -18.0313  -26.0087   22.9020 H   0  0  0  0  0  0
  -19.7920  -30.7287   24.2283 H   0  0  0  0  0  0
  -17.4998  -31.6270   24.5182 H   0  0  0  0  0  0
  -15.5350  -30.3001   23.7637 H   0  0  0  0  0  0
  -15.8672  -28.0854   22.7016 H   0  0  0  0  0  0
  -24.5936  -30.6996   25.7788 H   0  0  0  0  0  0
  -24.8889  -32.2817   26.4908 H   0  0  0  0  0  0
  -25.8102  -30.8857   27.0204 H   0  0  0  0  0  0
  -26.2785  -29.6850   24.1107 H   0  0  0  0  0  0
  -27.4104  -29.7280   25.4442 H   0  0  0  0  0  0
  -27.8594  -30.4418   23.9115 H   0  0  0  0  0  0
  -27.2710  -33.3602   26.2071 H   0  0  0  0  0  0
  -28.3865  -32.6844   25.0285 H   0  0  0  0  0  0
  -28.0729  -31.8393   26.5358 H   0  0  0  0  0  0
  -28.2626  -38.0106   24.7521 H   0  0  0  0  0  0
  -28.1057  -36.2643   24.6291 H   0  0  0  0  0  0
  -27.2303  -37.1476   25.8874 H   0  0  0  0  0  0
  -20.9275  -29.8775   21.6987 H   0  0  0  0  0  0
  -26.0189  -38.2895   24.1401 H   0  0  0  0  0  0
  -26.6203  -20.6524   21.5402 H   0  0  0  0  0  0
  -28.3406  -20.5811   21.8663 H   0  0  0  0  0  0
  -28.1410  -22.8080   23.1015 H   0  0  0  0  0  0
  -26.4771  -22.8984   22.5724 H   0  0  0  0  0  0
  -27.2497  -22.8685   20.1769 H   0  0  0  0  0  0
  -28.9108  -22.7853   20.7190 H   0  0  0  0  0  0
  -29.6837  -17.0628   24.5210 H   0  0  0  0  0  0
  -28.8435  -16.8762   23.0011 H   0  0  0  0  0  0
  -27.5268  -16.2654   25.6850 H   0  0  0  0  0  0
  -26.7380  -16.3257   24.1345 H   0  0  0  0  0  0
  -28.3748  -14.4372   23.7028 H   0  0  0  0  0  0
  -29.4307  -14.6866   25.0426 H   0  0  0  0  0  0
  -28.5865  -24.9659   21.9544 H   0  0  0  0  0  0
  -26.9501  -25.0337   21.3613 H   0  0  0  0  0  0
  -27.9552  -18.6776   25.6670 H   0  0  0  0  0  0
  -26.2524  -18.3819   25.3868 H   0  0  0  0  0  0
  -30.6463  -13.5563   23.2105 H   0  0  0  0  0  0
  -31.3680  -15.0939   23.5969 H   0  0  0  0  0  0
  -27.9298  -25.0848   18.9547 H   0  0  0  0  0  0
  -29.5046  -25.1038   19.6822 H   0  0  0  0  0  0
  -27.6070  -18.5251   22.8743 H   0  0  0  0  0  0
  -30.6886  -16.0404   21.6689 H   0  0  0  0  0  0
  1 25  1  0  0  0
  1 30  2  0  0  0
  1 83  1  0  0  0
  2  3  1  0  0  0
  2 25  1  0  0  0
  2 85  1  0  0  0
  2 86  1  0  0  0
  3  4  1  0  0  0
  3 87  1  0  0  0
  3 88  1  0  0  0
  4  5  1  0  0  0
  4 89  1  0  0  0
  4 90  1  0  0  0
  5  6  1  0  0  0
  5 26  1  0  0  0
  5 91  1  0  0  0
  6 25  1  0  0  0
  6 92  1  0  0  0
  6 93  1  0  0  0
  7  8  2  0  0  0
  7 26  1  0  0  0
  7 29  1  0  0  0
  8  9  1  0  0  0
  8 22  1  0  0  0
  9 10  1  0  0  0
  9 27  2  0  0  0
 10 11  2  0  0  0
 10 15  1  0  0  0
 11 12  1  0  0  0
 11 94  1  0  0  0
 12 13  2  0  0  0
 12 95  1  0  0  0
 13 14  1  0  0  0
 13 31  1  0  0  0
 14 15  2  0  0  0
 14 96  1  0  0  0
 15 97  1  0  0  0
 16 17  2  0  0  0
 16 21  1  0  0  0
 16 31  1  0  0  0
 17 18  1  0  0  0
 17 98  1  0  0  0
 18 19  2  0  0  0
 18 99  1  0  0  0
 19 20  1  0  0  0
 19 24  1  0  0  0
 20 21  2  0  0  0
 20100  1  0  0  0
 21 23  1  0  0  0
 22 28  1  0  0  0
 22 32  2  0  0  0
 26 27  1  0  0  0
 28101  1  0  0  0
 28102  1  0  0  0
 29103  1  0  0  0
 29104  1  0  0  0
 33 34  1  0  0  0
 33 66  1  0  0  0
 33 70  2  0  0  0
 34 36  1  0  0  0
 34 59  1  0  0  0
 34105  1  0  0  0
 35 44  2  0  0  0
 35 45  1  0  0  0
 35 68  1  0  0  0
 36 56  1  0  0  0
 36106  1  0  0  0
 37 39  1  0  0  0
 37 47  1  0  0  0
 37 66  1  0  0  0
 37107  1  0  0  0
 38 43  2  0  0  0
 38 46  1  0  0  0
 38 47  1  0  0  0
 39 64  1  0  0  0
 39 67  2  0  0  0
 40 52  1  0  0  0
 40 53  2  0  0  0
 40 58  1  0  0  0
 41108  1  0  0  0
 41109  1  0  0  0
 41110  1  0  0  0
 41 48  1  0  0  0
 42 43  1  0  0  0
 42 66  1  0  0  0
 42111  1  0  0  0
 42112  1  0  0  0
 43 44  1  0  0  0
 44113  1  0  0  0
 45 46  2  0  0  0
 45114  1  0  0  0
 46115  1  0  0  0
 47116  1  0  0  0
 47117  1  0  0  0
 48 56  1  0  0  0
 48 65  1  0  0  0
 48118  1  0  0  0
 49 50  1  0  0  0
 49 53  1  0  0  0
 49 64  1  0  0  0
 49119  1  0  0  0
 50 51  1  0  0  0
 50120  1  0  0  0
 50121  1  0  0  0
 51 52  1  0  0  0
 51122  1  0  0  0
 51123  1  0  0  0
 52124  1  0  0  0
 52125  1  0  0  0
 53 54  1  0  0  0
 54 55  2  0  0  0
 54126  1  0  0  0
 55 57  1  0  0  0
 55127  1  0  0  0
 56 69  2  0  0  0
 57 58  2  0  0  0
 57128  1  0  0  0
 58129  1  0  0  0
 59 60  1  0  0  0
 59 61  1  0  0  0
 59 62  1  0  0  0
 60130  1  0  0  0
 60131  1  0  0  0
 60132  1  0  0  0
 61133  1  0  0  0
 61134  1  0  0  0
 61135  1  0  0  0
 62136  1  0  0  0
 62137  1  0  0  0
 62138  1  0  0  0
 63 65  1  0  0  0
 63139  1  0  0  0
 63140  1  0  0  0
 63141  1  0  0  0
 64142  1  0  0  0
 65143  1  0  0  0
 68 81  1  0  0  0
 71 72  1  0  0  0
 71 82  1  0  0  0
 71 84  2  0  0  0
 72 73  1  0  0  0
 72144  1  0  0  0
 72145  1  0  0  0
 73 74  1  0  0  0
 73146  1  0  0  0
 73147  1  0  0  0
 74 78  1  0  0  0
 74148  1  0  0  0
 74149  1  0  0  0
 75 76  1  0  0  0
 75 77  1  0  0  0
 75150  1  0  0  0
 75151  1  0  0  0
 76 79  1  0  0  0
 76152  1  0  0  0
 76153  1  0  0  0
 77 80  1  0  0  0
 77154  1  0  0  0
 77155  1  0  0  0
 78 81  1  0  0  0
 78156  1  0  0  0
 78157  1  0  0  0
 79 82  1  0  0  0
 79158  1  0  0  0
 79159  1  0  0  0
 80 83  1  0  0  0
 80160  1  0  0  0
 80161  1  0  0  0
 81162  1  0  0  0
 81163  1  0  0  0
 82164  1  0  0  0
 83165  1  0  0  0
M  ISO  4   1 100  68 101  81 101  83 100
M  END
> <chiral flag>
0

> <version>
0

> <s_m_source_file>
/data/baiqing/PycharmProjects/Reinvent-master-3.2/result/LINK_invent/BTK/process_docking_weight1_custom_sum_contain_oxygen_bond_distance_aromatic_linkinvent_7_9_3/rearranged_h_0003.sdf

> <i_m_source_file_index>
9

> <r_mmod_Potential_Energy-OPLS-2005>
-113.24284362793

> <r_mmod_Stretch_Energy-OPLS-2005>
30.7819766998291

> <r_mmod_Bend_Energy-OPLS-2005>
100.602195739746

> <r_mmod_Torsional_Energy-OPLS-2005>
252.469299316406

> <r_mmod_Improper_Torsional_Energy-OPLS-2005>
5.77034473419189

> <r_mmod_Van_der_Waal_Energy-OPLS-2005>
138.513946533203

> <r_mmod_Electrostatic_Energy-OPLS-2005>
-424.860809326172

> <r_mmod_Solvation_Energy-OPLS-2005>
-225.22802734375

> <b_mmod_Minimization_Converged-OPLS-2005>
0

> <r_mmod_RMS_Derivative-OPLS-2005>
2.1635537147522

$$$$
9
                    3D
 Structure written by MMmdl.
155163  0  0  1  0            999 V2000
  -30.6977  -14.4823   20.5883 C   0  0  0  0  0  0
  -30.4289  -12.3203   19.4247 C   0  0  0  0  0  0
  -29.4994  -12.5120   18.2096 C   0  0  0  0  0  0
  -28.0203  -12.3655   18.6205 C   0  0  0  0  0  0
  -27.6601  -13.2081   19.8732 C   0  0  2  0  0  0
  -28.7006  -12.9953   20.9960 C   0  0  0  0  0  0
  -25.2563  -13.8167   20.5663 C   0  0  0  0  0  0
  -24.1818  -13.0434   20.9178 C   0  0  0  0  0  0
  -24.6379  -11.6906   20.8733 C   0  0  0  0  0  0
  -23.9047  -10.4291   21.0405 C   0  0  0  0  0  0
  -24.3598   -9.4207   21.9189 C   0  0  0  0  0  0
  -23.6278   -8.2235   22.0752 C   0  0  0  0  0  0
  -22.4260   -8.0278   21.3544 C   0  0  0  0  0  0
  -21.9896   -9.0251   20.4645 C   0  0  0  0  0  0
  -22.7218  -10.2127   20.3058 C   0  0  0  0  0  0
  -21.6847   -6.0737   22.5279 C   0  0  0  0  0  0
  -21.4014   -6.5637   23.8214 C   0  0  0  0  0  0
  -21.3664   -5.6787   24.9177 C   0  0  0  0  0  0
  -21.6042   -4.3048   24.7222 C   0  0  0  0  0  0
  -21.8821   -3.8143   23.4338 C   0  0  0  0  0  0
  -21.9189   -4.6966   22.3398 C   0  0  0  0  0  0
  -22.7841  -13.5237   21.1843 C   0  0  0  0  0  0
  -22.1656   -4.2153   21.0972 F   0  0  0  0  0  0
  -21.5628   -3.4529   25.7732 F   0  0  0  0  0  0
  -30.0322  -13.3033   20.4446 N   0  0  0  0  0  0
  -26.3006  -12.9339   20.3343 N   0  0  0  0  0  0
  -25.9307  -11.6493   20.5741 N   0  0  0  0  0  0
  -22.0460  -12.8252   22.0402 N   0  0  0  0  0  0
  -25.4268  -15.1888   20.4063 N   0  0  0  0  0  0
  -31.8198  -14.6801   20.1141 O   0  0  0  0  0  0
  -21.6623   -6.8876   21.4238 O   0  0  0  0  0  0
  -22.3533  -14.5545   20.6690 O   0  0  0  0  0  0
  -24.6167  -31.8670   23.2095 C   0  0  0  0  0  0
  -25.9055  -32.4822   23.8393 C   0  0  1  0  0  0
  -27.2350  -27.4203   20.0771 C   0  0  0  0  0  0
  -25.5910  -33.8622   24.2330 N   0  0  0  0  0  0
  -23.4047  -30.4907   21.5522 C   0  0  2  0  0  0
  -24.8477  -28.9573   20.1119 C   0  0  0  0  0  0
  -22.7420  -29.4656   22.5005 C   0  0  0  0  0  0
  -18.0274  -28.1375   22.8499 C   0  0  0  0  0  0
  -24.1486  -36.7311   23.2637 C   0  0  0  0  0  0
  -25.9361  -30.8246   21.3658 C   0  0  0  0  0  0
  -26.0104  -29.4608   20.7069 C   0  0  0  0  0  0
  -27.2029  -28.6988   20.6897 C   0  0  0  0  0  0
  -26.0428  -26.9366   19.4822 C   0  0  0  0  0  0
  -24.8586  -27.6946   19.4989 C   0  0  0  0  0  0
  -23.6107  -29.8247   20.1663 C   0  0  0  0  0  0
  -25.4106  -36.3116   24.0340 C   0  0  1  0  0  0
  -20.5865  -28.3656   23.1318 C   0  0  2  0  0  0
  -20.6772  -26.9398   22.5412 C   0  0  0  0  0  0
  -19.5747  -26.6384   21.5217 C   0  0  0  0  0  0
  -18.1922  -26.7927   22.1624 C   0  0  0  0  0  0
  -19.1523  -28.8835   23.2906 C   0  0  0  0  0  0
  -18.9454  -30.1445   23.8910 C   0  0  0  0  0  0
  -17.6454  -30.6583   24.0565 C   0  0  0  0  0  0
  -25.9029  -34.9480   23.5130 C   0  0  0  0  0  0
  -16.5345  -29.9082   23.6337 C   0  0  0  0  0  0
  -16.7262  -28.6499   23.0360 C   0  0  0  0  0  0
  -26.4475  -31.6606   25.0729 C   0  0  0  0  0  0
  -25.3739  -31.3715   26.1478 C   0  0  0  0  0  0
  -27.0312  -30.3048   24.6114 C   0  0  0  0  0  0
  -27.6054  -32.4325   25.7486 C   0  0  0  0  0  0
  -27.5584  -37.1811   24.8464 C   0  0  0  0  0  0
  -21.4147  -29.3022   22.3731 N   0  0  0  0  0  0
  -26.4296  -37.3796   23.9408 N   0  0  0  0  0  0
  -24.6714  -31.0745   22.1011 N   0  0  0  0  0  0
  -23.4186  -28.8205   23.3054 O   0  0  0  0  0  0
  -28.4005  -26.6703   20.1405 O   0  0  0  0  0  0
  -26.5585  -34.8930   22.4683 O   0  0  0  0  0  0
  -23.5353  -32.1431   23.7478 O   0  0  0  0  0  0
  -28.9062  -23.4248   22.7641 C   0  0  0  0  0  0
  -28.7999  -24.5115   21.8757 C   0  0  0  0  0  0
  -28.9516  -22.1051   22.2772 C   0  0  0  0  0  0
  -28.8138  -22.9567   20.0004 C   0  0  0  0  0  0
  -28.7399  -24.2952   20.4794 C   0  0  0  0  0  0
  -28.9147  -21.8508   20.8882 C   0  0  0  0  0  0
  -28.5434  -25.4467   19.5275 C   0  0  0  0  0  0
  -28.8816  -20.4066   20.3570 C   0  0  0  0  0  0
  -29.8300  -19.3798   21.0448 C   0  0  0  0  0  0
  -29.5619  -17.9015   20.6456 C   0  0  0  0  0  0
  -30.4272  -16.8635   21.4118 C   0  0  0  0  0  0
  -30.0006  -15.4716   21.1792 N   0  0  0  0  0  0
  -28.4694  -25.3048   18.3030 O   0  0  0  0  0  0
  -31.4724  -12.4310   19.1223 H   0  0  0  0  0  0
  -30.3403  -11.3082   19.8221 H   0  0  0  0  0  0
  -29.7452  -11.7880   17.4325 H   0  0  0  0  0  0
  -29.6643  -13.4984   17.7733 H   0  0  0  0  0  0
  -27.8349  -11.3096   18.8196 H   0  0  0  0  0  0
  -27.3712  -12.6344   17.7864 H   0  0  0  0  0  0
  -27.7012  -14.2551   19.5725 H   0  0  0  0  0  0
  -28.6802  -11.9627   21.3469 H   0  0  0  0  0  0
  -28.4533  -13.5987   21.8708 H   0  0  0  0  0  0
  -25.2744   -9.5683   22.4761 H   0  0  0  0  0  0
  -23.9993   -7.4631   22.7473 H   0  0  0  0  0  0
  -21.0830   -8.8762   19.8952 H   0  0  0  0  0  0
  -22.3675  -10.9667   19.6165 H   0  0  0  0  0  0
  -21.2005   -7.6142   23.9723 H   0  0  0  0  0  0
  -21.1489   -6.0511   25.9081 H   0  0  0  0  0  0
  -22.0596   -2.7603   23.2831 H   0  0  0  0  0  0
  -22.4032  -11.9905   22.4810 H   0  0  0  0  0  0
  -21.1070  -13.1296   22.2561 H   0  0  0  0  0  0
  -24.6587  -15.8428   20.5159 H   0  0  0  0  0  0
  -26.2801  -15.6315   20.0889 H   0  0  0  0  0  0
  -26.7130  -32.5520   23.1156 H   0  0  0  0  0  0
  -25.0131  -33.9787   25.0526 H   0  0  0  0  0  0
  -22.6946  -31.3086   21.4147 H   0  0  0  0  0  0
  -23.3759  -35.9636   23.3310 H   0  0  0  0  0  0
  -24.3581  -36.8905   22.2048 H   0  0  0  0  0  0
  -23.7226  -37.6514   23.6640 H   0  0  0  0  0  0
  -26.0527  -31.5928   20.6003 H   0  0  0  0  0  0
  -26.8226  -30.8734   21.9863 H   0  0  0  0  0  0
  -28.0974  -29.0810   21.1620 H   0  0  0  0  0  0
  -25.9995  -25.9643   19.0123 H   0  0  0  0  0  0
  -23.9623  -27.2973   19.0422 H   0  0  0  0  0  0
  -23.7158  -30.5999   19.4062 H   0  0  0  0  0  0
  -22.7341  -29.2430   19.8749 H   0  0  0  0  0  0
  -25.1288  -36.1986   25.0836 H   0  0  0  0  0  0
  -20.9954  -28.3220   24.1437 H   0  0  0  0  0  0
  -20.5695  -26.2264   23.3594 H   0  0  0  0  0  0
  -21.6644  -26.7458   22.1192 H   0  0  0  0  0  0
  -19.6909  -25.6301   21.1232 H   0  0  0  0  0  0
  -19.6692  -27.3214   20.6762 H   0  0  0  0  0  0
  -17.4204  -26.6691   21.4012 H   0  0  0  0  0  0
  -18.0308  -26.0056   22.9002 H   0  0  0  0  0  0
  -19.7927  -30.7260   24.2282 H   0  0  0  0  0  0
  -17.5007  -31.6268   24.5158 H   0  0  0  0  0  0
  -15.5345  -30.2986   23.7649 H   0  0  0  0  0  0
  -15.8664  -28.0813   22.7074 H   0  0  0  0  0  0
  -24.5921  -30.7046   25.7828 H   0  0  0  0  0  0
  -24.8923  -32.2873   26.4923 H   0  0  0  0  0  0
  -25.8094  -30.8899   27.0243 H   0  0  0  0  0  0
  -26.2862  -29.6804   24.1168 H   0  0  0  0  0  0
  -27.4085  -29.7287   25.4574 H   0  0  0  0  0  0
  -27.8698  -30.4379   23.9273 H   0  0  0  0  0  0
  -27.2687  -33.3627   26.2077 H   0  0  0  0  0  0
  -28.3857  -32.6873   25.0304 H   0  0  0  0  0  0
  -28.0735  -31.8440   26.5388 H   0  0  0  0  0  0
  -28.2612  -38.0102   24.7525 H   0  0  0  0  0  0
  -28.1073  -36.2636   24.6285 H   0  0  0  0  0  0
  -27.2304  -37.1457   25.8867 H   0  0  0  0  0  0
  -20.9312  -29.8716   21.6929 H   0  0  0  0  0  0
  -26.0193  -38.2877   24.1409 H   0  0  0  0  0  0
  -28.9317  -23.6051   23.8295 H   0  0  0  0  0  0
  -28.7419  -25.5101   22.2864 H   0  0  0  0  0  0
  -28.9913  -21.2947   22.9906 H   0  0  0  0  0  0
  -28.7526  -22.7746   18.9359 H   0  0  0  0  0  0
  -29.0863  -20.4138   19.2858 H   0  0  0  0  0  0
  -27.8519  -20.0611   20.4564 H   0  0  0  0  0  0
  -29.7244  -19.4443   22.1266 H   0  0  0  0  0  0
  -30.8654  -19.6409   20.8260 H   0  0  0  0  0  0
  -29.7224  -17.7848   19.5727 H   0  0  0  0  0  0
  -28.5083  -17.6817   20.8221 H   0  0  0  0  0  0
  -30.3481  -17.0514   22.4839 H   0  0  0  0  0  0
  -31.4822  -16.9984   21.1648 H   0  0  0  0  0  0
  -29.0796  -15.2202   21.5071 H   0  0  0  0  0  0
  1 25  1  0  0  0
  1 30  2  0  0  0
  1 82  1  0  0  0
  2  3  1  0  0  0
  2 25  1  0  0  0
  2 84  1  0  0  0
  2 85  1  0  0  0
  3  4  1  0  0  0
  3 86  1  0  0  0
  3 87  1  0  0  0
  4  5  1  0  0  0
  4 88  1  0  0  0
  4 89  1  0  0  0
  5  6  1  0  0  0
  5 26  1  0  0  0
  5 90  1  0  0  0
  6 25  1  0  0  0
  6 91  1  0  0  0
  6 92  1  0  0  0
  7  8  2  0  0  0
  7 26  1  0  0  0
  7 29  1  0  0  0
  8  9  1  0  0  0
  8 22  1  0  0  0
  9 10  1  0  0  0
  9 27  2  0  0  0
 10 11  2  0  0  0
 10 15  1  0  0  0
 11 12  1  0  0  0
 11 93  1  0  0  0
 12 13  2  0  0  0
 12 94  1  0  0  0
 13 14  1  0  0  0
 13 31  1  0  0  0
 14 15  2  0  0  0
 14 95  1  0  0  0
 15 96  1  0  0  0
 16 17  2  0  0  0
 16 21  1  0  0  0
 16 31  1  0  0  0
 17 18  1  0  0  0
 17 97  1  0  0  0
 18 19  2  0  0  0
 18 98  1  0  0  0
 19 20  1  0  0  0
 19 24  1  0  0  0
 20 21  2  0  0  0
 20 99  1  0  0  0
 21 23  1  0  0  0
 22 28  1  0  0  0
 22 32  2  0  0  0
 26 27  1  0  0  0
 28100  1  0  0  0
 28101  1  0  0  0
 29102  1  0  0  0
 29103  1  0  0  0
 33 34  1  0  0  0
 33 66  1  0  0  0
 33 70  2  0  0  0
 34 36  1  0  0  0
 34 59  1  0  0  0
 34104  1  0  0  0
 35 44  2  0  0  0
 35 45  1  0  0  0
 35 68  1  0  0  0
 36 56  1  0  0  0
 36105  1  0  0  0
 37 39  1  0  0  0
 37 47  1  0  0  0
 37 66  1  0  0  0
 37106  1  0  0  0
 38 43  2  0  0  0
 38 46  1  0  0  0
 38 47  1  0  0  0
 39 64  1  0  0  0
 39 67  2  0  0  0
 40 52  1  0  0  0
 40 53  2  0  0  0
 40 58  1  0  0  0
 41107  1  0  0  0
 41108  1  0  0  0
 41109  1  0  0  0
 41 48  1  0  0  0
 42 43  1  0  0  0
 42 66  1  0  0  0
 42110  1  0  0  0
 42111  1  0  0  0
 43 44  1  0  0  0
 44112  1  0  0  0
 45 46  2  0  0  0
 45113  1  0  0  0
 46114  1  0  0  0
 47115  1  0  0  0
 47116  1  0  0  0
 48 56  1  0  0  0
 48 65  1  0  0  0
 48117  1  0  0  0
 49 50  1  0  0  0
 49 53  1  0  0  0
 49 64  1  0  0  0
 49118  1  0  0  0
 50 51  1  0  0  0
 50119  1  0  0  0
 50120  1  0  0  0
 51 52  1  0  0  0
 51121  1  0  0  0
 51122  1  0  0  0
 52123  1  0  0  0
 52124  1  0  0  0
 53 54  1  0  0  0
 54 55  2  0  0  0
 54125  1  0  0  0
 55 57  1  0  0  0
 55126  1  0  0  0
 56 69  2  0  0  0
 57 58  2  0  0  0
 57127  1  0  0  0
 58128  1  0  0  0
 59 60  1  0  0  0
 59 61  1  0  0  0
 59 62  1  0  0  0
 60129  1  0  0  0
 60130  1  0  0  0
 60131  1  0  0  0
 61132  1  0  0  0
 61133  1  0  0  0
 61134  1  0  0  0
 62135  1  0  0  0
 62136  1  0  0  0
 62137  1  0  0  0
 63 65  1  0  0  0
 63138  1  0  0  0
 63139  1  0  0  0
 63140  1  0  0  0
 64141  1  0  0  0
 65142  1  0  0  0
 68 77  1  0  0  0
 71 72  2  0  0  0
 71 73  1  0  0  0
 71143  1  0  0  0
 72 75  1  0  0  0
 72144  1  0  0  0
 73 76  2  0  0  0
 73145  1  0  0  0
 74 75  2  0  0  0
 74 76  1  0  0  0
 74146  1  0  0  0
 75 77  1  0  0  0
 76 78  1  0  0  0
 77 83  2  0  0  0
 78 79  1  0  0  0
 78147  1  0  0  0
 78148  1  0  0  0
 79 80  1  0  0  0
 79149  1  0  0  0
 79150  1  0  0  0
 80 81  1  0  0  0
 80151  1  0  0  0
 80152  1  0  0  0
 81 82  1  0  0  0
 81153  1  0  0  0
 81154  1  0  0  0
 82155  1  0  0  0
M  ISO  4   1 100  68 101  77 101  82 100
M  END
> <chiral flag>
0

> <version>
0

> <s_m_source_file>
/data/baiqing/PycharmProjects/Reinvent-master-3.2/result/LINK_invent/BTK/process_docking_weight1_custom_sum_contain_oxygen_bond_distance_aromatic_linkinvent_7_9_3/rearranged_h_0003.sdf

> <i_m_source_file_index>
10

> <r_mmod_Potential_Energy-OPLS-2005>
-15.0648584365845

> <r_mmod_Stretch_Energy-OPLS-2005>
42.7051239013672

> <r_mmod_Bend_Energy-OPLS-2005>
94.3316040039062

> <r_mmod_Torsional_Energy-OPLS-2005>
214.502380371094

> <r_mmod_Improper_Torsional_Energy-OPLS-2005>
3.30218315124512

> <r_mmod_Van_der_Waal_Energy-OPLS-2005>
156.466674804688

> <r_mmod_Electrostatic_Energy-OPLS-2005>
-333.568420410156

> <r_mmod_Solvation_Energy-OPLS-2005>
-208.110565185547

> <b_mmod_Minimization_Converged-OPLS-2005>
0

> <r_mmod_RMS_Derivative-OPLS-2005>
1.48627841472626

$$$$
10
                    3D
 Structure written by MMmdl.
191198  0  0  1  0            999 V2000
  -30.6126  -15.0970   20.6016 C   0  0  0  0  0  0
  -30.4339  -12.7258   19.5859 C   0  0  0  0  0  0
  -29.5369  -12.5856   18.3252 C   0  0  0  0  0  0
  -28.0798  -12.3274   18.7333 C   0  0  0  0  0  0
  -27.6269  -13.2858   19.8621 C   0  0  2  0  0  0
  -28.6561  -13.3881   21.0214 C   0  0  0  0  0  0
  -25.2391  -13.8301   20.5801 C   0  0  0  0  0  0
  -24.1703  -13.0422   20.9278 C   0  0  0  0  0  0
  -24.6393  -11.6959   20.8805 C   0  0  0  0  0  0
  -23.9080  -10.4289   21.0446 C   0  0  0  0  0  0
  -24.3616   -9.4190   21.9209 C   0  0  0  0  0  0
  -23.6287   -8.2217   22.0751 C   0  0  0  0  0  0
  -22.4276   -8.0266   21.3529 C   0  0  0  0  0  0
  -21.9922   -9.0247   20.4647 C   0  0  0  0  0  0
  -22.7261  -10.2127   20.3077 C   0  0  0  0  0  0
  -21.6842   -6.0726   22.5292 C   0  0  0  0  0  0
  -21.4006   -6.5635   23.8224 C   0  0  0  0  0  0
  -21.3659   -5.6794   24.9192 C   0  0  0  0  0  0
  -21.6043   -4.3055   24.7244 C   0  0  0  0  0  0
  -21.8810   -3.8138   23.4371 C   0  0  0  0  0  0
  -21.9183   -4.6949   22.3424 C   0  0  0  0  0  0
  -22.7738  -13.5187   21.1900 C   0  0  0  0  0  0
  -22.1649   -4.2137   21.0994 F   0  0  0  0  0  0
  -21.5639   -3.4543   25.7761 F   0  0  0  0  0  0
  -29.9400  -13.8555   20.4587 N   0  0  0  0  0  0
  -26.2860  -12.9589   20.3398 N   0  0  0  0  0  0
  -25.9346  -11.6681   20.5814 N   0  0  0  0  0  0
  -22.0411  -12.8152   22.0505 N   0  0  0  0  0  0
  -25.4094  -15.2003   20.4276 N   0  0  0  0  0  0
  -31.7836  -15.0775   20.1985 O   0  0  0  0  0  0
  -21.6624   -6.8870   21.4246 O   0  0  0  0  0  0
  -22.3407  -14.5474   20.6780 O   0  0  0  0  0  0
  -24.7034  -31.7647   23.1130 C   0  0  0  0  0  0
  -26.0487  -32.2048   23.8158 C   0  0  1  0  0  0
  -26.9772  -27.5447   20.7360 C   0  0  0  0  0  0
  -25.5695  -33.6905   23.9147 N   0  0  0  0  0  0
  -23.3469  -30.5418   21.3888 C   0  0  2  0  0  0
  -24.8323  -29.0404   19.9433 C   0  0  0  0  0  0
  -22.5404  -29.5493   22.2680 C   0  0  0  0  0  0
  -17.9601  -28.1125   22.8637 C   0  0  0  0  0  0
  -24.1255  -36.6208   23.2850 C   0  0  0  0  0  0
  -25.8309  -31.0108   21.0597 C   0  0  0  0  0  0
  -25.9872  -29.6501   20.4585 C   0  0  0  0  0  0
  -27.1682  -28.9151   20.6516 C   0  0  0  0  0  0
  -26.0188  -26.9406   19.8843 C   0  0  0  0  0  0
  -24.8827  -27.6970   19.5281 C   0  0  0  0  0  0
  -23.5584  -29.8618   20.0011 C   0  0  0  0  0  0
  -25.4273  -36.1972   23.9819 C   0  0  1  0  0  0
  -20.4940  -28.4322   23.0145 C   0  0  2  0  0  0
  -20.6251  -26.9846   22.4843 C   0  0  0  0  0  0
  -19.4954  -26.5959   21.5346 C   0  0  0  0  0  0
  -18.1363  -26.7418   22.2227 C   0  0  0  0  0  0
  -19.0698  -28.8989   23.2446 C   0  0  0  0  0  0
  -18.8552  -30.1697   23.8157 C   0  0  0  0  0  0
  -17.5620  -30.6551   24.0444 C   0  0  0  0  0  0
  -25.9567  -34.8633   23.3694 C   0  0  0  0  0  0
  -16.4586  -29.8885   23.6362 C   0  0  0  0  0  0
  -16.6579  -28.6220   23.0558 C   0  0  0  0  0  0
  -26.9944  -31.0754   25.0005 C   0  0  0  0  0  0
  -26.7075  -30.1957   26.3883 C   0  0  0  0  0  0
  -27.2765  -29.9892   24.0185 C   0  0  0  0  0  0
  -28.3693  -31.2256   25.9289 C   0  0  0  0  0  0
  -27.5584  -37.1875   24.7860 C   0  0  0  0  0  0
  -21.2235  -29.4021   22.1819 N   0  0  0  0  0  0
  -26.3919  -37.3260   23.9188 N   0  0  0  0  0  0
  -24.6514  -31.0727   21.9518 N   0  0  0  0  0  0
  -23.0857  -28.7963   23.0179 O   0  0  0  0  0  0
  -26.9342  -27.2355   22.1039 O   0  0  0  0  0  0
  -26.6961  -34.9066   22.3907 O   0  0  0  0  0  0
  -23.6455  -32.0932   23.6577 O   0  0  0  0  0  0
  -30.0052  -28.5456   23.7200 C   0  0  0  0  0  0
  -25.1421  -28.2648   24.5714 C   0  0  0  0  0  0
  -25.0435  -32.2117   26.8011 C   0  0  0  0  0  0
  -22.2174  -29.3221   27.1101 C   0  0  0  0  0  0
  -22.2385  -31.7291   27.7286 C   0  0  0  0  0  0
  -21.6857  -31.1416   25.4842 C   0  0  0  0  0  0
  -30.2605  -30.2659   23.5021 C   0  0  0  0  0  0
  -25.5655  -27.6685   22.9430 C   0  0  0  0  0  0
  -29.3596  -31.8605   23.4481 C   0  0  0  0  0  0
  -29.9982  -22.6134   22.3835 C   0  0  0  0  0  0
  -30.4691  -21.0989   21.5819 C   0  0  0  0  0  0
  -28.6930  -33.2604   24.4468 C   0  0  0  0  0  0
  -30.4030  -24.3224   22.1148 C   0  0  0  0  0  0
  -29.9995  -19.3973   21.7984 C   0  0  0  0  0  0
  -27.5543  -33.6194   25.8620 C   0  0  0  0  0  0
  -30.0185  -25.7440   23.0936 C   0  0  0  0  0  0
  -30.5048  -17.9341   20.9344 C   0  0  0  0  0  0
  -24.1874  -30.7541   26.1730 C   0  0  1  0  0  0
  -22.6332  -30.7284   26.5996 C   0  0  0  0  0  0
  -30.2062  -27.3719   22.8639 N   0  0  0  0  0  0
  -26.0097  -33.1614   26.2785 N   0  0  0  0  0  0
  -24.5773  -29.6233   24.9394 N   0  0  0  0  0  0
  -30.0254  -16.3659   21.0149 N   0  0  0  0  0  0
  -29.7289  -28.2402   24.8783 O   0  0  0  0  0  0
  -25.3230  -27.4430   25.4730 O   0  0  0  0  0  0
  -24.9566  -32.3640   28.0225 O   0  0  0  0  0  0
  -31.4789  -12.8489   19.3030 H   0  0  0  0  0  0
  -30.4146  -11.7952   20.1531 H   0  0  0  0  0  0
  -29.8963  -11.7737   17.6897 H   0  0  0  0  0  0
  -29.5938  -13.4963   17.7276 H   0  0  0  0  0  0
  -28.0149  -11.2999   19.0900 H   0  0  0  0  0  0
  -27.4107  -12.3867   17.8744 H   0  0  0  0  0  0
  -27.5619  -14.2699   19.3952 H   0  0  0  0  0  0
  -28.7771  -12.4171   21.5039 H   0  0  0  0  0  0
  -28.3043  -14.0665   21.8009 H   0  0  0  0  0  0
  -25.2731   -9.5648   22.4820 H   0  0  0  0  0  0
  -23.9977   -7.4597   22.7475 H   0  0  0  0  0  0
  -21.0848   -8.8763   19.8973 H   0  0  0  0  0  0
  -22.3700  -10.9658   19.6191 H   0  0  0  0  0  0
  -21.1984   -7.6147   23.9719 H   0  0  0  0  0  0
  -21.1504   -6.0538   25.9096 H   0  0  0  0  0  0
  -22.0592   -2.7604   23.2879 H   0  0  0  0  0  0
  -22.4010  -11.9740   22.4772 H   0  0  0  0  0  0
  -21.1063  -13.1219   22.2827 H   0  0  0  0  0  0
  -24.6572  -15.8720   20.5333 H   0  0  0  0  0  0
  -26.2781  -15.6213   20.1181 H   0  0  0  0  0  0
  -26.7714  -32.3970   23.0457 H   0  0  0  0  0  0
  -24.6746  -33.8006   24.3891 H   0  0  0  0  0  0
  -22.6918  -31.4014   21.2306 H   0  0  0  0  0  0
  -23.3867  -35.8203   23.3430 H   0  0  0  0  0  0
  -24.2836  -36.8421   22.2276 H   0  0  0  0  0  0
  -23.6762  -37.4947   23.7577 H   0  0  0  0  0  0
  -25.6693  -31.7236   20.2497 H   0  0  0  0  0  0
  -26.7959  -31.2832   21.4532 H   0  0  0  0  0  0
  -27.9714  -29.3638   21.2160 H   0  0  0  0  0  0
  -25.9522  -25.8657   19.8121 H   0  0  0  0  0  0
  -24.0138  -27.2074   19.1073 H   0  0  0  0  0  0
  -23.6091  -30.6220   19.2174 H   0  0  0  0  0  0
  -22.7020  -29.2404   19.7333 H   0  0  0  0  0  0
  -25.1854  -36.0235   25.0346 H   0  0  0  0  0  0
  -20.9253  -28.4152   24.0166 H   0  0  0  0  0  0
  -20.5718  -26.3117   23.3366 H   0  0  0  0  0  0
  -21.6018  -26.8041   22.0346 H   0  0  0  0  0  0
  -19.6227  -25.5673   21.1919 H   0  0  0  0  0  0
  -19.5228  -27.2344   20.6539 H   0  0  0  0  0  0
  -17.3342  -26.5482   21.5130 H   0  0  0  0  0  0
  -18.0218  -25.9617   22.9770 H   0  0  0  0  0  0
  -19.6751  -30.8225   24.0334 H   0  0  0  0  0  0
  -17.4190  -31.6197   24.5171 H   0  0  0  0  0  0
  -15.4543  -30.2748   23.7504 H   0  0  0  0  0  0
  -15.7946  -28.0401   22.7590 H   0  0  0  0  0  0
  -26.0841  -29.3534   26.5511 H   0  0  0  0  0  0
  -26.7294  -30.6164   27.4014 H   0  0  0  0  0  0
  -27.3912  -29.3471   26.5346 H   0  0  0  0  0  0
  -26.4655  -29.8845   23.3418 H   0  0  0  0  0  0
  -27.5228  -29.0227   24.4392 H   0  0  0  0  0  0
  -27.9312  -30.1118   23.2010 H   0  0  0  0  0  0
  -28.3242  -31.6166   26.9493 H   0  0  0  0  0  0
  -29.3612  -31.5791   25.6964 H   0  0  0  0  0  0
  -28.9321  -30.2973   26.0007 H   0  0  0  0  0  0
  -28.1277  -38.1175   24.7748 H   0  0  0  0  0  0
  -28.2295  -36.3932   24.4517 H   0  0  0  0  0  0
  -27.2647  -36.9975   25.8187 H   0  0  0  0  0  0
  -20.6862  -29.9739   21.5436 H   0  0  0  0  0  0
  -25.9388  -38.2077   24.1469 H   0  0  0  0  0  0
  -21.1595  -29.2868   27.3698 H   0  0  0  0  0  0
  -22.7545  -29.0360   28.0192 H   0  0  0  0  0  0
  -22.3907  -28.5517   26.3570 H   0  0  0  0  0  0
  -21.1753  -31.6926   27.9749 H   0  0  0  0  0  0
  -22.4271  -32.7633   27.4337 H   0  0  0  0  0  0
  -22.7687  -31.5429   28.6637 H   0  0  0  0  0  0
  -21.8668  -32.1624   25.1556 H   0  0  0  0  0  0
  -20.6532  -31.1242   25.8344 H   0  0  0  0  0  0
  -21.7841  -30.4766   24.6404 H   0  0  0  0  0  0
  -30.7557  -30.2449   22.5306 H   0  0  0  0  0  0
  -31.0772  -30.4560   24.1990 H   0  0  0  0  0  0
  -25.1936  -28.4655   22.3513 H   0  0  0  0  0  0
  -24.8679  -26.8531   22.7482 H   0  0  0  0  0  0
  -28.7420  -31.8074   22.5593 H   0  0  0  0  0  0
  -30.1701  -32.4261   22.9966 H   0  0  0  0  0  0
  -30.1936  -22.4316   23.4415 H   0  0  0  0  0  0
  -28.9090  -22.6273   22.3140 H   0  0  0  0  0  0
  -30.2221  -21.2745   20.5396 H   0  0  0  0  0  0
  -31.5634  -21.1003   21.5985 H   0  0  0  0  0  0
  -28.4845  -34.0211   23.7046 H   0  0  0  0  0  0
  -29.6198  -33.6741   24.8449 H   0  0  0  0  0  0
  -30.0470  -24.5590   21.1095 H   0  0  0  0  0  0
  -31.4876  -24.3537   21.9954 H   0  0  0  0  0  0
  -28.9118  -19.3921   21.7223 H   0  0  0  0  0  0
  -30.1750  -19.1874   22.8558 H   0  0  0  0  0  0
  -27.4180  -34.6913   25.7739 H   0  0  0  0  0  0
  -28.1321  -33.6630   26.7821 H   0  0  0  0  0  0
  -30.5492  -25.5450   24.0243 H   0  0  0  0  0  0
  -28.9707  -25.6137   23.3658 H   0  0  0  0  0  0
  -31.5929  -17.8889   20.9749 H   0  0  0  0  0  0
  -30.3003  -18.1523   19.8882 H   0  0  0  0  0  0
  -24.4164  -30.1696   27.0566 H   0  0  0  0  0  0
  -30.5459  -27.6168   21.9443 H   0  0  0  0  0  0
  -25.6384  -33.3052   25.3487 H   0  0  0  0  0  0
  -24.2141  -30.0068   24.0816 H   0  0  0  0  0  0
  -29.0396  -16.2751   21.2251 H   0  0  0  0  0  0
  1 25  1  0  0  0
  1 30  2  0  0  0
  1 93  1  0  0  0
  2  3  1  0  0  0
  2 25  1  0  0  0
  2 97  1  0  0  0
  2 98  1  0  0  0
  3  4  1  0  0  0
  3 99  1  0  0  0
  3100  1  0  0  0
  4  5  1  0  0  0
  4101  1  0  0  0
  4102  1  0  0  0
  5  6  1  0  0  0
  5 26  1  0  0  0
  5103  1  0  0  0
  6 25  1  0  0  0
  6104  1  0  0  0
  6105  1  0  0  0
  7  8  2  0  0  0
  7 26  1  0  0  0
  7 29  1  0  0  0
  8  9  1  0  0  0
  8 22  1  0  0  0
  9 10  1  0  0  0
  9 27  2  0  0  0
 10 11  2  0  0  0
 10 15  1  0  0  0
 11 12  1  0  0  0
 11106  1  0  0  0
 12 13  2  0  0  0
 12107  1  0  0  0
 13 14  1  0  0  0
 13 31  1  0  0  0
 14 15  2  0  0  0
 14108  1  0  0  0
 15109  1  0  0  0
 16 17  2  0  0  0
 16 21  1  0  0  0
 16 31  1  0  0  0
 17 18  1  0  0  0
 17110  1  0  0  0
 18 19  2  0  0  0
 18111  1  0  0  0
 19 20  1  0  0  0
 19 24  1  0  0  0
 20 21  2  0  0  0
 20112  1  0  0  0
 21 23  1  0  0  0
 22 28  1  0  0  0
 22 32  2  0  0  0
 26 27  1  0  0  0
 28113  1  0  0  0
 28114  1  0  0  0
 29115  1  0  0  0
 29116  1  0  0  0
 33 34  1  0  0  0
 33 66  1  0  0  0
 33 70  2  0  0  0
 34 36  1  0  0  0
 34 59  1  0  0  0
 34117  1  0  0  0
 35 44  2  0  0  0
 35 45  1  0  0  0
 35 68  1  0  0  0
 36 56  1  0  0  0
 36118  1  0  0  0
 37 39  1  0  0  0
 37 47  1  0  0  0
 37 66  1  0  0  0
 37119  1  0  0  0
 38 43  2  0  0  0
 38 46  1  0  0  0
 38 47  1  0  0  0
 39 64  1  0  0  0
 39 67  2  0  0  0
 40 52  1  0  0  0
 40 53  2  0  0  0
 40 58  1  0  0  0
 41120  1  0  0  0
 41121  1  0  0  0
 41122  1  0  0  0
 41 48  1  0  0  0
 42 43  1  0  0  0
 42 66  1  0  0  0
 42123  1  0  0  0
 42124  1  0  0  0
 43 44  1  0  0  0
 44125  1  0  0  0
 45 46  2  0  0  0
 45126  1  0  0  0
 46127  1  0  0  0
 47128  1  0  0  0
 47129  1  0  0  0
 48 56  1  0  0  0
 48 65  1  0  0  0
 48130  1  0  0  0
 49 50  1  0  0  0
 49 53  1  0  0  0
 49 64  1  0  0  0
 49131  1  0  0  0
 50 51  1  0  0  0
 50132  1  0  0  0
 50133  1  0  0  0
 51 52  1  0  0  0
 51134  1  0  0  0
 51135  1  0  0  0
 52136  1  0  0  0
 52137  1  0  0  0
 53 54  1  0  0  0
 54 55  2  0  0  0
 54138  1  0  0  0
 55 57  1  0  0  0
 55139  1  0  0  0
 56 69  2  0  0  0
 57 58  2  0  0  0
 57140  1  0  0  0
 58141  1  0  0  0
 59 60  1  0  0  0
 59 61  1  0  0  0
 59 62  1  0  0  0
 60142  1  0  0  0
 60143  1  0  0  0
 60144  1  0  0  0
 61145  1  0  0  0
 61146  1  0  0  0
 61147  1  0  0  0
 62148  1  0  0  0
 62149  1  0  0  0
 62150  1  0  0  0
 63 65  1  0  0  0
 63151  1  0  0  0
 63152  1  0  0  0
 63153  1  0  0  0
 64154  1  0  0  0
 65155  1  0  0  0
 68 78  1  0  0  0
 71 77  1  0  0  0
 71 90  1  0  0  0
 71 94  2  0  0  0
 72 78  1  0  0  0
 72 92  1  0  0  0
 72 95  2  0  0  0
 73 88  1  0  0  0
 73 91  1  0  0  0
 73 96  2  0  0  0
 74156  1  0  0  0
 74157  1  0  0  0
 74158  1  0  0  0
 74 89  1  0  0  0
 75 89  1  0  0  0
 75159  1  0  0  0
 75160  1  0  0  0
 75161  1  0  0  0
 76 89  1  0  0  0
 76162  1  0  0  0
 76163  1  0  0  0
 76164  1  0  0  0
 77 79  1  0  0  0
 77165  1  0  0  0
 77166  1  0  0  0
 78167  1  0  0  0
 78168  1  0  0  0
 79 82  1  0  0  0
 79169  1  0  0  0
 79170  1  0  0  0
 80 81  1  0  0  0
 80 83  1  0  0  0
 80171  1  0  0  0
 80172  1  0  0  0
 81 84  1  0  0  0
 81173  1  0  0  0
 81174  1  0  0  0
 82 85  1  0  0  0
 82175  1  0  0  0
 82176  1  0  0  0
 83 86  1  0  0  0
 83177  1  0  0  0
 83178  1  0  0  0
 84 87  1  0  0  0
 84179  1  0  0  0
 84180  1  0  0  0
 85 91  1  0  0  0
 85181  1  0  0  0
 85182  1  0  0  0
 86 90  1  0  0  0
 86183  1  0  0  0
 86184  1  0  0  0
 87 93  1  0  0  0
 87185  1  0  0  0
 87186  1  0  0  0
 88 89  1  0  0  0
 88 92  1  0  0  0
 88187  1  0  0  0
 90188  1  0  0  0
 91189  1  0  0  0
 92190  1  0  0  0
 93191  1  0  0  0
M  ISO  4   1 100  68 101  78 101  93 100
M  END
> <chiral flag>
0

> <version>
0

> <s_m_source_file>
/data/baiqing/PycharmProjects/Reinvent-master-3.2/result/LINK_invent/BTK/process_docking_weight1_custom_sum_contain_oxygen_bond_distance_aromatic_linkinvent_7_9_3/rearranged_h_0003.sdf

> <i_m_source_file_index>
11

> <r_mmod_Potential_Energy-OPLS-2005>
5890.828125

> <r_mmod_Stretch_Energy-OPLS-2005>
1747.07153320312

> <r_mmod_Bend_Energy-OPLS-2005>
1795.31359863281

> <r_mmod_Torsional_Energy-OPLS-2005>
493.019378662109

> <r_mmod_Improper_Torsional_Energy-OPLS-2005>
39.4291877746582

> <r_mmod_Van_der_Waal_Energy-OPLS-2005>
953.832946777344

> <r_mmod_Electrostatic_Energy-OPLS-2005>
-532.251159667969

> <r_mmod_Solvation_Energy-OPLS-2005>
-256.725463867188

> <b_mmod_Minimization_Converged-OPLS-2005>
0

> <r_mmod_RMS_Derivative-OPLS-2005>
10.5494937896729

$$$$
11
                    3D
 Structure written by MMmdl.
152160  0  0  1  0            999 V2000
  -30.6151  -14.6312   20.5112 C   0  0  0  0  0  0
  -30.4434  -12.3889   19.4486 C   0  0  0  0  0  0
  -29.5091  -12.5067   18.2230 C   0  0  0  0  0  0
  -28.0316  -12.3432   18.6343 C   0  0  0  0  0  0
  -27.6554  -13.2101   19.8650 C   0  0  2  0  0  0
  -28.6995  -13.0516   20.9938 C   0  0  0  0  0  0
  -25.2570  -13.8151   20.5656 C   0  0  0  0  0  0
  -24.1836  -13.0434   20.9206 C   0  0  0  0  0  0
  -24.6393  -11.6903   20.8753 C   0  0  0  0  0  0
  -23.9057  -10.4292   21.0416 C   0  0  0  0  0  0
  -24.3613   -9.4209   21.9191 C   0  0  0  0  0  0
  -23.6292   -8.2240   22.0753 C   0  0  0  0  0  0
  -22.4274   -8.0279   21.3544 C   0  0  0  0  0  0
  -21.9910   -9.0253   20.4648 C   0  0  0  0  0  0
  -22.7233  -10.2135   20.3064 C   0  0  0  0  0  0
  -21.6850   -6.0737   22.5283 C   0  0  0  0  0  0
  -21.4008   -6.5642   23.8216 C   0  0  0  0  0  0
  -21.3660   -5.6793   24.9179 C   0  0  0  0  0  0
  -21.6046   -4.3056   24.7227 C   0  0  0  0  0  0
  -21.8818   -3.8149   23.4347 C   0  0  0  0  0  0
  -21.9192   -4.6966   22.3406 C   0  0  0  0  0  0
  -22.7860  -13.5237   21.1867 C   0  0  0  0  0  0
  -22.1661   -4.2152   21.0983 F   0  0  0  0  0  0
  -21.5633   -3.4539   25.7739 F   0  0  0  0  0  0
  -30.0170  -13.4004   20.4349 N   0  0  0  0  0  0
  -26.2992  -12.9319   20.3311 N   0  0  0  0  0  0
  -25.9319  -11.6484   20.5761 N   0  0  0  0  0  0
  -22.0494  -12.8232   22.0418 N   0  0  0  0  0  0
  -25.4277  -15.1863   20.3980 N   0  0  0  0  0  0
  -31.7747  -14.8103   20.1246 O   0  0  0  0  0  0
  -21.6638   -6.8877   21.4242 O   0  0  0  0  0  0
  -22.3555  -14.5550   20.6718 O   0  0  0  0  0  0
  -24.6269  -31.8608   23.2036 C   0  0  0  0  0  0
  -25.9120  -32.4782   23.8361 C   0  0  1  0  0  0
  -27.2196  -27.3231   20.1096 C   0  0  0  0  0  0
  -25.5934  -33.8579   24.2292 N   0  0  0  0  0  0
  -23.4186  -30.4881   21.5467 C   0  0  2  0  0  0
  -24.8625  -28.9476   20.1099 C   0  0  0  0  0  0
  -22.7477  -29.4640   22.4931 C   0  0  0  0  0  0
  -18.0292  -28.1385   22.8492 C   0  0  0  0  0  0
  -24.1490  -36.7296   23.2635 C   0  0  0  0  0  0
  -25.9610  -30.7941   21.3728 C   0  0  0  0  0  0
  -26.0336  -29.4229   20.7131 C   0  0  0  0  0  0
  -27.2152  -28.6230   20.7029 C   0  0  0  0  0  0
  -26.0197  -26.9024   19.4854 C   0  0  0  0  0  0
  -24.8579  -27.6926   19.4873 C   0  0  0  0  0  0
  -23.6318  -29.8282   20.1601 C   0  0  0  0  0  0
  -25.4108  -36.3083   24.0335 C   0  0  1  0  0  0
  -20.5895  -28.3685   23.1281 C   0  0  2  0  0  0
  -20.6784  -26.9411   22.5401 C   0  0  0  0  0  0
  -19.5755  -26.6386   21.5209 C   0  0  0  0  0  0
  -18.1937  -26.7931   22.1625 C   0  0  0  0  0  0
  -19.1545  -28.8849   23.2887 C   0  0  0  0  0  0
  -18.9466  -30.1454   23.8898 C   0  0  0  0  0  0
  -17.6465  -30.6587   24.0563 C   0  0  0  0  0  0
  -25.9044  -34.9451   23.5112 C   0  0  0  0  0  0
  -16.5356  -29.9088   23.6326 C   0  0  0  0  0  0
  -16.7278  -28.6505   23.0349 C   0  0  0  0  0  0
  -26.4494  -31.6584   25.0726 C   0  0  0  0  0  0
  -25.3733  -31.3728   26.1459 C   0  0  0  0  0  0
  -27.0321  -30.3010   24.6164 C   0  0  0  0  0  0
  -27.6066  -32.4302   25.7496 C   0  0  0  0  0  0
  -27.5582  -37.1798   24.8462 C   0  0  0  0  0  0
  -21.4190  -29.3049   22.3678 N   0  0  0  0  0  0
  -26.4286  -37.3779   23.9417 N   0  0  0  0  0  0
  -24.6881  -31.0636   22.0981 N   0  0  0  0  0  0
  -23.4212  -28.8169   23.2991 O   0  0  0  0  0  0
  -28.3367  -26.4709   20.1569 O   0  0  0  0  0  0
  -26.5611  -34.8922   22.4675 O   0  0  0  0  0  0
  -23.5438  -32.1395   23.7379 O   0  0  0  0  0  0
  -31.0155  -17.8799   20.5539 C   0  0  0  0  0  0
  -30.9662  -19.3047   20.4904 C   0  0  0  0  0  0
  -28.6335  -17.8562   20.8345 C   0  0  0  0  0  0
  -29.8401  -17.1114   20.7390 C   0  0  0  0  0  0
  -29.7638  -20.0606   20.5882 C   0  0  0  0  0  0
  -28.5747  -19.2810   20.7532 C   0  0  0  0  0  0
  -28.0942  -25.0176   19.9975 C   0  0  0  0  0  0
  -28.8244  -22.4327   20.3144 C   0  0  0  0  0  0
  -29.2619  -23.9694   20.2493 C   0  0  1  0  0  0
  -29.7818  -15.6550   20.8753 N   0  0  0  0  0  0
  -30.1332  -24.1048   19.1375 O   0  0  0  0  0  0
  -29.9031  -21.4708   20.5537 O   0  0  0  0  0  0
  -27.0046  -19.9905   20.8991 Cl  0  0  0  0  0  0
  -31.4829  -12.5234   19.1450 H   0  0  0  0  0  0
  -30.3868  -11.3892   19.8827 H   0  0  0  0  0  0
  -29.7736  -11.7578   17.4752 H   0  0  0  0  0  0
  -29.6503  -13.4773   17.7444 H   0  0  0  0  0  0
  -27.8683  -11.2891   18.8623 H   0  0  0  0  0  0
  -27.3767  -12.5755   17.7937 H   0  0  0  0  0  0
  -27.6777  -14.2472   19.5298 H   0  0  0  0  0  0
  -28.7092  -12.0246   21.3626 H   0  0  0  0  0  0
  -28.4425  -13.6697   21.8554 H   0  0  0  0  0  0
  -25.2756   -9.5685   22.4768 H   0  0  0  0  0  0
  -24.0008   -7.4626   22.7462 H   0  0  0  0  0  0
  -21.0848   -8.8771   19.8945 H   0  0  0  0  0  0
  -22.3695  -10.9677   19.6177 H   0  0  0  0  0  0
  -21.1993   -7.6148   23.9722 H   0  0  0  0  0  0
  -21.1486   -6.0522   25.9082 H   0  0  0  0  0  0
  -22.0596   -2.7610   23.2848 H   0  0  0  0  0  0
  -22.4099  -11.9890   22.4809 H   0  0  0  0  0  0
  -21.1109  -13.1257   22.2614 H   0  0  0  0  0  0
  -24.6462  -15.8287   20.4696 H   0  0  0  0  0  0
  -26.2462  -15.6049   19.9766 H   0  0  0  0  0  0
  -26.7193  -32.5449   23.1114 H   0  0  0  0  0  0
  -25.0091  -33.9713   25.0447 H   0  0  0  0  0  0
  -22.7126  -31.3096   21.4075 H   0  0  0  0  0  0
  -23.3753  -35.9626   23.3280 H   0  0  0  0  0  0
  -24.3594  -36.8924   22.2053 H   0  0  0  0  0  0
  -23.7241  -37.6497   23.6658 H   0  0  0  0  0  0
  -26.0926  -31.5584   20.6057 H   0  0  0  0  0  0
  -26.8429  -30.8413   21.9999 H   0  0  0  0  0  0
  -28.1133  -28.9846   21.1840 H   0  0  0  0  0  0
  -25.9365  -25.9467   18.9932 H   0  0  0  0  0  0
  -23.9605  -27.3232   19.0095 H   0  0  0  0  0  0
  -23.7516  -30.6076   19.4066 H   0  0  0  0  0  0
  -22.7508  -29.2605   19.8546 H   0  0  0  0  0  0
  -25.1289  -36.1927   25.0829 H   0  0  0  0  0  0
  -20.9991  -28.3250   24.1398 H   0  0  0  0  0  0
  -20.5685  -26.2293   23.3598 H   0  0  0  0  0  0
  -21.6652  -26.7446   22.1186 H   0  0  0  0  0  0
  -19.6913  -25.6297   21.1235 H   0  0  0  0  0  0
  -19.6686  -27.3201   20.6742 H   0  0  0  0  0  0
  -17.4204  -26.6671   21.4034 H   0  0  0  0  0  0
  -18.0344  -26.0082   22.9029 H   0  0  0  0  0  0
  -19.7939  -30.7276   24.2267 H   0  0  0  0  0  0
  -17.5016  -31.6267   24.5166 H   0  0  0  0  0  0
  -15.5356  -30.2988   23.7651 H   0  0  0  0  0  0
  -15.8679  -28.0823   22.7061 H   0  0  0  0  0  0
  -24.5901  -30.7084   25.7790 H   0  0  0  0  0  0
  -24.8935  -32.2900   26.4886 H   0  0  0  0  0  0
  -25.8058  -30.8901   27.0232 H   0  0  0  0  0  0
  -26.2883  -29.6773   24.1190 H   0  0  0  0  0  0
  -27.4032  -29.7247   25.4647 H   0  0  0  0  0  0
  -27.8752  -30.4301   23.9375 H   0  0  0  0  0  0
  -27.2702  -33.3620   26.2054 H   0  0  0  0  0  0
  -28.3894  -32.6819   25.0329 H   0  0  0  0  0  0
  -28.0710  -31.8429   26.5427 H   0  0  0  0  0  0
  -28.2579  -38.0114   24.7534 H   0  0  0  0  0  0
  -28.1102  -36.2650   24.6255 H   0  0  0  0  0  0
  -27.2311  -37.1404   25.8865 H   0  0  0  0  0  0
  -20.9354  -29.8790   21.6911 H   0  0  0  0  0  0
  -26.0167  -38.2852   24.1426 H   0  0  0  0  0  0
  -31.9767  -17.3917   20.4787 H   0  0  0  0  0  0
  -31.8964  -19.8400   20.3653 H   0  0  0  0  0  0
  -27.7037  -17.3270   20.9839 H   0  0  0  0  0  0
  -27.2853  -24.7558   20.6821 H   0  0  0  0  0  0
  -27.7176  -24.8276   18.9915 H   0  0  0  0  0  0
  -28.2934  -22.1556   19.4025 H   0  0  0  0  0  0
  -28.1150  -22.3527   21.1364 H   0  0  0  0  0  0
  -29.7877  -24.2305   21.1690 H   0  0  0  0  0  0
  -28.8815  -15.3055   21.1651 H   0  0  0  0  0  0
  -30.3803  -25.0243   19.0911 H   0  0  0  0  0  0
  1 25  1  0  0  0
  1 30  2  0  0  0
  1 80  1  0  0  0
  2  3  1  0  0  0
  2 25  1  0  0  0
  2 84  1  0  0  0
  2 85  1  0  0  0
  3  4  1  0  0  0
  3 86  1  0  0  0
  3 87  1  0  0  0
  4  5  1  0  0  0
  4 88  1  0  0  0
  4 89  1  0  0  0
  5  6  1  0  0  0
  5 26  1  0  0  0
  5 90  1  0  0  0
  6 25  1  0  0  0
  6 91  1  0  0  0
  6 92  1  0  0  0
  7  8  2  0  0  0
  7 26  1  0  0  0
  7 29  1  0  0  0
  8  9  1  0  0  0
  8 22  1  0  0  0
  9 10  1  0  0  0
  9 27  2  0  0  0
 10 11  2  0  0  0
 10 15  1  0  0  0
 11 12  1  0  0  0
 11 93  1  0  0  0
 12 13  2  0  0  0
 12 94  1  0  0  0
 13 14  1  0  0  0
 13 31  1  0  0  0
 14 15  2  0  0  0
 14 95  1  0  0  0
 15 96  1  0  0  0
 16 17  2  0  0  0
 16 21  1  0  0  0
 16 31  1  0  0  0
 17 18  1  0  0  0
 17 97  1  0  0  0
 18 19  2  0  0  0
 18 98  1  0  0  0
 19 20  1  0  0  0
 19 24  1  0  0  0
 20 21  2  0  0  0
 20 99  1  0  0  0
 21 23  1  0  0  0
 22 28  1  0  0  0
 22 32  2  0  0  0
 26 27  1  0  0  0
 28100  1  0  0  0
 28101  1  0  0  0
 29102  1  0  0  0
 29103  1  0  0  0
 33 34  1  0  0  0
 33 66  1  0  0  0
 33 70  2  0  0  0
 34 36  1  0  0  0
 34 59  1  0  0  0
 34104  1  0  0  0
 35 44  2  0  0  0
 35 45  1  0  0  0
 35 68  1  0  0  0
 36 56  1  0  0  0
 36105  1  0  0  0
 37 39  1  0  0  0
 37 47  1  0  0  0
 37 66  1  0  0  0
 37106  1  0  0  0
 38 43  2  0  0  0
 38 46  1  0  0  0
 38 47  1  0  0  0
 39 64  1  0  0  0
 39 67  2  0  0  0
 40 52  1  0  0  0
 40 53  2  0  0  0
 40 58  1  0  0  0
 41107  1  0  0  0
 41108  1  0  0  0
 41109  1  0  0  0
 41 48  1  0  0  0
 42 43  1  0  0  0
 42 66  1  0  0  0
 42110  1  0  0  0
 42111  1  0  0  0
 43 44  1  0  0  0
 44112  1  0  0  0
 45 46  2  0  0  0
 45113  1  0  0  0
 46114  1  0  0  0
 47115  1  0  0  0
 47116  1  0  0  0
 48 56  1  0  0  0
 48 65  1  0  0  0
 48117  1  0  0  0
 49 50  1  0  0  0
 49 53  1  0  0  0
 49 64  1  0  0  0
 49118  1  0  0  0
 50 51  1  0  0  0
 50119  1  0  0  0
 50120  1  0  0  0
 51 52  1  0  0  0
 51121  1  0  0  0
 51122  1  0  0  0
 52123  1  0  0  0
 52124  1  0  0  0
 53 54  1  0  0  0
 54 55  2  0  0  0
 54125  1  0  0  0
 55 57  1  0  0  0
 55126  1  0  0  0
 56 69  2  0  0  0
 57 58  2  0  0  0
 57127  1  0  0  0
 58128  1  0  0  0
 59 60  1  0  0  0
 59 61  1  0  0  0
 59 62  1  0  0  0
 60129  1  0  0  0
 60130  1  0  0  0
 60131  1  0  0  0
 61132  1  0  0  0
 61133  1  0  0  0
 61134  1  0  0  0
 62135  1  0  0  0
 62136  1  0  0  0
 62137  1  0  0  0
 63 65  1  0  0  0
 63138  1  0  0  0
 63139  1  0  0  0
 63140  1  0  0  0
 64141  1  0  0  0
 65142  1  0  0  0
 68 77  1  0  0  0
 71 72  2  0  0  0
 71 74  1  0  0  0
 71143  1  0  0  0
 72 75  1  0  0  0
 72144  1  0  0  0
 73 74  2  0  0  0
 73 76  1  0  0  0
 73145  1  0  0  0
 74 80  1  0  0  0
 75 76  2  0  0  0
 75 82  1  0  0  0
 76 83  1  0  0  0
 77 79  1  0  0  0
 77146  1  0  0  0
 77147  1  0  0  0
 78 79  1  0  0  0
 78 82  1  0  0  0
 78148  1  0  0  0
 78149  1  0  0  0
 79 81  1  0  0  0
 79150  1  0  0  0
 80151  1  0  0  0
 81152  1  0  0  0
M  ISO  4   1 100  68 101  77 101  80 100
M  END
> <chiral flag>
0

> <version>
0

> <s_m_source_file>
/data/baiqing/PycharmProjects/Reinvent-master-3.2/result/LINK_invent/BTK/process_docking_weight1_custom_sum_contain_oxygen_bond_distance_aromatic_linkinvent_7_9_3/rearranged_h_0003.sdf

> <i_m_source_file_index>
12

> <r_mmod_Potential_Energy-OPLS-2005>
90.5069885253906

> <r_mmod_Stretch_Energy-OPLS-2005>
79.1625061035156

> <r_mmod_Bend_Energy-OPLS-2005>
157.041793823242

> <r_mmod_Torsional_Energy-OPLS-2005>
226.37548828125

> <r_mmod_Improper_Torsional_Energy-OPLS-2005>
4.88206815719604

> <r_mmod_Van_der_Waal_Energy-OPLS-2005>
148.734588623047

> <r_mmod_Electrostatic_Energy-OPLS-2005>
-343.272521972656

> <r_mmod_Solvation_Energy-OPLS-2005>
-229.119888305664

> <b_mmod_Minimization_Converged-OPLS-2005>
0

> <r_mmod_RMS_Derivative-OPLS-2005>
0.823631048202515

$$$$
12
                    3D
 Structure written by MMmdl.
170178  0  0  1  0            999 V2000
  -30.7256  -14.4216   20.5714 C   0  0  0  0  0  0
  -30.4126  -12.2752   19.4143 C   0  0  0  0  0  0
  -29.4874  -12.5013   18.2019 C   0  0  0  0  0  0
  -28.0051  -12.3867   18.6114 C   0  0  0  0  0  0
  -27.6632  -13.2009   19.8878 C   0  0  2  0  0  0
  -28.7080  -12.9636   21.0013 C   0  0  0  0  0  0
  -25.2598  -13.8148   20.5689 C   0  0  0  0  0  0
  -24.1845  -13.0455   20.9212 C   0  0  0  0  0  0
  -24.6371  -11.6902   20.8772 C   0  0  0  0  0  0
  -23.9014  -10.4306   21.0435 C   0  0  0  0  0  0
  -24.3580   -9.4221   21.9206 C   0  0  0  0  0  0
  -23.6281   -8.2243   22.0758 C   0  0  0  0  0  0
  -22.4269   -8.0281   21.3546 C   0  0  0  0  0  0
  -21.9892   -9.0243   20.4641 C   0  0  0  0  0  0
  -22.7192  -10.2137   20.3067 C   0  0  0  0  0  0
  -21.6843   -6.0727   22.5275 C   0  0  0  0  0  0
  -21.4005   -6.5637   23.8205 C   0  0  0  0  0  0
  -21.3666   -5.6800   24.9173 C   0  0  0  0  0  0
  -21.6050   -4.3062   24.7228 C   0  0  0  0  0  0
  -21.8823   -3.8146   23.4353 C   0  0  0  0  0  0
  -21.9195   -4.6957   22.3405 C   0  0  0  0  0  0
  -22.7863  -13.5248   21.1870 C   0  0  0  0  0  0
  -22.1668   -4.2131   21.0983 F   0  0  0  0  0  0
  -21.5634   -3.4554   25.7747 F   0  0  0  0  0  0
  -30.0420  -13.2545   20.4450 N   0  0  0  0  0  0
  -26.3026  -12.9290   20.3439 N   0  0  0  0  0  0
  -25.9298  -11.6454   20.5827 N   0  0  0  0  0  0
  -22.0487  -12.8228   22.0400 N   0  0  0  0  0  0
  -25.4391  -15.1835   20.3965 N   0  0  0  0  0  0
  -31.8381  -14.6102   20.0694 O   0  0  0  0  0  0
  -21.6649   -6.8869   21.4232 O   0  0  0  0  0  0
  -22.3561  -14.5564   20.6722 O   0  0  0  0  0  0
  -24.6128  -31.8711   23.2083 C   0  0  0  0  0  0
  -25.9014  -32.4855   23.8386 C   0  0  1  0  0  0
  -27.2350  -27.4507   20.0782 C   0  0  0  0  0  0
  -25.5862  -33.8652   24.2298 N   0  0  0  0  0  0
  -23.3993  -30.4918   21.5513 C   0  0  2  0  0  0
  -24.8413  -28.9570   20.1152 C   0  0  0  0  0  0
  -22.7404  -29.4668   22.5009 C   0  0  0  0  0  0
  -18.0264  -28.1433   22.8480 C   0  0  0  0  0  0
  -24.1479  -36.7333   23.2626 C   0  0  0  0  0  0
  -25.9256  -30.8379   21.3579 C   0  0  0  0  0  0
  -25.9991  -29.4711   20.7098 C   0  0  0  0  0  0
  -27.1954  -28.7224   20.6916 C   0  0  0  0  0  0
  -26.0530  -26.9440   19.4879 C   0  0  0  0  0  0
  -24.8610  -27.6908   19.5043 C   0  0  0  0  0  0
  -23.6031  -29.8207   20.1670 C   0  0  0  0  0  0
  -25.4105  -36.3127   24.0316 C   0  0  1  0  0  0
  -20.5852  -28.3700   23.1326 C   0  0  2  0  0  0
  -20.6756  -26.9444   22.5420 C   0  0  0  0  0  0
  -19.5717  -26.6425   21.5231 C   0  0  0  0  0  0
  -18.1901  -26.7972   22.1645 C   0  0  0  0  0  0
  -19.1515  -28.8883   23.2895 C   0  0  0  0  0  0
  -18.9448  -30.1495   23.8899 C   0  0  0  0  0  0
  -17.6447  -30.6614   24.0598 C   0  0  0  0  0  0
  -25.9036  -34.9499   23.5110 C   0  0  0  0  0  0
  -16.5336  -29.9128   23.6342 C   0  0  0  0  0  0
  -16.7256  -28.6571   23.0309 C   0  0  0  0  0  0
  -26.4430  -31.6662   25.0735 C   0  0  0  0  0  0
  -25.3662  -31.3786   26.1469 C   0  0  0  0  0  0
  -27.0276  -30.3104   24.6142 C   0  0  0  0  0  0
  -27.6007  -32.4393   25.7505 C   0  0  0  0  0  0
  -27.5577  -37.1814   24.8453 C   0  0  0  0  0  0
  -21.4135  -29.3058   22.3741 N   0  0  0  0  0  0
  -26.4290  -37.3813   23.9406 N   0  0  0  0  0  0
  -24.6655  -31.0801   22.0989 N   0  0  0  0  0  0
  -23.4183  -28.8202   23.3038 O   0  0  0  0  0  0
  -28.4375  -26.7741   20.0775 O   0  0  0  0  0  0
  -26.5620  -34.8942   22.4687 O   0  0  0  0  0  0
  -23.5311  -32.1500   23.7447 O   0  0  0  0  0  0
  -31.5021  -19.4005   21.3763 C   0  0  0  0  0  0
  -31.6512  -18.5180   22.4582 C   0  0  0  0  0  0
  -30.8379  -18.9741   20.2125 C   0  0  0  0  0  0
  -31.1506  -17.2082   22.3641 C   0  0  0  0  0  0
  -30.3003  -17.6667   20.0990 C   0  0  0  0  0  0
  -30.4965  -16.7658   21.1947 C   0  0  0  0  0  0
  -27.9412  -24.5016   20.8576 C   0  0  0  0  0  0
  -28.3922  -18.3282   18.5601 C   0  0  0  0  0  0
  -30.4858  -17.2246   17.5835 C   0  0  0  0  0  0
  -28.4833  -25.3864   19.7210 C   0  0  0  0  0  0
  -27.0224  -20.8780   20.9835 C   0  0  0  0  0  0
  -26.3304  -20.5799   19.6404 C   0  0  0  0  0  0
  -26.8783  -22.3359   21.4534 C   0  0  0  0  0  0
  -26.1491  -19.0733   19.3638 C   0  0  0  0  0  0
  -29.5388  -17.3169   18.7970 C   0  0  1  0  0  0
  -30.0707  -15.4123   21.1938 N   0  0  0  0  0  0
  -27.4793  -23.2892   20.5214 N   0  0  0  0  0  0
  -27.3894  -18.3091   19.4487 N   0  0  0  0  0  0
  -27.9344  -24.9110   22.0226 O   0  0  0  0  0  0
  -28.4002  -19.0956   17.5920 O   0  0  0  0  0  0
  -28.9503  -16.1230   18.8606 F   0  0  0  0  0  0
  -31.4584  -12.3559   19.1143 H   0  0  0  0  0  0
  -30.2950  -11.2624   19.8022 H   0  0  0  0  0  0
  -29.7125  -11.7751   17.4190 H   0  0  0  0  0  0
  -29.6781  -13.4868   17.7718 H   0  0  0  0  0  0
  -27.7850  -11.3321   18.7771 H   0  0  0  0  0  0
  -27.3668  -12.7037   17.7858 H   0  0  0  0  0  0
  -27.7068  -14.2510   19.6124 H   0  0  0  0  0  0
  -28.6708  -11.9253   21.3363 H   0  0  0  0  0  0
  -28.4778  -13.5571   21.8867 H   0  0  0  0  0  0
  -25.2724   -9.5709   22.4780 H   0  0  0  0  0  0
  -24.0009   -7.4633   22.7460 H   0  0  0  0  0  0
  -21.0846   -8.8742   19.8931 H   0  0  0  0  0  0
  -22.3659  -10.9677   19.6182 H   0  0  0  0  0  0
  -21.1980   -7.6148   23.9691 H   0  0  0  0  0  0
  -21.1490   -6.0544   25.9074 H   0  0  0  0  0  0
  -22.0594   -2.7608   23.2861 H   0  0  0  0  0  0
  -22.4109  -11.9875   22.4757 H   0  0  0  0  0  0
  -21.1089  -13.1233   22.2578 H   0  0  0  0  0  0
  -24.6644  -15.8351   20.4453 H   0  0  0  0  0  0
  -26.2590  -15.5680   19.9469 H   0  0  0  0  0  0
  -26.7091  -32.5563   23.1162 H   0  0  0  0  0  0
  -24.9958  -33.9849   25.0396 H   0  0  0  0  0  0
  -22.6867  -31.3070   21.4093 H   0  0  0  0  0  0
  -23.3740  -35.9670   23.3303 H   0  0  0  0  0  0
  -24.3540  -36.8963   22.2036 H   0  0  0  0  0  0
  -23.7265  -37.6538   23.6666 H   0  0  0  0  0  0
  -26.0229  -31.5917   20.5755 H   0  0  0  0  0  0
  -26.8214  -30.9039   21.9647 H   0  0  0  0  0  0
  -28.0903  -29.1178   21.1516 H   0  0  0  0  0  0
  -26.0254  -25.9809   19.0030 H   0  0  0  0  0  0
  -23.9697  -27.2888   19.0410 H   0  0  0  0  0  0
  -23.7020  -30.5934   19.4040 H   0  0  0  0  0  0
  -22.7327  -29.2291   19.8789 H   0  0  0  0  0  0
  -25.1289  -36.1974   25.0810 H   0  0  0  0  0  0
  -20.9921  -28.3285   24.1454 H   0  0  0  0  0  0
  -20.5697  -26.2321   23.3616 H   0  0  0  0  0  0
  -21.6624  -26.7515   22.1188 H   0  0  0  0  0  0
  -19.6878  -25.6342   21.1247 H   0  0  0  0  0  0
  -19.6643  -27.3256   20.6775 H   0  0  0  0  0  0
  -17.4169  -26.6707   21.4052 H   0  0  0  0  0  0
  -18.0282  -26.0149   22.9072 H   0  0  0  0  0  0
  -19.7927  -30.7322   24.2248 H   0  0  0  0  0  0
  -17.5009  -31.6279   24.5238 H   0  0  0  0  0  0
  -15.5341  -30.3030   23.7692 H   0  0  0  0  0  0
  -15.8660  -28.0939   22.6949 H   0  0  0  0  0  0
  -24.5790  -30.7211   25.7768 H   0  0  0  0  0  0
  -24.8884  -32.2950   26.4944 H   0  0  0  0  0  0
  -25.7942  -30.8896   27.0233 H   0  0  0  0  0  0
  -26.2862  -29.6886   24.1112 H   0  0  0  0  0  0
  -27.3951  -29.7324   25.4638 H   0  0  0  0  0  0
  -27.8722  -30.4422   23.9372 H   0  0  0  0  0  0
  -27.2629  -33.3677   26.2131 H   0  0  0  0  0  0
  -28.3787  -32.7017   25.0319 H   0  0  0  0  0  0
  -28.0733  -31.8511   26.5389 H   0  0  0  0  0  0
  -28.2589  -38.0113   24.7523 H   0  0  0  0  0  0
  -28.1081  -36.2654   24.6260 H   0  0  0  0  0  0
  -27.2284  -37.1443   25.8846 H   0  0  0  0  0  0
  -20.9310  -29.8790   21.6963 H   0  0  0  0  0  0
  -26.0170  -38.2884   24.1419 H   0  0  0  0  0  0
  -31.8935  -20.4068   21.4400 H   0  0  0  0  0  0
  -32.1580  -18.8418   23.3564 H   0  0  0  0  0  0
  -30.7291  -19.6740   19.3965 H   0  0  0  0  0  0
  -31.2926  -16.5340   23.1978 H   0  0  0  0  0  0
  -31.0070  -18.1637   17.3989 H   0  0  0  0  0  0
  -29.9355  -16.9724   16.6750 H   0  0  0  0  0  0
  -31.2371  -16.4494   17.7303 H   0  0  0  0  0  0
  -27.9967  -25.1789   18.7676 H   0  0  0  0  0  0
  -29.5308  -25.1232   19.5752 H   0  0  0  0  0  0
  -28.0778  -20.6107   20.9271 H   0  0  0  0  0  0
  -26.5958  -20.2304   21.7504 H   0  0  0  0  0  0
  -26.8842  -21.0464   18.8246 H   0  0  0  0  0  0
  -25.3429  -21.0439   19.6305 H   0  0  0  0  0  0
  -27.3292  -22.4301   22.4437 H   0  0  0  0  0  0
  -25.8223  -22.5847   21.5736 H   0  0  0  0  0  0
  -25.6924  -18.9184   18.3851 H   0  0  0  0  0  0
  -25.4502  -18.6524   20.0877 H   0  0  0  0  0  0
  -29.1822  -15.1966   21.6211 H   0  0  0  0  0  0
  -27.5151  -23.0310   19.5440 H   0  0  0  0  0  0
  -27.4787  -17.6552   20.2149 H   0  0  0  0  0  0
  1 25  1  0  0  0
  1 30  2  0  0  0
  1 86  1  0  0  0
  2  3  1  0  0  0
  2 25  1  0  0  0
  2 92  1  0  0  0
  2 93  1  0  0  0
  3  4  1  0  0  0
  3 94  1  0  0  0
  3 95  1  0  0  0
  4  5  1  0  0  0
  4 96  1  0  0  0
  4 97  1  0  0  0
  5  6  1  0  0  0
  5 26  1  0  0  0
  5 98  1  0  0  0
  6 25  1  0  0  0
  6 99  1  0  0  0
  6100  1  0  0  0
  7  8  2  0  0  0
  7 26  1  0  0  0
  7 29  1  0  0  0
  8  9  1  0  0  0
  8 22  1  0  0  0
  9 10  1  0  0  0
  9 27  2  0  0  0
 10 11  2  0  0  0
 10 15  1  0  0  0
 11 12  1  0  0  0
 11101  1  0  0  0
 12 13  2  0  0  0
 12102  1  0  0  0
 13 14  1  0  0  0
 13 31  1  0  0  0
 14 15  2  0  0  0
 14103  1  0  0  0
 15104  1  0  0  0
 16 17  2  0  0  0
 16 21  1  0  0  0
 16 31  1  0  0  0
 17 18  1  0  0  0
 17105  1  0  0  0
 18 19  2  0  0  0
 18106  1  0  0  0
 19 20  1  0  0  0
 19 24  1  0  0  0
 20 21  2  0  0  0
 20107  1  0  0  0
 21 23  1  0  0  0
 22 28  1  0  0  0
 22 32  2  0  0  0
 26 27  1  0  0  0
 28108  1  0  0  0
 28109  1  0  0  0
 29110  1  0  0  0
 29111  1  0  0  0
 33 34  1  0  0  0
 33 66  1  0  0  0
 33 70  2  0  0  0
 34 36  1  0  0  0
 34 59  1  0  0  0
 34112  1  0  0  0
 35 44  2  0  0  0
 35 45  1  0  0  0
 35 68  1  0  0  0
 36 56  1  0  0  0
 36113  1  0  0  0
 37 39  1  0  0  0
 37 47  1  0  0  0
 37 66  1  0  0  0
 37114  1  0  0  0
 38 43  2  0  0  0
 38 46  1  0  0  0
 38 47  1  0  0  0
 39 64  1  0  0  0
 39 67  2  0  0  0
 40 52  1  0  0  0
 40 53  2  0  0  0
 40 58  1  0  0  0
 41115  1  0  0  0
 41116  1  0  0  0
 41117  1  0  0  0
 41 48  1  0  0  0
 42 43  1  0  0  0
 42 66  1  0  0  0
 42118  1  0  0  0
 42119  1  0  0  0
 43 44  1  0  0  0
 44120  1  0  0  0
 45 46  2  0  0  0
 45121  1  0  0  0
 46122  1  0  0  0
 47123  1  0  0  0
 47124  1  0  0  0
 48 56  1  0  0  0
 48 65  1  0  0  0
 48125  1  0  0  0
 49 50  1  0  0  0
 49 53  1  0  0  0
 49 64  1  0  0  0
 49126  1  0  0  0
 50 51  1  0  0  0
 50127  1  0  0  0
 50128  1  0  0  0
 51 52  1  0  0  0
 51129  1  0  0  0
 51130  1  0  0  0
 52131  1  0  0  0
 52132  1  0  0  0
 53 54  1  0  0  0
 54 55  2  0  0  0
 54133  1  0  0  0
 55 57  1  0  0  0
 55134  1  0  0  0
 56 69  2  0  0  0
 57 58  2  0  0  0
 57135  1  0  0  0
 58136  1  0  0  0
 59 60  1  0  0  0
 59 61  1  0  0  0
 59 62  1  0  0  0
 60137  1  0  0  0
 60138  1  0  0  0
 60139  1  0  0  0
 61140  1  0  0  0
 61141  1  0  0  0
 61142  1  0  0  0
 62143  1  0  0  0
 62144  1  0  0  0
 62145  1  0  0  0
 63 65  1  0  0  0
 63146  1  0  0  0
 63147  1  0  0  0
 63148  1  0  0  0
 64149  1  0  0  0
 65150  1  0  0  0
 68 80  1  0  0  0
 71 72  2  0  0  0
 71 73  1  0  0  0
 71151  1  0  0  0
 72 74  1  0  0  0
 72152  1  0  0  0
 73 75  2  0  0  0
 73153  1  0  0  0
 74 76  2  0  0  0
 74154  1  0  0  0
 75 76  1  0  0  0
 75 85  1  0  0  0
 76 86  1  0  0  0
 77 80  1  0  0  0
 77 87  1  0  0  0
 77 89  2  0  0  0
 78 85  1  0  0  0
 78 88  1  0  0  0
 78 90  2  0  0  0
 79155  1  0  0  0
 79156  1  0  0  0
 79157  1  0  0  0
 79 85  1  0  0  0
 80158  1  0  0  0
 80159  1  0  0  0
 81 82  1  0  0  0
 81 83  1  0  0  0
 81160  1  0  0  0
 81161  1  0  0  0
 82 84  1  0  0  0
 82162  1  0  0  0
 82163  1  0  0  0
 83 87  1  0  0  0
 83164  1  0  0  0
 83165  1  0  0  0
 84 88  1  0  0  0
 84166  1  0  0  0
 84167  1  0  0  0
 85 91  1  0  0  0
 86168  1  0  0  0
 87169  1  0  0  0
 88170  1  0  0  0
M  ISO  4   1 100  68 101  80 101  86 100
M  END
> <chiral flag>
0

> <version>
0

> <s_m_source_file>
/data/baiqing/PycharmProjects/Reinvent-master-3.2/result/LINK_invent/BTK/process_docking_weight1_custom_sum_contain_oxygen_bond_distance_aromatic_linkinvent_7_9_3/rearranged_h_0003.sdf

> <i_m_source_file_index>
13

> <r_mmod_Potential_Energy-OPLS-2005>
-104.536064147949

> <r_mmod_Stretch_Energy-OPLS-2005>
37.686408996582

> <r_mmod_Bend_Energy-OPLS-2005>
103.968772888184

> <r_mmod_Torsional_Energy-OPLS-2005>
238.770477294922

> <r_mmod_Improper_Torsional_Energy-OPLS-2005>
3.59087371826172

> <r_mmod_Van_der_Waal_Energy-OPLS-2005>
152.419403076172

> <r_mmod_Electrostatic_Energy-OPLS-2005>
-394.858428955078

> <r_mmod_Solvation_Energy-OPLS-2005>
-256.544677734375

> <b_mmod_Minimization_Converged-OPLS-2005>
0

> <r_mmod_RMS_Derivative-OPLS-2005>
2.72804570198059

$$$$
13
                    3D
 Structure written by MMmdl.
168175  0  0  1  0            999 V2000
  -30.6680  -14.5271   20.5591 C   0  0  0  0  0  0
  -30.4332  -12.3406   19.4195 C   0  0  0  0  0  0
  -29.4942  -12.5026   18.2050 C   0  0  0  0  0  0
  -28.0171  -12.3546   18.6231 C   0  0  0  0  0  0
  -27.6584  -13.2050   19.8705 C   0  0  2  0  0  0
  -28.7048  -13.0019   20.9889 C   0  0  0  0  0  0
  -25.2587  -13.8151   20.5687 C   0  0  0  0  0  0
  -24.1835  -13.0432   20.9181 C   0  0  0  0  0  0
  -24.6386  -11.6900   20.8740 C   0  0  0  0  0  0
  -23.9051  -10.4288   21.0406 C   0  0  0  0  0  0
  -24.3605   -9.4205   21.9186 C   0  0  0  0  0  0
  -23.6284   -8.2241   22.0756 C   0  0  0  0  0  0
  -22.4268   -8.0275   21.3542 C   0  0  0  0  0  0
  -21.9902   -9.0248   20.4645 C   0  0  0  0  0  0
  -22.7227  -10.2129   20.3055 C   0  0  0  0  0  0
  -21.6850   -6.0732   22.5276 C   0  0  0  0  0  0
  -21.4014   -6.5637   23.8210 C   0  0  0  0  0  0
  -21.3657   -5.6789   24.9172 C   0  0  0  0  0  0
  -21.6044   -4.3053   24.7226 C   0  0  0  0  0  0
  -21.8820   -3.8144   23.4347 C   0  0  0  0  0  0
  -21.9195   -4.6959   22.3401 C   0  0  0  0  0  0
  -22.7859  -13.5235   21.1845 C   0  0  0  0  0  0
  -22.1662   -4.2146   21.0977 F   0  0  0  0  0  0
  -21.5629   -3.4537   25.7740 F   0  0  0  0  0  0
  -30.0262  -13.3319   20.4281 N   0  0  0  0  0  0
  -26.3009  -12.9313   20.3357 N   0  0  0  0  0  0
  -25.9311  -11.6477   20.5770 N   0  0  0  0  0  0
  -22.0502  -12.8223   22.0399 N   0  0  0  0  0  0
  -25.4332  -15.1866   20.4097 N   0  0  0  0  0  0
  -31.8139  -14.7207   20.1455 O   0  0  0  0  0  0
  -21.6636   -6.8872   21.4235 O   0  0  0  0  0  0
  -22.3549  -14.5548   20.6703 O   0  0  0  0  0  0
  -24.6195  -31.8657   23.2080 C   0  0  0  0  0  0
  -25.9074  -32.4803   23.8390 C   0  0  1  0  0  0
  -27.2304  -27.3899   20.1025 C   0  0  0  0  0  0
  -25.5923  -33.8604   24.2329 N   0  0  0  0  0  0
  -23.4082  -30.4914   21.5487 C   0  0  2  0  0  0
  -24.8544  -28.9553   20.1143 C   0  0  0  0  0  0
  -22.7432  -29.4657   22.4961 C   0  0  0  0  0  0
  -18.0280  -28.1377   22.8480 C   0  0  0  0  0  0
  -24.1485  -36.7306   23.2632 C   0  0  0  0  0  0
  -25.9434  -30.8200   21.3655 C   0  0  0  0  0  0
  -26.0199  -29.4519   20.7112 C   0  0  0  0  0  0
  -27.2108  -28.6806   20.6962 C   0  0  0  0  0  0
  -26.0392  -26.9229   19.4973 C   0  0  0  0  0  0
  -24.8622  -27.6924   19.5025 C   0  0  0  0  0  0
  -23.6190  -29.8271   20.1634 C   0  0  0  0  0  0
  -25.4101  -36.3097   24.0340 C   0  0  1  0  0  0
  -20.5874  -28.3676   23.1298 C   0  0  2  0  0  0
  -20.6775  -26.9407   22.5408 C   0  0  0  0  0  0
  -19.5762  -26.6383   21.5199 C   0  0  0  0  0  0
  -18.1935  -26.7922   22.1609 C   0  0  0  0  0  0
  -19.1530  -28.8839   23.2886 C   0  0  0  0  0  0
  -18.9458  -30.1438   23.8904 C   0  0  0  0  0  0
  -17.6465  -30.6580   24.0560 C   0  0  0  0  0  0
  -25.9038  -34.9465   23.5130 C   0  0  0  0  0  0
  -16.5356  -29.9081   23.6329 C   0  0  0  0  0  0
  -16.7270  -28.6503   23.0342 C   0  0  0  0  0  0
  -26.4497  -31.6576   25.0722 C   0  0  0  0  0  0
  -25.3754  -31.3673   26.1463 C   0  0  0  0  0  0
  -27.0336  -30.3020   24.6098 C   0  0  0  0  0  0
  -27.6079  -32.4288   25.7488 C   0  0  0  0  0  0
  -27.5589  -37.1791   24.8456 C   0  0  0  0  0  0
  -21.4157  -29.3045   22.3704 N   0  0  0  0  0  0
  -26.4281  -37.3788   23.9431 N   0  0  0  0  0  0
  -24.6758  -31.0736   22.0987 N   0  0  0  0  0  0
  -23.4195  -28.8185   23.3002 O   0  0  0  0  0  0
  -28.3836  -26.6120   20.1256 O   0  0  0  0  0  0
  -26.5592  -34.8922   22.4687 O   0  0  0  0  0  0
  -23.5382  -32.1431   23.7455 O   0  0  0  0  0  0
  -27.8587  -21.7888   19.3139 C   0  0  0  0  0  0
  -27.6849  -19.6407   17.8847 C   0  0  0  0  0  0
  -26.3260  -21.6352   17.2989 C   0  0  0  0  0  0
  -28.7643  -21.7528   16.9098 C   0  0  0  0  0  0
  -30.0003  -18.0057   20.2744 C   0  0  0  0  0  0
  -29.6391  -19.4366   20.8111 C   0  0  0  0  0  0
  -29.5002  -24.3486   20.4207 C   0  0  0  0  0  0
  -30.2723  -16.9308   21.3778 C   0  0  0  0  0  0
  -30.0159  -20.6564   19.9005 C   0  0  0  0  0  0
  -29.3429  -22.8728   20.9521 C   0  0  0  0  0  0
  -28.2039  -25.1693   20.1455 C   0  0  0  0  0  0
  -27.6947  -21.1882   17.8769 C   0  0  0  0  0  0
  -29.9074  -15.5349   21.0436 N   0  0  0  0  0  0
  -29.0605  -21.8040   19.9511 N   0  0  0  0  0  0
  -26.8855  -22.3561   19.8222 O   0  0  0  0  0  0
  -31.4732  -12.4650   19.1125 H   0  0  0  0  0  0
  -30.3613  -11.3332   19.8317 H   0  0  0  0  0  0
  -29.7385  -11.7654   17.4393 H   0  0  0  0  0  0
  -29.6478  -13.4812   17.7480 H   0  0  0  0  0  0
  -27.8375  -11.2997   18.8329 H   0  0  0  0  0  0
  -27.3611  -12.6123   17.7911 H   0  0  0  0  0  0
  -27.6960  -14.2490   19.5599 H   0  0  0  0  0  0
  -28.6983  -11.9656   21.3305 H   0  0  0  0  0  0
  -28.4626  -13.5988   21.8693 H   0  0  0  0  0  0
  -25.2747   -9.5685   22.4762 H   0  0  0  0  0  0
  -23.9994   -7.4635   22.7478 H   0  0  0  0  0  0
  -21.0836   -8.8761   19.8951 H   0  0  0  0  0  0
  -22.3680  -10.9667   19.6167 H   0  0  0  0  0  0
  -21.2003   -7.6146   23.9712 H   0  0  0  0  0  0
  -21.1479   -6.0521   25.9075 H   0  0  0  0  0  0
  -22.0601   -2.7608   23.2848 H   0  0  0  0  0  0
  -22.4114  -11.9867   22.4760 H   0  0  0  0  0  0
  -21.1124  -13.1250   22.2623 H   0  0  0  0  0  0
  -24.6703  -15.8452   20.5205 H   0  0  0  0  0  0
  -26.2869  -15.6221   20.0836 H   0  0  0  0  0  0
  -26.7139  -32.5511   23.1146 H   0  0  0  0  0  0
  -25.0096  -33.9757   25.0491 H   0  0  0  0  0  0
  -22.6981  -31.3097   21.4078 H   0  0  0  0  0  0
  -23.3750  -35.9630   23.3261 H   0  0  0  0  0  0
  -24.3592  -36.8962   22.2054 H   0  0  0  0  0  0
  -23.7232  -37.6501   23.6670 H   0  0  0  0  0  0
  -26.0590  -31.5831   20.5950 H   0  0  0  0  0  0
  -26.8309  -30.8750   21.9846 H   0  0  0  0  0  0
  -28.1084  -29.0597   21.1644 H   0  0  0  0  0  0
  -25.9923  -25.9593   19.0130 H   0  0  0  0  0  0
  -23.9665  -27.3062   19.0354 H   0  0  0  0  0  0
  -23.7314  -30.6046   19.4067 H   0  0  0  0  0  0
  -22.7417  -29.2523   19.8619 H   0  0  0  0  0  0
  -25.1261  -36.1957   25.0829 H   0  0  0  0  0  0
  -20.9965  -28.3247   24.1418 H   0  0  0  0  0  0
  -20.5681  -26.2278   23.3594 H   0  0  0  0  0  0
  -21.6645  -26.7445   22.1201 H   0  0  0  0  0  0
  -19.6931  -25.6295   21.1229 H   0  0  0  0  0  0
  -19.6715  -27.3189   20.6726 H   0  0  0  0  0  0
  -17.4206  -26.6663   21.4005 H   0  0  0  0  0  0
  -18.0341  -26.0056   22.9001 H   0  0  0  0  0  0
  -19.7934  -30.7242   24.2292 H   0  0  0  0  0  0
  -17.5020  -31.6266   24.5153 H   0  0  0  0  0  0
  -15.5356  -30.2984   23.7651 H   0  0  0  0  0  0
  -15.8669  -28.0830   22.7052 H   0  0  0  0  0  0
  -24.5954  -30.6989   25.7800 H   0  0  0  0  0  0
  -24.8904  -32.2810   26.4903 H   0  0  0  0  0  0
  -25.8104  -30.8864   27.0231 H   0  0  0  0  0  0
  -26.2886  -29.6760   24.1172 H   0  0  0  0  0  0
  -27.4140  -29.7279   25.4557 H   0  0  0  0  0  0
  -27.8696  -30.4346   23.9227 H   0  0  0  0  0  0
  -27.2730  -33.3603   26.2063 H   0  0  0  0  0  0
  -28.3890  -32.6818   25.0306 H   0  0  0  0  0  0
  -28.0730  -31.8399   26.5405 H   0  0  0  0  0  0
  -28.2549  -38.0140   24.7570 H   0  0  0  0  0  0
  -28.1144  -36.2682   24.6183 H   0  0  0  0  0  0
  -27.2327  -37.1318   25.8858 H   0  0  0  0  0  0
  -20.9325  -29.8789   21.6942 H   0  0  0  0  0  0
  -26.0167  -38.2858   24.1465 H   0  0  0  0  0  0
  -27.2251  -19.2402   18.7890 H   0  0  0  0  0  0
  -28.6816  -19.2126   17.7985 H   0  0  0  0  0  0
  -27.1237  -19.2396   17.0400 H   0  0  0  0  0  0
  -25.4928  -21.2608   17.8962 H   0  0  0  0  0  0
  -26.1776  -21.2679   16.2825 H   0  0  0  0  0  0
  -26.2410  -22.7223   17.2583 H   0  0  0  0  0  0
  -29.7723  -21.3994   17.1132 H   0  0  0  0  0  0
  -28.7948  -22.8422   16.9501 H   0  0  0  0  0  0
  -28.5473  -21.4758   15.8775 H   0  0  0  0  0  0
  -30.8772  -18.0619   19.6283 H   0  0  0  0  0  0
  -29.1858  -17.6703   19.6314 H   0  0  0  0  0  0
  -30.1221  -19.5902   21.7772 H   0  0  0  0  0  0
  -28.5698  -19.4519   21.0257 H   0  0  0  0  0  0
  -30.1413  -24.3628   19.5385 H   0  0  0  0  0  0
  -30.0537  -24.8958   21.1848 H   0  0  0  0  0  0
  -29.6899  -17.1844   22.2648 H   0  0  0  0  0  0
  -31.3164  -16.9788   21.6919 H   0  0  0  0  0  0
  -30.1553  -20.3118   18.8834 H   0  0  0  0  0  0
  -31.0137  -21.0029   20.1742 H   0  0  0  0  0  0
  -28.5775  -22.8469   21.7298 H   0  0  0  0  0  0
  -30.2629  -22.6191   21.4793 H   0  0  0  0  0  0
  -27.4700  -24.9267   20.9161 H   0  0  0  0  0  0
  -27.7978  -24.8337   19.1918 H   0  0  0  0  0  0
  -28.9694  -15.2605   21.2947 H   0  0  0  0  0  0
  1 25  1  0  0  0
  1 30  2  0  0  0
  1 83  1  0  0  0
  2  3  1  0  0  0
  2 25  1  0  0  0
  2 86  1  0  0  0
  2 87  1  0  0  0
  3  4  1  0  0  0
  3 88  1  0  0  0
  3 89  1  0  0  0
  4  5  1  0  0  0
  4 90  1  0  0  0
  4 91  1  0  0  0
  5  6  1  0  0  0
  5 26  1  0  0  0
  5 92  1  0  0  0
  6 25  1  0  0  0
  6 93  1  0  0  0
  6 94  1  0  0  0
  7  8  2  0  0  0
  7 26  1  0  0  0
  7 29  1  0  0  0
  8  9  1  0  0  0
  8 22  1  0  0  0
  9 10  1  0  0  0
  9 27  2  0  0  0
 10 11  2  0  0  0
 10 15  1  0  0  0
 11 12  1  0  0  0
 11 95  1  0  0  0
 12 13  2  0  0  0
 12 96  1  0  0  0
 13 14  1  0  0  0
 13 31  1  0  0  0
 14 15  2  0  0  0
 14 97  1  0  0  0
 15 98  1  0  0  0
 16 17  2  0  0  0
 16 21  1  0  0  0
 16 31  1  0  0  0
 17 18  1  0  0  0
 17 99  1  0  0  0
 18 19  2  0  0  0
 18100  1  0  0  0
 19 20  1  0  0  0
 19 24  1  0  0  0
 20 21  2  0  0  0
 20101  1  0  0  0
 21 23  1  0  0  0
 22 28  1  0  0  0
 22 32  2  0  0  0
 26 27  1  0  0  0
 28102  1  0  0  0
 28103  1  0  0  0
 29104  1  0  0  0
 29105  1  0  0  0
 33 34  1  0  0  0
 33 66  1  0  0  0
 33 70  2  0  0  0
 34 36  1  0  0  0
 34 59  1  0  0  0
 34106  1  0  0  0
 35 44  2  0  0  0
 35 45  1  0  0  0
 35 68  1  0  0  0
 36 56  1  0  0  0
 36107  1  0  0  0
 37 39  1  0  0  0
 37 47  1  0  0  0
 37 66  1  0  0  0
 37108  1  0  0  0
 38 43  2  0  0  0
 38 46  1  0  0  0
 38 47  1  0  0  0
 39 64  1  0  0  0
 39 67  2  0  0  0
 40 52  1  0  0  0
 40 53  2  0  0  0
 40 58  1  0  0  0
 41109  1  0  0  0
 41110  1  0  0  0
 41111  1  0  0  0
 41 48  1  0  0  0
 42 43  1  0  0  0
 42 66  1  0  0  0
 42112  1  0  0  0
 42113  1  0  0  0
 43 44  1  0  0  0
 44114  1  0  0  0
 45 46  2  0  0  0
 45115  1  0  0  0
 46116  1  0  0  0
 47117  1  0  0  0
 47118  1  0  0  0
 48 56  1  0  0  0
 48 65  1  0  0  0
 48119  1  0  0  0
 49 50  1  0  0  0
 49 53  1  0  0  0
 49 64  1  0  0  0
 49120  1  0  0  0
 50 51  1  0  0  0
 50121  1  0  0  0
 50122  1  0  0  0
 51 52  1  0  0  0
 51123  1  0  0  0
 51124  1  0  0  0
 52125  1  0  0  0
 52126  1  0  0  0
 53 54  1  0  0  0
 54 55  2  0  0  0
 54127  1  0  0  0
 55 57  1  0  0  0
 55128  1  0  0  0
 56 69  2  0  0  0
 57 58  2  0  0  0
 57129  1  0  0  0
 58130  1  0  0  0
 59 60  1  0  0  0
 59 61  1  0  0  0
 59 62  1  0  0  0
 60131  1  0  0  0
 60132  1  0  0  0
 60133  1  0  0  0
 61134  1  0  0  0
 61135  1  0  0  0
 61136  1  0  0  0
 62137  1  0  0  0
 62138  1  0  0  0
 62139  1  0  0  0
 63 65  1  0  0  0
 63140  1  0  0  0
 63141  1  0  0  0
 63142  1  0  0  0
 64143  1  0  0  0
 65144  1  0  0  0
 68 81  1  0  0  0
 71 82  1  0  0  0
 71 84  1  0  0  0
 71 85  2  0  0  0
 72145  1  0  0  0
 72146  1  0  0  0
 72147  1  0  0  0
 72 82  1  0  0  0
 73 82  1  0  0  0
 73148  1  0  0  0
 73149  1  0  0  0
 73150  1  0  0  0
 74 82  1  0  0  0
 74151  1  0  0  0
 74152  1  0  0  0
 74153  1  0  0  0
 75 76  1  0  0  0
 75 78  1  0  0  0
 75154  1  0  0  0
 75155  1  0  0  0
 76 79  1  0  0  0
 76156  1  0  0  0
 76157  1  0  0  0
 77 80  1  0  0  0
 77 81  1  0  0  0
 77158  1  0  0  0
 77159  1  0  0  0
 78 83  1  0  0  0
 78160  1  0  0  0
 78161  1  0  0  0
 79 84  1  0  0  0
 79162  1  0  0  0
 79163  1  0  0  0
 80 84  1  0  0  0
 80164  1  0  0  0
 80165  1  0  0  0
 81166  1  0  0  0
 81167  1  0  0  0
 83168  1  0  0  0
M  ISO  4   1 100  68 101  81 101  83 100
M  END
> <chiral flag>
0

> <version>
0

> <s_m_source_file>
/data/baiqing/PycharmProjects/Reinvent-master-3.2/result/LINK_invent/BTK/process_docking_weight1_custom_sum_contain_oxygen_bond_distance_aromatic_linkinvent_7_9_3/rearranged_h_0003.sdf

> <i_m_source_file_index>
14

> <r_mmod_Potential_Energy-OPLS-2005>
73.2959289550781

> <r_mmod_Stretch_Energy-OPLS-2005>
56.2900695800781

> <r_mmod_Bend_Energy-OPLS-2005>
123.056938171387

> <r_mmod_Torsional_Energy-OPLS-2005>
290.177398681641

> <r_mmod_Improper_Torsional_Energy-OPLS-2005>
4.54221153259277

> <r_mmod_Van_der_Waal_Energy-OPLS-2005>
142.343933105469

> <r_mmod_Electrostatic_Energy-OPLS-2005>
-352.080352783203

> <r_mmod_Solvation_Energy-OPLS-2005>
-212.372024536133

> <b_mmod_Minimization_Converged-OPLS-2005>
0

> <r_mmod_RMS_Derivative-OPLS-2005>
1.16918385028839

$$$$
14
                    3D
 Structure written by MMmdl.
151158  0  0  1  0            999 V2000
  -30.6553  -14.5615   20.5164 C   0  0  0  0  0  0
  -30.4343  -12.3448   19.4472 C   0  0  0  0  0  0
  -29.5058  -12.5000   18.2222 C   0  0  0  0  0  0
  -28.0269  -12.3522   18.6318 C   0  0  0  0  0  0
  -27.6599  -13.2100   19.8722 C   0  0  2  0  0  0
  -28.7030  -13.0341   21.0011 C   0  0  0  0  0  0
  -25.2584  -13.8162   20.5687 C   0  0  0  0  0  0
  -24.1839  -13.0436   20.9184 C   0  0  0  0  0  0
  -24.6399  -11.6904   20.8735 C   0  0  0  0  0  0
  -23.9065  -10.4291   21.0404 C   0  0  0  0  0  0
  -24.3613   -9.4209   21.9185 C   0  0  0  0  0  0
  -23.6290   -8.2244   22.0754 C   0  0  0  0  0  0
  -22.4274   -8.0280   21.3544 C   0  0  0  0  0  0
  -21.9908   -9.0255   20.4647 C   0  0  0  0  0  0
  -22.7234  -10.2136   20.3058 C   0  0  0  0  0  0
  -21.6852   -6.0737   22.5281 C   0  0  0  0  0  0
  -21.4013   -6.5642   23.8214 C   0  0  0  0  0  0
  -21.3659   -5.6793   24.9176 C   0  0  0  0  0  0
  -21.6042   -4.3056   24.7226 C   0  0  0  0  0  0
  -21.8819   -3.8149   23.4347 C   0  0  0  0  0  0
  -21.9193   -4.6966   22.3403 C   0  0  0  0  0  0
  -22.7864  -13.5235   21.1847 C   0  0  0  0  0  0
  -22.1662   -4.2151   21.0980 F   0  0  0  0  0  0
  -21.5628   -3.4539   25.7739 F   0  0  0  0  0  0
  -30.0293  -13.3503   20.4461 N   0  0  0  0  0  0
  -26.3021  -12.9338   20.3357 N   0  0  0  0  0  0
  -25.9330  -11.6495   20.5769 N   0  0  0  0  0  0
  -22.0500  -12.8230   22.0403 N   0  0  0  0  0  0
  -25.4306  -15.1882   20.4098 N   0  0  0  0  0  0
  -31.7943  -14.7459   20.0817 O   0  0  0  0  0  0
  -21.6637   -6.8878   21.4242 O   0  0  0  0  0  0
  -22.3554  -14.5544   20.6697 O   0  0  0  0  0  0
  -24.6214  -31.8639   23.2075 C   0  0  0  0  0  0
  -25.9085  -32.4801   23.8384 C   0  0  1  0  0  0
  -27.2255  -27.3712   20.1033 C   0  0  0  0  0  0
  -25.5919  -33.8602   24.2308 N   0  0  0  0  0  0
  -23.4114  -30.4896   21.5492 C   0  0  2  0  0  0
  -24.8565  -28.9542   20.1093 C   0  0  0  0  0  0
  -22.7445  -29.4644   22.4958 C   0  0  0  0  0  0
  -18.0278  -28.1380   22.8491 C   0  0  0  0  0  0
  -24.1487  -36.7311   23.2637 C   0  0  0  0  0  0
  -25.9475  -30.8102   21.3710 C   0  0  0  0  0  0
  -26.0215  -29.4415   20.7145 C   0  0  0  0  0  0
  -27.2071  -28.6586   20.7081 C   0  0  0  0  0  0
  -26.0402  -26.9304   19.4662 C   0  0  0  0  0  0
  -24.8648  -27.7015   19.4786 C   0  0  0  0  0  0
  -23.6224  -29.8285   20.1616 C   0  0  0  0  0  0
  -25.4106  -36.3097   24.0333 C   0  0  1  0  0  0
  -20.5876  -28.3678   23.1297 C   0  0  2  0  0  0
  -20.6771  -26.9407   22.5414 C   0  0  0  0  0  0
  -19.5748  -26.6385   21.5213 C   0  0  0  0  0  0
  -18.1926  -26.7925   22.1623 C   0  0  0  0  0  0
  -19.1531  -28.8844   23.2893 C   0  0  0  0  0  0
  -18.9454  -30.1447   23.8907 C   0  0  0  0  0  0
  -17.6457  -30.6586   24.0563 C   0  0  0  0  0  0
  -25.9042  -34.9465   23.5117 C   0  0  0  0  0  0
  -16.5347  -29.9089   23.6325 C   0  0  0  0  0  0
  -16.7266  -28.6504   23.0347 C   0  0  0  0  0  0
  -26.4492  -31.6591   25.0732 C   0  0  0  0  0  0
  -25.3750  -31.3715   26.1476 C   0  0  0  0  0  0
  -27.0327  -30.3021   24.6144 C   0  0  0  0  0  0
  -27.6054  -32.4318   25.7506 C   0  0  0  0  0  0
  -27.5575  -37.1810   24.8463 C   0  0  0  0  0  0
  -21.4166  -29.3041   22.3700 N   0  0  0  0  0  0
  -26.4286  -37.3783   23.9409 N   0  0  0  0  0  0
  -24.6785  -31.0701   22.1001 N   0  0  0  0  0  0
  -23.4196  -28.8175   23.3006 O   0  0  0  0  0  0
  -28.3648  -26.5671   20.1596 O   0  0  0  0  0  0
  -26.5600  -34.8920   22.4678 O   0  0  0  0  0  0
  -23.5393  -32.1416   23.7435 O   0  0  0  0  0  0
  -29.9427  -17.0084   20.3659 C   0  0  0  0  0  0
  -30.2398  -18.1042   21.4380 C   0  0  0  0  0  0
  -28.2075  -25.1343   19.9110 C   0  0  0  0  0  0
  -29.2662  -24.1793   20.5573 C   0  0  0  0  0  0
  -29.9175  -20.3642   20.4052 C   0  0  0  0  0  0
  -29.8174  -21.8260   20.9840 C   0  0  0  0  0  0
  -29.8654  -15.6054   20.8638 N   0  0  0  0  0  0
  -29.4912  -19.3441   21.3363 O   0  0  0  0  0  0
  -29.0968  -22.7873   20.1739 O   0  0  0  0  0  0
  -31.4781  -12.4560   19.1472 H   0  0  0  0  0  0
  -30.3514  -11.3425   19.8699 H   0  0  0  0  0  0
  -29.7587  -11.7587   17.4631 H   0  0  0  0  0  0
  -29.6633  -13.4758   17.7598 H   0  0  0  0  0  0
  -27.8494  -11.2980   18.8472 H   0  0  0  0  0  0
  -27.3765  -12.6041   17.7933 H   0  0  0  0  0  0
  -27.6900  -14.2503   19.5482 H   0  0  0  0  0  0
  -28.6939  -12.0094   21.3754 H   0  0  0  0  0  0
  -28.4608  -13.6637   21.8586 H   0  0  0  0  0  0
  -25.2760   -9.5685   22.4755 H   0  0  0  0  0  0
  -24.0002   -7.4637   22.7472 H   0  0  0  0  0  0
  -21.0840   -8.8774   19.8954 H   0  0  0  0  0  0
  -22.3696  -10.9673   19.6164 H   0  0  0  0  0  0
  -21.2005   -7.6149   23.9717 H   0  0  0  0  0  0
  -21.1480   -6.0523   25.9077 H   0  0  0  0  0  0
  -22.0598   -2.7611   23.2847 H   0  0  0  0  0  0
  -22.4113  -11.9886   22.4785 H   0  0  0  0  0  0
  -21.1121  -13.1263   22.2609 H   0  0  0  0  0  0
  -24.6640  -15.8434   20.5187 H   0  0  0  0  0  0
  -26.2817  -15.6270   20.0812 H   0  0  0  0  0  0
  -26.7157  -32.5488   23.1142 H   0  0  0  0  0  0
  -25.0089  -33.9756   25.0468 H   0  0  0  0  0  0
  -22.7027  -31.3087   21.4110 H   0  0  0  0  0  0
  -23.3738  -35.9655   23.3305 H   0  0  0  0  0  0
  -24.3581  -36.8924   22.2051 H   0  0  0  0  0  0
  -23.7254  -37.6523   23.6652 H   0  0  0  0  0  0
  -26.0704  -31.5737   20.6015 H   0  0  0  0  0  0
  -26.8328  -30.8610   21.9934 H   0  0  0  0  0  0
  -28.1002  -29.0266   21.1935 H   0  0  0  0  0  0
  -25.9945  -25.9816   18.9532 H   0  0  0  0  0  0
  -23.9737  -27.3260   18.9946 H   0  0  0  0  0  0
  -23.7382  -30.6078   19.4073 H   0  0  0  0  0  0
  -22.7435  -29.2556   19.8597 H   0  0  0  0  0  0
  -25.1283  -36.1955   25.0825 H   0  0  0  0  0  0
  -20.9968  -28.3250   24.1416 H   0  0  0  0  0  0
  -20.5675  -26.2286   23.3609 H   0  0  0  0  0  0
  -21.6641  -26.7445   22.1203 H   0  0  0  0  0  0
  -19.6911  -25.6300   21.1234 H   0  0  0  0  0  0
  -19.6685  -27.3205   20.6752 H   0  0  0  0  0  0
  -17.4196  -26.6671   21.4025 H   0  0  0  0  0  0
  -18.0322  -26.0066   22.9016 H   0  0  0  0  0  0
  -19.7933  -30.7257   24.2281 H   0  0  0  0  0  0
  -17.5015  -31.6265   24.5168 H   0  0  0  0  0  0
  -15.5351  -30.2995   23.7644 H   0  0  0  0  0  0
  -15.8663  -28.0830   22.7056 H   0  0  0  0  0  0
  -24.5923  -30.7058   25.7824 H   0  0  0  0  0  0
  -24.8950  -32.2878   26.4917 H   0  0  0  0  0  0
  -25.8105  -30.8896   27.0238 H   0  0  0  0  0  0
  -26.2885  -29.6782   24.1174 H   0  0  0  0  0  0
  -27.4053  -29.7258   25.4624 H   0  0  0  0  0  0
  -27.8744  -30.4323   23.9335 H   0  0  0  0  0  0
  -27.2656  -33.3602   26.2106 H   0  0  0  0  0  0
  -28.3859  -32.6902   25.0339 H   0  0  0  0  0  0
  -28.0726  -31.8432   26.5410 H   0  0  0  0  0  0
  -28.2595  -38.0105   24.7496 H   0  0  0  0  0  0
  -28.1067  -36.2633   24.6297 H   0  0  0  0  0  0
  -27.2294  -37.1473   25.8868 H   0  0  0  0  0  0
  -20.9327  -29.8783   21.6941 H   0  0  0  0  0  0
  -26.0170  -38.2861   24.1406 H   0  0  0  0  0  0
  -30.6541  -17.0949   19.5428 H   0  0  0  0  0  0
  -28.9678  -17.2228   19.9266 H   0  0  0  0  0  0
  -31.3103  -18.3080   21.4926 H   0  0  0  0  0  0
  -29.9771  -17.6939   22.4136 H   0  0  0  0  0  0
  -27.2444  -24.7911   20.2910 H   0  0  0  0  0  0
  -28.1973  -24.9789   18.8314 H   0  0  0  0  0  0
  -29.1932  -24.2677   21.6418 H   0  0  0  0  0  0
  -30.2711  -24.5014   20.2815 H   0  0  0  0  0  0
  -30.9434  -20.1789   20.0829 H   0  0  0  0  0  0
  -29.3018  -20.2769   19.5094 H   0  0  0  0  0  0
  -30.8295  -22.1951   21.1586 H   0  0  0  0  0  0
  -29.3415  -21.7928   21.9649 H   0  0  0  0  0  0
  -28.9732  -15.3399   21.2544 H   0  0  0  0  0  0
  1 25  1  0  0  0
  1 30  2  0  0  0
  1 77  1  0  0  0
  2  3  1  0  0  0
  2 25  1  0  0  0
  2 80  1  0  0  0
  2 81  1  0  0  0
  3  4  1  0  0  0
  3 82  1  0  0  0
  3 83  1  0  0  0
  4  5  1  0  0  0
  4 84  1  0  0  0
  4 85  1  0  0  0
  5  6  1  0  0  0
  5 26  1  0  0  0
  5 86  1  0  0  0
  6 25  1  0  0  0
  6 87  1  0  0  0
  6 88  1  0  0  0
  7  8  2  0  0  0
  7 26  1  0  0  0
  7 29  1  0  0  0
  8  9  1  0  0  0
  8 22  1  0  0  0
  9 10  1  0  0  0
  9 27  2  0  0  0
 10 11  2  0  0  0
 10 15  1  0  0  0
 11 12  1  0  0  0
 11 89  1  0  0  0
 12 13  2  0  0  0
 12 90  1  0  0  0
 13 14  1  0  0  0
 13 31  1  0  0  0
 14 15  2  0  0  0
 14 91  1  0  0  0
 15 92  1  0  0  0
 16 17  2  0  0  0
 16 21  1  0  0  0
 16 31  1  0  0  0
 17 18  1  0  0  0
 17 93  1  0  0  0
 18 19  2  0  0  0
 18 94  1  0  0  0
 19 20  1  0  0  0
 19 24  1  0  0  0
 20 21  2  0  0  0
 20 95  1  0  0  0
 21 23  1  0  0  0
 22 28  1  0  0  0
 22 32  2  0  0  0
 26 27  1  0  0  0
 28 96  1  0  0  0
 28 97  1  0  0  0
 29 98  1  0  0  0
 29 99  1  0  0  0
 33 34  1  0  0  0
 33 66  1  0  0  0
 33 70  2  0  0  0
 34 36  1  0  0  0
 34 59  1  0  0  0
 34100  1  0  0  0
 35 44  2  0  0  0
 35 45  1  0  0  0
 35 68  1  0  0  0
 36 56  1  0  0  0
 36101  1  0  0  0
 37 39  1  0  0  0
 37 47  1  0  0  0
 37 66  1  0  0  0
 37102  1  0  0  0
 38 43  2  0  0  0
 38 46  1  0  0  0
 38 47  1  0  0  0
 39 64  1  0  0  0
 39 67  2  0  0  0
 40 52  1  0  0  0
 40 53  2  0  0  0
 40 58  1  0  0  0
 41103  1  0  0  0
 41104  1  0  0  0
 41105  1  0  0  0
 41 48  1  0  0  0
 42 43  1  0  0  0
 42 66  1  0  0  0
 42106  1  0  0  0
 42107  1  0  0  0
 43 44  1  0  0  0
 44108  1  0  0  0
 45 46  2  0  0  0
 45109  1  0  0  0
 46110  1  0  0  0
 47111  1  0  0  0
 47112  1  0  0  0
 48 56  1  0  0  0
 48 65  1  0  0  0
 48113  1  0  0  0
 49 50  1  0  0  0
 49 53  1  0  0  0
 49 64  1  0  0  0
 49114  1  0  0  0
 50 51  1  0  0  0
 50115  1  0  0  0
 50116  1  0  0  0
 51 52  1  0  0  0
 51117  1  0  0  0
 51118  1  0  0  0
 52119  1  0  0  0
 52120  1  0  0  0
 53 54  1  0  0  0
 54 55  2  0  0  0
 54121  1  0  0  0
 55 57  1  0  0  0
 55122  1  0  0  0
 56 69  2  0  0  0
 57 58  2  0  0  0
 57123  1  0  0  0
 58124  1  0  0  0
 59 60  1  0  0  0
 59 61  1  0  0  0
 59 62  1  0  0  0
 60125  1  0  0  0
 60126  1  0  0  0
 60127  1  0  0  0
 61128  1  0  0  0
 61129  1  0  0  0
 61130  1  0  0  0
 62131  1  0  0  0
 62132  1  0  0  0
 62133  1  0  0  0
 63 65  1  0  0  0
 63134  1  0  0  0
 63135  1  0  0  0
 63136  1  0  0  0
 64137  1  0  0  0
 65138  1  0  0  0
 68 73  1  0  0  0
 71 72  1  0  0  0
 71 77  1  0  0  0
 71139  1  0  0  0
 71140  1  0  0  0
 72 78  1  0  0  0
 72141  1  0  0  0
 72142  1  0  0  0
 73 74  1  0  0  0
 73143  1  0  0  0
 73144  1  0  0  0
 74 79  1  0  0  0
 74145  1  0  0  0
 74146  1  0  0  0
 75 76  1  0  0  0
 75 78  1  0  0  0
 75147  1  0  0  0
 75148  1  0  0  0
 76 79  1  0  0  0
 76149  1  0  0  0
 76150  1  0  0  0
 77151  1  0  0  0
M  ISO  4   1 100  68 101  73 101  77 100
M  END
> <chiral flag>
0

> <version>
0

> <s_m_source_file>
/data/baiqing/PycharmProjects/Reinvent-master-3.2/result/LINK_invent/BTK/process_docking_weight1_custom_sum_contain_oxygen_bond_distance_aromatic_linkinvent_7_9_3/rearranged_h_0003.sdf

> <i_m_source_file_index>
15

> <r_mmod_Potential_Energy-OPLS-2005>
-33.6661491394043

> <r_mmod_Stretch_Energy-OPLS-2005>
54.1415176391602

> <r_mmod_Bend_Energy-OPLS-2005>
117.664672851562

> <r_mmod_Torsional_Energy-OPLS-2005>
224.785095214844

> <r_mmod_Improper_Torsional_Energy-OPLS-2005>
6.75608205795288

> <r_mmod_Van_der_Waal_Energy-OPLS-2005>
133.051956176758

> <r_mmod_Electrostatic_Energy-OPLS-2005>
-384.544891357422

> <r_mmod_Solvation_Energy-OPLS-2005>
-214.149185180664

> <b_mmod_Minimization_Converged-OPLS-2005>
0

> <r_mmod_RMS_Derivative-OPLS-2005>
0.78693014383316

$$$$
15
                    3D
 Structure written by MMmdl.
165174  0  0  1  0            999 V2000
  -30.7138  -14.3762   20.5731 C   0  0  0  0  0  0
  -30.4322  -12.2719   19.3578 C   0  0  0  0  0  0
  -29.4859  -12.5205   18.1681 C   0  0  0  0  0  0
  -28.0078  -12.3781   18.5916 C   0  0  0  0  0  0
  -27.6600  -13.1884   19.8685 C   0  0  2  0  0  0
  -28.7145  -12.9097   20.9639 C   0  0  0  0  0  0
  -25.2556  -13.7956   20.5719 C   0  0  0  0  0  0
  -24.1811  -13.0299   20.9235 C   0  0  0  0  0  0
  -24.6380  -11.6783   20.8761 C   0  0  0  0  0  0
  -23.9033  -10.4214   21.0412 C   0  0  0  0  0  0
  -24.3597   -9.4141   21.9198 C   0  0  0  0  0  0
  -23.6261   -8.2177   22.0760 C   0  0  0  0  0  0
  -22.4244   -8.0230   21.3553 C   0  0  0  0  0  0
  -21.9896   -9.0202   20.4642 C   0  0  0  0  0  0
  -22.7228  -10.2070   20.3052 C   0  0  0  0  0  0
  -21.6818   -6.0707   22.5290 C   0  0  0  0  0  0
  -21.3984   -6.5604   23.8223 C   0  0  0  0  0  0
  -21.3647   -5.6754   24.9189 C   0  0  0  0  0  0
  -21.6056   -4.3022   24.7217 C   0  0  0  0  0  0
  -21.8827   -3.8119   23.4337 C   0  0  0  0  0  0
  -21.9180   -4.6943   22.3395 C   0  0  0  0  0  0
  -22.7851  -13.5157   21.1835 C   0  0  0  0  0  0
  -22.1675   -4.2143   21.0967 F   0  0  0  0  0  0
  -21.5627   -3.4501   25.7724 F   0  0  0  0  0  0
  -30.0444  -13.2148   20.4043 N   0  0  0  0  0  0
  -26.3021  -12.9177   20.3375 N   0  0  0  0  0  0
  -25.9293  -11.6355   20.5741 N   0  0  0  0  0  0
  -22.0403  -12.8234   22.0371 N   0  0  0  0  0  0
  -25.4089  -15.1609   20.4129 N   0  0  0  0  0  0
  -31.8858  -14.5697   20.2469 O   0  0  0  0  0  0
  -21.6606   -6.8839   21.4244 O   0  0  0  0  0  0
  -22.3605  -14.5468   20.6627 O   0  0  0  0  0  0
  -24.6229  -31.8799   23.2229 C   0  0  0  0  0  0
  -25.9108  -32.4905   23.8478 C   0  0  1  0  0  0
  -27.2427  -27.5081   20.0578 C   0  0  0  0  0  0
  -25.5953  -33.8697   24.2409 N   0  0  0  0  0  0
  -23.4227  -30.5088   21.5766 C   0  0  2  0  0  0
  -24.8422  -28.9820   20.1219 C   0  0  0  0  0  0
  -22.7701  -29.4846   22.5264 C   0  0  0  0  0  0
  -17.9902  -28.1190   22.8723 C   0  0  0  0  0  0
  -24.1496  -36.7342   23.2635 C   0  0  0  0  0  0
  -25.9339  -30.8583   21.3675 C   0  0  0  0  0  0
  -25.9998  -29.5008   20.7099 C   0  0  0  0  0  0
  -27.1994  -28.7674   20.6828 C   0  0  0  0  0  0
  -26.0630  -26.9958   19.4605 C   0  0  0  0  0  0
  -24.8610  -27.7215   19.5029 C   0  0  0  0  0  0
  -23.6064  -29.8450   20.1845 C   0  0  0  0  0  0
  -25.4112  -36.3156   24.0351 C   0  0  1  0  0  0
  -20.4734  -28.4554   22.7848 C   0  0  2  0  0  0
  -20.6822  -26.9571   22.5425 C   0  0  0  0  0  0
  -19.5498  -26.4542   21.6215 C   0  0  0  0  0  0
  -18.1523  -26.7468   22.2134 C   0  0  0  0  0  0
  -19.1109  -28.8960   23.2516 C   0  0  0  0  0  0
  -18.9293  -30.1472   23.8750 C   0  0  0  0  0  0
  -17.6308  -30.6496   24.0761 C   0  0  0  0  0  0
  -25.9050  -34.9523   23.5164 C   0  0  0  0  0  0
  -16.5134  -29.8964   23.6724 C   0  0  0  0  0  0
  -16.6956  -28.6296   23.0860 C   0  0  0  0  0  0
  -26.4504  -31.6640   25.0772 C   0  0  0  0  0  0
  -25.3741  -31.3699   26.1482 C   0  0  0  0  0  0
  -27.0332  -30.3083   24.6121 C   0  0  0  0  0  0
  -27.6082  -32.4327   25.7547 C   0  0  0  0  0  0
  -27.5597  -37.1840   24.8473 C   0  0  0  0  0  0
  -21.4491  -29.4413   22.3989 N   0  0  0  0  0  0
  -26.4305  -37.3828   23.9411 N   0  0  0  0  0  0
  -24.6809  -31.0935   22.1148 N   0  0  0  0  0  0
  -23.4228  -28.7614   23.2814 O   0  0  0  0  0  0
  -28.4530  -26.8494   20.0736 O   0  0  0  0  0  0
  -26.5564  -34.8937   22.4696 O   0  0  0  0  0  0
  -23.5398  -32.1515   23.7603 O   0  0  0  0  0  0
  -29.0587  -16.2187   24.2398 C   0  0  0  0  0  0
  -28.0761  -17.2049   24.0297 C   0  0  0  0  0  0
  -28.7911  -20.5455   18.5307 C   0  0  0  0  0  0
  -28.4957  -20.4848   20.9581 C   0  0  0  0  0  0
  -29.7018  -15.6268   23.1361 C   0  0  0  0  0  0
  -27.7673  -17.6272   22.7215 C   0  0  0  0  0  0
  -28.1871  -21.8151   18.4989 C   0  0  0  0  0  0
  -27.8904  -21.7426   20.9242 C   0  0  0  0  0  0
  -28.8914  -19.8643   19.7590 C   0  0  0  0  0  0
  -29.3901  -16.0489   21.8234 C   0  0  0  0  0  0
  -28.4597  -17.0909   21.6128 C   0  0  0  0  0  0
  -27.7269  -22.4040   19.6928 C   0  0  0  0  0  0
  -29.2483  -18.4200   19.7888 C   0  0  0  0  0  0
  -26.9115  -17.7819   19.7562 C   0  0  0  0  0  0
  -27.6927  -24.5801   20.4989 C   0  0  0  0  0  0
  -28.5083  -25.5182   19.5965 C   0  0  0  0  0  0
  -29.8922  -15.4136   20.6703 N   0  0  0  0  0  0
  -28.2683  -17.6458   20.3094 N   0  0  0  0  0  0
  -30.3311  -18.0192   19.3538 O   0  0  0  0  0  0
  -27.1030  -23.6119   19.6496 O   0  0  0  0  0  0
  -31.4694  -12.4012   19.0417 H   0  0  0  0  0  0
  -30.3484  -11.2484   19.7233 H   0  0  0  0  0  0
  -29.7191  -11.8274   17.3607 H   0  0  0  0  0  0
  -29.6524  -13.5218   17.7625 H   0  0  0  0  0  0
  -27.8244  -11.3182   18.7710 H   0  0  0  0  0  0
  -27.3546  -12.6694   17.7679 H   0  0  0  0  0  0
  -27.6987  -14.2432   19.5976 H   0  0  0  0  0  0
  -28.6822  -11.8598   21.2563 H   0  0  0  0  0  0
  -28.4960  -13.4717   21.8704 H   0  0  0  0  0  0
  -25.2757   -9.5597   22.4776 H   0  0  0  0  0  0
  -23.9934   -7.4561   22.7485 H   0  0  0  0  0  0
  -21.0821   -8.8747   19.8951 H   0  0  0  0  0  0
  -22.3727  -10.9609   19.6150 H   0  0  0  0  0  0
  -21.1983   -7.6109   23.9734 H   0  0  0  0  0  0
  -21.1470   -6.0474   25.9092 H   0  0  0  0  0  0
  -22.0631   -2.7581   23.2827 H   0  0  0  0  0  0
  -22.3917  -11.9925   22.4903 H   0  0  0  0  0  0
  -21.1001  -13.1318   22.2355 H   0  0  0  0  0  0
  -24.6352  -15.8025   20.5382 H   0  0  0  0  0  0
  -26.2605  -15.6157   20.1212 H   0  0  0  0  0  0
  -26.7192  -32.5636   23.1257 H   0  0  0  0  0  0
  -25.0162  -33.9892   25.0600 H   0  0  0  0  0  0
  -22.7180  -31.3320   21.4367 H   0  0  0  0  0  0
  -23.3756  -35.9687   23.3329 H   0  0  0  0  0  0
  -24.3580  -36.8907   22.2033 H   0  0  0  0  0  0
  -23.7240  -37.6561   23.6615 H   0  0  0  0  0  0
  -26.0375  -31.6273   20.6010 H   0  0  0  0  0  0
  -26.8282  -30.9078   21.9777 H   0  0  0  0  0  0
  -28.0979  -29.1651   21.1342 H   0  0  0  0  0  0
  -26.0433  -26.0398   18.9601 H   0  0  0  0  0  0
  -23.9671  -27.3122   19.0515 H   0  0  0  0  0  0
  -23.7055  -30.6220   19.4260 H   0  0  0  0  0  0
  -22.7253  -29.2645   19.8992 H   0  0  0  0  0  0
  -25.1279  -36.2048   25.0842 H   0  0  0  0  0  0
  -20.1548  -28.6748   21.7647 H   0  0  0  0  0  0
  -21.6560  -26.7574   22.0966 H   0  0  0  0  0  0
  -20.6558  -26.4233   23.4938 H   0  0  0  0  0  0
  -19.6578  -25.3838   21.4448 H   0  0  0  0  0  0
  -19.6338  -26.9173   20.6370 H   0  0  0  0  0  0
  -17.3912  -26.6177   21.4422 H   0  0  0  0  0  0
  -17.9326  -26.0034   22.9800 H   0  0  0  0  0  0
  -19.7834  -30.7517   24.1479 H   0  0  0  0  0  0
  -17.4932  -31.6200   24.5323 H   0  0  0  0  0  0
  -15.5153  -30.2838   23.8235 H   0  0  0  0  0  0
  -15.8313  -28.0518   22.7933 H   0  0  0  0  0  0
  -24.5911  -30.7092   25.7754 H   0  0  0  0  0  0
  -24.8948  -32.2835   26.4992 H   0  0  0  0  0  0
  -25.8043  -30.8768   27.0204 H   0  0  0  0  0  0
  -26.2876  -29.6830   24.1181 H   0  0  0  0  0  0
  -27.4117  -29.7317   25.4577 H   0  0  0  0  0  0
  -27.8716  -30.4414   23.9272 H   0  0  0  0  0  0
  -27.2727  -33.3603   26.2189 H   0  0  0  0  0  0
  -28.3867  -32.6908   25.0367 H   0  0  0  0  0  0
  -28.0783  -31.8393   26.5396 H   0  0  0  0  0  0
  -28.2628  -38.0125   24.7499 H   0  0  0  0  0  0
  -28.1071  -36.2643   24.6333 H   0  0  0  0  0  0
  -27.2302  -37.1534   25.8875 H   0  0  0  0  0  0
  -21.0670  -30.1548   21.7913 H   0  0  0  0  0  0
  -26.0207  -38.2931   24.1372 H   0  0  0  0  0  0
  -29.3086  -15.9042   25.2454 H   0  0  0  0  0  0
  -27.5652  -17.6480   24.8707 H   0  0  0  0  0  0
  -29.1060  -20.0615   17.6169 H   0  0  0  0  0  0
  -28.5968  -19.9771   21.9062 H   0  0  0  0  0  0
  -30.4104  -14.8312   23.3163 H   0  0  0  0  0  0
  -27.0329  -18.4094   22.5812 H   0  0  0  0  0  0
  -28.0650  -22.3198   17.5514 H   0  0  0  0  0  0
  -27.5226  -22.1755   21.8465 H   0  0  0  0  0  0
  -26.1400  -17.6954   20.5165 H   0  0  0  0  0  0
  -26.7538  -17.0018   19.0139 H   0  0  0  0  0  0
  -26.7239  -18.7191   19.2318 H   0  0  0  0  0  0
  -28.3317  -24.1987   21.2962 H   0  0  0  0  0  0
  -26.8756  -25.0766   21.0158 H   0  0  0  0  0  0
  -28.1714  -25.4881   18.5592 H   0  0  0  0  0  0
  -29.5467  -25.1848   19.5788 H   0  0  0  0  0  0
  -29.3069  -15.5163   19.8562 H   0  0  0  0  0  0
  1 25  1  0  0  0
  1 30  2  0  0  0
  1 87  1  0  0  0
  2  3  1  0  0  0
  2 25  1  0  0  0
  2 91  1  0  0  0
  2 92  1  0  0  0
  3  4  1  0  0  0
  3 93  1  0  0  0
  3 94  1  0  0  0
  4  5  1  0  0  0
  4 95  1  0  0  0
  4 96  1  0  0  0
  5  6  1  0  0  0
  5 26  1  0  0  0
  5 97  1  0  0  0
  6 25  1  0  0  0
  6 98  1  0  0  0
  6 99  1  0  0  0
  7  8  2  0  0  0
  7 26  1  0  0  0
  7 29  1  0  0  0
  8  9  1  0  0  0
  8 22  1  0  0  0
  9 10  1  0  0  0
  9 27  2  0  0  0
 10 11  2  0  0  0
 10 15  1  0  0  0
 11 12  1  0  0  0
 11100  1  0  0  0
 12 13  2  0  0  0
 12101  1  0  0  0
 13 14  1  0  0  0
 13 31  1  0  0  0
 14 15  2  0  0  0
 14102  1  0  0  0
 15103  1  0  0  0
 16 17  2  0  0  0
 16 21  1  0  0  0
 16 31  1  0  0  0
 17 18  1  0  0  0
 17104  1  0  0  0
 18 19  2  0  0  0
 18105  1  0  0  0
 19 20  1  0  0  0
 19 24  1  0  0  0
 20 21  2  0  0  0
 20106  1  0  0  0
 21 23  1  0  0  0
 22 28  1  0  0  0
 22 32  2  0  0  0
 26 27  1  0  0  0
 28107  1  0  0  0
 28108  1  0  0  0
 29109  1  0  0  0
 29110  1  0  0  0
 33 34  1  0  0  0
 33 66  1  0  0  0
 33 70  2  0  0  0
 34 36  1  0  0  0
 34 59  1  0  0  0
 34111  1  0  0  0
 35 44  2  0  0  0
 35 45  1  0  0  0
 35 68  1  0  0  0
 36 56  1  0  0  0
 36112  1  0  0  0
 37 39  1  0  0  0
 37 47  1  0  0  0
 37 66  1  0  0  0
 37113  1  0  0  0
 38 43  2  0  0  0
 38 46  1  0  0  0
 38 47  1  0  0  0
 39 64  1  0  0  0
 39 67  2  0  0  0
 40 52  1  0  0  0
 40 53  2  0  0  0
 40 58  1  0  0  0
 41114  1  0  0  0
 41115  1  0  0  0
 41116  1  0  0  0
 41 48  1  0  0  0
 42 43  1  0  0  0
 42 66  1  0  0  0
 42117  1  0  0  0
 42118  1  0  0  0
 43 44  1  0  0  0
 44119  1  0  0  0
 45 46  2  0  0  0
 45120  1  0  0  0
 46121  1  0  0  0
 47122  1  0  0  0
 47123  1  0  0  0
 48 56  1  0  0  0
 48 65  1  0  0  0
 48124  1  0  0  0
 49 50  1  0  0  0
 49 53  1  0  0  0
 49 64  1  0  0  0
 49125  1  0  0  0
 50 51  1  0  0  0
 50126  1  0  0  0
 50127  1  0  0  0
 51 52  1  0  0  0
 51128  1  0  0  0
 51129  1  0  0  0
 52130  1  0  0  0
 52131  1  0  0  0
 53 54  1  0  0  0
 54 55  2  0  0  0
 54132  1  0  0  0
 55 57  1  0  0  0
 55133  1  0  0  0
 56 69  2  0  0  0
 57 58  2  0  0  0
 57134  1  0  0  0
 58135  1  0  0  0
 59 60  1  0  0  0
 59 61  1  0  0  0
 59 62  1  0  0  0
 60136  1  0  0  0
 60137  1  0  0  0
 60138  1  0  0  0
 61139  1  0  0  0
 61140  1  0  0  0
 61141  1  0  0  0
 62142  1  0  0  0
 62143  1  0  0  0
 62144  1  0  0  0
 63 65  1  0  0  0
 63145  1  0  0  0
 63146  1  0  0  0
 63147  1  0  0  0
 64148  1  0  0  0
 65149  1  0  0  0
 68 86  1  0  0  0
 71 72  2  0  0  0
 71 75  1  0  0  0
 71150  1  0  0  0
 72 76  1  0  0  0
 72151  1  0  0  0
 73 77  2  0  0  0
 73 79  1  0  0  0
 73152  1  0  0  0
 74 78  1  0  0  0
 74 79  2  0  0  0
 74153  1  0  0  0
 75 80  2  0  0  0
 75154  1  0  0  0
 76 81  2  0  0  0
 76155  1  0  0  0
 77 82  1  0  0  0
 77156  1  0  0  0
 78 82  2  0  0  0
 78157  1  0  0  0
 79 83  1  0  0  0
 80 81  1  0  0  0
 80 87  1  0  0  0
 81 88  1  0  0  0
 82 90  1  0  0  0
 83 88  1  0  0  0
 83 89  2  0  0  0
 84 88  1  0  0  0
 84158  1  0  0  0
 84159  1  0  0  0
 84160  1  0  0  0
 85 86  1  0  0  0
 85 90  1  0  0  0
 85161  1  0  0  0
 85162  1  0  0  0
 86163  1  0  0  0
 86164  1  0  0  0
 87165  1  0  0  0
M  ISO  4   1 100  68 101  86 101  87 100
M  END
> <chiral flag>
0

> <version>
0

> <s_m_source_file>
/data/baiqing/PycharmProjects/Reinvent-master-3.2/result/LINK_invent/BTK/process_docking_weight1_custom_sum_contain_oxygen_bond_distance_aromatic_linkinvent_7_9_3/rearranged_h_0003.sdf

> <i_m_source_file_index>
16

> <r_mmod_Potential_Energy-OPLS-2005>
366.618865966797

> <r_mmod_Stretch_Energy-OPLS-2005>
28.7613353729248

> <r_mmod_Bend_Energy-OPLS-2005>
210.467712402344

> <r_mmod_Torsional_Energy-OPLS-2005>
429.504821777344

> <r_mmod_Improper_Torsional_Energy-OPLS-2005>
18.4935741424561

> <r_mmod_Van_der_Waal_Energy-OPLS-2005>
207.8955078125

> <r_mmod_Electrostatic_Energy-OPLS-2005>
-335.350952148438

> <r_mmod_Solvation_Energy-OPLS-2005>
-229.300338745117

> <b_mmod_Minimization_Converged-OPLS-2005>
0

> <r_mmod_RMS_Derivative-OPLS-2005>
4.47290420532227

$$$$
16
                    3D
 Structure written by MMmdl.
143150  0  0  1  0            999 V2000
  -30.1636  -16.0165   20.2837 C   0  0  0  0  0  0
  -30.4021  -13.3807   19.5097 C   0  0  0  0  0  0
  -29.5672  -12.7447   18.3499 C   0  0  0  0  0  0
  -28.1808  -12.2975   18.8321 C   0  0  0  0  0  0
  -27.5888  -13.3376   19.8001 C   0  0  2  0  0  0
  -28.5861  -13.8471   20.8777 C   0  0  0  0  0  0
  -25.2337  -13.8308   20.5832 C   0  0  0  0  0  0
  -24.1745  -13.0427   20.9297 C   0  0  0  0  0  0
  -24.6485  -11.6955   20.8763 C   0  0  0  0  0  0
  -23.9183  -10.4297   21.0405 C   0  0  0  0  0  0
  -24.3690   -9.4205   21.9200 C   0  0  0  0  0  0
  -23.6323   -8.2263   22.0773 C   0  0  0  0  0  0
  -22.4301   -8.0322   21.3557 C   0  0  0  0  0  0
  -21.9971   -9.0311   20.4658 C   0  0  0  0  0  0
  -22.7347  -10.2160   20.3056 C   0  0  0  0  0  0
  -21.6865   -6.0767   22.5277 C   0  0  0  0  0  0
  -21.4023   -6.5660   23.8211 C   0  0  0  0  0  0
  -21.3650   -5.6801   24.9170 C   0  0  0  0  0  0
  -21.6034   -4.3069   24.7210 C   0  0  0  0  0  0
  -21.8818   -3.8167   23.4328 C   0  0  0  0  0  0
  -21.9194   -4.6989   22.3390 C   0  0  0  0  0  0
  -22.7748  -13.5156   21.1899 C   0  0  0  0  0  0
  -22.1667   -4.2180   21.0968 F   0  0  0  0  0  0
  -21.5617   -3.4544   25.7721 F   0  0  0  0  0  0
  -29.6793  -14.5908   20.1704 N   0  0  0  0  0  0
  -26.2827  -12.9698   20.3296 N   0  0  0  0  0  0
  -25.9450  -11.6736   20.5678 N   0  0  0  0  0  0
  -22.0376  -12.8144   22.0431 N   0  0  0  0  0  0
  -25.3914  -15.2038   20.4227 N   0  0  0  0  0  0
  -31.4110  -15.8730   20.3150 O   0  0  0  0  0  0
  -21.6650   -6.8922   21.4243 O   0  0  0  0  0  0
  -22.3446  -14.5464   20.6738 O   0  0  0  0  0  0
  -24.7056  -31.7721   23.1279 C   0  0  0  0  0  0
  -25.9532  -32.4316   23.7901 C   0  0  1  0  0  0
  -27.2397  -26.4470   20.2423 C   0  0  0  0  0  0
  -25.6018  -33.8158   24.1777 N   0  0  0  0  0  0
  -23.5424  -30.3631   21.4905 C   0  0  2  0  0  0
  -25.0002  -28.6446   20.1351 C   0  0  0  0  0  0
  -22.7854  -29.4187   22.4644 C   0  0  0  0  0  0
  -18.0371  -28.1416   22.8423 C   0  0  0  0  0  0
  -24.1517  -36.7085   23.2660 C   0  0  0  0  0  0
  -26.1337  -30.4200   21.4327 C   0  0  0  0  0  0
  -26.1981  -28.9547   20.7902 C   0  0  0  0  0  0
  -27.2916  -27.8963   20.7967 C   0  0  0  0  0  0
  -26.0015  -26.4115   19.5305 C   0  0  0  0  0  0
  -24.9557  -27.3989   19.4822 C   0  0  0  0  0  0
  -23.8105  -29.6337   20.1397 C   0  0  0  0  0  0
  -25.4171  -36.2793   24.0256 C   0  0  1  0  0  0
  -20.6014  -28.3800   23.1070 C   0  0  2  0  0  0
  -20.6839  -26.9442   22.5381 C   0  0  0  0  0  0
  -19.5827  -26.6358   21.5191 C   0  0  0  0  0  0
  -18.2003  -26.7940   22.1583 C   0  0  0  0  0  0
  -19.1638  -28.8931   23.2716 C   0  0  0  0  0  0
  -18.9548  -30.1508   23.8772 C   0  0  0  0  0  0
  -17.6539  -30.6592   24.0541 C   0  0  0  0  0  0
  -25.9163  -34.9196   23.4875 C   0  0  0  0  0  0
  -16.5425  -29.9075   23.6350 C   0  0  0  0  0  0
  -16.7348  -28.6498   23.0359 C   0  0  0  0  0  0
  -26.4636  -31.6450   25.0620 C   0  0  0  0  0  0
  -25.3610  -31.3840   26.1159 C   0  0  0  0  0  0
  -27.0610  -30.2754   24.6715 C   0  0  0  0  0  0
  -27.6057  -32.4362   25.7419 C   0  0  0  0  0  0
  -27.5566  -37.1691   24.8469 C   0  0  0  0  0  0
  -21.4482  -29.3015   22.3371 N   0  0  0  0  0  0
  -26.4271  -37.3581   23.9410 N   0  0  0  0  0  0
  -24.8204  -30.8911   22.0685 N   0  0  0  0  0  0
  -23.4189  -28.7845   23.3110 O   0  0  0  0  0  0
  -28.2103  -25.1382   20.2091 O   0  0  0  0  0  0
  -26.5834  -34.8827   22.4520 O   0  0  0  0  0  0
  -23.6030  -32.0923   23.6086 O   0  0  0  0  0  0
  -28.1464  -17.3478   19.4672 C   0  0  0  0  0  0
  -28.8124  -21.3013   19.9737 C   0  0  0  0  0  0
  -29.3809  -19.3622   20.5689 C   0  0  0  0  0  0
  -28.2518  -23.2636   20.5080 C   0  0  0  0  0  0
  -29.4090  -17.4905   20.1879 N   0  0  0  0  0  0
  -31.3491  -13.7206   19.0871 H   0  0  0  0  0  0
  -30.6891  -12.6298   20.2484 H   0  0  0  0  0  0
  -30.1007  -11.9032   17.9056 H   0  0  0  0  0  0
  -29.4507  -13.4882   17.5599 H   0  0  0  0  0  0
  -28.2969  -11.3475   19.3561 H   0  0  0  0  0  0
  -27.5119  -12.1116   17.9905 H   0  0  0  0  0  0
  -27.3888  -14.1854   19.1460 H   0  0  0  0  0  0
  -28.9521  -13.0395   21.5131 H   0  0  0  0  0  0
  -28.0824  -14.5461   21.5462 H   0  0  0  0  0  0
  -25.2818   -9.5670   22.4811 H   0  0  0  0  0  0
  -24.0006   -7.4646   22.7503 H   0  0  0  0  0  0
  -21.0901   -8.8859   19.8964 H   0  0  0  0  0  0
  -22.3825  -10.9720   19.6176 H   0  0  0  0  0  0
  -21.2033   -7.6171   23.9723 H   0  0  0  0  0  0
  -21.1463   -6.0535   25.9069 H   0  0  0  0  0  0
  -22.0599   -2.7631   23.2819 H   0  0  0  0  0  0
  -22.3953  -11.9803   22.4832 H   0  0  0  0  0  0
  -21.0994  -13.1198   22.2586 H   0  0  0  0  0  0
  -24.6180  -15.8537   20.5135 H   0  0  0  0  0  0
  -26.2365  -15.6377   20.0778 H   0  0  0  0  0  0
  -26.7628  -32.4715   23.0604 H   0  0  0  0  0  0
  -25.0022  -33.9142   24.9835 H   0  0  0  0  0  0
  -22.8827  -31.2078   21.2796 H   0  0  0  0  0  0
  -23.3793  -35.9400   23.3237 H   0  0  0  0  0  0
  -24.3589  -36.8852   22.2098 H   0  0  0  0  0  0
  -23.7284  -37.6231   23.6819 H   0  0  0  0  0  0
  -26.3696  -31.1317   20.6405 H   0  0  0  0  0  0
  -26.9701  -30.4928   22.1139 H   0  0  0  0  0  0
  -28.1969  -28.1645   21.3228 H   0  0  0  0  0  0
  -25.7942  -25.4939   18.9988 H   0  0  0  0  0  0
  -24.0597  -27.1443   18.9321 H   0  0  0  0  0  0
  -24.0068  -30.3831   19.3723 H   0  0  0  0  0  0
  -22.9079  -29.1151   19.8100 H   0  0  0  0  0  0
  -25.1403  -36.1503   25.0741 H   0  0  0  0  0  0
  -21.0074  -28.3462   24.1202 H   0  0  0  0  0  0
  -20.5710  -26.2429   23.3662 H   0  0  0  0  0  0
  -21.6702  -26.7377   22.1213 H   0  0  0  0  0  0
  -19.7002  -25.6243   21.1297 H   0  0  0  0  0  0
  -19.6788  -27.3096   20.6667 H   0  0  0  0  0  0
  -17.4282  -26.6659   21.3976 H   0  0  0  0  0  0
  -18.0400  -26.0087   22.8982 H   0  0  0  0  0  0
  -19.8041  -30.7337   24.2090 H   0  0  0  0  0  0
  -17.5110  -31.6270   24.5154 H   0  0  0  0  0  0
  -15.5426  -30.2945   23.7749 H   0  0  0  0  0  0
  -15.8745  -28.0788   22.7127 H   0  0  0  0  0  0
  -24.5835  -30.7168   25.7404 H   0  0  0  0  0  0
  -24.8745  -32.3083   26.4274 H   0  0  0  0  0  0
  -25.7670  -30.9167   27.0138 H   0  0  0  0  0  0
  -26.3378  -29.6279   24.1734 H   0  0  0  0  0  0
  -27.3964  -29.7306   25.5554 H   0  0  0  0  0  0
  -27.9394  -30.3809   24.0341 H   0  0  0  0  0  0
  -27.2609  -33.3796   26.1651 H   0  0  0  0  0  0
  -28.4001  -32.6704   25.0320 H   0  0  0  0  0  0
  -28.0563  -31.8717   26.5586 H   0  0  0  0  0  0
  -28.2518  -38.0043   24.7519 H   0  0  0  0  0  0
  -28.1127  -36.2561   24.6293 H   0  0  0  0  0  0
  -27.2274  -37.1305   25.8866 H   0  0  0  0  0  0
  -20.9828  -29.8607   21.6350 H   0  0  0  0  0  0
  -26.0066  -38.2612   24.1440 H   0  0  0  0  0  0
  -28.1011  -18.0711   18.6522 H   0  0  0  0  0  0
  -27.3084  -17.5390   20.1372 H   0  0  0  0  0  0
  -28.0019  -16.3666   19.0140 H   0  0  0  0  0  0
  -28.0363  -21.0683   19.2450 H   0  0  0  0  0  0
  -29.6673  -21.5348   19.3396 H   0  0  0  0  0  0
  -28.8748  -19.3113   21.5346 H   0  0  0  0  0  0
  -30.4241  -19.5134   20.8524 H   0  0  0  0  0  0
  -27.2187  -23.1099   20.8199 H   0  0  0  0  0  0
  -28.7962  -23.3194   21.4512 H   0  0  0  0  0  0
  1 25  1  0  0  0
  1 30  2  0  0  0
  1 75  1  0  0  0
  2  3  1  0  0  0
  2 25  1  0  0  0
  2 76  1  0  0  0
  2 77  1  0  0  0
  3  4  1  0  0  0
  3 78  1  0  0  0
  3 79  1  0  0  0
  4  5  1  0  0  0
  4 80  1  0  0  0
  4 81  1  0  0  0
  5  6  1  0  0  0
  5 26  1  0  0  0
  5 82  1  0  0  0
  6 25  1  0  0  0
  6 83  1  0  0  0
  6 84  1  0  0  0
  7  8  2  0  0  0
  7 26  1  0  0  0
  7 29  1  0  0  0
  8  9  1  0  0  0
  8 22  1  0  0  0
  9 10  1  0  0  0
  9 27  2  0  0  0
 10 11  2  0  0  0
 10 15  1  0  0  0
 11 12  1  0  0  0
 11 85  1  0  0  0
 12 13  2  0  0  0
 12 86  1  0  0  0
 13 14  1  0  0  0
 13 31  1  0  0  0
 14 15  2  0  0  0
 14 87  1  0  0  0
 15 88  1  0  0  0
 16 17  2  0  0  0
 16 21  1  0  0  0
 16 31  1  0  0  0
 17 18  1  0  0  0
 17 89  1  0  0  0
 18 19  2  0  0  0
 18 90  1  0  0  0
 19 20  1  0  0  0
 19 24  1  0  0  0
 20 21  2  0  0  0
 20 91  1  0  0  0
 21 23  1  0  0  0
 22 28  1  0  0  0
 22 32  2  0  0  0
 26 27  1  0  0  0
 28 92  1  0  0  0
 28 93  1  0  0  0
 29 94  1  0  0  0
 29 95  1  0  0  0
 33 34  1  0  0  0
 33 66  1  0  0  0
 33 70  2  0  0  0
 34 36  1  0  0  0
 34 59  1  0  0  0
 34 96  1  0  0  0
 35 44  2  0  0  0
 35 45  1  0  0  0
 35 68  1  0  0  0
 36 56  1  0  0  0
 36 97  1  0  0  0
 37 39  1  0  0  0
 37 47  1  0  0  0
 37 66  1  0  0  0
 37 98  1  0  0  0
 38 43  2  0  0  0
 38 46  1  0  0  0
 38 47  1  0  0  0
 39 64  1  0  0  0
 39 67  2  0  0  0
 40 52  1  0  0  0
 40 53  2  0  0  0
 40 58  1  0  0  0
 41 99  1  0  0  0
 41100  1  0  0  0
 41101  1  0  0  0
 41 48  1  0  0  0
 42 43  1  0  0  0
 42 66  1  0  0  0
 42102  1  0  0  0
 42103  1  0  0  0
 43 44  1  0  0  0
 44104  1  0  0  0
 45 46  2  0  0  0
 45105  1  0  0  0
 46106  1  0  0  0
 47107  1  0  0  0
 47108  1  0  0  0
 48 56  1  0  0  0
 48 65  1  0  0  0
 48109  1  0  0  0
 49 50  1  0  0  0
 49 53  1  0  0  0
 49 64  1  0  0  0
 49110  1  0  0  0
 50 51  1  0  0  0
 50111  1  0  0  0
 50112  1  0  0  0
 51 52  1  0  0  0
 51113  1  0  0  0
 51114  1  0  0  0
 52115  1  0  0  0
 52116  1  0  0  0
 53 54  1  0  0  0
 54 55  2  0  0  0
 54117  1  0  0  0
 55 57  1  0  0  0
 55118  1  0  0  0
 56 69  2  0  0  0
 57 58  2  0  0  0
 57119  1  0  0  0
 58120  1  0  0  0
 59 60  1  0  0  0
 59 61  1  0  0  0
 59 62  1  0  0  0
 60121  1  0  0  0
 60122  1  0  0  0
 60123  1  0  0  0
 61124  1  0  0  0
 61125  1  0  0  0
 61126  1  0  0  0
 62127  1  0  0  0
 62128  1  0  0  0
 62129  1  0  0  0
 63 65  1  0  0  0
 63130  1  0  0  0
 63131  1  0  0  0
 63132  1  0  0  0
 64133  1  0  0  0
 65134  1  0  0  0
 68 74  1  0  0  0
 71 75  1  0  0  0
 71135  1  0  0  0
 71136  1  0  0  0
 71137  1  0  0  0
 72 73  1  0  0  0
 72 74  1  0  0  0
 72138  1  0  0  0
 72139  1  0  0  0
 73 75  1  0  0  0
 73140  1  0  0  0
 73141  1  0  0  0
 74142  1  0  0  0
 74143  1  0  0  0
M  ISO  4   1 100  68 101  74 101  75 100
M  END
> <chiral flag>
0

> <version>
0

> <s_m_source_file>
/data/baiqing/PycharmProjects/Reinvent-master-3.2/result/LINK_invent/BTK/process_docking_weight1_custom_sum_contain_oxygen_bond_distance_aromatic_linkinvent_7_9_3/rearranged_h_0003.sdf

> <i_m_source_file_index>
17

> <r_mmod_Potential_Energy-OPLS-2005>
4303.49072265625

> <r_mmod_Stretch_Energy-OPLS-2005>
1937.3203125

> <r_mmod_Bend_Energy-OPLS-2005>
891.069641113281

> <r_mmod_Torsional_Energy-OPLS-2005>
308.0107421875

> <r_mmod_Improper_Torsional_Energy-OPLS-2005>
4.89766931533813

> <r_mmod_Van_der_Waal_Energy-OPLS-2005>
112.25927734375

> <r_mmod_Electrostatic_Energy-OPLS-2005>
-274.442291259766

> <r_mmod_Solvation_Energy-OPLS-2005>
-215.008483886719

> <b_mmod_Minimization_Converged-OPLS-2005>
0

> <r_mmod_RMS_Derivative-OPLS-2005>
2.3036835193634

$$$$
17
                    3D
 Structure written by MMmdl.
154162  0  0  1  0            999 V2000
  -30.6577  -14.5618   20.4841 C   0  0  0  0  0  0
  -30.4160  -12.3289   19.4443 C   0  0  0  0  0  0
  -29.5052  -12.5044   18.2116 C   0  0  0  0  0  0
  -28.0210  -12.3704   18.6142 C   0  0  0  0  0  0
  -27.6503  -13.2279   19.8584 C   0  0  2  0  0  0
  -28.6928  -13.0622   20.9848 C   0  0  0  0  0  0
  -25.2494  -13.8194   20.5752 C   0  0  0  0  0  0
  -24.1792  -13.0439   20.9263 C   0  0  0  0  0  0
  -24.6417  -11.6933   20.8776 C   0  0  0  0  0  0
  -23.9115  -10.4299   21.0402 C   0  0  0  0  0  0
  -24.3662   -9.4196   21.9169 C   0  0  0  0  0  0
  -23.6349   -8.2234   22.0739 C   0  0  0  0  0  0
  -22.4304   -8.0323   21.3570 C   0  0  0  0  0  0
  -21.9951   -9.0279   20.4648 C   0  0  0  0  0  0
  -22.7282  -10.2152   20.3046 C   0  0  0  0  0  0
  -21.6853   -6.0774   22.5307 C   0  0  0  0  0  0
  -21.4012   -6.5653   23.8245 C   0  0  0  0  0  0
  -21.3678   -5.6790   24.9199 C   0  0  0  0  0  0
  -21.6028   -4.3060   24.7224 C   0  0  0  0  0  0
  -21.8811   -3.8174   23.4335 C   0  0  0  0  0  0
  -21.9178   -4.6999   22.3410 C   0  0  0  0  0  0
  -22.7799  -13.5220   21.1874 C   0  0  0  0  0  0
  -22.1636   -4.2203   21.0982 F   0  0  0  0  0  0
  -21.5635   -3.4527   25.7729 F   0  0  0  0  0  0
  -30.0161  -13.3594   20.4189 N   0  0  0  0  0  0
  -26.2978  -12.9440   20.3316 N   0  0  0  0  0  0
  -25.9334  -11.6580   20.5732 N   0  0  0  0  0  0
  -22.0419  -12.8256   22.0432 N   0  0  0  0  0  0
  -25.4023  -15.1910   20.4159 N   0  0  0  0  0  0
  -31.8317  -14.6945   20.1292 O   0  0  0  0  0  0
  -21.6648   -6.8934   21.4280 O   0  0  0  0  0  0
  -22.3497  -14.5519   20.6717 O   0  0  0  0  0  0
  -24.6184  -31.8673   23.2040 C   0  0  0  0  0  0
  -25.9063  -32.4811   23.8371 C   0  0  1  0  0  0
  -27.2216  -27.3677   20.1002 C   0  0  0  0  0  0
  -25.5916  -33.8610   24.2298 N   0  0  0  0  0  0
  -23.4086  -30.4891   21.5482 C   0  0  2  0  0  0
  -24.8543  -28.9525   20.1045 C   0  0  0  0  0  0
  -22.7446  -29.4648   22.4958 C   0  0  0  0  0  0
  -18.0293  -28.1347   22.8491 C   0  0  0  0  0  0
  -24.1501  -36.7296   23.2640 C   0  0  0  0  0  0
  -25.9437  -30.8073   21.3744 C   0  0  0  0  0  0
  -26.0159  -29.4389   20.7107 C   0  0  0  0  0  0
  -27.1984  -28.6521   20.7078 C   0  0  0  0  0  0
  -26.0356  -26.9113   19.4823 C   0  0  0  0  0  0
  -24.8615  -27.6915   19.4849 C   0  0  0  0  0  0
  -23.6192  -29.8281   20.1592 C   0  0  0  0  0  0
  -25.4110  -36.3098   24.0340 C   0  0  1  0  0  0
  -20.5883  -28.3665   23.1291 C   0  0  2  0  0  0
  -20.6770  -26.9392   22.5405 C   0  0  0  0  0  0
  -19.5747  -26.6364   21.5204 C   0  0  0  0  0  0
  -18.1925  -26.7898   22.1615 C   0  0  0  0  0  0
  -19.1535  -28.8812   23.2893 C   0  0  0  0  0  0
  -18.9462  -30.1413   23.8914 C   0  0  0  0  0  0
  -17.6471  -30.6567   24.0536 C   0  0  0  0  0  0
  -25.9060  -34.9464   23.5128 C   0  0  0  0  0  0
  -16.5364  -29.9049   23.6296 C   0  0  0  0  0  0
  -16.7275  -28.6456   23.0354 C   0  0  0  0  0  0
  -26.4456  -31.6579   25.0714 C   0  0  0  0  0  0
  -25.3703  -31.3712   26.1467 C   0  0  0  0  0  0
  -27.0291  -30.3010   24.6114 C   0  0  0  0  0  0
  -27.6031  -32.4293   25.7473 C   0  0  0  0  0  0
  -27.5590  -37.1797   24.8450 C   0  0  0  0  0  0
  -21.4162  -29.3025   22.3688 N   0  0  0  0  0  0
  -26.4287  -37.3779   23.9426 N   0  0  0  0  0  0
  -24.6750  -31.0692   22.1006 N   0  0  0  0  0  0
  -23.4206  -28.8229   23.3039 O   0  0  0  0  0  0
  -28.3803  -26.5959   20.1454 O   0  0  0  0  0  0
  -26.5629  -34.8924   22.4701 O   0  0  0  0  0  0
  -23.5357  -32.1481   23.7377 O   0  0  0  0  0  0
  -26.9639  -19.0178   20.5049 C   0  0  0  0  0  0
  -27.8947  -17.9577   20.5572 C   0  0  0  0  0  0
  -27.3951  -20.3632   20.4639 C   0  0  0  0  0  0
  -29.7007  -19.5821   20.4714 C   0  0  0  0  0  0
  -29.2832  -18.2145   20.5547 C   0  0  0  0  0  0
  -28.7774  -20.6700   20.4396 C   0  0  0  0  0  0
  -30.3352  -17.0706   20.6577 C   0  0  0  0  0  0
  -27.7294  -24.0882   20.3348 C   0  0  0  0  0  0
  -28.4303  -25.2596   19.5634 C   0  0  0  0  0  0
  -28.6174  -23.0449   21.1005 C   0  0  0  0  0  0
  -29.8859  -15.6514   20.7481 N   0  0  0  0  0  0
  -29.2433  -21.9807   20.3337 O   0  0  0  0  0  0
  -31.4681  -12.4023   19.1609 H   0  0  0  0  0  0
  -30.2999  -11.3292   19.8700 H   0  0  0  0  0  0
  -29.7544  -11.7694   17.4442 H   0  0  0  0  0  0
  -29.6822  -13.4836   17.7617 H   0  0  0  0  0  0
  -27.8322  -11.3196   18.8256 H   0  0  0  0  0  0
  -27.3779  -12.6209   17.7698 H   0  0  0  0  0  0
  -27.6724  -14.2668   19.5287 H   0  0  0  0  0  0
  -28.6737  -12.0475   21.3795 H   0  0  0  0  0  0
  -28.4697  -13.7160   21.8283 H   0  0  0  0  0  0
  -25.2815   -9.5676   22.4736 H   0  0  0  0  0  0
  -24.0050   -7.4626   22.7476 H   0  0  0  0  0  0
  -21.0863   -8.8841   19.8995 H   0  0  0  0  0  0
  -22.3765  -10.9694   19.6164 H   0  0  0  0  0  0
  -21.2019   -7.6170   23.9776 H   0  0  0  0  0  0
  -21.1492   -6.0509   25.9102 H   0  0  0  0  0  0
  -22.0567   -2.7639   23.2799 H   0  0  0  0  0  0
  -22.4001  -11.9949   22.4938 H   0  0  0  0  0  0
  -21.1047  -13.1302   22.2619 H   0  0  0  0  0  0
  -24.6244  -15.8285   20.5374 H   0  0  0  0  0  0
  -26.2144  -15.6281   20.0038 H   0  0  0  0  0  0
  -26.7136  -32.5493   23.1129 H   0  0  0  0  0  0
  -25.0036  -33.9773   25.0435 H   0  0  0  0  0  0
  -22.6966  -31.3050   21.4103 H   0  0  0  0  0  0
  -23.3778  -35.9613   23.3272 H   0  0  0  0  0  0
  -24.3610  -36.8959   22.2065 H   0  0  0  0  0  0
  -23.7247  -37.6482   23.6694 H   0  0  0  0  0  0
  -26.0810  -31.5778   20.6173 H   0  0  0  0  0  0
  -26.8224  -30.8480   22.0047 H   0  0  0  0  0  0
  -28.0890  -29.0189   21.1991 H   0  0  0  0  0  0
  -25.9864  -25.9477   19.0033 H   0  0  0  0  0  0
  -23.9699  -27.3103   19.0089 H   0  0  0  0  0  0
  -23.7300  -30.6125   19.4094 H   0  0  0  0  0  0
  -22.7405  -29.2580   19.8554 H   0  0  0  0  0  0
  -25.1285  -36.1933   25.0822 H   0  0  0  0  0  0
  -20.9963  -28.3233   24.1417 H   0  0  0  0  0  0
  -20.5675  -26.2273   23.3599 H   0  0  0  0  0  0
  -21.6650  -26.7429   22.1205 H   0  0  0  0  0  0
  -19.6913  -25.6279   21.1221 H   0  0  0  0  0  0
  -19.6672  -27.3177   20.6735 H   0  0  0  0  0  0
  -17.4203  -26.6659   21.4001 H   0  0  0  0  0  0
  -18.0323  -26.0022   22.8993 H   0  0  0  0  0  0
  -19.7956  -30.7193   24.2309 H   0  0  0  0  0  0
  -17.5041  -31.6251   24.5141 H   0  0  0  0  0  0
  -15.5366  -30.2958   23.7599 H   0  0  0  0  0  0
  -15.8687  -28.0751   22.7080 H   0  0  0  0  0  0
  -24.5800  -30.7162   25.7783 H   0  0  0  0  0  0
  -24.8989  -32.2891   26.4980 H   0  0  0  0  0  0
  -25.8020  -30.8783   27.0195 H   0  0  0  0  0  0
  -26.2851  -29.6785   24.1129 H   0  0  0  0  0  0
  -27.4030  -29.7210   25.4567 H   0  0  0  0  0  0
  -27.8710  -30.4323   23.9309 H   0  0  0  0  0  0
  -27.2650  -33.3563   26.2104 H   0  0  0  0  0  0
  -28.3802  -32.6906   25.0284 H   0  0  0  0  0  0
  -28.0760  -31.8401   26.5345 H   0  0  0  0  0  0
  -28.2557  -38.0142   24.7552 H   0  0  0  0  0  0
  -28.1140  -36.2679   24.6184 H   0  0  0  0  0  0
  -27.2339  -37.1335   25.8859 H   0  0  0  0  0  0
  -20.9318  -29.8737   21.6911 H   0  0  0  0  0  0
  -26.0168  -38.2861   24.1420 H   0  0  0  0  0  0
  -25.9013  -18.7957   20.4978 H   0  0  0  0  0  0
  -27.5238  -16.9431   20.6068 H   0  0  0  0  0  0
  -26.6529  -21.1480   20.4219 H   0  0  0  0  0  0
  -30.7618  -19.8051   20.4570 H   0  0  0  0  0  0
  -30.9501  -17.2711   21.5389 H   0  0  0  0  0  0
  -31.0067  -17.1733   19.8042 H   0  0  0  0  0  0
  -27.0922  -23.5386   19.6420 H   0  0  0  0  0  0
  -27.0393  -24.5270   21.0575 H   0  0  0  0  0  0
  -28.0495  -25.3112   18.5440 H   0  0  0  0  0  0
  -29.4810  -25.0083   19.4223 H   0  0  0  0  0  0
  -28.0320  -22.6163   21.9146 H   0  0  0  0  0  0
  -29.4164  -23.5925   21.6037 H   0  0  0  0  0  0
  -28.9294  -15.4769   21.0005 H   0  0  0  0  0  0
  1 25  1  0  0  0
  1 30  2  0  0  0
  1 81  1  0  0  0
  2  3  1  0  0  0
  2 25  1  0  0  0
  2 83  1  0  0  0
  2 84  1  0  0  0
  3  4  1  0  0  0
  3 85  1  0  0  0
  3 86  1  0  0  0
  4  5  1  0  0  0
  4 87  1  0  0  0
  4 88  1  0  0  0
  5  6  1  0  0  0
  5 26  1  0  0  0
  5 89  1  0  0  0
  6 25  1  0  0  0
  6 90  1  0  0  0
  6 91  1  0  0  0
  7  8  2  0  0  0
  7 26  1  0  0  0
  7 29  1  0  0  0
  8  9  1  0  0  0
  8 22  1  0  0  0
  9 10  1  0  0  0
  9 27  2  0  0  0
 10 11  2  0  0  0
 10 15  1  0  0  0
 11 12  1  0  0  0
 11 92  1  0  0  0
 12 13  2  0  0  0
 12 93  1  0  0  0
 13 14  1  0  0  0
 13 31  1  0  0  0
 14 15  2  0  0  0
 14 94  1  0  0  0
 15 95  1  0  0  0
 16 17  2  0  0  0
 16 21  1  0  0  0
 16 31  1  0  0  0
 17 18  1  0  0  0
 17 96  1  0  0  0
 18 19  2  0  0  0
 18 97  1  0  0  0
 19 20  1  0  0  0
 19 24  1  0  0  0
 20 21  2  0  0  0
 20 98  1  0  0  0
 21 23  1  0  0  0
 22 28  1  0  0  0
 22 32  2  0  0  0
 26 27  1  0  0  0
 28 99  1  0  0  0
 28100  1  0  0  0
 29101  1  0  0  0
 29102  1  0  0  0
 33 34  1  0  0  0
 33 66  1  0  0  0
 33 70  2  0  0  0
 34 36  1  0  0  0
 34 59  1  0  0  0
 34103  1  0  0  0
 35 44  2  0  0  0
 35 45  1  0  0  0
 35 68  1  0  0  0
 36 56  1  0  0  0
 36104  1  0  0  0
 37 39  1  0  0  0
 37 47  1  0  0  0
 37 66  1  0  0  0
 37105  1  0  0  0
 38 43  2  0  0  0
 38 46  1  0  0  0
 38 47  1  0  0  0
 39 64  1  0  0  0
 39 67  2  0  0  0
 40 52  1  0  0  0
 40 53  2  0  0  0
 40 58  1  0  0  0
 41106  1  0  0  0
 41107  1  0  0  0
 41108  1  0  0  0
 41 48  1  0  0  0
 42 43  1  0  0  0
 42 66  1  0  0  0
 42109  1  0  0  0
 42110  1  0  0  0
 43 44  1  0  0  0
 44111  1  0  0  0
 45 46  2  0  0  0
 45112  1  0  0  0
 46113  1  0  0  0
 47114  1  0  0  0
 47115  1  0  0  0
 48 56  1  0  0  0
 48 65  1  0  0  0
 48116  1  0  0  0
 49 50  1  0  0  0
 49 53  1  0  0  0
 49 64  1  0  0  0
 49117  1  0  0  0
 50 51  1  0  0  0
 50118  1  0  0  0
 50119  1  0  0  0
 51 52  1  0  0  0
 51120  1  0  0  0
 51121  1  0  0  0
 52122  1  0  0  0
 52123  1  0  0  0
 53 54  1  0  0  0
 54 55  2  0  0  0
 54124  1  0  0  0
 55 57  1  0  0  0
 55125  1  0  0  0
 56 69  2  0  0  0
 57 58  2  0  0  0
 57126  1  0  0  0
 58127  1  0  0  0
 59 60  1  0  0  0
 59 61  1  0  0  0
 59 62  1  0  0  0
 60128  1  0  0  0
 60129  1  0  0  0
 60130  1  0  0  0
 61131  1  0  0  0
 61132  1  0  0  0
 61133  1  0  0  0
 62134  1  0  0  0
 62135  1  0  0  0
 62136  1  0  0  0
 63 65  1  0  0  0
 63137  1  0  0  0
 63138  1  0  0  0
 63139  1  0  0  0
 64140  1  0  0  0
 65141  1  0  0  0
 68 79  1  0  0  0
 71 72  2  0  0  0
 71 73  1  0  0  0
 71142  1  0  0  0
 72 75  1  0  0  0
 72143  1  0  0  0
 73 76  2  0  0  0
 73144  1  0  0  0
 74 75  2  0  0  0
 74 76  1  0  0  0
 74145  1  0  0  0
 75 77  1  0  0  0
 76 82  1  0  0  0
 77 81  1  0  0  0
 77146  1  0  0  0
 77147  1  0  0  0
 78 79  1  0  0  0
 78 80  1  0  0  0
 78148  1  0  0  0
 78149  1  0  0  0
 79150  1  0  0  0
 79151  1  0  0  0
 80 82  1  0  0  0
 80152  1  0  0  0
 80153  1  0  0  0
 81154  1  0  0  0
M  ISO  4   1 100  68 101  79 101  81 100
M  END
> <chiral flag>
0

> <version>
0

> <s_m_source_file>
/data/baiqing/PycharmProjects/Reinvent-master-3.2/result/LINK_invent/BTK/process_docking_weight1_custom_sum_contain_oxygen_bond_distance_aromatic_linkinvent_7_9_3/rearranged_h_0003.sdf

> <i_m_source_file_index>
18

> <r_mmod_Potential_Energy-OPLS-2005>
-50.6910629272461

> <r_mmod_Stretch_Energy-OPLS-2005>
55.6032676696777

> <r_mmod_Bend_Energy-OPLS-2005>
126.554336547852

> <r_mmod_Torsional_Energy-OPLS-2005>
215.807098388672

> <r_mmod_Improper_Torsional_Energy-OPLS-2005>
5.35020971298218

> <r_mmod_Van_der_Waal_Energy-OPLS-2005>
142.424987792969

> <r_mmod_Electrostatic_Energy-OPLS-2005>
-414.575347900391

> <r_mmod_Solvation_Energy-OPLS-2005>
-211.39289855957

> <b_mmod_Minimization_Converged-OPLS-2005>
0

> <r_mmod_RMS_Derivative-OPLS-2005>
5.73570251464844

$$$$
18
                    3D
 Structure written by MMmdl.
144152  0  0  1  0            999 V2000
  -30.2491  -15.7690   20.3185 C   0  0  0  0  0  0
  -30.4165  -13.1824   19.5389 C   0  0  0  0  0  0
  -29.5561  -12.6883   18.3366 C   0  0  0  0  0  0
  -28.1400  -12.3025   18.7870 C   0  0  0  0  0  0
  -27.5914  -13.3204   19.8100 C   0  0  2  0  0  0
  -28.5996  -13.7101   20.9197 C   0  0  0  0  0  0
  -25.2302  -13.8299   20.5812 C   0  0  0  0  0  0
  -24.1705  -13.0432   20.9298 C   0  0  0  0  0  0
  -24.6425  -11.6949   20.8764 C   0  0  0  0  0  0
  -23.9129  -10.4292   21.0393 C   0  0  0  0  0  0
  -24.3660   -9.4205   21.9178 C   0  0  0  0  0  0
  -23.6316   -8.2248   22.0754 C   0  0  0  0  0  0
  -22.4296   -8.0290   21.3545 C   0  0  0  0  0  0
  -21.9945   -9.0266   20.4644 C   0  0  0  0  0  0
  -22.7293  -10.2135   20.3047 C   0  0  0  0  0  0
  -21.6860   -6.0742   22.5279 C   0  0  0  0  0  0
  -21.4020   -6.5644   23.8213 C   0  0  0  0  0  0
  -21.3660   -5.6795   24.9174 C   0  0  0  0  0  0
  -21.6043   -4.3057   24.7223 C   0  0  0  0  0  0
  -21.8818   -3.8151   23.4344 C   0  0  0  0  0  0
  -21.9195   -4.6969   22.3401 C   0  0  0  0  0  0
  -22.7713  -13.5153   21.1928 C   0  0  0  0  0  0
  -22.1662   -4.2154   21.0979 F   0  0  0  0  0  0
  -21.5627   -3.4540   25.7735 F   0  0  0  0  0  0
  -29.7500  -14.3765   20.2532 N   0  0  0  0  0  0
  -26.2766  -12.9654   20.3247 N   0  0  0  0  0  0
  -25.9376  -11.6711   20.5692 N   0  0  0  0  0  0
  -22.0381  -12.8128   22.0480 N   0  0  0  0  0  0
  -25.3868  -15.2043   20.4253 N   0  0  0  0  0  0
  -31.4896  -15.6885   20.1870 O   0  0  0  0  0  0
  -21.6650   -6.8891   21.4243 O   0  0  0  0  0  0
  -22.3385  -14.5450   20.6762 O   0  0  0  0  0  0
  -24.6936  -31.7881   23.1428 C   0  0  0  0  0  0
  -25.9467  -32.4408   23.8014 C   0  0  1  0  0  0
  -27.2314  -26.6000   20.2259 C   0  0  0  0  0  0
  -25.6003  -33.8239   24.1889 N   0  0  0  0  0  0
  -23.5248  -30.3852   21.4992 C   0  0  2  0  0  0
  -24.9837  -28.7043   20.1217 C   0  0  0  0  0  0
  -22.7812  -29.4252   22.4682 C   0  0  0  0  0  0
  -18.0345  -28.1427   22.8448 C   0  0  0  0  0  0
  -24.1496  -36.7128   23.2656 C   0  0  0  0  0  0
  -26.1099  -30.4873   21.4229 C   0  0  0  0  0  0
  -26.1749  -29.0406   20.7752 C   0  0  0  0  0  0
  -27.2793  -28.0201   20.7903 C   0  0  0  0  0  0
  -26.0052  -26.4991   19.5134 C   0  0  0  0  0  0
  -24.9440  -27.4606   19.4663 C   0  0  0  0  0  0
  -23.7849  -29.6724   20.1393 C   0  0  0  0  0  0
  -25.4150  -36.2860   24.0273 C   0  0  1  0  0  0
  -20.5986  -28.3792   23.1121 C   0  0  2  0  0  0
  -20.6806  -26.9441   22.5405 C   0  0  0  0  0  0
  -19.5784  -26.6367   21.5217 C   0  0  0  0  0  0
  -18.1967  -26.7952   22.1618 C   0  0  0  0  0  0
  -19.1614  -28.8936   23.2762 C   0  0  0  0  0  0
  -18.9518  -30.1517   23.8813 C   0  0  0  0  0  0
  -17.6507  -30.6607   24.0547 C   0  0  0  0  0  0
  -25.9137  -34.9253   23.4926 C   0  0  0  0  0  0
  -16.5395  -29.9086   23.6353 C   0  0  0  0  0  0
  -16.7324  -28.6509   23.0369 C   0  0  0  0  0  0
  -26.4611  -31.6488   25.0681 C   0  0  0  0  0  0
  -25.3648  -31.3836   26.1276 C   0  0  0  0  0  0
  -27.0562  -30.2813   24.6660 C   0  0  0  0  0  0
  -27.6036  -32.4377   25.7508 C   0  0  0  0  0  0
  -27.5560  -37.1721   24.8466 C   0  0  0  0  0  0
  -21.4449  -29.3019   22.3429 N   0  0  0  0  0  0
  -26.4267  -37.3633   23.9406 N   0  0  0  0  0  0
  -24.8007  -30.9224   22.0738 N   0  0  0  0  0  0
  -23.4206  -28.7870   23.3076 O   0  0  0  0  0  0
  -28.1813  -25.3340   20.2925 O   0  0  0  0  0  0
  -26.5793  -34.8851   22.4554 O   0  0  0  0  0  0
  -23.5932  -32.1003   23.6316 O   0  0  0  0  0  0
  -31.2233  -20.8510   20.4443 C   0  0  0  0  0  0
  -30.3278  -21.9742   20.3863 C   0  0  0  0  0  0
  -30.8973  -19.4510   20.4170 C   0  0  0  0  0  0
  -28.6498  -20.2656   20.2683 C   0  0  0  0  0  0
  -28.9175  -21.8849   20.2883 C   0  0  0  0  0  0
  -29.5860  -18.9200   20.3295 C   0  0  0  0  0  0
  -27.9553  -23.5403   20.1946 C   0  0  0  0  0  0
  -29.4678  -17.1584   20.3338 N   0  0  0  0  0  0
  -31.3972  -13.4683   19.1574 H   0  0  0  0  0  0
  -30.6150  -12.3654   20.2348 H   0  0  0  0  0  0
  -30.0382  -11.8449   17.8404 H   0  0  0  0  0  0
  -29.4933  -13.4857   17.5947 H   0  0  0  0  0  0
  -28.1920  -11.3161   19.2495 H   0  0  0  0  0  0
  -27.4721  -12.2092   17.9298 H   0  0  0  0  0  0
  -27.4353  -14.2232   19.2177 H   0  0  0  0  0  0
  -28.8922  -12.8505   21.5245 H   0  0  0  0  0  0
  -28.1402  -14.4228   21.6061 H   0  0  0  0  0  0
  -25.2799   -9.5677   22.4764 H   0  0  0  0  0  0
  -24.0015   -7.4641   22.7480 H   0  0  0  0  0  0
  -21.0874   -8.8796   19.8951 H   0  0  0  0  0  0
  -22.3752  -10.9677   19.6160 H   0  0  0  0  0  0
  -21.2015   -7.6152   23.9718 H   0  0  0  0  0  0
  -21.1481   -6.0525   25.9077 H   0  0  0  0  0  0
  -22.0595   -2.7612   23.2843 H   0  0  0  0  0  0
  -22.4028  -11.9810   22.4881 H   0  0  0  0  0  0
  -21.0984  -13.1116   22.2673 H   0  0  0  0  0  0
  -24.6121  -15.8494   20.5375 H   0  0  0  0  0  0
  -26.2233  -15.6482   20.0710 H   0  0  0  0  0  0
  -26.7560  -32.4853   23.0732 H   0  0  0  0  0  0
  -25.0040  -33.9259   24.9969 H   0  0  0  0  0  0
  -22.8560  -31.2251   21.3001 H   0  0  0  0  0  0
  -23.3778  -35.9436   23.3259 H   0  0  0  0  0  0
  -24.3559  -36.8857   22.2082 H   0  0  0  0  0  0
  -23.7237  -37.6279   23.6781 H   0  0  0  0  0  0
  -26.3235  -31.2052   20.6299 H   0  0  0  0  0  0
  -26.9566  -30.5591   22.0929 H   0  0  0  0  0  0
  -28.1740  -28.2884   21.3341 H   0  0  0  0  0  0
  -25.8210  -25.5639   19.0038 H   0  0  0  0  0  0
  -24.0480  -27.1923   18.9234 H   0  0  0  0  0  0
  -23.9691  -30.4280   19.3747 H   0  0  0  0  0  0
  -22.8876  -29.1444   19.8122 H   0  0  0  0  0  0
  -25.1366  -36.1607   25.0763 H   0  0  0  0  0  0
  -21.0064  -28.3426   24.1249 H   0  0  0  0  0  0
  -20.5660  -26.2419   23.3677 H   0  0  0  0  0  0
  -21.6666  -26.7367   22.1230 H   0  0  0  0  0  0
  -19.6938  -25.6255   21.1303 H   0  0  0  0  0  0
  -19.6730  -27.3129   20.6710 H   0  0  0  0  0  0
  -17.4236  -26.6693   21.4021 H   0  0  0  0  0  0
  -18.0352  -26.0116   22.9034 H   0  0  0  0  0  0
  -19.7994  -30.7354   24.2146 H   0  0  0  0  0  0
  -17.5057  -31.6278   24.5166 H   0  0  0  0  0  0
  -15.5392  -30.2961   23.7726 H   0  0  0  0  0  0
  -15.8725  -28.0800   22.7132 H   0  0  0  0  0  0
  -24.5864  -30.7155   25.7572 H   0  0  0  0  0  0
  -24.8806  -32.3067   26.4469 H   0  0  0  0  0  0
  -25.7799  -30.9150   27.0207 H   0  0  0  0  0  0
  -26.3300  -29.6394   24.1665 H   0  0  0  0  0  0
  -27.3958  -29.7305   25.5442 H   0  0  0  0  0  0
  -27.9292  -30.3914   24.0226 H   0  0  0  0  0  0
  -27.2557  -33.3759   26.1844 H   0  0  0  0  0  0
  -28.3970  -32.6810   25.0429 H   0  0  0  0  0  0
  -28.0570  -31.8672   26.5625 H   0  0  0  0  0  0
  -28.2540  -38.0050   24.7512 H   0  0  0  0  0  0
  -28.1093  -36.2570   24.6297 H   0  0  0  0  0  0
  -27.2273  -37.1358   25.8868 H   0  0  0  0  0  0
  -20.9779  -29.8658   21.6465 H   0  0  0  0  0  0
  -26.0084  -38.2675   24.1421 H   0  0  0  0  0  0
  -32.2755  -21.0887   20.5173 H   0  0  0  0  0  0
  -30.7626  -22.9641   20.4154 H   0  0  0  0  0  0
  -31.7198  -18.7513   20.4730 H   0  0  0  0  0  0
  -27.5975  -20.0310   20.1940 H   0  0  0  0  0  0
  -27.1705  -23.3778   20.9334 H   0  0  0  0  0  0
  -27.4334  -23.4350   19.2435 H   0  0  0  0  0  0
  -28.4908  -16.9030   20.3508 H   0  0  0  0  0  0
  1 25  1  0  0  0
  1 30  2  0  0  0
  1 78  1  0  0  0
  2  3  1  0  0  0
  2 25  1  0  0  0
  2 79  1  0  0  0
  2 80  1  0  0  0
  3  4  1  0  0  0
  3 81  1  0  0  0
  3 82  1  0  0  0
  4  5  1  0  0  0
  4 83  1  0  0  0
  4 84  1  0  0  0
  5  6  1  0  0  0
  5 26  1  0  0  0
  5 85  1  0  0  0
  6 25  1  0  0  0
  6 86  1  0  0  0
  6 87  1  0  0  0
  7  8  2  0  0  0
  7 26  1  0  0  0
  7 29  1  0  0  0
  8  9  1  0  0  0
  8 22  1  0  0  0
  9 10  1  0  0  0
  9 27  2  0  0  0
 10 11  2  0  0  0
 10 15  1  0  0  0
 11 12  1  0  0  0
 11 88  1  0  0  0
 12 13  2  0  0  0
 12 89  1  0  0  0
 13 14  1  0  0  0
 13 31  1  0  0  0
 14 15  2  0  0  0
 14 90  1  0  0  0
 15 91  1  0  0  0
 16 17  2  0  0  0
 16 21  1  0  0  0
 16 31  1  0  0  0
 17 18  1  0  0  0
 17 92  1  0  0  0
 18 19  2  0  0  0
 18 93  1  0  0  0
 19 20  1  0  0  0
 19 24  1  0  0  0
 20 21  2  0  0  0
 20 94  1  0  0  0
 21 23  1  0  0  0
 22 28  1  0  0  0
 22 32  2  0  0  0
 26 27  1  0  0  0
 28 95  1  0  0  0
 28 96  1  0  0  0
 29 97  1  0  0  0
 29 98  1  0  0  0
 33 34  1  0  0  0
 33 66  1  0  0  0
 33 70  2  0  0  0
 34 36  1  0  0  0
 34 59  1  0  0  0
 34 99  1  0  0  0
 35 44  2  0  0  0
 35 45  1  0  0  0
 35 68  1  0  0  0
 36 56  1  0  0  0
 36100  1  0  0  0
 37 39  1  0  0  0
 37 47  1  0  0  0
 37 66  1  0  0  0
 37101  1  0  0  0
 38 43  2  0  0  0
 38 46  1  0  0  0
 38 47  1  0  0  0
 39 64  1  0  0  0
 39 67  2  0  0  0
 40 52  1  0  0  0
 40 53  2  0  0  0
 40 58  1  0  0  0
 41102  1  0  0  0
 41103  1  0  0  0
 41104  1  0  0  0
 41 48  1  0  0  0
 42 43  1  0  0  0
 42 66  1  0  0  0
 42105  1  0  0  0
 42106  1  0  0  0
 43 44  1  0  0  0
 44107  1  0  0  0
 45 46  2  0  0  0
 45108  1  0  0  0
 46109  1  0  0  0
 47110  1  0  0  0
 47111  1  0  0  0
 48 56  1  0  0  0
 48 65  1  0  0  0
 48112  1  0  0  0
 49 50  1  0  0  0
 49 53  1  0  0  0
 49 64  1  0  0  0
 49113  1  0  0  0
 50 51  1  0  0  0
 50114  1  0  0  0
 50115  1  0  0  0
 51 52  1  0  0  0
 51116  1  0  0  0
 51117  1  0  0  0
 52118  1  0  0  0
 52119  1  0  0  0
 53 54  1  0  0  0
 54 55  2  0  0  0
 54120  1  0  0  0
 55 57  1  0  0  0
 55121  1  0  0  0
 56 69  2  0  0  0
 57 58  2  0  0  0
 57122  1  0  0  0
 58123  1  0  0  0
 59 60  1  0  0  0
 59 61  1  0  0  0
 59 62  1  0  0  0
 60124  1  0  0  0
 60125  1  0  0  0
 60126  1  0  0  0
 61127  1  0  0  0
 61128  1  0  0  0
 61129  1  0  0  0
 62130  1  0  0  0
 62131  1  0  0  0
 62132  1  0  0  0
 63 65  1  0  0  0
 63133  1  0  0  0
 63134  1  0  0  0
 63135  1  0  0  0
 64136  1  0  0  0
 65137  1  0  0  0
 68 77  1  0  0  0
 71 72  2  0  0  0
 71 73  1  0  0  0
 71138  1  0  0  0
 72 75  1  0  0  0
 72139  1  0  0  0
 73 76  2  0  0  0
 73140  1  0  0  0
 74 75  2  0  0  0
 74 76  1  0  0  0
 74141  1  0  0  0
 75 77  1  0  0  0
 76 78  1  0  0  0
 77142  1  0  0  0
 77143  1  0  0  0
 78144  1  0  0  0
M  ISO  4   1 100  68 101  77 101  78 100
M  END
> <chiral flag>
0

> <version>
0

> <s_m_source_file>
/data/baiqing/PycharmProjects/Reinvent-master-3.2/result/LINK_invent/BTK/process_docking_weight1_custom_sum_contain_oxygen_bond_distance_aromatic_linkinvent_7_9_3/rearranged_h_0003.sdf

> <i_m_source_file_index>
19

> <r_mmod_Potential_Energy-OPLS-2005>
2813.380859375

> <r_mmod_Stretch_Energy-OPLS-2005>
1256.92761230469

> <r_mmod_Bend_Energy-OPLS-2005>
641.894226074219

> <r_mmod_Torsional_Energy-OPLS-2005>
222.88850402832

> <r_mmod_Improper_Torsional_Energy-OPLS-2005>
4.12787246704102

> <r_mmod_Van_der_Waal_Energy-OPLS-2005>
126.438247680664

> <r_mmod_Electrostatic_Energy-OPLS-2005>
-346.341064453125

> <r_mmod_Solvation_Energy-OPLS-2005>
-213.760787963867

> <b_mmod_Minimization_Converged-OPLS-2005>
0

> <r_mmod_RMS_Derivative-OPLS-2005>
0.157229289412498

$$$$
19
                    3D
 Structure written by MMmdl.
178186  0  0  1  0            999 V2000
  -30.7351  -14.3945   20.6720 C   0  0  0  0  0  0
  -30.4134  -12.2990   19.3926 C   0  0  0  0  0  0
  -29.4784  -12.5242   18.1894 C   0  0  0  0  0  0
  -28.0026  -12.3685   18.6070 C   0  0  0  0  0  0
  -27.6575  -13.1972   19.8733 C   0  0  2  0  0  0
  -28.6966  -12.9425   20.9856 C   0  0  0  0  0  0
  -25.2565  -13.8145   20.5669 C   0  0  0  0  0  0
  -24.1816  -13.0444   20.9182 C   0  0  0  0  0  0
  -24.6356  -11.6907   20.8737 C   0  0  0  0  0  0
  -23.9027  -10.4301   21.0410 C   0  0  0  0  0  0
  -24.3597   -9.4218   21.9188 C   0  0  0  0  0  0
  -23.6277   -8.2248   22.0747 C   0  0  0  0  0  0
  -22.4262   -8.0276   21.3535 C   0  0  0  0  0  0
  -21.9890   -9.0250   20.4644 C   0  0  0  0  0  0
  -22.7202  -10.2138   20.3054 C   0  0  0  0  0  0
  -21.6853   -6.0727   22.5283 C   0  0  0  0  0  0
  -21.4020   -6.5639   23.8216 C   0  0  0  0  0  0
  -21.3663   -5.6793   24.9180 C   0  0  0  0  0  0
  -21.6037   -4.3054   24.7234 C   0  0  0  0  0  0
  -21.8816   -3.8144   23.4360 C   0  0  0  0  0  0
  -21.9195   -4.6956   22.3412 C   0  0  0  0  0  0
  -22.7854  -13.5255   21.1859 C   0  0  0  0  0  0
  -22.1655   -4.2138   21.0989 F   0  0  0  0  0  0
  -21.5627   -3.4542   25.7749 F   0  0  0  0  0  0
  -30.0298  -13.2572   20.4372 N   0  0  0  0  0  0
  -26.2981  -12.9290   20.3356 N   0  0  0  0  0  0
  -25.9271  -11.6462   20.5761 N   0  0  0  0  0  0
  -22.0482  -12.8251   22.0414 N   0  0  0  0  0  0
  -25.4334  -15.1864   20.4074 N   0  0  0  0  0  0
  -31.8346  -14.6283   20.1611 O   0  0  0  0  0  0
  -21.6632   -6.8868   21.4239 O   0  0  0  0  0  0
  -22.3547  -14.5563   20.6702 O   0  0  0  0  0  0
  -24.6169  -31.8697   23.2179 C   0  0  0  0  0  0
  -25.9067  -32.4831   23.8466 C   0  0  1  0  0  0
  -27.2247  -27.4547   20.0801 C   0  0  0  0  0  0
  -25.5910  -33.8624   24.2396 N   0  0  0  0  0  0
  -23.4013  -30.4993   21.5569 C   0  0  2  0  0  0
  -24.8399  -28.9684   20.1191 C   0  0  0  0  0  0
  -22.7403  -29.4672   22.4982 C   0  0  0  0  0  0
  -18.0274  -28.1435   22.8493 C   0  0  0  0  0  0
  -24.1490  -36.7322   23.2621 C   0  0  0  0  0  0
  -25.9259  -30.8463   21.3590 C   0  0  0  0  0  0
  -26.0011  -29.4800   20.7094 C   0  0  0  0  0  0
  -27.1933  -28.7258   20.6938 C   0  0  0  0  0  0
  -26.0331  -26.9434   19.5115 C   0  0  0  0  0  0
  -24.8460  -27.6941   19.5292 C   0  0  0  0  0  0
  -23.6133  -29.8474   20.1666 C   0  0  0  0  0  0
  -25.4088  -36.3105   24.0343 C   0  0  1  0  0  0
  -20.5854  -28.3700   23.1325 C   0  0  2  0  0  0
  -20.6781  -26.9431   22.5433 C   0  0  0  0  0  0
  -19.5772  -26.6432   21.5229 C   0  0  0  0  0  0
  -18.1937  -26.7984   22.1621 C   0  0  0  0  0  0
  -19.1520  -28.8882   23.2918 C   0  0  0  0  0  0
  -18.9433  -30.1481   23.8946 C   0  0  0  0  0  0
  -17.6437  -30.6626   24.0596 C   0  0  0  0  0  0
  -25.9019  -34.9470   23.5160 C   0  0  0  0  0  0
  -16.5334  -29.9144   23.6317 C   0  0  0  0  0  0
  -16.7258  -28.6572   23.0312 C   0  0  0  0  0  0
  -26.4532  -31.6565   25.0754 C   0  0  0  0  0  0
  -25.3836  -31.3616   26.1528 C   0  0  0  0  0  0
  -27.0305  -30.3012   24.6026 C   0  0  0  0  0  0
  -27.6164  -32.4217   25.7517 C   0  0  0  0  0  0
  -27.5568  -37.1811   24.8465 C   0  0  0  0  0  0
  -21.4119  -29.3069   22.3733 N   0  0  0  0  0  0
  -26.4272  -37.3778   23.9421 N   0  0  0  0  0  0
  -24.6684  -31.0804   22.1088 N   0  0  0  0  0  0
  -23.4188  -28.8188   23.2987 O   0  0  0  0  0  0
  -28.4226  -26.7729   20.0762 O   0  0  0  0  0  0
  -26.5535  -34.8915   22.4695 O   0  0  0  0  0  0
  -23.5367  -32.1443   23.7576 O   0  0  0  0  0  0
  -32.2263  -23.5435   19.9600 C   0  0  0  0  0  0
  -31.8948  -24.1509   18.9565 C   0  0  0  0  0  0
  -31.4648  -16.8199   25.1376 C   0  0  0  0  0  0
  -30.9322  -15.5276   25.0234 C   0  0  0  0  0  0
  -31.5789  -17.6335   23.9968 C   0  0  0  0  0  0
  -30.5189  -15.0536   23.7677 C   0  0  0  0  0  0
  -31.1468  -17.1923   22.7196 C   0  0  0  0  0  0
  -30.6284  -15.8612   22.6106 C   0  0  0  0  0  0
  -31.3062  -18.1438   21.5512 C   0  0  0  0  0  0
  -29.1416  -24.5964   17.0436 C   0  0  0  0  0  0
  -30.7516  -23.7048   14.5160 C   0  0  0  0  0  0
  -30.6066  -21.8897   16.3187 C   0  0  0  0  0  0
  -32.6889  -22.8847   21.1952 C   0  0  0  0  0  0
  -31.5048  -24.9649   17.7880 C   0  0  0  0  0  0
  -28.6606  -25.8195   17.8390 C   0  0  0  0  0  0
  -31.7267  -21.8509   21.8147 C   0  0  0  0  0  0
  -31.5430  -20.5614   20.9845 C   0  0  0  0  0  0
  -28.5381  -25.5496   19.3502 C   0  0  0  0  0  0
  -31.0290  -23.3329   15.9879 C   0  0  0  0  0  0
  -30.0878  -15.2958   21.4264 N   0  0  0  0  0  0
  -31.1612  -19.4453   21.8482 N   0  0  0  0  0  0
  -30.4747  -24.3268   16.9397 N   0  0  0  0  0  0
  -31.5724  -17.7557   20.4130 O   0  0  0  0  0  0
  -28.2796  -23.9294   16.4635 O   0  0  0  0  0  0
  -31.4565  -12.4073   19.0894 H   0  0  0  0  0  0
  -30.3132  -11.2776   19.7636 H   0  0  0  0  0  0
  -29.7152  -11.8228   17.3884 H   0  0  0  0  0  0
  -29.6389  -13.5246   17.7839 H   0  0  0  0  0  0
  -27.8217  -11.3097   18.7951 H   0  0  0  0  0  0
  -27.3432  -12.6427   17.7837 H   0  0  0  0  0  0
  -27.7126  -14.2519   19.5996 H   0  0  0  0  0  0
  -28.6652  -11.8949   21.2889 H   0  0  0  0  0  0
  -28.4418  -13.5020   21.8872 H   0  0  0  0  0  0
  -25.2744   -9.5700   22.4766 H   0  0  0  0  0  0
  -23.9988   -7.4641   22.7474 H   0  0  0  0  0  0
  -21.0814   -8.8766   19.8965 H   0  0  0  0  0  0
  -22.3647  -10.9677   19.6174 H   0  0  0  0  0  0
  -21.2002   -7.6149   23.9713 H   0  0  0  0  0  0
  -21.1491   -6.0530   25.9082 H   0  0  0  0  0  0
  -22.0585   -2.7603   23.2869 H   0  0  0  0  0  0
  -22.4078  -11.9921   22.4833 H   0  0  0  0  0  0
  -21.1100  -13.1292   22.2605 H   0  0  0  0  0  0
  -24.6716  -15.8481   20.5087 H   0  0  0  0  0  0
  -26.2923  -15.6212   20.0945 H   0  0  0  0  0  0
  -26.7125  -32.5591   23.1224 H   0  0  0  0  0  0
  -25.0143  -33.9799   25.0601 H   0  0  0  0  0  0
  -22.6920  -31.3175   21.4242 H   0  0  0  0  0  0
  -23.3735  -35.9673   23.3301 H   0  0  0  0  0  0
  -24.3588  -36.8921   22.2034 H   0  0  0  0  0  0
  -23.7294  -37.6552   23.6626 H   0  0  0  0  0  0
  -26.0053  -31.6115   20.5858 H   0  0  0  0  0  0
  -26.8281  -30.9179   21.9546 H   0  0  0  0  0  0
  -28.0953  -29.1156   21.1442 H   0  0  0  0  0  0
  -25.9866  -25.9700   19.0474 H   0  0  0  0  0  0
  -23.9427  -27.2829   19.0981 H   0  0  0  0  0  0
  -23.7548  -30.6407   19.4327 H   0  0  0  0  0  0
  -22.7340  -29.2926   19.8406 H   0  0  0  0  0  0
  -25.1258  -36.1963   25.0829 H   0  0  0  0  0  0
  -20.9935  -28.3287   24.1452 H   0  0  0  0  0  0
  -20.5709  -26.2296   23.3606 H   0  0  0  0  0  0
  -21.6642  -26.7527   22.1186 H   0  0  0  0  0  0
  -19.6925  -25.6344   21.1265 H   0  0  0  0  0  0
  -19.6741  -27.3241   20.6761 H   0  0  0  0  0  0
  -17.4188  -26.6706   21.4038 H   0  0  0  0  0  0
  -18.0346  -26.0146   22.9045 H   0  0  0  0  0  0
  -19.7894  -30.7299   24.2345 H   0  0  0  0  0  0
  -17.4982  -31.6298   24.5213 H   0  0  0  0  0  0
  -15.5332  -30.3066   23.7632 H   0  0  0  0  0  0
  -15.8654  -28.0951   22.6956 H   0  0  0  0  0  0
  -24.6064  -30.6874   25.7911 H   0  0  0  0  0  0
  -24.8959  -32.2732   26.4999 H   0  0  0  0  0  0
  -25.8260  -30.8839   27.0284 H   0  0  0  0  0  0
  -26.2787  -29.6785   24.1155 H   0  0  0  0  0  0
  -27.4183  -29.7219   25.4425 H   0  0  0  0  0  0
  -27.8602  -30.4345   23.9064 H   0  0  0  0  0  0
  -27.2849  -33.3508   26.2158 H   0  0  0  0  0  0
  -28.3974  -32.6743   25.0336 H   0  0  0  0  0  0
  -28.0811  -31.8264   26.5381 H   0  0  0  0  0  0
  -28.2580  -38.0110   24.7455 H   0  0  0  0  0  0
  -28.1064  -36.2635   24.6335 H   0  0  0  0  0  0
  -27.2278  -37.1509   25.8865 H   0  0  0  0  0  0
  -20.9256  -29.8842   21.7016 H   0  0  0  0  0  0
  -26.0166  -38.2840   24.1490 H   0  0  0  0  0  0
  -31.7907  -17.1887   26.0995 H   0  0  0  0  0  0
  -30.8363  -14.8989   25.8981 H   0  0  0  0  0  0
  -32.0123  -18.6153   24.1217 H   0  0  0  0  0  0
  -30.1063  -14.0554   23.7059 H   0  0  0  0  0  0
  -31.2859  -23.0339   13.8422 H   0  0  0  0  0  0
  -31.0801  -24.7201   14.2879 H   0  0  0  0  0  0
  -29.6932  -23.6405   14.2613 H   0  0  0  0  0  0
  -31.1764  -21.1762   15.7223 H   0  0  0  0  0  0
  -29.5522  -21.7125   16.1114 H   0  0  0  0  0  0
  -30.7890  -21.6505   17.3673 H   0  0  0  0  0  0
  -32.8896  -23.6753   21.9195 H   0  0  0  0  0  0
  -33.6517  -22.4206   20.9753 H   0  0  0  0  0  0
  -32.4099  -25.1762   17.2170 H   0  0  0  0  0  0
  -31.2098  -25.9327   18.1872 H   0  0  0  0  0  0
  -29.3019  -26.6776   17.6411 H   0  0  0  0  0  0
  -27.6841  -26.1061   17.4476 H   0  0  0  0  0  0
  -30.7532  -22.3080   22.0021 H   0  0  0  0  0  0
  -32.1226  -21.5896   22.7969 H   0  0  0  0  0  0
  -32.4795  -20.3140   20.4800 H   0  0  0  0  0  0
  -30.7884  -20.7083   20.2087 H   0  0  0  0  0  0
  -29.4407  -25.0666   19.7177 H   0  0  0  0  0  0
  -27.7354  -24.8480   19.5804 H   0  0  0  0  0  0
  -32.1147  -23.3404   16.0872 H   0  0  0  0  0  0
  -29.1221  -15.0213   21.5287 H   0  0  0  0  0  0
  -30.9023  -19.6643   22.8003 H   0  0  0  0  0  0
  1 25  1  0  0  0
  1 30  2  0  0  0
  1 90  1  0  0  0
  2  3  1  0  0  0
  2 25  1  0  0  0
  2 95  1  0  0  0
  2 96  1  0  0  0
  3  4  1  0  0  0
  3 97  1  0  0  0
  3 98  1  0  0  0
  4  5  1  0  0  0
  4 99  1  0  0  0
  4100  1  0  0  0
  5  6  1  0  0  0
  5 26  1  0  0  0
  5101  1  0  0  0
  6 25  1  0  0  0
  6102  1  0  0  0
  6103  1  0  0  0
  7  8  2  0  0  0
  7 26  1  0  0  0
  7 29  1  0  0  0
  8  9  1  0  0  0
  8 22  1  0  0  0
  9 10  1  0  0  0
  9 27  2  0  0  0
 10 11  2  0  0  0
 10 15  1  0  0  0
 11 12  1  0  0  0
 11104  1  0  0  0
 12 13  2  0  0  0
 12105  1  0  0  0
 13 14  1  0  0  0
 13 31  1  0  0  0
 14 15  2  0  0  0
 14106  1  0  0  0
 15107  1  0  0  0
 16 17  2  0  0  0
 16 21  1  0  0  0
 16 31  1  0  0  0
 17 18  1  0  0  0
 17108  1  0  0  0
 18 19  2  0  0  0
 18109  1  0  0  0
 19 20  1  0  0  0
 19 24  1  0  0  0
 20 21  2  0  0  0
 20110  1  0  0  0
 21 23  1  0  0  0
 22 28  1  0  0  0
 22 32  2  0  0  0
 26 27  1  0  0  0
 28111  1  0  0  0
 28112  1  0  0  0
 29113  1  0  0  0
 29114  1  0  0  0
 33 34  1  0  0  0
 33 66  1  0  0  0
 33 70  2  0  0  0
 34 36  1  0  0  0
 34 59  1  0  0  0
 34115  1  0  0  0
 35 44  2  0  0  0
 35 45  1  0  0  0
 35 68  1  0  0  0
 36 56  1  0  0  0
 36116  1  0  0  0
 37 39  1  0  0  0
 37 47  1  0  0  0
 37 66  1  0  0  0
 37117  1  0  0  0
 38 43  2  0  0  0
 38 46  1  0  0  0
 38 47  1  0  0  0
 39 64  1  0  0  0
 39 67  2  0  0  0
 40 52  1  0  0  0
 40 53  2  0  0  0
 40 58  1  0  0  0
 41118  1  0  0  0
 41119  1  0  0  0
 41120  1  0  0  0
 41 48  1  0  0  0
 42 43  1  0  0  0
 42 66  1  0  0  0
 42121  1  0  0  0
 42122  1  0  0  0
 43 44  1  0  0  0
 44123  1  0  0  0
 45 46  2  0  0  0
 45124  1  0  0  0
 46125  1  0  0  0
 47126  1  0  0  0
 47127  1  0  0  0
 48 56  1  0  0  0
 48 65  1  0  0  0
 48128  1  0  0  0
 49 50  1  0  0  0
 49 53  1  0  0  0
 49 64  1  0  0  0
 49129  1  0  0  0
 50 51  1  0  0  0
 50130  1  0  0  0
 50131  1  0  0  0
 51 52  1  0  0  0
 51132  1  0  0  0
 51133  1  0  0  0
 52134  1  0  0  0
 52135  1  0  0  0
 53 54  1  0  0  0
 54 55  2  0  0  0
 54136  1  0  0  0
 55 57  1  0  0  0
 55137  1  0  0  0
 56 69  2  0  0  0
 57 58  2  0  0  0
 57138  1  0  0  0
 58139  1  0  0  0
 59 60  1  0  0  0
 59 61  1  0  0  0
 59 62  1  0  0  0
 60140  1  0  0  0
 60141  1  0  0  0
 60142  1  0  0  0
 61143  1  0  0  0
 61144  1  0  0  0
 61145  1  0  0  0
 62146  1  0  0  0
 62147  1  0  0  0
 62148  1  0  0  0
 63 65  1  0  0  0
 63149  1  0  0  0
 63150  1  0  0  0
 63151  1  0  0  0
 64152  1  0  0  0
 65153  1  0  0  0
 68 88  1  0  0  0
 71 72  3  0  0  0
 71 83  1  0  0  0
 72 84  1  0  0  0
 73 74  2  0  0  0
 73 75  1  0  0  0
 73154  1  0  0  0
 74 76  1  0  0  0
 74155  1  0  0  0
 75 77  2  0  0  0
 75156  1  0  0  0
 76 78  2  0  0  0
 76157  1  0  0  0
 77 78  1  0  0  0
 77 79  1  0  0  0
 78 90  1  0  0  0
 79 91  1  0  0  0
 79 93  2  0  0  0
 80 85  1  0  0  0
 80 92  1  0  0  0
 80 94  2  0  0  0
 81158  1  0  0  0
 81159  1  0  0  0
 81160  1  0  0  0
 81 89  1  0  0  0
 82 89  1  0  0  0
 82161  1  0  0  0
 82162  1  0  0  0
 82163  1  0  0  0
 83 86  1  0  0  0
 83164  1  0  0  0
 83165  1  0  0  0
 84 92  1  0  0  0
 84166  1  0  0  0
 84167  1  0  0  0
 85 88  1  0  0  0
 85168  1  0  0  0
 85169  1  0  0  0
 86 87  1  0  0  0
 86170  1  0  0  0
 86171  1  0  0  0
 87 91  1  0  0  0
 87172  1  0  0  0
 87173  1  0  0  0
 88174  1  0  0  0
 88175  1  0  0  0
 89 92  1  0  0  0
 89176  1  0  0  0
 90177  1  0  0  0
 91178  1  0  0  0
M  ISO  4   1 100  68 101  88 101  90 100
M  END
> <chiral flag>
0

> <version>
0

> <s_m_source_file>
/data/baiqing/PycharmProjects/Reinvent-master-3.2/result/LINK_invent/BTK/process_docking_weight1_custom_sum_contain_oxygen_bond_distance_aromatic_linkinvent_7_9_3/rearranged_h_0003.sdf

> <i_m_source_file_index>
20

> <r_mmod_Potential_Energy-OPLS-2005>
26.1987247467041

> <r_mmod_Stretch_Energy-OPLS-2005>
40.4357757568359

> <r_mmod_Bend_Energy-OPLS-2005>
118.357498168945

> <r_mmod_Torsional_Energy-OPLS-2005>
276.871490478516

> <r_mmod_Improper_Torsional_Energy-OPLS-2005>
7.07606887817383

> <r_mmod_Van_der_Waal_Energy-OPLS-2005>
165.503479003906

> <r_mmod_Electrostatic_Energy-OPLS-2005>
-335.380859375

> <r_mmod_Solvation_Energy-OPLS-2005>
-256.833221435547

> <b_mmod_Minimization_Converged-OPLS-2005>
0

> <r_mmod_RMS_Derivative-OPLS-2005>
4.04878377914429

$$$$
20
                    3D
 Structure written by MMmdl.
143150  0  0  1  0            999 V2000
  -30.3355  -15.5533   20.3377 C   0  0  0  0  0  0
  -30.4278  -13.0206   19.5356 C   0  0  0  0  0  0
  -29.5464  -12.6353   18.3151 C   0  0  0  0  0  0
  -28.1142  -12.2965   18.7563 C   0  0  0  0  0  0
  -27.5983  -13.2998   19.8136 C   0  0  2  0  0  0
  -28.6188  -13.6020   20.9348 C   0  0  0  0  0  0
  -25.2335  -13.8272   20.5783 C   0  0  0  0  0  0
  -24.1716  -13.0431   20.9280 C   0  0  0  0  0  0
  -24.6407  -11.6939   20.8763 C   0  0  0  0  0  0
  -23.9108  -10.4290   21.0398 C   0  0  0  0  0  0
  -24.3646   -9.4204   21.9179 C   0  0  0  0  0  0
  -23.6308   -8.2245   22.0753 C   0  0  0  0  0  0
  -22.4289   -8.0285   21.3544 C   0  0  0  0  0  0
  -21.9934   -9.0259   20.4644 C   0  0  0  0  0  0
  -22.7275  -10.2132   20.3050 C   0  0  0  0  0  0
  -21.6858   -6.0738   22.5278 C   0  0  0  0  0  0
  -21.4019   -6.5642   23.8212 C   0  0  0  0  0  0
  -21.3660   -5.6794   24.9173 C   0  0  0  0  0  0
  -21.6043   -4.3057   24.7224 C   0  0  0  0  0  0
  -21.8819   -3.8148   23.4345 C   0  0  0  0  0  0
  -21.9194   -4.6965   22.3402 C   0  0  0  0  0  0
  -22.7731  -13.5167   21.1917 C   0  0  0  0  0  0
  -22.1662   -4.2150   21.0979 F   0  0  0  0  0  0
  -21.5626   -3.4540   25.7737 F   0  0  0  0  0  0
  -29.8047  -14.1993   20.2827 N   0  0  0  0  0  0
  -26.2777  -12.9589   20.3227 N   0  0  0  0  0  0
  -25.9352  -11.6669   20.5705 N   0  0  0  0  0  0
  -22.0396  -12.8145   22.0471 N   0  0  0  0  0  0
  -25.3934  -15.2012   20.4226 N   0  0  0  0  0  0
  -31.5687  -15.5024   20.1771 O   0  0  0  0  0  0
  -21.6647   -6.8885   21.4242 O   0  0  0  0  0  0
  -22.3406  -14.5465   20.6752 O   0  0  0  0  0  0
  -24.6800  -31.8038   23.1543 C   0  0  0  0  0  0
  -25.9399  -32.4487   23.8074 C   0  0  1  0  0  0
  -27.2247  -26.7418   20.2123 C   0  0  0  0  0  0
  -25.5993  -33.8310   24.1966 N   0  0  0  0  0  0
  -23.5038  -30.4073   21.5074 C   0  0  2  0  0  0
  -24.9602  -28.7545   20.1181 C   0  0  0  0  0  0
  -22.7746  -29.4338   22.4723 C   0  0  0  0  0  0
  -18.0336  -28.1422   22.8456 C   0  0  0  0  0  0
  -24.1495  -36.7162   23.2653 C   0  0  0  0  0  0
  -26.0826  -30.5501   21.4119 C   0  0  0  0  0  0
  -26.1487  -29.1190   20.7619 C   0  0  0  0  0  0
  -27.2682  -28.1399   20.7756 C   0  0  0  0  0  0
  -26.0029  -26.5744   19.5148 C   0  0  0  0  0  0
  -24.9238  -27.5069   19.4714 C   0  0  0  0  0  0
  -23.7552  -29.7060   20.1417 C   0  0  0  0  0  0
  -25.4144  -36.2907   24.0285 C   0  0  1  0  0  0
  -20.5969  -28.3778   23.1151 C   0  0  2  0  0  0
  -20.6806  -26.9441   22.5404 C   0  0  0  0  0  0
  -19.5783  -26.6372   21.5218 C   0  0  0  0  0  0
  -18.1963  -26.7949   22.1618 C   0  0  0  0  0  0
  -19.1601  -28.8923   23.2785 C   0  0  0  0  0  0
  -18.9509  -30.1507   23.8830 C   0  0  0  0  0  0
  -17.6500  -30.6605   24.0552 C   0  0  0  0  0  0
  -25.9122  -34.9297   23.4960 C   0  0  0  0  0  0
  -16.5389  -29.9089   23.6351 C   0  0  0  0  0  0
  -16.7316  -28.6511   23.0366 C   0  0  0  0  0  0
  -26.4590  -31.6507   25.0681 C   0  0  0  0  0  0
  -25.3664  -31.3815   26.1302 C   0  0  0  0  0  0
  -27.0517  -30.2851   24.6551 C   0  0  0  0  0  0
  -27.6045  -32.4359   25.7497 C   0  0  0  0  0  0
  -27.5563  -37.1737   24.8467 C   0  0  0  0  0  0
  -21.4398  -29.3031   22.3473 N   0  0  0  0  0  0
  -26.4272  -37.3665   23.9408 N   0  0  0  0  0  0
  -24.7786  -30.9523   22.0774 N   0  0  0  0  0  0
  -23.4209  -28.7935   23.3052 O   0  0  0  0  0  0
  -28.2041  -25.5512   20.2801 O   0  0  0  0  0  0
  -26.5758  -34.8869   22.4574 O   0  0  0  0  0  0
  -23.5828  -32.1094   23.6523 O   0  0  0  0  0  0
  -28.7651  -20.2674   20.2904 C   0  0  0  0  0  0
  -29.0007  -22.1779   20.3080 C   0  0  0  0  0  0
  -29.8051  -18.6520   20.3467 C   0  0  0  0  0  0
  -28.0034  -23.8204   20.2032 C   0  0  0  0  0  0
  -29.5782  -16.9027   20.3825 N   0  0  0  0  0  0
  -31.4268  -13.2705   19.1767 H   0  0  0  0  0  0
  -30.5690  -12.1647   20.1980 H   0  0  0  0  0  0
  -29.9845  -11.7945   17.7757 H   0  0  0  0  0  0
  -29.5210  -13.4708   17.6137 H   0  0  0  0  0  0
  -28.1271  -11.2932   19.1840 H   0  0  0  0  0  0
  -27.4439  -12.2569   17.8969 H   0  0  0  0  0  0
  -27.4709  -14.2301   19.2582 H   0  0  0  0  0  0
  -28.8604  -12.7103   21.5153 H   0  0  0  0  0  0
  -28.2012  -14.3242   21.6380 H   0  0  0  0  0  0
  -25.2785   -9.5679   22.4764 H   0  0  0  0  0  0
  -24.0009   -7.4638   22.7481 H   0  0  0  0  0  0
  -21.0862   -8.8785   19.8952 H   0  0  0  0  0  0
  -22.3730  -10.9673   19.6163 H   0  0  0  0  0  0
  -21.2015   -7.6151   23.9715 H   0  0  0  0  0  0
  -21.1481   -6.0525   25.9076 H   0  0  0  0  0  0
  -22.0596   -2.7611   23.2846 H   0  0  0  0  0  0
  -22.4039  -11.9821   22.4865 H   0  0  0  0  0  0
  -21.1004  -13.1141   22.2671 H   0  0  0  0  0  0
  -24.6207  -15.8487   20.5359 H   0  0  0  0  0  0
  -26.2324  -15.6443   20.0726 H   0  0  0  0  0  0
  -26.7477  -32.4971   23.0784 H   0  0  0  0  0  0
  -25.0059  -33.9354   25.0062 H   0  0  0  0  0  0
  -22.8274  -31.2439   21.3201 H   0  0  0  0  0  0
  -23.3774  -35.9475   23.3272 H   0  0  0  0  0  0
  -24.3562  -36.8864   22.2076 H   0  0  0  0  0  0
  -23.7238  -37.6325   23.6753 H   0  0  0  0  0  0
  -26.2810  -31.2776   20.6238 H   0  0  0  0  0  0
  -26.9354  -30.6164   22.0750 H   0  0  0  0  0  0
  -28.1647  -28.4248   21.3080 H   0  0  0  0  0  0
  -25.8443  -25.6278   19.0182 H   0  0  0  0  0  0
  -24.0252  -27.2191   18.9430 H   0  0  0  0  0  0
  -23.9278  -30.4668   19.3796 H   0  0  0  0  0  0
  -22.8607  -29.1707   19.8189 H   0  0  0  0  0  0
  -25.1351  -36.1675   25.0775 H   0  0  0  0  0  0
  -21.0052  -28.3402   24.1277 H   0  0  0  0  0  0
  -20.5676  -26.2401   23.3662 H   0  0  0  0  0  0
  -21.6667  -26.7393   22.1218 H   0  0  0  0  0  0
  -19.6942  -25.6265   21.1292 H   0  0  0  0  0  0
  -19.6728  -27.3145   20.6718 H   0  0  0  0  0  0
  -17.4233  -26.6692   21.4021 H   0  0  0  0  0  0
  -18.0352  -26.0108   22.9031 H   0  0  0  0  0  0
  -19.7986  -30.7339   24.2170 H   0  0  0  0  0  0
  -17.5053  -31.6279   24.5166 H   0  0  0  0  0  0
  -15.5388  -30.2971   23.7716 H   0  0  0  0  0  0
  -15.8715  -28.0809   22.7122 H   0  0  0  0  0  0
  -24.5873  -30.7140   25.7600 H   0  0  0  0  0  0
  -24.8826  -32.3036   26.4537 H   0  0  0  0  0  0
  -25.7846  -30.9101   27.0204 H   0  0  0  0  0  0
  -26.3228  -29.6473   24.1543 H   0  0  0  0  0  0
  -27.3966  -29.7288   25.5278 H   0  0  0  0  0  0
  -27.9198  -30.3989   24.0055 H   0  0  0  0  0  0
  -27.2593  -33.3729   26.1879 H   0  0  0  0  0  0
  -28.3955  -32.6809   25.0396 H   0  0  0  0  0  0
  -28.0603  -31.8616   26.5574 H   0  0  0  0  0  0
  -28.2553  -38.0057   24.7511 H   0  0  0  0  0  0
  -28.1085  -36.2580   24.6299 H   0  0  0  0  0  0
  -27.2276  -37.1380   25.8868 H   0  0  0  0  0  0
  -20.9695  -29.8687   21.6544 H   0  0  0  0  0  0
  -26.0103  -38.2714   24.1421 H   0  0  0  0  0  0
  -28.1541  -20.1192   19.3998 H   0  0  0  0  0  0
  -28.0571  -20.1169   21.1057 H   0  0  0  0  0  0
  -29.7448  -22.3205   19.5244 H   0  0  0  0  0  0
  -29.5730  -22.3235   21.2244 H   0  0  0  0  0  0
  -30.4440  -18.8018   21.2176 H   0  0  0  0  0  0
  -30.4945  -18.7676   19.5099 H   0  0  0  0  0  0
  -27.2299  -23.6732   20.9571 H   0  0  0  0  0  0
  -27.4624  -23.7113   19.2633 H   0  0  0  0  0  0
  -28.5926  -16.6942   20.4591 H   0  0  0  0  0  0
  1 25  1  0  0  0
  1 30  2  0  0  0
  1 75  1  0  0  0
  2  3  1  0  0  0
  2 25  1  0  0  0
  2 76  1  0  0  0
  2 77  1  0  0  0
  3  4  1  0  0  0
  3 78  1  0  0  0
  3 79  1  0  0  0
  4  5  1  0  0  0
  4 80  1  0  0  0
  4 81  1  0  0  0
  5  6  1  0  0  0
  5 26  1  0  0  0
  5 82  1  0  0  0
  6 25  1  0  0  0
  6 83  1  0  0  0
  6 84  1  0  0  0
  7  8  2  0  0  0
  7 26  1  0  0  0
  7 29  1  0  0  0
  8  9  1  0  0  0
  8 22  1  0  0  0
  9 10  1  0  0  0
  9 27  2  0  0  0
 10 11  2  0  0  0
 10 15  1  0  0  0
 11 12  1  0  0  0
 11 85  1  0  0  0
 12 13  2  0  0  0
 12 86  1  0  0  0
 13 14  1  0  0  0
 13 31  1  0  0  0
 14 15  2  0  0  0
 14 87  1  0  0  0
 15 88  1  0  0  0
 16 17  2  0  0  0
 16 21  1  0  0  0
 16 31  1  0  0  0
 17 18  1  0  0  0
 17 89  1  0  0  0
 18 19  2  0  0  0
 18 90  1  0  0  0
 19 20  1  0  0  0
 19 24  1  0  0  0
 20 21  2  0  0  0
 20 91  1  0  0  0
 21 23  1  0  0  0
 22 28  1  0  0  0
 22 32  2  0  0  0
 26 27  1  0  0  0
 28 92  1  0  0  0
 28 93  1  0  0  0
 29 94  1  0  0  0
 29 95  1  0  0  0
 33 34  1  0  0  0
 33 66  1  0  0  0
 33 70  2  0  0  0
 34 36  1  0  0  0
 34 59  1  0  0  0
 34 96  1  0  0  0
 35 44  2  0  0  0
 35 45  1  0  0  0
 35 68  1  0  0  0
 36 56  1  0  0  0
 36 97  1  0  0  0
 37 39  1  0  0  0
 37 47  1  0  0  0
 37 66  1  0  0  0
 37 98  1  0  0  0
 38 43  2  0  0  0
 38 46  1  0  0  0
 38 47  1  0  0  0
 39 64  1  0  0  0
 39 67  2  0  0  0
 40 52  1  0  0  0
 40 53  2  0  0  0
 40 58  1  0  0  0
 41 99  1  0  0  0
 41100  1  0  0  0
 41101  1  0  0  0
 41 48  1  0  0  0
 42 43  1  0  0  0
 42 66  1  0  0  0
 42102  1  0  0  0
 42103  1  0  0  0
 43 44  1  0  0  0
 44104  1  0  0  0
 45 46  2  0  0  0
 45105  1  0  0  0
 46106  1  0  0  0
 47107  1  0  0  0
 47108  1  0  0  0
 48 56  1  0  0  0
 48 65  1  0  0  0
 48109  1  0  0  0
 49 50  1  0  0  0
 49 53  1  0  0  0
 49 64  1  0  0  0
 49110  1  0  0  0
 50 51  1  0  0  0
 50111  1  0  0  0
 50112  1  0  0  0
 51 52  1  0  0  0
 51113  1  0  0  0
 51114  1  0  0  0
 52115  1  0  0  0
 52116  1  0  0  0
 53 54  1  0  0  0
 54 55  2  0  0  0
 54117  1  0  0  0
 55 57  1  0  0  0
 55118  1  0  0  0
 56 69  2  0  0  0
 57 58  2  0  0  0
 57119  1  0  0  0
 58120  1  0  0  0
 59 60  1  0  0  0
 59 61  1  0  0  0
 59 62  1  0  0  0
 60121  1  0  0  0
 60122  1  0  0  0
 60123  1  0  0  0
 61124  1  0  0  0
 61125  1  0  0  0
 61126  1  0  0  0
 62127  1  0  0  0
 62128  1  0  0  0
 62129  1  0  0  0
 63 65  1  0  0  0
 63130  1  0  0  0
 63131  1  0  0  0
 63132  1  0  0  0
 64133  1  0  0  0
 65134  1  0  0  0
 68 74  1  0  0  0
 71 72  1  0  0  0
 71 73  1  0  0  0
 71135  1  0  0  0
 71136  1  0  0  0
 72 74  1  0  0  0
 72137  1  0  0  0
 72138  1  0  0  0
 73 75  1  0  0  0
 73139  1  0  0  0
 73140  1  0  0  0
 74141  1  0  0  0
 74142  1  0  0  0
 75143  1  0  0  0
M  ISO  4   1 100  68 101  74 101  75 100
M  END
> <chiral flag>
0

> <version>
0

> <s_m_source_file>
/data/baiqing/PycharmProjects/Reinvent-master-3.2/result/LINK_invent/BTK/process_docking_weight1_custom_sum_contain_oxygen_bond_distance_aromatic_linkinvent_7_9_3/rearranged_h_0003.sdf

> <i_m_source_file_index>
21

> <r_mmod_Potential_Energy-OPLS-2005>
2236.59155273438

> <r_mmod_Stretch_Energy-OPLS-2005>
1088.18041992188

> <r_mmod_Bend_Energy-OPLS-2005>
600.093139648438

> <r_mmod_Torsional_Energy-OPLS-2005>
206.369812011719

> <r_mmod_Improper_Torsional_Energy-OPLS-2005>
3.66827178001404

> <r_mmod_Van_der_Waal_Energy-OPLS-2005>
110.215888977051

> <r_mmod_Electrostatic_Energy-OPLS-2005>
-352.887237548828

> <r_mmod_Solvation_Energy-OPLS-2005>
-215.827575683594

> <b_mmod_Minimization_Converged-OPLS-2005>
0

> <r_mmod_RMS_Derivative-OPLS-2005>
0.268112510442734

$$$$
21
                    3D
 Structure written by MMmdl.
162170  0  0  1  0            999 V2000
  -30.6272  -14.5140   20.5397 C   0  0  0  0  0  0
  -30.4507  -12.3198   19.4162 C   0  0  0  0  0  0
  -29.5034  -12.4794   18.2055 C   0  0  0  0  0  0
  -28.0239  -12.3309   18.6261 C   0  0  0  0  0  0
  -27.6583  -13.1878   19.8657 C   0  0  2  0  0  0
  -28.7054  -12.9812   20.9848 C   0  0  0  0  0  0
  -25.2608  -13.8092   20.5708 C   0  0  0  0  0  0
  -24.1838  -13.0390   20.9204 C   0  0  0  0  0  0
  -24.6363  -11.6857   20.8732 C   0  0  0  0  0  0
  -23.9027  -10.4263   21.0406 C   0  0  0  0  0  0
  -24.3590   -9.4195   21.9188 C   0  0  0  0  0  0
  -23.6295   -8.2218   22.0736 C   0  0  0  0  0  0
  -22.4274   -8.0270   21.3519 C   0  0  0  0  0  0
  -21.9887   -9.0242   20.4622 C   0  0  0  0  0  0
  -22.7199  -10.2135   20.3052 C   0  0  0  0  0  0
  -21.6864   -6.0732   22.5280 C   0  0  0  0  0  0
  -21.4015   -6.5637   23.8217 C   0  0  0  0  0  0
  -21.3667   -5.6780   24.9175 C   0  0  0  0  0  0
  -21.6050   -4.3044   24.7217 C   0  0  0  0  0  0
  -21.8820   -3.8145   23.4332 C   0  0  0  0  0  0
  -21.9194   -4.6962   22.3399 C   0  0  0  0  0  0
  -22.7885  -13.5241   21.1839 C   0  0  0  0  0  0
  -22.1684   -4.2165   21.0976 F   0  0  0  0  0  0
  -21.5616   -3.4518   25.7715 F   0  0  0  0  0  0
  -30.0302  -13.3001   20.4218 N   0  0  0  0  0  0
  -26.3005  -12.9237   20.3314 N   0  0  0  0  0  0
  -25.9279  -11.6420   20.5732 N   0  0  0  0  0  0
  -22.0488  -12.8251   22.0400 N   0  0  0  0  0  0
  -25.4215  -15.1815   20.4097 N   0  0  0  0  0  0
  -31.8107  -14.7337   20.2630 O   0  0  0  0  0  0
  -21.6628   -6.8870   21.4242 O   0  0  0  0  0  0
  -22.3585  -14.5557   20.6693 O   0  0  0  0  0  0
  -24.6116  -31.8732   23.2112 C   0  0  0  0  0  0
  -25.9047  -32.4833   23.8389 C   0  0  1  0  0  0
  -27.2118  -27.4609   20.0844 C   0  0  0  0  0  0
  -25.5936  -33.8637   24.2351 N   0  0  0  0  0  0
  -23.3924  -30.5006   21.5565 C   0  0  2  0  0  0
  -24.8323  -28.9714   20.1079 C   0  0  0  0  0  0
  -22.7392  -29.4684   22.5040 C   0  0  0  0  0  0
  -18.0251  -28.1272   22.8513 C   0  0  0  0  0  0
  -24.1479  -36.7322   23.2613 C   0  0  0  0  0  0
  -25.9175  -30.8432   21.3558 C   0  0  0  0  0  0
  -25.9909  -29.4777   20.7107 C   0  0  0  0  0  0
  -27.1859  -28.7276   20.7036 C   0  0  0  0  0  0
  -26.0532  -26.9704   19.4548 C   0  0  0  0  0  0
  -24.8580  -27.7160   19.4763 C   0  0  0  0  0  0
  -23.5958  -29.8405   20.1653 C   0  0  0  0  0  0
  -25.4111  -36.3135   24.0320 C   0  0  1  0  0  0
  -20.5854  -28.3652   23.1345 C   0  0  2  0  0  0
  -20.6784  -26.9379   22.5447 C   0  0  0  0  0  0
  -19.5746  -26.6273   21.5288 C   0  0  0  0  0  0
  -18.1924  -26.7747   22.1766 C   0  0  0  0  0  0
  -19.1490  -28.8773   23.2864 C   0  0  0  0  0  0
  -18.9421  -30.1406   23.8800 C   0  0  0  0  0  0
  -17.6429  -30.6578   24.0446 C   0  0  0  0  0  0
  -25.9046  -34.9495   23.5138 C   0  0  0  0  0  0
  -16.5321  -29.9036   23.6288 C   0  0  0  0  0  0
  -16.7239  -28.6414   23.0374 C   0  0  0  0  0  0
  -26.4449  -31.6586   25.0689 C   0  0  0  0  0  0
  -25.3726  -31.3734   26.1466 C   0  0  0  0  0  0
  -27.0238  -30.3040   24.5998 C   0  0  0  0  0  0
  -27.6049  -32.4287   25.7434 C   0  0  0  0  0  0
  -27.5600  -37.1820   24.8462 C   0  0  0  0  0  0
  -21.4116  -29.3065   22.3809 N   0  0  0  0  0  0
  -26.4304  -37.3827   23.9408 N   0  0  0  0  0  0
  -24.6592  -31.0864   22.0996 N   0  0  0  0  0  0
  -23.4197  -28.8234   23.3053 O   0  0  0  0  0  0
  -28.3362  -26.6790   20.1065 O   0  0  0  0  0  0
  -26.5587  -34.8944   22.4688 O   0  0  0  0  0  0
  -23.5346  -32.1494   23.7560 O   0  0  0  0  0  0
  -30.2347  -18.4961   22.8118 C   0  0  0  0  0  0
  -30.5019  -17.2525   22.1896 C   0  0  0  0  0  0
  -28.6295  -17.6481   20.6917 C   0  0  0  0  0  0
  -29.1552  -19.3227   22.3980 C   0  0  0  0  0  0
  -29.6687  -16.8059   21.1415 C   0  0  0  0  0  0
  -28.3732  -18.9128   21.2852 C   0  0  0  0  0  0
  -28.8998  -20.6331   23.1230 C   0  0  0  0  0  0
  -27.0689  -19.7543   19.4464 C   0  0  0  0  0  0
  -27.0991  -22.1423   24.0433 C   0  0  0  0  0  0
  -26.5977  -23.3013   23.1562 C   0  0  0  0  0  0
  -28.4776  -25.9524   21.3320 C   0  0  0  0  0  0
  -27.3265  -24.9552   21.5985 C   0  0  0  0  0  0
  -29.7027  -15.4929   20.5886 N   0  0  0  0  0  0
  -27.6157  -21.0086   23.2630 N   0  0  0  0  0  0
  -29.8365  -21.2624   23.6213 O   0  0  0  0  0  0
  -27.3670  -19.7427   20.8385 O   0  0  0  0  0  0
  -27.7048  -23.9884   22.5765 O   0  0  0  0  0  0
  -31.4887  -12.4590   19.1088 H   0  0  0  0  0  0
  -30.3889  -11.3123   19.8367 H   0  0  0  0  0  0
  -29.7421  -11.7307   17.4491 H   0  0  0  0  0  0
  -29.6663  -13.4510   17.7326 H   0  0  0  0  0  0
  -27.8528  -11.2775   18.8528 H   0  0  0  0  0  0
  -27.3654  -12.5682   17.7898 H   0  0  0  0  0  0
  -27.6813  -14.2261   19.5414 H   0  0  0  0  0  0
  -28.6869  -11.9502   21.3419 H   0  0  0  0  0  0
  -28.4759  -13.6043   21.8526 H   0  0  0  0  0  0
  -25.2726   -9.5689   22.4769 H   0  0  0  0  0  0
  -24.0022   -7.4580   22.7425 H   0  0  0  0  0  0
  -21.0819   -8.8746   19.8908 H   0  0  0  0  0  0
  -22.3652  -10.9681   19.6170 H   0  0  0  0  0  0
  -21.2028   -7.6147   23.9733 H   0  0  0  0  0  0
  -21.1489   -6.0499   25.9077 H   0  0  0  0  0  0
  -22.0591   -2.7616   23.2813 H   0  0  0  0  0  0
  -22.4136  -11.9995   22.4923 H   0  0  0  0  0  0
  -21.1084  -13.1268   22.2523 H   0  0  0  0  0  0
  -24.6297  -15.8063   20.5172 H   0  0  0  0  0  0
  -26.2398  -15.6354   20.0309 H   0  0  0  0  0  0
  -26.7142  -32.5552   23.1180 H   0  0  0  0  0  0
  -25.0159  -33.9782   25.0563 H   0  0  0  0  0  0
  -22.6720  -31.3124   21.4347 H   0  0  0  0  0  0
  -23.3731  -35.9665   23.3263 H   0  0  0  0  0  0
  -24.3584  -36.8936   22.2033 H   0  0  0  0  0  0
  -23.7222  -37.6527   23.6613 H   0  0  0  0  0  0
  -26.0244  -31.6043   20.5807 H   0  0  0  0  0  0
  -26.8056  -30.8986   21.9707 H   0  0  0  0  0  0
  -28.0796  -29.1120   21.1716 H   0  0  0  0  0  0
  -26.0678  -26.0097   18.9577 H   0  0  0  0  0  0
  -23.9734  -27.3343   18.9863 H   0  0  0  0  0  0
  -23.6925  -30.6181   19.4043 H   0  0  0  0  0  0
  -22.7148  -29.2611   19.8781 H   0  0  0  0  0  0
  -25.1279  -36.2006   25.0804 H   0  0  0  0  0  0
  -20.9859  -28.3119   24.1496 H   0  0  0  0  0  0
  -20.5755  -26.2284   23.3681 H   0  0  0  0  0  0
  -21.6633  -26.7383   22.1214 H   0  0  0  0  0  0
  -19.6978  -25.6195   21.1268 H   0  0  0  0  0  0
  -19.6581  -27.3119   20.6829 H   0  0  0  0  0  0
  -17.4143  -26.6302   21.4252 H   0  0  0  0  0  0
  -18.0425  -25.9946   22.9254 H   0  0  0  0  0  0
  -19.7924  -30.7213   24.2116 H   0  0  0  0  0  0
  -17.5018  -31.6295   24.4941 H   0  0  0  0  0  0
  -15.5340  -30.2937   23.7609 H   0  0  0  0  0  0
  -15.8623  -28.0688   22.7178 H   0  0  0  0  0  0
  -24.5912  -30.7037   25.7842 H   0  0  0  0  0  0
  -24.8890  -32.2906   26.4852 H   0  0  0  0  0  0
  -25.8101  -30.8992   27.0263 H   0  0  0  0  0  0
  -26.2753  -29.6842   24.1059 H   0  0  0  0  0  0
  -27.4036  -29.7221   25.4394 H   0  0  0  0  0  0
  -27.8559  -30.4339   23.9086 H   0  0  0  0  0  0
  -27.2695  -33.3592   26.2034 H   0  0  0  0  0  0
  -28.3843  -32.6863   25.0240 H   0  0  0  0  0  0
  -28.0717  -31.8396   26.5344 H   0  0  0  0  0  0
  -28.2647  -38.0102   24.7545 H   0  0  0  0  0  0
  -28.1069  -36.2646   24.6234 H   0  0  0  0  0  0
  -27.2317  -37.1419   25.8866 H   0  0  0  0  0  0
  -20.9267  -29.8883   21.7128 H   0  0  0  0  0  0
  -26.0179  -38.2891   24.1462 H   0  0  0  0  0  0
  -30.8581  -18.8034   23.6420 H   0  0  0  0  0  0
  -31.3054  -16.6339   22.5691 H   0  0  0  0  0  0
  -27.9965  -17.2963   19.8938 H   0  0  0  0  0  0
  -26.6084  -18.8247   19.1123 H   0  0  0  0  0  0
  -27.9554  -19.9620   18.8442 H   0  0  0  0  0  0
  -26.3518  -20.5537   19.2498 H   0  0  0  0  0  0
  -26.2647  -21.7767   24.6462 H   0  0  0  0  0  0
  -27.8346  -22.5089   24.7614 H   0  0  0  0  0  0
  -26.0441  -24.0059   23.7810 H   0  0  0  0  0  0
  -25.8944  -22.9381   22.4015 H   0  0  0  0  0  0
  -29.4197  -25.4071   21.2682 H   0  0  0  0  0  0
  -28.5739  -26.6476   22.1690 H   0  0  0  0  0  0
  -27.0719  -24.4160   20.6853 H   0  0  0  0  0  0
  -26.4373  -25.5060   21.9128 H   0  0  0  0  0  0
  -28.7939  -15.1415   20.3329 H   0  0  0  0  0  0
  -26.9320  -20.4285   22.7915 H   0  0  0  0  0  0
  1 25  1  0  0  0
  1 30  2  0  0  0
  1 83  1  0  0  0
  2  3  1  0  0  0
  2 25  1  0  0  0
  2 88  1  0  0  0
  2 89  1  0  0  0
  3  4  1  0  0  0
  3 90  1  0  0  0
  3 91  1  0  0  0
  4  5  1  0  0  0
  4 92  1  0  0  0
  4 93  1  0  0  0
  5  6  1  0  0  0
  5 26  1  0  0  0
  5 94  1  0  0  0
  6 25  1  0  0  0
  6 95  1  0  0  0
  6 96  1  0  0  0
  7  8  2  0  0  0
  7 26  1  0  0  0
  7 29  1  0  0  0
  8  9  1  0  0  0
  8 22  1  0  0  0
  9 10  1  0  0  0
  9 27  2  0  0  0
 10 11  2  0  0  0
 10 15  1  0  0  0
 11 12  1  0  0  0
 11 97  1  0  0  0
 12 13  2  0  0  0
 12 98  1  0  0  0
 13 14  1  0  0  0
 13 31  1  0  0  0
 14 15  2  0  0  0
 14 99  1  0  0  0
 15100  1  0  0  0
 16 17  2  0  0  0
 16 21  1  0  0  0
 16 31  1  0  0  0
 17 18  1  0  0  0
 17101  1  0  0  0
 18 19  2  0  0  0
 18102  1  0  0  0
 19 20  1  0  0  0
 19 24  1  0  0  0
 20 21  2  0  0  0
 20103  1  0  0  0
 21 23  1  0  0  0
 22 28  1  0  0  0
 22 32  2  0  0  0
 26 27  1  0  0  0
 28104  1  0  0  0
 28105  1  0  0  0
 29106  1  0  0  0
 29107  1  0  0  0
 33 34  1  0  0  0
 33 66  1  0  0  0
 33 70  2  0  0  0
 34 36  1  0  0  0
 34 59  1  0  0  0
 34108  1  0  0  0
 35 44  2  0  0  0
 35 45  1  0  0  0
 35 68  1  0  0  0
 36 56  1  0  0  0
 36109  1  0  0  0
 37 39  1  0  0  0
 37 47  1  0  0  0
 37 66  1  0  0  0
 37110  1  0  0  0
 38 43  2  0  0  0
 38 46  1  0  0  0
 38 47  1  0  0  0
 39 64  1  0  0  0
 39 67  2  0  0  0
 40 52  1  0  0  0
 40 53  2  0  0  0
 40 58  1  0  0  0
 41111  1  0  0  0
 41112  1  0  0  0
 41113  1  0  0  0
 41 48  1  0  0  0
 42 43  1  0  0  0
 42 66  1  0  0  0
 42114  1  0  0  0
 42115  1  0  0  0
 43 44  1  0  0  0
 44116  1  0  0  0
 45 46  2  0  0  0
 45117  1  0  0  0
 46118  1  0  0  0
 47119  1  0  0  0
 47120  1  0  0  0
 48 56  1  0  0  0
 48 65  1  0  0  0
 48121  1  0  0  0
 49 50  1  0  0  0
 49 53  1  0  0  0
 49 64  1  0  0  0
 49122  1  0  0  0
 50 51  1  0  0  0
 50123  1  0  0  0
 50124  1  0  0  0
 51 52  1  0  0  0
 51125  1  0  0  0
 51126  1  0  0  0
 52127  1  0  0  0
 52128  1  0  0  0
 53 54  1  0  0  0
 54 55  2  0  0  0
 54129  1  0  0  0
 55 57  1  0  0  0
 55130  1  0  0  0
 56 69  2  0  0  0
 57 58  2  0  0  0
 57131  1  0  0  0
 58132  1  0  0  0
 59 60  1  0  0  0
 59 61  1  0  0  0
 59 62  1  0  0  0
 60133  1  0  0  0
 60134  1  0  0  0
 60135  1  0  0  0
 61136  1  0  0  0
 61137  1  0  0  0
 61138  1  0  0  0
 62139  1  0  0  0
 62140  1  0  0  0
 62141  1  0  0  0
 63 65  1  0  0  0
 63142  1  0  0  0
 63143  1  0  0  0
 63144  1  0  0  0
 64145  1  0  0  0
 65146  1  0  0  0
 68 81  1  0  0  0
 71 72  2  0  0  0
 71 74  1  0  0  0
 71147  1  0  0  0
 72 75  1  0  0  0
 72148  1  0  0  0
 73 75  2  0  0  0
 73 76  1  0  0  0
 73149  1  0  0  0
 74 76  2  0  0  0
 74 77  1  0  0  0
 75 83  1  0  0  0
 76 86  1  0  0  0
 77 84  1  0  0  0
 77 85  2  0  0  0
 78 86  1  0  0  0
 78150  1  0  0  0
 78151  1  0  0  0
 78152  1  0  0  0
 79 80  1  0  0  0
 79 84  1  0  0  0
 79153  1  0  0  0
 79154  1  0  0  0
 80 87  1  0  0  0
 80155  1  0  0  0
 80156  1  0  0  0
 81 82  1  0  0  0
 81157  1  0  0  0
 81158  1  0  0  0
 82 87  1  0  0  0
 82159  1  0  0  0
 82160  1  0  0  0
 83161  1  0  0  0
 84162  1  0  0  0
M  ISO  4   1 100  68 101  81 101  83 100
M  END
> <chiral flag>
0

> <version>
0

> <s_m_source_file>
/data/baiqing/PycharmProjects/Reinvent-master-3.2/result/LINK_invent/BTK/process_docking_weight1_custom_sum_contain_oxygen_bond_distance_aromatic_linkinvent_7_9_3/rearranged_h_0003.sdf

> <i_m_source_file_index>
22

> <r_mmod_Potential_Energy-OPLS-2005>
-14.2403697967529

> <r_mmod_Stretch_Energy-OPLS-2005>
37.424560546875

> <r_mmod_Bend_Energy-OPLS-2005>
112.217109680176

> <r_mmod_Torsional_Energy-OPLS-2005>
278.319458007812

> <r_mmod_Improper_Torsional_Energy-OPLS-2005>
12.7958030700684

> <r_mmod_Van_der_Waal_Energy-OPLS-2005>
154.069244384766

> <r_mmod_Electrostatic_Energy-OPLS-2005>
-387.764801025391

> <r_mmod_Solvation_Energy-OPLS-2005>
-243.354797363281

> <b_mmod_Minimization_Converged-OPLS-2005>
0

> <r_mmod_RMS_Derivative-OPLS-2005>
6.18967580795288

$$$$
22
                    3D
 Structure written by MMmdl.
165173  0  0  1  0            999 V2000
  -30.8030  -14.2986   20.7643 C   0  0  0  0  0  0
  -30.4176  -12.3036   19.3583 C   0  0  0  0  0  0
  -29.4693  -12.5323   18.1693 C   0  0  0  0  0  0
  -27.9982  -12.3847   18.5964 C   0  0  0  0  0  0
  -27.6646  -13.1985   19.8726 C   0  0  2  0  0  0
  -28.7029  -12.9171   20.9787 C   0  0  0  0  0  0
  -25.2606  -13.8160   20.5662 C   0  0  0  0  0  0
  -24.1848  -13.0444   20.9166 C   0  0  0  0  0  0
  -24.6379  -11.6905   20.8725 C   0  0  0  0  0  0
  -23.9048  -10.4295   21.0404 C   0  0  0  0  0  0
  -24.3607   -9.4212   21.9182 C   0  0  0  0  0  0
  -23.6282   -8.2247   22.0748 C   0  0  0  0  0  0
  -22.4266   -8.0285   21.3545 C   0  0  0  0  0  0
  -21.9903   -9.0257   20.4646 C   0  0  0  0  0  0
  -22.7222  -10.2136   20.3054 C   0  0  0  0  0  0
  -21.6852   -6.0742   22.5279 C   0  0  0  0  0  0
  -21.4008   -6.5639   23.8212 C   0  0  0  0  0  0
  -21.3657   -5.6790   24.9173 C   0  0  0  0  0  0
  -21.6045   -4.3053   24.7223 C   0  0  0  0  0  0
  -21.8821   -3.8148   23.4339 C   0  0  0  0  0  0
  -21.9191   -4.6970   22.3399 C   0  0  0  0  0  0
  -22.7875  -13.5253   21.1845 C   0  0  0  0  0  0
  -22.1662   -4.2156   21.0978 F   0  0  0  0  0  0
  -21.5630   -3.4532   25.7733 F   0  0  0  0  0  0
  -30.0479  -13.2171   20.4487 N   0  0  0  0  0  0
  -26.3039  -12.9301   20.3357 N   0  0  0  0  0  0
  -25.9302  -11.6468   20.5738 N   0  0  0  0  0  0
  -22.0498  -12.8260   22.0390 N   0  0  0  0  0  0
  -25.4366  -15.1864   20.4083 N   0  0  0  0  0  0
  -31.7545  -14.6899   20.0790 O   0  0  0  0  0  0
  -21.6632   -6.8881   21.4241 O   0  0  0  0  0  0
  -22.3563  -14.5563   20.6684 O   0  0  0  0  0  0
  -24.6155  -31.8710   23.2164 C   0  0  0  0  0  0
  -25.9028  -32.4866   23.8477 C   0  0  1  0  0  0
  -27.2324  -27.4480   20.0764 C   0  0  0  0  0  0
  -25.5880  -33.8665   24.2421 N   0  0  0  0  0  0
  -23.4021  -30.4979   21.5589 C   0  0  2  0  0  0
  -24.8414  -28.9628   20.1213 C   0  0  0  0  0  0
  -22.7430  -29.4703   22.5070 C   0  0  0  0  0  0
  -18.0274  -28.1381   22.8504 C   0  0  0  0  0  0
  -24.1442  -36.7317   23.2648 C   0  0  0  0  0  0
  -25.9312  -30.8372   21.3643 C   0  0  0  0  0  0
  -26.0044  -29.4722   20.7146 C   0  0  0  0  0  0
  -27.2008  -28.7197   20.6921 C   0  0  0  0  0  0
  -26.0445  -26.9514   19.4863 C   0  0  0  0  0  0
  -24.8571  -27.6993   19.5089 C   0  0  0  0  0  0
  -23.6029  -29.8291   20.1738 C   0  0  0  0  0  0
  -25.4058  -36.3165   24.0381 C   0  0  1  0  0  0
  -20.5867  -28.3661   23.1313 C   0  0  2  0  0  0
  -20.6754  -26.9400   22.5413 C   0  0  0  0  0  0
  -19.5723  -26.6393   21.5207 C   0  0  0  0  0  0
  -18.1906  -26.7932   22.1630 C   0  0  0  0  0  0
  -19.1523  -28.8839   23.2903 C   0  0  0  0  0  0
  -18.9457  -30.1443   23.8917 C   0  0  0  0  0  0
  -17.6460  -30.6582   24.0571 C   0  0  0  0  0  0
  -25.9008  -34.9516   23.5219 C   0  0  0  0  0  0
  -16.5340  -29.9085   23.6318 C   0  0  0  0  0  0
  -16.7267  -28.6488   23.0376 C   0  0  0  0  0  0
  -26.4430  -31.6646   25.0811 C   0  0  0  0  0  0
  -25.3761  -31.3698   26.1621 C   0  0  0  0  0  0
  -27.0238  -30.3121   24.6119 C   0  0  0  0  0  0
  -27.6045  -32.4354   25.7544 C   0  0  0  0  0  0
  -27.5572  -37.1815   24.8483 C   0  0  0  0  0  0
  -21.4174  -29.3016   22.3742 N   0  0  0  0  0  0
  -26.4262  -37.3839   23.9452 N   0  0  0  0  0  0
  -24.6691  -31.0846   22.1032 N   0  0  0  0  0  0
  -23.4215  -28.8245   23.3109 O   0  0  0  0  0  0
  -28.4156  -26.7388   20.0794 O   0  0  0  0  0  0
  -26.5550  -34.8954   22.4771 O   0  0  0  0  0  0
  -23.5324  -32.1431   23.7560 O   0  0  0  0  0  0
  -32.2361  -15.7183   25.1233 C   0  0  0  0  0  0
  -31.3815  -15.0943   24.1933 C   0  0  0  0  0  0
  -33.0684  -16.7769   24.7112 C   0  0  0  0  0  0
  -32.1786  -16.5919   22.4346 C   0  0  0  0  0  0
  -31.3650  -15.5088   22.8444 C   0  0  0  0  0  0
  -33.0286  -17.2148   23.3729 C   0  0  0  0  0  0
  -30.5458  -22.9948   21.2180 C   0  0  0  0  0  0
  -30.2862  -22.3060   22.5636 C   0  0  0  0  0  0
  -31.5526  -21.7630   23.2535 C   0  0  0  0  0  0
  -31.9934  -20.3738   22.7498 C   0  0  0  0  0  0
  -29.7807  -24.7654   19.6510 C   0  0  0  0  0  0
  -28.4335  -25.4661   19.4328 C   0  0  0  0  0  0
  -30.4928  -14.8277   21.9586 N   0  0  0  0  0  0
  -29.7851  -24.0564   20.9275 N   0  0  0  0  0  0
  -33.2323  -19.9626   23.4133 N   0  0  0  0  0  0
  -31.4050  -22.5651   20.4460 O   0  0  0  0  0  0
  -35.3339  -18.5271   23.6377 O   0  0  0  0  0  0
  -34.1284  -18.6543   21.3966 O   0  0  0  0  0  0
  -34.0819  -18.5749   22.8666 S   0  0  0  0  0  0
  -31.4540  -12.4335   19.0412 H   0  0  0  0  0  0
  -30.3446  -11.2729   19.7076 H   0  0  0  0  0  0
  -29.6935  -11.8236   17.3709 H   0  0  0  0  0  0
  -29.6342  -13.5254   17.7505 H   0  0  0  0  0  0
  -27.8040  -11.3263   18.7710 H   0  0  0  0  0  0
  -27.3385  -12.6828   17.7814 H   0  0  0  0  0  0
  -27.7302  -14.2561   19.6136 H   0  0  0  0  0  0
  -28.6665  -11.8645   21.2671 H   0  0  0  0  0  0
  -28.4382  -13.4731   21.8790 H   0  0  0  0  0  0
  -25.2752   -9.5692   22.4750 H   0  0  0  0  0  0
  -23.9996   -7.4641   22.7463 H   0  0  0  0  0  0
  -21.0831   -8.8776   19.8948 H   0  0  0  0  0  0
  -22.3681  -10.9680   19.6160 H   0  0  0  0  0  0
  -21.1995   -7.6143   23.9722 H   0  0  0  0  0  0
  -21.1476   -6.0513   25.9079 H   0  0  0  0  0  0
  -22.0601   -2.7609   23.2835 H   0  0  0  0  0  0
  -22.4090  -11.9925   22.4805 H   0  0  0  0  0  0
  -21.1119  -13.1303   22.2579 H   0  0  0  0  0  0
  -24.6771  -15.8501   20.5222 H   0  0  0  0  0  0
  -26.3004  -15.6221   20.1086 H   0  0  0  0  0  0
  -26.7149  -32.5566   23.1282 H   0  0  0  0  0  0
  -25.0115  -33.9830   25.0630 H   0  0  0  0  0  0
  -22.6897  -31.3144   21.4254 H   0  0  0  0  0  0
  -23.3732  -35.9625   23.3318 H   0  0  0  0  0  0
  -24.3548  -36.8895   22.2063 H   0  0  0  0  0  0
  -23.7125  -37.6512   23.6610 H   0  0  0  0  0  0
  -26.0491  -31.5931   20.5854 H   0  0  0  0  0  0
  -26.8212  -30.8930   21.9827 H   0  0  0  0  0  0
  -28.1015  -29.1154   21.1405 H   0  0  0  0  0  0
  -26.0054  -25.9905   18.9953 H   0  0  0  0  0  0
  -23.9628  -27.2979   19.0507 H   0  0  0  0  0  0
  -23.7060  -30.6007   19.4097 H   0  0  0  0  0  0
  -22.7222  -29.2502   19.8877 H   0  0  0  0  0  0
  -25.1207  -36.2088   25.0868 H   0  0  0  0  0  0
  -20.9965  -28.3204   24.1427 H   0  0  0  0  0  0
  -20.5624  -26.2278   23.3603 H   0  0  0  0  0  0
  -21.6624  -26.7411   22.1211 H   0  0  0  0  0  0
  -19.6866  -25.6308   21.1211 H   0  0  0  0  0  0
  -19.6646  -27.3226   20.6747 H   0  0  0  0  0  0
  -17.4176  -26.6700   21.4030 H   0  0  0  0  0  0
  -18.0290  -26.0063   22.9016 H   0  0  0  0  0  0
  -19.7928  -30.7248   24.2318 H   0  0  0  0  0  0
  -17.5006  -31.6269   24.5168 H   0  0  0  0  0  0
  -15.5344  -30.2998   23.7630 H   0  0  0  0  0  0
  -15.8664  -28.0801   22.7110 H   0  0  0  0  0  0
  -24.5930  -30.7010   25.8024 H   0  0  0  0  0  0
  -24.8927  -32.2796   26.5188 H   0  0  0  0  0  0
  -25.8189  -30.8851   27.0341 H   0  0  0  0  0  0
  -26.2736  -29.6954   24.1148 H   0  0  0  0  0  0
  -27.4013  -29.7283   25.4525 H   0  0  0  0  0  0
  -27.8581  -30.4502   23.9247 H   0  0  0  0  0  0
  -27.2706  -33.3657   26.2150 H   0  0  0  0  0  0
  -28.3805  -32.6912   25.0331 H   0  0  0  0  0  0
  -28.0764  -31.8479   26.5427 H   0  0  0  0  0  0
  -28.2629  -38.0094   24.7554 H   0  0  0  0  0  0
  -28.1042  -36.2631   24.6265 H   0  0  0  0  0  0
  -27.2323  -37.1431   25.8904 H   0  0  0  0  0  0
  -20.9386  -29.8729   21.6944 H   0  0  0  0  0  0
  -26.0187  -38.2937   24.1464 H   0  0  0  0  0  0
  -32.2587  -15.3784   26.1494 H   0  0  0  0  0  0
  -30.7477  -14.2828   24.5263 H   0  0  0  0  0  0
  -33.7361  -17.2546   25.4141 H   0  0  0  0  0  0
  -32.1641  -16.9461   21.4134 H   0  0  0  0  0  0
  -29.5654  -21.5006   22.4171 H   0  0  0  0  0  0
  -29.8014  -23.0181   23.2333 H   0  0  0  0  0  0
  -31.3638  -21.7056   24.3264 H   0  0  0  0  0  0
  -32.3695  -22.4755   23.1241 H   0  0  0  0  0  0
  -32.1542  -20.3862   21.6710 H   0  0  0  0  0  0
  -31.2145  -19.6349   22.9429 H   0  0  0  0  0  0
  -30.6116  -25.4706   19.5986 H   0  0  0  0  0  0
  -29.9352  -24.0444   18.8431 H   0  0  0  0  0  0
  -28.2707  -25.6091   18.3615 H   0  0  0  0  0  0
  -27.6360  -24.8193   19.8095 H   0  0  0  0  0  0
  -29.7033  -14.3722   22.3902 H   0  0  0  0  0  0
  -29.0974  -24.3458   21.6111 H   0  0  0  0  0  0
  -33.1557  -19.9467   24.4324 H   0  0  0  0  0  0
  1 25  1  0  0  0
  1 30  2  0  0  0
  1 83  1  0  0  0
  2  3  1  0  0  0
  2 25  1  0  0  0
  2 90  1  0  0  0
  2 91  1  0  0  0
  3  4  1  0  0  0
  3 92  1  0  0  0
  3 93  1  0  0  0
  4  5  1  0  0  0
  4 94  1  0  0  0
  4 95  1  0  0  0
  5  6  1  0  0  0
  5 26  1  0  0  0
  5 96  1  0  0  0
  6 25  1  0  0  0
  6 97  1  0  0  0
  6 98  1  0  0  0
  7  8  2  0  0  0
  7 26  1  0  0  0
  7 29  1  0  0  0
  8  9  1  0  0  0
  8 22  1  0  0  0
  9 10  1  0  0  0
  9 27  2  0  0  0
 10 11  2  0  0  0
 10 15  1  0  0  0
 11 12  1  0  0  0
 11 99  1  0  0  0
 12 13  2  0  0  0
 12100  1  0  0  0
 13 14  1  0  0  0
 13 31  1  0  0  0
 14 15  2  0  0  0
 14101  1  0  0  0
 15102  1  0  0  0
 16 17  2  0  0  0
 16 21  1  0  0  0
 16 31  1  0  0  0
 17 18  1  0  0  0
 17103  1  0  0  0
 18 19  2  0  0  0
 18104  1  0  0  0
 19 20  1  0  0  0
 19 24  1  0  0  0
 20 21  2  0  0  0
 20105  1  0  0  0
 21 23  1  0  0  0
 22 28  1  0  0  0
 22 32  2  0  0  0
 26 27  1  0  0  0
 28106  1  0  0  0
 28107  1  0  0  0
 29108  1  0  0  0
 29109  1  0  0  0
 33 34  1  0  0  0
 33 66  1  0  0  0
 33 70  2  0  0  0
 34 36  1  0  0  0
 34 59  1  0  0  0
 34110  1  0  0  0
 35 44  2  0  0  0
 35 45  1  0  0  0
 35 68  1  0  0  0
 36 56  1  0  0  0
 36111  1  0  0  0
 37 39  1  0  0  0
 37 47  1  0  0  0
 37 66  1  0  0  0
 37112  1  0  0  0
 38 43  2  0  0  0
 38 46  1  0  0  0
 38 47  1  0  0  0
 39 64  1  0  0  0
 39 67  2  0  0  0
 40 52  1  0  0  0
 40 53  2  0  0  0
 40 58  1  0  0  0
 41113  1  0  0  0
 41114  1  0  0  0
 41115  1  0  0  0
 41 48  1  0  0  0
 42 43  1  0  0  0
 42 66  1  0  0  0
 42116  1  0  0  0
 42117  1  0  0  0
 43 44  1  0  0  0
 44118  1  0  0  0
 45 46  2  0  0  0
 45119  1  0  0  0
 46120  1  0  0  0
 47121  1  0  0  0
 47122  1  0  0  0
 48 56  1  0  0  0
 48 65  1  0  0  0
 48123  1  0  0  0
 49 50  1  0  0  0
 49 53  1  0  0  0
 49 64  1  0  0  0
 49124  1  0  0  0
 50 51  1  0  0  0
 50125  1  0  0  0
 50126  1  0  0  0
 51 52  1  0  0  0
 51127  1  0  0  0
 51128  1  0  0  0
 52129  1  0  0  0
 52130  1  0  0  0
 53 54  1  0  0  0
 54 55  2  0  0  0
 54131  1  0  0  0
 55 57  1  0  0  0
 55132  1  0  0  0
 56 69  2  0  0  0
 57 58  2  0  0  0
 57133  1  0  0  0
 58134  1  0  0  0
 59 60  1  0  0  0
 59 61  1  0  0  0
 59 62  1  0  0  0
 60135  1  0  0  0
 60136  1  0  0  0
 60137  1  0  0  0
 61138  1  0  0  0
 61139  1  0  0  0
 61140  1  0  0  0
 62141  1  0  0  0
 62142  1  0  0  0
 62143  1  0  0  0
 63 65  1  0  0  0
 63144  1  0  0  0
 63145  1  0  0  0
 63146  1  0  0  0
 64147  1  0  0  0
 65148  1  0  0  0
 68 82  1  0  0  0
 71 72  2  0  0  0
 71 73  1  0  0  0
 71149  1  0  0  0
 72 75  1  0  0  0
 72150  1  0  0  0
 73 76  2  0  0  0
 73151  1  0  0  0
 74 75  2  0  0  0
 74 76  1  0  0  0
 74152  1  0  0  0
 75 83  1  0  0  0
 76 89  1  0  0  0
 77 78  1  0  0  0
 77 84  1  0  0  0
 77 86  2  0  0  0
 78 79  1  0  0  0
 78153  1  0  0  0
 78154  1  0  0  0
 79 80  1  0  0  0
 79155  1  0  0  0
 79156  1  0  0  0
 80 85  1  0  0  0
 80157  1  0  0  0
 80158  1  0  0  0
 81 82  1  0  0  0
 81 84  1  0  0  0
 81159  1  0  0  0
 81160  1  0  0  0
 82161  1  0  0  0
 82162  1  0  0  0
 83163  1  0  0  0
 84164  1  0  0  0
 85165  1  0  0  0
 85 89  1  0  0  0
 87 89  2  0  0  0
 88 89  2  0  0  0
M  ISO  4   1 100  68 101  82 101  83 100
M  END
> <chiral flag>
0

> <version>
0

> <s_m_source_file>
/data/baiqing/PycharmProjects/Reinvent-master-3.2/result/LINK_invent/BTK/process_docking_weight1_custom_sum_contain_oxygen_bond_distance_aromatic_linkinvent_7_9_3/rearranged_h_0003.sdf

> <i_m_source_file_index>
23

> <r_mmod_Potential_Energy-OPLS-2005>
-308.617034912109

> <r_mmod_Stretch_Energy-OPLS-2005>
32.447509765625

> <r_mmod_Bend_Energy-OPLS-2005>
94.8895645141602

> <r_mmod_Torsional_Energy-OPLS-2005>
213.892623901367

> <r_mmod_Improper_Torsional_Energy-OPLS-2005>
8.32855033874512

> <r_mmod_Van_der_Waal_Energy-OPLS-2005>
155.03205871582

> <r_mmod_Electrostatic_Energy-OPLS-2005>
-527.438049316406

> <r_mmod_Solvation_Energy-OPLS-2005>
-295.818267822266

> <b_mmod_Minimization_Converged-OPLS-2005>
0

> <r_mmod_RMS_Derivative-OPLS-2005>
4.48984050750732

$$$$
23
                    3D
 Structure written by MMmdl.
170178  0  0  1  0            999 V2000
  -30.7342  -14.4250   20.5731 C   0  0  0  0  0  0
  -30.4132  -12.2825   19.4100 C   0  0  0  0  0  0
  -29.4891  -12.5051   18.1964 C   0  0  0  0  0  0
  -28.0073  -12.3808   18.6033 C   0  0  0  0  0  0
  -27.6604  -13.2076   19.8704 C   0  0  2  0  0  0
  -28.6998  -12.9601   20.9841 C   0  0  0  0  0  0
  -25.2594  -13.8171   20.5705 C   0  0  0  0  0  0
  -24.1832  -13.0465   20.9194 C   0  0  0  0  0  0
  -24.6381  -11.6923   20.8738 C   0  0  0  0  0  0
  -23.9035  -10.4311   21.0419 C   0  0  0  0  0  0
  -24.3609   -9.4227   21.9193 C   0  0  0  0  0  0
  -23.6304   -8.2244   22.0747 C   0  0  0  0  0  0
  -22.4277   -8.0287   21.3542 C   0  0  0  0  0  0
  -21.9908   -9.0250   20.4642 C   0  0  0  0  0  0
  -22.7217  -10.2142   20.3058 C   0  0  0  0  0  0
  -21.6855   -6.0745   22.5279 C   0  0  0  0  0  0
  -21.4011   -6.5644   23.8214 C   0  0  0  0  0  0
  -21.3670   -5.6797   24.9181 C   0  0  0  0  0  0
  -21.6062   -4.3058   24.7222 C   0  0  0  0  0  0
  -21.8817   -3.8154   23.4337 C   0  0  0  0  0  0
  -21.9193   -4.6978   22.3403 C   0  0  0  0  0  0
  -22.7860  -13.5283   21.1848 C   0  0  0  0  0  0
  -22.1671   -4.2170   21.0984 F   0  0  0  0  0  0
  -21.5628   -3.4539   25.7731 F   0  0  0  0  0  0
  -30.0311  -13.2676   20.4336 N   0  0  0  0  0  0
  -26.3018  -12.9348   20.3361 N   0  0  0  0  0  0
  -25.9304  -11.6505   20.5746 N   0  0  0  0  0  0
  -22.0472  -12.8280   22.0398 N   0  0  0  0  0  0
  -25.4369  -15.1886   20.4152 N   0  0  0  0  0  0
  -31.8848  -14.5478   20.1362 O   0  0  0  0  0  0
  -21.6637   -6.8888   21.4238 O   0  0  0  0  0  0
  -22.3559  -14.5599   20.6716 O   0  0  0  0  0  0
  -24.6101  -31.8711   23.2140 C   0  0  0  0  0  0
  -25.9014  -32.4840   23.8426 C   0  0  1  0  0  0
  -27.2527  -27.4838   20.0923 C   0  0  0  0  0  0
  -25.5886  -33.8637   24.2361 N   0  0  0  0  0  0
  -23.3966  -30.4948   21.5514 C   0  0  2  0  0  0
  -24.8471  -28.9660   20.1146 C   0  0  0  0  0  0
  -22.7394  -29.4669   22.4998 C   0  0  0  0  0  0
  -18.0272  -28.1384   22.8497 C   0  0  0  0  0  0
  -24.1483  -36.7332   23.2638 C   0  0  0  0  0  0
  -25.9175  -30.8544   21.3576 C   0  0  0  0  0  0
  -26.0001  -29.4906   20.7097 C   0  0  0  0  0  0
  -27.2021  -28.7565   20.7076 C   0  0  0  0  0  0
  -26.0788  -26.9580   19.5147 C   0  0  0  0  0  0
  -24.8773  -27.6936   19.5164 C   0  0  0  0  0  0
  -23.6051  -29.8273   20.1642 C   0  0  0  0  0  0
  -25.4100  -36.3129   24.0348 C   0  0  1  0  0  0
  -20.5861  -28.3661   23.1333 C   0  0  2  0  0  0
  -20.6761  -26.9400   22.5422 C   0  0  0  0  0  0
  -19.5741  -26.6392   21.5215 C   0  0  0  0  0  0
  -18.1918  -26.7927   22.1622 C   0  0  0  0  0  0
  -19.1515  -28.8838   23.2913 C   0  0  0  0  0  0
  -18.9446  -30.1442   23.8930 C   0  0  0  0  0  0
  -17.6444  -30.6586   24.0574 C   0  0  0  0  0  0
  -25.9022  -34.9487   23.5149 C   0  0  0  0  0  0
  -16.5337  -29.9091   23.6313 C   0  0  0  0  0  0
  -16.7264  -28.6507   23.0337 C   0  0  0  0  0  0
  -26.4466  -31.6597   25.0726 C   0  0  0  0  0  0
  -25.3753  -31.3676   26.1490 C   0  0  0  0  0  0
  -27.0283  -30.3053   24.6040 C   0  0  0  0  0  0
  -27.6059  -32.4306   25.7476 C   0  0  0  0  0  0
  -27.5581  -37.1818   24.8466 C   0  0  0  0  0  0
  -21.4129  -29.3030   22.3744 N   0  0  0  0  0  0
  -26.4296  -37.3804   23.9409 N   0  0  0  0  0  0
  -24.6593  -31.0865   22.1012 N   0  0  0  0  0  0
  -23.4187  -28.8217   23.3027 O   0  0  0  0  0  0
  -28.3722  -26.6861   20.0562 O   0  0  0  0  0  0
  -26.5581  -34.8930   22.4707 O   0  0  0  0  0  0
  -23.5304  -32.1433   23.7567 O   0  0  0  0  0  0
  -33.5693  -22.2798   21.3570 C   0  0  0  0  0  0
  -33.6615  -23.5976   21.8386 C   0  0  0  0  0  0
  -32.4987  -21.9163   20.5208 C   0  0  0  0  0  0
  -32.6965  -24.5546   21.4697 C   0  0  0  0  0  0
  -31.5230  -22.8725   20.1502 C   0  0  0  0  0  0
  -31.6197  -24.2043   20.6155 C   0  0  0  0  0  0
  -30.3035  -21.5846   18.4261 C   0  0  0  0  0  0
  -29.5228  -15.8032   22.2022 C   0  0  0  0  0  0
  -28.9025  -21.0972   18.0439 C   0  0  0  0  0  0
  -28.4710  -19.8622   18.8706 C   0  0  0  0  0  0
  -29.3231  -18.6045   18.6074 C   0  0  0  0  0  0
  -28.9902  -17.4088   19.5203 C   0  0  0  0  0  0
  -30.2713  -16.7625   20.0709 C   0  0  0  0  0  0
  -29.6600  -27.2841   19.9385 C   0  0  0  0  0  0
  -30.6750  -26.4246   20.7017 C   0  0  0  0  0  0
  -30.3764  -22.5058   19.3968 N   0  0  0  0  0  0
  -30.0065  -15.5342   20.8437 N   0  0  0  0  0  0
  -31.2899  -21.1480   17.8280 O   0  0  0  0  0  0
  -30.6547  -25.0953   20.1889 O   0  0  0  0  0  0
  -31.4563  -12.3681   19.1027 H   0  0  0  0  0  0
  -30.3006  -11.2709   19.7999 H   0  0  0  0  0  0
  -29.7212  -11.7883   17.4075 H   0  0  0  0  0  0
  -29.6724  -13.4942   17.7755 H   0  0  0  0  0  0
  -27.7989  -11.3251   18.7780 H   0  0  0  0  0  0
  -27.3650  -12.6857   17.7748 H   0  0  0  0  0  0
  -27.7153  -14.2606   19.5921 H   0  0  0  0  0  0
  -28.6709  -11.9161   21.3016 H   0  0  0  0  0  0
  -28.4503  -13.5271   21.8756 H   0  0  0  0  0  0
  -25.2759   -9.5727   22.4755 H   0  0  0  0  0  0
  -24.0030   -7.4648   22.7469 H   0  0  0  0  0  0
  -21.0823   -8.8769   19.8951 H   0  0  0  0  0  0
  -22.3672  -10.9682   19.6157 H   0  0  0  0  0  0
  -21.1981   -7.6148   23.9733 H   0  0  0  0  0  0
  -21.1507   -6.0517   25.9095 H   0  0  0  0  0  0
  -22.0579   -2.7608   23.2826 H   0  0  0  0  0  0
  -22.4076  -11.9961   22.4805 H   0  0  0  0  0  0
  -21.1086  -13.1320   22.2580 H   0  0  0  0  0  0
  -24.6786  -15.8519   20.5267 H   0  0  0  0  0  0
  -26.3034  -15.6197   20.1193 H   0  0  0  0  0  0
  -26.7098  -32.5590   23.1210 H   0  0  0  0  0  0
  -25.0045  -33.9798   25.0514 H   0  0  0  0  0  0
  -22.6829  -31.3098   21.4145 H   0  0  0  0  0  0
  -23.3731  -35.9681   23.3322 H   0  0  0  0  0  0
  -24.3580  -36.8917   22.2049 H   0  0  0  0  0  0
  -23.7248  -37.6554   23.6627 H   0  0  0  0  0  0
  -26.0165  -31.6194   20.5864 H   0  0  0  0  0  0
  -26.8103  -30.9175   21.9674 H   0  0  0  0  0  0
  -28.0641  -29.1774   21.2029 H   0  0  0  0  0  0
  -26.1002  -25.9780   19.0590 H   0  0  0  0  0  0
  -23.9898  -27.2771   19.0603 H   0  0  0  0  0  0
  -23.7141  -30.6038   19.4058 H   0  0  0  0  0  0
  -22.7308  -29.2463   19.8665 H   0  0  0  0  0  0
  -25.1267  -36.2008   25.0842 H   0  0  0  0  0  0
  -20.9953  -28.3220   24.1453 H   0  0  0  0  0  0
  -20.5667  -26.2265   23.3603 H   0  0  0  0  0  0
  -21.6635  -26.7451   22.1213 H   0  0  0  0  0  0
  -19.6898  -25.6307   21.1235 H   0  0  0  0  0  0
  -19.6680  -27.3215   20.6755 H   0  0  0  0  0  0
  -17.4189  -26.6687   21.4023 H   0  0  0  0  0  0
  -18.0313  -26.0069   22.9018 H   0  0  0  0  0  0
  -19.7917  -30.7252   24.2322 H   0  0  0  0  0  0
  -17.4997  -31.6262   24.5173 H   0  0  0  0  0  0
  -15.5341  -30.3002   23.7617 H   0  0  0  0  0  0
  -15.8662  -28.0841   22.7024 H   0  0  0  0  0  0
  -24.5926  -30.7020   25.7833 H   0  0  0  0  0  0
  -24.8940  -32.2819   26.4973 H   0  0  0  0  0  0
  -25.8129  -30.8828   27.0226 H   0  0  0  0  0  0
  -26.2799  -29.6828   24.1121 H   0  0  0  0  0  0
  -27.4115  -29.7265   25.4454 H   0  0  0  0  0  0
  -27.8608  -30.4399   23.9128 H   0  0  0  0  0  0
  -27.2690  -33.3589   26.2101 H   0  0  0  0  0  0
  -28.3837  -32.6892   25.0278 H   0  0  0  0  0  0
  -28.0766  -31.8402   26.5348 H   0  0  0  0  0  0
  -28.2615  -38.0101   24.7499 H   0  0  0  0  0  0
  -28.1058  -36.2632   24.6299 H   0  0  0  0  0  0
  -27.2301  -37.1489   25.8871 H   0  0  0  0  0  0
  -20.9285  -29.8757   21.6974 H   0  0  0  0  0  0
  -26.0191  -38.2891   24.1394 H   0  0  0  0  0  0
  -34.3116  -21.5443   21.6384 H   0  0  0  0  0  0
  -34.4756  -23.8762   22.4933 H   0  0  0  0  0  0
  -32.4262  -20.8907   20.1855 H   0  0  0  0  0  0
  -32.8121  -25.5536   21.8619 H   0  0  0  0  0  0
  -28.4337  -15.8538   22.2014 H   0  0  0  0  0  0
  -29.8962  -16.7550   22.5807 H   0  0  0  0  0  0
  -29.8288  -15.0385   22.9162 H   0  0  0  0  0  0
  -28.8813  -20.8608   16.9786 H   0  0  0  0  0  0
  -28.1871  -21.9066   18.1885 H   0  0  0  0  0  0
  -27.4229  -19.6405   18.6680 H   0  0  0  0  0  0
  -28.5198  -20.1140   19.9319 H   0  0  0  0  0  0
  -30.3750  -18.8569   18.7383 H   0  0  0  0  0  0
  -29.2247  -18.3046   17.5634 H   0  0  0  0  0  0
  -28.4098  -16.6733   18.9614 H   0  0  0  0  0  0
  -28.3627  -17.7289   20.3537 H   0  0  0  0  0  0
  -30.8266  -17.4769   20.6821 H   0  0  0  0  0  0
  -30.9156  -16.5614   19.2116 H   0  0  0  0  0  0
  -29.9241  -27.3304   18.8815 H   0  0  0  0  0  0
  -29.7249  -28.3039   20.3112 H   0  0  0  0  0  0
  -30.4387  -26.4175   21.7674 H   0  0  0  0  0  0
  -31.6582  -26.8793   20.5750 H   0  0  0  0  0  0
  -29.5156  -22.9679   19.6579 H   0  0  0  0  0  0
  1 25  1  0  0  0
  1 30  2  0  0  0
  1 87  1  0  0  0
  2  3  1  0  0  0
  2 25  1  0  0  0
  2 90  1  0  0  0
  2 91  1  0  0  0
  3  4  1  0  0  0
  3 92  1  0  0  0
  3 93  1  0  0  0
  4  5  1  0  0  0
  4 94  1  0  0  0
  4 95  1  0  0  0
  5  6  1  0  0  0
  5 26  1  0  0  0
  5 96  1  0  0  0
  6 25  1  0  0  0
  6 97  1  0  0  0
  6 98  1  0  0  0
  7  8  2  0  0  0
  7 26  1  0  0  0
  7 29  1  0  0  0
  8  9  1  0  0  0
  8 22  1  0  0  0
  9 10  1  0  0  0
  9 27  2  0  0  0
 10 11  2  0  0  0
 10 15  1  0  0  0
 11 12  1  0  0  0
 11 99  1  0  0  0
 12 13  2  0  0  0
 12100  1  0  0  0
 13 14  1  0  0  0
 13 31  1  0  0  0
 14 15  2  0  0  0
 14101  1  0  0  0
 15102  1  0  0  0
 16 17  2  0  0  0
 16 21  1  0  0  0
 16 31  1  0  0  0
 17 18  1  0  0  0
 17103  1  0  0  0
 18 19  2  0  0  0
 18104  1  0  0  0
 19 20  1  0  0  0
 19 24  1  0  0  0
 20 21  2  0  0  0
 20105  1  0  0  0
 21 23  1  0  0  0
 22 28  1  0  0  0
 22 32  2  0  0  0
 26 27  1  0  0  0
 28106  1  0  0  0
 28107  1  0  0  0
 29108  1  0  0  0
 29109  1  0  0  0
 33 34  1  0  0  0
 33 66  1  0  0  0
 33 70  2  0  0  0
 34 36  1  0  0  0
 34 59  1  0  0  0
 34110  1  0  0  0
 35 44  2  0  0  0
 35 45  1  0  0  0
 35 68  1  0  0  0
 36 56  1  0  0  0
 36111  1  0  0  0
 37 39  1  0  0  0
 37 47  1  0  0  0
 37 66  1  0  0  0
 37112  1  0  0  0
 38 43  2  0  0  0
 38 46  1  0  0  0
 38 47  1  0  0  0
 39 64  1  0  0  0
 39 67  2  0  0  0
 40 52  1  0  0  0
 40 53  2  0  0  0
 40 58  1  0  0  0
 41113  1  0  0  0
 41114  1  0  0  0
 41115  1  0  0  0
 41 48  1  0  0  0
 42 43  1  0  0  0
 42 66  1  0  0  0
 42116  1  0  0  0
 42117  1  0  0  0
 43 44  1  0  0  0
 44118  1  0  0  0
 45 46  2  0  0  0
 45119  1  0  0  0
 46120  1  0  0  0
 47121  1  0  0  0
 47122  1  0  0  0
 48 56  1  0  0  0
 48 65  1  0  0  0
 48123  1  0  0  0
 49 50  1  0  0  0
 49 53  1  0  0  0
 49 64  1  0  0  0
 49124  1  0  0  0
 50 51  1  0  0  0
 50125  1  0  0  0
 50126  1  0  0  0
 51 52  1  0  0  0
 51127  1  0  0  0
 51128  1  0  0  0
 52129  1  0  0  0
 52130  1  0  0  0
 53 54  1  0  0  0
 54 55  2  0  0  0
 54131  1  0  0  0
 55 57  1  0  0  0
 55132  1  0  0  0
 56 69  2  0  0  0
 57 58  2  0  0  0
 57133  1  0  0  0
 58134  1  0  0  0
 59 60  1  0  0  0
 59 61  1  0  0  0
 59 62  1  0  0  0
 60135  1  0  0  0
 60136  1  0  0  0
 60137  1  0  0  0
 61138  1  0  0  0
 61139  1  0  0  0
 61140  1  0  0  0
 62141  1  0  0  0
 62142  1  0  0  0
 62143  1  0  0  0
 63 65  1  0  0  0
 63144  1  0  0  0
 63145  1  0  0  0
 63146  1  0  0  0
 64147  1  0  0  0
 65148  1  0  0  0
 68 84  1  0  0  0
 71 72  2  0  0  0
 71 73  1  0  0  0
 71149  1  0  0  0
 72 74  1  0  0  0
 72150  1  0  0  0
 73 75  2  0  0  0
 73151  1  0  0  0
 74 76  2  0  0  0
 74152  1  0  0  0
 75 76  1  0  0  0
 75 86  1  0  0  0
 76 89  1  0  0  0
 77 79  1  0  0  0
 77 86  1  0  0  0
 77 88  2  0  0  0
 78 87  1  0  0  0
 78153  1  0  0  0
 78154  1  0  0  0
 78155  1  0  0  0
 79 80  1  0  0  0
 79156  1  0  0  0
 79157  1  0  0  0
 80 81  1  0  0  0
 80158  1  0  0  0
 80159  1  0  0  0
 81 82  1  0  0  0
 81160  1  0  0  0
 81161  1  0  0  0
 82 83  1  0  0  0
 82162  1  0  0  0
 82163  1  0  0  0
 83 87  1  0  0  0
 83164  1  0  0  0
 83165  1  0  0  0
 84 85  1  0  0  0
 84166  1  0  0  0
 84167  1  0  0  0
 85 89  1  0  0  0
 85168  1  0  0  0
 85169  1  0  0  0
 86170  1  0  0  0
M  ISO  4   1 100  68 101  84 101  87 100
M  END
> <chiral flag>
0

> <version>
0

> <s_m_source_file>
/data/baiqing/PycharmProjects/Reinvent-master-3.2/result/LINK_invent/BTK/process_docking_weight1_custom_sum_contain_oxygen_bond_distance_aromatic_linkinvent_7_9_3/rearranged_h_0003.sdf

> <i_m_source_file_index>
24

> <r_mmod_Potential_Energy-OPLS-2005>
78.2133636474609

> <r_mmod_Stretch_Energy-OPLS-2005>
35.5240173339844

> <r_mmod_Bend_Energy-OPLS-2005>
111.431098937988

> <r_mmod_Torsional_Energy-OPLS-2005>
303.930206298828

> <r_mmod_Improper_Torsional_Energy-OPLS-2005>
13.1953067779541

> <r_mmod_Van_der_Waal_Energy-OPLS-2005>
170.66227722168

> <r_mmod_Electrostatic_Energy-OPLS-2005>
-344.792297363281

> <r_mmod_Solvation_Energy-OPLS-2005>
-222.820007324219

> <b_mmod_Minimization_Converged-OPLS-2005>
0

> <r_mmod_RMS_Derivative-OPLS-2005>
2.75077247619629

$$$$
24
                    3D
 Structure written by MMmdl.
162170  0  0  1  0            999 V2000
  -30.7555  -14.4067   20.6343 C   0  0  0  0  0  0
  -30.3999  -12.3069   19.3983 C   0  0  0  0  0  0
  -29.4814  -12.4969   18.1773 C   0  0  0  0  0  0
  -27.9949  -12.3819   18.5693 C   0  0  0  0  0  0
  -27.6431  -13.1971   19.8379 C   0  0  2  0  0  0
  -28.6761  -12.9931   20.9662 C   0  0  0  0  0  0
  -25.2544  -13.8162   20.5574 C   0  0  0  0  0  0
  -24.1794  -13.0446   20.9114 C   0  0  0  0  0  0
  -24.6315  -11.6896   20.8681 C   0  0  0  0  0  0
  -23.9013  -10.4272   21.0352 C   0  0  0  0  0  0
  -24.3633   -9.4230   21.9117 C   0  0  0  0  0  0
  -23.6314   -8.2290   22.0770 C   0  0  0  0  0  0
  -22.4293   -8.0289   21.3573 C   0  0  0  0  0  0
  -21.9883   -9.0245   20.4678 C   0  0  0  0  0  0
  -22.7197  -10.2096   20.3013 C   0  0  0  0  0  0
  -21.6868   -6.0740   22.5283 C   0  0  0  0  0  0
  -21.3991   -6.5639   23.8217 C   0  0  0  0  0  0
  -21.3667   -5.6798   24.9183 C   0  0  0  0  0  0
  -21.6070   -4.3066   24.7235 C   0  0  0  0  0  0
  -21.8818   -3.8147   23.4357 C   0  0  0  0  0  0
  -21.9186   -4.6962   22.3405 C   0  0  0  0  0  0
  -22.7848  -13.5233   21.1853 C   0  0  0  0  0  0
  -22.1674   -4.2143   21.0996 F   0  0  0  0  0  0
  -21.5637   -3.4545   25.7756 F   0  0  0  0  0  0
  -30.0202  -13.2805   20.4320 N   0  0  0  0  0  0
  -26.2911  -12.9253   20.3073 N   0  0  0  0  0  0
  -25.9199  -11.6468   20.5576 N   0  0  0  0  0  0
  -22.0555  -12.8209   22.0455 N   0  0  0  0  0  0
  -25.4347  -15.1937   20.4161 N   0  0  0  0  0  0
  -31.8611  -14.5891   20.1146 O   0  0  0  0  0  0
  -21.6670   -6.8874   21.4253 O   0  0  0  0  0  0
  -22.3512  -14.5568   20.6755 O   0  0  0  0  0  0
  -24.6121  -31.8674   23.2028 C   0  0  0  0  0  0
  -25.9101  -32.4740   23.8295 C   0  0  1  0  0  0
  -27.2466  -27.4361   20.1034 C   0  0  0  0  0  0
  -25.5899  -33.8495   24.2199 N   0  0  0  0  0  0
  -23.4000  -30.4980   21.5444 C   0  0  2  0  0  0
  -24.8437  -28.9503   20.1186 C   0  0  0  0  0  0
  -22.7324  -29.4699   22.4868 C   0  0  0  0  0  0
  -18.0302  -28.1403   22.8490 C   0  0  0  0  0  0
  -24.1491  -36.7269   23.2644 C   0  0  0  0  0  0
  -25.9316  -30.8222   21.3646 C   0  0  0  0  0  0
  -26.0031  -29.4644   20.7028 C   0  0  0  0  0  0
  -27.2079  -28.7248   20.6839 C   0  0  0  0  0  0
  -26.0579  -26.9219   19.5252 C   0  0  0  0  0  0
  -24.8599  -27.6660   19.5409 C   0  0  0  0  0  0
  -23.6229  -29.8353   20.1592 C   0  0  0  0  0  0
  -25.4116  -36.2996   24.0270 C   0  0  1  0  0  0
  -20.5846  -28.3652   23.1287 C   0  0  2  0  0  0
  -20.6774  -26.9396   22.5368 C   0  0  0  0  0  0
  -19.5764  -26.6427   21.5140 C   0  0  0  0  0  0
  -18.1963  -26.7950   22.1587 C   0  0  0  0  0  0
  -19.1547  -28.8832   23.2908 C   0  0  0  0  0  0
  -18.9477  -30.1450   23.8931 C   0  0  0  0  0  0
  -17.6479  -30.6581   24.0604 C   0  0  0  0  0  0
  -25.9080  -34.9370   23.5046 C   0  0  0  0  0  0
  -16.5366  -29.9119   23.6327 C   0  0  0  0  0  0
  -16.7312  -28.6514   23.0365 C   0  0  0  0  0  0
  -26.4524  -31.6528   25.0641 C   0  0  0  0  0  0
  -25.3812  -31.3685   26.1407 C   0  0  0  0  0  0
  -27.0363  -30.2928   24.6071 C   0  0  0  0  0  0
  -27.6064  -32.4286   25.7460 C   0  0  0  0  0  0
  -27.5546  -37.1764   24.8445 C   0  0  0  0  0  0
  -21.4047  -29.3042   22.3650 N   0  0  0  0  0  0
  -26.4277  -37.3708   23.9378 N   0  0  0  0  0  0
  -24.6665  -31.0802   22.0935 N   0  0  0  0  0  0
  -23.4074  -28.8280   23.3001 O   0  0  0  0  0  0
  -28.4339  -26.7322   20.1386 O   0  0  0  0  0  0
  -26.5688  -34.8823   22.4638 O   0  0  0  0  0  0
  -23.5367  -32.1442   23.7441 O   0  0  0  0  0  0
  -30.6582  -19.0923   20.6278 C   0  0  0  0  0  0
  -30.6145  -17.8556   21.2978 C   0  0  0  0  0  0
  -29.6630  -18.0778   18.6497 C   0  0  0  0  0  0
  -30.1399  -19.2188   19.3221 C   0  0  0  0  0  0
  -30.1238  -16.6931   20.6451 C   0  0  0  0  0  0
  -29.6559  -16.8245   19.3022 C   0  0  0  0  0  0
  -28.8924  -21.0965   18.4270 C   0  0  0  0  0  0
  -30.1620  -15.3278   22.7941 C   0  0  0  0  0  0
  -30.6118  -23.8590   19.5676 C   0  0  0  0  0  0
  -29.6464  -24.5993   20.5327 C   0  0  0  0  0  0
  -30.0624  -23.3209   18.2313 C   0  0  0  0  0  0
  -28.3787  -25.3085   19.9902 C   0  0  0  0  0  0
  -30.0606  -20.5103   18.7267 N   0  0  0  0  0  0
  -28.9115  -22.4317   18.3959 N   0  0  0  0  0  0
  -30.1630  -15.4168   21.3120 N   0  0  0  0  0  0
  -27.8282  -20.4853   18.2661 O   0  0  0  0  0  0
  -29.1804  -15.7530   18.6288 F   0  0  0  0  0  0
  -31.4425  -12.3935   19.0957 H   0  0  0  0  0  0
  -30.2932  -11.3035   19.8065 H   0  0  0  0  0  0
  -29.7218  -11.7423   17.4282 H   0  0  0  0  0  0
  -29.6621  -13.4583   17.6925 H   0  0  0  0  0  0
  -27.7607  -11.3249   18.7031 H   0  0  0  0  0  0
  -27.3751  -12.7093   17.7309 H   0  0  0  0  0  0
  -27.6731  -14.2393   19.5414 H   0  0  0  0  0  0
  -28.6479  -11.9722   21.3608 H   0  0  0  0  0  0
  -28.4020  -13.6404   21.7989 H   0  0  0  0  0  0
  -25.2822   -9.5734   22.4599 H   0  0  0  0  0  0
  -24.0063   -7.4709   22.7470 H   0  0  0  0  0  0
  -21.0838   -8.8757   19.8988 H   0  0  0  0  0  0
  -22.3701  -10.9626   19.6096 H   0  0  0  0  0  0
  -21.1969   -7.6142   23.9711 H   0  0  0  0  0  0
  -21.1500   -6.0532   25.9082 H   0  0  0  0  0  0
  -22.0581   -2.7605   23.2874 H   0  0  0  0  0  0
  -22.4285  -11.9880   22.4725 H   0  0  0  0  0  0
  -21.1154  -13.1197   22.2693 H   0  0  0  0  0  0
  -24.6792  -15.8563   20.5410 H   0  0  0  0  0  0
  -26.3084  -15.6353   20.1697 H   0  0  0  0  0  0
  -26.7135  -32.5454   23.1052 H   0  0  0  0  0  0
  -24.9929  -33.9617   25.0240 H   0  0  0  0  0  0
  -22.6906  -31.3163   21.3913 H   0  0  0  0  0  0
  -23.3680  -35.9684   23.3335 H   0  0  0  0  0  0
  -24.3681  -36.8894   22.2079 H   0  0  0  0  0  0
  -23.7252  -37.6465   23.6719 H   0  0  0  0  0  0
  -26.0712  -31.5952   20.6084 H   0  0  0  0  0  0
  -26.8137  -30.8569   21.9955 H   0  0  0  0  0  0
  -28.1008  -29.1388   21.1411 H   0  0  0  0  0  0
  -26.0280  -25.9384   19.0832 H   0  0  0  0  0  0
  -23.9635  -27.2381   19.1166 H   0  0  0  0  0  0
  -23.7690  -30.6203   19.4102 H   0  0  0  0  0  0
  -22.7401  -29.2835   19.8410 H   0  0  0  0  0  0
  -25.1275  -36.1902   25.0751 H   0  0  0  0  0  0
  -20.9981  -28.3277   24.1389 H   0  0  0  0  0  0
  -20.5591  -26.2275   23.3555 H   0  0  0  0  0  0
  -21.6681  -26.7433   22.1204 H   0  0  0  0  0  0
  -19.6943  -25.6327   21.1207 H   0  0  0  0  0  0
  -19.6777  -27.3197   20.6631 H   0  0  0  0  0  0
  -17.4211  -26.6647   21.4059 H   0  0  0  0  0  0
  -18.0489  -26.0108   22.8993 H   0  0  0  0  0  0
  -19.7962  -30.7273   24.2272 H   0  0  0  0  0  0
  -17.5061  -31.6295   24.5200 H   0  0  0  0  0  0
  -15.5369  -30.3069   23.7604 H   0  0  0  0  0  0
  -15.8713  -28.0876   22.7054 H   0  0  0  0  0  0
  -24.5971  -30.7046   25.7764 H   0  0  0  0  0  0
  -24.9059  -32.2885   26.4808 H   0  0  0  0  0  0
  -25.8201  -30.8883   27.0165 H   0  0  0  0  0  0
  -26.2897  -29.6654   24.1179 H   0  0  0  0  0  0
  -27.4159  -29.7215   25.4555 H   0  0  0  0  0  0
  -27.8735  -30.4151   23.9191 H   0  0  0  0  0  0
  -27.2588  -33.3557   26.2039 H   0  0  0  0  0  0
  -28.3917  -32.6892   25.0345 H   0  0  0  0  0  0
  -28.0712  -31.8420   26.5409 H   0  0  0  0  0  0
  -28.2521  -38.0091   24.7497 H   0  0  0  0  0  0
  -28.1077  -36.2618   24.6284 H   0  0  0  0  0  0
  -27.2320  -37.1380   25.8863 H   0  0  0  0  0  0
  -20.9198  -29.8771   21.6877 H   0  0  0  0  0  0
  -26.0143  -38.2764   24.1460 H   0  0  0  0  0  0
  -31.0677  -19.9534   21.1403 H   0  0  0  0  0  0
  -31.0092  -17.8068   22.2957 H   0  0  0  0  0  0
  -29.2684  -18.1742   17.6429 H   0  0  0  0  0  0
  -31.0432  -15.8122   23.2283 H   0  0  0  0  0  0
  -30.2073  -14.2938   23.1595 H   0  0  0  0  0  0
  -29.2671  -15.7674   23.2441 H   0  0  0  0  0  0
  -31.0656  -23.0282   20.1194 H   0  0  0  0  0  0
  -31.4433  -24.5222   19.3297 H   0  0  0  0  0  0
  -30.2444  -25.3245   21.0957 H   0  0  0  0  0  0
  -29.3132  -23.8911   21.2928 H   0  0  0  0  0  0
  -30.8518  -22.8039   17.6832 H   0  0  0  0  0  0
  -29.7799  -24.1582   17.5901 H   0  0  0  0  0  0
  -27.5201  -24.9214   20.5470 H   0  0  0  0  0  0
  -28.1773  -25.0736   18.9435 H   0  0  0  0  0  0
  -30.8385  -21.1431   18.8709 H   0  0  0  0  0  0
  -27.9940  -22.8621   18.3372 H   0  0  0  0  0  0
  1 25  1  0  0  0
  1 30  2  0  0  0
  1 85  1  0  0  0
  2  3  1  0  0  0
  2 25  1  0  0  0
  2 88  1  0  0  0
  2 89  1  0  0  0
  3  4  1  0  0  0
  3 90  1  0  0  0
  3 91  1  0  0  0
  4  5  1  0  0  0
  4 92  1  0  0  0
  4 93  1  0  0  0
  5  6  1  0  0  0
  5 26  1  0  0  0
  5 94  1  0  0  0
  6 25  1  0  0  0
  6 95  1  0  0  0
  6 96  1  0  0  0
  7  8  2  0  0  0
  7 26  1  0  0  0
  7 29  1  0  0  0
  8  9  1  0  0  0
  8 22  1  0  0  0
  9 10  1  0  0  0
  9 27  2  0  0  0
 10 11  2  0  0  0
 10 15  1  0  0  0
 11 12  1  0  0  0
 11 97  1  0  0  0
 12 13  2  0  0  0
 12 98  1  0  0  0
 13 14  1  0  0  0
 13 31  1  0  0  0
 14 15  2  0  0  0
 14 99  1  0  0  0
 15100  1  0  0  0
 16 17  2  0  0  0
 16 21  1  0  0  0
 16 31  1  0  0  0
 17 18  1  0  0  0
 17101  1  0  0  0
 18 19  2  0  0  0
 18102  1  0  0  0
 19 20  1  0  0  0
 19 24  1  0  0  0
 20 21  2  0  0  0
 20103  1  0  0  0
 21 23  1  0  0  0
 22 28  1  0  0  0
 22 32  2  0  0  0
 26 27  1  0  0  0
 28104  1  0  0  0
 28105  1  0  0  0
 29106  1  0  0  0
 29107  1  0  0  0
 33 34  1  0  0  0
 33 66  1  0  0  0
 33 70  2  0  0  0
 34 36  1  0  0  0
 34 59  1  0  0  0
 34108  1  0  0  0
 35 44  2  0  0  0
 35 45  1  0  0  0
 35 68  1  0  0  0
 36 56  1  0  0  0
 36109  1  0  0  0
 37 39  1  0  0  0
 37 47  1  0  0  0
 37 66  1  0  0  0
 37110  1  0  0  0
 38 43  2  0  0  0
 38 46  1  0  0  0
 38 47  1  0  0  0
 39 64  1  0  0  0
 39 67  2  0  0  0
 40 52  1  0  0  0
 40 53  2  0  0  0
 40 58  1  0  0  0
 41111  1  0  0  0
 41112  1  0  0  0
 41113  1  0  0  0
 41 48  1  0  0  0
 42 43  1  0  0  0
 42 66  1  0  0  0
 42114  1  0  0  0
 42115  1  0  0  0
 43 44  1  0  0  0
 44116  1  0  0  0
 45 46  2  0  0  0
 45117  1  0  0  0
 46118  1  0  0  0
 47119  1  0  0  0
 47120  1  0  0  0
 48 56  1  0  0  0
 48 65  1  0  0  0
 48121  1  0  0  0
 49 50  1  0  0  0
 49 53  1  0  0  0
 49 64  1  0  0  0
 49122  1  0  0  0
 50 51  1  0  0  0
 50123  1  0  0  0
 50124  1  0  0  0
 51 52  1  0  0  0
 51125  1  0  0  0
 51126  1  0  0  0
 52127  1  0  0  0
 52128  1  0  0  0
 53 54  1  0  0  0
 54 55  2  0  0  0
 54129  1  0  0  0
 55 57  1  0  0  0
 55130  1  0  0  0
 56 69  2  0  0  0
 57 58  2  0  0  0
 57131  1  0  0  0
 58132  1  0  0  0
 59 60  1  0  0  0
 59 61  1  0  0  0
 59 62  1  0  0  0
 60133  1  0  0  0
 60134  1  0  0  0
 60135  1  0  0  0
 61136  1  0  0  0
 61137  1  0  0  0
 61138  1  0  0  0
 62139  1  0  0  0
 62140  1  0  0  0
 62141  1  0  0  0
 63 65  1  0  0  0
 63142  1  0  0  0
 63143  1  0  0  0
 63144  1  0  0  0
 64145  1  0  0  0
 65146  1  0  0  0
 68 82  1  0  0  0
 71 72  2  0  0  0
 71 74  1  0  0  0
 71147  1  0  0  0
 72 75  1  0  0  0
 72148  1  0  0  0
 73 74  2  0  0  0
 73 76  1  0  0  0
 73149  1  0  0  0
 74 83  1  0  0  0
 75 76  2  0  0  0
 75 85  1  0  0  0
 76 87  1  0  0  0
 77 83  1  0  0  0
 77 84  1  0  0  0
 77 86  2  0  0  0
 78 85  1  0  0  0
 78150  1  0  0  0
 78151  1  0  0  0
 78152  1  0  0  0
 79 80  1  0  0  0
 79 81  1  0  0  0
 79153  1  0  0  0
 79154  1  0  0  0
 80 82  1  0  0  0
 80155  1  0  0  0
 80156  1  0  0  0
 81 84  1  0  0  0
 81157  1  0  0  0
 81158  1  0  0  0
 82159  1  0  0  0
 82160  1  0  0  0
 83161  1  0  0  0
 84162  1  0  0  0
M  ISO  4   1 100  68 101  82 101  85 100
M  END
> <chiral flag>
0

> <version>
0

> <s_m_source_file>
/data/baiqing/PycharmProjects/Reinvent-master-3.2/result/LINK_invent/BTK/process_docking_weight1_custom_sum_contain_oxygen_bond_distance_aromatic_linkinvent_7_9_3/rearranged_h_0003.sdf

> <i_m_source_file_index>
25

> <r_mmod_Potential_Energy-OPLS-2005>
53.3623733520508

> <r_mmod_Stretch_Energy-OPLS-2005>
40.7025909423828

> <r_mmod_Bend_Energy-OPLS-2005>
116.923141479492

> <r_mmod_Torsional_Energy-OPLS-2005>
377.509094238281

> <r_mmod_Improper_Torsional_Energy-OPLS-2005>
6.97787714004517

> <r_mmod_Van_der_Waal_Energy-OPLS-2005>
167.425140380859

> <r_mmod_Electrostatic_Energy-OPLS-2005>
-445.420104980469

> <r_mmod_Solvation_Energy-OPLS-2005>
-224.550033569336

> <b_mmod_Minimization_Converged-OPLS-2005>
0

> <r_mmod_RMS_Derivative-OPLS-2005>
12.6779098510742

$$$$
26
                    3D
 Structure written by MMmdl.
164172  0  0  1  0            999 V2000
  -30.6809  -14.4463   20.7081 C   0  0  0  0  0  0
  -30.4608  -12.3406   19.3963 C   0  0  0  0  0  0
  -29.5074  -12.5241   18.1981 C   0  0  0  0  0  0
  -28.0282  -12.3742   18.6133 C   0  0  0  0  0  0
  -27.6778  -13.1821   19.8913 C   0  0  2  0  0  0
  -28.7185  -12.8872   20.9889 C   0  0  0  0  0  0
  -25.2716  -13.8085   20.5705 C   0  0  0  0  0  0
  -24.1915  -13.0420   20.9152 C   0  0  0  0  0  0
  -24.6378  -11.6853   20.8701 C   0  0  0  0  0  0
  -23.8988  -10.4296   21.0387 C   0  0  0  0  0  0
  -24.3570   -9.4229   21.9164 C   0  0  0  0  0  0
  -23.6267   -8.2263   22.0755 C   0  0  0  0  0  0
  -22.4253   -8.0264   21.3549 C   0  0  0  0  0  0
  -21.9863   -9.0218   20.4653 C   0  0  0  0  0  0
  -22.7162  -10.2119   20.3060 C   0  0  0  0  0  0
  -21.6841   -6.0700   22.5257 C   0  0  0  0  0  0
  -21.4009   -6.5614   23.8183 C   0  0  0  0  0  0
  -21.3679   -5.6787   24.9156 C   0  0  0  0  0  0
  -21.6049   -4.3044   24.7217 C   0  0  0  0  0  0
  -21.8817   -3.8117   23.4343 C   0  0  0  0  0  0
  -21.9205   -4.6927   22.3397 C   0  0  0  0  0  0
  -22.7960  -13.5283   21.1768 C   0  0  0  0  0  0
  -22.1666   -4.2116   21.0969 F   0  0  0  0  0  0
  -21.5651   -3.4532   25.7728 F   0  0  0  0  0  0
  -30.0476  -13.2652   20.4640 N   0  0  0  0  0  0
  -26.3124  -12.9192   20.3436 N   0  0  0  0  0  0
  -25.9322  -11.6369   20.5777 N   0  0  0  0  0  0
  -22.0556  -12.8349   22.0316 N   0  0  0  0  0  0
  -25.4595  -15.1812   20.4196 N   0  0  0  0  0  0
  -31.7684  -14.7457   20.1948 O   0  0  0  0  0  0
  -21.6643   -6.8848   21.4227 O   0  0  0  0  0  0
  -22.3671  -14.5560   20.6551 O   0  0  0  0  0  0
  -24.6067  -31.8717   23.2167 C   0  0  0  0  0  0
  -25.8979  -32.4848   23.8447 C   0  0  1  0  0  0
  -27.2434  -27.4652   20.0968 C   0  0  0  0  0  0
  -25.5869  -33.8654   24.2380 N   0  0  0  0  0  0
  -23.3963  -30.4961   21.5522 C   0  0  2  0  0  0
  -24.8488  -28.9632   20.1280 C   0  0  0  0  0  0
  -22.7371  -29.4644   22.4989 C   0  0  0  0  0  0
  -18.0270  -28.1325   22.8513 C   0  0  0  0  0  0
  -24.1479  -36.7311   23.2632 C   0  0  0  0  0  0
  -25.9263  -30.8426   21.3736 C   0  0  0  0  0  0
  -26.0060  -29.4817   20.7175 C   0  0  0  0  0  0
  -27.2094  -28.7441   20.6926 C   0  0  0  0  0  0
  -26.0644  -26.9477   19.5232 C   0  0  0  0  0  0
  -24.8706  -27.6908   19.5333 C   0  0  0  0  0  0
  -23.6080  -29.8262   20.1660 C   0  0  0  0  0  0
  -25.4117  -36.3140   24.0353 C   0  0  1  0  0  0
  -20.5867  -28.3574   23.1355 C   0  0  2  0  0  0
  -20.6744  -26.9345   22.5398 C   0  0  0  0  0  0
  -19.5713  -26.6371   21.5165 C   0  0  0  0  0  0
  -18.1923  -26.7878   22.1646 C   0  0  0  0  0  0
  -19.1539  -28.8770   23.2954 C   0  0  0  0  0  0
  -18.9470  -30.1363   23.8970 C   0  0  0  0  0  0
  -17.6472  -30.6511   24.0624 C   0  0  0  0  0  0
  -25.9048  -34.9489   23.5166 C   0  0  0  0  0  0
  -16.5353  -29.9075   23.6306 C   0  0  0  0  0  0
  -16.7276  -28.6494   23.0304 C   0  0  0  0  0  0
  -26.4456  -31.6580   25.0718 C   0  0  0  0  0  0
  -25.3711  -31.3667   26.1448 C   0  0  0  0  0  0
  -27.0301  -30.3008   24.6093 C   0  0  0  0  0  0
  -27.6091  -32.4248   25.7433 C   0  0  0  0  0  0
  -27.5607  -37.1805   24.8471 C   0  0  0  0  0  0
  -21.4098  -29.2998   22.3782 N   0  0  0  0  0  0
  -26.4326  -37.3805   23.9413 N   0  0  0  0  0  0
  -24.6600  -31.0842   22.1037 N   0  0  0  0  0  0
  -23.4174  -28.8178   23.3002 O   0  0  0  0  0  0
  -28.4205  -26.7594   20.0710 O   0  0  0  0  0  0
  -26.5569  -34.8909   22.4693 O   0  0  0  0  0  0
  -23.5247  -32.1476   23.7528 O   0  0  0  0  0  0
  -30.8460  -18.2084   23.6657 C   0  0  0  0  0  0
  -29.2549  -18.8954   21.9615 C   0  0  0  0  0  0
  -30.9456  -16.9329   23.0567 C   0  0  0  0  0  0
  -29.3414  -17.6206   21.3617 C   0  0  0  0  0  0
  -29.9623  -19.1836   23.1520 C   0  0  0  0  0  0
  -30.1622  -16.6171   21.9199 C   0  0  0  0  0  0
  -29.7423  -20.4948   23.8607 C   0  0  0  0  0  0
  -26.4973  -23.2112   21.5440 C   0  0  0  0  0  0
  -26.1705  -22.0154   22.4310 C   0  0  0  0  0  0
  -26.4486  -22.2881   23.9341 C   0  0  0  0  0  0
  -27.9231  -22.1447   24.3744 C   0  0  0  0  0  0
  -28.1532  -24.2979   20.0524 C   0  0  0  0  0  0
  -28.4270  -25.5802   20.8700 C   0  0  0  0  0  0
  -29.9695  -15.2662   21.5093 N   0  0  0  0  0  0
  -28.4593  -20.8689   23.9150 N   0  0  0  0  0  0
  -27.6660  -23.2057   20.8889 N   0  0  0  0  0  0
  -30.6679  -21.1333   24.3675 O   0  0  0  0  0  0
  -25.6906  -24.1367   21.4537 O   0  0  0  0  0  0
  -31.4931  -12.5054   19.0816 H   0  0  0  0  0  0
  -30.4267  -11.3125   19.7656 H   0  0  0  0  0  0
  -29.7532  -11.8058   17.4125 H   0  0  0  0  0  0
  -29.6632  -13.5145   17.7684 H   0  0  0  0  0  0
  -27.8413  -11.3147   18.7849 H   0  0  0  0  0  0
  -27.3840  -12.6722   17.7847 H   0  0  0  0  0  0
  -27.7475  -14.2411   19.6402 H   0  0  0  0  0  0
  -28.7232  -11.8210   21.2216 H   0  0  0  0  0  0
  -28.4507  -13.3685   21.9292 H   0  0  0  0  0  0
  -25.2722   -9.5721   22.4731 H   0  0  0  0  0  0
  -23.9966   -7.4668   22.7496 H   0  0  0  0  0  0
  -21.0774   -8.8700   19.8988 H   0  0  0  0  0  0
  -22.3558  -10.9641   19.6180 H   0  0  0  0  0  0
  -21.1976   -7.6115   23.9660 H   0  0  0  0  0  0
  -21.1532   -6.0527   25.9060 H   0  0  0  0  0  0
  -22.0592   -2.7581   23.2842 H   0  0  0  0  0  0
  -22.4063  -12.0004   22.4766 H   0  0  0  0  0  0
  -21.1192  -13.1452   22.2468 H   0  0  0  0  0  0
  -24.7130  -15.8555   20.5398 H   0  0  0  0  0  0
  -26.3313  -15.6059   20.1322 H   0  0  0  0  0  0
  -26.7028  -32.5568   23.1221 H   0  0  0  0  0  0
  -25.0106  -33.9888   25.0575 H   0  0  0  0  0  0
  -22.6838  -31.3119   21.4139 H   0  0  0  0  0  0
  -23.3748  -35.9627   23.3301 H   0  0  0  0  0  0
  -24.3567  -36.8862   22.2030 H   0  0  0  0  0  0
  -23.7204  -37.6523   23.6603 H   0  0  0  0  0  0
  -26.0424  -31.6190   20.6137 H   0  0  0  0  0  0
  -26.8080  -30.8840   22.0013 H   0  0  0  0  0  0
  -28.1090  -29.1451   21.1372 H   0  0  0  0  0  0
  -26.0460  -25.9792   19.0541 H   0  0  0  0  0  0
  -23.9773  -27.2762   19.0869 H   0  0  0  0  0  0
  -23.7238  -30.5988   19.4031 H   0  0  0  0  0  0
  -22.7399  -29.2410   19.8593 H   0  0  0  0  0  0
  -25.1290  -36.2075   25.0857 H   0  0  0  0  0  0
  -21.0025  -28.3087   24.1447 H   0  0  0  0  0  0
  -20.5508  -26.2220   23.3560 H   0  0  0  0  0  0
  -21.6661  -26.7309   22.1311 H   0  0  0  0  0  0
  -19.6909  -25.6342   21.1050 H   0  0  0  0  0  0
  -19.6601  -27.3262   20.6754 H   0  0  0  0  0  0
  -17.4176  -26.6559   21.4113 H   0  0  0  0  0  0
  -18.0433  -26.0036   22.9066 H   0  0  0  0  0  0
  -19.7961  -30.7144   24.2375 H   0  0  0  0  0  0
  -17.5051  -31.6148   24.5318 H   0  0  0  0  0  0
  -15.5380  -30.3006   23.7603 H   0  0  0  0  0  0
  -15.8655  -28.0843   22.6991 H   0  0  0  0  0  0
  -24.5995  -30.6924   25.7728 H   0  0  0  0  0  0
  -24.8820  -32.2817   26.4798 H   0  0  0  0  0  0
  -25.8084  -30.8903   27.0243 H   0  0  0  0  0  0
  -26.2858  -29.6752   24.1170 H   0  0  0  0  0  0
  -27.4069  -29.7292   25.4581 H   0  0  0  0  0  0
  -27.8702  -30.4302   23.9257 H   0  0  0  0  0  0
  -27.2834  -33.3590   26.2018 H   0  0  0  0  0  0
  -28.3910  -32.6682   25.0221 H   0  0  0  0  0  0
  -28.0752  -31.8323   26.5317 H   0  0  0  0  0  0
  -28.2641  -38.0083   24.7527 H   0  0  0  0  0  0
  -28.1086  -36.2623   24.6329 H   0  0  0  0  0  0
  -27.2304  -37.1479   25.8860 H   0  0  0  0  0  0
  -20.9212  -29.8748   21.7060 H   0  0  0  0  0  0
  -26.0222  -38.2892   24.1402 H   0  0  0  0  0  0
  -31.3975  -18.4223   24.5713 H   0  0  0  0  0  0
  -28.6034  -19.6371   21.5231 H   0  0  0  0  0  0
  -31.5599  -16.1769   23.5260 H   0  0  0  0  0  0
  -28.7218  -17.3976   20.5024 H   0  0  0  0  0  0
  -26.6843  -21.1284   22.0628 H   0  0  0  0  0  0
  -25.1077  -21.8059   22.3076 H   0  0  0  0  0  0
  -25.8443  -21.5980   24.5224 H   0  0  0  0  0  0
  -26.0845  -23.2858   24.1964 H   0  0  0  0  0  0
  -27.9882  -22.1935   25.4631 H   0  0  0  0  0  0
  -28.5280  -22.9699   23.9944 H   0  0  0  0  0  0
  -29.0719  -23.9763   19.5580 H   0  0  0  0  0  0
  -27.4392  -24.4657   19.2506 H   0  0  0  0  0  0
  -29.4098  -25.4819   21.3304 H   0  0  0  0  0  0
  -27.7376  -25.6986   21.7045 H   0  0  0  0  0  0
  -29.0641  -14.8837   21.7370 H   0  0  0  0  0  0
  -27.7941  -20.2035   23.5453 H   0  0  0  0  0  0
  -28.2496  -22.3824   20.9490 H   0  0  0  0  0  0
  1 25  1  0  0  0
  1 30  2  0  0  0
  1 84  1  0  0  0
  2  3  1  0  0  0
  2 25  1  0  0  0
  2 89  1  0  0  0
  2 90  1  0  0  0
  3  4  1  0  0  0
  3 91  1  0  0  0
  3 92  1  0  0  0
  4  5  1  0  0  0
  4 93  1  0  0  0
  4 94  1  0  0  0
  5  6  1  0  0  0
  5 26  1  0  0  0
  5 95  1  0  0  0
  6 25  1  0  0  0
  6 96  1  0  0  0
  6 97  1  0  0  0
  7  8  2  0  0  0
  7 26  1  0  0  0
  7 29  1  0  0  0
  8  9  1  0  0  0
  8 22  1  0  0  0
  9 10  1  0  0  0
  9 27  2  0  0  0
 10 11  2  0  0  0
 10 15  1  0  0  0
 11 12  1  0  0  0
 11 98  1  0  0  0
 12 13  2  0  0  0
 12 99  1  0  0  0
 13 14  1  0  0  0
 13 31  1  0  0  0
 14 15  2  0  0  0
 14100  1  0  0  0
 15101  1  0  0  0
 16 17  2  0  0  0
 16 21  1  0  0  0
 16 31  1  0  0  0
 17 18  1  0  0  0
 17102  1  0  0  0
 18 19  2  0  0  0
 18103  1  0  0  0
 19 20  1  0  0  0
 19 24  1  0  0  0
 20 21  2  0  0  0
 20104  1  0  0  0
 21 23  1  0  0  0
 22 28  1  0  0  0
 22 32  2  0  0  0
 26 27  1  0  0  0
 28105  1  0  0  0
 28106  1  0  0  0
 29107  1  0  0  0
 29108  1  0  0  0
 33 34  1  0  0  0
 33 66  1  0  0  0
 33 70  2  0  0  0
 34 36  1  0  0  0
 34 59  1  0  0  0
 34109  1  0  0  0
 35 44  2  0  0  0
 35 45  1  0  0  0
 35 68  1  0  0  0
 36 56  1  0  0  0
 36110  1  0  0  0
 37 39  1  0  0  0
 37 47  1  0  0  0
 37 66  1  0  0  0
 37111  1  0  0  0
 38 43  2  0  0  0
 38 46  1  0  0  0
 38 47  1  0  0  0
 39 64  1  0  0  0
 39 67  2  0  0  0
 40 52  1  0  0  0
 40 53  2  0  0  0
 40 58  1  0  0  0
 41112  1  0  0  0
 41113  1  0  0  0
 41114  1  0  0  0
 41 48  1  0  0  0
 42 43  1  0  0  0
 42 66  1  0  0  0
 42115  1  0  0  0
 42116  1  0  0  0
 43 44  1  0  0  0
 44117  1  0  0  0
 45 46  2  0  0  0
 45118  1  0  0  0
 46119  1  0  0  0
 47120  1  0  0  0
 47121  1  0  0  0
 48 56  1  0  0  0
 48 65  1  0  0  0
 48122  1  0  0  0
 49 50  1  0  0  0
 49 53  1  0  0  0
 49 64  1  0  0  0
 49123  1  0  0  0
 50 51  1  0  0  0
 50124  1  0  0  0
 50125  1  0  0  0
 51 52  1  0  0  0
 51126  1  0  0  0
 51127  1  0  0  0
 52128  1  0  0  0
 52129  1  0  0  0
 53 54  1  0  0  0
 54 55  2  0  0  0
 54130  1  0  0  0
 55 57  1  0  0  0
 55131  1  0  0  0
 56 69  2  0  0  0
 57 58  2  0  0  0
 57132  1  0  0  0
 58133  1  0  0  0
 59 60  1  0  0  0
 59 61  1  0  0  0
 59 62  1  0  0  0
 60134  1  0  0  0
 60135  1  0  0  0
 60136  1  0  0  0
 61137  1  0  0  0
 61138  1  0  0  0
 61139  1  0  0  0
 62140  1  0  0  0
 62141  1  0  0  0
 62142  1  0  0  0
 63 65  1  0  0  0
 63143  1  0  0  0
 63144  1  0  0  0
 63145  1  0  0  0
 64146  1  0  0  0
 65147  1  0  0  0
 68 83  1  0  0  0
 71 73  2  0  0  0
 71 75  1  0  0  0
 71148  1  0  0  0
 72 74  1  0  0  0
 72 75  2  0  0  0
 72149  1  0  0  0
 73 76  1  0  0  0
 73150  1  0  0  0
 74 76  2  0  0  0
 74151  1  0  0  0
 75 77  1  0  0  0
 76 84  1  0  0  0
 77 85  1  0  0  0
 77 87  2  0  0  0
 78 79  1  0  0  0
 78 86  1  0  0  0
 78 88  2  0  0  0
 79 80  1  0  0  0
 79152  1  0  0  0
 79153  1  0  0  0
 80 81  1  0  0  0
 80154  1  0  0  0
 80155  1  0  0  0
 81 85  1  0  0  0
 81156  1  0  0  0
 81157  1  0  0  0
 82 83  1  0  0  0
 82 86  1  0  0  0
 82158  1  0  0  0
 82159  1  0  0  0
 83160  1  0  0  0
 83161  1  0  0  0
 84162  1  0  0  0
 85163  1  0  0  0
 86164  1  0  0  0
M  ISO  4   1 100  68 101  83 101  84 100
M  END
> <chiral flag>
0

> <version>
0

> <s_m_source_file>
/data/baiqing/PycharmProjects/Reinvent-master-3.2/result/LINK_invent/BTK/process_docking_weight1_custom_sum_contain_oxygen_bond_distance_aromatic_linkinvent_7_9_3/rearranged_h_0003.sdf

> <i_m_source_file_index>
26

> <r_mmod_Potential_Energy-OPLS-2005>
-182.920608520508

> <r_mmod_Stretch_Energy-OPLS-2005>
35.8118324279785

> <r_mmod_Bend_Energy-OPLS-2005>
101.416893005371

> <r_mmod_Torsional_Energy-OPLS-2005>
278.649932861328

> <r_mmod_Improper_Torsional_Energy-OPLS-2005>
4.24846839904785

> <r_mmod_Van_der_Waal_Energy-OPLS-2005>
148.320816040039

> <r_mmod_Electrostatic_Energy-OPLS-2005>
-495.491119384766

> <r_mmod_Solvation_Energy-OPLS-2005>
-269.016418457031

> <b_mmod_Minimization_Converged-OPLS-2005>
0

> <r_mmod_RMS_Derivative-OPLS-2005>
6.31440734863281

$$$$
27
                    3D
 Structure written by MMmdl.
154162  0  0  1  0            999 V2000
  -30.6781  -14.5756   20.5067 C   0  0  0  0  0  0
  -30.4152  -12.3573   19.4332 C   0  0  0  0  0  0
  -29.4939  -12.4998   18.2041 C   0  0  0  0  0  0
  -28.0149  -12.3559   18.6179 C   0  0  0  0  0  0
  -27.6484  -13.2221   19.8552 C   0  0  2  0  0  0
  -28.6947  -13.0852   20.9818 C   0  0  0  0  0  0
  -25.2557  -13.8187   20.5691 C   0  0  0  0  0  0
  -24.1836  -13.0432   20.9210 C   0  0  0  0  0  0
  -24.6412  -11.6908   20.8749 C   0  0  0  0  0  0
  -23.9088  -10.4285   21.0421 C   0  0  0  0  0  0
  -24.3630   -9.4199   21.9202 C   0  0  0  0  0  0
  -23.6305   -8.2234   22.0763 C   0  0  0  0  0  0
  -22.4288   -8.0284   21.3557 C   0  0  0  0  0  0
  -21.9929   -9.0263   20.4659 C   0  0  0  0  0  0
  -22.7266  -10.2138   20.3065 C   0  0  0  0  0  0
  -21.6853   -6.0741   22.5292 C   0  0  0  0  0  0
  -21.4014   -6.5638   23.8232 C   0  0  0  0  0  0
  -21.3663   -5.6794   24.9188 C   0  0  0  0  0  0
  -21.6030   -4.3059   24.7241 C   0  0  0  0  0  0
  -21.8819   -3.8147   23.4365 C   0  0  0  0  0  0
  -21.9196   -4.6962   22.3416 C   0  0  0  0  0  0
  -22.7861  -13.5230   21.1868 C   0  0  0  0  0  0
  -22.1665   -4.2141   21.1001 F   0  0  0  0  0  0
  -21.5624   -3.4545   25.7759 F   0  0  0  0  0  0
  -30.0079  -13.3913   20.4004 N   0  0  0  0  0  0
  -26.2973  -12.9378   20.3296 N   0  0  0  0  0  0
  -25.9339  -11.6523   20.5749 N   0  0  0  0  0  0
  -22.0508  -12.8213   22.0416 N   0  0  0  0  0  0
  -25.4257  -15.1906   20.4108 N   0  0  0  0  0  0
  -31.8576  -14.6825   20.1604 O   0  0  0  0  0  0
  -21.6650   -6.8881   21.4258 O   0  0  0  0  0  0
  -22.3555  -14.5548   20.6734 O   0  0  0  0  0  0
  -24.6206  -31.8612   23.2067 C   0  0  0  0  0  0
  -25.9070  -32.4784   23.8375 C   0  0  1  0  0  0
  -27.2150  -27.3711   20.1120 C   0  0  0  0  0  0
  -25.5893  -33.8585   24.2305 N   0  0  0  0  0  0
  -23.4122  -30.4837   21.5505 C   0  0  2  0  0  0
  -24.8562  -28.9476   20.1092 C   0  0  0  0  0  0
  -22.7456  -29.4598   22.4987 C   0  0  0  0  0  0
  -18.0276  -28.1374   22.8475 C   0  0  0  0  0  0
  -24.1492  -36.7295   23.2646 C   0  0  0  0  0  0
  -25.9466  -30.8129   21.3664 C   0  0  0  0  0  0
  -26.0229  -29.4443   20.7082 C   0  0  0  0  0  0
  -27.2112  -28.6652   20.6981 C   0  0  0  0  0  0
  -26.0332  -26.9055   19.5029 C   0  0  0  0  0  0
  -24.8596  -27.6825   19.4980 C   0  0  0  0  0  0
  -23.6221  -29.8215   20.1631 C   0  0  0  0  0  0
  -25.4110  -36.3081   24.0338 C   0  0  1  0  0  0
  -20.5869  -28.3641   23.1322 C   0  0  2  0  0  0
  -20.6767  -26.9375   22.5419 C   0  0  0  0  0  0
  -19.5752  -26.6379   21.5217 C   0  0  0  0  0  0
  -18.1927  -26.7919   22.1622 C   0  0  0  0  0  0
  -19.1526  -28.8833   23.2878 C   0  0  0  0  0  0
  -18.9458  -30.1448   23.8877 C   0  0  0  0  0  0
  -17.6449  -30.6582   24.0562 C   0  0  0  0  0  0
  -25.9033  -34.9449   23.5129 C   0  0  0  0  0  0
  -16.5340  -29.9072   23.6332 C   0  0  0  0  0  0
  -16.7251  -28.6497   23.0332 C   0  0  0  0  0  0
  -26.4475  -31.6586   25.0726 C   0  0  0  0  0  0
  -25.3713  -31.3720   26.1460 C   0  0  0  0  0  0
  -27.0326  -30.3023   24.6145 C   0  0  0  0  0  0
  -27.6052  -32.4318   25.7477 C   0  0  0  0  0  0
  -27.5582  -37.1792   24.8469 C   0  0  0  0  0  0
  -21.4171  -29.3007   22.3740 N   0  0  0  0  0  0
  -26.4294  -37.3769   23.9420 N   0  0  0  0  0  0
  -24.6791  -31.0669   22.0995 N   0  0  0  0  0  0
  -23.4204  -28.8154   23.3058 O   0  0  0  0  0  0
  -28.3313  -26.5469   20.1228 O   0  0  0  0  0  0
  -26.5607  -34.8901   22.4696 O   0  0  0  0  0  0
  -23.5374  -32.1411   23.7417 O   0  0  0  0  0  0
  -31.9303  -18.2364   22.6464 C   0  0  0  0  0  0
  -31.4598  -19.4508   22.1221 C   0  0  0  0  0  0
  -31.4144  -17.0185   22.1811 C   0  0  0  0  0  0
  -29.9044  -18.2400   20.6862 C   0  0  0  0  0  0
  -30.4391  -19.4914   21.1455 C   0  0  0  0  0  0
  -30.4136  -16.9868   21.1845 C   0  0  0  0  0  0
  -30.0703  -20.8799   20.6235 C   0  0  0  0  0  0
  -28.5533  -23.9338   20.1674 C   0  0  0  0  0  0
  -28.4109  -22.7123   21.1503 C   0  0  0  0  0  0
  -28.1794  -25.2974   20.8630 C   0  0  0  0  0  0
  -29.9287  -15.6886   20.7656 N   0  0  0  0  0  0
  -28.8037  -21.3259   20.7480 N   0  0  0  0  0  0
  -30.9748  -21.6397   20.2668 O   0  0  0  0  0  0
  -31.4629  -12.4414   19.1403 H   0  0  0  0  0  0
  -30.3067  -11.3648   19.8762 H   0  0  0  0  0  0
  -29.7449  -11.7489   17.4548 H   0  0  0  0  0  0
  -29.6508  -13.4701   17.7291 H   0  0  0  0  0  0
  -27.8339  -11.3028   18.8352 H   0  0  0  0  0  0
  -27.3649  -12.6079   17.7786 H   0  0  0  0  0  0
  -27.6656  -14.2582   19.5159 H   0  0  0  0  0  0
  -28.6901  -12.0737   21.3906 H   0  0  0  0  0  0
  -28.4607  -13.7511   21.8147 H   0  0  0  0  0  0
  -25.2774   -9.5656   22.4788 H   0  0  0  0  0  0
  -24.0008   -7.4611   22.7472 H   0  0  0  0  0  0
  -21.0858   -8.8793   19.8962 H   0  0  0  0  0  0
  -22.3744  -10.9680   19.6164 H   0  0  0  0  0  0
  -21.2006   -7.6147   23.9725 H   0  0  0  0  0  0
  -21.1489   -6.0533   25.9091 H   0  0  0  0  0  0
  -22.0593   -2.7608   23.2885 H   0  0  0  0  0  0
  -22.4145  -11.9859   22.4757 H   0  0  0  0  0  0
  -21.1126  -13.1230   22.2635 H   0  0  0  0  0  0
  -24.6556  -15.8422   20.5168 H   0  0  0  0  0  0
  -26.2667  -15.6308   20.0613 H   0  0  0  0  0  0
  -26.7141  -32.5468   23.1124 H   0  0  0  0  0  0
  -25.0013  -33.9720   25.0434 H   0  0  0  0  0  0
  -22.7039  -31.3031   21.4143 H   0  0  0  0  0  0
  -23.3732  -35.9646   23.3319 H   0  0  0  0  0  0
  -24.3590  -36.8910   22.2062 H   0  0  0  0  0  0
  -23.7248  -37.6502   23.6655 H   0  0  0  0  0  0
  -26.0654  -31.5832   20.6023 H   0  0  0  0  0  0
  -26.8303  -30.8621   21.9922 H   0  0  0  0  0  0
  -28.1144  -29.0392   21.1636 H   0  0  0  0  0  0
  -26.0176  -25.9280   19.0430 H   0  0  0  0  0  0
  -23.9627  -27.3031   19.0263 H   0  0  0  0  0  0
  -23.7289  -30.6026   19.4105 H   0  0  0  0  0  0
  -22.7423  -29.2477   19.8635 H   0  0  0  0  0  0
  -25.1282  -36.1967   25.0826 H   0  0  0  0  0  0
  -20.9933  -28.3201   24.1454 H   0  0  0  0  0  0
  -20.5721  -26.2221   23.3599 H   0  0  0  0  0  0
  -21.6632  -26.7452   22.1194 H   0  0  0  0  0  0
  -19.6919  -25.6301   21.1229 H   0  0  0  0  0  0
  -19.6715  -27.3202   20.6764 H   0  0  0  0  0  0
  -17.4199  -26.6661   21.4007 H   0  0  0  0  0  0
  -18.0316  -26.0070   22.9027 H   0  0  0  0  0  0
  -19.7935  -30.7277   24.2228 H   0  0  0  0  0  0
  -17.5003  -31.6264   24.5153 H   0  0  0  0  0  0
  -15.5330  -30.2957   23.7700 H   0  0  0  0  0  0
  -15.8657  -28.0840   22.7015 H   0  0  0  0  0  0
  -24.5902  -30.7052   25.7795 H   0  0  0  0  0  0
  -24.8856  -32.2877   26.4843 H   0  0  0  0  0  0
  -25.8026  -30.8941   27.0269 H   0  0  0  0  0  0
  -26.2904  -29.6764   24.1172 H   0  0  0  0  0  0
  -27.4057  -29.7277   25.4631 H   0  0  0  0  0  0
  -27.8748  -30.4328   23.9347 H   0  0  0  0  0  0
  -27.2687  -33.3634   26.2044 H   0  0  0  0  0  0
  -28.3851  -32.6846   25.0288 H   0  0  0  0  0  0
  -28.0720  -31.8441   26.5404 H   0  0  0  0  0  0
  -28.2581  -38.0099   24.7501 H   0  0  0  0  0  0
  -28.1085  -36.2621   24.6304 H   0  0  0  0  0  0
  -27.2291  -37.1452   25.8866 H   0  0  0  0  0  0
  -20.9352  -29.8705   21.6936 H   0  0  0  0  0  0
  -26.0188  -38.2852   24.1415 H   0  0  0  0  0  0
  -32.6973  -18.2389   23.4088 H   0  0  0  0  0  0
  -31.8955  -20.3721   22.4824 H   0  0  0  0  0  0
  -31.8026  -16.1058   22.6108 H   0  0  0  0  0  0
  -29.1470  -18.2461   19.9149 H   0  0  0  0  0  0
  -27.9114  -23.7848   19.3003 H   0  0  0  0  0  0
  -29.5751  -23.9903   19.7924 H   0  0  0  0  0  0
  -27.3619  -22.6542   21.4492 H   0  0  0  0  0  0
  -28.9525  -22.9459   22.0680 H   0  0  0  0  0  0
  -28.8144  -25.4042   21.7424 H   0  0  0  0  0  0
  -27.1707  -25.2021   21.2715 H   0  0  0  0  0  0
  -28.9287  -15.5615   20.7467 H   0  0  0  0  0  0
  -28.1315  -20.6064   20.9841 H   0  0  0  0  0  0
  1 25  1  0  0  0
  1 30  2  0  0  0
  1 81  1  0  0  0
  2  3  1  0  0  0
  2 25  1  0  0  0
  2 84  1  0  0  0
  2 85  1  0  0  0
  3  4  1  0  0  0
  3 86  1  0  0  0
  3 87  1  0  0  0
  4  5  1  0  0  0
  4 88  1  0  0  0
  4 89  1  0  0  0
  5  6  1  0  0  0
  5 26  1  0  0  0
  5 90  1  0  0  0
  6 25  1  0  0  0
  6 91  1  0  0  0
  6 92  1  0  0  0
  7  8  2  0  0  0
  7 26  1  0  0  0
  7 29  1  0  0  0
  8  9  1  0  0  0
  8 22  1  0  0  0
  9 10  1  0  0  0
  9 27  2  0  0  0
 10 11  2  0  0  0
 10 15  1  0  0  0
 11 12  1  0  0  0
 11 93  1  0  0  0
 12 13  2  0  0  0
 12 94  1  0  0  0
 13 14  1  0  0  0
 13 31  1  0  0  0
 14 15  2  0  0  0
 14 95  1  0  0  0
 15 96  1  0  0  0
 16 17  2  0  0  0
 16 21  1  0  0  0
 16 31  1  0  0  0
 17 18  1  0  0  0
 17 97  1  0  0  0
 18 19  2  0  0  0
 18 98  1  0  0  0
 19 20  1  0  0  0
 19 24  1  0  0  0
 20 21  2  0  0  0
 20 99  1  0  0  0
 21 23  1  0  0  0
 22 28  1  0  0  0
 22 32  2  0  0  0
 26 27  1  0  0  0
 28100  1  0  0  0
 28101  1  0  0  0
 29102  1  0  0  0
 29103  1  0  0  0
 33 34  1  0  0  0
 33 66  1  0  0  0
 33 70  2  0  0  0
 34 36  1  0  0  0
 34 59  1  0  0  0
 34104  1  0  0  0
 35 44  2  0  0  0
 35 45  1  0  0  0
 35 68  1  0  0  0
 36 56  1  0  0  0
 36105  1  0  0  0
 37 39  1  0  0  0
 37 47  1  0  0  0
 37 66  1  0  0  0
 37106  1  0  0  0
 38 43  2  0  0  0
 38 46  1  0  0  0
 38 47  1  0  0  0
 39 64  1  0  0  0
 39 67  2  0  0  0
 40 52  1  0  0  0
 40 53  2  0  0  0
 40 58  1  0  0  0
 41107  1  0  0  0
 41108  1  0  0  0
 41109  1  0  0  0
 41 48  1  0  0  0
 42 43  1  0  0  0
 42 66  1  0  0  0
 42110  1  0  0  0
 42111  1  0  0  0
 43 44  1  0  0  0
 44112  1  0  0  0
 45 46  2  0  0  0
 45113  1  0  0  0
 46114  1  0  0  0
 47115  1  0  0  0
 47116  1  0  0  0
 48 56  1  0  0  0
 48 65  1  0  0  0
 48117  1  0  0  0
 49 50  1  0  0  0
 49 53  1  0  0  0
 49 64  1  0  0  0
 49118  1  0  0  0
 50 51  1  0  0  0
 50119  1  0  0  0
 50120  1  0  0  0
 51 52  1  0  0  0
 51121  1  0  0  0
 51122  1  0  0  0
 52123  1  0  0  0
 52124  1  0  0  0
 53 54  1  0  0  0
 54 55  2  0  0  0
 54125  1  0  0  0
 55 57  1  0  0  0
 55126  1  0  0  0
 56 69  2  0  0  0
 57 58  2  0  0  0
 57127  1  0  0  0
 58128  1  0  0  0
 59 60  1  0  0  0
 59 61  1  0  0  0
 59 62  1  0  0  0
 60129  1  0  0  0
 60130  1  0  0  0
 60131  1  0  0  0
 61132  1  0  0  0
 61133  1  0  0  0
 61134  1  0  0  0
 62135  1  0  0  0
 62136  1  0  0  0
 62137  1  0  0  0
 63 65  1  0  0  0
 63138  1  0  0  0
 63139  1  0  0  0
 63140  1  0  0  0
 64141  1  0  0  0
 65142  1  0  0  0
 68 80  1  0  0  0
 71 72  2  0  0  0
 71 73  1  0  0  0
 71143  1  0  0  0
 72 75  1  0  0  0
 72144  1  0  0  0
 73 76  2  0  0  0
 73145  1  0  0  0
 74 75  2  0  0  0
 74 76  1  0  0  0
 74146  1  0  0  0
 75 77  1  0  0  0
 76 81  1  0  0  0
 77 82  1  0  0  0
 77 83  2  0  0  0
 78 79  1  0  0  0
 78 80  1  0  0  0
 78147  1  0  0  0
 78148  1  0  0  0
 79 82  1  0  0  0
 79149  1  0  0  0
 79150  1  0  0  0
 80151  1  0  0  0
 80152  1  0  0  0
 81153  1  0  0  0
 82154  1  0  0  0
M  ISO  4   1 100  68 101  80 101  81 100
M  END
> <chiral flag>
0

> <version>
0

> <s_m_source_file>
/data/baiqing/PycharmProjects/Reinvent-master-3.2/result/LINK_invent/BTK/process_docking_weight1_custom_sum_contain_oxygen_bond_distance_aromatic_linkinvent_7_9_3/rearranged_h_0003.sdf

> <i_m_source_file_index>
27

> <r_mmod_Potential_Energy-OPLS-2005>
-6.84075784683228

> <r_mmod_Stretch_Energy-OPLS-2005>
57.7708206176758

> <r_mmod_Bend_Energy-OPLS-2005>
122.469619750977

> <r_mmod_Torsional_Energy-OPLS-2005>
278.912048339844

> <r_mmod_Improper_Torsional_Energy-OPLS-2005>
10.5075798034668

> <r_mmod_Van_der_Waal_Energy-OPLS-2005>
143.249465942383

> <r_mmod_Electrostatic_Energy-OPLS-2005>
-409.116546630859

> <r_mmod_Solvation_Energy-OPLS-2005>
-243.69189453125

> <b_mmod_Minimization_Converged-OPLS-2005>
0

> <r_mmod_RMS_Derivative-OPLS-2005>
3.05263543128967

$$$$
28
                    3D
 Structure written by MMmdl.
171178  0  0  1  0            999 V2000
  -30.7254  -14.4378   20.5496 C   0  0  0  0  0  0
  -30.4108  -12.2785   19.4206 C   0  0  0  0  0  0
  -29.4896  -12.4907   18.2046 C   0  0  0  0  0  0
  -28.0139  -12.3524   18.6214 C   0  0  0  0  0  0
  -27.6630  -13.1998   19.8741 C   0  0  2  0  0  0
  -28.7064  -12.9936   20.9977 C   0  0  0  0  0  0
  -25.2639  -13.8157   20.5684 C   0  0  0  0  0  0
  -24.1883  -13.0435   20.9196 C   0  0  0  0  0  0
  -24.6418  -11.6901   20.8758 C   0  0  0  0  0  0
  -23.9067  -10.4282   21.0428 C   0  0  0  0  0  0
  -24.3622   -9.4194   21.9198 C   0  0  0  0  0  0
  -23.6296   -8.2232   22.0769 C   0  0  0  0  0  0
  -22.4281   -8.0283   21.3550 C   0  0  0  0  0  0
  -21.9915   -9.0260   20.4660 C   0  0  0  0  0  0
  -22.7239  -10.2140   20.3078 C   0  0  0  0  0  0
  -21.6846   -6.0760   22.5285 C   0  0  0  0  0  0
  -21.4018   -6.5665   23.8222 C   0  0  0  0  0  0
  -21.3654   -5.6808   24.9175 C   0  0  0  0  0  0
  -21.6044   -4.3074   24.7222 C   0  0  0  0  0  0
  -21.8811   -3.8169   23.4342 C   0  0  0  0  0  0
  -21.9192   -4.6991   22.3403 C   0  0  0  0  0  0
  -22.7909  -13.5263   21.1816 C   0  0  0  0  0  0
  -22.1655   -4.2175   21.0980 F   0  0  0  0  0  0
  -21.5615   -3.4554   25.7731 F   0  0  0  0  0  0
  -30.0366  -13.2746   20.4358 N   0  0  0  0  0  0
  -26.3053  -12.9293   20.3388 N   0  0  0  0  0  0
  -25.9352  -11.6463   20.5817 N   0  0  0  0  0  0
  -22.0528  -12.8278   22.0377 N   0  0  0  0  0  0
  -25.4352  -15.1865   20.4073 N   0  0  0  0  0  0
  -31.8649  -14.5854   20.1049 O   0  0  0  0  0  0
  -21.6635   -6.8894   21.4245 O   0  0  0  0  0  0
  -22.3616  -14.5553   20.6642 O   0  0  0  0  0  0
  -24.6091  -31.8706   23.2097 C   0  0  0  0  0  0
  -25.8989  -32.4814   23.8403 C   0  0  1  0  0  0
  -27.2441  -27.4647   20.0576 C   0  0  0  0  0  0
  -25.5845  -33.8602   24.2338 N   0  0  0  0  0  0
  -23.3969  -30.4953   21.5494 C   0  0  2  0  0  0
  -24.8449  -28.9600   20.1196 C   0  0  0  0  0  0
  -22.7384  -29.4665   22.4972 C   0  0  0  0  0  0
  -18.0255  -28.1411   22.8482 C   0  0  0  0  0  0
  -24.1452  -36.7343   23.2632 C   0  0  0  0  0  0
  -25.9249  -30.8393   21.3625 C   0  0  0  0  0  0
  -26.0034  -29.4738   20.7121 C   0  0  0  0  0  0
  -27.2008  -28.7251   20.6913 C   0  0  0  0  0  0
  -26.0574  -26.9474   19.4883 C   0  0  0  0  0  0
  -24.8647  -27.6928   19.5157 C   0  0  0  0  0  0
  -23.6066  -29.8269   20.1644 C   0  0  0  0  0  0
  -25.4072  -36.3079   24.0306 C   0  0  1  0  0  0
  -20.5865  -28.3657   23.1335 C   0  0  2  0  0  0
  -20.6741  -26.9407   22.5411 C   0  0  0  0  0  0
  -19.5717  -26.6395   21.5213 C   0  0  0  0  0  0
  -18.1902  -26.7948   22.1631 C   0  0  0  0  0  0
  -19.1518  -28.8844   23.2928 C   0  0  0  0  0  0
  -18.9445  -30.1441   23.8974 C   0  0  0  0  0  0
  -17.6457  -30.6614   24.0597 C   0  0  0  0  0  0
  -25.8982  -34.9436   23.5113 C   0  0  0  0  0  0
  -16.5356  -29.9123   23.6335 C   0  0  0  0  0  0
  -16.7255  -28.6553   23.0336 C   0  0  0  0  0  0
  -26.4441  -31.6560   25.0687 C   0  0  0  0  0  0
  -25.3740  -31.3663   26.1470 C   0  0  0  0  0  0
  -27.0238  -30.3021   24.5969 C   0  0  0  0  0  0
  -27.6047  -32.4251   25.7412 C   0  0  0  0  0  0
  -27.5564  -37.1745   24.8454 C   0  0  0  0  0  0
  -21.4126  -29.3036   22.3738 N   0  0  0  0  0  0
  -26.4294  -37.3749   23.9379 N   0  0  0  0  0  0
  -24.6610  -31.0846   22.0969 N   0  0  0  0  0  0
  -23.4175  -28.8205   23.2995 O   0  0  0  0  0  0
  -28.4417  -26.7831   20.0186 O   0  0  0  0  0  0
  -26.5546  -34.8841   22.4679 O   0  0  0  0  0  0
  -23.5294  -32.1427   23.7515 O   0  0  0  0  0  0
  -29.9770  -19.1902   20.0310 C   0  0  0  0  0  0
  -32.3666  -26.6922   18.4067 C   0  0  0  0  0  0
  -29.4635  -17.9687   20.8140 C   0  0  0  0  0  0
  -31.9568  -23.7965   20.4867 C   0  0  0  0  0  0
  -31.1898  -22.6005   21.0867 C   0  0  0  0  0  0
  -31.9896  -25.0232   21.4167 C   0  0  0  0  0  0
  -28.9876  -26.9099   17.6244 C   0  0  0  0  0  0
  -30.5514  -16.8772   20.9561 C   0  0  0  0  0  0
  -31.1253  -21.3934   20.1293 C   0  0  0  0  0  0
  -32.7309  -26.2442   20.8356 C   0  0  0  0  0  0
  -30.2002  -27.8545   17.7535 C   0  0  0  0  0  0
  -28.7467  -26.0083   18.8515 C   0  0  0  0  0  0
  -30.4477  -20.2376   20.7253 N   0  0  0  0  0  0
  -30.0354  -15.4964   21.0082 N   0  0  0  0  0  0
  -32.0161  -26.8048   19.6911 N   0  0  0  0  0  0
  -31.4815  -27.1728   17.5248 N   0  0  0  0  0  0
  -29.9667  -19.1704   18.7991 O   0  0  0  0  0  0
  -33.4113  -26.1606   18.0340 O   0  0  0  0  0  0
  -31.4568  -12.3500   19.1213 H   0  0  0  0  0  0
  -30.2889  -11.2720   19.8215 H   0  0  0  0  0  0
  -29.7276  -11.7654   17.4249 H   0  0  0  0  0  0
  -29.6630  -13.4783   17.7749 H   0  0  0  0  0  0
  -27.8342  -11.2957   18.8284 H   0  0  0  0  0  0
  -27.3561  -12.6095   17.7912 H   0  0  0  0  0  0
  -27.7051  -14.2458   19.5689 H   0  0  0  0  0  0
  -28.6780  -11.9673   21.3690 H   0  0  0  0  0  0
  -28.4810  -13.6232   21.8603 H   0  0  0  0  0  0
  -25.2769   -9.5679   22.4776 H   0  0  0  0  0  0
  -24.0004   -7.4637   22.7515 H   0  0  0  0  0  0
  -21.0835   -8.8795   19.8975 H   0  0  0  0  0  0
  -22.3701  -10.9696   19.6204 H   0  0  0  0  0  0
  -21.2005   -7.6171   23.9734 H   0  0  0  0  0  0
  -21.1486   -6.0537   25.9079 H   0  0  0  0  0  0
  -22.0594   -2.7634   23.2833 H   0  0  0  0  0  0
  -22.4124  -11.9941   22.4770 H   0  0  0  0  0  0
  -21.1163  -13.1362   22.2571 H   0  0  0  0  0  0
  -24.6638  -15.8363   20.5161 H   0  0  0  0  0  0
  -26.2827  -15.6274   20.0725 H   0  0  0  0  0  0
  -26.7082  -32.5531   23.1195 H   0  0  0  0  0  0
  -24.9979  -33.9766   25.0467 H   0  0  0  0  0  0
  -22.6825  -31.3089   21.4117 H   0  0  0  0  0  0
  -23.3652  -35.9743   23.3286 H   0  0  0  0  0  0
  -24.3538  -36.8965   22.2052 H   0  0  0  0  0  0
  -23.7265  -37.6561   23.6671 H   0  0  0  0  0  0
  -26.0325  -31.6049   20.5928 H   0  0  0  0  0  0
  -26.8157  -30.8969   21.9758 H   0  0  0  0  0  0
  -28.1024  -29.1207   21.1393 H   0  0  0  0  0  0
  -26.0343  -25.9726   19.0238 H   0  0  0  0  0  0
  -23.9677  -27.2949   19.0601 H   0  0  0  0  0  0
  -23.7134  -30.5992   19.4022 H   0  0  0  0  0  0
  -22.7311  -29.2471   19.8670 H   0  0  0  0  0  0
  -25.1231  -36.1960   25.0809 H   0  0  0  0  0  0
  -20.9988  -28.3211   24.1436 H   0  0  0  0  0  0
  -20.5567  -26.2302   23.3613 H   0  0  0  0  0  0
  -21.6635  -26.7393   22.1276 H   0  0  0  0  0  0
  -19.6881  -25.6271   21.1289 H   0  0  0  0  0  0
  -19.6675  -27.3182   20.6726 H   0  0  0  0  0  0
  -17.4150  -26.6648   21.4070 H   0  0  0  0  0  0
  -18.0343  -26.0089   22.9037 H   0  0  0  0  0  0
  -19.7911  -30.7212   24.2435 H   0  0  0  0  0  0
  -17.5020  -31.6311   24.5155 H   0  0  0  0  0  0
  -15.5369  -30.3059   23.7593 H   0  0  0  0  0  0
  -15.8642  -28.0906   22.7016 H   0  0  0  0  0  0
  -24.5879  -30.7017   25.7851 H   0  0  0  0  0  0
  -24.8938  -32.2825   26.4939 H   0  0  0  0  0  0
  -25.8114  -30.8830   27.0200 H   0  0  0  0  0  0
  -26.2735  -29.6886   24.0953 H   0  0  0  0  0  0
  -27.3988  -29.7132   25.4341 H   0  0  0  0  0  0
  -27.8593  -30.4365   23.9083 H   0  0  0  0  0  0
  -27.2673  -33.3541   26.2026 H   0  0  0  0  0  0
  -28.3827  -32.6841   25.0216 H   0  0  0  0  0  0
  -28.0731  -31.8318   26.5269 H   0  0  0  0  0  0
  -28.2610  -38.0024   24.7519 H   0  0  0  0  0  0
  -28.1012  -36.2548   24.6251 H   0  0  0  0  0  0
  -27.2233  -37.1355   25.8842 H   0  0  0  0  0  0
  -20.9294  -29.8857   21.7043 H   0  0  0  0  0  0
  -26.0180  -38.2843   24.1300 H   0  0  0  0  0  0
  -28.6079  -17.5735   20.2618 H   0  0  0  0  0  0
  -29.0848  -18.2677   21.7911 H   0  0  0  0  0  0
  -31.5097  -24.0648   19.5295 H   0  0  0  0  0  0
  -32.9798  -23.4950   20.2566 H   0  0  0  0  0  0
  -30.1765  -22.9166   21.3385 H   0  0  0  0  0  0
  -31.6682  -22.2997   22.0223 H   0  0  0  0  0  0
  -32.4647  -24.7454   22.3584 H   0  0  0  0  0  0
  -30.9694  -25.3118   21.6752 H   0  0  0  0  0  0
  -29.1028  -26.2945   16.7298 H   0  0  0  0  0  0
  -28.0909  -27.5060   17.4440 H   0  0  0  0  0  0
  -31.1417  -17.0685   21.8535 H   0  0  0  0  0  0
  -31.2438  -16.9734   20.1170 H   0  0  0  0  0  0
  -32.1363  -21.0887   19.8574 H   0  0  0  0  0  0
  -30.6254  -21.6882   19.2061 H   0  0  0  0  0  0
  -33.7593  -25.9854   20.5733 H   0  0  0  0  0  0
  -32.8065  -27.0200   21.6032 H   0  0  0  0  0  0
  -30.1778  -28.3879   18.7044 H   0  0  0  0  0  0
  -30.1130  -28.6247   16.9882 H   0  0  0  0  0  0
  -29.6481  -25.4319   19.0557 H   0  0  0  0  0  0
  -27.9835  -25.2609   18.6412 H   0  0  0  0  0  0
  -30.4142  -20.1807   21.7339 H   0  0  0  0  0  0
  -29.0947  -15.3346   21.3369 H   0  0  0  0  0  0
  -31.1480  -27.2791   19.8952 H   0  0  0  0  0  0
  -31.7530  -27.0727   16.5549 H   0  0  0  0  0  0
  1 25  1  0  0  0
  1 30  2  0  0  0
  1 84  1  0  0  0
  2  3  1  0  0  0
  2 25  1  0  0  0
  2 89  1  0  0  0
  2 90  1  0  0  0
  3  4  1  0  0  0
  3 91  1  0  0  0
  3 92  1  0  0  0
  4  5  1  0  0  0
  4 93  1  0  0  0
  4 94  1  0  0  0
  5  6  1  0  0  0
  5 26  1  0  0  0
  5 95  1  0  0  0
  6 25  1  0  0  0
  6 96  1  0  0  0
  6 97  1  0  0  0
  7  8  2  0  0  0
  7 26  1  0  0  0
  7 29  1  0  0  0
  8  9  1  0  0  0
  8 22  1  0  0  0
  9 10  1  0  0  0
  9 27  2  0  0  0
 10 11  2  0  0  0
 10 15  1  0  0  0
 11 12  1  0  0  0
 11 98  1  0  0  0
 12 13  2  0  0  0
 12 99  1  0  0  0
 13 14  1  0  0  0
 13 31  1  0  0  0
 14 15  2  0  0  0
 14100  1  0  0  0
 15101  1  0  0  0
 16 17  2  0  0  0
 16 21  1  0  0  0
 16 31  1  0  0  0
 17 18  1  0  0  0
 17102  1  0  0  0
 18 19  2  0  0  0
 18103  1  0  0  0
 19 20  1  0  0  0
 19 24  1  0  0  0
 20 21  2  0  0  0
 20104  1  0  0  0
 21 23  1  0  0  0
 22 28  1  0  0  0
 22 32  2  0  0  0
 26 27  1  0  0  0
 28105  1  0  0  0
 28106  1  0  0  0
 29107  1  0  0  0
 29108  1  0  0  0
 33 34  1  0  0  0
 33 66  1  0  0  0
 33 70  2  0  0  0
 34 36  1  0  0  0
 34 59  1  0  0  0
 34109  1  0  0  0
 35 44  2  0  0  0
 35 45  1  0  0  0
 35 68  1  0  0  0
 36 56  1  0  0  0
 36110  1  0  0  0
 37 39  1  0  0  0
 37 47  1  0  0  0
 37 66  1  0  0  0
 37111  1  0  0  0
 38 43  2  0  0  0
 38 46  1  0  0  0
 38 47  1  0  0  0
 39 64  1  0  0  0
 39 67  2  0  0  0
 40 52  1  0  0  0
 40 53  2  0  0  0
 40 58  1  0  0  0
 41112  1  0  0  0
 41113  1  0  0  0
 41114  1  0  0  0
 41 48  1  0  0  0
 42 43  1  0  0  0
 42 66  1  0  0  0
 42115  1  0  0  0
 42116  1  0  0  0
 43 44  1  0  0  0
 44117  1  0  0  0
 45 46  2  0  0  0
 45118  1  0  0  0
 46119  1  0  0  0
 47120  1  0  0  0
 47121  1  0  0  0
 48 56  1  0  0  0
 48 65  1  0  0  0
 48122  1  0  0  0
 49 50  1  0  0  0
 49 53  1  0  0  0
 49 64  1  0  0  0
 49123  1  0  0  0
 50 51  1  0  0  0
 50124  1  0  0  0
 50125  1  0  0  0
 51 52  1  0  0  0
 51126  1  0  0  0
 51127  1  0  0  0
 52128  1  0  0  0
 52129  1  0  0  0
 53 54  1  0  0  0
 54 55  2  0  0  0
 54130  1  0  0  0
 55 57  1  0  0  0
 55131  1  0  0  0
 56 69  2  0  0  0
 57 58  2  0  0  0
 57132  1  0  0  0
 58133  1  0  0  0
 59 60  1  0  0  0
 59 61  1  0  0  0
 59 62  1  0  0  0
 60134  1  0  0  0
 60135  1  0  0  0
 60136  1  0  0  0
 61137  1  0  0  0
 61138  1  0  0  0
 61139  1  0  0  0
 62140  1  0  0  0
 62141  1  0  0  0
 62142  1  0  0  0
 63 65  1  0  0  0
 63143  1  0  0  0
 63144  1  0  0  0
 63145  1  0  0  0
 64146  1  0  0  0
 65147  1  0  0  0
 68 82  1  0  0  0
 71 73  1  0  0  0
 71 83  1  0  0  0
 71 87  2  0  0  0
 72 85  1  0  0  0
 72 86  1  0  0  0
 72 88  2  0  0  0
 73 78  1  0  0  0
 73148  1  0  0  0
 73149  1  0  0  0
 74 75  1  0  0  0
 74 76  1  0  0  0
 74150  1  0  0  0
 74151  1  0  0  0
 75 79  1  0  0  0
 75152  1  0  0  0
 75153  1  0  0  0
 76 80  1  0  0  0
 76154  1  0  0  0
 76155  1  0  0  0
 77 81  1  0  0  0
 77 82  1  0  0  0
 77156  1  0  0  0
 77157  1  0  0  0
 78 84  1  0  0  0
 78158  1  0  0  0
 78159  1  0  0  0
 79 83  1  0  0  0
 79160  1  0  0  0
 79161  1  0  0  0
 80 85  1  0  0  0
 80162  1  0  0  0
 80163  1  0  0  0
 81 86  1  0  0  0
 81164  1  0  0  0
 81165  1  0  0  0
 82166  1  0  0  0
 82167  1  0  0  0
 83168  1  0  0  0
 84169  1  0  0  0
 85170  1  0  0  0
 86171  1  0  0  0
M  ISO  4   1 100  68 101  82 101  84 100
M  END
> <chiral flag>
0

> <version>
0

> <s_m_source_file>
/data/baiqing/PycharmProjects/Reinvent-master-3.2/result/LINK_invent/BTK/process_docking_weight1_custom_sum_contain_oxygen_bond_distance_aromatic_linkinvent_7_9_3/rearranged_h_0003.sdf

> <i_m_source_file_index>
28

> <r_mmod_Potential_Energy-OPLS-2005>
-260.050445556641

> <r_mmod_Stretch_Energy-OPLS-2005>
33.5798988342285

> <r_mmod_Bend_Energy-OPLS-2005>
103.605583190918

> <r_mmod_Torsional_Energy-OPLS-2005>
252.279266357422

> <r_mmod_Improper_Torsional_Energy-OPLS-2005>
4.31658363342285

> <r_mmod_Van_der_Waal_Energy-OPLS-2005>
133.266159057617

> <r_mmod_Electrostatic_Energy-OPLS-2005>
-515.275817871094

> <r_mmod_Solvation_Energy-OPLS-2005>
-283.864685058594

> <b_mmod_Minimization_Converged-OPLS-2005>
0

> <r_mmod_RMS_Derivative-OPLS-2005>
4.41687631607056

$$$$
29
                    3D
 Structure written by MMmdl.
151159  0  0  1  0            999 V2000
  -30.5026  -14.9381   20.4237 C   0  0  0  0  0  0
  -30.4588  -12.5787   19.4988 C   0  0  0  0  0  0
  -29.5333  -12.5236   18.2593 C   0  0  0  0  0  0
  -28.0661  -12.3043   18.6730 C   0  0  0  0  0  0
  -27.6389  -13.2349   19.8377 C   0  0  2  0  0  0
  -28.6784  -13.2407   20.9794 C   0  0  0  0  0  0
  -25.2540  -13.8200   20.5669 C   0  0  0  0  0  0
  -24.1837  -13.0455   20.9213 C   0  0  0  0  0  0
  -24.6423  -11.6921   20.8752 C   0  0  0  0  0  0
  -23.9081  -10.4307   21.0412 C   0  0  0  0  0  0
  -24.3640   -9.4228   21.9180 C   0  0  0  0  0  0
  -23.6320   -8.2259   22.0759 C   0  0  0  0  0  0
  -22.4298   -8.0296   21.3559 C   0  0  0  0  0  0
  -21.9914   -9.0277   20.4663 C   0  0  0  0  0  0
  -22.7246  -10.2150   20.3065 C   0  0  0  0  0  0
  -21.6861   -6.0744   22.5290 C   0  0  0  0  0  0
  -21.4025   -6.5644   23.8231 C   0  0  0  0  0  0
  -21.3662   -5.6789   24.9184 C   0  0  0  0  0  0
  -21.6036   -4.3053   24.7231 C   0  0  0  0  0  0
  -21.8820   -3.8154   23.4356 C   0  0  0  0  0  0
  -21.9208   -4.6971   22.3416 C   0  0  0  0  0  0
  -22.7855  -13.5249   21.1857 C   0  0  0  0  0  0
  -22.1659   -4.2158   21.0990 F   0  0  0  0  0  0
  -21.5637   -3.4533   25.7745 F   0  0  0  0  0  0
  -29.9622  -13.6555   20.3963 N   0  0  0  0  0  0
  -26.2941  -12.9395   20.3203 N   0  0  0  0  0  0
  -25.9350  -11.6543   20.5732 N   0  0  0  0  0  0
  -22.0483  -12.8262   22.0419 N   0  0  0  0  0  0
  -25.4226  -15.1925   20.4061 N   0  0  0  0  0  0
  -31.6914  -15.0764   20.1098 O   0  0  0  0  0  0
  -21.6662   -6.8891   21.4246 O   0  0  0  0  0  0
  -22.3530  -14.5528   20.6662 O   0  0  0  0  0  0
  -24.6412  -31.8508   23.1921 C   0  0  0  0  0  0
  -25.9193  -32.4753   23.8312 C   0  0  1  0  0  0
  -27.2120  -27.1631   20.1421 C   0  0  0  0  0  0
  -25.5956  -33.8555   24.2225 N   0  0  0  0  0  0
  -23.4430  -30.4750   21.5351 C   0  0  2  0  0  0
  -24.8905  -28.9045   20.1144 C   0  0  0  0  0  0
  -22.7553  -29.4607   22.4836 C   0  0  0  0  0  0
  -18.0312  -28.1392   22.8484 C   0  0  0  0  0  0
  -24.1485  -36.7279   23.2627 C   0  0  0  0  0  0
  -25.9992  -30.7297   21.3898 C   0  0  0  0  0  0
  -26.0687  -29.3443   20.7305 C   0  0  0  0  0  0
  -27.2330  -28.4896   20.7278 C   0  0  0  0  0  0
  -26.0089  -26.8239   19.4838 C   0  0  0  0  0  0
  -24.8697  -27.6550   19.4810 C   0  0  0  0  0  0
  -23.6705  -29.8107   20.1531 C   0  0  0  0  0  0
  -25.4114  -36.3077   24.0321 C   0  0  1  0  0  0
  -20.5933  -28.3737   23.1189 C   0  0  2  0  0  0
  -20.6797  -26.9435   22.5361 C   0  0  0  0  0  0
  -19.5753  -26.6373   21.5201 C   0  0  0  0  0  0
  -18.1951  -26.7919   22.1646 C   0  0  0  0  0  0
  -19.1575  -28.8879   23.2840 C   0  0  0  0  0  0
  -18.9496  -30.1475   23.8872 C   0  0  0  0  0  0
  -17.6492  -30.6588   24.0559 C   0  0  0  0  0  0
  -25.9078  -34.9452   23.5079 C   0  0  0  0  0  0
  -16.5378  -29.9087   23.6328 C   0  0  0  0  0  0
  -16.7296  -28.6503   23.0347 C   0  0  0  0  0  0
  -26.4500  -31.6622   25.0756 C   0  0  0  0  0  0
  -25.3684  -31.3873   26.1472 C   0  0  0  0  0  0
  -27.0325  -30.2989   24.6377 C   0  0  0  0  0  0
  -27.6048  -32.4362   25.7520 C   0  0  0  0  0  0
  -27.5581  -37.1794   24.8466 C   0  0  0  0  0  0
  -21.4248  -29.3087   22.3576 N   0  0  0  0  0  0
  -26.4285  -37.3783   23.9425 N   0  0  0  0  0  0
  -24.7143  -31.0393   22.0947 N   0  0  0  0  0  0
  -23.4206  -28.8122   23.2953 O   0  0  0  0  0  0
  -28.2721  -26.1909   20.1726 O   0  0  0  0  0  0
  -26.5645  -34.8937   22.4650 O   0  0  0  0  0  0
  -23.5528  -32.1371   23.7146 O   0  0  0  0  0  0
  -30.4064  -18.5454   20.0037 C   0  0  0  0  0  0
  -28.3598  -18.1733   21.1062 C   0  0  0  0  0  0
  -30.1213  -19.9901   19.9757 C   0  0  0  0  0  0
  -28.0859  -19.5897   21.0799 C   0  0  0  0  0  0
  -29.5299  -17.5481   20.5768 C   0  0  0  0  0  0
  -28.9311  -20.5974   20.5239 C   0  0  0  0  0  0
  -30.3194  -23.6102   20.8057 C   0  0  0  0  0  0
  -27.9721  -24.6837   20.3926 C   0  0  0  0  0  0
  -28.9602  -23.3478   20.1481 C   0  0  2  0  0  0
  -29.6193  -16.0184   20.6551 N   0  0  0  0  0  0
  -28.4527  -21.9800   20.6174 O   0  0  0  0  0  0
  -31.4880  -12.7609   19.1871 H   0  0  0  0  0  0
  -30.4672  -11.6215   20.0236 H   0  0  0  0  0  0
  -29.8577  -11.7285   17.5868 H   0  0  0  0  0  0
  -29.6183  -13.4554   17.6978 H   0  0  0  0  0  0
  -27.9677  -11.2622   18.9802 H   0  0  0  0  0  0
  -27.4049  -12.4300   17.8150 H   0  0  0  0  0  0
  -27.6066  -14.2390   19.4142 H   0  0  0  0  0  0
  -28.7638  -12.2601   21.4461 H   0  0  0  0  0  0
  -28.3702  -13.9297   21.7673 H   0  0  0  0  0  0
  -25.2797   -9.5708   22.4742 H   0  0  0  0  0  0
  -24.0058   -7.4644   22.7461 H   0  0  0  0  0  0
  -21.0845   -8.8779   19.8972 H   0  0  0  0  0  0
  -22.3702  -10.9683   19.6177 H   0  0  0  0  0  0
  -21.1998   -7.6155   23.9728 H   0  0  0  0  0  0
  -21.1476   -6.0525   25.9083 H   0  0  0  0  0  0
  -22.0596   -2.7619   23.2857 H   0  0  0  0  0  0
  -22.4083  -11.9969   22.4903 H   0  0  0  0  0  0
  -21.1091  -13.1294   22.2556 H   0  0  0  0  0  0
  -24.6482  -15.8387   20.5096 H   0  0  0  0  0  0
  -26.2556  -15.6315   20.0363 H   0  0  0  0  0  0
  -26.7270  -32.5355   23.1053 H   0  0  0  0  0  0
  -25.0095  -33.9700   25.0366 H   0  0  0  0  0  0
  -22.7471  -31.3032   21.3833 H   0  0  0  0  0  0
  -23.3783  -35.9578   23.3263 H   0  0  0  0  0  0
  -24.3568  -36.8932   22.2048 H   0  0  0  0  0  0
  -23.7212  -37.6454   23.6674 H   0  0  0  0  0  0
  -26.1587  -31.4855   20.6195 H   0  0  0  0  0  0
  -26.8682  -30.7749   22.0339 H   0  0  0  0  0  0
  -28.1316  -28.8256   21.2247 H   0  0  0  0  0  0
  -25.9102  -25.8852   18.9618 H   0  0  0  0  0  0
  -23.9686  -27.3141   18.9912 H   0  0  0  0  0  0
  -23.8217  -30.5908   19.4056 H   0  0  0  0  0  0
  -22.7833  -29.2629   19.8319 H   0  0  0  0  0  0
  -25.1303  -36.1908   25.0814 H   0  0  0  0  0  0
  -21.0051  -28.3321   24.1299 H   0  0  0  0  0  0
  -20.5686  -26.2362   23.3597 H   0  0  0  0  0  0
  -21.6657  -26.7429   22.1156 H   0  0  0  0  0  0
  -19.6905  -25.6272   21.1259 H   0  0  0  0  0  0
  -19.6658  -27.3160   20.6710 H   0  0  0  0  0  0
  -17.4196  -26.6639   21.4074 H   0  0  0  0  0  0
  -18.0383  -26.0067   22.9060 H   0  0  0  0  0  0
  -19.7983  -30.7300   24.2207 H   0  0  0  0  0  0
  -17.5056  -31.6270   24.5159 H   0  0  0  0  0  0
  -15.5382  -30.2987   23.7661 H   0  0  0  0  0  0
  -15.8699  -28.0823   22.7048 H   0  0  0  0  0  0
  -24.5714  -30.7428   25.7766 H   0  0  0  0  0  0
  -24.9081  -32.3113   26.4976 H   0  0  0  0  0  0
  -25.7911  -30.8903   27.0214 H   0  0  0  0  0  0
  -26.2945  -29.6733   24.1349 H   0  0  0  0  0  0
  -27.3837  -29.7296   25.4997 H   0  0  0  0  0  0
  -27.8915  -30.4181   23.9774 H   0  0  0  0  0  0
  -27.2649  -33.3623   26.2166 H   0  0  0  0  0  0
  -28.3819  -32.6993   25.0335 H   0  0  0  0  0  0
  -28.0788  -31.8472   26.5383 H   0  0  0  0  0  0
  -28.2599  -38.0083   24.7515 H   0  0  0  0  0  0
  -28.1073  -36.2623   24.6289 H   0  0  0  0  0  0
  -27.2303  -37.1448   25.8864 H   0  0  0  0  0  0
  -20.9427  -29.8857   21.6835 H   0  0  0  0  0  0
  -26.0165  -38.2855   24.1422 H   0  0  0  0  0  0
  -31.3285  -18.2063   19.5545 H   0  0  0  0  0  0
  -27.6072  -17.5473   21.5664 H   0  0  0  0  0  0
  -30.8519  -20.6339   19.5091 H   0  0  0  0  0  0
  -27.1541  -19.9185   21.5165 H   0  0  0  0  0  0
  -30.6986  -24.5919   20.5181 H   0  0  0  0  0  0
  -31.0593  -22.8658   20.5077 H   0  0  0  0  0  0
  -30.2353  -23.6041   21.8916 H   0  0  0  0  0  0
  -27.6833  -24.6395   21.4431 H   0  0  0  0  0  0
  -27.0579  -24.4266   19.8642 H   0  0  0  0  0  0
  -29.1159  -23.2629   19.0733 H   0  0  0  0  0  0
  -28.7355  -15.6271   20.9408 H   0  0  0  0  0  0
  1 25  1  0  0  0
  1 30  2  0  0  0
  1 80  1  0  0  0
  2  3  1  0  0  0
  2 25  1  0  0  0
  2 82  1  0  0  0
  2 83  1  0  0  0
  3  4  1  0  0  0
  3 84  1  0  0  0
  3 85  1  0  0  0
  4  5  1  0  0  0
  4 86  1  0  0  0
  4 87  1  0  0  0
  5  6  1  0  0  0
  5 26  1  0  0  0
  5 88  1  0  0  0
  6 25  1  0  0  0
  6 89  1  0  0  0
  6 90  1  0  0  0
  7  8  2  0  0  0
  7 26  1  0  0  0
  7 29  1  0  0  0
  8  9  1  0  0  0
  8 22  1  0  0  0
  9 10  1  0  0  0
  9 27  2  0  0  0
 10 11  2  0  0  0
 10 15  1  0  0  0
 11 12  1  0  0  0
 11 91  1  0  0  0
 12 13  2  0  0  0
 12 92  1  0  0  0
 13 14  1  0  0  0
 13 31  1  0  0  0
 14 15  2  0  0  0
 14 93  1  0  0  0
 15 94  1  0  0  0
 16 17  2  0  0  0
 16 21  1  0  0  0
 16 31  1  0  0  0
 17 18  1  0  0  0
 17 95  1  0  0  0
 18 19  2  0  0  0
 18 96  1  0  0  0
 19 20  1  0  0  0
 19 24  1  0  0  0
 20 21  2  0  0  0
 20 97  1  0  0  0
 21 23  1  0  0  0
 22 28  1  0  0  0
 22 32  2  0  0  0
 26 27  1  0  0  0
 28 98  1  0  0  0
 28 99  1  0  0  0
 29100  1  0  0  0
 29101  1  0  0  0
 33 34  1  0  0  0
 33 66  1  0  0  0
 33 70  2  0  0  0
 34 36  1  0  0  0
 34 59  1  0  0  0
 34102  1  0  0  0
 35 44  2  0  0  0
 35 45  1  0  0  0
 35 68  1  0  0  0
 36 56  1  0  0  0
 36103  1  0  0  0
 37 39  1  0  0  0
 37 47  1  0  0  0
 37 66  1  0  0  0
 37104  1  0  0  0
 38 43  2  0  0  0
 38 46  1  0  0  0
 38 47  1  0  0  0
 39 64  1  0  0  0
 39 67  2  0  0  0
 40 52  1  0  0  0
 40 53  2  0  0  0
 40 58  1  0  0  0
 41105  1  0  0  0
 41106  1  0  0  0
 41107  1  0  0  0
 41 48  1  0  0  0
 42 43  1  0  0  0
 42 66  1  0  0  0
 42108  1  0  0  0
 42109  1  0  0  0
 43 44  1  0  0  0
 44110  1  0  0  0
 45 46  2  0  0  0
 45111  1  0  0  0
 46112  1  0  0  0
 47113  1  0  0  0
 47114  1  0  0  0
 48 56  1  0  0  0
 48 65  1  0  0  0
 48115  1  0  0  0
 49 50  1  0  0  0
 49 53  1  0  0  0
 49 64  1  0  0  0
 49116  1  0  0  0
 50 51  1  0  0  0
 50117  1  0  0  0
 50118  1  0  0  0
 51 52  1  0  0  0
 51119  1  0  0  0
 51120  1  0  0  0
 52121  1  0  0  0
 52122  1  0  0  0
 53 54  1  0  0  0
 54 55  2  0  0  0
 54123  1  0  0  0
 55 57  1  0  0  0
 55124  1  0  0  0
 56 69  2  0  0  0
 57 58  2  0  0  0
 57125  1  0  0  0
 58126  1  0  0  0
 59 60  1  0  0  0
 59 61  1  0  0  0
 59 62  1  0  0  0
 60127  1  0  0  0
 60128  1  0  0  0
 60129  1  0  0  0
 61130  1  0  0  0
 61131  1  0  0  0
 61132  1  0  0  0
 62133  1  0  0  0
 62134  1  0  0  0
 62135  1  0  0  0
 63 65  1  0  0  0
 63136  1  0  0  0
 63137  1  0  0  0
 63138  1  0  0  0
 64139  1  0  0  0
 65140  1  0  0  0
 68 78  1  0  0  0
 71 73  2  0  0  0
 71 75  1  0  0  0
 71141  1  0  0  0
 72 74  1  0  0  0
 72 75  2  0  0  0
 72142  1  0  0  0
 73 76  1  0  0  0
 73143  1  0  0  0
 74 76  2  0  0  0
 74144  1  0  0  0
 75 80  1  0  0  0
 76 81  1  0  0  0
 77145  1  0  0  0
 77146  1  0  0  0
 77147  1  0  0  0
 77 79  1  0  0  0
 78 79  1  0  0  0
 78148  1  0  0  0
 78149  1  0  0  0
 79 81  1  0  0  0
 79150  1  0  0  0
 80151  1  0  0  0
M  ISO  4   1 100  68 101  78 101  80 100
M  END
> <chiral flag>
0

> <version>
0

> <s_m_source_file>
/data/baiqing/PycharmProjects/Reinvent-master-3.2/result/LINK_invent/BTK/process_docking_weight1_custom_sum_contain_oxygen_bond_distance_aromatic_linkinvent_7_9_3/rearranged_h_0003.sdf

> <i_m_source_file_index>
29

> <r_mmod_Potential_Energy-OPLS-2005>
457.083160400391

> <r_mmod_Stretch_Energy-OPLS-2005>
214.078521728516

> <r_mmod_Bend_Energy-OPLS-2005>
305.087768554688

> <r_mmod_Torsional_Energy-OPLS-2005>
216.147827148438

> <r_mmod_Improper_Torsional_Energy-OPLS-2005>
3.63987827301025

> <r_mmod_Van_der_Waal_Energy-OPLS-2005>
129.214950561523

> <r_mmod_Electrostatic_Energy-OPLS-2005>
-381.34423828125

> <r_mmod_Solvation_Energy-OPLS-2005>
-210.081207275391

> <b_mmod_Minimization_Converged-OPLS-2005>
0

> <r_mmod_RMS_Derivative-OPLS-2005>
2.98100543022156

$$$$
30
                    3D
 Structure written by MMmdl.
179187  0  0  1  0            999 V2000
  -30.7331  -14.4979   20.6062 C   0  0  0  0  0  0
  -30.4447  -12.3357   19.4346 C   0  0  0  0  0  0
  -29.5209  -12.5006   18.2120 C   0  0  0  0  0  0
  -28.0332  -12.3904   18.6103 C   0  0  0  0  0  0
  -27.6647  -13.2269   19.8672 C   0  0  2  0  0  0
  -28.7101  -13.0164   20.9829 C   0  0  0  0  0  0
  -25.2569  -13.8188   20.5664 C   0  0  0  0  0  0
  -24.1852  -13.0416   20.9145 C   0  0  0  0  0  0
  -24.6463  -11.6897   20.8732 C   0  0  0  0  0  0
  -23.9113  -10.4274   21.0358 C   0  0  0  0  0  0
  -24.3637   -9.4173   21.9145 C   0  0  0  0  0  0
  -23.6290   -8.2213   22.0716 C   0  0  0  0  0  0
  -22.4287   -8.0250   21.3497 C   0  0  0  0  0  0
  -21.9935   -9.0230   20.4615 C   0  0  0  0  0  0
  -22.7276  -10.2091   20.3017 C   0  0  0  0  0  0
  -21.6858   -6.0688   22.5257 C   0  0  0  0  0  0
  -21.4054   -6.5593   23.8190 C   0  0  0  0  0  0
  -21.3711   -5.6753   24.9166 C   0  0  0  0  0  0
  -21.6062   -4.3009   24.7219 C   0  0  0  0  0  0
  -21.8818   -3.8089   23.4334 C   0  0  0  0  0  0
  -21.9177   -4.6916   22.3385 C   0  0  0  0  0  0
  -22.7832  -13.5175   21.1708 C   0  0  0  0  0  0
  -22.1605   -4.2091   21.0958 F   0  0  0  0  0  0
  -21.5654   -3.4505   25.7731 F   0  0  0  0  0  0
  -30.0403  -13.3332   20.4403 N   0  0  0  0  0  0
  -26.3065  -12.9416   20.3326 N   0  0  0  0  0  0
  -25.9416  -11.6547   20.5776 N   0  0  0  0  0  0
  -22.0414  -12.8260   22.0309 N   0  0  0  0  0  0
  -25.4217  -15.1908   20.4139 N   0  0  0  0  0  0
  -31.8841  -14.6359   20.1754 O   0  0  0  0  0  0
  -21.6626   -6.8840   21.4227 O   0  0  0  0  0  0
  -22.3492  -14.5411   20.6442 O   0  0  0  0  0  0
  -24.6172  -31.8648   23.2099 C   0  0  0  0  0  0
  -25.9080  -32.4805   23.8374 C   0  0  1  0  0  0
  -27.2406  -27.4528   20.0648 C   0  0  0  0  0  0
  -25.5963  -33.8604   24.2350 N   0  0  0  0  0  0
  -23.4050  -30.4868   21.5513 C   0  0  2  0  0  0
  -24.8441  -28.9505   20.1208 C   0  0  0  0  0  0
  -22.7413  -29.4634   22.5013 C   0  0  0  0  0  0
  -18.0243  -28.1358   22.8454 C   0  0  0  0  0  0
  -24.1495  -36.7283   23.2636 C   0  0  0  0  0  0
  -25.9333  -30.8255   21.3686 C   0  0  0  0  0  0
  -26.0036  -29.4633   20.7147 C   0  0  0  0  0  0
  -27.1992  -28.7167   20.6906 C   0  0  0  0  0  0
  -26.0533  -26.9394   19.4897 C   0  0  0  0  0  0
  -24.8605  -27.6845   19.5141 C   0  0  0  0  0  0
  -23.6097  -29.8173   20.1676 C   0  0  0  0  0  0
  -25.4126  -36.3112   24.0332 C   0  0  1  0  0  0
  -20.5842  -28.3663   23.1313 C   0  0  2  0  0  0
  -20.6768  -26.9404   22.5417 C   0  0  0  0  0  0
  -19.5755  -26.6380   21.5191 C   0  0  0  0  0  0
  -18.1923  -26.7925   22.1581 C   0  0  0  0  0  0
  -19.1514  -28.8821   23.2878 C   0  0  0  0  0  0
  -18.9459  -30.1414   23.8891 C   0  0  0  0  0  0
  -17.6459  -30.6590   24.0521 C   0  0  0  0  0  0
  -25.9053  -34.9474   23.5119 C   0  0  0  0  0  0
  -16.5325  -29.9072   23.6319 C   0  0  0  0  0  0
  -16.7246  -28.6490   23.0363 C   0  0  0  0  0  0
  -26.4486  -31.6595   25.0732 C   0  0  0  0  0  0
  -25.3757  -31.3669   26.1484 C   0  0  0  0  0  0
  -27.0311  -30.3033   24.6130 C   0  0  0  0  0  0
  -27.6094  -32.4273   25.7496 C   0  0  0  0  0  0
  -27.5567  -37.1804   24.8465 C   0  0  0  0  0  0
  -21.4150  -29.3011   22.3734 N   0  0  0  0  0  0
  -26.4296  -37.3816   23.9402 N   0  0  0  0  0  0
  -24.6706  -31.0751   22.1027 N   0  0  0  0  0  0
  -23.4194  -28.8198   23.3069 O   0  0  0  0  0  0
  -28.4528  -26.7942   20.0552 O   0  0  0  0  0  0
  -26.5562  -34.8922   22.4665 O   0  0  0  0  0  0
  -23.5362  -32.1380   23.7510 O   0  0  0  0  0  0
  -26.3287  -22.3872   17.0931 C   0  0  0  0  0  0
  -26.9648  -21.1795   16.7461 C   0  0  0  0  0  0
  -27.0833  -23.5665   17.2319 C   0  0  0  0  0  0
  -29.1036  -22.3383   16.6653 C   0  0  0  0  0  0
  -28.3565  -21.1545   16.5087 C   0  0  0  0  0  0
  -28.4865  -23.5437   17.0426 C   0  0  0  0  0  0
  -31.3500  -19.6940   17.0301 C   0  0  0  0  0  0
  -31.2314  -17.1295   22.5559 C   0  0  0  0  0  0
  -28.7363  -17.1521   22.4972 C   0  0  0  0  0  0
  -29.9581  -15.2161   23.4673 C   0  0  0  0  0  0
  -29.0083  -19.8646   16.0267 C   0  0  0  0  0  0
  -30.9394  -19.9352   18.4937 C   0  0  0  0  0  0
  -30.0064  -18.8825   19.1352 C   0  0  0  0  0  0
  -30.5773  -17.4553   19.2084 C   0  0  0  0  0  0
  -29.5619  -16.4296   19.7812 C   0  0  0  0  0  0
  -28.5987  -25.5752   19.3338 C   0  0  0  0  0  0
  -28.8312  -25.8088   17.8219 C   0  0  0  0  0  0
  -29.9803  -16.2484   22.3082 C   0  0  0  0  0  0
  -30.4729  -19.8116   16.0219 N   0  0  0  0  0  0
  -30.0039  -15.6021   20.9443 N   0  0  0  0  0  0
  -32.5337  -19.4701   16.7817 O   0  0  0  0  0  0
  -29.3214  -24.6318   17.1850 O   0  0  0  0  0  0
  -31.4871  -12.4457   19.1285 H   0  0  0  0  0  0
  -30.3720  -11.3306   19.8527 H   0  0  0  0  0  0
  -29.7592  -11.7355   17.4694 H   0  0  0  0  0  0
  -29.7186  -13.4616   17.7353 H   0  0  0  0  0  0
  -27.8282  -11.3378   18.8029 H   0  0  0  0  0  0
  -27.4001  -12.6756   17.7702 H   0  0  0  0  0  0
  -27.6963  -14.2757   19.5800 H   0  0  0  0  0  0
  -28.6934  -11.9831   21.3220 H   0  0  0  0  0  0
  -28.4598  -13.6239   21.8454 H   0  0  0  0  0  0
  -25.2774   -9.5601   22.4726 H   0  0  0  0  0  0
  -23.9942   -7.4628   22.7493 H   0  0  0  0  0  0
  -21.0809   -8.8782   19.8986 H   0  0  0  0  0  0
  -22.3727  -10.9607   19.6113 H   0  0  0  0  0  0
  -21.2073   -7.6109   23.9679 H   0  0  0  0  0  0
  -21.1548   -6.0476   25.9063 H   0  0  0  0  0  0
  -22.0566   -2.7542   23.2831 H   0  0  0  0  0  0
  -22.4039  -12.0059   22.4951 H   0  0  0  0  0  0
  -21.0983  -13.1256   22.2314 H   0  0  0  0  0  0
  -24.6487  -15.8373   20.5255 H   0  0  0  0  0  0
  -26.2885  -15.6385   20.1491 H   0  0  0  0  0  0
  -26.7181  -32.5474   23.1149 H   0  0  0  0  0  0
  -25.0259  -33.9764   25.0581 H   0  0  0  0  0  0
  -22.6962  -31.3049   21.4119 H   0  0  0  0  0  0
  -23.3762  -35.9603   23.3325 H   0  0  0  0  0  0
  -24.3605  -36.8859   22.2047 H   0  0  0  0  0  0
  -23.7242  -37.6500   23.6614 H   0  0  0  0  0  0
  -26.0674  -31.5879   20.6037 H   0  0  0  0  0  0
  -26.8152  -30.8598   22.0004 H   0  0  0  0  0  0
  -28.1037  -29.1069   21.1381 H   0  0  0  0  0  0
  -26.0108  -25.9733   19.0138 H   0  0  0  0  0  0
  -23.9655  -27.2822   19.0613 H   0  0  0  0  0  0
  -23.7311  -30.5848   19.4033 H   0  0  0  0  0  0
  -22.7342  -29.2383   19.8674 H   0  0  0  0  0  0
  -25.1321  -36.1969   25.0813 H   0  0  0  0  0  0
  -20.9866  -28.3217   24.1455 H   0  0  0  0  0  0
  -20.5707  -26.2241   23.3584 H   0  0  0  0  0  0
  -21.6647  -26.7494   22.1187 H   0  0  0  0  0  0
  -19.6957  -25.6307   21.1205 H   0  0  0  0  0  0
  -19.6737  -27.3192   20.6721 H   0  0  0  0  0  0
  -17.4209  -26.6613   21.3959 H   0  0  0  0  0  0
  -18.0340  -26.0071   22.8978 H   0  0  0  0  0  0
  -19.7940  -30.7188   24.2308 H   0  0  0  0  0  0
  -17.5034  -31.6273   24.5111 H   0  0  0  0  0  0
  -15.5347  -30.2963   23.7718 H   0  0  0  0  0  0
  -15.8616  -28.0783   22.7146 H   0  0  0  0  0  0
  -24.5987  -30.6962   25.7803 H   0  0  0  0  0  0
  -24.8874  -32.2781   26.4919 H   0  0  0  0  0  0
  -25.8123  -30.8864   27.0247 H   0  0  0  0  0  0
  -26.2851  -29.6834   24.1153 H   0  0  0  0  0  0
  -27.4035  -29.7266   25.4598 H   0  0  0  0  0  0
  -27.8716  -30.4355   23.9329 H   0  0  0  0  0  0
  -27.2787  -33.3586   26.2096 H   0  0  0  0  0  0
  -28.3906  -32.6774   25.0314 H   0  0  0  0  0  0
  -28.0754  -31.8357   26.5391 H   0  0  0  0  0  0
  -28.2622  -38.0073   24.7513 H   0  0  0  0  0  0
  -28.1031  -36.2603   24.6307 H   0  0  0  0  0  0
  -27.2254  -37.1463   25.8862 H   0  0  0  0  0  0
  -20.9361  -29.8706   21.6901 H   0  0  0  0  0  0
  -26.0172  -38.2886   24.1412 H   0  0  0  0  0  0
  -25.2585  -22.4075   17.2471 H   0  0  0  0  0  0
  -26.3703  -20.2803   16.6461 H   0  0  0  0  0  0
  -26.5550  -24.4749   17.4822 H   0  0  0  0  0  0
  -30.1691  -22.3331   16.4947 H   0  0  0  0  0  0
  -31.1784  -17.6101   23.5385 H   0  0  0  0  0  0
  -31.3287  -17.9490   21.8484 H   0  0  0  0  0  0
  -32.1537  -16.5441   22.5416 H   0  0  0  0  0  0
  -27.8037  -16.6245   22.3050 H   0  0  0  0  0  0
  -28.7543  -18.0258   21.8472 H   0  0  0  0  0  0
  -28.6826  -17.5424   23.5140 H   0  0  0  0  0  0
  -30.1582  -15.7069   24.4229 H   0  0  0  0  0  0
  -30.7079  -14.4287   23.3745 H   0  0  0  0  0  0
  -28.9815  -14.7531   23.5958 H   0  0  0  0  0  0
  -28.7078  -19.7694   14.9828 H   0  0  0  0  0  0
  -28.5751  -19.0006   16.5318 H   0  0  0  0  0  0
  -30.5101  -20.9322   18.5687 H   0  0  0  0  0  0
  -31.8493  -19.9779   19.0970 H   0  0  0  0  0  0
  -29.0497  -18.8729   18.6216 H   0  0  0  0  0  0
  -29.7792  -19.2278   20.1447 H   0  0  0  0  0  0
  -31.5228  -17.4549   19.7487 H   0  0  0  0  0  0
  -30.8357  -17.1450   18.1934 H   0  0  0  0  0  0
  -29.3421  -15.7592   18.9479 H   0  0  0  0  0  0
  -28.5920  -16.8941   19.9633 H   0  0  0  0  0  0
  -29.4779  -25.0822   19.7484 H   0  0  0  0  0  0
  -27.7762  -24.8894   19.5316 H   0  0  0  0  0  0
  -29.6061  -26.5643   17.6893 H   0  0  0  0  0  0
  -27.9541  -26.1973   17.3094 H   0  0  0  0  0  0
  -30.8796  -19.7327   15.0995 H   0  0  0  0  0  0
  1 25  1  0  0  0
  1 30  2  0  0  0
  1 90  1  0  0  0
  2  3  1  0  0  0
  2 25  1  0  0  0
  2 93  1  0  0  0
  2 94  1  0  0  0
  3  4  1  0  0  0
  3 95  1  0  0  0
  3 96  1  0  0  0
  4  5  1  0  0  0
  4 97  1  0  0  0
  4 98  1  0  0  0
  5  6  1  0  0  0
  5 26  1  0  0  0
  5 99  1  0  0  0
  6 25  1  0  0  0
  6100  1  0  0  0
  6101  1  0  0  0
  7  8  2  0  0  0
  7 26  1  0  0  0
  7 29  1  0  0  0
  8  9  1  0  0  0
  8 22  1  0  0  0
  9 10  1  0  0  0
  9 27  2  0  0  0
 10 11  2  0  0  0
 10 15  1  0  0  0
 11 12  1  0  0  0
 11102  1  0  0  0
 12 13  2  0  0  0
 12103  1  0  0  0
 13 14  1  0  0  0
 13 31  1  0  0  0
 14 15  2  0  0  0
 14104  1  0  0  0
 15105  1  0  0  0
 16 17  2  0  0  0
 16 21  1  0  0  0
 16 31  1  0  0  0
 17 18  1  0  0  0
 17106  1  0  0  0
 18 19  2  0  0  0
 18107  1  0  0  0
 19 20  1  0  0  0
 19 24  1  0  0  0
 20 21  2  0  0  0
 20108  1  0  0  0
 21 23  1  0  0  0
 22 28  1  0  0  0
 22 32  2  0  0  0
 26 27  1  0  0  0
 28109  1  0  0  0
 28110  1  0  0  0
 29111  1  0  0  0
 29112  1  0  0  0
 33 34  1  0  0  0
 33 66  1  0  0  0
 33 70  2  0  0  0
 34 36  1  0  0  0
 34 59  1  0  0  0
 34113  1  0  0  0
 35 44  2  0  0  0
 35 45  1  0  0  0
 35 68  1  0  0  0
 36 56  1  0  0  0
 36114  1  0  0  0
 37 39  1  0  0  0
 37 47  1  0  0  0
 37 66  1  0  0  0
 37115  1  0  0  0
 38 43  2  0  0  0
 38 46  1  0  0  0
 38 47  1  0  0  0
 39 64  1  0  0  0
 39 67  2  0  0  0
 40 52  1  0  0  0
 40 53  2  0  0  0
 40 58  1  0  0  0
 41116  1  0  0  0
 41117  1  0  0  0
 41118  1  0  0  0
 41 48  1  0  0  0
 42 43  1  0  0  0
 42 66  1  0  0  0
 42119  1  0  0  0
 42120  1  0  0  0
 43 44  1  0  0  0
 44121  1  0  0  0
 45 46  2  0  0  0
 45122  1  0  0  0
 46123  1  0  0  0
 47124  1  0  0  0
 47125  1  0  0  0
 48 56  1  0  0  0
 48 65  1  0  0  0
 48126  1  0  0  0
 49 50  1  0  0  0
 49 53  1  0  0  0
 49 64  1  0  0  0
 49127  1  0  0  0
 50 51  1  0  0  0
 50128  1  0  0  0
 50129  1  0  0  0
 51 52  1  0  0  0
 51130  1  0  0  0
 51131  1  0  0  0
 52132  1  0  0  0
 52133  1  0  0  0
 53 54  1  0  0  0
 54 55  2  0  0  0
 54134  1  0  0  0
 55 57  1  0  0  0
 55135  1  0  0  0
 56 69  2  0  0  0
 57 58  2  0  0  0
 57136  1  0  0  0
 58137  1  0  0  0
 59 60  1  0  0  0
 59 61  1  0  0  0
 59 62  1  0  0  0
 60138  1  0  0  0
 60139  1  0  0  0
 60140  1  0  0  0
 61141  1  0  0  0
 61142  1  0  0  0
 61143  1  0  0  0
 62144  1  0  0  0
 62145  1  0  0  0
 62146  1  0  0  0
 63 65  1  0  0  0
 63147  1  0  0  0
 63148  1  0  0  0
 63149  1  0  0  0
 64150  1  0  0  0
 65151  1  0  0  0
 68 86  1  0  0  0
 71 72  2  0  0  0
 71 73  1  0  0  0
 71152  1  0  0  0
 72 75  1  0  0  0
 72153  1  0  0  0
 73 76  2  0  0  0
 73154  1  0  0  0
 74 75  2  0  0  0
 74 76  1  0  0  0
 74155  1  0  0  0
 75 81  1  0  0  0
 76 92  1  0  0  0
 77 82  1  0  0  0
 77 89  1  0  0  0
 77 91  2  0  0  0
 78156  1  0  0  0
 78157  1  0  0  0
 78158  1  0  0  0
 78 88  1  0  0  0
 79 88  1  0  0  0
 79159  1  0  0  0
 79160  1  0  0  0
 79161  1  0  0  0
 80 88  1  0  0  0
 80162  1  0  0  0
 80163  1  0  0  0
 80164  1  0  0  0
 81 89  1  0  0  0
 81165  1  0  0  0
 81166  1  0  0  0
 82 83  1  0  0  0
 82167  1  0  0  0
 82168  1  0  0  0
 83 84  1  0  0  0
 83169  1  0  0  0
 83170  1  0  0  0
 84 85  1  0  0  0
 84171  1  0  0  0
 84172  1  0  0  0
 85 90  1  0  0  0
 85173  1  0  0  0
 85174  1  0  0  0
 86 87  1  0  0  0
 86175  1  0  0  0
 86176  1  0  0  0
 87 92  1  0  0  0
 87177  1  0  0  0
 87178  1  0  0  0
 88 90  1  0  0  0
 89179  1  0  0  0
M  ISO  4   1 100  68 101  86 101  90 100
M  END
> <chiral flag>
0

> <version>
0

> <s_m_source_file>
/data/baiqing/PycharmProjects/Reinvent-master-3.2/result/LINK_invent/BTK/process_docking_weight1_custom_sum_contain_oxygen_bond_distance_aromatic_linkinvent_7_9_3/rearranged_h_0003.sdf

> <i_m_source_file_index>
30

> <r_mmod_Potential_Energy-OPLS-2005>
167.596954345703

> <r_mmod_Stretch_Energy-OPLS-2005>
47.132438659668

> <r_mmod_Bend_Energy-OPLS-2005>
150.830062866211

> <r_mmod_Torsional_Energy-OPLS-2005>
327.550720214844

> <r_mmod_Improper_Torsional_Energy-OPLS-2005>
10.2406311035156

> <r_mmod_Van_der_Waal_Energy-OPLS-2005>
155.570739746094

> <r_mmod_Electrostatic_Energy-OPLS-2005>
-317.560028076172

> <r_mmod_Solvation_Energy-OPLS-2005>
-222.883972167969

> <b_mmod_Minimization_Converged-OPLS-2005>
0

> <r_mmod_RMS_Derivative-OPLS-2005>
7.18634986877441

$$$$
31
                    3D
 Structure written by MMmdl.
219227  0  0  1  0            999 V2000
  -31.1948  -14.0060   20.3529 C   0  0  0  0  0  0
  -30.2810  -12.0002   19.3529 C   0  0  0  0  0  0
  -29.4301  -12.4249   18.1586 C   0  0  0  0  0  0
  -27.9676  -12.4055   18.5956 C   0  0  0  0  0  0
  -27.7064  -13.2434   19.8755 C   0  0  2  0  0  0
  -28.8364  -13.1054   20.9577 C   0  0  0  0  0  0
  -25.2823  -13.8279   20.5812 C   0  0  0  0  0  0
  -24.2039  -13.0488   20.9230 C   0  0  0  0  0  0
  -24.6650  -11.6987   20.8798 C   0  0  0  0  0  0
  -23.9250  -10.4330   21.0410 C   0  0  0  0  0  0
  -24.3721   -9.4211   21.9188 C   0  0  0  0  0  0
  -23.6345   -8.2268   22.0762 C   0  0  0  0  0  0
  -22.4320   -8.0325   21.3544 C   0  0  0  0  0  0
  -22.0010   -9.0329   20.4654 C   0  0  0  0  0  0
  -22.7399  -10.2193   20.3066 C   0  0  0  0  0  0
  -21.6859   -6.0768   22.5265 C   0  0  0  0  0  0
  -21.4020   -6.5670   23.8207 C   0  0  0  0  0  0
  -21.3664   -5.6815   24.9157 C   0  0  0  0  0  0
  -21.6046   -4.3078   24.7215 C   0  0  0  0  0  0
  -21.8816   -3.8174   23.4318 C   0  0  0  0  0  0
  -21.9197   -4.7003   22.3392 C   0  0  0  0  0  0
  -22.8019  -13.5240   21.1788 C   0  0  0  0  0  0
  -22.1664   -4.2177   21.0961 F   0  0  0  0  0  0
  -21.5629   -3.4559   25.7720 F   0  0  0  0  0  0
  -30.2009  -13.0675   20.3552 N   0  0  0  0  0  0
  -26.3447  -12.9570   20.3755 N   0  0  0  0  0  0
  -25.9664  -11.6670   20.6047 N   0  0  0  0  0  0
  -22.0644  -12.8218   22.0343 N   0  0  0  0  0  0
  -25.4428  -15.1970   20.4155 N   0  0  0  0  0  0
  -31.1246  -15.1782   20.6163 O   0  0  0  0  0  0
  -21.6663   -6.8936   21.4236 O   0  0  0  0  0  0
  -22.3664  -14.5509   20.6614 O   0  0  0  0  0  0
  -24.6142  -31.8794   23.2082 C   0  0  0  0  0  0
  -25.9036  -32.4881   23.8386 C   0  0  1  0  0  0
  -27.2249  -27.4755   20.0790 C   0  0  0  0  0  0
  -25.5922  -33.8651   24.2373 N   0  0  0  0  0  0
  -23.3985  -30.5001   21.5653 C   0  0  2  0  0  0
  -24.8300  -28.9658   20.1316 C   0  0  0  0  0  0
  -22.7458  -29.4751   22.5174 C   0  0  0  0  0  0
  -18.0310  -28.1336   22.8511 C   0  0  0  0  0  0
  -24.1524  -36.7303   23.2599 C   0  0  0  0  0  0
  -25.9235  -30.8581   21.3488 C   0  0  0  0  0  0
  -26.0008  -29.4969   20.6917 C   0  0  0  0  0  0
  -27.2062  -28.7638   20.6559 C   0  0  0  0  0  0
  -26.0224  -26.9198   19.6042 C   0  0  0  0  0  0
  -24.8301  -27.6650   19.6079 C   0  0  0  0  0  0
  -23.5885  -29.8266   20.1862 C   0  0  0  0  0  0
  -25.4133  -36.3150   24.0346 C   0  0  1  0  0  0
  -20.5897  -28.3594   23.1217 C   0  0  2  0  0  0
  -20.6919  -26.9449   22.5006 C   0  0  0  0  0  0
  -19.5602  -26.5987   21.5237 C   0  0  0  0  0  0
  -18.1900  -26.7767   22.1820 C   0  0  0  0  0  0
  -19.1571  -28.8779   23.2856 C   0  0  0  0  0  0
  -18.9579  -30.1427   23.8819 C   0  0  0  0  0  0
  -17.6625  -30.6616   24.0548 C   0  0  0  0  0  0
  -25.9073  -34.9516   23.5175 C   0  0  0  0  0  0
  -16.5481  -29.9121   23.6399 C   0  0  0  0  0  0
  -16.7332  -28.6504   23.0408 C   0  0  0  0  0  0
  -26.4443  -31.6596   25.0679 C   0  0  0  0  0  0
  -25.3682  -31.3695   26.1434 C   0  0  0  0  0  0
  -27.0220  -30.3046   24.5974 C   0  0  0  0  0  0
  -27.6090  -32.4277   25.7399 C   0  0  0  0  0  0
  -27.5617  -37.1847   24.8457 C   0  0  0  0  0  0
  -21.4182  -29.3183   22.3933 N   0  0  0  0  0  0
  -26.4327  -37.3841   23.9397 N   0  0  0  0  0  0
  -24.6666  -31.0904   22.0993 N   0  0  0  0  0  0
  -23.4257  -28.8167   23.3088 O   0  0  0  0  0  0
  -28.3768  -26.7310   20.0526 O   0  0  0  0  0  0
  -26.5625  -34.8966   22.4736 O   0  0  0  0  0  0
  -23.5352  -32.1523   23.7506 O   0  0  0  0  0  0
  -29.4882  -16.1237   15.6580 C   0  0  0  0  0  0
  -30.1617  -17.9715   17.0672 C   0  0  0  0  0  0
  -29.4073  -13.2621   13.2865 C   0  0  0  0  0  0
  -30.0366  -13.8785   14.5349 C   0  0  0  0  0  0
  -28.2688  -14.2241   12.9418 C   0  0  0  0  0  0
  -29.8442  -15.3971   14.3497 C   0  0  1  0  0  0
  -21.8204  -27.4820   14.7750 C   0  0  0  0  0  0
  -22.7978  -28.7227   16.7690 C   0  0  0  0  0  0
  -28.7306  -18.2812   17.5539 C   0  0  0  0  0  0
  -28.5461  -19.5700   18.3765 C   0  0  0  0  0  0
  -27.3946  -19.4092   19.3827 C   0  0  0  0  0  0
  -26.7873  -20.7471   19.8355 C   0  0  0  0  0  0
  -25.2928  -20.8326   19.5004 C   0  0  0  0  0  0
  -24.7887  -22.2782   19.4669 C   0  0  0  0  0  0
  -23.2896  -22.3459   19.1217 C   0  0  0  0  0  0
  -22.7765  -23.7227   18.6776 C   0  0  0  0  0  0
  -23.5675  -24.3122   17.4963 C   0  0  0  0  0  0
  -33.2994  -14.8298   17.9223 C   0  0  0  0  0  0
  -32.0477  -15.6936   17.7260 C   0  0  0  0  0  0
  -27.6030  -26.9186   16.6812 C   0  0  0  0  0  0
  -28.2711  -25.9276   17.6632 C   0  0  0  0  0  0
  -22.9254  -25.5965   16.9622 C   0  0  0  0  0  0
  -33.4948  -14.3922   19.4017 C   0  0  0  0  0  0
  -31.8302  -16.3592   16.3506 C   0  0  0  0  0  0
  -26.3474  -26.3955   15.9397 C   0  0  0  0  0  0
  -29.0572  -26.6262   18.7998 C   0  0  0  0  0  0
  -23.0935  -27.7650   15.5886 C   0  0  0  0  0  0
  -23.8077  -26.4478   16.0056 C   0  0  1  0  0  0
  -32.3887  -13.5659   19.9077 N   0  0  0  0  0  0
  -30.4351  -16.8707   16.2994 N   0  0  0  0  0  0
  -28.6757  -15.5450   13.4540 N   0  3  0  0  0  0
  -25.1030  -26.7944   16.6381 N   0  3  0  0  0  0
  -28.3020  -16.0364   15.9939 O   0  0  0  0  0  0
  -31.0685  -18.7249   17.4451 O   0  0  0  0  0  0
  -31.2694  -11.7083   18.9980 H   0  0  0  0  0  0
  -29.8887  -11.0773   19.7844 H   0  0  0  0  0  0
  -29.5717  -11.7333   17.3277 H   0  0  0  0  0  0
  -29.7112  -13.4123   17.7973 H   0  0  0  0  0  0
  -27.6919  -11.3629   18.7584 H   0  0  0  0  0  0
  -27.3273  -12.7582   17.7865 H   0  0  0  0  0  0
  -27.7295  -14.2850   19.5538 H   0  0  0  0  0  0
  -28.6958  -12.1910   21.5347 H   0  0  0  0  0  0
  -28.7708  -13.9267   21.6715 H   0  0  0  0  0  0
  -25.2868   -9.5637   22.4774 H   0  0  0  0  0  0
  -24.0017   -7.4661   22.7497 H   0  0  0  0  0  0
  -21.0929   -8.8899   19.8957 H   0  0  0  0  0  0
  -22.3885  -10.9740   19.6171 H   0  0  0  0  0  0
  -21.2010   -7.6174   23.9708 H   0  0  0  0  0  0
  -21.1490   -6.0547   25.9065 H   0  0  0  0  0  0
  -22.0588   -2.7637   23.2819 H   0  0  0  0  0  0
  -22.4299  -11.9918   22.4763 H   0  0  0  0  0  0
  -21.1246  -13.1206   22.2501 H   0  0  0  0  0  0
  -24.6755  -15.8513   20.5246 H   0  0  0  0  0  0
  -26.3104  -15.6428   20.1440 H   0  0  0  0  0  0
  -26.7119  -32.5613   23.1181 H   0  0  0  0  0  0
  -25.0024  -33.9728   25.0491 H   0  0  0  0  0  0
  -22.6828  -31.3130   21.4307 H   0  0  0  0  0  0
  -23.3782  -35.9642   23.3276 H   0  0  0  0  0  0
  -24.3565  -36.8848   22.1988 H   0  0  0  0  0  0
  -23.7270  -37.6539   23.6562 H   0  0  0  0  0  0
  -26.0307  -31.6235   20.5788 H   0  0  0  0  0  0
  -26.8199  -30.9113   21.9560 H   0  0  0  0  0  0
  -28.1144  -29.1900   21.0616 H   0  0  0  0  0  0
  -26.0006  -25.8934   19.2749 H   0  0  0  0  0  0
  -23.9035  -27.2303   19.2637 H   0  0  0  0  0  0
  -23.6757  -30.5923   19.4164 H   0  0  0  0  0  0
  -22.7048  -29.2499   19.9090 H   0  0  0  0  0  0
  -25.1300  -36.2081   25.0836 H   0  0  0  0  0  0
  -20.9973  -28.2784   24.1324 H   0  0  0  0  0  0
  -20.6624  -26.2095   23.3026 H   0  0  0  0  0  0
  -21.6665  -26.7975   22.0353 H   0  0  0  0  0  0
  -19.6634  -25.5677   21.1790 H   0  0  0  0  0  0
  -19.6310  -27.2280   20.6381 H   0  0  0  0  0  0
  -17.3972  -26.6247   21.4465 H   0  0  0  0  0  0
  -18.0510  -26.0112   22.9464 H   0  0  0  0  0  0
  -19.8106  -30.7231   24.2077 H   0  0  0  0  0  0
  -17.5289  -31.6343   24.5121 H   0  0  0  0  0  0
  -15.5532  -30.3063   23.7840 H   0  0  0  0  0  0
  -15.8689  -28.0815   22.7184 H   0  0  0  0  0  0
  -24.5779  -30.7116   25.7747 H   0  0  0  0  0  0
  -24.8951  -32.2886   26.4951 H   0  0  0  0  0  0
  -25.8026  -30.8769   27.0147 H   0  0  0  0  0  0
  -26.2682  -29.6803   24.1165 H   0  0  0  0  0  0
  -27.4109  -29.7260   25.4356 H   0  0  0  0  0  0
  -27.8478  -30.4317   23.8978 H   0  0  0  0  0  0
  -27.2707  -33.3494   26.2151 H   0  0  0  0  0  0
  -28.3816  -32.7005   25.0190 H   0  0  0  0  0  0
  -28.0928  -31.8347   26.5199 H   0  0  0  0  0  0
  -28.2728  -38.0077   24.7557 H   0  0  0  0  0  0
  -28.1067  -36.2658   24.6281 H   0  0  0  0  0  0
  -27.2323  -37.1437   25.8855 H   0  0  0  0  0  0
  -20.9319  -29.9296   21.7521 H   0  0  0  0  0  0
  -26.0264  -38.2936   24.1385 H   0  0  0  0  0  0
  -29.0549  -12.2419   13.4453 H   0  0  0  0  0  0
  -30.1337  -13.2432   12.4734 H   0  0  0  0  0  0
  -31.0856  -13.5992   14.6453 H   0  0  0  0  0  0
  -29.5069  -13.5218   15.4182 H   0  0  0  0  0  0
  -27.3512  -13.9269   13.4519 H   0  0  0  0  0  0
  -28.0577  -14.2555   11.8717 H   0  0  0  0  0  0
  -30.6988  -15.8524   13.8468 H   0  0  0  0  0  0
  -21.2936  -28.4040   14.5373 H   0  0  0  0  0  0
  -21.1075  -26.8596   15.3144 H   0  0  0  0  0  0
  -22.0622  -26.9723   13.8425 H   0  0  0  0  0  0
  -22.3232  -29.6400   16.4196 H   0  0  0  0  0  0
  -23.7084  -29.0377   17.2759 H   0  0  0  0  0  0
  -22.1390  -28.2901   17.5196 H   0  0  0  0  0  0
  -28.4249  -17.4307   18.1650 H   0  0  0  0  0  0
  -28.0421  -18.3415   16.7103 H   0  0  0  0  0  0
  -28.3309  -20.3814   17.6769 H   0  0  0  0  0  0
  -29.4442  -19.8655   18.9195 H   0  0  0  0  0  0
  -27.7410  -18.8555   20.2553 H   0  0  0  0  0  0
  -26.6190  -18.7857   18.9371 H   0  0  0  0  0  0
  -27.3167  -21.5743   19.3656 H   0  0  0  0  0  0
  -26.9287  -20.8829   20.9100 H   0  0  0  0  0  0
  -24.7166  -20.2242   20.2029 H   0  0  0  0  0  0
  -25.1188  -20.4020   18.5124 H   0  0  0  0  0  0
  -25.3771  -22.7827   18.7024 H   0  0  0  0  0  0
  -24.9981  -22.7867   20.4095 H   0  0  0  0  0  0
  -22.7125  -22.0098   19.9840 H   0  0  0  0  0  0
  -23.0740  -21.6440   18.3158 H   0  0  0  0  0  0
  -22.7826  -24.4197   19.5183 H   0  0  0  0  0  0
  -21.7302  -23.6159   18.3902 H   0  0  0  0  0  0
  -23.6475  -23.5777   16.6944 H   0  0  0  0  0  0
  -24.5775  -24.5360   17.8309 H   0  0  0  0  0  0
  -34.1779  -15.3912   17.5994 H   0  0  0  0  0  0
  -33.2425  -13.9531   17.2759 H   0  0  0  0  0  0
  -32.0515  -16.4600   18.5030 H   0  0  0  0  0  0
  -31.1770  -15.0720   17.9137 H   0  0  0  0  0  0
  -28.3577  -27.1756   15.9354 H   0  0  0  0  0  0
  -27.3750  -27.8653   17.1766 H   0  0  0  0  0  0
  -28.9670  -25.3133   17.0931 H   0  0  0  0  0  0
  -27.5780  -25.1935   18.0687 H   0  0  0  0  0  0
  -22.0131  -25.2903   16.4507 H   0  0  0  0  0  0
  -22.5887  -26.1879   17.8115 H   0  0  0  0  0  0
  -33.6328  -15.2713   20.0354 H   0  0  0  0  0  0
  -34.4174  -13.8145   19.4856 H   0  0  0  0  0  0
  -32.0628  -15.6336   15.5738 H   0  0  0  0  0  0
  -32.5555  -17.1603   16.1965 H   0  0  0  0  0  0
  -26.3235  -26.8326   14.9411 H   0  0  0  0  0  0
  -26.3964  -25.3128   15.8045 H   0  0  0  0  0  0
  -29.4314  -27.6041   18.4928 H   0  0  0  0  0  0
  -29.9479  -26.0333   19.0138 H   0  0  0  0  0  0
  -23.7665  -28.3146   14.9243 H   0  0  0  0  0  0
  -24.0001  -25.8583   15.1053 H   0  0  0  0  0  0
  -32.4602  -12.5728   19.7435 H   0  0  0  0  0  0
  -27.9356  -15.9147   14.0377 H   0  0  0  0  0  0
  -28.8633  -16.1973   12.7101 H   0  0  0  0  0  0
  -25.1160  -27.7979   16.7209 H   0  0  0  0  0  0
  -25.1169  -26.4072   17.5690 H   0  0  0  0  0  0
  1 25  1  0  0  0
  1 30  2  0  0  0
  1 99  1  0  0  0
  2  3  1  0  0  0
  2 25  1  0  0  0
  2105  1  0  0  0
  2106  1  0  0  0
  3  4  1  0  0  0
  3107  1  0  0  0
  3108  1  0  0  0
  4  5  1  0  0  0
  4109  1  0  0  0
  4110  1  0  0  0
  5  6  1  0  0  0
  5 26  1  0  0  0
  5111  1  0  0  0
  6 25  1  0  0  0
  6112  1  0  0  0
  6113  1  0  0  0
  7  8  2  0  0  0
  7 26  1  0  0  0
  7 29  1  0  0  0
  8  9  1  0  0  0
  8 22  1  0  0  0
  9 10  1  0  0  0
  9 27  2  0  0  0
 10 11  2  0  0  0
 10 15  1  0  0  0
 11 12  1  0  0  0
 11114  1  0  0  0
 12 13  2  0  0  0
 12115  1  0  0  0
 13 14  1  0  0  0
 13 31  1  0  0  0
 14 15  2  0  0  0
 14116  1  0  0  0
 15117  1  0  0  0
 16 17  2  0  0  0
 16 21  1  0  0  0
 16 31  1  0  0  0
 17 18  1  0  0  0
 17118  1  0  0  0
 18 19  2  0  0  0
 18119  1  0  0  0
 19 20  1  0  0  0
 19 24  1  0  0  0
 20 21  2  0  0  0
 20120  1  0  0  0
 21 23  1  0  0  0
 22 28  1  0  0  0
 22 32  2  0  0  0
 26 27  1  0  0  0
 28121  1  0  0  0
 28122  1  0  0  0
 29123  1  0  0  0
 29124  1  0  0  0
 33 34  1  0  0  0
 33 66  1  0  0  0
 33 70  2  0  0  0
 34 36  1  0  0  0
 34 59  1  0  0  0
 34125  1  0  0  0
 35 44  2  0  0  0
 35 45  1  0  0  0
 35 68  1  0  0  0
 36 56  1  0  0  0
 36126  1  0  0  0
 37 39  1  0  0  0
 37 47  1  0  0  0
 37 66  1  0  0  0
 37127  1  0  0  0
 38 43  2  0  0  0
 38 46  1  0  0  0
 38 47  1  0  0  0
 39 64  1  0  0  0
 39 67  2  0  0  0
 40 52  1  0  0  0
 40 53  2  0  0  0
 40 58  1  0  0  0
 41128  1  0  0  0
 41129  1  0  0  0
 41130  1  0  0  0
 41 48  1  0  0  0
 42 43  1  0  0  0
 42 66  1  0  0  0
 42131  1  0  0  0
 42132  1  0  0  0
 43 44  1  0  0  0
 44133  1  0  0  0
 45 46  2  0  0  0
 45134  1  0  0  0
 46135  1  0  0  0
 47136  1  0  0  0
 47137  1  0  0  0
 48 56  1  0  0  0
 48 65  1  0  0  0
 48138  1  0  0  0
 49 50  1  0  0  0
 49 53  1  0  0  0
 49 64  1  0  0  0
 49139  1  0  0  0
 50 51  1  0  0  0
 50140  1  0  0  0
 50141  1  0  0  0
 51 52  1  0  0  0
 51142  1  0  0  0
 51143  1  0  0  0
 52144  1  0  0  0
 52145  1  0  0  0
 53 54  1  0  0  0
 54 55  2  0  0  0
 54146  1  0  0  0
 55 57  1  0  0  0
 55147  1  0  0  0
 56 69  2  0  0  0
 57 58  2  0  0  0
 57148  1  0  0  0
 58149  1  0  0  0
 59 60  1  0  0  0
 59 61  1  0  0  0
 59 62  1  0  0  0
 60150  1  0  0  0
 60151  1  0  0  0
 60152  1  0  0  0
 61153  1  0  0  0
 61154  1  0  0  0
 61155  1  0  0  0
 62156  1  0  0  0
 62157  1  0  0  0
 62158  1  0  0  0
 63 65  1  0  0  0
 63159  1  0  0  0
 63160  1  0  0  0
 63161  1  0  0  0
 64162  1  0  0  0
 65163  1  0  0  0
 68 96  1  0  0  0
 71100  1  0  0  0
 71103  2  0  0  0
 71 76  1  0  0  0
 72 79  1  0  0  0
 72100  1  0  0  0
 72104  2  0  0  0
 73 74  1  0  0  0
 73 75  1  0  0  0
 73164  1  0  0  0
 73165  1  0  0  0
 74 76  1  0  0  0
 74166  1  0  0  0
 74167  1  0  0  0
 75101  1  0  0  0
 75168  1  0  0  0
 75169  1  0  0  0
 76101  1  0  0  0
 76170  1  0  0  0
 77171  1  0  0  0
 77172  1  0  0  0
 77173  1  0  0  0
 77 97  1  0  0  0
 78 97  1  0  0  0
 78174  1  0  0  0
 78175  1  0  0  0
 78176  1  0  0  0
 79 80  1  0  0  0
 79177  1  0  0  0
 79178  1  0  0  0
 80 81  1  0  0  0
 80179  1  0  0  0
 80180  1  0  0  0
 81 82  1  0  0  0
 81181  1  0  0  0
 81182  1  0  0  0
 82 83  1  0  0  0
 82183  1  0  0  0
 82184  1  0  0  0
 83 84  1  0  0  0
 83185  1  0  0  0
 83186  1  0  0  0
 84 85  1  0  0  0
 84187  1  0  0  0
 84188  1  0  0  0
 85 86  1  0  0  0
 85189  1  0  0  0
 85190  1  0  0  0
 86 87  1  0  0  0
 86191  1  0  0  0
 86192  1  0  0  0
 87 92  1  0  0  0
 87193  1  0  0  0
 87194  1  0  0  0
 88 89  1  0  0  0
 88 93  1  0  0  0
 88195  1  0  0  0
 88196  1  0  0  0
 89 94  1  0  0  0
 89197  1  0  0  0
 89198  1  0  0  0
 90 91  1  0  0  0
 90 95  1  0  0  0
 90199  1  0  0  0
 90200  1  0  0  0
 91 96  1  0  0  0
 91201  1  0  0  0
 91202  1  0  0  0
 92203  1  0  0  0
 92204  1  0  0  0
 92 98  1  0  0  0
 93 99  1  0  0  0
 93205  1  0  0  0
 93206  1  0  0  0
 94100  1  0  0  0
 94207  1  0  0  0
 94208  1  0  0  0
 95102  1  0  0  0
 95209  1  0  0  0
 95210  1  0  0  0
 96211  1  0  0  0
 96212  1  0  0  0
 97 98  1  0  0  0
 97213  1  0  0  0
 98102  1  0  0  0
 98214  1  0  0  0
 99215  1  0  0  0
101216  1  0  0  0
101217  1  0  0  0
102218  1  0  0  0
102219  1  0  0  0
M  CHG  2 101   1 102   1
M  ISO  4   1 100  68 101  96 101  99 100
M  END
> <chiral flag>
0

> <version>
0

> <s_m_source_file>
/data/baiqing/PycharmProjects/Reinvent-master-3.2/result/LINK_invent/BTK/process_docking_weight1_custom_sum_contain_oxygen_bond_distance_aromatic_linkinvent_7_9_3/rearranged_h_0003.sdf

> <i_m_source_file_index>
31

> <r_mmod_Potential_Energy-OPLS-2005>
-55.1129417419434

> <r_mmod_Stretch_Energy-OPLS-2005>
50.0303153991699

> <r_mmod_Bend_Energy-OPLS-2005>
175.774566650391

> <r_mmod_Torsional_Energy-OPLS-2005>
419.632141113281

> <r_mmod_Improper_Torsional_Energy-OPLS-2005>
4.42130994796753

> <r_mmod_Van_der_Waal_Energy-OPLS-2005>
162.623565673828

> <r_mmod_Electrostatic_Energy-OPLS-2005>
-221.682434082031

> <r_mmod_Solvation_Energy-OPLS-2005>
-820.188171386719

> <b_mmod_Minimization_Converged-OPLS-2005>
0

> <r_mmod_RMS_Derivative-OPLS-2005>
5.95539093017578

$$$$
32
                    3D
 Structure written by MMmdl.
160168  0  0  1  0            999 V2000
  -30.5113  -14.9109   20.4338 C   0  0  0  0  0  0
  -30.4546  -12.5604   19.4888 C   0  0  0  0  0  0
  -29.5251  -12.5306   18.2511 C   0  0  0  0  0  0
  -28.0548  -12.3219   18.6661 C   0  0  0  0  0  0
  -27.6390  -13.2359   19.8472 C   0  0  2  0  0  0
  -28.6842  -13.2120   20.9840 C   0  0  0  0  0  0
  -25.2502  -13.8182   20.5688 C   0  0  0  0  0  0
  -24.1807  -13.0430   20.9231 C   0  0  0  0  0  0
  -24.6402  -11.6910   20.8757 C   0  0  0  0  0  0
  -23.9075  -10.4288   21.0412 C   0  0  0  0  0  0
  -24.3623   -9.4202   21.9188 C   0  0  0  0  0  0
  -23.6297   -8.2238   22.0753 C   0  0  0  0  0  0
  -22.4279   -8.0279   21.3543 C   0  0  0  0  0  0
  -21.9918   -9.0254   20.4645 C   0  0  0  0  0  0
  -22.7248  -10.2133   20.3058 C   0  0  0  0  0  0
  -21.6854   -6.0736   22.5278 C   0  0  0  0  0  0
  -21.4014   -6.5639   23.8211 C   0  0  0  0  0  0
  -21.3659   -5.6792   24.9173 C   0  0  0  0  0  0
  -21.6045   -4.3055   24.7224 C   0  0  0  0  0  0
  -21.8820   -3.8147   23.4345 C   0  0  0  0  0  0
  -21.9193   -4.6964   22.3402 C   0  0  0  0  0  0
  -22.7827  -13.5212   21.1883 C   0  0  0  0  0  0
  -22.1663   -4.2150   21.0979 F   0  0  0  0  0  0
  -21.5629   -3.4538   25.7736 F   0  0  0  0  0  0
  -29.9683  -13.6301   20.4012 N   0  0  0  0  0  0
  -26.2927  -12.9394   20.3257 N   0  0  0  0  0  0
  -25.9334  -11.6536   20.5746 N   0  0  0  0  0  0
  -22.0471  -12.8198   22.0433 N   0  0  0  0  0  0
  -25.4166  -15.1901   20.4038 N   0  0  0  0  0  0
  -31.7003  -15.0517   20.1251 O   0  0  0  0  0  0
  -21.6641   -6.8879   21.4240 O   0  0  0  0  0  0
  -22.3514  -14.5518   20.6725 O   0  0  0  0  0  0
  -24.6421  -31.8458   23.1894 C   0  0  0  0  0  0
  -25.9198  -32.4707   23.8280 C   0  0  1  0  0  0
  -27.2223  -27.1527   20.1462 C   0  0  0  0  0  0
  -25.5949  -33.8511   24.2199 N   0  0  0  0  0  0
  -23.4451  -30.4657   21.5349 C   0  0  2  0  0  0
  -24.8950  -28.8947   20.1116 C   0  0  0  0  0  0
  -22.7562  -29.4558   22.4866 C   0  0  0  0  0  0
  -18.0304  -28.1404   22.8483 C   0  0  0  0  0  0
  -24.1486  -36.7256   23.2643 C   0  0  0  0  0  0
  -26.0004  -30.7248   21.3854 C   0  0  0  0  0  0
  -26.0728  -29.3373   20.7271 C   0  0  0  0  0  0
  -27.2375  -28.4831   20.7263 C   0  0  0  0  0  0
  -26.0149  -26.8067   19.4977 C   0  0  0  0  0  0
  -24.8779  -27.6417   19.4826 C   0  0  0  0  0  0
  -23.6709  -29.7955   20.1541 C   0  0  0  0  0  0
  -25.4119  -36.3039   24.0318 C   0  0  1  0  0  0
  -20.5916  -28.3727   23.1242 C   0  0  2  0  0  0
  -20.6788  -26.9432   22.5408 C   0  0  0  0  0  0
  -19.5757  -26.6391   21.5219 C   0  0  0  0  0  0
  -18.1940  -26.7942   22.1631 C   0  0  0  0  0  0
  -19.1561  -28.8883   23.2855 C   0  0  0  0  0  0
  -18.9478  -30.1479   23.8881 C   0  0  0  0  0  0
  -17.6475  -30.6600   24.0567 C   0  0  0  0  0  0
  -25.9070  -34.9415   23.5066 C   0  0  0  0  0  0
  -16.5366  -29.9095   23.6342 C   0  0  0  0  0  0
  -16.7290  -28.6514   23.0362 C   0  0  0  0  0  0
  -26.4523  -31.6569   25.0715 C   0  0  0  0  0  0
  -25.3710  -31.3756   26.1412 C   0  0  0  0  0  0
  -27.0391  -30.2969   24.6285 C   0  0  0  0  0  0
  -27.6052  -32.4335   25.7504 C   0  0  0  0  0  0
  -27.5571  -37.1785   24.8467 C   0  0  0  0  0  0
  -21.4255  -29.3053   22.3613 N   0  0  0  0  0  0
  -26.4282  -37.3753   23.9410 N   0  0  0  0  0  0
  -24.7157  -31.0329   22.0918 N   0  0  0  0  0  0
  -23.4210  -28.8107   23.3013 O   0  0  0  0  0  0
  -28.2853  -26.1820   20.2069 O   0  0  0  0  0  0
  -26.5660  -34.8911   22.4647 O   0  0  0  0  0  0
  -23.5543  -32.1329   23.7121 O   0  0  0  0  0  0
  -28.2249  -18.1048   20.5604 C   0  0  0  0  0  0
  -30.5331  -18.5388   20.3911 C   0  0  0  0  0  0
  -27.9465  -19.5169   20.4720 C   0  0  0  0  0  0
  -30.2463  -19.9791   20.3190 C   0  0  0  0  0  0
  -29.5256  -17.5125   20.5167 C   0  0  0  0  0  0
  -28.9201  -20.5550   20.3478 C   0  0  0  0  0  0
  -28.7581  -23.2390   22.8713 C   0  0  0  0  0  0
  -30.6395  -24.6237   21.9165 C   0  0  0  0  0  0
  -30.0481  -23.3742   19.1531 C   0  0  0  0  0  0
  -28.0002  -24.6565   20.1123 C   0  0  0  0  0  0
  -29.7479  -23.3859   21.7012 C   0  0  0  0  0  0
  -29.0403  -23.3353   20.3145 C   0  0  2  0  0  0
  -29.6234  -15.9896   20.6493 N   0  0  0  0  0  0
  -28.4163  -21.9319   20.2459 O   0  0  0  0  0  0
  -31.4854  -12.7352   19.1770 H   0  0  0  0  0  0
  -30.4554  -11.5947   19.9966 H   0  0  0  0  0  0
  -29.8349  -11.7425   17.5634 H   0  0  0  0  0  0
  -29.6189  -13.4690   17.7024 H   0  0  0  0  0  0
  -27.9393  -11.2763   18.9536 H   0  0  0  0  0  0
  -27.3932  -12.4778   17.8131 H   0  0  0  0  0  0
  -27.6164  -14.2478   19.4422 H   0  0  0  0  0  0
  -28.7613  -12.2158   21.4224 H   0  0  0  0  0  0
  -28.3889  -13.8781   21.7963 H   0  0  0  0  0  0
  -25.2766   -9.5678   22.4765 H   0  0  0  0  0  0
  -24.0006   -7.4628   22.7470 H   0  0  0  0  0  0
  -21.0851   -8.8775   19.8947 H   0  0  0  0  0  0
  -22.3708  -10.9674   19.6169 H   0  0  0  0  0  0
  -21.2006   -7.6147   23.9715 H   0  0  0  0  0  0
  -21.1482   -6.0522   25.9076 H   0  0  0  0  0  0
  -22.0599   -2.7609   23.2844 H   0  0  0  0  0  0
  -22.4093  -11.9862   22.4819 H   0  0  0  0  0  0
  -21.1085  -13.1214   22.2634 H   0  0  0  0  0  0
  -24.6322  -15.8288   20.4807 H   0  0  0  0  0  0
  -26.2249  -15.6091   19.9643 H   0  0  0  0  0  0
  -26.7263  -32.5322   23.1012 H   0  0  0  0  0  0
  -25.0064  -33.9630   25.0323 H   0  0  0  0  0  0
  -22.7470  -31.2913   21.3817 H   0  0  0  0  0  0
  -23.3755  -35.9580   23.3299 H   0  0  0  0  0  0
  -24.3568  -36.8896   22.2059 H   0  0  0  0  0  0
  -23.7232  -37.6446   23.6685 H   0  0  0  0  0  0
  -26.1541  -31.4801   20.6133 H   0  0  0  0  0  0
  -26.8716  -30.7756   22.0270 H   0  0  0  0  0  0
  -28.1357  -28.8187   21.2257 H   0  0  0  0  0  0
  -25.9120  -25.8514   19.0073 H   0  0  0  0  0  0
  -23.9781  -27.2973   18.9914 H   0  0  0  0  0  0
  -23.8070  -30.5707   19.3991 H   0  0  0  0  0  0
  -22.7856  -29.2378   19.8434 H   0  0  0  0  0  0
  -25.1307  -36.1869   25.0810 H   0  0  0  0  0  0
  -21.0014  -28.3316   24.1361 H   0  0  0  0  0  0
  -20.5688  -26.2341   23.3627 H   0  0  0  0  0  0
  -21.6652  -26.7442   22.1201 H   0  0  0  0  0  0
  -19.6915  -25.6298   21.1258 H   0  0  0  0  0  0
  -19.6690  -27.3195   20.6742 H   0  0  0  0  0  0
  -17.4209  -26.6697   21.4033 H   0  0  0  0  0  0
  -18.0332  -26.0090   22.9033 H   0  0  0  0  0  0
  -19.7952  -30.7304   24.2240 H   0  0  0  0  0  0
  -17.5029  -31.6277   24.5174 H   0  0  0  0  0  0
  -15.5366  -30.2995   23.7673 H   0  0  0  0  0  0
  -15.8690  -28.0830   22.7086 H   0  0  0  0  0  0
  -24.5895  -30.7095   25.7733 H   0  0  0  0  0  0
  -24.8891  -32.2939   26.4778 H   0  0  0  0  0  0
  -25.7997  -30.8970   27.0226 H   0  0  0  0  0  0
  -26.3005  -29.6692   24.1283 H   0  0  0  0  0  0
  -27.4004  -29.7266   25.4853 H   0  0  0  0  0  0
  -27.8914  -30.4214   23.9601 H   0  0  0  0  0  0
  -27.2641  -33.3655   26.2024 H   0  0  0  0  0  0
  -28.3895  -32.6865   25.0357 H   0  0  0  0  0  0
  -28.0683  -31.8497   26.5470 H   0  0  0  0  0  0
  -28.2588  -38.0083   24.7513 H   0  0  0  0  0  0
  -28.1068  -36.2614   24.6295 H   0  0  0  0  0  0
  -27.2290  -37.1436   25.8870 H   0  0  0  0  0  0
  -20.9462  -29.8767   21.6795 H   0  0  0  0  0  0
  -26.0149  -38.2819   24.1418 H   0  0  0  0  0  0
  -27.3711  -17.4515   20.6659 H   0  0  0  0  0  0
  -31.5686  -18.2302   20.3587 H   0  0  0  0  0  0
  -26.9085  -19.8155   20.5078 H   0  0  0  0  0  0
  -31.0917  -20.6444   20.2302 H   0  0  0  0  0  0
  -29.2859  -23.1611   23.8222 H   0  0  0  0  0  0
  -28.1462  -22.3423   22.7703 H   0  0  0  0  0  0
  -28.0850  -24.0937   22.9414 H   0  0  0  0  0  0
  -31.1577  -24.5645   22.8742 H   0  0  0  0  0  0
  -30.0612  -25.5468   21.9213 H   0  0  0  0  0  0
  -31.4080  -24.7120   21.1490 H   0  0  0  0  0  0
  -30.4955  -24.3627   19.0493 H   0  0  0  0  0  0
  -29.5564  -23.1459   18.2075 H   0  0  0  0  0  0
  -30.8596  -22.6615   19.2848 H   0  0  0  0  0  0
  -27.1636  -24.4845   20.7898 H   0  0  0  0  0  0
  -27.5807  -24.5087   19.1178 H   0  0  0  0  0  0
  -30.4160  -22.5259   21.7526 H   0  0  0  0  0  0
  -28.7266  -15.5928   20.8835 H   0  0  0  0  0  0
  1 25  1  0  0  0
  1 30  2  0  0  0
  1 83  1  0  0  0
  2  3  1  0  0  0
  2 25  1  0  0  0
  2 85  1  0  0  0
  2 86  1  0  0  0
  3  4  1  0  0  0
  3 87  1  0  0  0
  3 88  1  0  0  0
  4  5  1  0  0  0
  4 89  1  0  0  0
  4 90  1  0  0  0
  5  6  1  0  0  0
  5 26  1  0  0  0
  5 91  1  0  0  0
  6 25  1  0  0  0
  6 92  1  0  0  0
  6 93  1  0  0  0
  7  8  2  0  0  0
  7 26  1  0  0  0
  7 29  1  0  0  0
  8  9  1  0  0  0
  8 22  1  0  0  0
  9 10  1  0  0  0
  9 27  2  0  0  0
 10 11  2  0  0  0
 10 15  1  0  0  0
 11 12  1  0  0  0
 11 94  1  0  0  0
 12 13  2  0  0  0
 12 95  1  0  0  0
 13 14  1  0  0  0
 13 31  1  0  0  0
 14 15  2  0  0  0
 14 96  1  0  0  0
 15 97  1  0  0  0
 16 17  2  0  0  0
 16 21  1  0  0  0
 16 31  1  0  0  0
 17 18  1  0  0  0
 17 98  1  0  0  0
 18 19  2  0  0  0
 18 99  1  0  0  0
 19 20  1  0  0  0
 19 24  1  0  0  0
 20 21  2  0  0  0
 20100  1  0  0  0
 21 23  1  0  0  0
 22 28  1  0  0  0
 22 32  2  0  0  0
 26 27  1  0  0  0
 28101  1  0  0  0
 28102  1  0  0  0
 29103  1  0  0  0
 29104  1  0  0  0
 33 34  1  0  0  0
 33 66  1  0  0  0
 33 70  2  0  0  0
 34 36  1  0  0  0
 34 59  1  0  0  0
 34105  1  0  0  0
 35 44  2  0  0  0
 35 45  1  0  0  0
 35 68  1  0  0  0
 36 56  1  0  0  0
 36106  1  0  0  0
 37 39  1  0  0  0
 37 47  1  0  0  0
 37 66  1  0  0  0
 37107  1  0  0  0
 38 43  2  0  0  0
 38 46  1  0  0  0
 38 47  1  0  0  0
 39 64  1  0  0  0
 39 67  2  0  0  0
 40 52  1  0  0  0
 40 53  2  0  0  0
 40 58  1  0  0  0
 41108  1  0  0  0
 41109  1  0  0  0
 41110  1  0  0  0
 41 48  1  0  0  0
 42 43  1  0  0  0
 42 66  1  0  0  0
 42111  1  0  0  0
 42112  1  0  0  0
 43 44  1  0  0  0
 44113  1  0  0  0
 45 46  2  0  0  0
 45114  1  0  0  0
 46115  1  0  0  0
 47116  1  0  0  0
 47117  1  0  0  0
 48 56  1  0  0  0
 48 65  1  0  0  0
 48118  1  0  0  0
 49 50  1  0  0  0
 49 53  1  0  0  0
 49 64  1  0  0  0
 49119  1  0  0  0
 50 51  1  0  0  0
 50120  1  0  0  0
 50121  1  0  0  0
 51 52  1  0  0  0
 51122  1  0  0  0
 51123  1  0  0  0
 52124  1  0  0  0
 52125  1  0  0  0
 53 54  1  0  0  0
 54 55  2  0  0  0
 54126  1  0  0  0
 55 57  1  0  0  0
 55127  1  0  0  0
 56 69  2  0  0  0
 57 58  2  0  0  0
 57128  1  0  0  0
 58129  1  0  0  0
 59 60  1  0  0  0
 59 61  1  0  0  0
 59 62  1  0  0  0
 60130  1  0  0  0
 60131  1  0  0  0
 60132  1  0  0  0
 61133  1  0  0  0
 61134  1  0  0  0
 61135  1  0  0  0
 62136  1  0  0  0
 62137  1  0  0  0
 62138  1  0  0  0
 63 65  1  0  0  0
 63139  1  0  0  0
 63140  1  0  0  0
 63141  1  0  0  0
 64142  1  0  0  0
 65143  1  0  0  0
 68 80  1  0  0  0
 71 73  2  0  0  0
 71 75  1  0  0  0
 71144  1  0  0  0
 72 74  1  0  0  0
 72 75  2  0  0  0
 72145  1  0  0  0
 73 76  1  0  0  0
 73146  1  0  0  0
 74 76  2  0  0  0
 74147  1  0  0  0
 75 83  1  0  0  0
 76 84  1  0  0  0
 77148  1  0  0  0
 77149  1  0  0  0
 77150  1  0  0  0
 77 81  1  0  0  0
 78 81  1  0  0  0
 78151  1  0  0  0
 78152  1  0  0  0
 78153  1  0  0  0
 79154  1  0  0  0
 79155  1  0  0  0
 79156  1  0  0  0
 79 82  1  0  0  0
 80 82  1  0  0  0
 80157  1  0  0  0
 80158  1  0  0  0
 81 82  1  0  0  0
 81159  1  0  0  0
 82 84  1  0  0  0
 83160  1  0  0  0
M  ISO  4   1 100  68 101  80 101  83 100
M  END
> <chiral flag>
0

> <version>
0

> <s_m_source_file>
/data/baiqing/PycharmProjects/Reinvent-master-3.2/result/LINK_invent/BTK/process_docking_weight1_custom_sum_contain_oxygen_bond_distance_aromatic_linkinvent_7_9_3/rearranged_h_0003.sdf

> <i_m_source_file_index>
32

> <r_mmod_Potential_Energy-OPLS-2005>
472.088989257812

> <r_mmod_Stretch_Energy-OPLS-2005>
223.465774536133

> <r_mmod_Bend_Energy-OPLS-2005>
308.005523681641

> <r_mmod_Torsional_Energy-OPLS-2005>
220.153167724609

> <r_mmod_Improper_Torsional_Energy-OPLS-2005>
4.69915676116943

> <r_mmod_Van_der_Waal_Energy-OPLS-2005>
127.918983459473

> <r_mmod_Electrostatic_Energy-OPLS-2005>
-383.208953857422

> <r_mmod_Solvation_Energy-OPLS-2005>
-201.090621948242

> <b_mmod_Minimization_Converged-OPLS-2005>
0

> <r_mmod_RMS_Derivative-OPLS-2005>
0.442601263523102

$$$$
33
                    3D
 Structure written by MMmdl.
144152  0  0  1  0            999 V2000
  -30.2491  -15.7690   20.3185 C   0  0  0  0  0  0
  -30.4165  -13.1824   19.5389 C   0  0  0  0  0  0
  -29.5561  -12.6883   18.3366 C   0  0  0  0  0  0
  -28.1400  -12.3025   18.7870 C   0  0  0  0  0  0
  -27.5914  -13.3204   19.8100 C   0  0  2  0  0  0
  -28.5996  -13.7101   20.9197 C   0  0  0  0  0  0
  -25.2302  -13.8299   20.5812 C   0  0  0  0  0  0
  -24.1705  -13.0432   20.9298 C   0  0  0  0  0  0
  -24.6425  -11.6949   20.8764 C   0  0  0  0  0  0
  -23.9129  -10.4292   21.0393 C   0  0  0  0  0  0
  -24.3660   -9.4205   21.9178 C   0  0  0  0  0  0
  -23.6316   -8.2248   22.0754 C   0  0  0  0  0  0
  -22.4296   -8.0290   21.3545 C   0  0  0  0  0  0
  -21.9945   -9.0266   20.4644 C   0  0  0  0  0  0
  -22.7293  -10.2135   20.3047 C   0  0  0  0  0  0
  -21.6860   -6.0742   22.5279 C   0  0  0  0  0  0
  -21.4020   -6.5644   23.8213 C   0  0  0  0  0  0
  -21.3660   -5.6795   24.9174 C   0  0  0  0  0  0
  -21.6043   -4.3057   24.7223 C   0  0  0  0  0  0
  -21.8818   -3.8151   23.4344 C   0  0  0  0  0  0
  -21.9195   -4.6969   22.3401 C   0  0  0  0  0  0
  -22.7713  -13.5153   21.1928 C   0  0  0  0  0  0
  -22.1662   -4.2154   21.0979 F   0  0  0  0  0  0
  -21.5627   -3.4540   25.7735 F   0  0  0  0  0  0
  -29.7500  -14.3765   20.2532 N   0  0  0  0  0  0
  -26.2766  -12.9654   20.3247 N   0  0  0  0  0  0
  -25.9376  -11.6711   20.5692 N   0  0  0  0  0  0
  -22.0381  -12.8128   22.0480 N   0  0  0  0  0  0
  -25.3868  -15.2043   20.4253 N   0  0  0  0  0  0
  -31.4896  -15.6885   20.1870 O   0  0  0  0  0  0
  -21.6650   -6.8891   21.4243 O   0  0  0  0  0  0
  -22.3385  -14.5450   20.6762 O   0  0  0  0  0  0
  -24.6936  -31.7881   23.1428 C   0  0  0  0  0  0
  -25.9467  -32.4408   23.8014 C   0  0  1  0  0  0
  -27.2314  -26.6000   20.2259 C   0  0  0  0  0  0
  -25.6003  -33.8239   24.1889 N   0  0  0  0  0  0
  -23.5248  -30.3852   21.4992 C   0  0  2  0  0  0
  -24.9837  -28.7043   20.1217 C   0  0  0  0  0  0
  -22.7812  -29.4252   22.4682 C   0  0  0  0  0  0
  -18.0345  -28.1427   22.8448 C   0  0  0  0  0  0
  -24.1496  -36.7128   23.2656 C   0  0  0  0  0  0
  -26.1099  -30.4873   21.4229 C   0  0  0  0  0  0
  -26.1749  -29.0406   20.7752 C   0  0  0  0  0  0
  -27.2793  -28.0201   20.7903 C   0  0  0  0  0  0
  -26.0052  -26.4991   19.5134 C   0  0  0  0  0  0
  -24.9440  -27.4606   19.4663 C   0  0  0  0  0  0
  -23.7849  -29.6724   20.1393 C   0  0  0  0  0  0
  -25.4150  -36.2860   24.0273 C   0  0  1  0  0  0
  -20.5986  -28.3792   23.1121 C   0  0  2  0  0  0
  -20.6806  -26.9441   22.5405 C   0  0  0  0  0  0
  -19.5784  -26.6367   21.5217 C   0  0  0  0  0  0
  -18.1967  -26.7952   22.1618 C   0  0  0  0  0  0
  -19.1614  -28.8936   23.2762 C   0  0  0  0  0  0
  -18.9518  -30.1517   23.8813 C   0  0  0  0  0  0
  -17.6507  -30.6607   24.0547 C   0  0  0  0  0  0
  -25.9137  -34.9253   23.4926 C   0  0  0  0  0  0
  -16.5395  -29.9086   23.6353 C   0  0  0  0  0  0
  -16.7324  -28.6509   23.0369 C   0  0  0  0  0  0
  -26.4611  -31.6488   25.0681 C   0  0  0  0  0  0
  -25.3648  -31.3836   26.1276 C   0  0  0  0  0  0
  -27.0562  -30.2813   24.6660 C   0  0  0  0  0  0
  -27.6036  -32.4377   25.7508 C   0  0  0  0  0  0
  -27.5560  -37.1721   24.8466 C   0  0  0  0  0  0
  -21.4449  -29.3019   22.3429 N   0  0  0  0  0  0
  -26.4267  -37.3633   23.9406 N   0  0  0  0  0  0
  -24.8007  -30.9224   22.0738 N   0  0  0  0  0  0
  -23.4206  -28.7870   23.3076 O   0  0  0  0  0  0
  -28.1813  -25.3340   20.2925 O   0  0  0  0  0  0
  -26.5793  -34.8851   22.4554 O   0  0  0  0  0  0
  -23.5932  -32.1003   23.6316 O   0  0  0  0  0  0
  -31.2233  -20.8510   20.4443 C   0  0  0  0  0  0
  -30.3278  -21.9742   20.3863 C   0  0  0  0  0  0
  -30.8973  -19.4510   20.4170 C   0  0  0  0  0  0
  -28.6498  -20.2656   20.2683 C   0  0  0  0  0  0
  -28.9175  -21.8849   20.2883 C   0  0  0  0  0  0
  -29.5860  -18.9200   20.3295 C   0  0  0  0  0  0
  -27.9553  -23.5403   20.1946 C   0  0  0  0  0  0
  -29.4678  -17.1584   20.3338 N   0  0  0  0  0  0
  -31.3972  -13.4683   19.1574 H   0  0  0  0  0  0
  -30.6150  -12.3654   20.2348 H   0  0  0  0  0  0
  -30.0382  -11.8449   17.8404 H   0  0  0  0  0  0
  -29.4933  -13.4857   17.5947 H   0  0  0  0  0  0
  -28.1920  -11.3161   19.2495 H   0  0  0  0  0  0
  -27.4721  -12.2092   17.9298 H   0  0  0  0  0  0
  -27.4353  -14.2232   19.2177 H   0  0  0  0  0  0
  -28.8922  -12.8505   21.5245 H   0  0  0  0  0  0
  -28.1402  -14.4228   21.6061 H   0  0  0  0  0  0
  -25.2799   -9.5677   22.4764 H   0  0  0  0  0  0
  -24.0015   -7.4641   22.7480 H   0  0  0  0  0  0
  -21.0874   -8.8796   19.8951 H   0  0  0  0  0  0
  -22.3752  -10.9677   19.6160 H   0  0  0  0  0  0
  -21.2015   -7.6152   23.9718 H   0  0  0  0  0  0
  -21.1481   -6.0525   25.9077 H   0  0  0  0  0  0
  -22.0595   -2.7612   23.2843 H   0  0  0  0  0  0
  -22.4028  -11.9810   22.4881 H   0  0  0  0  0  0
  -21.0984  -13.1116   22.2673 H   0  0  0  0  0  0
  -24.6121  -15.8494   20.5375 H   0  0  0  0  0  0
  -26.2233  -15.6482   20.0710 H   0  0  0  0  0  0
  -26.7560  -32.4853   23.0732 H   0  0  0  0  0  0
  -25.0040  -33.9259   24.9969 H   0  0  0  0  0  0
  -22.8560  -31.2251   21.3001 H   0  0  0  0  0  0
  -23.3778  -35.9436   23.3259 H   0  0  0  0  0  0
  -24.3559  -36.8857   22.2082 H   0  0  0  0  0  0
  -23.7237  -37.6279   23.6781 H   0  0  0  0  0  0
  -26.3235  -31.2052   20.6299 H   0  0  0  0  0  0
  -26.9566  -30.5591   22.0929 H   0  0  0  0  0  0
  -28.1740  -28.2884   21.3341 H   0  0  0  0  0  0
  -25.8210  -25.5639   19.0038 H   0  0  0  0  0  0
  -24.0480  -27.1923   18.9234 H   0  0  0  0  0  0
  -23.9691  -30.4280   19.3747 H   0  0  0  0  0  0
  -22.8876  -29.1444   19.8122 H   0  0  0  0  0  0
  -25.1366  -36.1607   25.0763 H   0  0  0  0  0  0
  -21.0064  -28.3426   24.1249 H   0  0  0  0  0  0
  -20.5660  -26.2419   23.3677 H   0  0  0  0  0  0
  -21.6666  -26.7367   22.1230 H   0  0  0  0  0  0
  -19.6938  -25.6255   21.1303 H   0  0  0  0  0  0
  -19.6730  -27.3129   20.6710 H   0  0  0  0  0  0
  -17.4236  -26.6693   21.4021 H   0  0  0  0  0  0
  -18.0352  -26.0116   22.9034 H   0  0  0  0  0  0
  -19.7994  -30.7354   24.2146 H   0  0  0  0  0  0
  -17.5057  -31.6278   24.5166 H   0  0  0  0  0  0
  -15.5392  -30.2961   23.7726 H   0  0  0  0  0  0
  -15.8725  -28.0800   22.7132 H   0  0  0  0  0  0
  -24.5864  -30.7155   25.7572 H   0  0  0  0  0  0
  -24.8806  -32.3067   26.4469 H   0  0  0  0  0  0
  -25.7799  -30.9150   27.0207 H   0  0  0  0  0  0
  -26.3300  -29.6394   24.1665 H   0  0  0  0  0  0
  -27.3958  -29.7305   25.5442 H   0  0  0  0  0  0
  -27.9292  -30.3914   24.0226 H   0  0  0  0  0  0
  -27.2557  -33.3759   26.1844 H   0  0  0  0  0  0
  -28.3970  -32.6810   25.0429 H   0  0  0  0  0  0
  -28.0570  -31.8672   26.5625 H   0  0  0  0  0  0
  -28.2540  -38.0050   24.7512 H   0  0  0  0  0  0
  -28.1093  -36.2570   24.6297 H   0  0  0  0  0  0
  -27.2273  -37.1358   25.8868 H   0  0  0  0  0  0
  -20.9779  -29.8658   21.6465 H   0  0  0  0  0  0
  -26.0084  -38.2675   24.1421 H   0  0  0  0  0  0
  -32.2755  -21.0887   20.5173 H   0  0  0  0  0  0
  -30.7626  -22.9641   20.4154 H   0  0  0  0  0  0
  -31.7198  -18.7513   20.4730 H   0  0  0  0  0  0
  -27.5975  -20.0310   20.1940 H   0  0  0  0  0  0
  -27.1705  -23.3778   20.9334 H   0  0  0  0  0  0
  -27.4334  -23.4350   19.2435 H   0  0  0  0  0  0
  -28.4908  -16.9030   20.3508 H   0  0  0  0  0  0
  1 25  1  0  0  0
  1 30  2  0  0  0
  1 78  1  0  0  0
  2  3  1  0  0  0
  2 25  1  0  0  0
  2 79  1  0  0  0
  2 80  1  0  0  0
  3  4  1  0  0  0
  3 81  1  0  0  0
  3 82  1  0  0  0
  4  5  1  0  0  0
  4 83  1  0  0  0
  4 84  1  0  0  0
  5  6  1  0  0  0
  5 26  1  0  0  0
  5 85  1  0  0  0
  6 25  1  0  0  0
  6 86  1  0  0  0
  6 87  1  0  0  0
  7  8  2  0  0  0
  7 26  1  0  0  0
  7 29  1  0  0  0
  8  9  1  0  0  0
  8 22  1  0  0  0
  9 10  1  0  0  0
  9 27  2  0  0  0
 10 11  2  0  0  0
 10 15  1  0  0  0
 11 12  1  0  0  0
 11 88  1  0  0  0
 12 13  2  0  0  0
 12 89  1  0  0  0
 13 14  1  0  0  0
 13 31  1  0  0  0
 14 15  2  0  0  0
 14 90  1  0  0  0
 15 91  1  0  0  0
 16 17  2  0  0  0
 16 21  1  0  0  0
 16 31  1  0  0  0
 17 18  1  0  0  0
 17 92  1  0  0  0
 18 19  2  0  0  0
 18 93  1  0  0  0
 19 20  1  0  0  0
 19 24  1  0  0  0
 20 21  2  0  0  0
 20 94  1  0  0  0
 21 23  1  0  0  0
 22 28  1  0  0  0
 22 32  2  0  0  0
 26 27  1  0  0  0
 28 95  1  0  0  0
 28 96  1  0  0  0
 29 97  1  0  0  0
 29 98  1  0  0  0
 33 34  1  0  0  0
 33 66  1  0  0  0
 33 70  2  0  0  0
 34 36  1  0  0  0
 34 59  1  0  0  0
 34 99  1  0  0  0
 35 44  2  0  0  0
 35 45  1  0  0  0
 35 68  1  0  0  0
 36 56  1  0  0  0
 36100  1  0  0  0
 37 39  1  0  0  0
 37 47  1  0  0  0
 37 66  1  0  0  0
 37101  1  0  0  0
 38 43  2  0  0  0
 38 46  1  0  0  0
 38 47  1  0  0  0
 39 64  1  0  0  0
 39 67  2  0  0  0
 40 52  1  0  0  0
 40 53  2  0  0  0
 40 58  1  0  0  0
 41102  1  0  0  0
 41103  1  0  0  0
 41104  1  0  0  0
 41 48  1  0  0  0
 42 43  1  0  0  0
 42 66  1  0  0  0
 42105  1  0  0  0
 42106  1  0  0  0
 43 44  1  0  0  0
 44107  1  0  0  0
 45 46  2  0  0  0
 45108  1  0  0  0
 46109  1  0  0  0
 47110  1  0  0  0
 47111  1  0  0  0
 48 56  1  0  0  0
 48 65  1  0  0  0
 48112  1  0  0  0
 49 50  1  0  0  0
 49 53  1  0  0  0
 49 64  1  0  0  0
 49113  1  0  0  0
 50 51  1  0  0  0
 50114  1  0  0  0
 50115  1  0  0  0
 51 52  1  0  0  0
 51116  1  0  0  0
 51117  1  0  0  0
 52118  1  0  0  0
 52119  1  0  0  0
 53 54  1  0  0  0
 54 55  2  0  0  0
 54120  1  0  0  0
 55 57  1  0  0  0
 55121  1  0  0  0
 56 69  2  0  0  0
 57 58  2  0  0  0
 57122  1  0  0  0
 58123  1  0  0  0
 59 60  1  0  0  0
 59 61  1  0  0  0
 59 62  1  0  0  0
 60124  1  0  0  0
 60125  1  0  0  0
 60126  1  0  0  0
 61127  1  0  0  0
 61128  1  0  0  0
 61129  1  0  0  0
 62130  1  0  0  0
 62131  1  0  0  0
 62132  1  0  0  0
 63 65  1  0  0  0
 63133  1  0  0  0
 63134  1  0  0  0
 63135  1  0  0  0
 64136  1  0  0  0
 65137  1  0  0  0
 68 77  1  0  0  0
 71 72  2  0  0  0
 71 73  1  0  0  0
 71138  1  0  0  0
 72 75  1  0  0  0
 72139  1  0  0  0
 73 76  2  0  0  0
 73140  1  0  0  0
 74 75  2  0  0  0
 74 76  1  0  0  0
 74141  1  0  0  0
 75 77  1  0  0  0
 76 78  1  0  0  0
 77142  1  0  0  0
 77143  1  0  0  0
 78144  1  0  0  0
M  ISO  4   1 100  68 101  77 101  78 100
M  END
> <chiral flag>
0

> <version>
0

> <s_m_source_file>
/data/baiqing/PycharmProjects/Reinvent-master-3.2/result/LINK_invent/BTK/process_docking_weight1_custom_sum_contain_oxygen_bond_distance_aromatic_linkinvent_7_9_3/rearranged_h_0003.sdf

> <i_m_source_file_index>
33

> <r_mmod_Potential_Energy-OPLS-2005>
2813.380859375

> <r_mmod_Stretch_Energy-OPLS-2005>
1256.92761230469

> <r_mmod_Bend_Energy-OPLS-2005>
641.894226074219

> <r_mmod_Torsional_Energy-OPLS-2005>
222.88850402832

> <r_mmod_Improper_Torsional_Energy-OPLS-2005>
4.12787246704102

> <r_mmod_Van_der_Waal_Energy-OPLS-2005>
126.438247680664

> <r_mmod_Electrostatic_Energy-OPLS-2005>
-346.341064453125

> <r_mmod_Solvation_Energy-OPLS-2005>
-213.760787963867

> <b_mmod_Minimization_Converged-OPLS-2005>
0

> <r_mmod_RMS_Derivative-OPLS-2005>
0.157229289412498

$$$$
34
                    3D
 Structure written by MMmdl.
154162  0  0  1  0            999 V2000
  -30.6781  -14.5756   20.5067 C   0  0  0  0  0  0
  -30.4152  -12.3573   19.4332 C   0  0  0  0  0  0
  -29.4939  -12.4998   18.2041 C   0  0  0  0  0  0
  -28.0149  -12.3559   18.6179 C   0  0  0  0  0  0
  -27.6484  -13.2221   19.8552 C   0  0  2  0  0  0
  -28.6947  -13.0852   20.9818 C   0  0  0  0  0  0
  -25.2557  -13.8187   20.5691 C   0  0  0  0  0  0
  -24.1836  -13.0432   20.9210 C   0  0  0  0  0  0
  -24.6412  -11.6908   20.8749 C   0  0  0  0  0  0
  -23.9088  -10.4285   21.0421 C   0  0  0  0  0  0
  -24.3630   -9.4199   21.9202 C   0  0  0  0  0  0
  -23.6305   -8.2234   22.0763 C   0  0  0  0  0  0
  -22.4288   -8.0284   21.3557 C   0  0  0  0  0  0
  -21.9929   -9.0263   20.4659 C   0  0  0  0  0  0
  -22.7266  -10.2138   20.3065 C   0  0  0  0  0  0
  -21.6853   -6.0741   22.5292 C   0  0  0  0  0  0
  -21.4014   -6.5638   23.8232 C   0  0  0  0  0  0
  -21.3663   -5.6794   24.9188 C   0  0  0  0  0  0
  -21.6030   -4.3059   24.7241 C   0  0  0  0  0  0
  -21.8819   -3.8147   23.4365 C   0  0  0  0  0  0
  -21.9196   -4.6962   22.3416 C   0  0  0  0  0  0
  -22.7861  -13.5230   21.1868 C   0  0  0  0  0  0
  -22.1665   -4.2141   21.1001 F   0  0  0  0  0  0
  -21.5624   -3.4545   25.7759 F   0  0  0  0  0  0
  -30.0079  -13.3913   20.4004 N   0  0  0  0  0  0
  -26.2973  -12.9378   20.3296 N   0  0  0  0  0  0
  -25.9339  -11.6523   20.5749 N   0  0  0  0  0  0
  -22.0508  -12.8213   22.0416 N   0  0  0  0  0  0
  -25.4257  -15.1906   20.4108 N   0  0  0  0  0  0
  -31.8576  -14.6825   20.1604 O   0  0  0  0  0  0
  -21.6650   -6.8881   21.4258 O   0  0  0  0  0  0
  -22.3555  -14.5548   20.6734 O   0  0  0  0  0  0
  -24.6206  -31.8612   23.2067 C   0  0  0  0  0  0
  -25.9070  -32.4784   23.8375 C   0  0  1  0  0  0
  -27.2150  -27.3711   20.1120 C   0  0  0  0  0  0
  -25.5893  -33.8585   24.2305 N   0  0  0  0  0  0
  -23.4122  -30.4837   21.5505 C   0  0  2  0  0  0
  -24.8562  -28.9476   20.1092 C   0  0  0  0  0  0
  -22.7456  -29.4598   22.4987 C   0  0  0  0  0  0
  -18.0276  -28.1374   22.8475 C   0  0  0  0  0  0
  -24.1492  -36.7295   23.2646 C   0  0  0  0  0  0
  -25.9466  -30.8129   21.3664 C   0  0  0  0  0  0
  -26.0229  -29.4443   20.7082 C   0  0  0  0  0  0
  -27.2112  -28.6652   20.6981 C   0  0  0  0  0  0
  -26.0332  -26.9055   19.5029 C   0  0  0  0  0  0
  -24.8596  -27.6825   19.4980 C   0  0  0  0  0  0
  -23.6221  -29.8215   20.1631 C   0  0  0  0  0  0
  -25.4110  -36.3081   24.0338 C   0  0  1  0  0  0
  -20.5869  -28.3641   23.1322 C   0  0  2  0  0  0
  -20.6767  -26.9375   22.5419 C   0  0  0  0  0  0
  -19.5752  -26.6379   21.5217 C   0  0  0  0  0  0
  -18.1927  -26.7919   22.1622 C   0  0  0  0  0  0
  -19.1526  -28.8833   23.2878 C   0  0  0  0  0  0
  -18.9458  -30.1448   23.8877 C   0  0  0  0  0  0
  -17.6449  -30.6582   24.0562 C   0  0  0  0  0  0
  -25.9033  -34.9449   23.5129 C   0  0  0  0  0  0
  -16.5340  -29.9072   23.6332 C   0  0  0  0  0  0
  -16.7251  -28.6497   23.0332 C   0  0  0  0  0  0
  -26.4475  -31.6586   25.0726 C   0  0  0  0  0  0
  -25.3713  -31.3720   26.1460 C   0  0  0  0  0  0
  -27.0326  -30.3023   24.6145 C   0  0  0  0  0  0
  -27.6052  -32.4318   25.7477 C   0  0  0  0  0  0
  -27.5582  -37.1792   24.8469 C   0  0  0  0  0  0
  -21.4171  -29.3007   22.3740 N   0  0  0  0  0  0
  -26.4294  -37.3769   23.9420 N   0  0  0  0  0  0
  -24.6791  -31.0669   22.0995 N   0  0  0  0  0  0
  -23.4204  -28.8154   23.3058 O   0  0  0  0  0  0
  -28.3313  -26.5469   20.1228 O   0  0  0  0  0  0
  -26.5607  -34.8901   22.4696 O   0  0  0  0  0  0
  -23.5374  -32.1411   23.7417 O   0  0  0  0  0  0
  -31.9303  -18.2364   22.6464 C   0  0  0  0  0  0
  -31.4598  -19.4508   22.1221 C   0  0  0  0  0  0
  -31.4144  -17.0185   22.1811 C   0  0  0  0  0  0
  -29.9044  -18.2400   20.6862 C   0  0  0  0  0  0
  -30.4391  -19.4914   21.1455 C   0  0  0  0  0  0
  -30.4136  -16.9868   21.1845 C   0  0  0  0  0  0
  -30.0703  -20.8799   20.6235 C   0  0  0  0  0  0
  -28.5533  -23.9338   20.1674 C   0  0  0  0  0  0
  -28.4109  -22.7123   21.1503 C   0  0  0  0  0  0
  -28.1794  -25.2974   20.8630 C   0  0  0  0  0  0
  -29.9287  -15.6886   20.7656 N   0  0  0  0  0  0
  -28.8037  -21.3259   20.7480 N   0  0  0  0  0  0
  -30.9748  -21.6397   20.2668 O   0  0  0  0  0  0
  -31.4629  -12.4414   19.1403 H   0  0  0  0  0  0
  -30.3067  -11.3648   19.8762 H   0  0  0  0  0  0
  -29.7449  -11.7489   17.4548 H   0  0  0  0  0  0
  -29.6508  -13.4701   17.7291 H   0  0  0  0  0  0
  -27.8339  -11.3028   18.8352 H   0  0  0  0  0  0
  -27.3649  -12.6079   17.7786 H   0  0  0  0  0  0
  -27.6656  -14.2582   19.5159 H   0  0  0  0  0  0
  -28.6901  -12.0737   21.3906 H   0  0  0  0  0  0
  -28.4607  -13.7511   21.8147 H   0  0  0  0  0  0
  -25.2774   -9.5656   22.4788 H   0  0  0  0  0  0
  -24.0008   -7.4611   22.7472 H   0  0  0  0  0  0
  -21.0858   -8.8793   19.8962 H   0  0  0  0  0  0
  -22.3744  -10.9680   19.6164 H   0  0  0  0  0  0
  -21.2006   -7.6147   23.9725 H   0  0  0  0  0  0
  -21.1489   -6.0533   25.9091 H   0  0  0  0  0  0
  -22.0593   -2.7608   23.2885 H   0  0  0  0  0  0
  -22.4145  -11.9859   22.4757 H   0  0  0  0  0  0
  -21.1126  -13.1230   22.2635 H   0  0  0  0  0  0
  -24.6556  -15.8422   20.5168 H   0  0  0  0  0  0
  -26.2667  -15.6308   20.0613 H   0  0  0  0  0  0
  -26.7141  -32.5468   23.1124 H   0  0  0  0  0  0
  -25.0013  -33.9720   25.0434 H   0  0  0  0  0  0
  -22.7039  -31.3031   21.4143 H   0  0  0  0  0  0
  -23.3732  -35.9646   23.3319 H   0  0  0  0  0  0
  -24.3590  -36.8910   22.2062 H   0  0  0  0  0  0
  -23.7248  -37.6502   23.6655 H   0  0  0  0  0  0
  -26.0654  -31.5832   20.6023 H   0  0  0  0  0  0
  -26.8303  -30.8621   21.9922 H   0  0  0  0  0  0
  -28.1144  -29.0392   21.1636 H   0  0  0  0  0  0
  -26.0176  -25.9280   19.0430 H   0  0  0  0  0  0
  -23.9627  -27.3031   19.0263 H   0  0  0  0  0  0
  -23.7289  -30.6026   19.4105 H   0  0  0  0  0  0
  -22.7423  -29.2477   19.8635 H   0  0  0  0  0  0
  -25.1282  -36.1967   25.0826 H   0  0  0  0  0  0
  -20.9933  -28.3201   24.1454 H   0  0  0  0  0  0
  -20.5721  -26.2221   23.3599 H   0  0  0  0  0  0
  -21.6632  -26.7452   22.1194 H   0  0  0  0  0  0
  -19.6919  -25.6301   21.1229 H   0  0  0  0  0  0
  -19.6715  -27.3202   20.6764 H   0  0  0  0  0  0
  -17.4199  -26.6661   21.4007 H   0  0  0  0  0  0
  -18.0316  -26.0070   22.9027 H   0  0  0  0  0  0
  -19.7935  -30.7277   24.2228 H   0  0  0  0  0  0
  -17.5003  -31.6264   24.5153 H   0  0  0  0  0  0
  -15.5330  -30.2957   23.7700 H   0  0  0  0  0  0
  -15.8657  -28.0840   22.7015 H   0  0  0  0  0  0
  -24.5902  -30.7052   25.7795 H   0  0  0  0  0  0
  -24.8856  -32.2877   26.4843 H   0  0  0  0  0  0
  -25.8026  -30.8941   27.0269 H   0  0  0  0  0  0
  -26.2904  -29.6764   24.1172 H   0  0  0  0  0  0
  -27.4057  -29.7277   25.4631 H   0  0  0  0  0  0
  -27.8748  -30.4328   23.9347 H   0  0  0  0  0  0
  -27.2687  -33.3634   26.2044 H   0  0  0  0  0  0
  -28.3851  -32.6846   25.0288 H   0  0  0  0  0  0
  -28.0720  -31.8441   26.5404 H   0  0  0  0  0  0
  -28.2581  -38.0099   24.7501 H   0  0  0  0  0  0
  -28.1085  -36.2621   24.6304 H   0  0  0  0  0  0
  -27.2291  -37.1452   25.8866 H   0  0  0  0  0  0
  -20.9352  -29.8705   21.6936 H   0  0  0  0  0  0
  -26.0188  -38.2852   24.1415 H   0  0  0  0  0  0
  -32.6973  -18.2389   23.4088 H   0  0  0  0  0  0
  -31.8955  -20.3721   22.4824 H   0  0  0  0  0  0
  -31.8026  -16.1058   22.6108 H   0  0  0  0  0  0
  -29.1470  -18.2461   19.9149 H   0  0  0  0  0  0
  -27.9114  -23.7848   19.3003 H   0  0  0  0  0  0
  -29.5751  -23.9903   19.7924 H   0  0  0  0  0  0
  -27.3619  -22.6542   21.4492 H   0  0  0  0  0  0
  -28.9525  -22.9459   22.0680 H   0  0  0  0  0  0
  -28.8144  -25.4042   21.7424 H   0  0  0  0  0  0
  -27.1707  -25.2021   21.2715 H   0  0  0  0  0  0
  -28.9287  -15.5615   20.7467 H   0  0  0  0  0  0
  -28.1315  -20.6064   20.9841 H   0  0  0  0  0  0
  1 25  1  0  0  0
  1 30  2  0  0  0
  1 81  1  0  0  0
  2  3  1  0  0  0
  2 25  1  0  0  0
  2 84  1  0  0  0
  2 85  1  0  0  0
  3  4  1  0  0  0
  3 86  1  0  0  0
  3 87  1  0  0  0
  4  5  1  0  0  0
  4 88  1  0  0  0
  4 89  1  0  0  0
  5  6  1  0  0  0
  5 26  1  0  0  0
  5 90  1  0  0  0
  6 25  1  0  0  0
  6 91  1  0  0  0
  6 92  1  0  0  0
  7  8  2  0  0  0
  7 26  1  0  0  0
  7 29  1  0  0  0
  8  9  1  0  0  0
  8 22  1  0  0  0
  9 10  1  0  0  0
  9 27  2  0  0  0
 10 11  2  0  0  0
 10 15  1  0  0  0
 11 12  1  0  0  0
 11 93  1  0  0  0
 12 13  2  0  0  0
 12 94  1  0  0  0
 13 14  1  0  0  0
 13 31  1  0  0  0
 14 15  2  0  0  0
 14 95  1  0  0  0
 15 96  1  0  0  0
 16 17  2  0  0  0
 16 21  1  0  0  0
 16 31  1  0  0  0
 17 18  1  0  0  0
 17 97  1  0  0  0
 18 19  2  0  0  0
 18 98  1  0  0  0
 19 20  1  0  0  0
 19 24  1  0  0  0
 20 21  2  0  0  0
 20 99  1  0  0  0
 21 23  1  0  0  0
 22 28  1  0  0  0
 22 32  2  0  0  0
 26 27  1  0  0  0
 28100  1  0  0  0
 28101  1  0  0  0
 29102  1  0  0  0
 29103  1  0  0  0
 33 34  1  0  0  0
 33 66  1  0  0  0
 33 70  2  0  0  0
 34 36  1  0  0  0
 34 59  1  0  0  0
 34104  1  0  0  0
 35 44  2  0  0  0
 35 45  1  0  0  0
 35 68  1  0  0  0
 36 56  1  0  0  0
 36105  1  0  0  0
 37 39  1  0  0  0
 37 47  1  0  0  0
 37 66  1  0  0  0
 37106  1  0  0  0
 38 43  2  0  0  0
 38 46  1  0  0  0
 38 47  1  0  0  0
 39 64  1  0  0  0
 39 67  2  0  0  0
 40 52  1  0  0  0
 40 53  2  0  0  0
 40 58  1  0  0  0
 41107  1  0  0  0
 41108  1  0  0  0
 41109  1  0  0  0
 41 48  1  0  0  0
 42 43  1  0  0  0
 42 66  1  0  0  0
 42110  1  0  0  0
 42111  1  0  0  0
 43 44  1  0  0  0
 44112  1  0  0  0
 45 46  2  0  0  0
 45113  1  0  0  0
 46114  1  0  0  0
 47115  1  0  0  0
 47116  1  0  0  0
 48 56  1  0  0  0
 48 65  1  0  0  0
 48117  1  0  0  0
 49 50  1  0  0  0
 49 53  1  0  0  0
 49 64  1  0  0  0
 49118  1  0  0  0
 50 51  1  0  0  0
 50119  1  0  0  0
 50120  1  0  0  0
 51 52  1  0  0  0
 51121  1  0  0  0
 51122  1  0  0  0
 52123  1  0  0  0
 52124  1  0  0  0
 53 54  1  0  0  0
 54 55  2  0  0  0
 54125  1  0  0  0
 55 57  1  0  0  0
 55126  1  0  0  0
 56 69  2  0  0  0
 57 58  2  0  0  0
 57127  1  0  0  0
 58128  1  0  0  0
 59 60  1  0  0  0
 59 61  1  0  0  0
 59 62  1  0  0  0
 60129  1  0  0  0
 60130  1  0  0  0
 60131  1  0  0  0
 61132  1  0  0  0
 61133  1  0  0  0
 61134  1  0  0  0
 62135  1  0  0  0
 62136  1  0  0  0
 62137  1  0  0  0
 63 65  1  0  0  0
 63138  1  0  0  0
 63139  1  0  0  0
 63140  1  0  0  0
 64141  1  0  0  0
 65142  1  0  0  0
 68 80  1  0  0  0
 71 72  2  0  0  0
 71 73  1  0  0  0
 71143  1  0  0  0
 72 75  1  0  0  0
 72144  1  0  0  0
 73 76  2  0  0  0
 73145  1  0  0  0
 74 75  2  0  0  0
 74 76  1  0  0  0
 74146  1  0  0  0
 75 77  1  0  0  0
 76 81  1  0  0  0
 77 82  1  0  0  0
 77 83  2  0  0  0
 78 79  1  0  0  0
 78 80  1  0  0  0
 78147  1  0  0  0
 78148  1  0  0  0
 79 82  1  0  0  0
 79149  1  0  0  0
 79150  1  0  0  0
 80151  1  0  0  0
 80152  1  0  0  0
 81153  1  0  0  0
 82154  1  0  0  0
M  ISO  4   1 100  68 101  80 101  81 100
M  END
> <chiral flag>
0

> <version>
0

> <s_m_source_file>
/data/baiqing/PycharmProjects/Reinvent-master-3.2/result/LINK_invent/BTK/process_docking_weight1_custom_sum_contain_oxygen_bond_distance_aromatic_linkinvent_7_9_3/rearranged_h_0003.sdf

> <i_m_source_file_index>
34

> <r_mmod_Potential_Energy-OPLS-2005>
-6.84075784683228

> <r_mmod_Stretch_Energy-OPLS-2005>
57.7708206176758

> <r_mmod_Bend_Energy-OPLS-2005>
122.469619750977

> <r_mmod_Torsional_Energy-OPLS-2005>
278.912048339844

> <r_mmod_Improper_Torsional_Energy-OPLS-2005>
10.5075798034668

> <r_mmod_Van_der_Waal_Energy-OPLS-2005>
143.249465942383

> <r_mmod_Electrostatic_Energy-OPLS-2005>
-409.116546630859

> <r_mmod_Solvation_Energy-OPLS-2005>
-243.69189453125

> <b_mmod_Minimization_Converged-OPLS-2005>
0

> <r_mmod_RMS_Derivative-OPLS-2005>
3.05263543128967

$$$$
35
                    3D
 Structure written by MMmdl.
143150  0  0  1  0            999 V2000
  -30.1636  -16.0165   20.2837 C   0  0  0  0  0  0
  -30.4021  -13.3807   19.5097 C   0  0  0  0  0  0
  -29.5672  -12.7447   18.3499 C   0  0  0  0  0  0
  -28.1808  -12.2975   18.8321 C   0  0  0  0  0  0
  -27.5888  -13.3376   19.8001 C   0  0  2  0  0  0
  -28.5861  -13.8471   20.8777 C   0  0  0  0  0  0
  -25.2337  -13.8308   20.5832 C   0  0  0  0  0  0
  -24.1745  -13.0427   20.9297 C   0  0  0  0  0  0
  -24.6485  -11.6955   20.8763 C   0  0  0  0  0  0
  -23.9183  -10.4297   21.0405 C   0  0  0  0  0  0
  -24.3690   -9.4205   21.9200 C   0  0  0  0  0  0
  -23.6323   -8.2263   22.0773 C   0  0  0  0  0  0
  -22.4301   -8.0322   21.3557 C   0  0  0  0  0  0
  -21.9971   -9.0311   20.4658 C   0  0  0  0  0  0
  -22.7347  -10.2160   20.3056 C   0  0  0  0  0  0
  -21.6865   -6.0767   22.5277 C   0  0  0  0  0  0
  -21.4023   -6.5660   23.8211 C   0  0  0  0  0  0
  -21.3650   -5.6801   24.9170 C   0  0  0  0  0  0
  -21.6034   -4.3069   24.7210 C   0  0  0  0  0  0
  -21.8818   -3.8167   23.4328 C   0  0  0  0  0  0
  -21.9194   -4.6989   22.3390 C   0  0  0  0  0  0
  -22.7748  -13.5156   21.1899 C   0  0  0  0  0  0
  -22.1667   -4.2180   21.0968 F   0  0  0  0  0  0
  -21.5617   -3.4544   25.7721 F   0  0  0  0  0  0
  -29.6793  -14.5908   20.1704 N   0  0  0  0  0  0
  -26.2827  -12.9698   20.3296 N   0  0  0  0  0  0
  -25.9450  -11.6736   20.5678 N   0  0  0  0  0  0
  -22.0376  -12.8144   22.0431 N   0  0  0  0  0  0
  -25.3914  -15.2038   20.4227 N   0  0  0  0  0  0
  -31.4110  -15.8730   20.3150 O   0  0  0  0  0  0
  -21.6650   -6.8922   21.4243 O   0  0  0  0  0  0
  -22.3446  -14.5464   20.6738 O   0  0  0  0  0  0
  -24.7056  -31.7721   23.1279 C   0  0  0  0  0  0
  -25.9532  -32.4316   23.7901 C   0  0  1  0  0  0
  -27.2397  -26.4470   20.2423 C   0  0  0  0  0  0
  -25.6018  -33.8158   24.1777 N   0  0  0  0  0  0
  -23.5424  -30.3631   21.4905 C   0  0  2  0  0  0
  -25.0002  -28.6446   20.1351 C   0  0  0  0  0  0
  -22.7854  -29.4187   22.4644 C   0  0  0  0  0  0
  -18.0371  -28.1416   22.8423 C   0  0  0  0  0  0
  -24.1517  -36.7085   23.2660 C   0  0  0  0  0  0
  -26.1337  -30.4200   21.4327 C   0  0  0  0  0  0
  -26.1981  -28.9547   20.7902 C   0  0  0  0  0  0
  -27.2916  -27.8963   20.7967 C   0  0  0  0  0  0
  -26.0015  -26.4115   19.5305 C   0  0  0  0  0  0
  -24.9557  -27.3989   19.4822 C   0  0  0  0  0  0
  -23.8105  -29.6337   20.1397 C   0  0  0  0  0  0
  -25.4171  -36.2793   24.0256 C   0  0  1  0  0  0
  -20.6014  -28.3800   23.1070 C   0  0  2  0  0  0
  -20.6839  -26.9442   22.5381 C   0  0  0  0  0  0
  -19.5827  -26.6358   21.5191 C   0  0  0  0  0  0
  -18.2003  -26.7940   22.1583 C   0  0  0  0  0  0
  -19.1638  -28.8931   23.2716 C   0  0  0  0  0  0
  -18.9548  -30.1508   23.8772 C   0  0  0  0  0  0
  -17.6539  -30.6592   24.0541 C   0  0  0  0  0  0
  -25.9163  -34.9196   23.4875 C   0  0  0  0  0  0
  -16.5425  -29.9075   23.6350 C   0  0  0  0  0  0
  -16.7348  -28.6498   23.0359 C   0  0  0  0  0  0
  -26.4636  -31.6450   25.0620 C   0  0  0  0  0  0
  -25.3610  -31.3840   26.1159 C   0  0  0  0  0  0
  -27.0610  -30.2754   24.6715 C   0  0  0  0  0  0
  -27.6057  -32.4362   25.7419 C   0  0  0  0  0  0
  -27.5566  -37.1691   24.8469 C   0  0  0  0  0  0
  -21.4482  -29.3015   22.3371 N   0  0  0  0  0  0
  -26.4271  -37.3581   23.9410 N   0  0  0  0  0  0
  -24.8204  -30.8911   22.0685 N   0  0  0  0  0  0
  -23.4189  -28.7845   23.3110 O   0  0  0  0  0  0
  -28.2103  -25.1382   20.2091 O   0  0  0  0  0  0
  -26.5834  -34.8827   22.4520 O   0  0  0  0  0  0
  -23.6030  -32.0923   23.6086 O   0  0  0  0  0  0
  -28.1464  -17.3478   19.4672 C   0  0  0  0  0  0
  -28.8124  -21.3013   19.9737 C   0  0  0  0  0  0
  -29.3809  -19.3622   20.5689 C   0  0  0  0  0  0
  -28.2518  -23.2636   20.5080 C   0  0  0  0  0  0
  -29.4090  -17.4905   20.1879 N   0  0  0  0  0  0
  -31.3491  -13.7206   19.0871 H   0  0  0  0  0  0
  -30.6891  -12.6298   20.2484 H   0  0  0  0  0  0
  -30.1007  -11.9032   17.9056 H   0  0  0  0  0  0
  -29.4507  -13.4882   17.5599 H   0  0  0  0  0  0
  -28.2969  -11.3475   19.3561 H   0  0  0  0  0  0
  -27.5119  -12.1116   17.9905 H   0  0  0  0  0  0
  -27.3888  -14.1854   19.1460 H   0  0  0  0  0  0
  -28.9521  -13.0395   21.5131 H   0  0  0  0  0  0
  -28.0824  -14.5461   21.5462 H   0  0  0  0  0  0
  -25.2818   -9.5670   22.4811 H   0  0  0  0  0  0
  -24.0006   -7.4646   22.7503 H   0  0  0  0  0  0
  -21.0901   -8.8859   19.8964 H   0  0  0  0  0  0
  -22.3825  -10.9720   19.6176 H   0  0  0  0  0  0
  -21.2033   -7.6171   23.9723 H   0  0  0  0  0  0
  -21.1463   -6.0535   25.9069 H   0  0  0  0  0  0
  -22.0599   -2.7631   23.2819 H   0  0  0  0  0  0
  -22.3953  -11.9803   22.4832 H   0  0  0  0  0  0
  -21.0994  -13.1198   22.2586 H   0  0  0  0  0  0
  -24.6180  -15.8537   20.5135 H   0  0  0  0  0  0
  -26.2365  -15.6377   20.0778 H   0  0  0  0  0  0
  -26.7628  -32.4715   23.0604 H   0  0  0  0  0  0
  -25.0022  -33.9142   24.9835 H   0  0  0  0  0  0
  -22.8827  -31.2078   21.2796 H   0  0  0  0  0  0
  -23.3793  -35.9400   23.3237 H   0  0  0  0  0  0
  -24.3589  -36.8852   22.2098 H   0  0  0  0  0  0
  -23.7284  -37.6231   23.6819 H   0  0  0  0  0  0
  -26.3696  -31.1317   20.6405 H   0  0  0  0  0  0
  -26.9701  -30.4928   22.1139 H   0  0  0  0  0  0
  -28.1969  -28.1645   21.3228 H   0  0  0  0  0  0
  -25.7942  -25.4939   18.9988 H   0  0  0  0  0  0
  -24.0597  -27.1443   18.9321 H   0  0  0  0  0  0
  -24.0068  -30.3831   19.3723 H   0  0  0  0  0  0
  -22.9079  -29.1151   19.8100 H   0  0  0  0  0  0
  -25.1403  -36.1503   25.0741 H   0  0  0  0  0  0
  -21.0074  -28.3462   24.1202 H   0  0  0  0  0  0
  -20.5710  -26.2429   23.3662 H   0  0  0  0  0  0
  -21.6702  -26.7377   22.1213 H   0  0  0  0  0  0
  -19.7002  -25.6243   21.1297 H   0  0  0  0  0  0
  -19.6788  -27.3096   20.6667 H   0  0  0  0  0  0
  -17.4282  -26.6659   21.3976 H   0  0  0  0  0  0
  -18.0400  -26.0087   22.8982 H   0  0  0  0  0  0
  -19.8041  -30.7337   24.2090 H   0  0  0  0  0  0
  -17.5110  -31.6270   24.5154 H   0  0  0  0  0  0
  -15.5426  -30.2945   23.7749 H   0  0  0  0  0  0
  -15.8745  -28.0788   22.7127 H   0  0  0  0  0  0
  -24.5835  -30.7168   25.7404 H   0  0  0  0  0  0
  -24.8745  -32.3083   26.4274 H   0  0  0  0  0  0
  -25.7670  -30.9167   27.0138 H   0  0  0  0  0  0
  -26.3378  -29.6279   24.1734 H   0  0  0  0  0  0
  -27.3964  -29.7306   25.5554 H   0  0  0  0  0  0
  -27.9394  -30.3809   24.0341 H   0  0  0  0  0  0
  -27.2609  -33.3796   26.1651 H   0  0  0  0  0  0
  -28.4001  -32.6704   25.0320 H   0  0  0  0  0  0
  -28.0563  -31.8717   26.5586 H   0  0  0  0  0  0
  -28.2518  -38.0043   24.7519 H   0  0  0  0  0  0
  -28.1127  -36.2561   24.6293 H   0  0  0  0  0  0
  -27.2274  -37.1305   25.8866 H   0  0  0  0  0  0
  -20.9828  -29.8607   21.6350 H   0  0  0  0  0  0
  -26.0066  -38.2612   24.1440 H   0  0  0  0  0  0
  -28.1011  -18.0711   18.6522 H   0  0  0  0  0  0
  -27.3084  -17.5390   20.1372 H   0  0  0  0  0  0
  -28.0019  -16.3666   19.0140 H   0  0  0  0  0  0
  -28.0363  -21.0683   19.2450 H   0  0  0  0  0  0
  -29.6673  -21.5348   19.3396 H   0  0  0  0  0  0
  -28.8748  -19.3113   21.5346 H   0  0  0  0  0  0
  -30.4241  -19.5134   20.8524 H   0  0  0  0  0  0
  -27.2187  -23.1099   20.8199 H   0  0  0  0  0  0
  -28.7962  -23.3194   21.4512 H   0  0  0  0  0  0
  1 25  1  0  0  0
  1 30  2  0  0  0
  1 75  1  0  0  0
  2  3  1  0  0  0
  2 25  1  0  0  0
  2 76  1  0  0  0
  2 77  1  0  0  0
  3  4  1  0  0  0
  3 78  1  0  0  0
  3 79  1  0  0  0
  4  5  1  0  0  0
  4 80  1  0  0  0
  4 81  1  0  0  0
  5  6  1  0  0  0
  5 26  1  0  0  0
  5 82  1  0  0  0
  6 25  1  0  0  0
  6 83  1  0  0  0
  6 84  1  0  0  0
  7  8  2  0  0  0
  7 26  1  0  0  0
  7 29  1  0  0  0
  8  9  1  0  0  0
  8 22  1  0  0  0
  9 10  1  0  0  0
  9 27  2  0  0  0
 10 11  2  0  0  0
 10 15  1  0  0  0
 11 12  1  0  0  0
 11 85  1  0  0  0
 12 13  2  0  0  0
 12 86  1  0  0  0
 13 14  1  0  0  0
 13 31  1  0  0  0
 14 15  2  0  0  0
 14 87  1  0  0  0
 15 88  1  0  0  0
 16 17  2  0  0  0
 16 21  1  0  0  0
 16 31  1  0  0  0
 17 18  1  0  0  0
 17 89  1  0  0  0
 18 19  2  0  0  0
 18 90  1  0  0  0
 19 20  1  0  0  0
 19 24  1  0  0  0
 20 21  2  0  0  0
 20 91  1  0  0  0
 21 23  1  0  0  0
 22 28  1  0  0  0
 22 32  2  0  0  0
 26 27  1  0  0  0
 28 92  1  0  0  0
 28 93  1  0  0  0
 29 94  1  0  0  0
 29 95  1  0  0  0
 33 34  1  0  0  0
 33 66  1  0  0  0
 33 70  2  0  0  0
 34 36  1  0  0  0
 34 59  1  0  0  0
 34 96  1  0  0  0
 35 44  2  0  0  0
 35 45  1  0  0  0
 35 68  1  0  0  0
 36 56  1  0  0  0
 36 97  1  0  0  0
 37 39  1  0  0  0
 37 47  1  0  0  0
 37 66  1  0  0  0
 37 98  1  0  0  0
 38 43  2  0  0  0
 38 46  1  0  0  0
 38 47  1  0  0  0
 39 64  1  0  0  0
 39 67  2  0  0  0
 40 52  1  0  0  0
 40 53  2  0  0  0
 40 58  1  0  0  0
 41 99  1  0  0  0
 41100  1  0  0  0
 41101  1  0  0  0
 41 48  1  0  0  0
 42 43  1  0  0  0
 42 66  1  0  0  0
 42102  1  0  0  0
 42103  1  0  0  0
 43 44  1  0  0  0
 44104  1  0  0  0
 45 46  2  0  0  0
 45105  1  0  0  0
 46106  1  0  0  0
 47107  1  0  0  0
 47108  1  0  0  0
 48 56  1  0  0  0
 48 65  1  0  0  0
 48109  1  0  0  0
 49 50  1  0  0  0
 49 53  1  0  0  0
 49 64  1  0  0  0
 49110  1  0  0  0
 50 51  1  0  0  0
 50111  1  0  0  0
 50112  1  0  0  0
 51 52  1  0  0  0
 51113  1  0  0  0
 51114  1  0  0  0
 52115  1  0  0  0
 52116  1  0  0  0
 53 54  1  0  0  0
 54 55  2  0  0  0
 54117  1  0  0  0
 55 57  1  0  0  0
 55118  1  0  0  0
 56 69  2  0  0  0
 57 58  2  0  0  0
 57119  1  0  0  0
 58120  1  0  0  0
 59 60  1  0  0  0
 59 61  1  0  0  0
 59 62  1  0  0  0
 60121  1  0  0  0
 60122  1  0  0  0
 60123  1  0  0  0
 61124  1  0  0  0
 61125  1  0  0  0
 61126  1  0  0  0
 62127  1  0  0  0
 62128  1  0  0  0
 62129  1  0  0  0
 63 65  1  0  0  0
 63130  1  0  0  0
 63131  1  0  0  0
 63132  1  0  0  0
 64133  1  0  0  0
 65134  1  0  0  0
 68 74  1  0  0  0
 71 75  1  0  0  0
 71135  1  0  0  0
 71136  1  0  0  0
 71137  1  0  0  0
 72 73  1  0  0  0
 72 74  1  0  0  0
 72138  1  0  0  0
 72139  1  0  0  0
 73 75  1  0  0  0
 73140  1  0  0  0
 73141  1  0  0  0
 74142  1  0  0  0
 74143  1  0  0  0
M  ISO  4   1 100  68 101  74 101  75 100
M  END
> <chiral flag>
0

> <version>
0

> <s_m_source_file>
/data/baiqing/PycharmProjects/Reinvent-master-3.2/result/LINK_invent/BTK/process_docking_weight1_custom_sum_contain_oxygen_bond_distance_aromatic_linkinvent_7_9_3/rearranged_h_0003.sdf

> <i_m_source_file_index>
35

> <r_mmod_Potential_Energy-OPLS-2005>
4303.49072265625

> <r_mmod_Stretch_Energy-OPLS-2005>
1937.3203125

> <r_mmod_Bend_Energy-OPLS-2005>
891.069641113281

> <r_mmod_Torsional_Energy-OPLS-2005>
308.0107421875

> <r_mmod_Improper_Torsional_Energy-OPLS-2005>
4.89766931533813

> <r_mmod_Van_der_Waal_Energy-OPLS-2005>
112.25927734375

> <r_mmod_Electrostatic_Energy-OPLS-2005>
-274.442291259766

> <r_mmod_Solvation_Energy-OPLS-2005>
-215.008483886719

> <b_mmod_Minimization_Converged-OPLS-2005>
0

> <r_mmod_RMS_Derivative-OPLS-2005>
2.3036835193634

$$$$
36
                    3D
 Structure written by MMmdl.
167175  0  0  1  0            999 V2000
  -30.7273  -14.4084   20.5959 C   0  0  0  0  0  0
  -30.4173  -12.2726   19.4187 C   0  0  0  0  0  0
  -29.4965  -12.5084   18.2057 C   0  0  0  0  0  0
  -28.0170  -12.3669   18.6119 C   0  0  0  0  0  0
  -27.6659  -13.1948   19.8770 C   0  0  2  0  0  0
  -28.7018  -12.9568   20.9974 C   0  0  0  0  0  0
  -25.2627  -13.8109   20.5651 C   0  0  0  0  0  0
  -24.1850  -13.0410   20.9126 C   0  0  0  0  0  0
  -24.6395  -11.6872   20.8693 C   0  0  0  0  0  0
  -23.9052  -10.4277   21.0384 C   0  0  0  0  0  0
  -24.3610   -9.4206   21.9173 C   0  0  0  0  0  0
  -23.6290   -8.2247   22.0765 C   0  0  0  0  0  0
  -22.4275   -8.0281   21.3553 C   0  0  0  0  0  0
  -21.9901   -9.0249   20.4652 C   0  0  0  0  0  0
  -22.7222  -10.2122   20.3045 C   0  0  0  0  0  0
  -21.6852   -6.0729   22.5273 C   0  0  0  0  0  0
  -21.4011   -6.5633   23.8204 C   0  0  0  0  0  0
  -21.3671   -5.6787   24.9165 C   0  0  0  0  0  0
  -21.6060   -4.3050   24.7213 C   0  0  0  0  0  0
  -21.8821   -3.8140   23.4331 C   0  0  0  0  0  0
  -21.9186   -4.6955   22.3388 C   0  0  0  0  0  0
  -22.7877  -13.5237   21.1783 C   0  0  0  0  0  0
  -22.1658   -4.2142   21.0964 F   0  0  0  0  0  0
  -21.5638   -3.4537   25.7728 F   0  0  0  0  0  0
  -30.0399  -13.2454   20.4541 N   0  0  0  0  0  0
  -26.3049  -12.9259   20.3352 N   0  0  0  0  0  0
  -25.9316  -11.6425   20.5725 N   0  0  0  0  0  0
  -22.0492  -12.8273   22.0350 N   0  0  0  0  0  0
  -25.4396  -15.1810   20.4101 N   0  0  0  0  0  0
  -31.8465  -14.5913   20.1047 O   0  0  0  0  0  0
  -21.6643   -6.8875   21.4241 O   0  0  0  0  0  0
  -22.3574  -14.5541   20.6610 O   0  0  0  0  0  0
  -24.6137  -31.8689   23.2149 C   0  0  0  0  0  0
  -25.9045  -32.4824   23.8423 C   0  0  1  0  0  0
  -27.2288  -27.4520   20.0728 C   0  0  0  0  0  0
  -25.5910  -33.8619   24.2355 N   0  0  0  0  0  0
  -23.3994  -30.4980   21.5541 C   0  0  2  0  0  0
  -24.8400  -28.9700   20.1155 C   0  0  0  0  0  0
  -22.7403  -29.4668   22.4986 C   0  0  0  0  0  0
  -18.0267  -28.1362   22.8512 C   0  0  0  0  0  0
  -24.1468  -36.7311   23.2639 C   0  0  0  0  0  0
  -25.9290  -30.8367   21.3687 C   0  0  0  0  0  0
  -26.0019  -29.4745   20.7121 C   0  0  0  0  0  0
  -27.1948  -28.7200   20.6943 C   0  0  0  0  0  0
  -26.0412  -26.9641   19.4698 C   0  0  0  0  0  0
  -24.8520  -27.7124   19.4964 C   0  0  0  0  0  0
  -23.6051  -29.8372   20.1669 C   0  0  0  0  0  0
  -25.4089  -36.3109   24.0346 C   0  0  1  0  0  0
  -20.5860  -28.3642   23.1324 C   0  0  2  0  0  0
  -20.6755  -26.9377   22.5423 C   0  0  0  0  0  0
  -19.5729  -26.6374   21.5223 C   0  0  0  0  0  0
  -18.1912  -26.7910   22.1638 C   0  0  0  0  0  0
  -19.1519  -28.8821   23.2915 C   0  0  0  0  0  0
  -18.9451  -30.1435   23.8905 C   0  0  0  0  0  0
  -17.6453  -30.6572   24.0566 C   0  0  0  0  0  0
  -25.9024  -34.9474   23.5146 C   0  0  0  0  0  0
  -16.5340  -29.9077   23.6330 C   0  0  0  0  0  0
  -16.7257  -28.6496   23.0352 C   0  0  0  0  0  0
  -26.4485  -31.6583   25.0735 C   0  0  0  0  0  0
  -25.3781  -31.3677   26.1507 C   0  0  0  0  0  0
  -27.0320  -30.3026   24.6101 C   0  0  0  0  0  0
  -27.6055  -32.4306   25.7495 C   0  0  0  0  0  0
  -27.5565  -37.1809   24.8468 C   0  0  0  0  0  0
  -21.4126  -29.3022   22.3735 N   0  0  0  0  0  0
  -26.4272  -37.3804   23.9421 N   0  0  0  0  0  0
  -24.6658  -31.0820   22.1036 N   0  0  0  0  0  0
  -23.4190  -28.8194   23.3004 O   0  0  0  0  0  0
  -28.4147  -26.7438   20.0755 O   0  0  0  0  0  0
  -26.5568  -34.8924   22.4692 O   0  0  0  0  0  0
  -23.5339  -32.1423   23.7567 O   0  0  0  0  0  0
  -31.7332  -18.7387   21.1436 C   0  0  0  0  0  0
  -31.0651  -19.3327   20.0587 C   0  0  0  0  0  0
  -31.3754  -17.4437   21.5600 C   0  0  0  0  0  0
  -30.0138  -18.6505   19.4183 C   0  0  0  0  0  0
  -30.3397  -16.7509   20.8970 C   0  0  0  0  0  0
  -29.6098  -17.3667   19.8534 C   0  0  0  0  0  0
  -27.1772  -20.3733   19.5322 C   0  0  0  0  0  0
  -26.5615  -19.5063   18.4297 C   0  0  0  0  0  0
  -26.5664  -17.9888   18.7281 C   0  0  0  0  0  0
  -29.6342  -23.2153   19.2882 C   0  0  0  0  0  0
  -29.6755  -24.6465   19.8610 C   0  0  0  0  0  0
  -28.7001  -22.2533   20.0562 C   0  0  0  0  0  0
  -27.7971  -17.1966   18.2317 C   0  0  0  0  0  0
  -28.3767  -25.4115   19.5680 C   0  0  0  0  0  0
  -30.0734  -15.3989   21.2180 N   0  0  0  0  0  0
  -28.0555  -21.3077   19.1513 N   0  0  0  0  0  0
  -26.8483  -20.2147   20.7091 O   0  0  0  0  0  0
  -28.5697  -16.6480   19.2986 O   0  0  0  0  0  0
  -31.4647  -12.3577   19.1233 H   0  0  0  0  0  0
  -30.3015  -11.2554   19.7987 H   0  0  0  0  0  0
  -29.7368  -11.8046   17.4083 H   0  0  0  0  0  0
  -29.6717  -13.5061   17.7984 H   0  0  0  0  0  0
  -27.8236  -11.3083   18.7932 H   0  0  0  0  0  0
  -27.3722  -12.6539   17.7806 H   0  0  0  0  0  0
  -27.7189  -14.2436   19.5910 H   0  0  0  0  0  0
  -28.6635  -11.9183   21.3306 H   0  0  0  0  0  0
  -28.4656  -13.5504   21.8801 H   0  0  0  0  0  0
  -25.2759   -9.5693   22.4728 H   0  0  0  0  0  0
  -23.9995   -7.4657   22.7500 H   0  0  0  0  0  0
  -21.0827   -8.8759   19.8983 H   0  0  0  0  0  0
  -22.3681  -10.9649   19.6143 H   0  0  0  0  0  0
  -21.2005   -7.6142   23.9703 H   0  0  0  0  0  0
  -21.1503   -6.0516   25.9071 H   0  0  0  0  0  0
  -22.0595   -2.7603   23.2821 H   0  0  0  0  0  0
  -22.4085  -11.9956   22.4798 H   0  0  0  0  0  0
  -21.1115  -13.1350   22.2505 H   0  0  0  0  0  0
  -24.6765  -15.8383   20.5251 H   0  0  0  0  0  0
  -26.3078  -15.6186   20.1275 H   0  0  0  0  0  0
  -26.7111  -32.5540   23.1186 H   0  0  0  0  0  0
  -25.0116  -33.9778   25.0537 H   0  0  0  0  0  0
  -22.6874  -31.3151   21.4203 H   0  0  0  0  0  0
  -23.3726  -35.9652   23.3322 H   0  0  0  0  0  0
  -24.3562  -36.8897   22.2050 H   0  0  0  0  0  0
  -23.7226  -37.6527   23.6627 H   0  0  0  0  0  0
  -26.0450  -31.6062   20.6040 H   0  0  0  0  0  0
  -26.8166  -30.8832   21.9875 H   0  0  0  0  0  0
  -28.0919  -29.1058   21.1589 H   0  0  0  0  0  0
  -26.0002  -26.0143   18.9591 H   0  0  0  0  0  0
  -23.9586  -27.3215   19.0278 H   0  0  0  0  0  0
  -23.7173  -30.6120   19.4083 H   0  0  0  0  0  0
  -22.7288  -29.2585   19.8708 H   0  0  0  0  0  0
  -25.1265  -36.1981   25.0843 H   0  0  0  0  0  0
  -20.9964  -28.3207   24.1436 H   0  0  0  0  0  0
  -20.5656  -26.2248   23.3608 H   0  0  0  0  0  0
  -21.6627  -26.7413   22.1215 H   0  0  0  0  0  0
  -19.6876  -25.6296   21.1225 H   0  0  0  0  0  0
  -19.6661  -27.3211   20.6776 H   0  0  0  0  0  0
  -17.4183  -26.6678   21.4030 H   0  0  0  0  0  0
  -18.0288  -26.0035   22.9015 H   0  0  0  0  0  0
  -19.7926  -30.7260   24.2254 H   0  0  0  0  0  0
  -17.5004  -31.6248   24.5171 H   0  0  0  0  0  0
  -15.5342  -30.2979   23.7634 H   0  0  0  0  0  0
  -15.8662  -28.0820   22.7039 H   0  0  0  0  0  0
  -24.5950  -30.7013   25.7876 H   0  0  0  0  0  0
  -24.8983  -32.2826   26.4984 H   0  0  0  0  0  0
  -25.8181  -30.8849   27.0242 H   0  0  0  0  0  0
  -26.2860  -29.6775   24.1176 H   0  0  0  0  0  0
  -27.4115  -29.7275   25.4557 H   0  0  0  0  0  0
  -27.8688  -30.4346   23.9240 H   0  0  0  0  0  0
  -27.2653  -33.3585   26.2105 H   0  0  0  0  0  0
  -28.3847  -32.6890   25.0313 H   0  0  0  0  0  0
  -28.0735  -31.8412   26.5387 H   0  0  0  0  0  0
  -28.2602  -38.0088   24.7508 H   0  0  0  0  0  0
  -28.1040  -36.2622   24.6302 H   0  0  0  0  0  0
  -27.2287  -37.1484   25.8874 H   0  0  0  0  0  0
  -20.9260  -29.8773   21.6999 H   0  0  0  0  0  0
  -26.0159  -38.2881   24.1439 H   0  0  0  0  0  0
  -32.5391  -19.2661   21.6353 H   0  0  0  0  0  0
  -31.3563  -20.3163   19.7149 H   0  0  0  0  0  0
  -31.9197  -16.9756   22.3674 H   0  0  0  0  0  0
  -29.5368  -19.1423   18.5878 H   0  0  0  0  0  0
  -27.0170  -19.7115   17.4595 H   0  0  0  0  0  0
  -25.5264  -19.8371   18.3395 H   0  0  0  0  0  0
  -25.6880  -17.5662   18.2362 H   0  0  0  0  0  0
  -26.4026  -17.8009   19.7896 H   0  0  0  0  0  0
  -30.6425  -22.7980   19.2867 H   0  0  0  0  0  0
  -29.3419  -23.2755   18.2388 H   0  0  0  0  0  0
  -30.5091  -25.1902   19.4133 H   0  0  0  0  0  0
  -29.8684  -24.6204   20.9339 H   0  0  0  0  0  0
  -27.9206  -22.7893   20.5962 H   0  0  0  0  0  0
  -29.2651  -21.7068   20.8134 H   0  0  0  0  0  0
  -28.3867  -17.7311   17.4863 H   0  0  0  0  0  0
  -27.4218  -16.3253   17.6935 H   0  0  0  0  0  0
  -27.5472  -24.8703   20.0224 H   0  0  0  0  0  0
  -28.2053  -25.4411   18.4911 H   0  0  0  0  0  0
  -29.1348  -15.1749   21.5097 H   0  0  0  0  0  0
  -28.2710  -21.3806   18.1659 H   0  0  0  0  0  0
  1 25  1  0  0  0
  1 30  2  0  0  0
  1 85  1  0  0  0
  2  3  1  0  0  0
  2 25  1  0  0  0
  2 89  1  0  0  0
  2 90  1  0  0  0
  3  4  1  0  0  0
  3 91  1  0  0  0
  3 92  1  0  0  0
  4  5  1  0  0  0
  4 93  1  0  0  0
  4 94  1  0  0  0
  5  6  1  0  0  0
  5 26  1  0  0  0
  5 95  1  0  0  0
  6 25  1  0  0  0
  6 96  1  0  0  0
  6 97  1  0  0  0
  7  8  2  0  0  0
  7 26  1  0  0  0
  7 29  1  0  0  0
  8  9  1  0  0  0
  8 22  1  0  0  0
  9 10  1  0  0  0
  9 27  2  0  0  0
 10 11  2  0  0  0
 10 15  1  0  0  0
 11 12  1  0  0  0
 11 98  1  0  0  0
 12 13  2  0  0  0
 12 99  1  0  0  0
 13 14  1  0  0  0
 13 31  1  0  0  0
 14 15  2  0  0  0
 14100  1  0  0  0
 15101  1  0  0  0
 16 17  2  0  0  0
 16 21  1  0  0  0
 16 31  1  0  0  0
 17 18  1  0  0  0
 17102  1  0  0  0
 18 19  2  0  0  0
 18103  1  0  0  0
 19 20  1  0  0  0
 19 24  1  0  0  0
 20 21  2  0  0  0
 20104  1  0  0  0
 21 23  1  0  0  0
 22 28  1  0  0  0
 22 32  2  0  0  0
 26 27  1  0  0  0
 28105  1  0  0  0
 28106  1  0  0  0
 29107  1  0  0  0
 29108  1  0  0  0
 33 34  1  0  0  0
 33 66  1  0  0  0
 33 70  2  0  0  0
 34 36  1  0  0  0
 34 59  1  0  0  0
 34109  1  0  0  0
 35 44  2  0  0  0
 35 45  1  0  0  0
 35 68  1  0  0  0
 36 56  1  0  0  0
 36110  1  0  0  0
 37 39  1  0  0  0
 37 47  1  0  0  0
 37 66  1  0  0  0
 37111  1  0  0  0
 38 43  2  0  0  0
 38 46  1  0  0  0
 38 47  1  0  0  0
 39 64  1  0  0  0
 39 67  2  0  0  0
 40 52  1  0  0  0
 40 53  2  0  0  0
 40 58  1  0  0  0
 41112  1  0  0  0
 41113  1  0  0  0
 41114  1  0  0  0
 41 48  1  0  0  0
 42 43  1  0  0  0
 42 66  1  0  0  0
 42115  1  0  0  0
 42116  1  0  0  0
 43 44  1  0  0  0
 44117  1  0  0  0
 45 46  2  0  0  0
 45118  1  0  0  0
 46119  1  0  0  0
 47120  1  0  0  0
 47121  1  0  0  0
 48 56  1  0  0  0
 48 65  1  0  0  0
 48122  1  0  0  0
 49 50  1  0  0  0
 49 53  1  0  0  0
 49 64  1  0  0  0
 49123  1  0  0  0
 50 51  1  0  0  0
 50124  1  0  0  0
 50125  1  0  0  0
 51 52  1  0  0  0
 51126  1  0  0  0
 51127  1  0  0  0
 52128  1  0  0  0
 52129  1  0  0  0
 53 54  1  0  0  0
 54 55  2  0  0  0
 54130  1  0  0  0
 55 57  1  0  0  0
 55131  1  0  0  0
 56 69  2  0  0  0
 57 58  2  0  0  0
 57132  1  0  0  0
 58133  1  0  0  0
 59 60  1  0  0  0
 59 61  1  0  0  0
 59 62  1  0  0  0
 60134  1  0  0  0
 60135  1  0  0  0
 60136  1  0  0  0
 61137  1  0  0  0
 61138  1  0  0  0
 61139  1  0  0  0
 62140  1  0  0  0
 62141  1  0  0  0
 62142  1  0  0  0
 63 65  1  0  0  0
 63143  1  0  0  0
 63144  1  0  0  0
 63145  1  0  0  0
 64146  1  0  0  0
 65147  1  0  0  0
 68 84  1  0  0  0
 71 72  2  0  0  0
 71 73  1  0  0  0
 71148  1  0  0  0
 72 74  1  0  0  0
 72149  1  0  0  0
 73 75  2  0  0  0
 73150  1  0  0  0
 74 76  2  0  0  0
 74151  1  0  0  0
 75 76  1  0  0  0
 75 85  1  0  0  0
 76 88  1  0  0  0
 77 78  1  0  0  0
 77 86  1  0  0  0
 77 87  2  0  0  0
 78 79  1  0  0  0
 78152  1  0  0  0
 78153  1  0  0  0
 79 83  1  0  0  0
 79154  1  0  0  0
 79155  1  0  0  0
 80 81  1  0  0  0
 80 82  1  0  0  0
 80156  1  0  0  0
 80157  1  0  0  0
 81 84  1  0  0  0
 81158  1  0  0  0
 81159  1  0  0  0
 82 86  1  0  0  0
 82160  1  0  0  0
 82161  1  0  0  0
 83 88  1  0  0  0
 83162  1  0  0  0
 83163  1  0  0  0
 84164  1  0  0  0
 84165  1  0  0  0
 85166  1  0  0  0
 86167  1  0  0  0
M  ISO  4   1 100  68 101  84 101  85 100
M  END
> <chiral flag>
0

> <version>
0

> <s_m_source_file>
/data/baiqing/PycharmProjects/Reinvent-master-3.2/result/LINK_invent/BTK/process_docking_weight1_custom_sum_contain_oxygen_bond_distance_aromatic_linkinvent_7_9_3/rearranged_h_0003.sdf

> <i_m_source_file_index>
36

> <r_mmod_Potential_Energy-OPLS-2005>
-167.988403320312

> <r_mmod_Stretch_Energy-OPLS-2005>
33.3752670288086

> <r_mmod_Bend_Energy-OPLS-2005>
107.58317565918

> <r_mmod_Torsional_Energy-OPLS-2005>
246.799468994141

> <r_mmod_Improper_Torsional_Energy-OPLS-2005>
4.90032958984375

> <r_mmod_Van_der_Waal_Energy-OPLS-2005>
152.814895629883

> <r_mmod_Electrostatic_Energy-OPLS-2005>
-489.028076171875

> <r_mmod_Solvation_Energy-OPLS-2005>
-234.771789550781

> <b_mmod_Minimization_Converged-OPLS-2005>
0

> <r_mmod_RMS_Derivative-OPLS-2005>
2.29935359954834

$$$$
37
                    3D
 Structure written by MMmdl.
169177  0  0  1  0            999 V2000
  -30.6935  -14.4358   20.6530 C   0  0  0  0  0  0
  -30.4289  -12.3379   19.3669 C   0  0  0  0  0  0
  -29.4780  -12.5502   18.1696 C   0  0  0  0  0  0
  -28.0050  -12.3911   18.5970 C   0  0  0  0  0  0
  -27.6630  -13.2023   19.8772 C   0  0  2  0  0  0
  -28.7107  -12.9230   20.9758 C   0  0  0  0  0  0
  -25.2628  -13.8127   20.5693 C   0  0  0  0  0  0
  -24.1861  -13.0420   20.9199 C   0  0  0  0  0  0
  -24.6385  -11.6877   20.8736 C   0  0  0  0  0  0
  -23.9036  -10.4272   21.0397 C   0  0  0  0  0  0
  -24.3571   -9.4184   21.9189 C   0  0  0  0  0  0
  -23.6246   -8.2222   22.0767 C   0  0  0  0  0  0
  -22.4230   -8.0245   21.3533 C   0  0  0  0  0  0
  -21.9854   -9.0235   20.4643 C   0  0  0  0  0  0
  -22.7201  -10.2119   20.3053 C   0  0  0  0  0  0
  -21.6843   -6.0692   22.5267 C   0  0  0  0  0  0
  -21.4004   -6.5606   23.8201 C   0  0  0  0  0  0
  -21.3677   -5.6782   24.9182 C   0  0  0  0  0  0
  -21.6056   -4.3042   24.7241 C   0  0  0  0  0  0
  -21.8818   -3.8114   23.4364 C   0  0  0  0  0  0
  -21.9188   -4.6920   22.3410 C   0  0  0  0  0  0
  -22.7883  -13.5247   21.1874 C   0  0  0  0  0  0
  -22.1654   -4.2096   21.0995 F   0  0  0  0  0  0
  -21.5643   -3.4527   25.7765 F   0  0  0  0  0  0
  -30.0230  -13.2792   20.4213 N   0  0  0  0  0  0
  -26.3049  -12.9284   20.3386 N   0  0  0  0  0  0
  -25.9306  -11.6433   20.5718 N   0  0  0  0  0  0
  -22.0477  -12.8260   22.0407 N   0  0  0  0  0  0
  -25.4371  -15.1843   20.4074 N   0  0  0  0  0  0
  -31.8092  -14.6701   20.1725 O   0  0  0  0  0  0
  -21.6623   -6.8822   21.4211 O   0  0  0  0  0  0
  -22.3603  -14.5568   20.6732 O   0  0  0  0  0  0
  -24.6086  -31.8724   23.2149 C   0  0  0  0  0  0
  -25.9033  -32.4842   23.8413 C   0  0  1  0  0  0
  -27.2280  -27.4547   20.0590 C   0  0  0  0  0  0
  -25.5887  -33.8648   24.2329 N   0  0  0  0  0  0
  -23.3918  -30.4981   21.5527 C   0  0  2  0  0  0
  -24.8402  -28.9702   20.1115 C   0  0  0  0  0  0
  -22.7293  -29.4707   22.4959 C   0  0  0  0  0  0
  -18.0184  -28.1395   22.8480 C   0  0  0  0  0  0
  -24.1504  -36.7297   23.2641 C   0  0  0  0  0  0
  -25.9273  -30.8351   21.3794 C   0  0  0  0  0  0
  -25.9993  -29.4764   20.7118 C   0  0  0  0  0  0
  -27.1921  -28.7191   20.6919 C   0  0  0  0  0  0
  -26.0470  -26.9722   19.4445 C   0  0  0  0  0  0
  -24.8565  -27.7155   19.4813 C   0  0  0  0  0  0
  -23.6020  -29.8320   20.1663 C   0  0  0  0  0  0
  -25.4134  -36.3117   24.0318 C   0  0  1  0  0  0
  -20.5777  -28.3676   23.1275 C   0  0  2  0  0  0
  -20.6750  -26.9489   22.5248 C   0  0  0  0  0  0
  -19.5701  -26.6600   21.5035 C   0  0  0  0  0  0
  -18.1928  -26.7998   22.1514 C   0  0  0  0  0  0
  -19.1441  -28.8826   23.2900 C   0  0  0  0  0  0
  -18.9373  -30.1355   23.9000 C   0  0  0  0  0  0
  -17.6399  -30.6554   24.0639 C   0  0  0  0  0  0
  -25.9043  -34.9475   23.5131 C   0  0  0  0  0  0
  -16.5280  -29.9083   23.6403 C   0  0  0  0  0  0
  -16.7184  -28.6515   23.0358 C   0  0  0  0  0  0
  -26.4482  -31.6617   25.0735 C   0  0  0  0  0  0
  -25.3718  -31.3716   26.1436 C   0  0  0  0  0  0
  -27.0327  -30.3033   24.6199 C   0  0  0  0  0  0
  -27.6044  -32.4337   25.7494 C   0  0  0  0  0  0
  -27.5579  -37.1798   24.8444 C   0  0  0  0  0  0
  -21.4040  -29.3096   22.3702 N   0  0  0  0  0  0
  -26.4317  -37.3782   23.9381 N   0  0  0  0  0  0
  -24.6579  -31.0822   22.1054 N   0  0  0  0  0  0
  -23.4055  -28.8217   23.3006 O   0  0  0  0  0  0
  -28.4138  -26.7462   20.0598 O   0  0  0  0  0  0
  -26.5616  -34.8877   22.4708 O   0  0  0  0  0  0
  -23.5283  -32.1531   23.7528 O   0  0  0  0  0  0
  -31.9936  -16.8202   24.1247 C   0  0  0  0  0  0
  -31.3170  -18.0303   24.3466 C   0  0  0  0  0  0
  -31.5790  -15.9645   23.0933 C   0  0  0  0  0  0
  -30.1967  -18.3624   23.5602 C   0  0  0  0  0  0
  -30.4603  -16.2922   22.2870 C   0  0  0  0  0  0
  -29.7498  -17.5001   22.5221 C   0  0  0  0  0  0
  -26.2673  -22.5548   17.9585 C   0  0  0  0  0  0
  -27.8879  -24.3151   20.1197 C   0  0  0  0  0  0
  -28.2324  -22.9129   19.5299 C   0  0  0  0  0  0
  -26.9630  -19.2881   20.7655 C   0  0  0  0  0  0
  -25.9804  -20.4758   21.0217 C   0  0  0  0  0  0
  -28.5136  -25.5032   19.3518 C   0  0  0  0  0  0
  -28.1099  -19.1276   21.7856 C   0  0  0  0  0  0
  -27.0357  -21.9975   19.1713 C   0  0  1  0  0  0
  -29.9898  -15.3764   21.3066 N   0  0  0  0  0  0
  -26.1468  -21.8019   20.3448 N   0  3  0  0  0  0
  -28.6593  -17.8020   21.7169 O   0  0  0  0  0  0
  -31.4674  -12.4742   19.0542 H   0  0  0  0  0  0
  -30.3600  -11.3113   19.7298 H   0  0  0  0  0  0
  -29.7092  -11.8350   17.3799 H   0  0  0  0  0  0
  -29.6337  -13.5395   17.7346 H   0  0  0  0  0  0
  -27.8246  -11.3299   18.7702 H   0  0  0  0  0  0
  -27.3359  -12.6725   17.7821 H   0  0  0  0  0  0
  -27.7207  -14.2618   19.6232 H   0  0  0  0  0  0
  -28.7058  -11.8618   21.2357 H   0  0  0  0  0  0
  -28.4754  -13.4445   21.9049 H   0  0  0  0  0  0
  -25.2693   -9.5665   22.4788 H   0  0  0  0  0  0
  -23.9948   -7.4611   22.7475 H   0  0  0  0  0  0
  -21.0806   -8.8757   19.8936 H   0  0  0  0  0  0
  -22.3653  -10.9662   19.6176 H   0  0  0  0  0  0
  -21.1970   -7.6112   23.9685 H   0  0  0  0  0  0
  -21.1521   -6.0519   25.9092 H   0  0  0  0  0  0
  -22.0578   -2.7554   23.2898 H   0  0  0  0  0  0
  -22.4031  -11.9915   22.4865 H   0  0  0  0  0  0
  -21.1078  -13.1293   22.2551 H   0  0  0  0  0  0
  -24.6651  -15.8313   20.5008 H   0  0  0  0  0  0
  -26.2907  -15.6227   20.0834 H   0  0  0  0  0  0
  -26.7106  -32.5520   23.1164 H   0  0  0  0  0  0
  -24.9990  -33.9825   25.0435 H   0  0  0  0  0  0
  -22.6763  -31.3140   21.4166 H   0  0  0  0  0  0
  -23.3762  -35.9629   23.3343 H   0  0  0  0  0  0
  -24.3590  -36.8902   22.2047 H   0  0  0  0  0  0
  -23.7252  -37.6502   23.6655 H   0  0  0  0  0  0
  -26.0657  -31.6255   20.6419 H   0  0  0  0  0  0
  -26.8008  -30.8579   22.0203 H   0  0  0  0  0  0
  -28.0899  -29.1106   21.1488 H   0  0  0  0  0  0
  -26.0212  -26.0300   18.9205 H   0  0  0  0  0  0
  -23.9673  -27.3271   19.0066 H   0  0  0  0  0  0
  -23.6959  -30.6048   19.4035 H   0  0  0  0  0  0
  -22.7272  -29.2490   19.8751 H   0  0  0  0  0  0
  -25.1330  -36.1996   25.0806 H   0  0  0  0  0  0
  -20.9833  -28.3192   24.1396 H   0  0  0  0  0  0
  -20.5683  -26.2228   23.3321 H   0  0  0  0  0  0
  -21.6604  -26.7583   22.0991 H   0  0  0  0  0  0
  -19.6839  -25.6608   21.0750 H   0  0  0  0  0  0
  -19.6584  -27.3649   20.6789 H   0  0  0  0  0  0
  -17.4296  -26.6861   21.3826 H   0  0  0  0  0  0
  -18.0285  -25.9990   22.8728 H   0  0  0  0  0  0
  -19.7853  -30.7129   24.2473 H   0  0  0  0  0  0
  -17.5000  -31.6228   24.5250 H   0  0  0  0  0  0
  -15.5324  -30.3103   23.7646 H   0  0  0  0  0  0
  -15.8538  -28.0880   22.7064 H   0  0  0  0  0  0
  -24.5896  -30.7104   25.7701 H   0  0  0  0  0  0
  -24.8906  -32.2877   26.4865 H   0  0  0  0  0  0
  -25.8010  -30.8844   27.0209 H   0  0  0  0  0  0
  -26.2919  -29.6774   24.1230 H   0  0  0  0  0  0
  -27.4008  -29.7287   25.4721 H   0  0  0  0  0  0
  -27.8789  -30.4281   23.9438 H   0  0  0  0  0  0
  -27.2672  -33.3627   26.2094 H   0  0  0  0  0  0
  -28.3837  -32.6942   25.0322 H   0  0  0  0  0  0
  -28.0751  -31.8478   26.5407 H   0  0  0  0  0  0
  -28.2598  -38.0088   24.7495 H   0  0  0  0  0  0
  -28.1068  -36.2621   24.6313 H   0  0  0  0  0  0
  -27.2247  -37.1464   25.8823 H   0  0  0  0  0  0
  -20.9232  -29.8756   21.6846 H   0  0  0  0  0  0
  -26.0213  -38.2856   24.1411 H   0  0  0  0  0  0
  -32.8330  -16.5467   24.7529 H   0  0  0  0  0  0
  -31.6564  -18.6948   25.1267 H   0  0  0  0  0  0
  -32.1130  -15.0392   22.9420 H   0  0  0  0  0  0
  -29.6912  -19.2846   23.7898 H   0  0  0  0  0  0
  -25.8505  -23.5464   18.1392 H   0  0  0  0  0  0
  -25.4572  -21.8943   17.6494 H   0  0  0  0  0  0
  -26.9369  -22.6332   17.1054 H   0  0  0  0  0  0
  -28.2689  -24.3518   21.1407 H   0  0  0  0  0  0
  -26.8121  -24.4531   20.2110 H   0  0  0  0  0  0
  -28.8481  -23.0272   18.6367 H   0  0  0  0  0  0
  -28.8603  -22.3773   20.2418 H   0  0  0  0  0  0
  -27.3188  -19.2143   19.7421 H   0  0  0  0  0  0
  -26.3625  -18.3837   20.8761 H   0  0  0  0  0  0
  -25.9344  -20.6744   22.0945 H   0  0  0  0  0  0
  -24.9769  -20.1366   20.7658 H   0  0  0  0  0  0
  -28.1229  -25.5827   18.3376 H   0  0  0  0  0  0
  -29.5800  -25.3084   19.2325 H   0  0  0  0  0  0
  -27.7259  -19.3122   22.7897 H   0  0  0  0  0  0
  -28.8879  -19.8696   21.5925 H   0  0  0  0  0  0
  -27.4407  -21.0469   18.8346 H   0  0  0  0  0  0
  -28.9859  -15.2804   21.2668 H   0  0  0  0  0  0
  -26.3978  -22.4833   21.0440 H   0  0  0  0  0  0
  -25.2226  -22.0737   20.0468 H   0  0  0  0  0  0
  1 25  1  0  0  0
  1 30  2  0  0  0
  1 85  1  0  0  0
  2  3  1  0  0  0
  2 25  1  0  0  0
  2 88  1  0  0  0
  2 89  1  0  0  0
  3  4  1  0  0  0
  3 90  1  0  0  0
  3 91  1  0  0  0
  4  5  1  0  0  0
  4 92  1  0  0  0
  4 93  1  0  0  0
  5  6  1  0  0  0
  5 26  1  0  0  0
  5 94  1  0  0  0
  6 25  1  0  0  0
  6 95  1  0  0  0
  6 96  1  0  0  0
  7  8  2  0  0  0
  7 26  1  0  0  0
  7 29  1  0  0  0
  8  9  1  0  0  0
  8 22  1  0  0  0
  9 10  1  0  0  0
  9 27  2  0  0  0
 10 11  2  0  0  0
 10 15  1  0  0  0
 11 12  1  0  0  0
 11 97  1  0  0  0
 12 13  2  0  0  0
 12 98  1  0  0  0
 13 14  1  0  0  0
 13 31  1  0  0  0
 14 15  2  0  0  0
 14 99  1  0  0  0
 15100  1  0  0  0
 16 17  2  0  0  0
 16 21  1  0  0  0
 16 31  1  0  0  0
 17 18  1  0  0  0
 17101  1  0  0  0
 18 19  2  0  0  0
 18102  1  0  0  0
 19 20  1  0  0  0
 19 24  1  0  0  0
 20 21  2  0  0  0
 20103  1  0  0  0
 21 23  1  0  0  0
 22 28  1  0  0  0
 22 32  2  0  0  0
 26 27  1  0  0  0
 28104  1  0  0  0
 28105  1  0  0  0
 29106  1  0  0  0
 29107  1  0  0  0
 33 34  1  0  0  0
 33 66  1  0  0  0
 33 70  2  0  0  0
 34 36  1  0  0  0
 34 59  1  0  0  0
 34108  1  0  0  0
 35 44  2  0  0  0
 35 45  1  0  0  0
 35 68  1  0  0  0
 36 56  1  0  0  0
 36109  1  0  0  0
 37 39  1  0  0  0
 37 47  1  0  0  0
 37 66  1  0  0  0
 37110  1  0  0  0
 38 43  2  0  0  0
 38 46  1  0  0  0
 38 47  1  0  0  0
 39 64  1  0  0  0
 39 67  2  0  0  0
 40 52  1  0  0  0
 40 53  2  0  0  0
 40 58  1  0  0  0
 41111  1  0  0  0
 41112  1  0  0  0
 41113  1  0  0  0
 41 48  1  0  0  0
 42 43  1  0  0  0
 42 66  1  0  0  0
 42114  1  0  0  0
 42115  1  0  0  0
 43 44  1  0  0  0
 44116  1  0  0  0
 45 46  2  0  0  0
 45117  1  0  0  0
 46118  1  0  0  0
 47119  1  0  0  0
 47120  1  0  0  0
 48 56  1  0  0  0
 48 65  1  0  0  0
 48121  1  0  0  0
 49 50  1  0  0  0
 49 53  1  0  0  0
 49 64  1  0  0  0
 49122  1  0  0  0
 50 51  1  0  0  0
 50123  1  0  0  0
 50124  1  0  0  0
 51 52  1  0  0  0
 51125  1  0  0  0
 51126  1  0  0  0
 52127  1  0  0  0
 52128  1  0  0  0
 53 54  1  0  0  0
 54 55  2  0  0  0
 54129  1  0  0  0
 55 57  1  0  0  0
 55130  1  0  0  0
 56 69  2  0  0  0
 57 58  2  0  0  0
 57131  1  0  0  0
 58132  1  0  0  0
 59 60  1  0  0  0
 59 61  1  0  0  0
 59 62  1  0  0  0
 60133  1  0  0  0
 60134  1  0  0  0
 60135  1  0  0  0
 61136  1  0  0  0
 61137  1  0  0  0
 61138  1  0  0  0
 62139  1  0  0  0
 62140  1  0  0  0
 62141  1  0  0  0
 63 65  1  0  0  0
 63142  1  0  0  0
 63143  1  0  0  0
 63144  1  0  0  0
 64145  1  0  0  0
 65146  1  0  0  0
 68 82  1  0  0  0
 71 72  2  0  0  0
 71 73  1  0  0  0
 71147  1  0  0  0
 72 74  1  0  0  0
 72148  1  0  0  0
 73 75  2  0  0  0
 73149  1  0  0  0
 74 76  2  0  0  0
 74150  1  0  0  0
 75 76  1  0  0  0
 75 85  1  0  0  0
 76 87  1  0  0  0
 77151  1  0  0  0
 77152  1  0  0  0
 77153  1  0  0  0
 77 84  1  0  0  0
 78 79  1  0  0  0
 78 82  1  0  0  0
 78154  1  0  0  0
 78155  1  0  0  0
 79 84  1  0  0  0
 79156  1  0  0  0
 79157  1  0  0  0
 80 81  1  0  0  0
 80 83  1  0  0  0
 80158  1  0  0  0
 80159  1  0  0  0
 81 86  1  0  0  0
 81160  1  0  0  0
 81161  1  0  0  0
 82162  1  0  0  0
 82163  1  0  0  0
 83 87  1  0  0  0
 83164  1  0  0  0
 83165  1  0  0  0
 84 86  1  0  0  0
 84166  1  0  0  0
 85167  1  0  0  0
 86168  1  0  0  0
 86169  1  0  0  0
M  CHG  1  86   1
M  ISO  4   1 100  68 101  82 101  85 100
M  END
> <chiral flag>
0

> <version>
0

> <s_m_source_file>
/data/baiqing/PycharmProjects/Reinvent-master-3.2/result/LINK_invent/BTK/process_docking_weight1_custom_sum_contain_oxygen_bond_distance_aromatic_linkinvent_7_9_3/rearranged_h_0003.sdf

> <i_m_source_file_index>
37

> <r_mmod_Potential_Energy-OPLS-2005>
-148.000854492188

> <r_mmod_Stretch_Energy-OPLS-2005>
40.3372802734375

> <r_mmod_Bend_Energy-OPLS-2005>
136.555480957031

> <r_mmod_Torsional_Energy-OPLS-2005>
272.077789306641

> <r_mmod_Improper_Torsional_Energy-OPLS-2005>
4.07744693756104

> <r_mmod_Van_der_Waal_Energy-OPLS-2005>
162.258895874023

> <r_mmod_Electrostatic_Energy-OPLS-2005>
-301.643676757812

> <r_mmod_Solvation_Energy-OPLS-2005>
-474.372131347656

> <b_mmod_Minimization_Converged-OPLS-2005>
0

> <r_mmod_RMS_Derivative-OPLS-2005>
7.01803588867188

$$$$
38
                    3D
 Structure written by MMmdl.
142149  0  0  1  0            999 V2000
  -30.3309  -15.6415   20.3152 C   0  0  0  0  0  0
  -30.4268  -13.0465   19.5708 C   0  0  0  0  0  0
  -29.5605  -12.6501   18.3397 C   0  0  0  0  0  0
  -28.1263  -12.3009   18.7670 C   0  0  0  0  0  0
  -27.5869  -13.3135   19.8036 C   0  0  2  0  0  0
  -28.5791  -13.6540   20.9352 C   0  0  0  0  0  0
  -25.2284  -13.8305   20.5762 C   0  0  0  0  0  0
  -24.1681  -13.0443   20.9261 C   0  0  0  0  0  0
  -24.6389  -11.6956   20.8735 C   0  0  0  0  0  0
  -23.9105  -10.4298   21.0389 C   0  0  0  0  0  0
  -24.3649   -9.4216   21.9174 C   0  0  0  0  0  0
  -23.6314   -8.2253   22.0751 C   0  0  0  0  0  0
  -22.4293   -8.0287   21.3545 C   0  0  0  0  0  0
  -21.9933   -9.0258   20.4644 C   0  0  0  0  0  0
  -22.7270  -10.2131   20.3046 C   0  0  0  0  0  0
  -21.6860   -6.0742   22.5283 C   0  0  0  0  0  0
  -21.4020   -6.5644   23.8216 C   0  0  0  0  0  0
  -21.3660   -5.6794   24.9176 C   0  0  0  0  0  0
  -21.6044   -4.3056   24.7225 C   0  0  0  0  0  0
  -21.8819   -3.8150   23.4345 C   0  0  0  0  0  0
  -21.9195   -4.6969   22.3403 C   0  0  0  0  0  0
  -22.7700  -13.5169   21.1923 C   0  0  0  0  0  0
  -22.1663   -4.2154   21.0980 F   0  0  0  0  0  0
  -21.5625   -3.4538   25.7737 F   0  0  0  0  0  0
  -29.7874  -14.2215   20.3102 N   0  0  0  0  0  0
  -26.2701  -12.9635   20.3128 N   0  0  0  0  0  0
  -25.9323  -11.6705   20.5631 N   0  0  0  0  0  0
  -22.0379  -12.8141   22.0483 N   0  0  0  0  0  0
  -25.3919  -15.2050   20.4276 N   0  0  0  0  0  0
  -31.5583  -15.6242   20.1122 O   0  0  0  0  0  0
  -21.6652   -6.8887   21.4247 O   0  0  0  0  0  0
  -22.3368  -14.5466   20.6764 O   0  0  0  0  0  0
  -24.6854  -31.7982   23.1496 C   0  0  0  0  0  0
  -25.9427  -32.4461   23.8052 C   0  0  1  0  0  0
  -27.2269  -26.6859   20.2199 C   0  0  0  0  0  0
  -25.5999  -33.8287   24.1944 N   0  0  0  0  0  0
  -23.5125  -30.3983   21.5043 C   0  0  2  0  0  0
  -24.9695  -28.7342   20.1200 C   0  0  0  0  0  0
  -22.7771  -29.4308   22.4711 C   0  0  0  0  0  0
  -18.0340  -28.1417   22.8458 C   0  0  0  0  0  0
  -24.1495  -36.7144   23.2653 C   0  0  0  0  0  0
  -26.0933  -30.5260   21.4162 C   0  0  0  0  0  0
  -26.1590  -29.0886   20.7671 C   0  0  0  0  0  0
  -27.2723  -28.0935   20.7817 C   0  0  0  0  0  0
  -26.0034  -26.5434   19.5164 C   0  0  0  0  0  0
  -24.9315  -27.4875   19.4708 C   0  0  0  0  0  0
  -23.7672  -29.6921   20.1410 C   0  0  0  0  0  0
  -25.4145  -36.2890   24.0284 C   0  0  1  0  0  0
  -20.5976  -28.3781   23.1138 C   0  0  2  0  0  0
  -20.6804  -26.9438   22.5404 C   0  0  0  0  0  0
  -19.5781  -26.6367   21.5217 C   0  0  0  0  0  0
  -18.1963  -26.7947   22.1619 C   0  0  0  0  0  0
  -19.1606  -28.8925   23.2778 C   0  0  0  0  0  0
  -18.9512  -30.1507   23.8825 C   0  0  0  0  0  0
  -17.6501  -30.6603   24.0547 C   0  0  0  0  0  0
  -25.9127  -34.9283   23.4951 C   0  0  0  0  0  0
  -16.5391  -29.9083   23.6351 C   0  0  0  0  0  0
  -16.7320  -28.6503   23.0372 C   0  0  0  0  0  0
  -26.4600  -31.6503   25.0682 C   0  0  0  0  0  0
  -25.3662  -31.3821   26.1295 C   0  0  0  0  0  0
  -27.0538  -30.2842   24.6594 C   0  0  0  0  0  0
  -27.6050  -32.4366   25.7496 C   0  0  0  0  0  0
  -27.5565  -37.1724   24.8463 C   0  0  0  0  0  0
  -21.4418  -29.3025   22.3455 N   0  0  0  0  0  0
  -26.4266  -37.3656   23.9415 N   0  0  0  0  0  0
  -24.7874  -30.9406   22.0761 N   0  0  0  0  0  0
  -23.4204  -28.7920   23.3073 O   0  0  0  0  0  0
  -28.1995  -25.4700   20.2857 O   0  0  0  0  0  0
  -26.5766  -34.8862   22.4567 O   0  0  0  0  0  0
  -23.5869  -32.1071   23.6432 O   0  0  0  0  0  0
  -28.8463  -20.1217   20.3433 C   0  0  0  0  0  0
  -27.3669  -19.8375   20.4542 C   0  0  0  0  0  0
  -29.0503  -22.0450   20.3038 C   0  0  0  0  0  0
  -28.0228  -23.7060   20.2264 C   0  0  0  0  0  0
  -29.6948  -18.9005   20.3157 N   0  0  0  0  0  0
  -29.3282  -17.2026   20.4261 O   0  0  0  0  0  0
  -31.4300  -13.3053   19.2303 H   0  0  0  0  0  0
  -30.5579  -12.1942   20.2398 H   0  0  0  0  0  0
  -30.0106  -11.8112   17.8073 H   0  0  0  0  0  0
  -29.5357  -13.4838   17.6365 H   0  0  0  0  0  0
  -28.1441  -11.3033   19.2075 H   0  0  0  0  0  0
  -27.4680  -12.2443   17.8992 H   0  0  0  0  0  0
  -27.4518  -14.2326   19.2314 H   0  0  0  0  0  0
  -28.8050  -12.7796   21.5470 H   0  0  0  0  0  0
  -28.1472  -14.3990   21.6052 H   0  0  0  0  0  0
  -25.2791   -9.5694   22.4754 H   0  0  0  0  0  0
  -24.0019   -7.4648   22.7477 H   0  0  0  0  0  0
  -21.0861   -8.8780   19.8952 H   0  0  0  0  0  0
  -22.3724  -10.9668   19.6156 H   0  0  0  0  0  0
  -21.2017   -7.6152   23.9722 H   0  0  0  0  0  0
  -21.1481   -6.0523   25.9080 H   0  0  0  0  0  0
  -22.0595   -2.7613   23.2845 H   0  0  0  0  0  0
  -22.4025  -11.9815   22.4870 H   0  0  0  0  0  0
  -21.0989  -13.1137   22.2697 H   0  0  0  0  0  0
  -24.6295  -15.8602   20.5616 H   0  0  0  0  0  0
  -26.2524  -15.6513   20.1347 H   0  0  0  0  0  0
  -26.7511  -32.4929   23.0765 H   0  0  0  0  0  0
  -25.0060  -33.9326   25.0039 H   0  0  0  0  0  0
  -22.8400  -31.2367   21.3116 H   0  0  0  0  0  0
  -23.3786  -35.9443   23.3250 H   0  0  0  0  0  0
  -24.3569  -36.8872   22.2082 H   0  0  0  0  0  0
  -23.7223  -37.6292   23.6772 H   0  0  0  0  0  0
  -26.2976  -31.2516   20.6278 H   0  0  0  0  0  0
  -26.9431  -30.5932   22.0831 H   0  0  0  0  0  0
  -28.1684  -28.3734   21.3175 H   0  0  0  0  0  0
  -25.8359  -25.6011   19.0142 H   0  0  0  0  0  0
  -24.0336  -27.2074   18.9371 H   0  0  0  0  0  0
  -23.9440  -30.4504   19.3775 H   0  0  0  0  0  0
  -22.8717  -29.1589   19.8175 H   0  0  0  0  0  0
  -25.1353  -36.1647   25.0773 H   0  0  0  0  0  0
  -21.0059  -28.3404   24.1264 H   0  0  0  0  0  0
  -20.5665  -26.2405   23.3667 H   0  0  0  0  0  0
  -21.6665  -26.7377   22.1223 H   0  0  0  0  0  0
  -19.6937  -25.6259   21.1295 H   0  0  0  0  0  0
  -19.6722  -27.3136   20.6713 H   0  0  0  0  0  0
  -17.4233  -26.6694   21.4020 H   0  0  0  0  0  0
  -18.0345  -26.0104   22.9028 H   0  0  0  0  0  0
  -19.7988  -30.7338   24.2165 H   0  0  0  0  0  0
  -17.5054  -31.6280   24.5156 H   0  0  0  0  0  0
  -15.5388  -30.2960   23.7720 H   0  0  0  0  0  0
  -15.8721  -28.0793   22.7136 H   0  0  0  0  0  0
  -24.5855  -30.7173   25.7580 H   0  0  0  0  0  0
  -24.8846  -32.3046   26.4548 H   0  0  0  0  0  0
  -25.7831  -30.9082   27.0191 H   0  0  0  0  0  0
  -26.3260  -29.6447   24.1591 H   0  0  0  0  0  0
  -27.3967  -29.7301   25.5342 H   0  0  0  0  0  0
  -27.9239  -30.3971   24.0124 H   0  0  0  0  0  0
  -27.2597  -33.3739   26.1869 H   0  0  0  0  0  0
  -28.3960  -32.6813   25.0394 H   0  0  0  0  0  0
  -28.0611  -31.8635   26.5579 H   0  0  0  0  0  0
  -28.2533  -38.0065   24.7539 H   0  0  0  0  0  0
  -28.1110  -36.2590   24.6254 H   0  0  0  0  0  0
  -27.2285  -37.1309   25.8865 H   0  0  0  0  0  0
  -20.9726  -29.8674   21.6513 H   0  0  0  0  0  0
  -26.0091  -38.2699   24.1446 H   0  0  0  0  0  0
  -27.0876  -19.7095   21.4997 H   0  0  0  0  0  0
  -27.1063  -18.9294   19.9105 H   0  0  0  0  0  0
  -26.7881  -20.6613   20.0378 H   0  0  0  0  0  0
  -29.7559  -22.1812   19.4852 H   0  0  0  0  0  0
  -29.6664  -22.2148   21.1863 H   0  0  0  0  0  0
  -27.2828  -23.5539   21.0120 H   0  0  0  0  0  0
  -27.4457  -23.5821   19.3099 H   0  0  0  0  0  0
  1 25  1  0  0  0
  1 30  2  0  0  0
  1 76  1  0  0  0
  2  3  1  0  0  0
  2 25  1  0  0  0
  2 77  1  0  0  0
  2 78  1  0  0  0
  3  4  1  0  0  0
  3 79  1  0  0  0
  3 80  1  0  0  0
  4  5  1  0  0  0
  4 81  1  0  0  0
  4 82  1  0  0  0
  5  6  1  0  0  0
  5 26  1  0  0  0
  5 83  1  0  0  0
  6 25  1  0  0  0
  6 84  1  0  0  0
  6 85  1  0  0  0
  7  8  2  0  0  0
  7 26  1  0  0  0
  7 29  1  0  0  0
  8  9  1  0  0  0
  8 22  1  0  0  0
  9 10  1  0  0  0
  9 27  2  0  0  0
 10 11  2  0  0  0
 10 15  1  0  0  0
 11 12  1  0  0  0
 11 86  1  0  0  0
 12 13  2  0  0  0
 12 87  1  0  0  0
 13 14  1  0  0  0
 13 31  1  0  0  0
 14 15  2  0  0  0
 14 88  1  0  0  0
 15 89  1  0  0  0
 16 17  2  0  0  0
 16 21  1  0  0  0
 16 31  1  0  0  0
 17 18  1  0  0  0
 17 90  1  0  0  0
 18 19  2  0  0  0
 18 91  1  0  0  0
 19 20  1  0  0  0
 19 24  1  0  0  0
 20 21  2  0  0  0
 20 92  1  0  0  0
 21 23  1  0  0  0
 22 28  1  0  0  0
 22 32  2  0  0  0
 26 27  1  0  0  0
 28 93  1  0  0  0
 28 94  1  0  0  0
 29 95  1  0  0  0
 29 96  1  0  0  0
 33 34  1  0  0  0
 33 66  1  0  0  0
 33 70  2  0  0  0
 34 36  1  0  0  0
 34 59  1  0  0  0
 34 97  1  0  0  0
 35 44  2  0  0  0
 35 45  1  0  0  0
 35 68  1  0  0  0
 36 56  1  0  0  0
 36 98  1  0  0  0
 37 39  1  0  0  0
 37 47  1  0  0  0
 37 66  1  0  0  0
 37 99  1  0  0  0
 38 43  2  0  0  0
 38 46  1  0  0  0
 38 47  1  0  0  0
 39 64  1  0  0  0
 39 67  2  0  0  0
 40 52  1  0  0  0
 40 53  2  0  0  0
 40 58  1  0  0  0
 41100  1  0  0  0
 41101  1  0  0  0
 41102  1  0  0  0
 41 48  1  0  0  0
 42 43  1  0  0  0
 42 66  1  0  0  0
 42103  1  0  0  0
 42104  1  0  0  0
 43 44  1  0  0  0
 44105  1  0  0  0
 45 46  2  0  0  0
 45106  1  0  0  0
 46107  1  0  0  0
 47108  1  0  0  0
 47109  1  0  0  0
 48 56  1  0  0  0
 48 65  1  0  0  0
 48110  1  0  0  0
 49 50  1  0  0  0
 49 53  1  0  0  0
 49 64  1  0  0  0
 49111  1  0  0  0
 50 51  1  0  0  0
 50112  1  0  0  0
 50113  1  0  0  0
 51 52  1  0  0  0
 51114  1  0  0  0
 51115  1  0  0  0
 52116  1  0  0  0
 52117  1  0  0  0
 53 54  1  0  0  0
 54 55  2  0  0  0
 54118  1  0  0  0
 55 57  1  0  0  0
 55119  1  0  0  0
 56 69  2  0  0  0
 57 58  2  0  0  0
 57120  1  0  0  0
 58121  1  0  0  0
 59 60  1  0  0  0
 59 61  1  0  0  0
 59 62  1  0  0  0
 60122  1  0  0  0
 60123  1  0  0  0
 60124  1  0  0  0
 61125  1  0  0  0
 61126  1  0  0  0
 61127  1  0  0  0
 62128  1  0  0  0
 62129  1  0  0  0
 62130  1  0  0  0
 63 65  1  0  0  0
 63131  1  0  0  0
 63132  1  0  0  0
 63133  1  0  0  0
 64134  1  0  0  0
 65135  1  0  0  0
 68 74  1  0  0  0
 71 72  1  0  0  0
 71 73  1  0  0  0
 71 75  2  0  0  0
 72136  1  0  0  0
 72137  1  0  0  0
 72138  1  0  0  0
 73 74  1  0  0  0
 73139  1  0  0  0
 73140  1  0  0  0
 74141  1  0  0  0
 74142  1  0  0  0
 75 76  1  0  0  0
M  ISO  4   1 100  68 101  74 101  76 100
M  END
> <chiral flag>
0

> <version>
0

> <s_m_source_file>
/data/baiqing/PycharmProjects/Reinvent-master-3.2/result/LINK_invent/BTK/process_docking_weight1_custom_sum_contain_oxygen_bond_distance_aromatic_linkinvent_7_9_3/rearranged_h_0003.sdf

> <i_m_source_file_index>
38

> <r_mmod_Potential_Energy-OPLS-2005>
2648.95043945312

> <r_mmod_Stretch_Energy-OPLS-2005>
1312.80883789062

> <r_mmod_Bend_Energy-OPLS-2005>
652.377380371094

> <r_mmod_Torsional_Energy-OPLS-2005>
180.037216186523

> <r_mmod_Improper_Torsional_Energy-OPLS-2005>
2.49275636672974

> <r_mmod_Van_der_Waal_Energy-OPLS-2005>
107.0234375

> <r_mmod_Electrostatic_Energy-OPLS-2005>
-306.768646240234

> <r_mmod_Solvation_Energy-OPLS-2005>
-207.718566894531

> <b_mmod_Minimization_Converged-OPLS-2005>
0

> <r_mmod_RMS_Derivative-OPLS-2005>
0.409804433584213

$$$$
39
                    3D
 Structure written by MMmdl.
174182  0  0  1  0            999 V2000
  -30.6628  -14.7850   20.4708 C   0  0  0  0  0  0
  -30.4147  -12.4886   19.4887 C   0  0  0  0  0  0
  -29.5024  -12.5095   18.2454 C   0  0  0  0  0  0
  -28.0353  -12.3215   18.6660 C   0  0  0  0  0  0
  -27.6339  -13.2458   19.8466 C   0  0  2  0  0  0
  -28.6785  -13.2422   20.9851 C   0  0  0  0  0  0
  -25.2470  -13.8242   20.5728 C   0  0  0  0  0  0
  -24.1778  -13.0467   20.9238 C   0  0  0  0  0  0
  -24.6389  -11.6956   20.8782 C   0  0  0  0  0  0
  -23.9087  -10.4316   21.0424 C   0  0  0  0  0  0
  -24.3637   -9.4224   21.9193 C   0  0  0  0  0  0
  -23.6306   -8.2258   22.0760 C   0  0  0  0  0  0
  -22.4288   -8.0302   21.3548 C   0  0  0  0  0  0
  -21.9933   -9.0280   20.4652 C   0  0  0  0  0  0
  -22.7267  -10.2154   20.3066 C   0  0  0  0  0  0
  -21.6857   -6.0757   22.5281 C   0  0  0  0  0  0
  -21.4012   -6.5652   23.8215 C   0  0  0  0  0  0
  -21.3657   -5.6802   24.9177 C   0  0  0  0  0  0
  -21.6041   -4.3065   24.7223 C   0  0  0  0  0  0
  -21.8820   -3.8162   23.4341 C   0  0  0  0  0  0
  -21.9189   -4.6983   22.3400 C   0  0  0  0  0  0
  -22.7795  -13.5227   21.1892 C   0  0  0  0  0  0
  -22.1660   -4.2173   21.0978 F   0  0  0  0  0  0
  -21.5628   -3.4544   25.7731 F   0  0  0  0  0  0
  -29.9734  -13.5885   20.3894 N   0  0  0  0  0  0
  -26.2905  -12.9477   20.3305 N   0  0  0  0  0  0
  -25.9324  -11.6606   20.5798 N   0  0  0  0  0  0
  -22.0435  -12.8215   22.0440 N   0  0  0  0  0  0
  -25.4155  -15.1967   20.4135 N   0  0  0  0  0  0
  -31.8376  -14.7841   20.0921 O   0  0  0  0  0  0
  -21.6641   -6.8906   21.4246 O   0  0  0  0  0  0
  -22.3482  -14.5530   20.6733 O   0  0  0  0  0  0
  -24.6329  -31.8519   23.1952 C   0  0  0  0  0  0
  -25.9134  -32.4745   23.8309 C   0  0  1  0  0  0
  -27.2157  -27.2256   20.1299 C   0  0  0  0  0  0
  -25.5906  -33.8544   24.2217 N   0  0  0  0  0  0
  -23.4320  -30.4735   21.5389 C   0  0  2  0  0  0
  -24.8776  -28.9123   20.1074 C   0  0  0  0  0  0
  -22.7516  -29.4583   22.4895 C   0  0  0  0  0  0
  -18.0297  -28.1383   22.8483 C   0  0  0  0  0  0
  -24.1488  -36.7280   23.2640 C   0  0  0  0  0  0
  -25.9796  -30.7528   21.3792 C   0  0  0  0  0  0
  -26.0494  -29.3728   20.7187 C   0  0  0  0  0  0
  -27.2183  -28.5416   20.7175 C   0  0  0  0  0  0
  -26.0161  -26.8333   19.4992 C   0  0  0  0  0  0
  -24.8673  -27.6526   19.4872 C   0  0  0  0  0  0
  -23.6498  -29.8032   20.1561 C   0  0  0  0  0  0
  -25.4117  -36.3059   24.0318 C   0  0  1  0  0  0
  -20.5897  -28.3699   23.1252 C   0  0  2  0  0  0
  -20.6769  -26.9405   22.5409 C   0  0  0  0  0  0
  -19.5744  -26.6373   21.5209 C   0  0  0  0  0  0
  -18.1924  -26.7927   22.1621 C   0  0  0  0  0  0
  -19.1552  -28.8858   23.2867 C   0  0  0  0  0  0
  -18.9468  -30.1446   23.8900 C   0  0  0  0  0  0
  -17.6465  -30.6583   24.0549 C   0  0  0  0  0  0
  -25.9061  -34.9431   23.5079 C   0  0  0  0  0  0
  -16.5354  -29.9068   23.6330 C   0  0  0  0  0  0
  -16.7283  -28.6487   23.0358 C   0  0  0  0  0  0
  -26.4490  -31.6605   25.0728 C   0  0  0  0  0  0
  -25.3682  -31.3758   26.1429 C   0  0  0  0  0  0
  -27.0345  -30.3008   24.6270 C   0  0  0  0  0  0
  -27.6041  -32.4370   25.7495 C   0  0  0  0  0  0
  -27.5582  -37.1781   24.8458 C   0  0  0  0  0  0
  -21.4220  -29.3038   22.3634 N   0  0  0  0  0  0
  -26.4296  -37.3755   23.9402 N   0  0  0  0  0  0
  -24.7009  -31.0457   22.0931 N   0  0  0  0  0  0
  -23.4210  -28.8112   23.2998 O   0  0  0  0  0  0
  -28.3241  -26.3430   20.2186 O   0  0  0  0  0  0
  -26.5660  -34.8913   22.4663 O   0  0  0  0  0  0
  -23.5474  -32.1342   23.7232 O   0  0  0  0  0  0
  -32.8479  -18.1022   22.1537 C   0  0  0  0  0  0
  -31.9418  -17.0901   21.8154 C   0  0  0  0  0  0
  -31.3070  -19.7212   21.2834 C   0  0  0  0  0  0
  -32.5570  -19.4355   21.8571 C   0  0  0  0  0  0
  -30.7143  -17.3064   21.1238 C   0  0  0  0  0  0
  -30.3335  -18.7411   20.9352 C   0  0  0  0  0  0
  -31.6684  -24.4234   23.1390 C   0  0  0  0  0  0
  -32.7966  -25.3261   21.0701 C   0  0  0  0  0  0
  -34.9158  -20.1696   21.9827 C   0  0  0  0  0  0
  -28.3268  -23.5544   20.5609 C   0  0  0  0  0  0
  -28.8496  -22.1080   19.9781 C   0  0  0  0  0  0
  -33.0385  -22.8651   21.6142 C   0  0  0  0  0  0
  -33.0559  -21.7428   22.6699 C   0  0  0  0  0  0
  -28.3882  -24.9285   19.6720 C   0  0  0  0  0  0
  -28.6855  -20.7205   20.8327 C   0  0  0  0  0  0
  -32.8768  -24.2853   22.1977 C   0  0  0  0  0  0
  -30.0360  -16.0117   20.7675 N   0  0  0  0  0  0
  -33.4916  -20.4563   22.1293 N   0  0  0  0  0  0
  -29.1492  -19.3320   20.4073 O   0  0  0  0  0  0
  -31.4570  -12.5829   19.1804 H   0  0  0  0  0  0
  -30.3503  -11.5287   20.0035 H   0  0  0  0  0  0
  -29.7963  -11.7273   17.5441 H   0  0  0  0  0  0
  -29.6166  -13.4584   17.7192 H   0  0  0  0  0  0
  -27.9089  -11.2777   18.9563 H   0  0  0  0  0  0
  -27.3725  -12.4828   17.8155 H   0  0  0  0  0  0
  -27.6122  -14.2556   19.4355 H   0  0  0  0  0  0
  -28.7261  -12.2681   21.4727 H   0  0  0  0  0  0
  -28.4074  -13.9650   21.7562 H   0  0  0  0  0  0
  -25.2779   -9.5694   22.4778 H   0  0  0  0  0  0
  -24.0016   -7.4645   22.7475 H   0  0  0  0  0  0
  -21.0872   -8.8819   19.8943 H   0  0  0  0  0  0
  -22.3744  -10.9709   19.6184 H   0  0  0  0  0  0
  -21.2005   -7.6159   23.9735 H   0  0  0  0  0  0
  -21.1471   -6.0523   25.9082 H   0  0  0  0  0  0
  -22.0595   -2.7627   23.2833 H   0  0  0  0  0  0
  -22.4052  -11.9866   22.4813 H   0  0  0  0  0  0
  -21.1054  -13.1243   22.2651 H   0  0  0  0  0  0
  -24.6504  -15.8534   20.5255 H   0  0  0  0  0  0
  -26.2664  -15.6356   20.0849 H   0  0  0  0  0  0
  -26.7183  -32.5381   23.1038 H   0  0  0  0  0  0
  -24.9964  -33.9662   25.0300 H   0  0  0  0  0  0
  -22.7300  -31.2970   21.3893 H   0  0  0  0  0  0
  -23.3759  -35.9605   23.3295 H   0  0  0  0  0  0
  -24.3563  -36.8936   22.2056 H   0  0  0  0  0  0
  -23.7248  -37.6469   23.6696 H   0  0  0  0  0  0
  -26.1243  -31.5133   20.6115 H   0  0  0  0  0  0
  -26.8540  -30.7998   22.0178 H   0  0  0  0  0  0
  -28.1184  -28.8846   21.2087 H   0  0  0  0  0  0
  -25.9226  -25.8633   19.0378 H   0  0  0  0  0  0
  -23.9648  -27.2924   19.0127 H   0  0  0  0  0  0
  -23.7676  -30.5765   19.3958 H   0  0  0  0  0  0
  -22.7684  -29.2340   19.8579 H   0  0  0  0  0  0
  -25.1303  -36.1895   25.0812 H   0  0  0  0  0  0
  -20.9991  -28.3292   24.1373 H   0  0  0  0  0  0
  -20.5645  -26.2315   23.3629 H   0  0  0  0  0  0
  -21.6637  -26.7406   22.1209 H   0  0  0  0  0  0
  -19.6903  -25.6277   21.1252 H   0  0  0  0  0  0
  -19.6685  -27.3177   20.6729 H   0  0  0  0  0  0
  -17.4189  -26.6672   21.4027 H   0  0  0  0  0  0
  -18.0316  -26.0079   22.9026 H   0  0  0  0  0  0
  -19.7944  -30.7242   24.2303 H   0  0  0  0  0  0
  -17.5021  -31.6283   24.5124 H   0  0  0  0  0  0
  -15.5350  -30.2953   23.7680 H   0  0  0  0  0  0
  -15.8685  -28.0798   22.7078 H   0  0  0  0  0  0
  -24.5866  -30.7123   25.7716 H   0  0  0  0  0  0
  -24.8851  -32.2912   26.4842 H   0  0  0  0  0  0
  -25.7941  -30.8918   27.0224 H   0  0  0  0  0  0
  -26.2937  -29.6749   24.1281 H   0  0  0  0  0  0
  -27.3961  -29.7304   25.4837 H   0  0  0  0  0  0
  -27.8845  -30.4253   23.9561 H   0  0  0  0  0  0
  -27.2660  -33.3686   26.2049 H   0  0  0  0  0  0
  -28.3846  -32.6924   25.0314 H   0  0  0  0  0  0
  -28.0729  -31.8526   26.5428 H   0  0  0  0  0  0
  -28.2577  -38.0093   24.7520 H   0  0  0  0  0  0
  -28.1101  -36.2624   24.6276 H   0  0  0  0  0  0
  -27.2301  -37.1427   25.8859 H   0  0  0  0  0  0
  -20.9413  -29.8787   21.6851 H   0  0  0  0  0  0
  -26.0180  -38.2827   24.1410 H   0  0  0  0  0  0
  -33.7726  -17.8315   22.6433 H   0  0  0  0  0  0
  -32.2572  -16.0978   22.0995 H   0  0  0  0  0  0
  -31.1190  -20.7577   21.0686 H   0  0  0  0  0  0
  -31.5602  -25.4489   23.4941 H   0  0  0  0  0  0
  -31.7732  -23.7935   24.0224 H   0  0  0  0  0  0
  -30.7404  -24.1481   22.6417 H   0  0  0  0  0  0
  -32.7809  -26.3419   21.4673 H   0  0  0  0  0  0
  -31.8947  -25.1922   20.4705 H   0  0  0  0  0  0
  -33.6531  -25.2523   20.3993 H   0  0  0  0  0  0
  -35.0979  -19.4513   21.1815 H   0  0  0  0  0  0
  -35.3253  -19.7642   22.9088 H   0  0  0  0  0  0
  -35.4726  -21.0764   21.7399 H   0  0  0  0  0  0
  -28.8780  -23.7404   21.4800 H   0  0  0  0  0  0
  -27.2931  -23.4233   20.8823 H   0  0  0  0  0  0
  -29.9043  -22.2239   19.7280 H   0  0  0  0  0  0
  -28.3535  -21.9499   19.0202 H   0  0  0  0  0  0
  -32.2476  -22.6786   20.8886 H   0  0  0  0  0  0
  -33.9706  -22.8386   21.0478 H   0  0  0  0  0  0
  -32.0735  -21.6394   23.1338 H   0  0  0  0  0  0
  -33.7374  -22.0174   23.4767 H   0  0  0  0  0  0
  -27.7235  -24.8178   18.8173 H   0  0  0  0  0  0
  -29.3751  -24.9051   19.2100 H   0  0  0  0  0  0
  -27.6112  -20.5974   20.9682 H   0  0  0  0  0  0
  -29.0373  -20.9085   21.8476 H   0  0  0  0  0  0
  -33.7710  -24.5073   22.7829 H   0  0  0  0  0  0
  -29.0287  -16.0037   20.8269 H   0  0  0  0  0  0
  1 25  1  0  0  0
  1 30  2  0  0  0
  1 87  1  0  0  0
  2  3  1  0  0  0
  2 25  1  0  0  0
  2 90  1  0  0  0
  2 91  1  0  0  0
  3  4  1  0  0  0
  3 92  1  0  0  0
  3 93  1  0  0  0
  4  5  1  0  0  0
  4 94  1  0  0  0
  4 95  1  0  0  0
  5  6  1  0  0  0
  5 26  1  0  0  0
  5 96  1  0  0  0
  6 25  1  0  0  0
  6 97  1  0  0  0
  6 98  1  0  0  0
  7  8  2  0  0  0
  7 26  1  0  0  0
  7 29  1  0  0  0
  8  9  1  0  0  0
  8 22  1  0  0  0
  9 10  1  0  0  0
  9 27  2  0  0  0
 10 11  2  0  0  0
 10 15  1  0  0  0
 11 12  1  0  0  0
 11 99  1  0  0  0
 12 13  2  0  0  0
 12100  1  0  0  0
 13 14  1  0  0  0
 13 31  1  0  0  0
 14 15  2  0  0  0
 14101  1  0  0  0
 15102  1  0  0  0
 16 17  2  0  0  0
 16 21  1  0  0  0
 16 31  1  0  0  0
 17 18  1  0  0  0
 17103  1  0  0  0
 18 19  2  0  0  0
 18104  1  0  0  0
 19 20  1  0  0  0
 19 24  1  0  0  0
 20 21  2  0  0  0
 20105  1  0  0  0
 21 23  1  0  0  0
 22 28  1  0  0  0
 22 32  2  0  0  0
 26 27  1  0  0  0
 28106  1  0  0  0
 28107  1  0  0  0
 29108  1  0  0  0
 29109  1  0  0  0
 33 34  1  0  0  0
 33 66  1  0  0  0
 33 70  2  0  0  0
 34 36  1  0  0  0
 34 59  1  0  0  0
 34110  1  0  0  0
 35 44  2  0  0  0
 35 45  1  0  0  0
 35 68  1  0  0  0
 36 56  1  0  0  0
 36111  1  0  0  0
 37 39  1  0  0  0
 37 47  1  0  0  0
 37 66  1  0  0  0
 37112  1  0  0  0
 38 43  2  0  0  0
 38 46  1  0  0  0
 38 47  1  0  0  0
 39 64  1  0  0  0
 39 67  2  0  0  0
 40 52  1  0  0  0
 40 53  2  0  0  0
 40 58  1  0  0  0
 41113  1  0  0  0
 41114  1  0  0  0
 41115  1  0  0  0
 41 48  1  0  0  0
 42 43  1  0  0  0
 42 66  1  0  0  0
 42116  1  0  0  0
 42117  1  0  0  0
 43 44  1  0  0  0
 44118  1  0  0  0
 45 46  2  0  0  0
 45119  1  0  0  0
 46120  1  0  0  0
 47121  1  0  0  0
 47122  1  0  0  0
 48 56  1  0  0  0
 48 65  1  0  0  0
 48123  1  0  0  0
 49 50  1  0  0  0
 49 53  1  0  0  0
 49 64  1  0  0  0
 49124  1  0  0  0
 50 51  1  0  0  0
 50125  1  0  0  0
 50126  1  0  0  0
 51 52  1  0  0  0
 51127  1  0  0  0
 51128  1  0  0  0
 52129  1  0  0  0
 52130  1  0  0  0
 53 54  1  0  0  0
 54 55  2  0  0  0
 54131  1  0  0  0
 55 57  1  0  0  0
 55132  1  0  0  0
 56 69  2  0  0  0
 57 58  2  0  0  0
 57133  1  0  0  0
 58134  1  0  0  0
 59 60  1  0  0  0
 59 61  1  0  0  0
 59 62  1  0  0  0
 60135  1  0  0  0
 60136  1  0  0  0
 60137  1  0  0  0
 61138  1  0  0  0
 61139  1  0  0  0
 61140  1  0  0  0
 62141  1  0  0  0
 62142  1  0  0  0
 62143  1  0  0  0
 63 65  1  0  0  0
 63144  1  0  0  0
 63145  1  0  0  0
 63146  1  0  0  0
 64147  1  0  0  0
 65148  1  0  0  0
 68 84  1  0  0  0
 71 72  2  0  0  0
 71 74  1  0  0  0
 71149  1  0  0  0
 72 75  1  0  0  0
 72150  1  0  0  0
 73 74  2  0  0  0
 73 76  1  0  0  0
 73151  1  0  0  0
 74 88  1  0  0  0
 75 76  2  0  0  0
 75 87  1  0  0  0
 76 89  1  0  0  0
 77152  1  0  0  0
 77153  1  0  0  0
 77154  1  0  0  0
 77 86  1  0  0  0
 78 86  1  0  0  0
 78155  1  0  0  0
 78156  1  0  0  0
 78157  1  0  0  0
 79 88  1  0  0  0
 79158  1  0  0  0
 79159  1  0  0  0
 79160  1  0  0  0
 80 81  1  0  0  0
 80 84  1  0  0  0
 80161  1  0  0  0
 80162  1  0  0  0
 81 85  1  0  0  0
 81163  1  0  0  0
 81164  1  0  0  0
 82 83  1  0  0  0
 82 86  1  0  0  0
 82165  1  0  0  0
 82166  1  0  0  0
 83 88  1  0  0  0
 83167  1  0  0  0
 83168  1  0  0  0
 84169  1  0  0  0
 84170  1  0  0  0
 85 89  1  0  0  0
 85171  1  0  0  0
 85172  1  0  0  0
 86173  1  0  0  0
 87174  1  0  0  0
M  ISO  4   1 100  68 101  84 101  87 100
M  END
> <chiral flag>
0

> <version>
0

> <s_m_source_file>
/data/baiqing/PycharmProjects/Reinvent-master-3.2/result/LINK_invent/BTK/process_docking_weight1_custom_sum_contain_oxygen_bond_distance_aromatic_linkinvent_7_9_3/rearranged_h_0003.sdf

> <i_m_source_file_index>
39

> <r_mmod_Potential_Energy-OPLS-2005>
316.828521728516

> <r_mmod_Stretch_Energy-OPLS-2005>
177.504898071289

> <r_mmod_Bend_Energy-OPLS-2005>
267.070587158203

> <r_mmod_Torsional_Energy-OPLS-2005>
231.097930908203

> <r_mmod_Improper_Torsional_Energy-OPLS-2005>
4.44872903823853

> <r_mmod_Van_der_Waal_Energy-OPLS-2005>
156.972808837891

> <r_mmod_Electrostatic_Energy-OPLS-2005>
-403.116058349609

> <r_mmod_Solvation_Energy-OPLS-2005>
-222.056732177734

> <b_mmod_Minimization_Converged-OPLS-2005>
0

> <r_mmod_RMS_Derivative-OPLS-2005>
1.84967088699341

$$$$
40
                    3D
 Structure written by MMmdl.
143150  0  0  1  0            999 V2000
  -30.3355  -15.5533   20.3377 C   0  0  0  0  0  0
  -30.4278  -13.0206   19.5356 C   0  0  0  0  0  0
  -29.5464  -12.6353   18.3151 C   0  0  0  0  0  0
  -28.1142  -12.2965   18.7563 C   0  0  0  0  0  0
  -27.5983  -13.2998   19.8136 C   0  0  2  0  0  0
  -28.6188  -13.6020   20.9348 C   0  0  0  0  0  0
  -25.2335  -13.8272   20.5783 C   0  0  0  0  0  0
  -24.1716  -13.0431   20.9280 C   0  0  0  0  0  0
  -24.6407  -11.6939   20.8763 C   0  0  0  0  0  0
  -23.9108  -10.4290   21.0398 C   0  0  0  0  0  0
  -24.3646   -9.4204   21.9179 C   0  0  0  0  0  0
  -23.6308   -8.2245   22.0753 C   0  0  0  0  0  0
  -22.4289   -8.0285   21.3544 C   0  0  0  0  0  0
  -21.9934   -9.0259   20.4644 C   0  0  0  0  0  0
  -22.7275  -10.2132   20.3050 C   0  0  0  0  0  0
  -21.6858   -6.0738   22.5278 C   0  0  0  0  0  0
  -21.4019   -6.5642   23.8212 C   0  0  0  0  0  0
  -21.3660   -5.6794   24.9173 C   0  0  0  0  0  0
  -21.6043   -4.3057   24.7224 C   0  0  0  0  0  0
  -21.8819   -3.8148   23.4345 C   0  0  0  0  0  0
  -21.9194   -4.6965   22.3402 C   0  0  0  0  0  0
  -22.7731  -13.5167   21.1917 C   0  0  0  0  0  0
  -22.1662   -4.2150   21.0979 F   0  0  0  0  0  0
  -21.5626   -3.4540   25.7737 F   0  0  0  0  0  0
  -29.8047  -14.1993   20.2827 N   0  0  0  0  0  0
  -26.2777  -12.9589   20.3227 N   0  0  0  0  0  0
  -25.9352  -11.6669   20.5705 N   0  0  0  0  0  0
  -22.0396  -12.8145   22.0471 N   0  0  0  0  0  0
  -25.3934  -15.2012   20.4226 N   0  0  0  0  0  0
  -31.5687  -15.5024   20.1771 O   0  0  0  0  0  0
  -21.6647   -6.8885   21.4242 O   0  0  0  0  0  0
  -22.3406  -14.5465   20.6752 O   0  0  0  0  0  0
  -24.6800  -31.8038   23.1543 C   0  0  0  0  0  0
  -25.9399  -32.4487   23.8074 C   0  0  1  0  0  0
  -27.2247  -26.7418   20.2123 C   0  0  0  0  0  0
  -25.5993  -33.8310   24.1966 N   0  0  0  0  0  0
  -23.5038  -30.4073   21.5074 C   0  0  2  0  0  0
  -24.9602  -28.7545   20.1181 C   0  0  0  0  0  0
  -22.7746  -29.4338   22.4723 C   0  0  0  0  0  0
  -18.0336  -28.1422   22.8456 C   0  0  0  0  0  0
  -24.1495  -36.7162   23.2653 C   0  0  0  0  0  0
  -26.0826  -30.5501   21.4119 C   0  0  0  0  0  0
  -26.1487  -29.1190   20.7619 C   0  0  0  0  0  0
  -27.2682  -28.1399   20.7756 C   0  0  0  0  0  0
  -26.0029  -26.5744   19.5148 C   0  0  0  0  0  0
  -24.9238  -27.5069   19.4714 C   0  0  0  0  0  0
  -23.7552  -29.7060   20.1417 C   0  0  0  0  0  0
  -25.4144  -36.2907   24.0285 C   0  0  1  0  0  0
  -20.5969  -28.3778   23.1151 C   0  0  2  0  0  0
  -20.6806  -26.9441   22.5404 C   0  0  0  0  0  0
  -19.5783  -26.6372   21.5218 C   0  0  0  0  0  0
  -18.1963  -26.7949   22.1618 C   0  0  0  0  0  0
  -19.1601  -28.8923   23.2785 C   0  0  0  0  0  0
  -18.9509  -30.1507   23.8830 C   0  0  0  0  0  0
  -17.6500  -30.6605   24.0552 C   0  0  0  0  0  0
  -25.9122  -34.9297   23.4960 C   0  0  0  0  0  0
  -16.5389  -29.9089   23.6351 C   0  0  0  0  0  0
  -16.7316  -28.6511   23.0366 C   0  0  0  0  0  0
  -26.4590  -31.6507   25.0681 C   0  0  0  0  0  0
  -25.3664  -31.3815   26.1302 C   0  0  0  0  0  0
  -27.0517  -30.2851   24.6551 C   0  0  0  0  0  0
  -27.6045  -32.4359   25.7497 C   0  0  0  0  0  0
  -27.5563  -37.1737   24.8467 C   0  0  0  0  0  0
  -21.4398  -29.3031   22.3473 N   0  0  0  0  0  0
  -26.4272  -37.3665   23.9408 N   0  0  0  0  0  0
  -24.7786  -30.9523   22.0774 N   0  0  0  0  0  0
  -23.4209  -28.7935   23.3052 O   0  0  0  0  0  0
  -28.2041  -25.5512   20.2801 O   0  0  0  0  0  0
  -26.5758  -34.8869   22.4574 O   0  0  0  0  0  0
  -23.5828  -32.1094   23.6523 O   0  0  0  0  0  0
  -28.7651  -20.2674   20.2904 C   0  0  0  0  0  0
  -29.0007  -22.1779   20.3080 C   0  0  0  0  0  0
  -29.8051  -18.6520   20.3467 C   0  0  0  0  0  0
  -28.0034  -23.8204   20.2032 C   0  0  0  0  0  0
  -29.5782  -16.9027   20.3825 N   0  0  0  0  0  0
  -31.4268  -13.2705   19.1767 H   0  0  0  0  0  0
  -30.5690  -12.1647   20.1980 H   0  0  0  0  0  0
  -29.9845  -11.7945   17.7757 H   0  0  0  0  0  0
  -29.5210  -13.4708   17.6137 H   0  0  0  0  0  0
  -28.1271  -11.2932   19.1840 H   0  0  0  0  0  0
  -27.4439  -12.2569   17.8969 H   0  0  0  0  0  0
  -27.4709  -14.2301   19.2582 H   0  0  0  0  0  0
  -28.8604  -12.7103   21.5153 H   0  0  0  0  0  0
  -28.2012  -14.3242   21.6380 H   0  0  0  0  0  0
  -25.2785   -9.5679   22.4764 H   0  0  0  0  0  0
  -24.0009   -7.4638   22.7481 H   0  0  0  0  0  0
  -21.0862   -8.8785   19.8952 H   0  0  0  0  0  0
  -22.3730  -10.9673   19.6163 H   0  0  0  0  0  0
  -21.2015   -7.6151   23.9715 H   0  0  0  0  0  0
  -21.1481   -6.0525   25.9076 H   0  0  0  0  0  0
  -22.0596   -2.7611   23.2846 H   0  0  0  0  0  0
  -22.4039  -11.9821   22.4865 H   0  0  0  0  0  0
  -21.1004  -13.1141   22.2671 H   0  0  0  0  0  0
  -24.6207  -15.8487   20.5359 H   0  0  0  0  0  0
  -26.2324  -15.6443   20.0726 H   0  0  0  0  0  0
  -26.7477  -32.4971   23.0784 H   0  0  0  0  0  0
  -25.0059  -33.9354   25.0062 H   0  0  0  0  0  0
  -22.8274  -31.2439   21.3201 H   0  0  0  0  0  0
  -23.3774  -35.9475   23.3272 H   0  0  0  0  0  0
  -24.3562  -36.8864   22.2076 H   0  0  0  0  0  0
  -23.7238  -37.6325   23.6753 H   0  0  0  0  0  0
  -26.2810  -31.2776   20.6238 H   0  0  0  0  0  0
  -26.9354  -30.6164   22.0750 H   0  0  0  0  0  0
  -28.1647  -28.4248   21.3080 H   0  0  0  0  0  0
  -25.8443  -25.6278   19.0182 H   0  0  0  0  0  0
  -24.0252  -27.2191   18.9430 H   0  0  0  0  0  0
  -23.9278  -30.4668   19.3796 H   0  0  0  0  0  0
  -22.8607  -29.1707   19.8189 H   0  0  0  0  0  0
  -25.1351  -36.1675   25.0775 H   0  0  0  0  0  0
  -21.0052  -28.3402   24.1277 H   0  0  0  0  0  0
  -20.5676  -26.2401   23.3662 H   0  0  0  0  0  0
  -21.6667  -26.7393   22.1218 H   0  0  0  0  0  0
  -19.6942  -25.6265   21.1292 H   0  0  0  0  0  0
  -19.6728  -27.3145   20.6718 H   0  0  0  0  0  0
  -17.4233  -26.6692   21.4021 H   0  0  0  0  0  0
  -18.0352  -26.0108   22.9031 H   0  0  0  0  0  0
  -19.7986  -30.7339   24.2170 H   0  0  0  0  0  0
  -17.5053  -31.6279   24.5166 H   0  0  0  0  0  0
  -15.5388  -30.2971   23.7716 H   0  0  0  0  0  0
  -15.8715  -28.0809   22.7122 H   0  0  0  0  0  0
  -24.5873  -30.7140   25.7600 H   0  0  0  0  0  0
  -24.8826  -32.3036   26.4537 H   0  0  0  0  0  0
  -25.7846  -30.9101   27.0204 H   0  0  0  0  0  0
  -26.3228  -29.6473   24.1543 H   0  0  0  0  0  0
  -27.3966  -29.7288   25.5278 H   0  0  0  0  0  0
  -27.9198  -30.3989   24.0055 H   0  0  0  0  0  0
  -27.2593  -33.3729   26.1879 H   0  0  0  0  0  0
  -28.3955  -32.6809   25.0396 H   0  0  0  0  0  0
  -28.0603  -31.8616   26.5574 H   0  0  0  0  0  0
  -28.2553  -38.0057   24.7511 H   0  0  0  0  0  0
  -28.1085  -36.2580   24.6299 H   0  0  0  0  0  0
  -27.2276  -37.1380   25.8868 H   0  0  0  0  0  0
  -20.9695  -29.8687   21.6544 H   0  0  0  0  0  0
  -26.0103  -38.2714   24.1421 H   0  0  0  0  0  0
  -28.1541  -20.1192   19.3998 H   0  0  0  0  0  0
  -28.0571  -20.1169   21.1057 H   0  0  0  0  0  0
  -29.7448  -22.3205   19.5244 H   0  0  0  0  0  0
  -29.5730  -22.3235   21.2244 H   0  0  0  0  0  0
  -30.4440  -18.8018   21.2176 H   0  0  0  0  0  0
  -30.4945  -18.7676   19.5099 H   0  0  0  0  0  0
  -27.2299  -23.6732   20.9571 H   0  0  0  0  0  0
  -27.4624  -23.7113   19.2633 H   0  0  0  0  0  0
  -28.5926  -16.6942   20.4591 H   0  0  0  0  0  0
  1 25  1  0  0  0
  1 30  2  0  0  0
  1 75  1  0  0  0
  2  3  1  0  0  0
  2 25  1  0  0  0
  2 76  1  0  0  0
  2 77  1  0  0  0
  3  4  1  0  0  0
  3 78  1  0  0  0
  3 79  1  0  0  0
  4  5  1  0  0  0
  4 80  1  0  0  0
  4 81  1  0  0  0
  5  6  1  0  0  0
  5 26  1  0  0  0
  5 82  1  0  0  0
  6 25  1  0  0  0
  6 83  1  0  0  0
  6 84  1  0  0  0
  7  8  2  0  0  0
  7 26  1  0  0  0
  7 29  1  0  0  0
  8  9  1  0  0  0
  8 22  1  0  0  0
  9 10  1  0  0  0
  9 27  2  0  0  0
 10 11  2  0  0  0
 10 15  1  0  0  0
 11 12  1  0  0  0
 11 85  1  0  0  0
 12 13  2  0  0  0
 12 86  1  0  0  0
 13 14  1  0  0  0
 13 31  1  0  0  0
 14 15  2  0  0  0
 14 87  1  0  0  0
 15 88  1  0  0  0
 16 17  2  0  0  0
 16 21  1  0  0  0
 16 31  1  0  0  0
 17 18  1  0  0  0
 17 89  1  0  0  0
 18 19  2  0  0  0
 18 90  1  0  0  0
 19 20  1  0  0  0
 19 24  1  0  0  0
 20 21  2  0  0  0
 20 91  1  0  0  0
 21 23  1  0  0  0
 22 28  1  0  0  0
 22 32  2  0  0  0
 26 27  1  0  0  0
 28 92  1  0  0  0
 28 93  1  0  0  0
 29 94  1  0  0  0
 29 95  1  0  0  0
 33 34  1  0  0  0
 33 66  1  0  0  0
 33 70  2  0  0  0
 34 36  1  0  0  0
 34 59  1  0  0  0
 34 96  1  0  0  0
 35 44  2  0  0  0
 35 45  1  0  0  0
 35 68  1  0  0  0
 36 56  1  0  0  0
 36 97  1  0  0  0
 37 39  1  0  0  0
 37 47  1  0  0  0
 37 66  1  0  0  0
 37 98  1  0  0  0
 38 43  2  0  0  0
 38 46  1  0  0  0
 38 47  1  0  0  0
 39 64  1  0  0  0
 39 67  2  0  0  0
 40 52  1  0  0  0
 40 53  2  0  0  0
 40 58  1  0  0  0
 41 99  1  0  0  0
 41100  1  0  0  0
 41101  1  0  0  0
 41 48  1  0  0  0
 42 43  1  0  0  0
 42 66  1  0  0  0
 42102  1  0  0  0
 42103  1  0  0  0
 43 44  1  0  0  0
 44104  1  0  0  0
 45 46  2  0  0  0
 45105  1  0  0  0
 46106  1  0  0  0
 47107  1  0  0  0
 47108  1  0  0  0
 48 56  1  0  0  0
 48 65  1  0  0  0
 48109  1  0  0  0
 49 50  1  0  0  0
 49 53  1  0  0  0
 49 64  1  0  0  0
 49110  1  0  0  0
 50 51  1  0  0  0
 50111  1  0  0  0
 50112  1  0  0  0
 51 52  1  0  0  0
 51113  1  0  0  0
 51114  1  0  0  0
 52115  1  0  0  0
 52116  1  0  0  0
 53 54  1  0  0  0
 54 55  2  0  0  0
 54117  1  0  0  0
 55 57  1  0  0  0
 55118  1  0  0  0
 56 69  2  0  0  0
 57 58  2  0  0  0
 57119  1  0  0  0
 58120  1  0  0  0
 59 60  1  0  0  0
 59 61  1  0  0  0
 59 62  1  0  0  0
 60121  1  0  0  0
 60122  1  0  0  0
 60123  1  0  0  0
 61124  1  0  0  0
 61125  1  0  0  0
 61126  1  0  0  0
 62127  1  0  0  0
 62128  1  0  0  0
 62129  1  0  0  0
 63 65  1  0  0  0
 63130  1  0  0  0
 63131  1  0  0  0
 63132  1  0  0  0
 64133  1  0  0  0
 65134  1  0  0  0
 68 74  1  0  0  0
 71 72  1  0  0  0
 71 73  1  0  0  0
 71135  1  0  0  0
 71136  1  0  0  0
 72 74  1  0  0  0
 72137  1  0  0  0
 72138  1  0  0  0
 73 75  1  0  0  0
 73139  1  0  0  0
 73140  1  0  0  0
 74141  1  0  0  0
 74142  1  0  0  0
 75143  1  0  0  0
M  ISO  4   1 100  68 101  74 101  75 100
M  END
> <chiral flag>
0

> <version>
0

> <s_m_source_file>
/data/baiqing/PycharmProjects/Reinvent-master-3.2/result/LINK_invent/BTK/process_docking_weight1_custom_sum_contain_oxygen_bond_distance_aromatic_linkinvent_7_9_3/rearranged_h_0003.sdf

> <i_m_source_file_index>
40

> <r_mmod_Potential_Energy-OPLS-2005>
2236.59155273438

> <r_mmod_Stretch_Energy-OPLS-2005>
1088.18041992188

> <r_mmod_Bend_Energy-OPLS-2005>
600.093139648438

> <r_mmod_Torsional_Energy-OPLS-2005>
206.369812011719

> <r_mmod_Improper_Torsional_Energy-OPLS-2005>
3.66827178001404

> <r_mmod_Van_der_Waal_Energy-OPLS-2005>
110.215888977051

> <r_mmod_Electrostatic_Energy-OPLS-2005>
-352.887237548828

> <r_mmod_Solvation_Energy-OPLS-2005>
-215.827575683594

> <b_mmod_Minimization_Converged-OPLS-2005>
0

> <r_mmod_RMS_Derivative-OPLS-2005>
0.268112510442734

$$$$
41
                    3D
 Structure written by MMmdl.
140147  0  0  1  0            999 V2000
  -30.1611  -16.0041   20.3080 C   0  0  0  0  0  0
  -30.3940  -13.3709   19.5193 C   0  0  0  0  0  0
  -29.5602  -12.7495   18.3505 C   0  0  0  0  0  0
  -28.1679  -12.3098   18.8207 C   0  0  0  0  0  0
  -27.5837  -13.3431   19.8035 C   0  0  2  0  0  0
  -28.5794  -13.8362   20.8889 C   0  0  0  0  0  0
  -25.2278  -13.8329   20.5856 C   0  0  0  0  0  0
  -24.1700  -13.0433   20.9315 C   0  0  0  0  0  0
  -24.6450  -11.6960   20.8763 C   0  0  0  0  0  0
  -23.9156  -10.4295   21.0384 C   0  0  0  0  0  0
  -24.3676   -9.4207   21.9173 C   0  0  0  0  0  0
  -23.6326   -8.2253   22.0753 C   0  0  0  0  0  0
  -22.4305   -8.0296   21.3544 C   0  0  0  0  0  0
  -21.9960   -9.0273   20.4641 C   0  0  0  0  0  0
  -22.7315  -10.2138   20.3042 C   0  0  0  0  0  0
  -21.6863   -6.0747   22.5279 C   0  0  0  0  0  0
  -21.4022   -6.5646   23.8213 C   0  0  0  0  0  0
  -21.3661   -5.6796   24.9173 C   0  0  0  0  0  0
  -21.6044   -4.3059   24.7222 C   0  0  0  0  0  0
  -21.8818   -3.8153   23.4342 C   0  0  0  0  0  0
  -21.9196   -4.6972   22.3400 C   0  0  0  0  0  0
  -22.7702  -13.5137   21.1934 C   0  0  0  0  0  0
  -22.1662   -4.2158   21.0977 F   0  0  0  0  0  0
  -21.5626   -3.4540   25.7734 F   0  0  0  0  0  0
  -29.6775  -14.5802   20.1919 N   0  0  0  0  0  0
  -26.2769  -12.9729   20.3291 N   0  0  0  0  0  0
  -25.9412  -11.6758   20.5682 N   0  0  0  0  0  0
  -22.0374  -12.8106   22.0483 N   0  0  0  0  0  0
  -25.3817  -15.2078   20.4306 N   0  0  0  0  0  0
  -31.4087  -15.8722   20.2822 O   0  0  0  0  0  0
  -21.6655   -6.8899   21.4244 O   0  0  0  0  0  0
  -22.3368  -14.5432   20.6768 O   0  0  0  0  0  0
  -24.7122  -31.7741   23.1306 C   0  0  0  0  0  0
  -25.9575  -32.4339   23.7956 C   0  0  1  0  0  0
  -27.2357  -26.4414   20.2493 C   0  0  0  0  0  0
  -25.6043  -33.8173   24.1821 N   0  0  0  0  0  0
  -23.5502  -30.3697   21.4913 C   0  0  2  0  0  0
  -25.0042  -28.6446   20.1367 C   0  0  0  0  0  0
  -22.7896  -29.4343   22.4700 C   0  0  0  0  0  0
  -18.0162  -28.1569   22.8214 C   0  0  0  0  0  0
  -24.1498  -36.7093   23.2657 C   0  0  0  0  0  0
  -26.1405  -30.4200   21.4324 C   0  0  0  0  0  0
  -26.2010  -28.9529   20.7936 C   0  0  0  0  0  0
  -27.2917  -27.8910   20.8024 C   0  0  0  0  0  0
  -25.9991  -26.4075   19.5352 C   0  0  0  0  0  0
  -24.9575  -27.3998   19.4818 C   0  0  0  0  0  0
  -23.8153  -29.6344   20.1422 C   0  0  0  0  0  0
  -25.4158  -36.2817   24.0263 C   0  0  1  0  0  0
  -20.6073  -28.3875   23.0881 C   0  0  2  0  0  0
  -20.7786  -26.9756   22.4608 C   0  0  0  0  0  0
  -19.5498  -26.4216   21.7088 C   0  0  0  0  0  0
  -18.1097  -26.8638   22.0237 C   0  0  0  0  0  0
  -19.1588  -28.8842   23.2637 C   0  0  0  0  0  0
  -18.9570  -30.1345   23.8911 C   0  0  0  0  0  0
  -17.6624  -30.6560   24.0765 C   0  0  0  0  0  0
  -25.9160  -34.9216   23.4892 C   0  0  0  0  0  0
  -16.5419  -29.9202   23.6574 C   0  0  0  0  0  0
  -16.7219  -28.6723   23.0397 C   0  0  0  0  0  0
  -26.4648  -31.6466   25.0680 C   0  0  0  0  0  0
  -25.3637  -31.3855   26.1238 C   0  0  0  0  0  0
  -27.0614  -30.2776   24.6755 C   0  0  0  0  0  0
  -27.6047  -32.4377   25.7524 C   0  0  0  0  0  0
  -27.5558  -37.1705   24.8467 C   0  0  0  0  0  0
  -21.4495  -29.3435   22.3578 N   0  0  0  0  0  0
  -26.4262  -37.3606   23.9409 N   0  0  0  0  0  0
  -24.8283  -30.8941   22.0696 N   0  0  0  0  0  0
  -23.4210  -28.7802   23.3033 O   0  0  0  0  0  0
  -28.1967  -25.1262   20.2226 O   0  0  0  0  0  0
  -26.5824  -34.8842   22.4527 O   0  0  0  0  0  0
  -23.6085  -32.0940   23.6097 O   0  0  0  0  0  0
  -28.7705  -21.2825   19.9969 C   0  0  0  0  0  0
  -29.3625  -19.3536   20.6014 C   0  0  0  0  0  0
  -28.2110  -23.2498   20.5175 C   0  0  0  0  0  0
  -29.4079  -17.4693   20.2741 N   0  0  0  0  0  0
  -31.3466  -13.7011   19.1035 H   0  0  0  0  0  0
  -30.6640  -12.6081   20.2520 H   0  0  0  0  0  0
  -30.0920  -11.9085   17.9034 H   0  0  0  0  0  0
  -29.4512  -13.4961   17.5625 H   0  0  0  0  0  0
  -28.2677  -11.3481   19.3257 H   0  0  0  0  0  0
  -27.5014  -12.1499   17.9722 H   0  0  0  0  0  0
  -27.3925  -14.2099   19.1687 H   0  0  0  0  0  0
  -28.9347  -13.0208   21.5211 H   0  0  0  0  0  0
  -28.0774  -14.5353   21.5592 H   0  0  0  0  0  0
  -25.2813   -9.5677   22.4762 H   0  0  0  0  0  0
  -24.0020   -7.4647   22.7483 H   0  0  0  0  0  0
  -21.0888   -8.8807   19.8948 H   0  0  0  0  0  0
  -22.3776  -10.9680   19.6153 H   0  0  0  0  0  0
  -21.2018   -7.6155   23.9719 H   0  0  0  0  0  0
  -21.1482   -6.0525   25.9077 H   0  0  0  0  0  0
  -22.0594   -2.7615   23.2840 H   0  0  0  0  0  0
  -22.4027  -11.9789   22.4882 H   0  0  0  0  0  0
  -21.0974  -13.1085   22.2674 H   0  0  0  0  0  0
  -24.6092  -15.8546   20.5480 H   0  0  0  0  0  0
  -26.2271  -15.6547   20.1017 H   0  0  0  0  0  0
  -26.7689  -32.4750   23.0689 H   0  0  0  0  0  0
  -25.0068  -33.9166   24.9896 H   0  0  0  0  0  0
  -22.8946  -31.2157   21.2742 H   0  0  0  0  0  0
  -23.3788  -35.9392   23.3244 H   0  0  0  0  0  0
  -24.3558  -36.8846   22.2087 H   0  0  0  0  0  0
  -23.7232  -37.6231   23.6804 H   0  0  0  0  0  0
  -26.3681  -31.1235   20.6306 H   0  0  0  0  0  0
  -26.9832  -30.5006   22.1060 H   0  0  0  0  0  0
  -28.1975  -28.1537   21.3305 H   0  0  0  0  0  0
  -25.7911  -25.4872   19.0076 H   0  0  0  0  0  0
  -24.0632  -27.1495   18.9276 H   0  0  0  0  0  0
  -24.0136  -30.3783   19.3698 H   0  0  0  0  0  0
  -22.9130  -29.1146   19.8155 H   0  0  0  0  0  0
  -25.1379  -36.1542   25.0751 H   0  0  0  0  0  0
  -20.9993  -28.3319   24.1064 H   0  0  0  0  0  0
  -21.1583  -26.3040   23.2422 H   0  0  0  0  0  0
  -21.6163  -26.9721   21.7601 H   0  0  0  0  0  0
  -19.3880  -26.0269   22.7114 H   0  0  0  0  0  0
  -19.6128  -27.3462   21.1307 H   0  0  0  0  0  0
  -17.5815  -27.0283   21.0810 H   0  0  0  0  0  0
  -17.5017  -26.0951   22.5175 H   0  0  0  0  0  0
  -19.8097  -30.7074   24.2302 H   0  0  0  0  0  0
  -17.5302  -31.6181   24.5523 H   0  0  0  0  0  0
  -15.5460  -30.3152   23.8048 H   0  0  0  0  0  0
  -15.8546  -28.1225   22.6995 H   0  0  0  0  0  0
  -24.5858  -30.7178   25.7514 H   0  0  0  0  0  0
  -24.8793  -32.3100   26.4389 H   0  0  0  0  0  0
  -25.7743  -30.9184   27.0198 H   0  0  0  0  0  0
  -26.3378  -29.6321   24.1770 H   0  0  0  0  0  0
  -27.3966  -29.7315   25.5583 H   0  0  0  0  0  0
  -27.9387  -30.3845   24.0374 H   0  0  0  0  0  0
  -27.2557  -33.3779   26.1808 H   0  0  0  0  0  0
  -28.4013  -32.6778   25.0469 H   0  0  0  0  0  0
  -28.0543  -31.8704   26.5683 H   0  0  0  0  0  0
  -28.2525  -38.0046   24.7520 H   0  0  0  0  0  0
  -28.1104  -36.2565   24.6288 H   0  0  0  0  0  0
  -27.2271  -37.1326   25.8867 H   0  0  0  0  0  0
  -20.9859  -29.9264   21.6745 H   0  0  0  0  0  0
  -26.0065  -38.2641   24.1431 H   0  0  0  0  0  0
  -27.9479  -21.0312   19.3274 H   0  0  0  0  0  0
  -29.5799  -21.5046   19.3014 H   0  0  0  0  0  0
  -28.8623  -19.3135   21.5693 H   0  0  0  0  0  0
  -30.4044  -19.5229   20.8749 H   0  0  0  0  0  0
  -28.6621  -23.2870   21.5090 H   0  0  0  0  0  0
  -27.1534  -23.1048   20.7380 H   0  0  0  0  0  0
  -28.4467  -17.2150   20.0887 H   0  0  0  0  0  0
  1 25  1  0  0  0
  1 30  2  0  0  0
  1 74  1  0  0  0
  2  3  1  0  0  0
  2 25  1  0  0  0
  2 75  1  0  0  0
  2 76  1  0  0  0
  3  4  1  0  0  0
  3 77  1  0  0  0
  3 78  1  0  0  0
  4  5  1  0  0  0
  4 79  1  0  0  0
  4 80  1  0  0  0
  5  6  1  0  0  0
  5 26  1  0  0  0
  5 81  1  0  0  0
  6 25  1  0  0  0
  6 82  1  0  0  0
  6 83  1  0  0  0
  7  8  2  0  0  0
  7 26  1  0  0  0
  7 29  1  0  0  0
  8  9  1  0  0  0
  8 22  1  0  0  0
  9 10  1  0  0  0
  9 27  2  0  0  0
 10 11  2  0  0  0
 10 15  1  0  0  0
 11 12  1  0  0  0
 11 84  1  0  0  0
 12 13  2  0  0  0
 12 85  1  0  0  0
 13 14  1  0  0  0
 13 31  1  0  0  0
 14 15  2  0  0  0
 14 86  1  0  0  0
 15 87  1  0  0  0
 16 17  2  0  0  0
 16 21  1  0  0  0
 16 31  1  0  0  0
 17 18  1  0  0  0
 17 88  1  0  0  0
 18 19  2  0  0  0
 18 89  1  0  0  0
 19 20  1  0  0  0
 19 24  1  0  0  0
 20 21  2  0  0  0
 20 90  1  0  0  0
 21 23  1  0  0  0
 22 28  1  0  0  0
 22 32  2  0  0  0
 26 27  1  0  0  0
 28 91  1  0  0  0
 28 92  1  0  0  0
 29 93  1  0  0  0
 29 94  1  0  0  0
 33 34  1  0  0  0
 33 66  1  0  0  0
 33 70  2  0  0  0
 34 36  1  0  0  0
 34 59  1  0  0  0
 34 95  1  0  0  0
 35 44  2  0  0  0
 35 45  1  0  0  0
 35 68  1  0  0  0
 36 56  1  0  0  0
 36 96  1  0  0  0
 37 39  1  0  0  0
 37 47  1  0  0  0
 37 66  1  0  0  0
 37 97  1  0  0  0
 38 43  2  0  0  0
 38 46  1  0  0  0
 38 47  1  0  0  0
 39 64  1  0  0  0
 39 67  2  0  0  0
 40 52  1  0  0  0
 40 53  2  0  0  0
 40 58  1  0  0  0
 41 98  1  0  0  0
 41 99  1  0  0  0
 41100  1  0  0  0
 41 48  1  0  0  0
 42 43  1  0  0  0
 42 66  1  0  0  0
 42101  1  0  0  0
 42102  1  0  0  0
 43 44  1  0  0  0
 44103  1  0  0  0
 45 46  2  0  0  0
 45104  1  0  0  0
 46105  1  0  0  0
 47106  1  0  0  0
 47107  1  0  0  0
 48 56  1  0  0  0
 48 65  1  0  0  0
 48108  1  0  0  0
 49 50  1  0  0  0
 49 53  1  0  0  0
 49 64  1  0  0  0
 49109  1  0  0  0
 50 51  1  0  0  0
 50110  1  0  0  0
 50111  1  0  0  0
 51 52  1  0  0  0
 51112  1  0  0  0
 51113  1  0  0  0
 52114  1  0  0  0
 52115  1  0  0  0
 53 54  1  0  0  0
 54 55  2  0  0  0
 54116  1  0  0  0
 55 57  1  0  0  0
 55117  1  0  0  0
 56 69  2  0  0  0
 57 58  2  0  0  0
 57118  1  0  0  0
 58119  1  0  0  0
 59 60  1  0  0  0
 59 61  1  0  0  0
 59 62  1  0  0  0
 60120  1  0  0  0
 60121  1  0  0  0
 60122  1  0  0  0
 61123  1  0  0  0
 61124  1  0  0  0
 61125  1  0  0  0
 62126  1  0  0  0
 62127  1  0  0  0
 62128  1  0  0  0
 63 65  1  0  0  0
 63129  1  0  0  0
 63130  1  0  0  0
 63131  1  0  0  0
 64132  1  0  0  0
 65133  1  0  0  0
 68 73  1  0  0  0
 71 72  1  0  0  0
 71 73  1  0  0  0
 71134  1  0  0  0
 71135  1  0  0  0
 72 74  1  0  0  0
 72136  1  0  0  0
 72137  1  0  0  0
 73138  1  0  0  0
 73139  1  0  0  0
 74140  1  0  0  0
M  ISO  4   1 100  68 101  73 101  74 100
M  END
> <chiral flag>
0

> <version>
0

> <s_m_source_file>
/data/baiqing/PycharmProjects/Reinvent-master-3.2/result/LINK_invent/BTK/process_docking_weight1_custom_sum_contain_oxygen_bond_distance_aromatic_linkinvent_7_9_3/rearranged_h_0003.sdf

> <i_m_source_file_index>
41

> <r_mmod_Potential_Energy-OPLS-2005>
4439.1796875

> <r_mmod_Stretch_Energy-OPLS-2005>
1928.78686523438

> <r_mmod_Bend_Energy-OPLS-2005>
1134.07287597656

> <r_mmod_Torsional_Energy-OPLS-2005>
253.740341186523

> <r_mmod_Improper_Torsional_Energy-OPLS-2005>
5.21059560775757

> <r_mmod_Van_der_Waal_Energy-OPLS-2005>
136.971328735352

> <r_mmod_Electrostatic_Energy-OPLS-2005>
-343.119842529297

> <r_mmod_Solvation_Energy-OPLS-2005>
-223.109710693359

> <b_mmod_Minimization_Converged-OPLS-2005>
0

> <r_mmod_RMS_Derivative-OPLS-2005>
0.0710311159491539

$$$$
42
                    3D
 Structure written by MMmdl.
148156  0  0  1  0            999 V2000
  -30.3973  -15.5494   20.3455 C   0  0  0  0  0  0
  -30.4102  -13.0315   19.5195 C   0  0  0  0  0  0
  -29.5333  -12.6291   18.3053 C   0  0  0  0  0  0
  -28.1062  -12.2921   18.7573 C   0  0  0  0  0  0
  -27.5907  -13.3049   19.8059 C   0  0  2  0  0  0
  -28.6129  -13.6396   20.9172 C   0  0  0  0  0  0
  -25.2318  -13.8293   20.5810 C   0  0  0  0  0  0
  -24.1703  -13.0444   20.9295 C   0  0  0  0  0  0
  -24.6399  -11.6952   20.8773 C   0  0  0  0  0  0
  -23.9106  -10.4298   21.0402 C   0  0  0  0  0  0
  -24.3648   -9.4208   21.9178 C   0  0  0  0  0  0
  -23.6313   -8.2247   22.0751 C   0  0  0  0  0  0
  -22.4291   -8.0287   21.3545 C   0  0  0  0  0  0
  -21.9936   -9.0263   20.4646 C   0  0  0  0  0  0
  -22.7275  -10.2137   20.3053 C   0  0  0  0  0  0
  -21.6860   -6.0741   22.5279 C   0  0  0  0  0  0
  -21.4020   -6.5643   23.8213 C   0  0  0  0  0  0
  -21.3660   -5.6793   24.9173 C   0  0  0  0  0  0
  -21.6042   -4.3057   24.7223 C   0  0  0  0  0  0
  -21.8819   -3.8150   23.4343 C   0  0  0  0  0  0
  -21.9195   -4.6968   22.3400 C   0  0  0  0  0  0
  -22.7717  -13.5174   21.1924 C   0  0  0  0  0  0
  -22.1663   -4.2153   21.0978 F   0  0  0  0  0  0
  -21.5626   -3.4539   25.7735 F   0  0  0  0  0  0
  -29.7896  -14.2310   20.2422 N   0  0  0  0  0  0
  -26.2752  -12.9617   20.3238 N   0  0  0  0  0  0
  -25.9342  -11.6691   20.5714 N   0  0  0  0  0  0
  -22.0382  -12.8152   22.0479 N   0  0  0  0  0  0
  -25.3942  -15.2032   20.4265 N   0  0  0  0  0  0
  -31.6308  -15.3922   20.2555 O   0  0  0  0  0  0
  -21.6649   -6.8887   21.4242 O   0  0  0  0  0  0
  -22.3391  -14.5467   20.6754 O   0  0  0  0  0  0
  -24.6804  -31.8047   23.1556 C   0  0  0  0  0  0
  -25.9402  -32.4492   23.8087 C   0  0  1  0  0  0
  -27.2170  -26.7432   20.2134 C   0  0  0  0  0  0
  -25.5999  -33.8315   24.1977 N   0  0  0  0  0  0
  -23.5036  -30.4094   21.5090 C   0  0  2  0  0  0
  -24.9580  -28.7579   20.1198 C   0  0  0  0  0  0
  -22.7747  -29.4344   22.4727 C   0  0  0  0  0  0
  -18.0335  -28.1418   22.8458 C   0  0  0  0  0  0
  -24.1494  -36.7163   23.2649 C   0  0  0  0  0  0
  -26.0827  -30.5518   21.4130 C   0  0  0  0  0  0
  -26.1476  -29.1209   20.7628 C   0  0  0  0  0  0
  -27.2663  -28.1411   20.7753 C   0  0  0  0  0  0
  -25.9947  -26.5779   19.5173 C   0  0  0  0  0  0
  -24.9180  -27.5112   19.4733 C   0  0  0  0  0  0
  -23.7544  -29.7101   20.1428 C   0  0  0  0  0  0
  -25.4141  -36.2910   24.0285 C   0  0  1  0  0  0
  -20.5969  -28.3774   23.1153 C   0  0  2  0  0  0
  -20.6802  -26.9436   22.5407 C   0  0  0  0  0  0
  -19.5778  -26.6370   21.5218 C   0  0  0  0  0  0
  -18.1960  -26.7948   22.1620 C   0  0  0  0  0  0
  -19.1601  -28.8919   23.2788 C   0  0  0  0  0  0
  -18.9505  -30.1504   23.8830 C   0  0  0  0  0  0
  -17.6496  -30.6601   24.0549 C   0  0  0  0  0  0
  -25.9121  -34.9299   23.4964 C   0  0  0  0  0  0
  -16.5385  -29.9084   23.6347 C   0  0  0  0  0  0
  -16.7315  -28.6507   23.0367 C   0  0  0  0  0  0
  -26.4590  -31.6511   25.0693 C   0  0  0  0  0  0
  -25.3668  -31.3835   26.1321 C   0  0  0  0  0  0
  -27.0499  -30.2847   24.6565 C   0  0  0  0  0  0
  -27.6055  -32.4356   25.7500 C   0  0  0  0  0  0
  -27.5568  -37.1733   24.8459 C   0  0  0  0  0  0
  -21.4400  -29.3032   22.3477 N   0  0  0  0  0  0
  -26.4269  -37.3669   23.9412 N   0  0  0  0  0  0
  -24.7787  -30.9538   22.0785 N   0  0  0  0  0  0
  -23.4211  -28.7938   23.3051 O   0  0  0  0  0  0
  -28.1882  -25.5471   20.2629 O   0  0  0  0  0  0
  -26.5752  -34.8868   22.4576 O   0  0  0  0  0  0
  -23.5834  -32.1100   23.6540 O   0  0  0  0  0  0
  -29.0452  -22.3801   20.1628 C   0  0  0  0  0  0
  -30.2796  -19.8786   19.8916 C   0  0  0  0  0  0
  -28.2015  -19.5488   20.6133 C   0  0  0  0  0  0
  -30.6474  -18.3368   20.5542 C   0  0  0  0  0  0
  -28.5022  -17.8437   20.2357 C   0  0  0  0  0  0
  -27.9184  -23.8262   20.2927 C   0  0  0  0  0  0
  -29.0763  -20.8195   20.2548 N   0  0  0  0  0  0
  -29.8413  -17.0079   20.3754 N   0  0  0  0  0  0
  -30.1640  -22.8169   19.8750 O   0  0  0  0  0  0
  -31.4098  -13.2629   19.1496 H   0  0  0  0  0  0
  -30.5480  -12.1876   20.1977 H   0  0  0  0  0  0
  -29.9734  -11.7817   17.7778 H   0  0  0  0  0  0
  -29.5048  -13.4547   17.5927 H   0  0  0  0  0  0
  -28.1247  -11.2933   19.1949 H   0  0  0  0  0  0
  -27.4324  -12.2413   17.9012 H   0  0  0  0  0  0
  -27.4526  -14.2254   19.2368 H   0  0  0  0  0  0
  -28.8626  -12.7654   21.5200 H   0  0  0  0  0  0
  -28.1927  -14.3787   21.6011 H   0  0  0  0  0  0
  -25.2788   -9.5683   22.4761 H   0  0  0  0  0  0
  -24.0017   -7.4638   22.7472 H   0  0  0  0  0  0
  -21.0865   -8.8790   19.8953 H   0  0  0  0  0  0
  -22.3731  -10.9679   19.6168 H   0  0  0  0  0  0
  -21.2017   -7.6152   23.9716 H   0  0  0  0  0  0
  -21.1480   -6.0524   25.9076 H   0  0  0  0  0  0
  -22.0597   -2.7613   23.2842 H   0  0  0  0  0  0
  -22.4031  -11.9835   22.4879 H   0  0  0  0  0  0
  -21.0987  -13.1145   22.2671 H   0  0  0  0  0  0
  -24.6271  -15.8555   20.5473 H   0  0  0  0  0  0
  -26.2446  -15.6453   20.1034 H   0  0  0  0  0  0
  -26.7481  -32.4974   23.0799 H   0  0  0  0  0  0
  -25.0072  -33.9361   25.0080 H   0  0  0  0  0  0
  -22.8265  -31.2458   21.3232 H   0  0  0  0  0  0
  -23.3776  -35.9472   23.3258 H   0  0  0  0  0  0
  -24.3570  -36.8874   22.2074 H   0  0  0  0  0  0
  -23.7229  -37.6320   23.6754 H   0  0  0  0  0  0
  -26.2818  -31.2795   20.6251 H   0  0  0  0  0  0
  -26.9353  -30.6172   22.0767 H   0  0  0  0  0  0
  -28.1655  -28.4259   21.3033 H   0  0  0  0  0  0
  -25.8345  -25.6336   19.0173 H   0  0  0  0  0  0
  -24.0189  -27.2258   18.9443 H   0  0  0  0  0  0
  -23.9287  -30.4715   19.3818 H   0  0  0  0  0  0
  -22.8595  -29.1764   19.8185 H   0  0  0  0  0  0
  -25.1347  -36.1678   25.0775 H   0  0  0  0  0  0
  -21.0051  -28.3395   24.1280 H   0  0  0  0  0  0
  -20.5660  -26.2399   23.3667 H   0  0  0  0  0  0
  -21.6665  -26.7380   22.1227 H   0  0  0  0  0  0
  -19.6932  -25.6261   21.1295 H   0  0  0  0  0  0
  -19.6722  -27.3141   20.6717 H   0  0  0  0  0  0
  -17.4231  -26.6692   21.4021 H   0  0  0  0  0  0
  -18.0345  -26.0105   22.9030 H   0  0  0  0  0  0
  -19.7979  -30.7340   24.2169 H   0  0  0  0  0  0
  -17.5044  -31.6273   24.5165 H   0  0  0  0  0  0
  -15.5381  -30.2963   23.7709 H   0  0  0  0  0  0
  -15.8717  -28.0800   22.7120 H   0  0  0  0  0  0
  -24.5871  -30.7159   25.7638 H   0  0  0  0  0  0
  -24.8834  -32.3061   26.4545 H   0  0  0  0  0  0
  -25.7856  -30.9138   27.0229 H   0  0  0  0  0  0
  -26.3201  -29.6483   24.1550 H   0  0  0  0  0  0
  -27.3923  -29.7275   25.5295 H   0  0  0  0  0  0
  -27.9191  -30.3970   24.0083 H   0  0  0  0  0  0
  -27.2609  -33.3723   26.1895 H   0  0  0  0  0  0
  -28.3958  -32.6810   25.0393 H   0  0  0  0  0  0
  -28.0623  -31.8604   26.5564 H   0  0  0  0  0  0
  -28.2544  -38.0067   24.7528 H   0  0  0  0  0  0
  -28.1104  -36.2592   24.6255 H   0  0  0  0  0  0
  -27.2292  -37.1336   25.8862 H   0  0  0  0  0  0
  -20.9692  -29.8695   21.6555 H   0  0  0  0  0  0
  -26.0099  -38.2715   24.1440 H   0  0  0  0  0  0
  -30.2525  -19.7683   18.8066 H   0  0  0  0  0  0
  -31.1717  -20.4792   20.0717 H   0  0  0  0  0  0
  -28.1011  -19.5992   21.6982 H   0  0  0  0  0  0
  -27.2005  -19.7776   20.2466 H   0  0  0  0  0  0
  -30.7705  -18.4667   21.6304 H   0  0  0  0  0  0
  -31.6524  -18.0992   20.2025 H   0  0  0  0  0  0
  -28.2239  -17.7180   19.1887 H   0  0  0  0  0  0
  -27.7516  -17.2690   20.7788 H   0  0  0  0  0  0
  -27.3714  -23.6535   21.2196 H   0  0  0  0  0  0
  -27.1799  -23.6502   19.5112 H   0  0  0  0  0  0
  1 25  1  0  0  0
  1 30  2  0  0  0
  1 78  1  0  0  0
  2  3  1  0  0  0
  2 25  1  0  0  0
  2 80  1  0  0  0
  2 81  1  0  0  0
  3  4  1  0  0  0
  3 82  1  0  0  0
  3 83  1  0  0  0
  4  5  1  0  0  0
  4 84  1  0  0  0
  4 85  1  0  0  0
  5  6  1  0  0  0
  5 26  1  0  0  0
  5 86  1  0  0  0
  6 25  1  0  0  0
  6 87  1  0  0  0
  6 88  1  0  0  0
  7  8  2  0  0  0
  7 26  1  0  0  0
  7 29  1  0  0  0
  8  9  1  0  0  0
  8 22  1  0  0  0
  9 10  1  0  0  0
  9 27  2  0  0  0
 10 11  2  0  0  0
 10 15  1  0  0  0
 11 12  1  0  0  0
 11 89  1  0  0  0
 12 13  2  0  0  0
 12 90  1  0  0  0
 13 14  1  0  0  0
 13 31  1  0  0  0
 14 15  2  0  0  0
 14 91  1  0  0  0
 15 92  1  0  0  0
 16 17  2  0  0  0
 16 21  1  0  0  0
 16 31  1  0  0  0
 17 18  1  0  0  0
 17 93  1  0  0  0
 18 19  2  0  0  0
 18 94  1  0  0  0
 19 20  1  0  0  0
 19 24  1  0  0  0
 20 21  2  0  0  0
 20 95  1  0  0  0
 21 23  1  0  0  0
 22 28  1  0  0  0
 22 32  2  0  0  0
 26 27  1  0  0  0
 28 96  1  0  0  0
 28 97  1  0  0  0
 29 98  1  0  0  0
 29 99  1  0  0  0
 33 34  1  0  0  0
 33 66  1  0  0  0
 33 70  2  0  0  0
 34 36  1  0  0  0
 34 59  1  0  0  0
 34100  1  0  0  0
 35 44  2  0  0  0
 35 45  1  0  0  0
 35 68  1  0  0  0
 36 56  1  0  0  0
 36101  1  0  0  0
 37 39  1  0  0  0
 37 47  1  0  0  0
 37 66  1  0  0  0
 37102  1  0  0  0
 38 43  2  0  0  0
 38 46  1  0  0  0
 38 47  1  0  0  0
 39 64  1  0  0  0
 39 67  2  0  0  0
 40 52  1  0  0  0
 40 53  2  0  0  0
 40 58  1  0  0  0
 41103  1  0  0  0
 41104  1  0  0  0
 41105  1  0  0  0
 41 48  1  0  0  0
 42 43  1  0  0  0
 42 66  1  0  0  0
 42106  1  0  0  0
 42107  1  0  0  0
 43 44  1  0  0  0
 44108  1  0  0  0
 45 46  2  0  0  0
 45109  1  0  0  0
 46110  1  0  0  0
 47111  1  0  0  0
 47112  1  0  0  0
 48 56  1  0  0  0
 48 65  1  0  0  0
 48113  1  0  0  0
 49 50  1  0  0  0
 49 53  1  0  0  0
 49 64  1  0  0  0
 49114  1  0  0  0
 50 51  1  0  0  0
 50115  1  0  0  0
 50116  1  0  0  0
 51 52  1  0  0  0
 51117  1  0  0  0
 51118  1  0  0  0
 52119  1  0  0  0
 52120  1  0  0  0
 53 54  1  0  0  0
 54 55  2  0  0  0
 54121  1  0  0  0
 55 57  1  0  0  0
 55122  1  0  0  0
 56 69  2  0  0  0
 57 58  2  0  0  0
 57123  1  0  0  0
 58124  1  0  0  0
 59 60  1  0  0  0
 59 61  1  0  0  0
 59 62  1  0  0  0
 60125  1  0  0  0
 60126  1  0  0  0
 60127  1  0  0  0
 61128  1  0  0  0
 61129  1  0  0  0
 61130  1  0  0  0
 62131  1  0  0  0
 62132  1  0  0  0
 62133  1  0  0  0
 63 65  1  0  0  0
 63134  1  0  0  0
 63135  1  0  0  0
 63136  1  0  0  0
 64137  1  0  0  0
 65138  1  0  0  0
 68 76  1  0  0  0
 71 76  1  0  0  0
 71 77  1  0  0  0
 71 79  2  0  0  0
 72 74  1  0  0  0
 72 77  1  0  0  0
 72139  1  0  0  0
 72140  1  0  0  0
 73 75  1  0  0  0
 73 77  1  0  0  0
 73141  1  0  0  0
 73142  1  0  0  0
 74 78  1  0  0  0
 74143  1  0  0  0
 74144  1  0  0  0
 75 78  1  0  0  0
 75145  1  0  0  0
 75146  1  0  0  0
 76147  1  0  0  0
 76148  1  0  0  0
M  ISO  4   1 100  68 101  76 101  78 100
M  END
> <chiral flag>
0

> <version>
0

> <s_m_source_file>
/data/baiqing/PycharmProjects/Reinvent-master-3.2/result/LINK_invent/BTK/process_docking_weight1_custom_sum_contain_oxygen_bond_distance_aromatic_linkinvent_7_9_3/rearranged_h_0003.sdf

> <i_m_source_file_index>
42

> <r_mmod_Potential_Energy-OPLS-2005>
2369.73095703125

> <r_mmod_Stretch_Energy-OPLS-2005>
869.715454101562

> <r_mmod_Bend_Energy-OPLS-2005>
728.713317871094

> <r_mmod_Torsional_Energy-OPLS-2005>
368.303558349609

> <r_mmod_Improper_Torsional_Energy-OPLS-2005>
3.77189683914185

> <r_mmod_Van_der_Waal_Energy-OPLS-2005>
122.739151000977

> <r_mmod_Electrostatic_Energy-OPLS-2005>
-255.999908447266

> <r_mmod_Solvation_Energy-OPLS-2005>
-255.698532104492

> <b_mmod_Minimization_Converged-OPLS-2005>
0

> <r_mmod_RMS_Derivative-OPLS-2005>
0.484431892633438

$$$$
43
                    3D
 Structure written by MMmdl.
154162  0  0  1  0            999 V2000
  -30.6227  -14.6300   20.5089 C   0  0  0  0  0  0
  -30.4388  -12.3869   19.4518 C   0  0  0  0  0  0
  -29.5079  -12.5093   18.2247 C   0  0  0  0  0  0
  -28.0303  -12.3470   18.6351 C   0  0  0  0  0  0
  -27.6550  -13.2138   19.8663 C   0  0  2  0  0  0
  -28.6992  -13.0589   20.9956 C   0  0  0  0  0  0
  -25.2568  -13.8163   20.5682 C   0  0  0  0  0  0
  -24.1831  -13.0435   20.9185 C   0  0  0  0  0  0
  -24.6393  -11.6904   20.8738 C   0  0  0  0  0  0
  -23.9060  -10.4291   21.0404 C   0  0  0  0  0  0
  -24.3613   -9.4207   21.9182 C   0  0  0  0  0  0
  -23.6291   -8.2243   22.0753 C   0  0  0  0  0  0
  -22.4273   -8.0280   21.3543 C   0  0  0  0  0  0
  -21.9907   -9.0251   20.4644 C   0  0  0  0  0  0
  -22.7233  -10.2132   20.3053 C   0  0  0  0  0  0
  -21.6852   -6.0734   22.5276 C   0  0  0  0  0  0
  -21.4015   -6.5637   23.8210 C   0  0  0  0  0  0
  -21.3661   -5.6791   24.9174 C   0  0  0  0  0  0
  -21.6044   -4.3053   24.7223 C   0  0  0  0  0  0
  -21.8819   -3.8146   23.4344 C   0  0  0  0  0  0
  -21.9192   -4.6963   22.3400 C   0  0  0  0  0  0
  -22.7855  -13.5231   21.1849 C   0  0  0  0  0  0
  -22.1660   -4.2149   21.0979 F   0  0  0  0  0  0
  -21.5630   -3.4539   25.7737 F   0  0  0  0  0  0
  -30.0164  -13.4030   20.4356 N   0  0  0  0  0  0
  -26.2996  -12.9339   20.3327 N   0  0  0  0  0  0
  -25.9321  -11.6497   20.5756 N   0  0  0  0  0  0
  -22.0499  -12.8226   22.0409 N   0  0  0  0  0  0
  -25.4283  -15.1886   20.4092 N   0  0  0  0  0  0
  -31.7816  -14.7952   20.1158 O   0  0  0  0  0  0
  -21.6637   -6.8878   21.4240 O   0  0  0  0  0  0
  -22.3542  -14.5538   20.6697 O   0  0  0  0  0  0
  -24.6261  -31.8609   23.2040 C   0  0  0  0  0  0
  -25.9114  -32.4784   23.8364 C   0  0  1  0  0  0
  -27.2249  -27.3284   20.1108 C   0  0  0  0  0  0
  -25.5936  -33.8585   24.2289 N   0  0  0  0  0  0
  -23.4187  -30.4853   21.5466 C   0  0  2  0  0  0
  -24.8644  -28.9432   20.1105 C   0  0  0  0  0  0
  -22.7475  -29.4629   22.4942 C   0  0  0  0  0  0
  -18.0290  -28.1379   22.8485 C   0  0  0  0  0  0
  -24.1490  -36.7289   23.2641 C   0  0  0  0  0  0
  -25.9601  -30.7935   21.3752 C   0  0  0  0  0  0
  -26.0337  -29.4231   20.7138 C   0  0  0  0  0  0
  -27.2168  -28.6275   20.7037 C   0  0  0  0  0  0
  -26.0310  -26.9009   19.4832 C   0  0  0  0  0  0
  -24.8643  -27.6866   19.4876 C   0  0  0  0  0  0
  -23.6326  -29.8228   20.1609 C   0  0  0  0  0  0
  -25.4116  -36.3085   24.0331 C   0  0  1  0  0  0
  -20.5889  -28.3684   23.1281 C   0  0  2  0  0  0
  -20.6778  -26.9407   22.5407 C   0  0  0  0  0  0
  -19.5753  -26.6380   21.5210 C   0  0  0  0  0  0
  -18.1933  -26.7922   22.1622 C   0  0  0  0  0  0
  -19.1542  -28.8848   23.2877 C   0  0  0  0  0  0
  -18.9466  -30.1452   23.8891 C   0  0  0  0  0  0
  -17.6467  -30.6582   24.0559 C   0  0  0  0  0  0
  -25.9054  -34.9455   23.5107 C   0  0  0  0  0  0
  -16.5357  -29.9079   23.6329 C   0  0  0  0  0  0
  -16.7278  -28.6498   23.0347 C   0  0  0  0  0  0
  -26.4503  -31.6597   25.0734 C   0  0  0  0  0  0
  -25.3738  -31.3727   26.1462 C   0  0  0  0  0  0
  -27.0358  -30.3027   24.6191 C   0  0  0  0  0  0
  -27.6061  -32.4337   25.7502 C   0  0  0  0  0  0
  -27.5579  -37.1801   24.8467 C   0  0  0  0  0  0
  -21.4190  -29.3040   22.3677 N   0  0  0  0  0  0
  -26.4296  -37.3778   23.9409 N   0  0  0  0  0  0
  -24.6868  -31.0629   22.0986 N   0  0  0  0  0  0
  -23.4200  -28.8167   23.3020 O   0  0  0  0  0  0
  -28.3461  -26.4856   20.1638 O   0  0  0  0  0  0
  -26.5614  -34.8920   22.4669 O   0  0  0  0  0  0
  -23.5427  -32.1410   23.7371 O   0  0  0  0  0  0
  -28.7773  -17.9134   21.1288 C   0  0  0  0  0  0
  -31.0258  -17.8414   20.2871 C   0  0  0  0  0  0
  -28.7777  -19.3390   21.0559 C   0  0  0  0  0  0
  -31.0256  -19.2662   20.2174 C   0  0  0  0  0  0
  -29.8994  -17.1205   20.7601 C   0  0  0  0  0  0
  -29.9137  -20.0697   20.6149 C   0  0  0  0  0  0
  -29.0138  -22.4643   20.3565 C   0  0  0  0  0  0
  -31.3342  -22.0841   21.0064 C   0  0  0  0  0  0
  -29.2800  -24.0299   20.4502 C   0  0  0  0  0  0
  -28.1301  -25.0286   20.0078 C   0  0  0  0  0  0
  -29.8107  -15.6653   20.8905 N   0  0  0  0  0  0
  -30.0114  -21.5461   20.6533 N   0  0  0  0  0  0
  -27.8881  -22.0991   20.0037 O   0  0  0  0  0  0
  -31.4804  -12.5123   19.1502 H   0  0  0  0  0  0
  -30.3726  -11.3892   19.8883 H   0  0  0  0  0  0
  -29.7714  -11.7628   17.4744 H   0  0  0  0  0  0
  -29.6504  -13.4820   17.7511 H   0  0  0  0  0  0
  -27.8651  -11.2929   18.8619 H   0  0  0  0  0  0
  -27.3763  -12.5824   17.7947 H   0  0  0  0  0  0
  -27.6759  -14.2506   19.5301 H   0  0  0  0  0  0
  -28.7088  -12.0341   21.3697 H   0  0  0  0  0  0
  -28.4441  -13.6828   21.8535 H   0  0  0  0  0  0
  -25.2760   -9.5684   22.4754 H   0  0  0  0  0  0
  -24.0000   -7.4636   22.7474 H   0  0  0  0  0  0
  -21.0839   -8.8765   19.8952 H   0  0  0  0  0  0
  -22.3686  -10.9669   19.6163 H   0  0  0  0  0  0
  -21.2007   -7.6146   23.9713 H   0  0  0  0  0  0
  -21.1484   -6.0522   25.9076 H   0  0  0  0  0  0
  -22.0597   -2.7608   23.2842 H   0  0  0  0  0  0
  -22.4119  -11.9885   22.4790 H   0  0  0  0  0  0
  -21.1123  -13.1255   22.2629 H   0  0  0  0  0  0
  -24.6564  -15.8393   20.5065 H   0  0  0  0  0  0
  -26.2709  -15.6254   20.0577 H   0  0  0  0  0  0
  -26.7180  -32.5456   23.1111 H   0  0  0  0  0  0
  -25.0107  -33.9738   25.0450 H   0  0  0  0  0  0
  -22.7120  -31.3055   21.4053 H   0  0  0  0  0  0
  -23.3758  -35.9615   23.3306 H   0  0  0  0  0  0
  -24.3579  -36.8907   22.2054 H   0  0  0  0  0  0
  -23.7241  -37.6489   23.6664 H   0  0  0  0  0  0
  -26.0954  -31.5600   20.6110 H   0  0  0  0  0  0
  -26.8389  -30.8373   22.0069 H   0  0  0  0  0  0
  -28.1137  -28.9920   21.1844 H   0  0  0  0  0  0
  -25.9688  -25.9428   18.9896 H   0  0  0  0  0  0
  -23.9683  -27.3128   19.0113 H   0  0  0  0  0  0
  -23.7518  -30.6011   19.4063 H   0  0  0  0  0  0
  -22.7525  -29.2529   19.8570 H   0  0  0  0  0  0
  -25.1296  -36.1940   25.0824 H   0  0  0  0  0  0
  -20.9982  -28.3257   24.1402 H   0  0  0  0  0  0
  -20.5683  -26.2291   23.3605 H   0  0  0  0  0  0
  -21.6646  -26.7437   22.1199 H   0  0  0  0  0  0
  -19.6913  -25.6290   21.1239 H   0  0  0  0  0  0
  -19.6689  -27.3188   20.6734 H   0  0  0  0  0  0
  -17.4203  -26.6670   21.4024 H   0  0  0  0  0  0
  -18.0331  -26.0062   22.9016 H   0  0  0  0  0  0
  -19.7944  -30.7267   24.2257 H   0  0  0  0  0  0
  -17.5023  -31.6263   24.5159 H   0  0  0  0  0  0
  -15.5358  -30.2977   23.7661 H   0  0  0  0  0  0
  -15.8678  -28.0819   22.7058 H   0  0  0  0  0  0
  -24.5911  -30.7078   25.7793 H   0  0  0  0  0  0
  -24.8929  -32.2888   26.4898 H   0  0  0  0  0  0
  -25.8063  -30.8901   27.0234 H   0  0  0  0  0  0
  -26.2935  -29.6765   24.1228 H   0  0  0  0  0  0
  -27.4080  -29.7297   25.4694 H   0  0  0  0  0  0
  -27.8791  -30.4327   23.9404 H   0  0  0  0  0  0
  -27.2676  -33.3645   26.2065 H   0  0  0  0  0  0
  -28.3875  -32.6887   25.0331 H   0  0  0  0  0  0
  -28.0726  -31.8475   26.5431 H   0  0  0  0  0  0
  -28.2601  -38.0095   24.7519 H   0  0  0  0  0  0
  -28.1074  -36.2627   24.6296 H   0  0  0  0  0  0
  -27.2294  -37.1452   25.8870 H   0  0  0  0  0  0
  -20.9368  -29.8765   21.6889 H   0  0  0  0  0  0
  -26.0177  -38.2856   24.1408 H   0  0  0  0  0  0
  -27.8837  -17.4275   21.4955 H   0  0  0  0  0  0
  -31.9189  -17.3163   19.9810 H   0  0  0  0  0  0
  -27.8949  -19.8687   21.3848 H   0  0  0  0  0  0
  -31.9262  -19.7432   19.8577 H   0  0  0  0  0  0
  -31.9697  -21.3399   21.4859 H   0  0  0  0  0  0
  -31.2754  -22.8969   21.7296 H   0  0  0  0  0  0
  -31.8528  -22.4448   20.1175 H   0  0  0  0  0  0
  -30.1681  -24.2590   19.8618 H   0  0  0  0  0  0
  -29.5244  -24.2568   21.4872 H   0  0  0  0  0  0
  -27.2366  -24.7518   20.5703 H   0  0  0  0  0  0
  -27.9094  -24.8320   18.9577 H   0  0  0  0  0  0
  -28.9185  -15.3358   21.2256 H   0  0  0  0  0  0
  1 25  1  0  0  0
  1 30  2  0  0  0
  1 81  1  0  0  0
  2  3  1  0  0  0
  2 25  1  0  0  0
  2 84  1  0  0  0
  2 85  1  0  0  0
  3  4  1  0  0  0
  3 86  1  0  0  0
  3 87  1  0  0  0
  4  5  1  0  0  0
  4 88  1  0  0  0
  4 89  1  0  0  0
  5  6  1  0  0  0
  5 26  1  0  0  0
  5 90  1  0  0  0
  6 25  1  0  0  0
  6 91  1  0  0  0
  6 92  1  0  0  0
  7  8  2  0  0  0
  7 26  1  0  0  0
  7 29  1  0  0  0
  8  9  1  0  0  0
  8 22  1  0  0  0
  9 10  1  0  0  0
  9 27  2  0  0  0
 10 11  2  0  0  0
 10 15  1  0  0  0
 11 12  1  0  0  0
 11 93  1  0  0  0
 12 13  2  0  0  0
 12 94  1  0  0  0
 13 14  1  0  0  0
 13 31  1  0  0  0
 14 15  2  0  0  0
 14 95  1  0  0  0
 15 96  1  0  0  0
 16 17  2  0  0  0
 16 21  1  0  0  0
 16 31  1  0  0  0
 17 18  1  0  0  0
 17 97  1  0  0  0
 18 19  2  0  0  0
 18 98  1  0  0  0
 19 20  1  0  0  0
 19 24  1  0  0  0
 20 21  2  0  0  0
 20 99  1  0  0  0
 21 23  1  0  0  0
 22 28  1  0  0  0
 22 32  2  0  0  0
 26 27  1  0  0  0
 28100  1  0  0  0
 28101  1  0  0  0
 29102  1  0  0  0
 29103  1  0  0  0
 33 34  1  0  0  0
 33 66  1  0  0  0
 33 70  2  0  0  0
 34 36  1  0  0  0
 34 59  1  0  0  0
 34104  1  0  0  0
 35 44  2  0  0  0
 35 45  1  0  0  0
 35 68  1  0  0  0
 36 56  1  0  0  0
 36105  1  0  0  0
 37 39  1  0  0  0
 37 47  1  0  0  0
 37 66  1  0  0  0
 37106  1  0  0  0
 38 43  2  0  0  0
 38 46  1  0  0  0
 38 47  1  0  0  0
 39 64  1  0  0  0
 39 67  2  0  0  0
 40 52  1  0  0  0
 40 53  2  0  0  0
 40 58  1  0  0  0
 41107  1  0  0  0
 41108  1  0  0  0
 41109  1  0  0  0
 41 48  1  0  0  0
 42 43  1  0  0  0
 42 66  1  0  0  0
 42110  1  0  0  0
 42111  1  0  0  0
 43 44  1  0  0  0
 44112  1  0  0  0
 45 46  2  0  0  0
 45113  1  0  0  0
 46114  1  0  0  0
 47115  1  0  0  0
 47116  1  0  0  0
 48 56  1  0  0  0
 48 65  1  0  0  0
 48117  1  0  0  0
 49 50  1  0  0  0
 49 53  1  0  0  0
 49 64  1  0  0  0
 49118  1  0  0  0
 50 51  1  0  0  0
 50119  1  0  0  0
 50120  1  0  0  0
 51 52  1  0  0  0
 51121  1  0  0  0
 51122  1  0  0  0
 52123  1  0  0  0
 52124  1  0  0  0
 53 54  1  0  0  0
 54 55  2  0  0  0
 54125  1  0  0  0
 55 57  1  0  0  0
 55126  1  0  0  0
 56 69  2  0  0  0
 57 58  2  0  0  0
 57127  1  0  0  0
 58128  1  0  0  0
 59 60  1  0  0  0
 59 61  1  0  0  0
 59 62  1  0  0  0
 60129  1  0  0  0
 60130  1  0  0  0
 60131  1  0  0  0
 61132  1  0  0  0
 61133  1  0  0  0
 61134  1  0  0  0
 62135  1  0  0  0
 62136  1  0  0  0
 62137  1  0  0  0
 63 65  1  0  0  0
 63138  1  0  0  0
 63139  1  0  0  0
 63140  1  0  0  0
 64141  1  0  0  0
 65142  1  0  0  0
 68 80  1  0  0  0
 71 73  2  0  0  0
 71 75  1  0  0  0
 71143  1  0  0  0
 72 74  1  0  0  0
 72 75  2  0  0  0
 72144  1  0  0  0
 73 76  1  0  0  0
 73145  1  0  0  0
 74 76  2  0  0  0
 74146  1  0  0  0
 75 81  1  0  0  0
 76 82  1  0  0  0
 77 79  1  0  0  0
 77 82  1  0  0  0
 77 83  2  0  0  0
 78 82  1  0  0  0
 78147  1  0  0  0
 78148  1  0  0  0
 78149  1  0  0  0
 79 80  1  0  0  0
 79150  1  0  0  0
 79151  1  0  0  0
 80152  1  0  0  0
 80153  1  0  0  0
 81154  1  0  0  0
M  ISO  4   1 100  68 101  80 101  81 100
M  END
> <chiral flag>
0

> <version>
0

> <s_m_source_file>
/data/baiqing/PycharmProjects/Reinvent-master-3.2/result/LINK_invent/BTK/process_docking_weight1_custom_sum_contain_oxygen_bond_distance_aromatic_linkinvent_7_9_3/rearranged_h_0003.sdf

> <i_m_source_file_index>
43

> <r_mmod_Potential_Energy-OPLS-2005>
83.7000350952148

> <r_mmod_Stretch_Energy-OPLS-2005>
83.6945190429688

> <r_mmod_Bend_Energy-OPLS-2005>
135.925064086914

> <r_mmod_Torsional_Energy-OPLS-2005>
247.718826293945

> <r_mmod_Improper_Torsional_Energy-OPLS-2005>
4.16484975814819

> <r_mmod_Van_der_Waal_Energy-OPLS-2005>
160.718627929688

> <r_mmod_Electrostatic_Energy-OPLS-2005>
-374.598968505859

> <r_mmod_Solvation_Energy-OPLS-2005>
-218.854431152344

> <b_mmod_Minimization_Converged-OPLS-2005>
0

> <r_mmod_RMS_Derivative-OPLS-2005>
0.496785312891006

$$$$
44
                    3D
 Structure written by MMmdl.
174182  0  0  1  0            999 V2000
  -30.7196  -14.4635   20.5019 C   0  0  0  0  0  0
  -30.4191  -12.2876   19.4040 C   0  0  0  0  0  0
  -29.4854  -12.4528   18.1896 C   0  0  0  0  0  0
  -28.0089  -12.3181   18.6159 C   0  0  0  0  0  0
  -27.6497  -13.1847   19.8524 C   0  0  2  0  0  0
  -28.7051  -13.0374   20.9687 C   0  0  0  0  0  0
  -25.2576  -13.7981   20.5718 C   0  0  0  0  0  0
  -24.1820  -13.0327   20.9231 C   0  0  0  0  0  0
  -24.6364  -11.6798   20.8773 C   0  0  0  0  0  0
  -23.9031  -10.4217   21.0414 C   0  0  0  0  0  0
  -24.3591   -9.4142   21.9189 C   0  0  0  0  0  0
  -23.6262   -8.2191   22.0750 C   0  0  0  0  0  0
  -22.4246   -8.0242   21.3535 C   0  0  0  0  0  0
  -21.9877   -9.0216   20.4628 C   0  0  0  0  0  0
  -22.7213  -10.2092   20.3048 C   0  0  0  0  0  0
  -21.6843   -6.0707   22.5275 C   0  0  0  0  0  0
  -21.4002   -6.5615   23.8204 C   0  0  0  0  0  0
  -21.3658   -5.6776   24.9170 C   0  0  0  0  0  0
  -21.6051   -4.3037   24.7228 C   0  0  0  0  0  0
  -21.8822   -3.8130   23.4344 C   0  0  0  0  0  0
  -21.9192   -4.6941   22.3400 C   0  0  0  0  0  0
  -22.7867  -13.5214   21.1878 C   0  0  0  0  0  0
  -22.1669   -4.2123   21.0983 F   0  0  0  0  0  0
  -21.5629   -3.4527   25.7746 F   0  0  0  0  0  0
  -30.0240  -13.3056   20.3795 N   0  0  0  0  0  0
  -26.2981  -12.9152   20.3313 N   0  0  0  0  0  0
  -25.9282  -11.6343   20.5787 N   0  0  0  0  0  0
  -22.0485  -12.8216   22.0418 N   0  0  0  0  0  0
  -25.4243  -15.1637   20.4117 N   0  0  0  0  0  0
  -31.9273  -14.5610   20.2890 O   0  0  0  0  0  0
  -21.6608   -6.8849   21.4240 O   0  0  0  0  0  0
  -22.3616  -14.5556   20.6738 O   0  0  0  0  0  0
  -24.6108  -31.8728   23.2137 C   0  0  0  0  0  0
  -25.9020  -32.4855   23.8422 C   0  0  1  0  0  0
  -27.2454  -27.4803   20.0915 C   0  0  0  0  0  0
  -25.5900  -33.8650   24.2358 N   0  0  0  0  0  0
  -23.3967  -30.4935   21.5542 C   0  0  2  0  0  0
  -24.8451  -28.9598   20.1245 C   0  0  0  0  0  0
  -22.7389  -29.4664   22.5026 C   0  0  0  0  0  0
  -18.0273  -28.1372   22.8466 C   0  0  0  0  0  0
  -24.1486  -36.7321   23.2636 C   0  0  0  0  0  0
  -25.9210  -30.8474   21.3638 C   0  0  0  0  0  0
  -26.0005  -29.4822   20.7198 C   0  0  0  0  0  0
  -27.2028  -28.7465   20.7065 C   0  0  0  0  0  0
  -26.0784  -26.9646   19.4874 C   0  0  0  0  0  0
  -24.8754  -27.6954   19.5100 C   0  0  0  0  0  0
  -23.6051  -29.8225   20.1701 C   0  0  0  0  0  0
  -25.4103  -36.3138   24.0348 C   0  0  1  0  0  0
  -20.5855  -28.3629   23.1322 C   0  0  2  0  0  0
  -20.6758  -26.9371   22.5416 C   0  0  0  0  0  0
  -19.5749  -26.6376   21.5191 C   0  0  0  0  0  0
  -18.1911  -26.7940   22.1568 C   0  0  0  0  0  0
  -19.1518  -28.8817   23.2900 C   0  0  0  0  0  0
  -18.9447  -30.1418   23.8923 C   0  0  0  0  0  0
  -17.6446  -30.6565   24.0571 C   0  0  0  0  0  0
  -25.9029  -34.9503   23.5141 C   0  0  0  0  0  0
  -16.5341  -29.9074   23.6313 C   0  0  0  0  0  0
  -16.7259  -28.6500   23.0320 C   0  0  0  0  0  0
  -26.4453  -31.6625   25.0734 C   0  0  0  0  0  0
  -25.3718  -31.3726   26.1482 C   0  0  0  0  0  0
  -27.0276  -30.3082   24.6075 C   0  0  0  0  0  0
  -27.6059  -32.4316   25.7471 C   0  0  0  0  0  0
  -27.5586  -37.1813   24.8467 C   0  0  0  0  0  0
  -21.4128  -29.3011   22.3752 N   0  0  0  0  0  0
  -26.4302  -37.3810   23.9411 N   0  0  0  0  0  0
  -24.6603  -31.0854   22.1027 N   0  0  0  0  0  0
  -23.4183  -28.8209   23.3054 O   0  0  0  0  0  0
  -28.4322  -26.7912   20.0478 O   0  0  0  0  0  0
  -26.5578  -34.8947   22.4695 O   0  0  0  0  0  0
  -23.5311  -32.1466   23.7555 O   0  0  0  0  0  0
  -29.7403  -16.6636   16.9096 C   0  0  0  0  0  0
  -28.4411  -17.1972   16.8824 C   0  0  0  0  0  0
  -30.2579  -16.1387   18.1051 C   0  0  0  0  0  0
  -28.2101  -16.7682   19.2717 C   0  0  0  0  0  0
  -27.6575  -17.2402   18.0538 C   0  0  0  0  0  0
  -29.4849  -16.1567   19.2926 C   0  0  0  0  0  0
  -26.2739  -17.7300   17.9264 C   0  0  0  0  0  0
  -25.3968  -17.9590   18.9232 C   0  0  0  0  0  0
  -24.0265  -18.3351   18.6222 C   0  0  0  0  0  0
  -28.0597  -24.4112   20.2437 C   0  0  0  0  0  0
  -28.5322  -25.6861   20.9468 C   0  0  0  0  0  0
  -22.4942  -21.5029   20.1676 C   0  0  0  0  0  0
  -23.8636  -21.8259   19.5441 C   0  0  0  0  0  0
  -21.6845  -20.4545   19.3785 C   0  0  0  0  0  0
  -24.6874  -22.8098   20.3807 C   0  0  0  0  0  0
  -21.9267  -18.9858   19.7898 C   0  0  0  0  0  0
  -26.1144  -22.9493   19.8359 C   0  0  0  0  0  0
  -29.9773  -15.5834   20.5044 N   0  0  0  0  0  0
  -23.3293  -18.5886   19.7351 N   0  0  0  0  0  0
  -26.8470  -23.9620   20.5779 N   0  0  0  0  0  0
  -23.5318  -18.4156   17.4952 O   0  0  0  0  0  0
  -28.7478  -23.8853   19.3652 O   0  0  0  0  0  0
  -31.4618  -12.3849   19.0984 H   0  0  0  0  0  0
  -30.3200  -11.2907   19.8362 H   0  0  0  0  0  0
  -29.7225  -11.7033   17.4326 H   0  0  0  0  0  0
  -29.6476  -13.4222   17.7174 H   0  0  0  0  0  0
  -27.8307  -11.2654   18.8393 H   0  0  0  0  0  0
  -27.3526  -12.5647   17.7813 H   0  0  0  0  0  0
  -27.6613  -14.2129   19.5101 H   0  0  0  0  0  0
  -28.6844  -12.0308   21.3883 H   0  0  0  0  0  0
  -28.4923  -13.7206   21.7931 H   0  0  0  0  0  0
  -25.2736   -9.5603   22.4771 H   0  0  0  0  0  0
  -23.9962   -7.4566   22.7458 H   0  0  0  0  0  0
  -21.0812   -8.8722   19.8926 H   0  0  0  0  0  0
  -22.3673  -10.9636   19.6158 H   0  0  0  0  0  0
  -21.1987   -7.6123   23.9695 H   0  0  0  0  0  0
  -21.1484   -6.0506   25.9070 H   0  0  0  0  0  0
  -22.0605   -2.7586   23.2853 H   0  0  0  0  0  0
  -22.4082  -11.9849   22.4762 H   0  0  0  0  0  0
  -21.1101  -13.1240   22.2614 H   0  0  0  0  0  0
  -24.6157  -15.7737   20.4210 H   0  0  0  0  0  0
  -26.2160  -15.5470   19.9143 H   0  0  0  0  0  0
  -26.7086  -32.5588   23.1191 H   0  0  0  0  0  0
  -25.0101  -33.9815   25.0536 H   0  0  0  0  0  0
  -22.6827  -31.3083   21.4166 H   0  0  0  0  0  0
  -23.3760  -35.9644   23.3320 H   0  0  0  0  0  0
  -24.3587  -36.8905   22.2048 H   0  0  0  0  0  0
  -23.7219  -37.6527   23.6622 H   0  0  0  0  0  0
  -26.0253  -31.6088   20.5896 H   0  0  0  0  0  0
  -26.8120  -30.9063   21.9776 H   0  0  0  0  0  0
  -28.0986  -29.1489   21.1586 H   0  0  0  0  0  0
  -26.0969  -26.0096   18.9824 H   0  0  0  0  0  0
  -23.9896  -27.2879   19.0439 H   0  0  0  0  0  0
  -23.7171  -30.5972   19.4105 H   0  0  0  0  0  0
  -22.7294  -29.2419   19.8726 H   0  0  0  0  0  0
  -25.1270  -36.2022   25.0841 H   0  0  0  0  0  0
  -20.9927  -28.3182   24.1448 H   0  0  0  0  0  0
  -20.5647  -26.2232   23.3588 H   0  0  0  0  0  0
  -21.6641  -26.7412   22.1235 H   0  0  0  0  0  0
  -19.6907  -25.6296   21.1185 H   0  0  0  0  0  0
  -19.6725  -27.3205   20.6739 H   0  0  0  0  0  0
  -17.4214  -26.6752   21.3925 H   0  0  0  0  0  0
  -18.0254  -26.0068   22.8934 H   0  0  0  0  0  0
  -19.7925  -30.7213   24.2320 H   0  0  0  0  0  0
  -17.4998  -31.6237   24.5183 H   0  0  0  0  0  0
  -15.5340  -30.2979   23.7624 H   0  0  0  0  0  0
  -15.8659  -28.0838   22.7004 H   0  0  0  0  0  0
  -24.5886  -30.7078   25.7813 H   0  0  0  0  0  0
  -24.8906  -32.2881   26.4940 H   0  0  0  0  0  0
  -25.8067  -30.8885   27.0234 H   0  0  0  0  0  0
  -26.2824  -29.6856   24.1110 H   0  0  0  0  0  0
  -27.4057  -29.7302   25.4516 H   0  0  0  0  0  0
  -27.8650  -30.4436   23.9224 H   0  0  0  0  0  0
  -27.2723  -33.3611   26.2096 H   0  0  0  0  0  0
  -28.3835  -32.6876   25.0259 H   0  0  0  0  0  0
  -28.0762  -31.8400   26.5334 H   0  0  0  0  0  0
  -28.2613  -38.0101   24.7514 H   0  0  0  0  0  0
  -28.1071  -36.2635   24.6288 H   0  0  0  0  0  0
  -27.2312  -37.1462   25.8872 H   0  0  0  0  0  0
  -20.9302  -29.8736   21.6964 H   0  0  0  0  0  0
  -26.0211  -38.2899   24.1403 H   0  0  0  0  0  0
  -30.3319  -16.6364   16.0060 H   0  0  0  0  0  0
  -28.0437  -17.5609   15.9442 H   0  0  0  0  0  0
  -31.2532  -15.7155   18.0847 H   0  0  0  0  0  0
  -27.6389  -16.8068   20.1867 H   0  0  0  0  0  0
  -25.9390  -17.8830   16.9088 H   0  0  0  0  0  0
  -25.7028  -17.8443   19.9522 H   0  0  0  0  0  0
  -29.5758  -25.5610   21.2378 H   0  0  0  0  0  0
  -27.9732  -25.8627   21.8682 H   0  0  0  0  0  0
  -21.9152  -22.4270   20.2117 H   0  0  0  0  0  0
  -22.6125  -21.1770   21.2019 H   0  0  0  0  0  0
  -23.7249  -22.2219   18.5360 H   0  0  0  0  0  0
  -24.4535  -20.9208   19.4310 H   0  0  0  0  0  0
  -21.8557  -20.5797   18.3080 H   0  0  0  0  0  0
  -20.6229  -20.6591   19.5265 H   0  0  0  0  0  0
  -24.7310  -22.4624   21.4142 H   0  0  0  0  0  0
  -24.1904  -23.7809   20.3955 H   0  0  0  0  0  0
  -21.3312  -18.3216   19.1608 H   0  0  0  0  0  0
  -21.5745  -18.8260   20.8096 H   0  0  0  0  0  0
  -26.0815  -23.2334   18.7819 H   0  0  0  0  0  0
  -26.6427  -21.9955   19.8917 H   0  0  0  0  0  0
  -30.3752  -16.2855   21.1105 H   0  0  0  0  0  0
  -23.8117  -18.5003   20.6190 H   0  0  0  0  0  0
  -26.3581  -24.4502   21.3166 H   0  0  0  0  0  0
  1 25  1  0  0  0
  1 30  2  0  0  0
  1 88  1  0  0  0
  2  3  1  0  0  0
  2 25  1  0  0  0
  2 93  1  0  0  0
  2 94  1  0  0  0
  3  4  1  0  0  0
  3 95  1  0  0  0
  3 96  1  0  0  0
  4  5  1  0  0  0
  4 97  1  0  0  0
  4 98  1  0  0  0
  5  6  1  0  0  0
  5 26  1  0  0  0
  5 99  1  0  0  0
  6 25  1  0  0  0
  6100  1  0  0  0
  6101  1  0  0  0
  7  8  2  0  0  0
  7 26  1  0  0  0
  7 29  1  0  0  0
  8  9  1  0  0  0
  8 22  1  0  0  0
  9 10  1  0  0  0
  9 27  2  0  0  0
 10 11  2  0  0  0
 10 15  1  0  0  0
 11 12  1  0  0  0
 11102  1  0  0  0
 12 13  2  0  0  0
 12103  1  0  0  0
 13 14  1  0  0  0
 13 31  1  0  0  0
 14 15  2  0  0  0
 14104  1  0  0  0
 15105  1  0  0  0
 16 17  2  0  0  0
 16 21  1  0  0  0
 16 31  1  0  0  0
 17 18  1  0  0  0
 17106  1  0  0  0
 18 19  2  0  0  0
 18107  1  0  0  0
 19 20  1  0  0  0
 19 24  1  0  0  0
 20 21  2  0  0  0
 20108  1  0  0  0
 21 23  1  0  0  0
 22 28  1  0  0  0
 22 32  2  0  0  0
 26 27  1  0  0  0
 28109  1  0  0  0
 28110  1  0  0  0
 29111  1  0  0  0
 29112  1  0  0  0
 33 34  1  0  0  0
 33 66  1  0  0  0
 33 70  2  0  0  0
 34 36  1  0  0  0
 34 59  1  0  0  0
 34113  1  0  0  0
 35 44  2  0  0  0
 35 45  1  0  0  0
 35 68  1  0  0  0
 36 56  1  0  0  0
 36114  1  0  0  0
 37 39  1  0  0  0
 37 47  1  0  0  0
 37 66  1  0  0  0
 37115  1  0  0  0
 38 43  2  0  0  0
 38 46  1  0  0  0
 38 47  1  0  0  0
 39 64  1  0  0  0
 39 67  2  0  0  0
 40 52  1  0  0  0
 40 53  2  0  0  0
 40 58  1  0  0  0
 41116  1  0  0  0
 41117  1  0  0  0
 41118  1  0  0  0
 41 48  1  0  0  0
 42 43  1  0  0  0
 42 66  1  0  0  0
 42119  1  0  0  0
 42120  1  0  0  0
 43 44  1  0  0  0
 44121  1  0  0  0
 45 46  2  0  0  0
 45122  1  0  0  0
 46123  1  0  0  0
 47124  1  0  0  0
 47125  1  0  0  0
 48 56  1  0  0  0
 48 65  1  0  0  0
 48126  1  0  0  0
 49 50  1  0  0  0
 49 53  1  0  0  0
 49 64  1  0  0  0
 49127  1  0  0  0
 50 51  1  0  0  0
 50128  1  0  0  0
 50129  1  0  0  0
 51 52  1  0  0  0
 51130  1  0  0  0
 51131  1  0  0  0
 52132  1  0  0  0
 52133  1  0  0  0
 53 54  1  0  0  0
 54 55  2  0  0  0
 54134  1  0  0  0
 55 57  1  0  0  0
 55135  1  0  0  0
 56 69  2  0  0  0
 57 58  2  0  0  0
 57136  1  0  0  0
 58137  1  0  0  0
 59 60  1  0  0  0
 59 61  1  0  0  0
 59 62  1  0  0  0
 60138  1  0  0  0
 60139  1  0  0  0
 60140  1  0  0  0
 61141  1  0  0  0
 61142  1  0  0  0
 61143  1  0  0  0
 62144  1  0  0  0
 62145  1  0  0  0
 62146  1  0  0  0
 63 65  1  0  0  0
 63147  1  0  0  0
 63148  1  0  0  0
 63149  1  0  0  0
 64150  1  0  0  0
 65151  1  0  0  0
 68 81  1  0  0  0
 71 72  2  0  0  0
 71 73  1  0  0  0
 71152  1  0  0  0
 72 75  1  0  0  0
 72153  1  0  0  0
 73 76  2  0  0  0
 73154  1  0  0  0
 74 75  2  0  0  0
 74 76  1  0  0  0
 74155  1  0  0  0
 75 77  1  0  0  0
 76 88  1  0  0  0
 77 78  2  0  0  0
 77156  1  0  0  0
 78 79  1  0  0  0
 78157  1  0  0  0
 79 89  1  0  0  0
 79 91  2  0  0  0
 80 81  1  0  0  0
 80 90  1  0  0  0
 80 92  2  0  0  0
 81158  1  0  0  0
 81159  1  0  0  0
 82 83  1  0  0  0
 82 84  1  0  0  0
 82160  1  0  0  0
 82161  1  0  0  0
 83 85  1  0  0  0
 83162  1  0  0  0
 83163  1  0  0  0
 84 86  1  0  0  0
 84164  1  0  0  0
 84165  1  0  0  0
 85 87  1  0  0  0
 85166  1  0  0  0
 85167  1  0  0  0
 86 89  1  0  0  0
 86168  1  0  0  0
 86169  1  0  0  0
 87 90  1  0  0  0
 87170  1  0  0  0
 87171  1  0  0  0
 88172  1  0  0  0
 89173  1  0  0  0
 90174  1  0  0  0
M  ISO  4   1 100  68 101  81 101  88 100
M  END
> <chiral flag>
0

> <version>
0

> <s_m_source_file>
/data/baiqing/PycharmProjects/Reinvent-master-3.2/result/LINK_invent/BTK/process_docking_weight1_custom_sum_contain_oxygen_bond_distance_aromatic_linkinvent_7_9_3/rearranged_h_0003.sdf

> <i_m_source_file_index>
44

> <r_mmod_Potential_Energy-OPLS-2005>
-88.7881622314453

> <r_mmod_Stretch_Energy-OPLS-2005>
31.5709571838379

> <r_mmod_Bend_Energy-OPLS-2005>
94.6007690429688

> <r_mmod_Torsional_Energy-OPLS-2005>
313.661315917969

> <r_mmod_Improper_Torsional_Energy-OPLS-2005>
15.9334754943848

> <r_mmod_Van_der_Waal_Energy-OPLS-2005>
142.589630126953

> <r_mmod_Electrostatic_Energy-OPLS-2005>
-461.341552734375

> <r_mmod_Solvation_Energy-OPLS-2005>
-248.942459106445

> <b_mmod_Minimization_Converged-OPLS-2005>
0

> <r_mmod_RMS_Derivative-OPLS-2005>
1.825563788414

$$$$
45
                    3D
 Structure written by MMmdl.
170178  0  0  1  0            999 V2000
  -30.7237  -14.4192   20.5319 C   0  0  0  0  0  0
  -30.4097  -12.2595   19.4314 C   0  0  0  0  0  0
  -29.4960  -12.4895   18.2094 C   0  0  0  0  0  0
  -28.0137  -12.3684   18.6138 C   0  0  0  0  0  0
  -27.6624  -13.2069   19.8734 C   0  0  2  0  0  0
  -28.7003  -12.9902   20.9991 C   0  0  0  0  0  0
  -25.2589  -13.8164   20.5668 C   0  0  0  0  0  0
  -24.1833  -13.0448   20.9159 C   0  0  0  0  0  0
  -24.6381  -11.6912   20.8721 C   0  0  0  0  0  0
  -23.9042  -10.4297   21.0392 C   0  0  0  0  0  0
  -24.3601   -9.4214   21.9164 C   0  0  0  0  0  0
  -23.6284   -8.2246   22.0743 C   0  0  0  0  0  0
  -22.4267   -8.0280   21.3535 C   0  0  0  0  0  0
  -21.9895   -9.0251   20.4637 C   0  0  0  0  0  0
  -22.7220  -10.2132   20.3043 C   0  0  0  0  0  0
  -21.6849   -6.0733   22.5270 C   0  0  0  0  0  0
  -21.4015   -6.5633   23.8205 C   0  0  0  0  0  0
  -21.3662   -5.6780   24.9165 C   0  0  0  0  0  0
  -21.6046   -4.3046   24.7218 C   0  0  0  0  0  0
  -21.8817   -3.8141   23.4338 C   0  0  0  0  0  0
  -21.9191   -4.6960   22.3397 C   0  0  0  0  0  0
  -22.7854  -13.5251   21.1825 C   0  0  0  0  0  0
  -22.1661   -4.2146   21.0974 F   0  0  0  0  0  0
  -21.5634   -3.4532   25.7734 F   0  0  0  0  0  0
  -30.0378  -13.2531   20.4478 N   0  0  0  0  0  0
  -26.3022  -12.9333   20.3350 N   0  0  0  0  0  0
  -25.9304  -11.6491   20.5737 N   0  0  0  0  0  0
  -22.0484  -12.8259   22.0387 N   0  0  0  0  0  0
  -25.4328  -15.1877   20.4068 N   0  0  0  0  0  0
  -31.8883  -14.5434   20.1416 O   0  0  0  0  0  0
  -21.6636   -6.8875   21.4232 O   0  0  0  0  0  0
  -22.3542  -14.5562   20.6676 O   0  0  0  0  0  0
  -24.6062  -31.8721   23.2124 C   0  0  0  0  0  0
  -25.8982  -32.4849   23.8405 C   0  0  1  0  0  0
  -27.2615  -27.4894   20.1033 C   0  0  0  0  0  0
  -25.5864  -33.8643   24.2350 N   0  0  0  0  0  0
  -23.3917  -30.4923   21.5505 C   0  0  2  0  0  0
  -24.8437  -28.9604   20.1171 C   0  0  0  0  0  0
  -22.7364  -29.4672   22.5017 C   0  0  0  0  0  0
  -18.0263  -28.1371   22.8497 C   0  0  0  0  0  0
  -24.1487  -36.7330   23.2638 C   0  0  0  0  0  0
  -25.9095  -30.8594   21.3518 C   0  0  0  0  0  0
  -25.9929  -29.4933   20.7100 C   0  0  0  0  0  0
  -27.1977  -28.7691   20.7060 C   0  0  0  0  0  0
  -26.0943  -26.9613   19.5122 C   0  0  0  0  0  0
  -24.8860  -27.6887   19.5160 C   0  0  0  0  0  0
  -23.5985  -29.8161   20.1663 C   0  0  0  0  0  0
  -25.4104  -36.3133   24.0345 C   0  0  1  0  0  0
  -20.5844  -28.3647   23.1345 C   0  0  2  0  0  0
  -20.6756  -26.9392   22.5427 C   0  0  0  0  0  0
  -19.5739  -26.6386   21.5215 C   0  0  0  0  0  0
  -18.1915  -26.7921   22.1623 C   0  0  0  0  0  0
  -19.1510  -28.8826   23.2920 C   0  0  0  0  0  0
  -18.9442  -30.1437   23.8927 C   0  0  0  0  0  0
  -17.6445  -30.6584   24.0566 C   0  0  0  0  0  0
  -25.9022  -34.9492   23.5147 C   0  0  0  0  0  0
  -16.5336  -29.9088   23.6322 C   0  0  0  0  0  0
  -16.7251  -28.6503   23.0344 C   0  0  0  0  0  0
  -26.4445  -31.6602   25.0700 C   0  0  0  0  0  0
  -25.3738  -31.3677   26.1466 C   0  0  0  0  0  0
  -27.0270  -30.3065   24.6004 C   0  0  0  0  0  0
  -27.6041  -32.4305   25.7449 C   0  0  0  0  0  0
  -27.5586  -37.1816   24.8465 C   0  0  0  0  0  0
  -21.4100  -29.3022   22.3755 N   0  0  0  0  0  0
  -26.4300  -37.3806   23.9408 N   0  0  0  0  0  0
  -24.6538  -31.0876   22.0986 N   0  0  0  0  0  0
  -23.4166  -28.8227   23.3046 O   0  0  0  0  0  0
  -28.4064  -26.7211   20.0561 O   0  0  0  0  0  0
  -26.5585  -34.8932   22.4709 O   0  0  0  0  0  0
  -23.5275  -32.1439   23.7563 O   0  0  0  0  0  0
  -30.6283  -16.9700   18.9908 C   0  0  0  0  0  0
  -30.1321  -17.9413   21.1648 C   0  0  0  0  0  0
  -30.9623  -18.2371   18.4885 C   0  0  0  0  0  0
  -30.4658  -19.2159   20.6573 C   0  0  0  0  0  0
  -30.2549  -16.8003   20.3450 C   0  0  0  0  0  0
  -30.9171  -19.3759   19.3273 C   0  0  0  0  0  0
  -30.7158  -26.2293   20.6347 C   0  0  0  0  0  0
  -32.0380  -26.8399   21.1334 C   0  0  0  0  0  0
  -32.6603  -22.1229   17.5515 C   0  0  0  0  0  0
  -34.3659  -23.6566   18.5259 C   0  0  0  0  0  0
  -29.5748  -27.2496   20.6774 C   0  0  0  0  0  0
  -33.1897  -25.8320   21.2262 C   0  0  0  0  0  0
  -32.0612  -20.7205   17.7069 C   0  0  0  0  0  0
  -34.5275  -24.4663   19.8150 C   0  0  0  0  0  0
  -30.0024  -15.5015   20.8700 N   0  0  0  0  0  0
  -33.4539  -22.5110   18.7389 N   0  3  0  0  0  0
  -31.3009  -20.6356   18.9155 O   0  0  0  0  0  0
  -33.3078  -25.1763   19.9759 O   0  0  0  0  0  0
  -31.4592  -12.3247   19.1393 H   0  0  0  0  0  0
  -30.2780  -11.2510   19.8276 H   0  0  0  0  0  0
  -29.7295  -11.7691   17.4242 H   0  0  0  0  0  0
  -29.6838  -13.4768   17.7832 H   0  0  0  0  0  0
  -27.8074  -11.3145   18.8012 H   0  0  0  0  0  0
  -27.3722  -12.6583   17.7808 H   0  0  0  0  0  0
  -27.7092  -14.2542   19.5726 H   0  0  0  0  0  0
  -28.6539  -11.9637   21.3674 H   0  0  0  0  0  0
  -28.4814  -13.6224   21.8608 H   0  0  0  0  0  0
  -25.2742   -9.5707   22.4739 H   0  0  0  0  0  0
  -23.9999   -7.4641   22.7466 H   0  0  0  0  0  0
  -21.0824   -8.8759   19.8948 H   0  0  0  0  0  0
  -22.3661  -10.9662   19.6159 H   0  0  0  0  0  0
  -21.2007   -7.6137   23.9711 H   0  0  0  0  0  0
  -21.1489   -6.0508   25.9066 H   0  0  0  0  0  0
  -22.0600   -2.7608   23.2830 H   0  0  0  0  0  0
  -22.4095  -11.9943   22.4808 H   0  0  0  0  0  0
  -21.1095  -13.1293   22.2569 H   0  0  0  0  0  0
  -24.6679  -15.8457   20.5114 H   0  0  0  0  0  0
  -26.2884  -15.6229   20.0847 H   0  0  0  0  0  0
  -26.7061  -32.5601   23.1191 H   0  0  0  0  0  0
  -25.0017  -33.9816   25.0494 H   0  0  0  0  0  0
  -22.6771  -31.3060   21.4107 H   0  0  0  0  0  0
  -23.3742  -35.9672   23.3323 H   0  0  0  0  0  0
  -24.3584  -36.8916   22.2048 H   0  0  0  0  0  0
  -23.7249  -37.6549   23.6630 H   0  0  0  0  0  0
  -26.0016  -31.6221   20.5771 H   0  0  0  0  0  0
  -26.8036  -30.9285   21.9588 H   0  0  0  0  0  0
  -28.0629  -29.2214   21.1674 H   0  0  0  0  0  0
  -26.1241  -25.9855   19.0481 H   0  0  0  0  0  0
  -24.0022  -27.2679   19.0571 H   0  0  0  0  0  0
  -23.6951  -30.5865   19.4004 H   0  0  0  0  0  0
  -22.7270  -29.2250   19.8791 H   0  0  0  0  0  0
  -25.1278  -36.2011   25.0839 H   0  0  0  0  0  0
  -20.9940  -28.3211   24.1462 H   0  0  0  0  0  0
  -20.5668  -26.2250   23.3602 H   0  0  0  0  0  0
  -21.6629  -26.7450   22.1218 H   0  0  0  0  0  0
  -19.6903  -25.6306   21.1226 H   0  0  0  0  0  0
  -19.6681  -27.3213   20.6759 H   0  0  0  0  0  0
  -17.4188  -26.6676   21.4020 H   0  0  0  0  0  0
  -18.0310  -26.0056   22.9010 H   0  0  0  0  0  0
  -19.7916  -30.7242   24.2309 H   0  0  0  0  0  0
  -17.5002  -31.6267   24.5159 H   0  0  0  0  0  0
  -15.5341  -30.3000   23.7629 H   0  0  0  0  0  0
  -15.8653  -28.0835   22.7042 H   0  0  0  0  0  0
  -24.5901  -30.7037   25.7799 H   0  0  0  0  0  0
  -24.8934  -32.2821   26.4957 H   0  0  0  0  0  0
  -25.8109  -30.8812   27.0195 H   0  0  0  0  0  0
  -26.2786  -29.6833   24.1093 H   0  0  0  0  0  0
  -27.4120  -29.7282   25.4413 H   0  0  0  0  0  0
  -27.8578  -30.4421   23.9076 H   0  0  0  0  0  0
  -27.2676  -33.3584   26.2085 H   0  0  0  0  0  0
  -28.3810  -32.6901   25.0246 H   0  0  0  0  0  0
  -28.0754  -31.8392   26.5310 H   0  0  0  0  0  0
  -28.2615  -38.0102   24.7512 H   0  0  0  0  0  0
  -28.1070  -36.2638   24.6292 H   0  0  0  0  0  0
  -27.2306  -37.1471   25.8868 H   0  0  0  0  0  0
  -20.9249  -29.8726   21.6970 H   0  0  0  0  0  0
  -26.0200  -38.2892   24.1395 H   0  0  0  0  0  0
  -30.6958  -16.1223   18.3227 H   0  0  0  0  0  0
  -29.8223  -17.8435   22.1960 H   0  0  0  0  0  0
  -31.2647  -18.2945   17.4533 H   0  0  0  0  0  0
  -30.4026  -20.0763   21.3086 H   0  0  0  0  0  0
  -30.4509  -25.3606   21.2379 H   0  0  0  0  0  0
  -30.8409  -25.8727   19.6115 H   0  0  0  0  0  0
  -31.8893  -27.2935   22.1141 H   0  0  0  0  0  0
  -32.3289  -27.6533   20.4671 H   0  0  0  0  0  0
  -31.8709  -22.8580   17.3898 H   0  0  0  0  0  0
  -33.2940  -22.1347   16.6637 H   0  0  0  0  0  0
  -35.3327  -23.2825   18.1881 H   0  0  0  0  0  0
  -33.9903  -24.3125   17.7391 H   0  0  0  0  0  0
  -29.8791  -28.1622   20.1612 H   0  0  0  0  0  0
  -29.3738  -27.5008   21.7206 H   0  0  0  0  0  0
  -33.0044  -25.1007   22.0143 H   0  0  0  0  0  0
  -34.1116  -26.3600   21.4785 H   0  0  0  0  0  0
  -32.8717  -19.9895   17.7093 H   0  0  0  0  0  0
  -31.4237  -20.5039   16.8484 H   0  0  0  0  0  0
  -35.3551  -25.1718   19.7242 H   0  0  0  0  0  0
  -34.7354  -23.8166   20.6679 H   0  0  0  0  0  0
  -29.1235  -15.3498   21.3423 H   0  0  0  0  0  0
  -33.9926  -21.7222   19.0639 H   0  0  0  0  0  0
  -32.8052  -22.7505   19.4760 H   0  0  0  0  0  0
  1 25  1  0  0  0
  1 30  2  0  0  0
  1 85  1  0  0  0
  2  3  1  0  0  0
  2 25  1  0  0  0
  2 89  1  0  0  0
  2 90  1  0  0  0
  3  4  1  0  0  0
  3 91  1  0  0  0
  3 92  1  0  0  0
  4  5  1  0  0  0
  4 93  1  0  0  0
  4 94  1  0  0  0
  5  6  1  0  0  0
  5 26  1  0  0  0
  5 95  1  0  0  0
  6 25  1  0  0  0
  6 96  1  0  0  0
  6 97  1  0  0  0
  7  8  2  0  0  0
  7 26  1  0  0  0
  7 29  1  0  0  0
  8  9  1  0  0  0
  8 22  1  0  0  0
  9 10  1  0  0  0
  9 27  2  0  0  0
 10 11  2  0  0  0
 10 15  1  0  0  0
 11 12  1  0  0  0
 11 98  1  0  0  0
 12 13  2  0  0  0
 12 99  1  0  0  0
 13 14  1  0  0  0
 13 31  1  0  0  0
 14 15  2  0  0  0
 14100  1  0  0  0
 15101  1  0  0  0
 16 17  2  0  0  0
 16 21  1  0  0  0
 16 31  1  0  0  0
 17 18  1  0  0  0
 17102  1  0  0  0
 18 19  2  0  0  0
 18103  1  0  0  0
 19 20  1  0  0  0
 19 24  1  0  0  0
 20 21  2  0  0  0
 20104  1  0  0  0
 21 23  1  0  0  0
 22 28  1  0  0  0
 22 32  2  0  0  0
 26 27  1  0  0  0
 28105  1  0  0  0
 28106  1  0  0  0
 29107  1  0  0  0
 29108  1  0  0  0
 33 34  1  0  0  0
 33 66  1  0  0  0
 33 70  2  0  0  0
 34 36  1  0  0  0
 34 59  1  0  0  0
 34109  1  0  0  0
 35 44  2  0  0  0
 35 45  1  0  0  0
 35 68  1  0  0  0
 36 56  1  0  0  0
 36110  1  0  0  0
 37 39  1  0  0  0
 37 47  1  0  0  0
 37 66  1  0  0  0
 37111  1  0  0  0
 38 43  2  0  0  0
 38 46  1  0  0  0
 38 47  1  0  0  0
 39 64  1  0  0  0
 39 67  2  0  0  0
 40 52  1  0  0  0
 40 53  2  0  0  0
 40 58  1  0  0  0
 41112  1  0  0  0
 41113  1  0  0  0
 41114  1  0  0  0
 41 48  1  0  0  0
 42 43  1  0  0  0
 42 66  1  0  0  0
 42115  1  0  0  0
 42116  1  0  0  0
 43 44  1  0  0  0
 44117  1  0  0  0
 45 46  2  0  0  0
 45118  1  0  0  0
 46119  1  0  0  0
 47120  1  0  0  0
 47121  1  0  0  0
 48 56  1  0  0  0
 48 65  1  0  0  0
 48122  1  0  0  0
 49 50  1  0  0  0
 49 53  1  0  0  0
 49 64  1  0  0  0
 49123  1  0  0  0
 50 51  1  0  0  0
 50124  1  0  0  0
 50125  1  0  0  0
 51 52  1  0  0  0
 51126  1  0  0  0
 51127  1  0  0  0
 52128  1  0  0  0
 52129  1  0  0  0
 53 54  1  0  0  0
 54 55  2  0  0  0
 54130  1  0  0  0
 55 57  1  0  0  0
 55131  1  0  0  0
 56 69  2  0  0  0
 57 58  2  0  0  0
 57132  1  0  0  0
 58133  1  0  0  0
 59 60  1  0  0  0
 59 61  1  0  0  0
 59 62  1  0  0  0
 60134  1  0  0  0
 60135  1  0  0  0
 60136  1  0  0  0
 61137  1  0  0  0
 61138  1  0  0  0
 61139  1  0  0  0
 62140  1  0  0  0
 62141  1  0  0  0
 62142  1  0  0  0
 63 65  1  0  0  0
 63143  1  0  0  0
 63144  1  0  0  0
 63145  1  0  0  0
 64146  1  0  0  0
 65147  1  0  0  0
 68 81  1  0  0  0
 71 73  2  0  0  0
 71 75  1  0  0  0
 71148  1  0  0  0
 72 74  1  0  0  0
 72 75  2  0  0  0
 72149  1  0  0  0
 73 76  1  0  0  0
 73150  1  0  0  0
 74 76  2  0  0  0
 74151  1  0  0  0
 75 85  1  0  0  0
 76 87  1  0  0  0
 77 78  1  0  0  0
 77 81  1  0  0  0
 77152  1  0  0  0
 77153  1  0  0  0
 78 82  1  0  0  0
 78154  1  0  0  0
 78155  1  0  0  0
 79 83  1  0  0  0
 79 86  1  0  0  0
 79156  1  0  0  0
 79157  1  0  0  0
 80 84  1  0  0  0
 80 86  1  0  0  0
 80158  1  0  0  0
 80159  1  0  0  0
 81160  1  0  0  0
 81161  1  0  0  0
 82 88  1  0  0  0
 82162  1  0  0  0
 82163  1  0  0  0
 83 87  1  0  0  0
 83164  1  0  0  0
 83165  1  0  0  0
 84 88  1  0  0  0
 84166  1  0  0  0
 84167  1  0  0  0
 85168  1  0  0  0
 86169  1  0  0  0
 86170  1  0  0  0
M  CHG  1  86   1
M  ISO  4   1 100  68 101  81 101  85 100
M  END
> <chiral flag>
0

> <version>
0

> <s_m_source_file>
/data/baiqing/PycharmProjects/Reinvent-master-3.2/result/LINK_invent/BTK/process_docking_weight1_custom_sum_contain_oxygen_bond_distance_aromatic_linkinvent_7_9_3/rearranged_h_0003.sdf

> <i_m_source_file_index>
45

> <r_mmod_Potential_Energy-OPLS-2005>
-163.238876342773

> <r_mmod_Stretch_Energy-OPLS-2005>
32.9063339233398

> <r_mmod_Bend_Energy-OPLS-2005>
95.9401626586914

> <r_mmod_Torsional_Energy-OPLS-2005>
253.983581542969

> <r_mmod_Improper_Torsional_Energy-OPLS-2005>
5.27655506134033

> <r_mmod_Van_der_Waal_Energy-OPLS-2005>
168.005874633789

> <r_mmod_Electrostatic_Energy-OPLS-2005>
-302.834014892578

> <r_mmod_Solvation_Energy-OPLS-2005>
-428.335144042969

> <b_mmod_Minimization_Converged-OPLS-2005>
0

> <r_mmod_RMS_Derivative-OPLS-2005>
1.27236938476562

$$$$
46
                    3D
 Structure written by MMmdl.
157165  0  0  1  0            999 V2000
  -30.8088  -14.4059   20.6146 C   0  0  0  0  0  0
  -30.4021  -12.2901   19.4311 C   0  0  0  0  0  0
  -29.4850  -12.4966   18.2122 C   0  0  0  0  0  0
  -28.0134  -12.3557   18.6339 C   0  0  0  0  0  0
  -27.6643  -13.2149   19.8788 C   0  0  2  0  0  0
  -28.7082  -13.0354   21.0088 C   0  0  0  0  0  0
  -25.2597  -13.8184   20.5697 C   0  0  0  0  0  0
  -24.1841  -13.0438   20.9175 C   0  0  0  0  0  0
  -24.6413  -11.6919   20.8752 C   0  0  0  0  0  0
  -23.9078  -10.4289   21.0412 C   0  0  0  0  0  0
  -24.3623   -9.4198   21.9192 C   0  0  0  0  0  0
  -23.6284   -8.2235   22.0762 C   0  0  0  0  0  0
  -22.4271   -8.0278   21.3544 C   0  0  0  0  0  0
  -21.9918   -9.0261   20.4646 C   0  0  0  0  0  0
  -22.7255  -10.2131   20.3054 C   0  0  0  0  0  0
  -21.6853   -6.0728   22.5271 C   0  0  0  0  0  0
  -21.4013   -6.5636   23.8206 C   0  0  0  0  0  0
  -21.3657   -5.6790   24.9169 C   0  0  0  0  0  0
  -21.6042   -4.3050   24.7227 C   0  0  0  0  0  0
  -21.8825   -3.8143   23.4350 C   0  0  0  0  0  0
  -21.9195   -4.6954   22.3398 C   0  0  0  0  0  0
  -22.7857  -13.5230   21.1813 C   0  0  0  0  0  0
  -22.1662   -4.2131   21.0976 F   0  0  0  0  0  0
  -21.5633   -3.4542   25.7745 F   0  0  0  0  0  0
  -30.0489  -13.2880   20.4552 N   0  0  0  0  0  0
  -26.3047  -12.9375   20.3419 N   0  0  0  0  0  0
  -25.9344  -11.6532   20.5821 N   0  0  0  0  0  0
  -22.0511  -12.8216   22.0374 N   0  0  0  0  0  0
  -25.4325  -15.1893   20.4098 N   0  0  0  0  0  0
  -31.8359  -14.5855   19.9581 O   0  0  0  0  0  0
  -21.6644   -6.8871   21.4229 O   0  0  0  0  0  0
  -22.3543  -14.5536   20.6666 O   0  0  0  0  0  0
  -24.6125  -31.8699   23.2146 C   0  0  0  0  0  0
  -25.9044  -32.4835   23.8409 C   0  0  1  0  0  0
  -27.2351  -27.4529   20.0909 C   0  0  0  0  0  0
  -25.5924  -33.8638   24.2353 N   0  0  0  0  0  0
  -23.3993  -30.4907   21.5545 C   0  0  2  0  0  0
  -24.8442  -28.9625   20.1136 C   0  0  0  0  0  0
  -22.7401  -29.4621   22.5021 C   0  0  0  0  0  0
  -18.0252  -28.1348   22.8484 C   0  0  0  0  0  0
  -24.1487  -36.7313   23.2642 C   0  0  0  0  0  0
  -25.9242  -30.8392   21.3642 C   0  0  0  0  0  0
  -26.0002  -29.4737   20.7143 C   0  0  0  0  0  0
  -27.1964  -28.7238   20.7032 C   0  0  0  0  0  0
  -26.0616  -26.9551   19.4762 C   0  0  0  0  0  0
  -24.8675  -27.7010   19.4942 C   0  0  0  0  0  0
  -23.6083  -29.8307   20.1647 C   0  0  0  0  0  0
  -25.4111  -36.3130   24.0340 C   0  0  1  0  0  0
  -20.5846  -28.3634   23.1327 C   0  0  2  0  0  0
  -20.6761  -26.9372   22.5413 C   0  0  0  0  0  0
  -19.5743  -26.6382   21.5197 C   0  0  0  0  0  0
  -18.1916  -26.7904   22.1596 C   0  0  0  0  0  0
  -19.1504  -28.8814   23.2895 C   0  0  0  0  0  0
  -18.9438  -30.1426   23.8897 C   0  0  0  0  0  0
  -17.6449  -30.6577   24.0540 C   0  0  0  0  0  0
  -25.9035  -34.9502   23.5141 C   0  0  0  0  0  0
  -16.5342  -29.9073   23.6306 C   0  0  0  0  0  0
  -16.7245  -28.6489   23.0322 C   0  0  0  0  0  0
  -26.4506  -31.6607   25.0714 C   0  0  0  0  0  0
  -25.3781  -31.3662   26.1460 C   0  0  0  0  0  0
  -27.0294  -30.3055   24.6012 C   0  0  0  0  0  0
  -27.6073  -32.4346   25.7488 C   0  0  0  0  0  0
  -27.5585  -37.1821   24.8467 C   0  0  0  0  0  0
  -21.4130  -29.3014   22.3773 N   0  0  0  0  0  0
  -26.4304  -37.3812   23.9406 N   0  0  0  0  0  0
  -24.6628  -31.0800   22.1051 N   0  0  0  0  0  0
  -23.4186  -28.8182   23.3059 O   0  0  0  0  0  0
  -28.4347  -26.7750   20.0987 O   0  0  0  0  0  0
  -26.5578  -34.8959   22.4688 O   0  0  0  0  0  0
  -23.5322  -32.1485   23.7553 O   0  0  0  0  0  0
  -33.1949  -17.7682   22.1885 C   0  0  0  0  0  0
  -32.4706  -18.9632   22.3344 C   0  0  0  0  0  0
  -32.5136  -16.5657   21.9320 C   0  0  0  0  0  0
  -30.3787  -17.7390   22.0107 C   0  0  0  0  0  0
  -31.0607  -18.9596   22.2375 C   0  0  0  0  0  0
  -31.1002  -16.5382   21.8138 C   0  0  0  0  0  0
  -30.3009  -20.2389   22.4257 C   0  0  0  0  0  0
  -29.7560  -23.3208   20.7806 C   0  0  0  0  0  0
  -29.3020  -24.7594   21.0662 C   0  0  0  0  0  0
  -30.4329  -22.6936   22.0083 C   0  0  0  0  0  0
  -28.4578  -25.3576   19.9337 C   0  0  0  0  0  0
  -30.3982  -15.3283   21.5080 N   0  0  0  0  0  0
  -30.8111  -21.3010   21.7882 N   0  0  0  0  0  0
  -29.2904  -20.2810   23.1282 O   0  0  0  0  0  0
  -31.4492  -12.3427   19.1267 H   0  0  0  0  0  0
  -30.2735  -11.2892   19.8429 H   0  0  0  0  0  0
  -29.7223  -11.7637   17.4391 H   0  0  0  0  0  0
  -29.6573  -13.4796   17.7713 H   0  0  0  0  0  0
  -27.8352  -11.3013   18.8513 H   0  0  0  0  0  0
  -27.3551  -12.6085   17.8013 H   0  0  0  0  0  0
  -27.7008  -14.2561   19.5594 H   0  0  0  0  0  0
  -28.6701  -12.0203   21.4053 H   0  0  0  0  0  0
  -28.4692  -13.6891   21.8474 H   0  0  0  0  0  0
  -25.2764   -9.5665   22.4775 H   0  0  0  0  0  0
  -23.9985   -7.4631   22.7492 H   0  0  0  0  0  0
  -21.0852   -8.8784   19.8954 H   0  0  0  0  0  0
  -22.3726  -10.9671   19.6162 H   0  0  0  0  0  0
  -21.2005   -7.6147   23.9694 H   0  0  0  0  0  0
  -21.1474   -6.0531   25.9069 H   0  0  0  0  0  0
  -22.0610   -2.7601   23.2862 H   0  0  0  0  0  0
  -22.4136  -11.9866   22.4733 H   0  0  0  0  0  0
  -21.1122  -13.1232   22.2580 H   0  0  0  0  0  0
  -24.6713  -15.8512   20.5138 H   0  0  0  0  0  0
  -26.2959  -15.6246   20.1073 H   0  0  0  0  0  0
  -26.7112  -32.5560   23.1163 H   0  0  0  0  0  0
  -25.0133  -33.9789   25.0534 H   0  0  0  0  0  0
  -22.6888  -31.3069   21.4189 H   0  0  0  0  0  0
  -23.3758  -35.9635   23.3307 H   0  0  0  0  0  0
  -24.3584  -36.8915   22.2057 H   0  0  0  0  0  0
  -23.7235  -37.6522   23.6636 H   0  0  0  0  0  0
  -26.0282  -31.6035   20.5933 H   0  0  0  0  0  0
  -26.8164  -30.8998   21.9741 H   0  0  0  0  0  0
  -28.0944  -29.1155   21.1639 H   0  0  0  0  0  0
  -26.0478  -26.0100   18.9534 H   0  0  0  0  0  0
  -23.9805  -27.3059   19.0175 H   0  0  0  0  0  0
  -23.7275  -30.6125   19.4138 H   0  0  0  0  0  0
  -22.7304  -29.2588   19.8588 H   0  0  0  0  0  0
  -25.1278  -36.2012   25.0829 H   0  0  0  0  0  0
  -20.9907  -28.3205   24.1450 H   0  0  0  0  0  0
  -20.5710  -26.2219   23.3596 H   0  0  0  0  0  0
  -21.6629  -26.7470   22.1162 H   0  0  0  0  0  0
  -19.6913  -25.6307   21.1191 H   0  0  0  0  0  0
  -19.6676  -27.3225   20.6754 H   0  0  0  0  0  0
  -17.4184  -26.6649   21.3987 H   0  0  0  0  0  0
  -18.0281  -26.0045   22.8979 H   0  0  0  0  0  0
  -19.7935  -30.7206   24.2287 H   0  0  0  0  0  0
  -17.5021  -31.6248   24.5165 H   0  0  0  0  0  0
  -15.5347  -30.2971   23.7671 H   0  0  0  0  0  0
  -15.8632  -28.0838   22.7018 H   0  0  0  0  0  0
  -24.5967  -30.6996   25.7798 H   0  0  0  0  0  0
  -24.8951  -32.2782   26.4972 H   0  0  0  0  0  0
  -25.8169  -30.8804   27.0177 H   0  0  0  0  0  0
  -26.2752  -29.6845   24.1156 H   0  0  0  0  0  0
  -27.4171  -29.7280   25.4412 H   0  0  0  0  0  0
  -27.8567  -30.4367   23.9034 H   0  0  0  0  0  0
  -27.2652  -33.3636   26.2066 H   0  0  0  0  0  0
  -28.3886  -32.6938   25.0327 H   0  0  0  0  0  0
  -28.0723  -31.8467   26.5408 H   0  0  0  0  0  0
  -28.2613  -38.0128   24.7538 H   0  0  0  0  0  0
  -28.1084  -36.2643   24.6265 H   0  0  0  0  0  0
  -27.2281  -37.1452   25.8877 H   0  0  0  0  0  0
  -20.9329  -29.8735   21.6973 H   0  0  0  0  0  0
  -26.0193  -38.2888   24.1422 H   0  0  0  0  0  0
  -34.2746  -17.7719   22.2683 H   0  0  0  0  0  0
  -33.0064  -19.8811   22.5395 H   0  0  0  0  0  0
  -33.1010  -15.6642   21.8178 H   0  0  0  0  0  0
  -29.2985  -17.7456   21.9511 H   0  0  0  0  0  0
  -30.4465  -23.3280   19.9353 H   0  0  0  0  0  0
  -28.9024  -22.7156   20.4745 H   0  0  0  0  0  0
  -30.1807  -25.3773   21.2504 H   0  0  0  0  0  0
  -28.7207  -24.7870   21.9893 H   0  0  0  0  0  0
  -29.7888  -22.7863   22.8842 H   0  0  0  0  0  0
  -31.3375  -23.2527   22.2464 H   0  0  0  0  0  0
  -27.4810  -24.8751   19.9710 H   0  0  0  0  0  0
  -28.9013  -25.1326   18.9626 H   0  0  0  0  0  0
  -29.4852  -15.1974   21.9148 H   0  0  0  0  0  0
  -31.5896  -21.1199   21.1674 H   0  0  0  0  0  0
  1 25  1  0  0  0
  1 30  2  0  0  0
  1 82  1  0  0  0
  2  3  1  0  0  0
  2 25  1  0  0  0
  2 85  1  0  0  0
  2 86  1  0  0  0
  3  4  1  0  0  0
  3 87  1  0  0  0
  3 88  1  0  0  0
  4  5  1  0  0  0
  4 89  1  0  0  0
  4 90  1  0  0  0
  5  6  1  0  0  0
  5 26  1  0  0  0
  5 91  1  0  0  0
  6 25  1  0  0  0
  6 92  1  0  0  0
  6 93  1  0  0  0
  7  8  2  0  0  0
  7 26  1  0  0  0
  7 29  1  0  0  0
  8  9  1  0  0  0
  8 22  1  0  0  0
  9 10  1  0  0  0
  9 27  2  0  0  0
 10 11  2  0  0  0
 10 15  1  0  0  0
 11 12  1  0  0  0
 11 94  1  0  0  0
 12 13  2  0  0  0
 12 95  1  0  0  0
 13 14  1  0  0  0
 13 31  1  0  0  0
 14 15  2  0  0  0
 14 96  1  0  0  0
 15 97  1  0  0  0
 16 17  2  0  0  0
 16 21  1  0  0  0
 16 31  1  0  0  0
 17 18  1  0  0  0
 17 98  1  0  0  0
 18 19  2  0  0  0
 18 99  1  0  0  0
 19 20  1  0  0  0
 19 24  1  0  0  0
 20 21  2  0  0  0
 20100  1  0  0  0
 21 23  1  0  0  0
 22 28  1  0  0  0
 22 32  2  0  0  0
 26 27  1  0  0  0
 28101  1  0  0  0
 28102  1  0  0  0
 29103  1  0  0  0
 29104  1  0  0  0
 33 34  1  0  0  0
 33 66  1  0  0  0
 33 70  2  0  0  0
 34 36  1  0  0  0
 34 59  1  0  0  0
 34105  1  0  0  0
 35 44  2  0  0  0
 35 45  1  0  0  0
 35 68  1  0  0  0
 36 56  1  0  0  0
 36106  1  0  0  0
 37 39  1  0  0  0
 37 47  1  0  0  0
 37 66  1  0  0  0
 37107  1  0  0  0
 38 43  2  0  0  0
 38 46  1  0  0  0
 38 47  1  0  0  0
 39 64  1  0  0  0
 39 67  2  0  0  0
 40 52  1  0  0  0
 40 53  2  0  0  0
 40 58  1  0  0  0
 41108  1  0  0  0
 41109  1  0  0  0
 41110  1  0  0  0
 41 48  1  0  0  0
 42 43  1  0  0  0
 42 66  1  0  0  0
 42111  1  0  0  0
 42112  1  0  0  0
 43 44  1  0  0  0
 44113  1  0  0  0
 45 46  2  0  0  0
 45114  1  0  0  0
 46115  1  0  0  0
 47116  1  0  0  0
 47117  1  0  0  0
 48 56  1  0  0  0
 48 65  1  0  0  0
 48118  1  0  0  0
 49 50  1  0  0  0
 49 53  1  0  0  0
 49 64  1  0  0  0
 49119  1  0  0  0
 50 51  1  0  0  0
 50120  1  0  0  0
 50121  1  0  0  0
 51 52  1  0  0  0
 51122  1  0  0  0
 51123  1  0  0  0
 52124  1  0  0  0
 52125  1  0  0  0
 53 54  1  0  0  0
 54 55  2  0  0  0
 54126  1  0  0  0
 55 57  1  0  0  0
 55127  1  0  0  0
 56 69  2  0  0  0
 57 58  2  0  0  0
 57128  1  0  0  0
 58129  1  0  0  0
 59 60  1  0  0  0
 59 61  1  0  0  0
 59 62  1  0  0  0
 60130  1  0  0  0
 60131  1  0  0  0
 60132  1  0  0  0
 61133  1  0  0  0
 61134  1  0  0  0
 61135  1  0  0  0
 62136  1  0  0  0
 62137  1  0  0  0
 62138  1  0  0  0
 63 65  1  0  0  0
 63139  1  0  0  0
 63140  1  0  0  0
 63141  1  0  0  0
 64142  1  0  0  0
 65143  1  0  0  0
 68 81  1  0  0  0
 71 72  2  0  0  0
 71 73  1  0  0  0
 71144  1  0  0  0
 72 75  1  0  0  0
 72145  1  0  0  0
 73 76  2  0  0  0
 73146  1  0  0  0
 74 75  2  0  0  0
 74 76  1  0  0  0
 74147  1  0  0  0
 75 77  1  0  0  0
 76 82  1  0  0  0
 77 83  1  0  0  0
 77 84  2  0  0  0
 78 79  1  0  0  0
 78 80  1  0  0  0
 78148  1  0  0  0
 78149  1  0  0  0
 79 81  1  0  0  0
 79150  1  0  0  0
 79151  1  0  0  0
 80 83  1  0  0  0
 80152  1  0  0  0
 80153  1  0  0  0
 81154  1  0  0  0
 81155  1  0  0  0
 82156  1  0  0  0
 83157  1  0  0  0
M  ISO  4   1 100  68 101  81 101  82 100
M  END
> <chiral flag>
0

> <version>
0

> <s_m_source_file>
/data/baiqing/PycharmProjects/Reinvent-master-3.2/result/LINK_invent/BTK/process_docking_weight1_custom_sum_contain_oxygen_bond_distance_aromatic_linkinvent_7_9_3/rearranged_h_0003.sdf

> <i_m_source_file_index>
46

> <r_mmod_Potential_Energy-OPLS-2005>
-120.534523010254

> <r_mmod_Stretch_Energy-OPLS-2005>
34.2773170471191

> <r_mmod_Bend_Energy-OPLS-2005>
97.4316787719727

> <r_mmod_Torsional_Energy-OPLS-2005>
228.261764526367

> <r_mmod_Improper_Torsional_Energy-OPLS-2005>
1.94049167633057

> <r_mmod_Van_der_Waal_Energy-OPLS-2005>
166.155792236328

> <r_mmod_Electrostatic_Energy-OPLS-2005>
-432.180847167969

> <r_mmod_Solvation_Energy-OPLS-2005>
-228.631439208984

> <b_mmod_Minimization_Converged-OPLS-2005>
0

> <r_mmod_RMS_Derivative-OPLS-2005>
3.67431449890137

$$$$
47
                    3D
 Structure written by MMmdl.
169177  0  0  1  0            999 V2000
  -30.7747  -14.3542   20.7253 C   0  0  0  0  0  0
  -30.4319  -12.3019   19.3865 C   0  0  0  0  0  0
  -29.4914  -12.5382   18.1899 C   0  0  0  0  0  0
  -28.0161  -12.3846   18.6061 C   0  0  0  0  0  0
  -27.6734  -13.1991   19.8800 C   0  0  2  0  0  0
  -28.7107  -12.9272   20.9917 C   0  0  0  0  0  0
  -25.2651  -13.8145   20.5668 C   0  0  0  0  0  0
  -24.1878  -13.0433   20.9150 C   0  0  0  0  0  0
  -24.6419  -11.6902   20.8710 C   0  0  0  0  0  0
  -23.9071  -10.4292   21.0394 C   0  0  0  0  0  0
  -24.3614   -9.4208   21.9182 C   0  0  0  0  0  0
  -23.6285   -8.2246   22.0759 C   0  0  0  0  0  0
  -22.4268   -8.0279   21.3546 C   0  0  0  0  0  0
  -21.9903   -9.0256   20.4648 C   0  0  0  0  0  0
  -22.7237  -10.2136   20.3053 C   0  0  0  0  0  0
  -21.6857   -6.0732   22.5272 C   0  0  0  0  0  0
  -21.4013   -6.5637   23.8202 C   0  0  0  0  0  0
  -21.3660   -5.6790   24.9163 C   0  0  0  0  0  0
  -21.6045   -4.3053   24.7216 C   0  0  0  0  0  0
  -21.8823   -3.8146   23.4337 C   0  0  0  0  0  0
  -21.9189   -4.6960   22.3392 C   0  0  0  0  0  0
  -22.7899  -13.5241   21.1807 C   0  0  0  0  0  0
  -22.1663   -4.2146   21.0973 F   0  0  0  0  0  0
  -21.5626   -3.4540   25.7731 F   0  0  0  0  0  0
  -30.0607  -13.2260   20.4686 N   0  0  0  0  0  0
  -26.3090  -12.9307   20.3356 N   0  0  0  0  0  0
  -25.9342  -11.6474   20.5733 N   0  0  0  0  0  0
  -22.0533  -12.8250   22.0372 N   0  0  0  0  0  0
  -25.4379  -15.1861   20.4101 N   0  0  0  0  0  0
  -31.7551  -14.6955   20.0570 O   0  0  0  0  0  0
  -21.6638   -6.8875   21.4235 O   0  0  0  0  0  0
  -22.3587  -14.5548   20.6652 O   0  0  0  0  0  0
  -24.6064  -31.8674   23.2137 C   0  0  0  0  0  0
  -25.8981  -32.4810   23.8423 C   0  0  1  0  0  0
  -27.2439  -27.4685   20.1162 C   0  0  0  0  0  0
  -25.5868  -33.8612   24.2348 N   0  0  0  0  0  0
  -23.3923  -30.4917   21.5498 C   0  0  2  0  0  0
  -24.8467  -28.9655   20.1137 C   0  0  0  0  0  0
  -22.7373  -29.4626   22.4977 C   0  0  0  0  0  0
  -18.0266  -28.1357   22.8466 C   0  0  0  0  0  0
  -24.1476  -36.7306   23.2642 C   0  0  0  0  0  0
  -25.9169  -30.8524   21.3588 C   0  0  0  0  0  0
  -25.9999  -29.4886   20.7115 C   0  0  0  0  0  0
  -27.2008  -28.7498   20.7101 C   0  0  0  0  0  0
  -26.0806  -26.9567   19.5033 C   0  0  0  0  0  0
  -24.8801  -27.6968   19.5047 C   0  0  0  0  0  0
  -23.6016  -29.8234   20.1634 C   0  0  0  0  0  0
  -25.4091  -36.3098   24.0347 C   0  0  1  0  0  0
  -20.5841  -28.3625   23.1322 C   0  0  2  0  0  0
  -20.6741  -26.9365   22.5422 C   0  0  0  0  0  0
  -19.5735  -26.6349   21.5196 C   0  0  0  0  0  0
  -18.1905  -26.7897   22.1600 C   0  0  0  0  0  0
  -19.1517  -28.8817   23.2892 C   0  0  0  0  0  0
  -18.9462  -30.1420   23.8909 C   0  0  0  0  0  0
  -17.6464  -30.6570   24.0557 C   0  0  0  0  0  0
  -25.9011  -34.9466   23.5141 C   0  0  0  0  0  0
  -16.5349  -29.9067   23.6324 C   0  0  0  0  0  0
  -16.7256  -28.6483   23.0333 C   0  0  0  0  0  0
  -26.4453  -31.6590   25.0730 C   0  0  0  0  0  0
  -25.3787  -31.3684   26.1540 C   0  0  0  0  0  0
  -27.0258  -30.3043   24.6042 C   0  0  0  0  0  0
  -27.6011  -32.4338   25.7515 C   0  0  0  0  0  0
  -27.5559  -37.1800   24.8471 C   0  0  0  0  0  0
  -21.4112  -29.2982   22.3731 N   0  0  0  0  0  0
  -26.4268  -37.3783   23.9424 N   0  0  0  0  0  0
  -24.6560  -31.0837   22.1000 N   0  0  0  0  0  0
  -23.4171  -28.8177   23.3010 O   0  0  0  0  0  0
  -28.4000  -26.7180   20.1182 O   0  0  0  0  0  0
  -26.5570  -34.8902   22.4701 O   0  0  0  0  0  0
  -23.5269  -32.1406   23.7545 O   0  0  0  0  0  0
  -30.9240  -18.9692   23.2429 C   0  0  0  0  0  0
  -29.8018  -18.2155   23.6181 C   0  0  0  0  0  0
  -31.7359  -17.0967   21.9076 C   0  0  0  0  0  0
  -31.9060  -18.4149   22.3915 C   0  0  0  0  0  0
  -29.6421  -16.8953   23.1542 C   0  0  0  0  0  0
  -30.5994  -16.3315   22.2730 C   0  0  0  0  0  0
  -33.1508  -19.1940   22.0756 C   0  0  0  0  0  0
  -28.8926  -26.2281   21.3147 C   0  0  0  0  0  0
  -28.4399  -16.0947   23.6314 C   0  0  0  0  0  0
  -30.3026  -25.6633   21.1678 C   0  0  0  0  0  0
  -30.7863  -24.8143   22.3703 C   0  0  0  0  0  0
  -32.1689  -24.1740   22.1462 C   0  0  0  0  0  0
  -32.5791  -23.2163   23.2811 C   0  0  0  0  0  0
  -33.9444  -22.5233   23.0714 C   0  0  0  0  0  0
  -34.0240  -21.5335   21.8892 C   0  0  0  0  0  0
  -28.2503  -26.2315   22.4101 N   0  0  0  0  0  0
  -30.3774  -14.9942   21.8387 N   0  0  0  0  0  0
  -32.9802  -20.5178   21.9799 N   0  0  0  0  0  0
  -34.2362  -18.6298   21.9201 O   0  0  0  0  0  0
  -31.4717  -12.4229   19.0771 H   0  0  0  0  0  0
  -30.3486  -11.2726   19.7394 H   0  0  0  0  0  0
  -29.7274  -11.8413   17.3838 H   0  0  0  0  0  0
  -29.6573  -13.5387   17.7866 H   0  0  0  0  0  0
  -27.8268  -11.3247   18.7804 H   0  0  0  0  0  0
  -27.3628  -12.6793   17.7837 H   0  0  0  0  0  0
  -27.7361  -14.2553   19.6165 H   0  0  0  0  0  0
  -28.6737  -11.8784   21.2899 H   0  0  0  0  0  0
  -28.4418  -13.4865   21.8869 H   0  0  0  0  0  0
  -25.2763   -9.5681   22.4751 H   0  0  0  0  0  0
  -23.9990   -7.4644   22.7491 H   0  0  0  0  0  0
  -21.0829   -8.8779   19.8962 H   0  0  0  0  0  0
  -22.3699  -10.9670   19.6158 H   0  0  0  0  0  0
  -21.2016   -7.6147   23.9701 H   0  0  0  0  0  0
  -21.1477   -6.0523   25.9064 H   0  0  0  0  0  0
  -22.0604   -2.7609   23.2837 H   0  0  0  0  0  0
  -22.4133  -11.9905   22.4762 H   0  0  0  0  0  0
  -21.1151  -13.1298   22.2562 H   0  0  0  0  0  0
  -24.6759  -15.8447   20.5278 H   0  0  0  0  0  0
  -26.2942  -15.6250   20.0956 H   0  0  0  0  0  0
  -26.7062  -32.5566   23.1208 H   0  0  0  0  0  0
  -25.0090  -33.9804   25.0539 H   0  0  0  0  0  0
  -22.6782  -31.3072   21.4109 H   0  0  0  0  0  0
  -23.3711  -35.9662   23.3331 H   0  0  0  0  0  0
  -24.3580  -36.8898   22.2053 H   0  0  0  0  0  0
  -23.7252  -37.6527   23.6650 H   0  0  0  0  0  0
  -26.0217  -31.6204   20.5910 H   0  0  0  0  0  0
  -26.8082  -30.9129   21.9710 H   0  0  0  0  0  0
  -28.0909  -29.1452   21.1779 H   0  0  0  0  0  0
  -26.0994  -25.9789   19.0425 H   0  0  0  0  0  0
  -23.9934  -27.2850   19.0419 H   0  0  0  0  0  0
  -23.7015  -30.6016   19.4047 H   0  0  0  0  0  0
  -22.7288  -29.2378   19.8628 H   0  0  0  0  0  0
  -25.1252  -36.1967   25.0836 H   0  0  0  0  0  0
  -20.9955  -28.3213   24.1437 H   0  0  0  0  0  0
  -20.5651  -26.2229   23.3613 H   0  0  0  0  0  0
  -21.6607  -26.7414   22.1218 H   0  0  0  0  0  0
  -19.6909  -25.6266   21.1212 H   0  0  0  0  0  0
  -19.6681  -27.3168   20.6738 H   0  0  0  0  0  0
  -17.4174  -26.6641   21.4002 H   0  0  0  0  0  0
  -18.0330  -26.0053   22.9024 H   0  0  0  0  0  0
  -19.7958  -30.7213   24.2271 H   0  0  0  0  0  0
  -17.5034  -31.6269   24.5128 H   0  0  0  0  0  0
  -15.5347  -30.2975   23.7635 H   0  0  0  0  0  0
  -15.8650  -28.0808   22.7020 H   0  0  0  0  0  0
  -24.5934  -30.7021   25.7970 H   0  0  0  0  0  0
  -24.8992  -32.2828   26.5042 H   0  0  0  0  0  0
  -25.8204  -30.8875   27.0274 H   0  0  0  0  0  0
  -26.2745  -29.6851   24.1111 H   0  0  0  0  0  0
  -27.4086  -29.7223   25.4432 H   0  0  0  0  0  0
  -27.8576  -30.4372   23.9115 H   0  0  0  0  0  0
  -27.2563  -33.3607   26.2115 H   0  0  0  0  0  0
  -28.3822  -32.6955   25.0370 H   0  0  0  0  0  0
  -28.0682  -31.8467   26.5438 H   0  0  0  0  0  0
  -28.2572  -38.0091   24.7482 H   0  0  0  0  0  0
  -28.1042  -36.2615   24.6320 H   0  0  0  0  0  0
  -27.2287  -37.1504   25.8877 H   0  0  0  0  0  0
  -20.9276  -29.8708   21.6964 H   0  0  0  0  0  0
  -26.0145  -38.2847   24.1458 H   0  0  0  0  0  0
  -31.0365  -19.9675   23.6433 H   0  0  0  0  0  0
  -29.0734  -18.6561   24.2858 H   0  0  0  0  0  0
  -32.5060  -16.6818   21.2725 H   0  0  0  0  0  0
  -27.8578  -16.6501   24.3680 H   0  0  0  0  0  0
  -28.7594  -15.1660   24.1060 H   0  0  0  0  0  0
  -27.7794  -15.8535   22.7986 H   0  0  0  0  0  0
  -30.3309  -25.0566   20.2620 H   0  0  0  0  0  0
  -30.9919  -26.4922   20.9994 H   0  0  0  0  0  0
  -30.0635  -24.0224   22.5698 H   0  0  0  0  0  0
  -30.8261  -25.4313   23.2695 H   0  0  0  0  0  0
  -32.9114  -24.9669   22.0519 H   0  0  0  0  0  0
  -32.1667  -23.6333   21.1994 H   0  0  0  0  0  0
  -31.8026  -22.4668   23.4391 H   0  0  0  0  0  0
  -32.6305  -23.7876   24.2091 H   0  0  0  0  0  0
  -34.1977  -21.9860   23.9868 H   0  0  0  0  0  0
  -34.7200  -23.2813   22.9582 H   0  0  0  0  0  0
  -35.0168  -21.0786   21.8710 H   0  0  0  0  0  0
  -33.9169  -22.0589   20.9402 H   0  0  0  0  0  0
  -28.7930  -25.8222   23.1616 H   0  0  0  0  0  0
  -29.6355  -14.5108   22.3193 H   0  0  0  0  0  0
  -32.0276  -20.8465   22.0406 H   0  0  0  0  0  0
  1 25  1  0  0  0
  1 30  2  0  0  0
  1 87  1  0  0  0
  2  3  1  0  0  0
  2 25  1  0  0  0
  2 90  1  0  0  0
  2 91  1  0  0  0
  3  4  1  0  0  0
  3 92  1  0  0  0
  3 93  1  0  0  0
  4  5  1  0  0  0
  4 94  1  0  0  0
  4 95  1  0  0  0
  5  6  1  0  0  0
  5 26  1  0  0  0
  5 96  1  0  0  0
  6 25  1  0  0  0
  6 97  1  0  0  0
  6 98  1  0  0  0
  7  8  2  0  0  0
  7 26  1  0  0  0
  7 29  1  0  0  0
  8  9  1  0  0  0
  8 22  1  0  0  0
  9 10  1  0  0  0
  9 27  2  0  0  0
 10 11  2  0  0  0
 10 15  1  0  0  0
 11 12  1  0  0  0
 11 99  1  0  0  0
 12 13  2  0  0  0
 12100  1  0  0  0
 13 14  1  0  0  0
 13 31  1  0  0  0
 14 15  2  0  0  0
 14101  1  0  0  0
 15102  1  0  0  0
 16 17  2  0  0  0
 16 21  1  0  0  0
 16 31  1  0  0  0
 17 18  1  0  0  0
 17103  1  0  0  0
 18 19  2  0  0  0
 18104  1  0  0  0
 19 20  1  0  0  0
 19 24  1  0  0  0
 20 21  2  0  0  0
 20105  1  0  0  0
 21 23  1  0  0  0
 22 28  1  0  0  0
 22 32  2  0  0  0
 26 27  1  0  0  0
 28106  1  0  0  0
 28107  1  0  0  0
 29108  1  0  0  0
 29109  1  0  0  0
 33 34  1  0  0  0
 33 66  1  0  0  0
 33 70  2  0  0  0
 34 36  1  0  0  0
 34 59  1  0  0  0
 34110  1  0  0  0
 35 44  2  0  0  0
 35 45  1  0  0  0
 35 68  1  0  0  0
 36 56  1  0  0  0
 36111  1  0  0  0
 37 39  1  0  0  0
 37 47  1  0  0  0
 37 66  1  0  0  0
 37112  1  0  0  0
 38 43  2  0  0  0
 38 46  1  0  0  0
 38 47  1  0  0  0
 39 64  1  0  0  0
 39 67  2  0  0  0
 40 52  1  0  0  0
 40 53  2  0  0  0
 40 58  1  0  0  0
 41113  1  0  0  0
 41114  1  0  0  0
 41115  1  0  0  0
 41 48  1  0  0  0
 42 43  1  0  0  0
 42 66  1  0  0  0
 42116  1  0  0  0
 42117  1  0  0  0
 43 44  1  0  0  0
 44118  1  0  0  0
 45 46  2  0  0  0
 45119  1  0  0  0
 46120  1  0  0  0
 47121  1  0  0  0
 47122  1  0  0  0
 48 56  1  0  0  0
 48 65  1  0  0  0
 48123  1  0  0  0
 49 50  1  0  0  0
 49 53  1  0  0  0
 49 64  1  0  0  0
 49124  1  0  0  0
 50 51  1  0  0  0
 50125  1  0  0  0
 50126  1  0  0  0
 51 52  1  0  0  0
 51127  1  0  0  0
 51128  1  0  0  0
 52129  1  0  0  0
 52130  1  0  0  0
 53 54  1  0  0  0
 54 55  2  0  0  0
 54131  1  0  0  0
 55 57  1  0  0  0
 55132  1  0  0  0
 56 69  2  0  0  0
 57 58  2  0  0  0
 57133  1  0  0  0
 58134  1  0  0  0
 59 60  1  0  0  0
 59 61  1  0  0  0
 59 62  1  0  0  0
 60135  1  0  0  0
 60136  1  0  0  0
 60137  1  0  0  0
 61138  1  0  0  0
 61139  1  0  0  0
 61140  1  0  0  0
 62141  1  0  0  0
 62142  1  0  0  0
 62143  1  0  0  0
 63 65  1  0  0  0
 63144  1  0  0  0
 63145  1  0  0  0
 63146  1  0  0  0
 64147  1  0  0  0
 65148  1  0  0  0
 68 78  1  0  0  0
 71 72  2  0  0  0
 71 74  1  0  0  0
 71149  1  0  0  0
 72 75  1  0  0  0
 72150  1  0  0  0
 73 74  2  0  0  0
 73 76  1  0  0  0
 73151  1  0  0  0
 74 77  1  0  0  0
 75 76  2  0  0  0
 75 79  1  0  0  0
 76 87  1  0  0  0
 77 88  1  0  0  0
 77 89  2  0  0  0
 78 80  1  0  0  0
 78 86  2  0  0  0
 79152  1  0  0  0
 79153  1  0  0  0
 79154  1  0  0  0
 80 81  1  0  0  0
 80155  1  0  0  0
 80156  1  0  0  0
 81 82  1  0  0  0
 81157  1  0  0  0
 81158  1  0  0  0
 82 83  1  0  0  0
 82159  1  0  0  0
 82160  1  0  0  0
 83 84  1  0  0  0
 83161  1  0  0  0
 83162  1  0  0  0
 84 85  1  0  0  0
 84163  1  0  0  0
 84164  1  0  0  0
 85 88  1  0  0  0
 85165  1  0  0  0
 85166  1  0  0  0
 86167  1  0  0  0
 87168  1  0  0  0
 88169  1  0  0  0
M  ISO  4   1 100  68 101  78 101  87 100
M  END
> <chiral flag>
0

> <version>
0

> <s_m_source_file>
/data/baiqing/PycharmProjects/Reinvent-master-3.2/result/LINK_invent/BTK/process_docking_weight1_custom_sum_contain_oxygen_bond_distance_aromatic_linkinvent_7_9_3/rearranged_h_0003.sdf

> <i_m_source_file_index>
47

> <r_mmod_Potential_Energy-OPLS-2005>
-138.776809692383

> <r_mmod_Stretch_Energy-OPLS-2005>
35.7829360961914

> <r_mmod_Bend_Energy-OPLS-2005>
99.6969375610352

> <r_mmod_Torsional_Energy-OPLS-2005>
230.577819824219

> <r_mmod_Improper_Torsional_Energy-OPLS-2005>
3.30876088142395

> <r_mmod_Van_der_Waal_Energy-OPLS-2005>
160.853775024414

> <r_mmod_Electrostatic_Energy-OPLS-2005>
-440.378448486328

> <r_mmod_Solvation_Energy-OPLS-2005>
-236.257690429688

> <b_mmod_Minimization_Converged-OPLS-2005>
0

> <r_mmod_RMS_Derivative-OPLS-2005>
2.76791143417358

$$$$
48
                    3D
 Structure written by MMmdl.
151159  0  0  1  0            999 V2000
  -30.6108  -14.7369   20.4652 C   0  0  0  0  0  0
  -30.4303  -12.4501   19.4613 C   0  0  0  0  0  0
  -29.5092  -12.5150   18.2240 C   0  0  0  0  0  0
  -28.0329  -12.3463   18.6355 C   0  0  0  0  0  0
  -27.6403  -13.2328   19.8479 C   0  0  2  0  0  0
  -28.6879  -13.1550   20.9795 C   0  0  0  0  0  0
  -25.2497  -13.8193   20.5689 C   0  0  0  0  0  0
  -24.1799  -13.0435   20.9206 C   0  0  0  0  0  0
  -24.6398  -11.6912   20.8753 C   0  0  0  0  0  0
  -23.9079  -10.4292   21.0417 C   0  0  0  0  0  0
  -24.3631   -9.4201   21.9188 C   0  0  0  0  0  0
  -23.6308   -8.2234   22.0757 C   0  0  0  0  0  0
  -22.4287   -8.0274   21.3552 C   0  0  0  0  0  0
  -21.9919   -9.0249   20.4646 C   0  0  0  0  0  0
  -22.7255  -10.2131   20.3059 C   0  0  0  0  0  0
  -21.6853   -6.0736   22.5291 C   0  0  0  0  0  0
  -21.4009   -6.5644   23.8224 C   0  0  0  0  0  0
  -21.3658   -5.6798   24.9187 C   0  0  0  0  0  0
  -21.6049   -4.3060   24.7238 C   0  0  0  0  0  0
  -21.8812   -3.8151   23.4357 C   0  0  0  0  0  0
  -21.9192   -4.6964   22.3413 C   0  0  0  0  0  0
  -22.7822  -13.5209   21.1871 C   0  0  0  0  0  0
  -22.1660   -4.2154   21.0987 F   0  0  0  0  0  0
  -21.5634   -3.4535   25.7747 F   0  0  0  0  0  0
  -29.9861  -13.5116   20.3939 N   0  0  0  0  0  0
  -26.2928  -12.9409   20.3266 N   0  0  0  0  0  0
  -25.9322  -11.6549   20.5736 N   0  0  0  0  0  0
  -22.0474  -12.8197   22.0424 N   0  0  0  0  0  0
  -25.4157  -15.1922   20.4071 N   0  0  0  0  0  0
  -31.8076  -14.8217   20.1744 O   0  0  0  0  0  0
  -21.6643   -6.8875   21.4250 O   0  0  0  0  0  0
  -22.3494  -14.5514   20.6713 O   0  0  0  0  0  0
  -24.6315  -31.8538   23.1952 C   0  0  0  0  0  0
  -25.9134  -32.4755   23.8306 C   0  0  1  0  0  0
  -27.2287  -27.2612   20.1419 C   0  0  0  0  0  0
  -25.5939  -33.8555   24.2243 N   0  0  0  0  0  0
  -23.4291  -30.4712   21.5394 C   0  0  2  0  0  0
  -24.8790  -28.9083   20.1172 C   0  0  0  0  0  0
  -22.7498  -29.4577   22.4918 C   0  0  0  0  0  0
  -18.0293  -28.1377   22.8474 C   0  0  0  0  0  0
  -24.1498  -36.7275   23.2638 C   0  0  0  0  0  0
  -25.9726  -30.7677   21.3723 C   0  0  0  0  0  0
  -26.0492  -29.3862   20.7216 C   0  0  0  0  0  0
  -27.2298  -28.5767   20.7163 C   0  0  0  0  0  0
  -26.0371  -26.8408   19.5176 C   0  0  0  0  0  0
  -24.8772  -27.6437   19.5044 C   0  0  0  0  0  0
  -23.6486  -29.7954   20.1592 C   0  0  0  0  0  0
  -25.4130  -36.3070   24.0322 C   0  0  1  0  0  0
  -20.5895  -28.3681   23.1277 C   0  0  2  0  0  0
  -20.6776  -26.9398   22.5411 C   0  0  0  0  0  0
  -19.5758  -26.6371   21.5208 C   0  0  0  0  0  0
  -18.1939  -26.7920   22.1614 C   0  0  0  0  0  0
  -19.1545  -28.8847   23.2870 C   0  0  0  0  0  0
  -18.9463  -30.1452   23.8879 C   0  0  0  0  0  0
  -17.6460  -30.6579   24.0551 C   0  0  0  0  0  0
  -25.9065  -34.9440   23.5084 C   0  0  0  0  0  0
  -16.5352  -29.9068   23.6332 C   0  0  0  0  0  0
  -16.7278  -28.6489   23.0348 C   0  0  0  0  0  0
  -26.4508  -31.6573   25.0691 C   0  0  0  0  0  0
  -25.3734  -31.3693   26.1406 C   0  0  0  0  0  0
  -27.0353  -30.3002   24.6146 C   0  0  0  0  0  0
  -27.6080  -32.4289   25.7468 C   0  0  0  0  0  0
  -27.5587  -37.1795   24.8465 C   0  0  0  0  0  0
  -21.4208  -29.3024   22.3661 N   0  0  0  0  0  0
  -26.4302  -37.3769   23.9402 N   0  0  0  0  0  0
  -24.6966  -31.0491   22.0930 N   0  0  0  0  0  0
  -23.4192  -28.8132   23.3031 O   0  0  0  0  0  0
  -28.3401  -26.3923   20.1368 O   0  0  0  0  0  0
  -26.5625  -34.8916   22.4647 O   0  0  0  0  0  0
  -23.5464  -32.1355   23.7252 O   0  0  0  0  0  0
  -31.7791  -19.0248   21.4916 C   0  0  0  0  0  0
  -30.9240  -20.0860   21.1258 C   0  0  0  0  0  0
  -31.4139  -17.6752   21.3042 C   0  0  0  0  0  0
  -29.2982  -18.4344   20.3830 C   0  0  0  0  0  0
  -29.6543  -19.8424   20.5589 C   0  0  0  0  0  0
  -30.1678  -17.3164   20.7420 C   0  0  0  0  0  0
  -28.8016  -21.0522   20.0523 C   0  0  0  0  0  0
  -28.6137  -23.6754   19.8142 C   0  0  0  0  0  0
  -28.2221  -24.9919   20.6795 C   0  0  0  0  0  0
  -29.8175  -15.8731   20.6119 N   0  0  0  0  0  0
  -29.0181  -22.3527   20.4874 N   0  0  0  0  0  0
  -27.9350  -20.8296   19.2054 O   0  0  0  0  0  0
  -31.4735  -12.5690   19.1619 H   0  0  0  0  0  0
  -30.3648  -11.4709   19.9378 H   0  0  0  0  0  0
  -29.7881  -11.7484   17.4993 H   0  0  0  0  0  0
  -29.6415  -13.4735   17.7201 H   0  0  0  0  0  0
  -27.8719  -11.2961   18.8783 H   0  0  0  0  0  0
  -27.3838  -12.5621   17.7867 H   0  0  0  0  0  0
  -27.6343  -14.2572   19.4763 H   0  0  0  0  0  0
  -28.7234  -12.1530   21.4088 H   0  0  0  0  0  0
  -28.4304  -13.8300   21.7973 H   0  0  0  0  0  0
  -25.2778   -9.5679   22.4754 H   0  0  0  0  0  0
  -24.0027   -7.4621   22.7469 H   0  0  0  0  0  0
  -21.0851   -8.8759   19.8945 H   0  0  0  0  0  0
  -22.3709  -10.9664   19.6167 H   0  0  0  0  0  0
  -21.1989   -7.6152   23.9724 H   0  0  0  0  0  0
  -21.1498   -6.0534   25.9092 H   0  0  0  0  0  0
  -22.0594   -2.7611   23.2865 H   0  0  0  0  0  0
  -22.4094  -11.9875   22.4840 H   0  0  0  0  0  0
  -21.1078  -13.1208   22.2609 H   0  0  0  0  0  0
  -24.6384  -15.8380   20.4950 H   0  0  0  0  0  0
  -26.2490  -15.6312   20.0384 H   0  0  0  0  0  0
  -26.7189  -32.5406   23.1038 H   0  0  0  0  0  0
  -25.0109  -33.9690   25.0405 H   0  0  0  0  0  0
  -22.7261  -31.2934   21.3884 H   0  0  0  0  0  0
  -23.3772  -35.9594   23.3299 H   0  0  0  0  0  0
  -24.3585  -36.8899   22.2052 H   0  0  0  0  0  0
  -23.7236  -37.6470   23.6662 H   0  0  0  0  0  0
  -26.1057  -31.5241   20.5978 H   0  0  0  0  0  0
  -26.8520  -30.8228   22.0025 H   0  0  0  0  0  0
  -28.1319  -28.9413   21.1874 H   0  0  0  0  0  0
  -26.0012  -25.8700   19.0429 H   0  0  0  0  0  0
  -23.9804  -27.2713   19.0285 H   0  0  0  0  0  0
  -23.7736  -30.5666   19.3978 H   0  0  0  0  0  0
  -22.7672  -29.2260   19.8576 H   0  0  0  0  0  0
  -25.1319  -36.1918   25.0813 H   0  0  0  0  0  0
  -20.9990  -28.3253   24.1398 H   0  0  0  0  0  0
  -20.5676  -26.2283   23.3604 H   0  0  0  0  0  0
  -21.6645  -26.7416   22.1213 H   0  0  0  0  0  0
  -19.6923  -25.6281   21.1239 H   0  0  0  0  0  0
  -19.6719  -27.3175   20.6734 H   0  0  0  0  0  0
  -17.4214  -26.6663   21.4011 H   0  0  0  0  0  0
  -18.0344  -26.0066   22.9016 H   0  0  0  0  0  0
  -19.7936  -30.7273   24.2245 H   0  0  0  0  0  0
  -17.5010  -31.6268   24.5136 H   0  0  0  0  0  0
  -15.5347  -30.2953   23.7676 H   0  0  0  0  0  0
  -15.8682  -28.0803   22.7063 H   0  0  0  0  0  0
  -24.5932  -30.7032   25.7706 H   0  0  0  0  0  0
  -24.8901  -32.2843   26.4835 H   0  0  0  0  0  0
  -25.8059  -30.8859   27.0173 H   0  0  0  0  0  0
  -26.2914  -29.6746   24.1204 H   0  0  0  0  0  0
  -27.4087  -29.7277   25.4641 H   0  0  0  0  0  0
  -27.8767  -30.4297   23.9341 H   0  0  0  0  0  0
  -27.2724  -33.3599   26.2043 H   0  0  0  0  0  0
  -28.3902  -32.6818   25.0302 H   0  0  0  0  0  0
  -28.0726  -31.8398   26.5381 H   0  0  0  0  0  0
  -28.2605  -38.0097   24.7528 H   0  0  0  0  0  0
  -28.1088  -36.2626   24.6286 H   0  0  0  0  0  0
  -27.2295  -37.1434   25.8866 H   0  0  0  0  0  0
  -20.9392  -29.8734   21.6857 H   0  0  0  0  0  0
  -26.0185  -38.2843   24.1411 H   0  0  0  0  0  0
  -32.7464  -19.2518   21.9194 H   0  0  0  0  0  0
  -31.2726  -21.1003   21.2636 H   0  0  0  0  0  0
  -32.1187  -16.9140   21.6116 H   0  0  0  0  0  0
  -28.3384  -18.2134   19.9354 H   0  0  0  0  0  0
  -29.4737  -23.9441   19.1997 H   0  0  0  0  0  0
  -27.8079  -23.4825   19.1046 H   0  0  0  0  0  0
  -28.8750  -24.9913   21.5525 H   0  0  0  0  0  0
  -27.2218  -24.8475   21.0893 H   0  0  0  0  0  0
  -28.8304  -15.6720   20.6284 H   0  0  0  0  0  0
  -29.6825  -22.4432   21.2434 H   0  0  0  0  0  0
  1 25  1  0  0  0
  1 30  2  0  0  0
  1 80  1  0  0  0
  2  3  1  0  0  0
  2 25  1  0  0  0
  2 83  1  0  0  0
  2 84  1  0  0  0
  3  4  1  0  0  0
  3 85  1  0  0  0
  3 86  1  0  0  0
  4  5  1  0  0  0
  4 87  1  0  0  0
  4 88  1  0  0  0
  5  6  1  0  0  0
  5 26  1  0  0  0
  5 89  1  0  0  0
  6 25  1  0  0  0
  6 90  1  0  0  0
  6 91  1  0  0  0
  7  8  2  0  0  0
  7 26  1  0  0  0
  7 29  1  0  0  0
  8  9  1  0  0  0
  8 22  1  0  0  0
  9 10  1  0  0  0
  9 27  2  0  0  0
 10 11  2  0  0  0
 10 15  1  0  0  0
 11 12  1  0  0  0
 11 92  1  0  0  0
 12 13  2  0  0  0
 12 93  1  0  0  0
 13 14  1  0  0  0
 13 31  1  0  0  0
 14 15  2  0  0  0
 14 94  1  0  0  0
 15 95  1  0  0  0
 16 17  2  0  0  0
 16 21  1  0  0  0
 16 31  1  0  0  0
 17 18  1  0  0  0
 17 96  1  0  0  0
 18 19  2  0  0  0
 18 97  1  0  0  0
 19 20  1  0  0  0
 19 24  1  0  0  0
 20 21  2  0  0  0
 20 98  1  0  0  0
 21 23  1  0  0  0
 22 28  1  0  0  0
 22 32  2  0  0  0
 26 27  1  0  0  0
 28 99  1  0  0  0
 28100  1  0  0  0
 29101  1  0  0  0
 29102  1  0  0  0
 33 34  1  0  0  0
 33 66  1  0  0  0
 33 70  2  0  0  0
 34 36  1  0  0  0
 34 59  1  0  0  0
 34103  1  0  0  0
 35 44  2  0  0  0
 35 45  1  0  0  0
 35 68  1  0  0  0
 36 56  1  0  0  0
 36104  1  0  0  0
 37 39  1  0  0  0
 37 47  1  0  0  0
 37 66  1  0  0  0
 37105  1  0  0  0
 38 43  2  0  0  0
 38 46  1  0  0  0
 38 47  1  0  0  0
 39 64  1  0  0  0
 39 67  2  0  0  0
 40 52  1  0  0  0
 40 53  2  0  0  0
 40 58  1  0  0  0
 41106  1  0  0  0
 41107  1  0  0  0
 41108  1  0  0  0
 41 48  1  0  0  0
 42 43  1  0  0  0
 42 66  1  0  0  0
 42109  1  0  0  0
 42110  1  0  0  0
 43 44  1  0  0  0
 44111  1  0  0  0
 45 46  2  0  0  0
 45112  1  0  0  0
 46113  1  0  0  0
 47114  1  0  0  0
 47115  1  0  0  0
 48 56  1  0  0  0
 48 65  1  0  0  0
 48116  1  0  0  0
 49 50  1  0  0  0
 49 53  1  0  0  0
 49 64  1  0  0  0
 49117  1  0  0  0
 50 51  1  0  0  0
 50118  1  0  0  0
 50119  1  0  0  0
 51 52  1  0  0  0
 51120  1  0  0  0
 51121  1  0  0  0
 52122  1  0  0  0
 52123  1  0  0  0
 53 54  1  0  0  0
 54 55  2  0  0  0
 54124  1  0  0  0
 55 57  1  0  0  0
 55125  1  0  0  0
 56 69  2  0  0  0
 57 58  2  0  0  0
 57126  1  0  0  0
 58127  1  0  0  0
 59 60  1  0  0  0
 59 61  1  0  0  0
 59 62  1  0  0  0
 60128  1  0  0  0
 60129  1  0  0  0
 60130  1  0  0  0
 61131  1  0  0  0
 61132  1  0  0  0
 61133  1  0  0  0
 62134  1  0  0  0
 62135  1  0  0  0
 62136  1  0  0  0
 63 65  1  0  0  0
 63137  1  0  0  0
 63138  1  0  0  0
 63139  1  0  0  0
 64140  1  0  0  0
 65141  1  0  0  0
 68 79  1  0  0  0
 71 72  2  0  0  0
 71 73  1  0  0  0
 71142  1  0  0  0
 72 75  1  0  0  0
 72143  1  0  0  0
 73 76  2  0  0  0
 73144  1  0  0  0
 74 75  2  0  0  0
 74 76  1  0  0  0
 74145  1  0  0  0
 75 77  1  0  0  0
 76 80  1  0  0  0
 77 81  1  0  0  0
 77 82  2  0  0  0
 78 79  1  0  0  0
 78 81  1  0  0  0
 78146  1  0  0  0
 78147  1  0  0  0
 79148  1  0  0  0
 79149  1  0  0  0
 80150  1  0  0  0
 81151  1  0  0  0
M  ISO  4   1 100  68 101  79 101  80 100
M  END
> <chiral flag>
0

> <version>
0

> <s_m_source_file>
/data/baiqing/PycharmProjects/Reinvent-master-3.2/result/LINK_invent/BTK/process_docking_weight1_custom_sum_contain_oxygen_bond_distance_aromatic_linkinvent_7_9_3/rearranged_h_0003.sdf

> <i_m_source_file_index>
48

> <r_mmod_Potential_Energy-OPLS-2005>
78.586296081543

> <r_mmod_Stretch_Energy-OPLS-2005>
125.418853759766

> <r_mmod_Bend_Energy-OPLS-2005>
158.979034423828

> <r_mmod_Torsional_Energy-OPLS-2005>
249.130096435547

> <r_mmod_Improper_Torsional_Energy-OPLS-2005>
6.98363304138184

> <r_mmod_Van_der_Waal_Energy-OPLS-2005>
135.837265014648

> <r_mmod_Electrostatic_Energy-OPLS-2005>
-442.598510742188

> <r_mmod_Solvation_Energy-OPLS-2005>
-235.281036376953

> <b_mmod_Minimization_Converged-OPLS-2005>
0

> <r_mmod_RMS_Derivative-OPLS-2005>
1.91622853279114

$$$$
49
                    3D
 Structure written by MMmdl.
170178  0  0  1  0            999 V2000
  -30.7339  -14.3850   20.6684 C   0  0  0  0  0  0
  -30.4262  -12.2909   19.3962 C   0  0  0  0  0  0
  -29.4904  -12.5291   18.1941 C   0  0  0  0  0  0
  -28.0129  -12.3830   18.6076 C   0  0  0  0  0  0
  -27.6699  -13.1976   19.8824 C   0  0  2  0  0  0
  -28.7068  -12.9192   20.9925 C   0  0  0  0  0  0
  -25.2624  -13.8141   20.5673 C   0  0  0  0  0  0
  -24.1856  -13.0436   20.9159 C   0  0  0  0  0  0
  -24.6388  -11.6894   20.8709 C   0  0  0  0  0  0
  -23.9047  -10.4291   21.0392 C   0  0  0  0  0  0
  -24.3598   -9.4215   21.9177 C   0  0  0  0  0  0
  -23.6281   -8.2247   22.0751 C   0  0  0  0  0  0
  -22.4265   -8.0277   21.3546 C   0  0  0  0  0  0
  -21.9893   -9.0248   20.4649 C   0  0  0  0  0  0
  -22.7214  -10.2133   20.3051 C   0  0  0  0  0  0
  -21.6855   -6.0729   22.5278 C   0  0  0  0  0  0
  -21.4013   -6.5631   23.8209 C   0  0  0  0  0  0
  -21.3664   -5.6786   24.9172 C   0  0  0  0  0  0
  -21.6048   -4.3048   24.7224 C   0  0  0  0  0  0
  -21.8822   -3.8139   23.4344 C   0  0  0  0  0  0
  -21.9189   -4.6955   22.3399 C   0  0  0  0  0  0
  -22.7882  -13.5252   21.1820 C   0  0  0  0  0  0
  -22.1667   -4.2140   21.0980 F   0  0  0  0  0  0
  -21.5625   -3.4534   25.7740 F   0  0  0  0  0  0
  -30.0512  -13.2276   20.4640 N   0  0  0  0  0  0
  -26.3058  -12.9297   20.3378 N   0  0  0  0  0  0
  -25.9312  -11.6460   20.5735 N   0  0  0  0  0  0
  -22.0511  -12.8262   22.0380 N   0  0  0  0  0  0
  -25.4372  -15.1857   20.4110 N   0  0  0  0  0  0
  -31.7696  -14.6756   20.0602 O   0  0  0  0  0  0
  -21.6634   -6.8874   21.4243 O   0  0  0  0  0  0
  -22.3580  -14.5565   20.6671 O   0  0  0  0  0  0
  -24.6079  -31.8722   23.2109 C   0  0  0  0  0  0
  -25.8995  -32.4854   23.8388 C   0  0  1  0  0  0
  -27.2581  -27.4900   20.0860 C   0  0  0  0  0  0
  -25.5858  -33.8647   24.2337 N   0  0  0  0  0  0
  -23.3943  -30.4913   21.5512 C   0  0  2  0  0  0
  -24.8454  -28.9593   20.1204 C   0  0  0  0  0  0
  -22.7376  -29.4663   22.5023 C   0  0  0  0  0  0
  -18.0260  -28.1369   22.8506 C   0  0  0  0  0  0
  -24.1475  -36.7344   23.2632 C   0  0  0  0  0  0
  -25.9147  -30.8564   21.3535 C   0  0  0  0  0  0
  -25.9991  -29.4905   20.7080 C   0  0  0  0  0  0
  -27.2059  -28.7644   20.6940 C   0  0  0  0  0  0
  -26.0825  -26.9524   19.5223 C   0  0  0  0  0  0
  -24.8778  -27.6838   19.5280 C   0  0  0  0  0  0
  -23.6017  -29.8175   20.1668 C   0  0  0  0  0  0
  -25.4096  -36.3133   24.0330 C   0  0  1  0  0  0
  -20.5847  -28.3644   23.1341 C   0  0  2  0  0  0
  -20.6755  -26.9387   22.5431 C   0  0  0  0  0  0
  -19.5732  -26.6388   21.5220 C   0  0  0  0  0  0
  -18.1906  -26.7922   22.1627 C   0  0  0  0  0  0
  -19.1509  -28.8824   23.2918 C   0  0  0  0  0  0
  -18.9442  -30.1437   23.8911 C   0  0  0  0  0  0
  -17.6448  -30.6580   24.0564 C   0  0  0  0  0  0
  -25.9011  -34.9495   23.5135 C   0  0  0  0  0  0
  -16.5337  -29.9085   23.6323 C   0  0  0  0  0  0
  -16.7253  -28.6503   23.0347 C   0  0  0  0  0  0
  -26.4473  -31.6598   25.0677 C   0  0  0  0  0  0
  -25.3777  -31.3667   26.1450 C   0  0  0  0  0  0
  -27.0321  -30.3057   24.6003 C   0  0  0  0  0  0
  -27.6047  -32.4312   25.7450 C   0  0  0  0  0  0
  -27.5581  -37.1816   24.8457 C   0  0  0  0  0  0
  -21.4113  -29.3017   22.3758 N   0  0  0  0  0  0
  -26.4290  -37.3804   23.9400 N   0  0  0  0  0  0
  -24.6568  -31.0864   22.0979 N   0  0  0  0  0  0
  -23.4172  -28.8216   23.3057 O   0  0  0  0  0  0
  -28.4006  -26.7268   20.0188 O   0  0  0  0  0  0
  -26.5573  -34.8949   22.4698 O   0  0  0  0  0  0
  -23.5292  -32.1448   23.7541 O   0  0  0  0  0  0
  -29.9327  -17.0260   23.1331 C   0  0  0  0  0  0
  -30.9495  -17.4593   20.9668 C   0  0  0  0  0  0
  -30.0325  -18.3920   23.4578 C   0  0  0  0  0  0
  -31.0477  -18.8277   21.2924 C   0  0  0  0  0  0
  -30.3965  -16.5442   21.8935 C   0  0  0  0  0  0
  -30.6003  -19.3097   22.5420 C   0  0  0  0  0  0
  -30.1950  -27.3389   23.4736 C   0  0  0  0  0  0
  -30.6407  -21.3846   23.9454 C   0  0  0  0  0  0
  -29.4944  -24.2238   25.2744 C   0  0  0  0  0  0
  -30.8827  -23.6640   24.8961 C   0  0  0  0  0  0
  -30.4128  -27.7986   21.0125 C   0  0  0  0  0  0
  -28.9658  -25.3007   24.3111 C   0  0  0  0  0  0
  -29.6357  -27.3964   19.7468 C   0  0  0  0  0  0
  -30.9039  -28.4184   23.8042 N   0  0  0  0  0  0
  -30.2088  -15.1616   21.6279 N   0  0  0  0  0  0
  -30.7203  -20.7099   22.7875 N   0  0  0  0  0  0
  -29.9657  -27.0391   22.1878 N   0  0  0  0  0  0
  -30.8324  -22.7003   23.7938 N   0  0  0  0  0  0
  -29.7199  -26.5602   24.4565 N   0  3  0  0  0  0
  -30.4330  -20.8777   25.0485 O   0  0  0  0  0  0
  -31.4699  -12.4004   19.0948 H   0  0  0  0  0  0
  -30.3309  -11.2653   19.7563 H   0  0  0  0  0  0
  -29.7249  -11.8294   17.3907 H   0  0  0  0  0  0
  -29.6588  -13.5279   17.7887 H   0  0  0  0  0  0
  -27.8197  -11.3244   18.7823 H   0  0  0  0  0  0
  -27.3609  -12.6812   17.7858 H   0  0  0  0  0  0
  -27.7330  -14.2541   19.6200 H   0  0  0  0  0  0
  -28.6724  -11.8678   21.2811 H   0  0  0  0  0  0
  -28.4467  -13.4654   21.8991 H   0  0  0  0  0  0
  -25.2747   -9.5695   22.4744 H   0  0  0  0  0  0
  -23.9994   -7.4641   22.7469 H   0  0  0  0  0  0
  -21.0818   -8.8765   19.8957 H   0  0  0  0  0  0
  -22.3671  -10.9665   19.6151 H   0  0  0  0  0  0
  -21.2014   -7.6140   23.9715 H   0  0  0  0  0  0
  -21.1483   -6.0514   25.9079 H   0  0  0  0  0  0
  -22.0596   -2.7599   23.2845 H   0  0  0  0  0  0
  -22.4108  -11.9930   22.4789 H   0  0  0  0  0  0
  -21.1134  -13.1309   22.2568 H   0  0  0  0  0  0
  -24.6755  -15.8459   20.5267 H   0  0  0  0  0  0
  -26.3015  -15.6242   20.1168 H   0  0  0  0  0  0
  -26.7066  -32.5610   23.1159 H   0  0  0  0  0  0
  -25.0011  -33.9816   25.0484 H   0  0  0  0  0  0
  -22.6793  -31.3050   21.4121 H   0  0  0  0  0  0
  -23.3723  -35.9695   23.3312 H   0  0  0  0  0  0
  -24.3566  -36.8939   22.2044 H   0  0  0  0  0  0
  -23.7253  -37.6564   23.6644 H   0  0  0  0  0  0
  -26.0107  -31.6204   20.5813 H   0  0  0  0  0  0
  -26.8076  -30.9213   21.9625 H   0  0  0  0  0  0
  -28.0791  -29.1961   21.1555 H   0  0  0  0  0  0
  -26.1086  -25.9744   19.0626 H   0  0  0  0  0  0
  -23.9884  -27.2627   19.0794 H   0  0  0  0  0  0
  -23.7030  -30.5900   19.4033 H   0  0  0  0  0  0
  -22.7296  -29.2292   19.8761 H   0  0  0  0  0  0
  -25.1280  -36.2000   25.0823 H   0  0  0  0  0  0
  -20.9938  -28.3201   24.1461 H   0  0  0  0  0  0
  -20.5662  -26.2249   23.3613 H   0  0  0  0  0  0
  -21.6625  -26.7444   22.1215 H   0  0  0  0  0  0
  -19.6882  -25.6307   21.1223 H   0  0  0  0  0  0
  -19.6653  -27.3223   20.6764 H   0  0  0  0  0  0
  -17.4186  -26.6681   21.4016 H   0  0  0  0  0  0
  -18.0277  -26.0054   22.9007 H   0  0  0  0  0  0
  -19.7919  -30.7253   24.2272 H   0  0  0  0  0  0
  -17.5005  -31.6258   24.5171 H   0  0  0  0  0  0
  -15.5334  -30.2990   23.7652 H   0  0  0  0  0  0
  -15.8655  -28.0836   22.7042 H   0  0  0  0  0  0
  -24.5957  -30.6991   25.7804 H   0  0  0  0  0  0
  -24.8955  -32.2807   26.4919 H   0  0  0  0  0  0
  -25.8196  -30.8858   27.0184 H   0  0  0  0  0  0
  -27.4199  -29.7302   25.4419 H   0  0  0  0  0  0
  -27.8620  -30.4394   23.9054 H   0  0  0  0  0  0
  -26.2837  -29.6793   24.1135 H   0  0  0  0  0  0
  -27.2653  -33.3572   26.2100 H   0  0  0  0  0  0
  -28.3827  -32.6942   25.0272 H   0  0  0  0  0  0
  -28.0766  -31.8406   26.5311 H   0  0  0  0  0  0
  -28.2614  -38.0101   24.7503 H   0  0  0  0  0  0
  -28.1055  -36.2634   24.6276 H   0  0  0  0  0  0
  -27.2297  -37.1464   25.8859 H   0  0  0  0  0  0
  -20.9269  -29.8728   21.6977 H   0  0  0  0  0  0
  -26.0180  -38.2881   24.1399 H   0  0  0  0  0  0
  -29.4885  -16.3499   23.8502 H   0  0  0  0  0  0
  -31.2855  -17.1377   19.9916 H   0  0  0  0  0  0
  -29.6491  -18.7074   24.4156 H   0  0  0  0  0  0
  -31.4697  -19.5060   20.5639 H   0  0  0  0  0  0
  -29.5517  -24.6486   26.2773 H   0  0  0  0  0  0
  -28.7692  -23.4127   25.3524 H   0  0  0  0  0  0
  -31.3341  -23.1936   25.7718 H   0  0  0  0  0  0
  -31.5586  -24.4758   24.6254 H   0  0  0  0  0  0
  -30.2671  -28.8612   21.2025 H   0  0  0  0  0  0
  -31.4832  -27.6567   20.8630 H   0  0  0  0  0  0
  -27.9185  -25.5092   24.5332 H   0  0  0  0  0  0
  -28.9996  -24.9322   23.2865 H   0  0  0  0  0  0
  -30.2515  -26.7135   19.1614 H   0  0  0  0  0  0
  -29.4750  -28.2656   19.1057 H   0  0  0  0  0  0
  -31.3191  -29.0166   23.1058 H   0  0  0  0  0  0
  -31.1042  -28.6519   24.7671 H   0  0  0  0  0  0
  -29.4874  -14.7093   22.1678 H   0  0  0  0  0  0
  -30.9505  -21.2638   21.9756 H   0  0  0  0  0  0
  -29.3851  -26.2423   21.9643 H   0  0  0  0  0  0
  -31.0162  -23.0580   22.8665 H   0  0  0  0  0  0
  -29.8238  -26.8795   25.4098 H   0  0  0  0  0  0
  1 25  1  0  0  0
  1 30  2  0  0  0
  1 85  1  0  0  0
  2  3  1  0  0  0
  2 25  1  0  0  0
  2 91  1  0  0  0
  2 92  1  0  0  0
  3  4  1  0  0  0
  3 93  1  0  0  0
  3 94  1  0  0  0
  4  5  1  0  0  0
  4 95  1  0  0  0
  4 96  1  0  0  0
  5  6  1  0  0  0
  5 26  1  0  0  0
  5 97  1  0  0  0
  6 25  1  0  0  0
  6 98  1  0  0  0
  6 99  1  0  0  0
  7  8  2  0  0  0
  7 26  1  0  0  0
  7 29  1  0  0  0
  8  9  1  0  0  0
  8 22  1  0  0  0
  9 10  1  0  0  0
  9 27  2  0  0  0
 10 11  2  0  0  0
 10 15  1  0  0  0
 11 12  1  0  0  0
 11100  1  0  0  0
 12 13  2  0  0  0
 12101  1  0  0  0
 13 14  1  0  0  0
 13 31  1  0  0  0
 14 15  2  0  0  0
 14102  1  0  0  0
 15103  1  0  0  0
 16 17  2  0  0  0
 16 21  1  0  0  0
 16 31  1  0  0  0
 17 18  1  0  0  0
 17104  1  0  0  0
 18 19  2  0  0  0
 18105  1  0  0  0
 19 20  1  0  0  0
 19 24  1  0  0  0
 20 21  2  0  0  0
 20106  1  0  0  0
 21 23  1  0  0  0
 22 28  1  0  0  0
 22 32  2  0  0  0
 26 27  1  0  0  0
 28107  1  0  0  0
 28108  1  0  0  0
 29109  1  0  0  0
 29110  1  0  0  0
 33 34  1  0  0  0
 33 66  1  0  0  0
 33 70  2  0  0  0
 34 36  1  0  0  0
 34 59  1  0  0  0
 34111  1  0  0  0
 35 44  2  0  0  0
 35 45  1  0  0  0
 35 68  1  0  0  0
 36 56  1  0  0  0
 36112  1  0  0  0
 37 39  1  0  0  0
 37 47  1  0  0  0
 37 66  1  0  0  0
 37113  1  0  0  0
 38 43  2  0  0  0
 38 46  1  0  0  0
 38 47  1  0  0  0
 39 64  1  0  0  0
 39 67  2  0  0  0
 40 52  1  0  0  0
 40 53  2  0  0  0
 40 58  1  0  0  0
 41114  1  0  0  0
 41115  1  0  0  0
 41116  1  0  0  0
 41 48  1  0  0  0
 42 43  1  0  0  0
 42 66  1  0  0  0
 42117  1  0  0  0
 42118  1  0  0  0
 43 44  1  0  0  0
 44119  1  0  0  0
 45 46  2  0  0  0
 45120  1  0  0  0
 46121  1  0  0  0
 47122  1  0  0  0
 47123  1  0  0  0
 48 56  1  0  0  0
 48 65  1  0  0  0
 48124  1  0  0  0
 49 50  1  0  0  0
 49 53  1  0  0  0
 49 64  1  0  0  0
 49125  1  0  0  0
 50 51  1  0  0  0
 50126  1  0  0  0
 50127  1  0  0  0
 51 52  1  0  0  0
 51128  1  0  0  0
 51129  1  0  0  0
 52130  1  0  0  0
 52131  1  0  0  0
 53 54  1  0  0  0
 54 55  2  0  0  0
 54132  1  0  0  0
 55 57  1  0  0  0
 55133  1  0  0  0
 56 69  2  0  0  0
 57 58  2  0  0  0
 57134  1  0  0  0
 58135  1  0  0  0
 59 60  1  0  0  0
 59 61  1  0  0  0
 59 62  1  0  0  0
 60136  1  0  0  0
 60137  1  0  0  0
 60138  1  0  0  0
 61139  1  0  0  0
 61140  1  0  0  0
 61141  1  0  0  0
 62142  1  0  0  0
 62143  1  0  0  0
 62144  1  0  0  0
 63 65  1  0  0  0
 63145  1  0  0  0
 63146  1  0  0  0
 63147  1  0  0  0
 64148  1  0  0  0
 65149  1  0  0  0
 68 83  1  0  0  0
 71 73  2  0  0  0
 71 75  1  0  0  0
 71150  1  0  0  0
 72 74  1  0  0  0
 72 75  2  0  0  0
 72151  1  0  0  0
 73 76  1  0  0  0
 73152  1  0  0  0
 74 76  2  0  0  0
 74153  1  0  0  0
 75 85  1  0  0  0
 76 86  1  0  0  0
 77 84  1  0  0  0
 77 87  1  0  0  0
 77 89  2  0  0  0
 78 86  1  0  0  0
 78 88  1  0  0  0
 78 90  2  0  0  0
 79 80  1  0  0  0
 79 82  1  0  0  0
 79154  1  0  0  0
 79155  1  0  0  0
 80 88  1  0  0  0
 80156  1  0  0  0
 80157  1  0  0  0
 81 83  1  0  0  0
 81 87  1  0  0  0
 81158  1  0  0  0
 81159  1  0  0  0
 82 89  1  0  0  0
 82160  1  0  0  0
 82161  1  0  0  0
 83162  1  0  0  0
 83163  1  0  0  0
 84164  1  0  0  0
 84165  1  0  0  0
 85166  1  0  0  0
 86167  1  0  0  0
 87168  1  0  0  0
 88169  1  0  0  0
 89170  1  0  0  0
M  CHG  1  89   1
M  ISO  4   1 100  68 101  83 101  85 100
M  END
> <chiral flag>
0

> <version>
0

> <s_m_source_file>
/data/baiqing/PycharmProjects/Reinvent-master-3.2/result/LINK_invent/BTK/process_docking_weight1_custom_sum_contain_oxygen_bond_distance_aromatic_linkinvent_7_9_3/rearranged_h_0003.sdf

> <i_m_source_file_index>
49

> <r_mmod_Potential_Energy-OPLS-2005>
-399.851013183594

> <r_mmod_Stretch_Energy-OPLS-2005>
33.6055641174316

> <r_mmod_Bend_Energy-OPLS-2005>
111.647109985352

> <r_mmod_Torsional_Energy-OPLS-2005>
251.574752807617

> <r_mmod_Improper_Torsional_Energy-OPLS-2005>
2.53129363059998

> <r_mmod_Van_der_Waal_Energy-OPLS-2005>
162.127822875977

> <r_mmod_Electrostatic_Energy-OPLS-2005>
-491.594543457031

> <r_mmod_Solvation_Energy-OPLS-2005>
-475.579986572266

> <b_mmod_Minimization_Converged-OPLS-2005>
0

> <r_mmod_RMS_Derivative-OPLS-2005>
1.33146750926971

$$$$
50
                    3D
 Structure written by MMmdl.
177185  0  0  1  0            999 V2000
  -30.7331  -14.3716   20.6979 C   0  0  0  0  0  0
  -30.4315  -12.3029   19.3771 C   0  0  0  0  0  0
  -29.4841  -12.5275   18.1829 C   0  0  0  0  0  0
  -28.0075  -12.3791   18.6035 C   0  0  0  0  0  0
  -27.6671  -13.1916   19.8798 C   0  0  2  0  0  0
  -28.7053  -12.9049   20.9835 C   0  0  0  0  0  0
  -25.2633  -13.8131   20.5676 C   0  0  0  0  0  0
  -24.1863  -13.0430   20.9169 C   0  0  0  0  0  0
  -24.6392  -11.6893   20.8737 C   0  0  0  0  0  0
  -23.9060  -10.4287   21.0420 C   0  0  0  0  0  0
  -24.3616   -9.4205   21.9194 C   0  0  0  0  0  0
  -23.6292   -8.2240   22.0758 C   0  0  0  0  0  0
  -22.4275   -8.0286   21.3550 C   0  0  0  0  0  0
  -21.9908   -9.0265   20.4654 C   0  0  0  0  0  0
  -22.7237  -10.2141   20.3065 C   0  0  0  0  0  0
  -21.6857   -6.0739   22.5278 C   0  0  0  0  0  0
  -21.4018   -6.5642   23.8214 C   0  0  0  0  0  0
  -21.3651   -5.6797   24.9170 C   0  0  0  0  0  0
  -21.6038   -4.3055   24.7220 C   0  0  0  0  0  0
  -21.8823   -3.8154   23.4344 C   0  0  0  0  0  0
  -21.9197   -4.6973   22.3399 C   0  0  0  0  0  0
  -22.7886  -13.5247   21.1829 C   0  0  0  0  0  0
  -22.1668   -4.2158   21.0976 F   0  0  0  0  0  0
  -21.5619   -3.4540   25.7731 F   0  0  0  0  0  0
  -30.0403  -13.2327   20.4436 N   0  0  0  0  0  0
  -26.3047  -12.9271   20.3378 N   0  0  0  0  0  0
  -25.9311  -11.6443   20.5762 N   0  0  0  0  0  0
  -22.0522  -12.8254   22.0389 N   0  0  0  0  0  0
  -25.4370  -15.1849   20.4081 N   0  0  0  0  0  0
  -31.7980  -14.6615   20.1391 O   0  0  0  0  0  0
  -21.6640   -6.8887   21.4240 O   0  0  0  0  0  0
  -22.3585  -14.5563   20.6688 O   0  0  0  0  0  0
  -24.6082  -31.8740   23.2151 C   0  0  0  0  0  0
  -25.8995  -32.4869   23.8420 C   0  0  1  0  0  0
  -27.2337  -27.4818   20.0968 C   0  0  0  0  0  0
  -25.5869  -33.8663   24.2339 N   0  0  0  0  0  0
  -23.3953  -30.4968   21.5535 C   0  0  2  0  0  0
  -24.8422  -28.9693   20.1139 C   0  0  0  0  0  0
  -22.7367  -29.4706   22.5023 C   0  0  0  0  0  0
  -18.0265  -28.1389   22.8518 C   0  0  0  0  0  0
  -24.1471  -36.7315   23.2634 C   0  0  0  0  0  0
  -25.9181  -30.8570   21.3594 C   0  0  0  0  0  0
  -25.9975  -29.4948   20.7081 C   0  0  0  0  0  0
  -27.2001  -28.7603   20.6939 C   0  0  0  0  0  0
  -26.0713  -26.9650   19.4922 C   0  0  0  0  0  0
  -24.8725  -27.7025   19.5038 C   0  0  0  0  0  0
  -23.5991  -29.8259   20.1669 C   0  0  0  0  0  0
  -25.4111  -36.3165   24.0342 C   0  0  1  0  0  0
  -20.5859  -28.3677   23.1329 C   0  0  2  0  0  0
  -20.6750  -26.9413   22.5436 C   0  0  0  0  0  0
  -19.5733  -26.6408   21.5225 C   0  0  0  0  0  0
  -18.1908  -26.7948   22.1638 C   0  0  0  0  0  0
  -19.1516  -28.8853   23.2927 C   0  0  0  0  0  0
  -18.9462  -30.1457   23.8947 C   0  0  0  0  0  0
  -17.6468  -30.6593   24.0585 C   0  0  0  0  0  0
  -25.9042  -34.9516   23.5150 C   0  0  0  0  0  0
  -16.5354  -29.9110   23.6329 C   0  0  0  0  0  0
  -16.7255  -28.6517   23.0370 C   0  0  0  0  0  0
  -26.4440  -31.6632   25.0726 C   0  0  0  0  0  0
  -25.3714  -31.3708   26.1480 C   0  0  0  0  0  0
  -27.0259  -30.3084   24.6076 C   0  0  0  0  0  0
  -27.6044  -32.4327   25.7470 C   0  0  0  0  0  0
  -27.5593  -37.1819   24.8471 C   0  0  0  0  0  0
  -21.4107  -29.3051   22.3741 N   0  0  0  0  0  0
  -26.4305  -37.3852   23.9419 N   0  0  0  0  0  0
  -24.6581  -31.0894   22.1010 N   0  0  0  0  0  0
  -23.4163  -28.8246   23.3042 O   0  0  0  0  0  0
  -28.3829  -26.7296   20.0796 O   0  0  0  0  0  0
  -26.5623  -34.8967   22.4717 O   0  0  0  0  0  0
  -23.5282  -32.1448   23.7573 O   0  0  0  0  0  0
  -29.6441  -17.0506   23.0000 C   0  0  0  0  0  0
  -31.9673  -16.3817   22.6992 C   0  0  0  0  0  0
  -30.0485  -18.0567   23.8917 C   0  0  0  0  0  0
  -32.3686  -17.3851   23.6041 C   0  0  0  0  0  0
  -30.6000  -16.2135   22.3899 C   0  0  0  0  0  0
  -31.4102  -18.2404   24.2016 C   0  0  0  0  0  0
  -34.7497  -23.7938   25.8179 C   0  0  0  0  0  0
  -28.7521  -26.1014   21.2132 C   0  0  0  0  0  0
  -35.3254  -23.3464   27.1636 C   0  0  0  0  0  0
  -34.5464  -22.2083   27.8565 C   0  0  0  0  0  0
  -34.4609  -20.8856   27.0676 C   0  0  0  0  0  0
  -32.1037  -24.5298   23.9789 C   0  0  0  0  0  0
  -31.4870  -25.3082   22.8077 C   0  0  0  0  0  0
  -33.1155  -20.6982   26.3478 C   0  0  0  0  0  0
  -33.1749  -25.3679   24.7017 C   0  0  0  0  0  0
  -30.4906  -24.4834   21.9751 C   0  0  0  0  0  0
  -33.0570  -19.4301   25.4886 C   0  0  0  0  0  0
  -30.1029  -15.1875   21.5530 N   0  0  0  0  0  0
  -33.7538  -24.6856   25.8553 N   0  0  0  0  0  0
  -29.8527  -25.3103   20.9538 N   0  0  0  0  0  0
  -35.2300  -23.3691   24.7656 O   0  0  0  0  0  0
  -28.1911  -26.2083   22.3057 O   0  0  0  0  0  0
  -31.7083  -19.2603   25.0757 O   0  0  0  0  0  0
  -31.4676  -12.4421   19.0626 H   0  0  0  0  0  0
  -30.3656  -11.2753   19.7374 H   0  0  0  0  0  0
  -29.7171  -11.8256   17.3809 H   0  0  0  0  0  0
  -29.6462  -13.5254   17.7720 H   0  0  0  0  0  0
  -27.8127  -11.3201   18.7774 H   0  0  0  0  0  0
  -27.3527  -12.6785   17.7843 H   0  0  0  0  0  0
  -27.7331  -14.2483   19.6200 H   0  0  0  0  0  0
  -28.6817  -11.8505   21.2613 H   0  0  0  0  0  0
  -28.4452  -13.4332   21.9014 H   0  0  0  0  0  0
  -25.2761   -9.5681   22.4772 H   0  0  0  0  0  0
  -24.0005   -7.4630   22.7473 H   0  0  0  0  0  0
  -21.0839   -8.8792   19.8962 H   0  0  0  0  0  0
  -22.3704  -10.9690   19.6181 H   0  0  0  0  0  0
  -21.2020   -7.6153   23.9719 H   0  0  0  0  0  0
  -21.1460   -6.0521   25.9074 H   0  0  0  0  0  0
  -22.0612   -2.7617   23.2837 H   0  0  0  0  0  0
  -22.4116  -11.9895   22.4757 H   0  0  0  0  0  0
  -21.1150  -13.1308   22.2607 H   0  0  0  0  0  0
  -24.6722  -15.8418   20.5184 H   0  0  0  0  0  0
  -26.2917  -15.6240   20.0879 H   0  0  0  0  0  0
  -26.7077  -32.5631   23.1205 H   0  0  0  0  0  0
  -24.9988  -33.9829   25.0466 H   0  0  0  0  0  0
  -22.6813  -31.3108   21.4157 H   0  0  0  0  0  0
  -23.3762  -35.9622   23.3342 H   0  0  0  0  0  0
  -24.3524  -36.8898   22.2038 H   0  0  0  0  0  0
  -23.7184  -37.6514   23.6612 H   0  0  0  0  0  0
  -26.0268  -31.6247   20.5918 H   0  0  0  0  0  0
  -26.8073  -30.9113   21.9760 H   0  0  0  0  0  0
  -28.0936  -29.1645   21.1509 H   0  0  0  0  0  0
  -26.0915  -25.9895   19.0262 H   0  0  0  0  0  0
  -23.9875  -27.2918   19.0373 H   0  0  0  0  0  0
  -23.6927  -30.5965   19.4014 H   0  0  0  0  0  0
  -22.7249  -29.2401   19.8781 H   0  0  0  0  0  0
  -25.1281  -36.2042   25.0836 H   0  0  0  0  0  0
  -20.9995  -28.3245   24.1432 H   0  0  0  0  0  0
  -20.5661  -26.2272   23.3614 H   0  0  0  0  0  0
  -21.6619  -26.7443   22.1245 H   0  0  0  0  0  0
  -19.6881  -25.6334   21.1222 H   0  0  0  0  0  0
  -19.6681  -27.3232   20.6766 H   0  0  0  0  0  0
  -17.4193  -26.6718   21.4022 H   0  0  0  0  0  0
  -18.0301  -26.0061   22.8998 H   0  0  0  0  0  0
  -19.7937  -30.7252   24.2336 H   0  0  0  0  0  0
  -17.5027  -31.6284   24.5183 H   0  0  0  0  0  0
  -15.5363  -30.3040   23.7637 H   0  0  0  0  0  0
  -15.8642  -28.0840   22.7105 H   0  0  0  0  0  0
  -24.5906  -30.7032   25.7815 H   0  0  0  0  0  0
  -24.8875  -32.2852   26.4937 H   0  0  0  0  0  0
  -25.8088  -30.8879   27.0223 H   0  0  0  0  0  0
  -26.2792  -29.6867   24.1134 H   0  0  0  0  0  0
  -27.4022  -29.7307   25.4524 H   0  0  0  0  0  0
  -27.8627  -30.4411   23.9211 H   0  0  0  0  0  0
  -27.2704  -33.3623   26.2079 H   0  0  0  0  0  0
  -28.3835  -32.6887   25.0278 H   0  0  0  0  0  0
  -28.0721  -31.8414   26.5362 H   0  0  0  0  0  0
  -28.2662  -38.0074   24.7561 H   0  0  0  0  0  0
  -28.1042  -36.2627   24.6268 H   0  0  0  0  0  0
  -27.2295  -37.1457   25.8867 H   0  0  0  0  0  0
  -20.9249  -29.8740   21.6950 H   0  0  0  0  0  0
  -26.0200  -38.2926   24.1442 H   0  0  0  0  0  0
  -28.5898  -16.9254   22.7930 H   0  0  0  0  0  0
  -32.7216  -15.7364   22.2715 H   0  0  0  0  0  0
  -29.3025  -18.6911   24.3499 H   0  0  0  0  0  0
  -33.4226  -17.4749   23.8211 H   0  0  0  0  0  0
  -35.3666  -24.2104   27.8280 H   0  0  0  0  0  0
  -36.3623  -23.0408   27.0161 H   0  0  0  0  0  0
  -33.5510  -22.5566   28.1386 H   0  0  0  0  0  0
  -35.0506  -22.0035   28.8015 H   0  0  0  0  0  0
  -34.5882  -20.0551   27.7625 H   0  0  0  0  0  0
  -35.2918  -20.8112   26.3651 H   0  0  0  0  0  0
  -32.5444  -23.6044   23.6072 H   0  0  0  0  0  0
  -31.3171  -24.2486   24.6815 H   0  0  0  0  0  0
  -32.2847  -25.6684   22.1560 H   0  0  0  0  0  0
  -30.9937  -26.1945   23.2089 H   0  0  0  0  0  0
  -32.8990  -21.5605   25.7170 H   0  0  0  0  0  0
  -32.3199  -20.6584   27.0938 H   0  0  0  0  0  0
  -32.7341  -26.3021   25.0505 H   0  0  0  0  0  0
  -33.9664  -25.6493   24.0059 H   0  0  0  0  0  0
  -29.7284  -24.0361   22.6158 H   0  0  0  0  0  0
  -31.0022  -23.6526   21.4884 H   0  0  0  0  0  0
  -33.3792  -18.5608   26.0637 H   0  0  0  0  0  0
  -33.7221  -19.5418   24.6314 H   0  0  0  0  0  0
  -29.1486  -14.9156   21.7311 H   0  0  0  0  0  0
  -33.4283  -24.9719   26.7699 H   0  0  0  0  0  0
  -30.1864  -25.2983   19.9978 H   0  0  0  0  0  0
  1 25  1  0  0  0
  1 30  2  0  0  0
  1 88  1  0  0  0
  2  3  1  0  0  0
  2 25  1  0  0  0
  2 94  1  0  0  0
  2 95  1  0  0  0
  3  4  1  0  0  0
  3 96  1  0  0  0
  3 97  1  0  0  0
  4  5  1  0  0  0
  4 98  1  0  0  0
  4 99  1  0  0  0
  5  6  1  0  0  0
  5 26  1  0  0  0
  5100  1  0  0  0
  6 25  1  0  0  0
  6101  1  0  0  0
  6102  1  0  0  0
  7  8  2  0  0  0
  7 26  1  0  0  0
  7 29  1  0  0  0
  8  9  1  0  0  0
  8 22  1  0  0  0
  9 10  1  0  0  0
  9 27  2  0  0  0
 10 11  2  0  0  0
 10 15  1  0  0  0
 11 12  1  0  0  0
 11103  1  0  0  0
 12 13  2  0  0  0
 12104  1  0  0  0
 13 14  1  0  0  0
 13 31  1  0  0  0
 14 15  2  0  0  0
 14105  1  0  0  0
 15106  1  0  0  0
 16 17  2  0  0  0
 16 21  1  0  0  0
 16 31  1  0  0  0
 17 18  1  0  0  0
 17107  1  0  0  0
 18 19  2  0  0  0
 18108  1  0  0  0
 19 20  1  0  0  0
 19 24  1  0  0  0
 20 21  2  0  0  0
 20109  1  0  0  0
 21 23  1  0  0  0
 22 28  1  0  0  0
 22 32  2  0  0  0
 26 27  1  0  0  0
 28110  1  0  0  0
 28111  1  0  0  0
 29112  1  0  0  0
 29113  1  0  0  0
 33 34  1  0  0  0
 33 66  1  0  0  0
 33 70  2  0  0  0
 34 36  1  0  0  0
 34 59  1  0  0  0
 34114  1  0  0  0
 35 44  2  0  0  0
 35 45  1  0  0  0
 35 68  1  0  0  0
 36 56  1  0  0  0
 36115  1  0  0  0
 37 39  1  0  0  0
 37 47  1  0  0  0
 37 66  1  0  0  0
 37116  1  0  0  0
 38 43  2  0  0  0
 38 46  1  0  0  0
 38 47  1  0  0  0
 39 64  1  0  0  0
 39 67  2  0  0  0
 40 52  1  0  0  0
 40 53  2  0  0  0
 40 58  1  0  0  0
 41117  1  0  0  0
 41118  1  0  0  0
 41119  1  0  0  0
 41 48  1  0  0  0
 42 43  1  0  0  0
 42 66  1  0  0  0
 42120  1  0  0  0
 42121  1  0  0  0
 43 44  1  0  0  0
 44122  1  0  0  0
 45 46  2  0  0  0
 45123  1  0  0  0
 46124  1  0  0  0
 47125  1  0  0  0
 47126  1  0  0  0
 48 56  1  0  0  0
 48 65  1  0  0  0
 48127  1  0  0  0
 49 50  1  0  0  0
 49 53  1  0  0  0
 49 64  1  0  0  0
 49128  1  0  0  0
 50 51  1  0  0  0
 50129  1  0  0  0
 50130  1  0  0  0
 51 52  1  0  0  0
 51131  1  0  0  0
 51132  1  0  0  0
 52133  1  0  0  0
 52134  1  0  0  0
 53 54  1  0  0  0
 54 55  2  0  0  0
 54135  1  0  0  0
 55 57  1  0  0  0
 55136  1  0  0  0
 56 69  2  0  0  0
 57 58  2  0  0  0
 57137  1  0  0  0
 58138  1  0  0  0
 59 60  1  0  0  0
 59 61  1  0  0  0
 59 62  1  0  0  0
 60139  1  0  0  0
 60140  1  0  0  0
 60141  1  0  0  0
 61142  1  0  0  0
 61143  1  0  0  0
 61144  1  0  0  0
 62145  1  0  0  0
 62146  1  0  0  0
 62147  1  0  0  0
 63 65  1  0  0  0
 63148  1  0  0  0
 63149  1  0  0  0
 63150  1  0  0  0
 64151  1  0  0  0
 65152  1  0  0  0
 68 78  1  0  0  0
 71 73  2  0  0  0
 71 75  1  0  0  0
 71153  1  0  0  0
 72 74  1  0  0  0
 72 75  2  0  0  0
 72154  1  0  0  0
 73 76  1  0  0  0
 73155  1  0  0  0
 74 76  2  0  0  0
 74156  1  0  0  0
 75 88  1  0  0  0
 76 93  1  0  0  0
 77 79  1  0  0  0
 77 89  1  0  0  0
 77 91  2  0  0  0
 78 90  1  0  0  0
 78 92  2  0  0  0
 79 80  1  0  0  0
 79157  1  0  0  0
 79158  1  0  0  0
 80 81  1  0  0  0
 80159  1  0  0  0
 80160  1  0  0  0
 81 84  1  0  0  0
 81161  1  0  0  0
 81162  1  0  0  0
 82 83  1  0  0  0
 82 85  1  0  0  0
 82163  1  0  0  0
 82164  1  0  0  0
 83 86  1  0  0  0
 83165  1  0  0  0
 83166  1  0  0  0
 84 87  1  0  0  0
 84167  1  0  0  0
 84168  1  0  0  0
 85 89  1  0  0  0
 85169  1  0  0  0
 85170  1  0  0  0
 86 90  1  0  0  0
 86171  1  0  0  0
 86172  1  0  0  0
 87 93  1  0  0  0
 87173  1  0  0  0
 87174  1  0  0  0
 88175  1  0  0  0
 89176  1  0  0  0
 90177  1  0  0  0
M  ISO  4   1 100  68 101  78 101  88 100
M  END
> <chiral flag>
0

> <version>
0

> <s_m_source_file>
/data/baiqing/PycharmProjects/Reinvent-master-3.2/result/LINK_invent/BTK/process_docking_weight1_custom_sum_contain_oxygen_bond_distance_aromatic_linkinvent_7_9_3/rearranged_h_0003.sdf

> <i_m_source_file_index>
50

> <r_mmod_Potential_Energy-OPLS-2005>
-205.567687988281

> <r_mmod_Stretch_Energy-OPLS-2005>
31.7789726257324

> <r_mmod_Bend_Energy-OPLS-2005>
106.63826751709

> <r_mmod_Torsional_Energy-OPLS-2005>
216.318939208984

> <r_mmod_Improper_Torsional_Energy-OPLS-2005>
2.77249956130981

> <r_mmod_Van_der_Waal_Energy-OPLS-2005>
159.172698974609

> <r_mmod_Electrostatic_Energy-OPLS-2005>
-463.075408935547

> <r_mmod_Solvation_Energy-OPLS-2005>
-266.886108398438

> <b_mmod_Minimization_Converged-OPLS-2005>
0

> <r_mmod_RMS_Derivative-OPLS-2005>
3.01750373840332

$$$$
51
                    3D
 Structure written by MMmdl.
183191  0  0  1  0            999 V2000
  -30.7238  -14.4673   20.3340 C   0  0  0  0  0  0
  -30.4070  -12.2531   19.4065 C   0  0  0  0  0  0
  -29.4670  -12.4334   18.1931 C   0  0  0  0  0  0
  -27.9919  -12.3414   18.6237 C   0  0  0  0  0  0
  -27.6521  -13.2051   19.8671 C   0  0  2  0  0  0
  -28.7243  -13.0716   20.9750 C   0  0  0  0  0  0
  -25.2547  -13.8160   20.5710 C   0  0  0  0  0  0
  -24.1820  -13.0432   20.9229 C   0  0  0  0  0  0
  -24.6390  -11.6921   20.8777 C   0  0  0  0  0  0
  -23.9062  -10.4298   21.0376 C   0  0  0  0  0  0
  -24.3618   -9.4213   21.9163 C   0  0  0  0  0  0
  -23.6309   -8.2232   22.0728 C   0  0  0  0  0  0
  -22.4297   -8.0260   21.3513 C   0  0  0  0  0  0
  -21.9923   -9.0245   20.4631 C   0  0  0  0  0  0
  -22.7223  -10.2132   20.3033 C   0  0  0  0  0  0
  -21.6893   -6.0726   22.5249 C   0  0  0  0  0  0
  -21.4028   -6.5636   23.8177 C   0  0  0  0  0  0
  -21.3658   -5.6785   24.9150 C   0  0  0  0  0  0
  -21.6039   -4.3045   24.7180 C   0  0  0  0  0  0
  -21.8837   -3.8138   23.4309 C   0  0  0  0  0  0
  -21.9204   -4.6952   22.3378 C   0  0  0  0  0  0
  -22.7825  -13.5204   21.1845 C   0  0  0  0  0  0
  -22.1669   -4.2125   21.0945 F   0  0  0  0  0  0
  -21.5636   -3.4523   25.7693 F   0  0  0  0  0  0
  -30.0483  -13.2944   20.3719 N   0  0  0  0  0  0
  -26.3008  -12.9326   20.3471 N   0  0  0  0  0  0
  -25.9336  -11.6497   20.5928 N   0  0  0  0  0  0
  -22.0483  -12.8203   22.0406 N   0  0  0  0  0  0
  -25.4192  -15.1857   20.3995 N   0  0  0  0  0  0
  -31.9476  -14.5604   20.3424 O   0  0  0  0  0  0
  -21.6668   -6.8852   21.4202 O   0  0  0  0  0  0
  -22.3525  -14.5524   20.6702 O   0  0  0  0  0  0
  -24.6090  -31.8702   23.2113 C   0  0  0  0  0  0
  -25.8989  -32.4842   23.8408 C   0  0  1  0  0  0
  -27.2618  -27.4744   20.0894 C   0  0  0  0  0  0
  -25.5869  -33.8641   24.2340 N   0  0  0  0  0  0
  -23.3975  -30.4880   21.5507 C   0  0  2  0  0  0
  -24.8480  -28.9479   20.1214 C   0  0  0  0  0  0
  -22.7387  -29.4663   22.5022 C   0  0  0  0  0  0
  -18.0261  -28.1379   22.8495 C   0  0  0  0  0  0
  -24.1479  -36.7306   23.2649 C   0  0  0  0  0  0
  -25.9190  -30.8459   21.3578 C   0  0  0  0  0  0
  -26.0001  -29.4791   20.7113 C   0  0  0  0  0  0
  -27.2031  -28.7476   20.6937 C   0  0  0  0  0  0
  -26.0899  -26.9369   19.5079 C   0  0  0  0  0  0
  -24.8851  -27.6734   19.5216 C   0  0  0  0  0  0
  -23.6046  -29.8089   20.1688 C   0  0  0  0  0  0
  -25.4107  -36.3129   24.0345 C   0  0  1  0  0  0
  -20.5851  -28.3650   23.1347 C   0  0  2  0  0  0
  -20.6746  -26.9391   22.5438 C   0  0  0  0  0  0
  -19.5742  -26.6387   21.5221 C   0  0  0  0  0  0
  -18.1909  -26.7943   22.1603 C   0  0  0  0  0  0
  -19.1509  -28.8835   23.2921 C   0  0  0  0  0  0
  -18.9437  -30.1444   23.8922 C   0  0  0  0  0  0
  -17.6446  -30.6592   24.0569 C   0  0  0  0  0  0
  -25.9033  -34.9501   23.5151 C   0  0  0  0  0  0
  -16.5330  -29.9101   23.6329 C   0  0  0  0  0  0
  -16.7247  -28.6511   23.0347 C   0  0  0  0  0  0
  -26.4453  -31.6617   25.0723 C   0  0  0  0  0  0
  -25.3723  -31.3697   26.1476 C   0  0  0  0  0  0
  -27.0271  -30.3077   24.6054 C   0  0  0  0  0  0
  -27.6041  -32.4344   25.7460 C   0  0  0  0  0  0
  -27.5596  -37.1804   24.8469 C   0  0  0  0  0  0
  -21.4119  -29.3015   22.3757 N   0  0  0  0  0  0
  -26.4292  -37.3815   23.9433 N   0  0  0  0  0  0
  -24.6590  -31.0823   22.0989 N   0  0  0  0  0  0
  -23.4166  -28.8222   23.3079 O   0  0  0  0  0  0
  -28.4894  -26.8553   20.0870 O   0  0  0  0  0  0
  -26.5601  -34.8936   22.4705 O   0  0  0  0  0  0
  -23.5289  -32.1435   23.7521 O   0  0  0  0  0  0
  -33.5174  -18.5713   19.2943 C   0  0  0  0  0  0
  -31.5450  -16.1643   17.9042 C   0  0  0  0  0  0
  -34.6179  -17.6239   16.4514 C   0  0  0  0  0  0
  -33.7721  -18.8383   16.7698 C   0  0  0  0  0  0
  -33.6210  -16.4771   16.6170 C   0  0  0  0  0  0
  -32.8560  -18.3581   17.9154 C   0  0  1  0  0  0
  -29.4924  -18.5782   17.5643 C   0  0  0  0  0  0
  -28.4397  -16.3476   17.3351 C   0  0  0  0  0  0
  -28.1942  -17.6888   19.4641 C   0  0  0  0  0  0
  -32.0278  -23.4939   20.2138 C   0  0  0  0  0  0
  -30.5307  -23.7035   19.8991 C   0  0  0  0  0  0
  -32.4244  -22.0099   20.2819 C   0  0  0  0  0  0
  -30.1322  -25.1901   19.9526 C   0  0  0  0  0  0
  -33.9220  -21.7837   20.5871 C   0  0  0  0  0  0
  -28.6320  -25.4844   19.7470 C   0  0  0  0  0  0
  -30.4511  -16.5929   18.9469 C   0  0  1  0  0  0
  -29.1693  -17.2801   18.3341 C   0  0  0  0  0  0
  -32.6029  -16.9476   17.5736 N   0  0  0  0  0  0
  -29.9927  -15.4593   19.7960 N   0  0  0  0  0  0
  -34.2559  -20.3650   20.6854 N   0  0  0  0  0  0
  -33.5447  -17.7494   20.2155 O   0  0  0  0  0  0
  -31.4155  -15.0687   17.3535 O   0  0  0  0  0  0
  -33.9756  -19.8361   19.3764 O   0  0  0  0  0  0
  -31.4532  -12.3158   19.0900 H   0  0  0  0  0  0
  -30.2796  -11.2663   19.8533 H   0  0  0  0  0  0
  -29.6800  -11.6759   17.4358 H   0  0  0  0  0  0
  -29.6326  -13.3939   17.7110 H   0  0  0  0  0  0
  -27.7853  -11.2947   18.8330 H   0  0  0  0  0  0
  -27.3368  -12.6166   17.7950 H   0  0  0  0  0  0
  -27.6573  -14.2376   19.5376 H   0  0  0  0  0  0
  -28.6904  -12.0812   21.4334 H   0  0  0  0  0  0
  -28.5493  -13.7930   21.7776 H   0  0  0  0  0  0
  -25.2751   -9.5750   22.4754 H   0  0  0  0  0  0
  -24.0045   -7.4661   22.7485 H   0  0  0  0  0  0
  -21.0838   -8.8763   19.8988 H   0  0  0  0  0  0
  -22.3635  -10.9680   19.6170 H   0  0  0  0  0  0
  -21.2035   -7.6144   23.9667 H   0  0  0  0  0  0
  -21.1454   -6.0508   25.9045 H   0  0  0  0  0  0
  -22.0620   -2.7592   23.2796 H   0  0  0  0  0  0
  -22.4083  -11.9851   22.4795 H   0  0  0  0  0  0
  -21.1096  -13.1211   22.2614 H   0  0  0  0  0  0
  -24.6469  -15.8372   20.4984 H   0  0  0  0  0  0
  -26.2591  -15.6246   20.0489 H   0  0  0  0  0  0
  -26.7062  -32.5583   23.1187 H   0  0  0  0  0  0
  -25.0021  -33.9805   25.0485 H   0  0  0  0  0  0
  -22.6846  -31.3031   21.4084 H   0  0  0  0  0  0
  -23.3768  -35.9613   23.3311 H   0  0  0  0  0  0
  -24.3564  -36.8909   22.2060 H   0  0  0  0  0  0
  -23.7190  -37.6494   23.6640 H   0  0  0  0  0  0
  -26.0237  -31.6103   20.5862 H   0  0  0  0  0  0
  -26.8089  -30.9034   21.9723 H   0  0  0  0  0  0
  -28.0962  -29.1623   21.1400 H   0  0  0  0  0  0
  -26.1001  -25.9671   19.0319 H   0  0  0  0  0  0
  -23.9963  -27.2573   19.0650 H   0  0  0  0  0  0
  -23.7048  -30.5779   19.4012 H   0  0  0  0  0  0
  -22.7318  -29.2189   19.8823 H   0  0  0  0  0  0
  -25.1279  -36.2007   25.0843 H   0  0  0  0  0  0
  -20.9937  -28.3213   24.1477 H   0  0  0  0  0  0
  -20.5639  -26.2262   23.3622 H   0  0  0  0  0  0
  -21.6619  -26.7446   22.1241 H   0  0  0  0  0  0
  -19.6896  -25.6307   21.1240 H   0  0  0  0  0  0
  -19.6703  -27.3208   20.6767 H   0  0  0  0  0  0
  -17.4201  -26.6740   21.3979 H   0  0  0  0  0  0
  -18.0268  -26.0067   22.8972 H   0  0  0  0  0  0
  -19.7918  -30.7251   24.2314 H   0  0  0  0  0  0
  -17.5003  -31.6273   24.5162 H   0  0  0  0  0  0
  -15.5336  -30.3003   23.7641 H   0  0  0  0  0  0
  -15.8654  -28.0844   22.7046 H   0  0  0  0  0  0
  -24.5923  -30.7011   25.7815 H   0  0  0  0  0  0
  -24.8868  -32.2826   26.4933 H   0  0  0  0  0  0
  -25.8090  -30.8878   27.0230 H   0  0  0  0  0  0
  -26.2789  -29.6854   24.1129 H   0  0  0  0  0  0
  -27.4091  -29.7300   25.4481 H   0  0  0  0  0  0
  -27.8605  -30.4431   23.9154 H   0  0  0  0  0  0
  -27.2675  -33.3628   26.2086 H   0  0  0  0  0  0
  -28.3801  -32.6936   25.0243 H   0  0  0  0  0  0
  -28.0772  -31.8446   26.5322 H   0  0  0  0  0  0
  -28.2614  -38.0100   24.7528 H   0  0  0  0  0  0
  -28.1070  -36.2634   24.6258 H   0  0  0  0  0  0
  -27.2314  -37.1423   25.8866 H   0  0  0  0  0  0
  -20.9280  -29.8718   21.6963 H   0  0  0  0  0  0
  -26.0197  -38.2890   24.1430 H   0  0  0  0  0  0
  -35.4281  -17.5388   17.1773 H   0  0  0  0  0  0
  -35.0681  -17.6650   15.4599 H   0  0  0  0  0  0
  -33.1550  -19.0867   15.9046 H   0  0  0  0  0  0
  -34.3751  -19.7220   16.9816 H   0  0  0  0  0  0
  -34.1120  -15.5622   16.9541 H   0  0  0  0  0  0
  -33.1449  -16.2688   15.6561 H   0  0  0  0  0  0
  -31.9429  -18.9373   17.9009 H   0  0  0  0  0  0
  -28.5885  -19.0243   17.1450 H   0  0  0  0  0  0
  -30.1664  -18.4098   16.7240 H   0  0  0  0  0  0
  -29.9301  -19.3298   18.2190 H   0  0  0  0  0  0
  -27.5325  -16.8106   16.9442 H   0  0  0  0  0  0
  -28.1438  -15.4004   17.7715 H   0  0  0  0  0  0
  -29.0613  -16.1131   16.4704 H   0  0  0  0  0  0
  -27.3375  -18.2482   19.0831 H   0  0  0  0  0  0
  -28.6860  -18.3235   20.2046 H   0  0  0  0  0  0
  -27.7849  -16.8353   19.9982 H   0  0  0  0  0  0
  -32.2726  -23.9693   21.1651 H   0  0  0  0  0  0
  -32.6323  -23.9978   19.4572 H   0  0  0  0  0  0
  -29.9307  -23.1461   20.6202 H   0  0  0  0  0  0
  -30.2991  -23.2921   18.9146 H   0  0  0  0  0  0
  -32.1587  -21.5468   19.3307 H   0  0  0  0  0  0
  -31.8225  -21.5140   21.0428 H   0  0  0  0  0  0
  -30.7118  -25.7493   19.2164 H   0  0  0  0  0  0
  -30.4282  -25.5846   20.9264 H   0  0  0  0  0  0
  -34.1887  -22.2691   21.5275 H   0  0  0  0  0  0
  -34.5433  -22.2468   19.8182 H   0  0  0  0  0  0
  -28.0203  -24.8642   20.4039 H   0  0  0  0  0  0
  -28.3363  -25.2998   18.7140 H   0  0  0  0  0  0
  -30.9191  -17.2967   19.6351 H   0  0  0  0  0  0
  -29.0197  -15.2325   19.6973 H   0  0  0  0  0  0
  -33.6239  -19.8701   21.3106 H   0  0  0  0  0  0
  1 25  1  0  0  0
  1 30  2  0  0  0
  1 89  1  0  0  0
  2  3  1  0  0  0
  2 25  1  0  0  0
  2 94  1  0  0  0
  2 95  1  0  0  0
  3  4  1  0  0  0
  3 96  1  0  0  0
  3 97  1  0  0  0
  4  5  1  0  0  0
  4 98  1  0  0  0
  4 99  1  0  0  0
  5  6  1  0  0  0
  5 26  1  0  0  0
  5100  1  0  0  0
  6 25  1  0  0  0
  6101  1  0  0  0
  6102  1  0  0  0
  7  8  2  0  0  0
  7 26  1  0  0  0
  7 29  1  0  0  0
  8  9  1  0  0  0
  8 22  1  0  0  0
  9 10  1  0  0  0
  9 27  2  0  0  0
 10 11  2  0  0  0
 10 15  1  0  0  0
 11 12  1  0  0  0
 11103  1  0  0  0
 12 13  2  0  0  0
 12104  1  0  0  0
 13 14  1  0  0  0
 13 31  1  0  0  0
 14 15  2  0  0  0
 14105  1  0  0  0
 15106  1  0  0  0
 16 17  2  0  0  0
 16 21  1  0  0  0
 16 31  1  0  0  0
 17 18  1  0  0  0
 17107  1  0  0  0
 18 19  2  0  0  0
 18108  1  0  0  0
 19 20  1  0  0  0
 19 24  1  0  0  0
 20 21  2  0  0  0
 20109  1  0  0  0
 21 23  1  0  0  0
 22 28  1  0  0  0
 22 32  2  0  0  0
 26 27  1  0  0  0
 28110  1  0  0  0
 28111  1  0  0  0
 29112  1  0  0  0
 29113  1  0  0  0
 33 34  1  0  0  0
 33 66  1  0  0  0
 33 70  2  0  0  0
 34 36  1  0  0  0
 34 59  1  0  0  0
 34114  1  0  0  0
 35 44  2  0  0  0
 35 45  1  0  0  0
 35 68  1  0  0  0
 36 56  1  0  0  0
 36115  1  0  0  0
 37 39  1  0  0  0
 37 47  1  0  0  0
 37 66  1  0  0  0
 37116  1  0  0  0
 38 43  2  0  0  0
 38 46  1  0  0  0
 38 47  1  0  0  0
 39 64  1  0  0  0
 39 67  2  0  0  0
 40 52  1  0  0  0
 40 53  2  0  0  0
 40 58  1  0  0  0
 41117  1  0  0  0
 41118  1  0  0  0
 41119  1  0  0  0
 41 48  1  0  0  0
 42 43  1  0  0  0
 42 66  1  0  0  0
 42120  1  0  0  0
 42121  1  0  0  0
 43 44  1  0  0  0
 44122  1  0  0  0
 45 46  2  0  0  0
 45123  1  0  0  0
 46124  1  0  0  0
 47125  1  0  0  0
 47126  1  0  0  0
 48 56  1  0  0  0
 48 65  1  0  0  0
 48127  1  0  0  0
 49 50  1  0  0  0
 49 53  1  0  0  0
 49 64  1  0  0  0
 49128  1  0  0  0
 50 51  1  0  0  0
 50129  1  0  0  0
 50130  1  0  0  0
 51 52  1  0  0  0
 51131  1  0  0  0
 51132  1  0  0  0
 52133  1  0  0  0
 52134  1  0  0  0
 53 54  1  0  0  0
 54 55  2  0  0  0
 54135  1  0  0  0
 55 57  1  0  0  0
 55136  1  0  0  0
 56 69  2  0  0  0
 57 58  2  0  0  0
 57137  1  0  0  0
 58138  1  0  0  0
 59 60  1  0  0  0
 59 61  1  0  0  0
 59 62  1  0  0  0
 60139  1  0  0  0
 60140  1  0  0  0
 60141  1  0  0  0
 61142  1  0  0  0
 61143  1  0  0  0
 61144  1  0  0  0
 62145  1  0  0  0
 62146  1  0  0  0
 62147  1  0  0  0
 63 65  1  0  0  0
 63148  1  0  0  0
 63149  1  0  0  0
 63150  1  0  0  0
 64151  1  0  0  0
 65152  1  0  0  0
 68 85  1  0  0  0
 71 91  2  0  0  0
 71 93  1  0  0  0
 71 76  1  0  0  0
 72 86  1  0  0  0
 72 88  1  0  0  0
 72 92  2  0  0  0
 73 74  1  0  0  0
 73 75  1  0  0  0
 73153  1  0  0  0
 73154  1  0  0  0
 74 76  1  0  0  0
 74155  1  0  0  0
 74156  1  0  0  0
 75 88  1  0  0  0
 75157  1  0  0  0
 75158  1  0  0  0
 76 88  1  0  0  0
 76159  1  0  0  0
 77160  1  0  0  0
 77161  1  0  0  0
 77162  1  0  0  0
 77 87  1  0  0  0
 78 87  1  0  0  0
 78163  1  0  0  0
 78164  1  0  0  0
 78165  1  0  0  0
 79 87  1  0  0  0
 79166  1  0  0  0
 79167  1  0  0  0
 79168  1  0  0  0
 80 81  1  0  0  0
 80 82  1  0  0  0
 80169  1  0  0  0
 80170  1  0  0  0
 81 83  1  0  0  0
 81171  1  0  0  0
 81172  1  0  0  0
 82 84  1  0  0  0
 82173  1  0  0  0
 82174  1  0  0  0
 83 85  1  0  0  0
 83175  1  0  0  0
 83176  1  0  0  0
 84 90  1  0  0  0
 84177  1  0  0  0
 84178  1  0  0  0
 85179  1  0  0  0
 85180  1  0  0  0
 86 87  1  0  0  0
 86 89  1  0  0  0
 86181  1  0  0  0
 89182  1  0  0  0
 90 93  1  0  0  0
 90183  1  0  0  0
M  ISO  4   1 100  68 101  85 101  89 100
M  END
> <chiral flag>
0

> <version>
0

> <s_m_source_file>
/data/baiqing/PycharmProjects/Reinvent-master-3.2/result/LINK_invent/BTK/process_docking_weight1_custom_sum_contain_oxygen_bond_distance_aromatic_linkinvent_7_9_3/rearranged_h_0003.sdf

> <i_m_source_file_index>
51

> <r_mmod_Potential_Energy-OPLS-2005>
-33.785758972168

> <r_mmod_Stretch_Energy-OPLS-2005>
43.660701751709

> <r_mmod_Bend_Energy-OPLS-2005>
156.243377685547

> <r_mmod_Torsional_Energy-OPLS-2005>
225.241638183594

> <r_mmod_Improper_Torsional_Energy-OPLS-2005>
16.8709316253662

> <r_mmod_Van_der_Waal_Energy-OPLS-2005>
136.652923583984

> <r_mmod_Electrostatic_Energy-OPLS-2005>
-410.805145263672

> <r_mmod_Solvation_Energy-OPLS-2005>
-239.281234741211

> <b_mmod_Minimization_Converged-OPLS-2005>
0

> <r_mmod_RMS_Derivative-OPLS-2005>
4.60613107681274

$$$$
52
                    3D
 Structure written by MMmdl.
163171  0  0  1  0            999 V2000
  -30.7997  -14.3433   20.7097 C   0  0  0  0  0  0
  -30.4118  -12.2885   19.3954 C   0  0  0  0  0  0
  -29.4816  -12.5252   18.1938 C   0  0  0  0  0  0
  -28.0093  -12.3683   18.6125 C   0  0  0  0  0  0
  -27.6641  -13.2017   19.8729 C   0  0  2  0  0  0
  -28.7002  -12.9698   20.9937 C   0  0  0  0  0  0
  -25.2604  -13.8161   20.5668 C   0  0  0  0  0  0
  -24.1844  -13.0445   20.9161 C   0  0  0  0  0  0
  -24.6396  -11.6911   20.8722 C   0  0  0  0  0  0
  -23.9055  -10.4300   21.0391 C   0  0  0  0  0  0
  -24.3614   -9.4217   21.9177 C   0  0  0  0  0  0
  -23.6288   -8.2252   22.0759 C   0  0  0  0  0  0
  -22.4269   -8.0288   21.3554 C   0  0  0  0  0  0
  -21.9901   -9.0254   20.4654 C   0  0  0  0  0  0
  -22.7219  -10.2136   20.3051 C   0  0  0  0  0  0
  -21.6854   -6.0739   22.5279 C   0  0  0  0  0  0
  -21.4014   -6.5640   23.8211 C   0  0  0  0  0  0
  -21.3656   -5.6794   24.9173 C   0  0  0  0  0  0
  -21.6042   -4.3057   24.7227 C   0  0  0  0  0  0
  -21.8813   -3.8152   23.4346 C   0  0  0  0  0  0
  -21.9187   -4.6967   22.3403 C   0  0  0  0  0  0
  -22.7870  -13.5251   21.1824 C   0  0  0  0  0  0
  -22.1653   -4.2150   21.0981 F   0  0  0  0  0  0
  -21.5626   -3.4541   25.7741 F   0  0  0  0  0  0
  -30.0502  -13.2348   20.4608 N   0  0  0  0  0  0
  -26.3037  -12.9324   20.3347 N   0  0  0  0  0  0
  -25.9317  -11.6488   20.5742 N   0  0  0  0  0  0
  -22.0505  -12.8258   22.0393 N   0  0  0  0  0  0
  -25.4340  -15.1880   20.4098 N   0  0  0  0  0  0
  -31.7774  -14.6655   20.0251 O   0  0  0  0  0  0
  -21.6640   -6.8881   21.4241 O   0  0  0  0  0  0
  -22.3554  -14.5549   20.6656 O   0  0  0  0  0  0
  -24.6097  -31.8690   23.2140 C   0  0  0  0  0  0
  -25.9006  -32.4829   23.8415 C   0  0  1  0  0  0
  -27.2340  -27.4667   20.0906 C   0  0  0  0  0  0
  -25.5878  -33.8632   24.2342 N   0  0  0  0  0  0
  -23.3970  -30.4933   21.5529 C   0  0  2  0  0  0
  -24.8447  -28.9630   20.1162 C   0  0  0  0  0  0
  -22.7384  -29.4657   22.4999 C   0  0  0  0  0  0
  -18.0249  -28.1367   22.8499 C   0  0  0  0  0  0
  -24.1487  -36.7325   23.2637 C   0  0  0  0  0  0
  -25.9223  -30.8436   21.3634 C   0  0  0  0  0  0
  -26.0007  -29.4786   20.7159 C   0  0  0  0  0  0
  -27.1987  -28.7337   20.7095 C   0  0  0  0  0  0
  -26.0705  -26.9639   19.4743 C   0  0  0  0  0  0
  -24.8719  -27.7012   19.4961 C   0  0  0  0  0  0
  -23.6042  -29.8250   20.1667 C   0  0  0  0  0  0
  -25.4108  -36.3116   24.0337 C   0  0  1  0  0  0
  -20.5837  -28.3646   23.1319 C   0  0  2  0  0  0
  -20.6744  -26.9385   22.5411 C   0  0  0  0  0  0
  -19.5715  -26.6365   21.5220 C   0  0  0  0  0  0
  -18.1903  -26.7904   22.1645 C   0  0  0  0  0  0
  -19.1498  -28.8828   23.2901 C   0  0  0  0  0  0
  -18.9426  -30.1444   23.8895 C   0  0  0  0  0  0
  -17.6431  -30.6583   24.0558 C   0  0  0  0  0  0
  -25.9028  -34.9479   23.5137 C   0  0  0  0  0  0
  -16.5322  -29.9086   23.6328 C   0  0  0  0  0  0
  -16.7237  -28.6498   23.0357 C   0  0  0  0  0  0
  -26.4464  -31.6599   25.0722 C   0  0  0  0  0  0
  -25.3742  -31.3700   26.1473 C   0  0  0  0  0  0
  -27.0284  -30.3048   24.6066 C   0  0  0  0  0  0
  -27.6047  -32.4310   25.7480 C   0  0  0  0  0  0
  -27.5584  -37.1820   24.8466 C   0  0  0  0  0  0
  -21.4110  -29.3012   22.3727 N   0  0  0  0  0  0
  -26.4296  -37.3799   23.9409 N   0  0  0  0  0  0
  -24.6614  -31.0817   22.1024 N   0  0  0  0  0  0
  -23.4169  -28.8198   23.3023 O   0  0  0  0  0  0
  -28.3924  -26.7323   20.0609 O   0  0  0  0  0  0
  -26.5587  -34.8920   22.4697 O   0  0  0  0  0  0
  -23.5301  -32.1420   23.7557 O   0  0  0  0  0  0
  -29.1656  -14.2801   25.0357 C   0  0  0  0  0  0
  -30.0166  -14.3540   24.1645 C   0  0  0  0  0  0
  -28.9438  -18.2657   20.6578 C   0  0  0  0  0  0
  -30.2445  -18.7024   22.6652 C   0  0  0  0  0  0
  -29.3008  -16.9030   20.7263 C   0  0  0  0  0  0
  -30.5865  -17.3392   22.7427 C   0  0  0  0  0  0
  -29.4092  -19.1758   21.6324 C   0  0  0  0  0  0
  -30.1311  -16.4145   21.7695 C   0  0  0  0  0  0
  -29.0724  -20.6278   21.5803 C   0  0  0  0  0  0
  -27.5765  -21.0324   21.7350 C   0  0  0  0  0  0
  -31.0224  -14.4400   23.0897 C   0  0  0  0  0  0
  -27.8877  -24.4985   20.9415 C   0  0  0  0  0  0
  -27.9693  -23.5542   22.1571 C   0  0  0  0  0  0
  -28.5612  -25.8641   21.1828 C   0  0  0  0  0  0
  -26.6398  -20.0513   21.6651 N   0  0  0  0  0  0
  -30.4967  -15.0224   21.8383 N   0  0  0  0  0  0
  -27.1908  -22.3147   21.9545 N   0  3  0  0  0  0
  -29.9449  -21.4876   21.4415 O   0  0  0  0  0  0
  -31.4555  -12.3802   19.0895 H   0  0  0  0  0  0
  -30.3050  -11.2672   19.7638 H   0  0  0  0  0  0
  -29.7187  -11.8231   17.3934 H   0  0  0  0  0  0
  -29.6480  -13.5243   17.7889 H   0  0  0  0  0  0
  -27.8272  -11.3098   18.8054 H   0  0  0  0  0  0
  -27.3536  -12.6406   17.7855 H   0  0  0  0  0  0
  -27.7152  -14.2507   19.5844 H   0  0  0  0  0  0
  -28.6517  -11.9406   21.3514 H   0  0  0  0  0  0
  -28.4436  -13.5934   21.8496 H   0  0  0  0  0  0
  -25.2755   -9.5697   22.4759 H   0  0  0  0  0  0
  -23.9990   -7.4648   22.7490 H   0  0  0  0  0  0
  -21.0828   -8.8769   19.8970 H   0  0  0  0  0  0
  -22.3664  -10.9678   19.6171 H   0  0  0  0  0  0
  -21.2009   -7.6150   23.9711 H   0  0  0  0  0  0
  -21.1484   -6.0531   25.9074 H   0  0  0  0  0  0
  -22.0597   -2.7616   23.2845 H   0  0  0  0  0  0
  -22.4108  -11.9911   22.4774 H   0  0  0  0  0  0
  -21.1135  -13.1309   22.2610 H   0  0  0  0  0  0
  -24.6753  -15.8479   20.5366 H   0  0  0  0  0  0
  -26.3004  -15.6304   20.1316 H   0  0  0  0  0  0
  -26.7074  -32.5560   23.1182 H   0  0  0  0  0  0
  -25.0035  -33.9809   25.0489 H   0  0  0  0  0  0
  -22.6831  -31.3080   21.4139 H   0  0  0  0  0  0
  -23.3735  -35.9675   23.3319 H   0  0  0  0  0  0
  -24.3577  -36.8919   22.2047 H   0  0  0  0  0  0
  -23.7253  -37.6547   23.6633 H   0  0  0  0  0  0
  -26.0253  -31.6083   20.5929 H   0  0  0  0  0  0
  -26.8140  -30.9026   21.9757 H   0  0  0  0  0  0
  -28.0930  -29.1271   21.1722 H   0  0  0  0  0  0
  -26.0899  -26.0059   18.9749 H   0  0  0  0  0  0
  -23.9853  -27.3026   19.0240 H   0  0  0  0  0  0
  -23.7055  -30.5989   19.4040 H   0  0  0  0  0  0
  -22.7305  -29.2386   19.8743 H   0  0  0  0  0  0
  -25.1286  -36.1995   25.0833 H   0  0  0  0  0  0
  -20.9929  -28.3202   24.1439 H   0  0  0  0  0  0
  -20.5658  -26.2258   23.3599 H   0  0  0  0  0  0
  -21.6617  -26.7451   22.1198 H   0  0  0  0  0  0
  -19.6868  -25.6275   21.1261 H   0  0  0  0  0  0
  -19.6643  -27.3163   20.6733 H   0  0  0  0  0  0
  -17.4163  -26.6621   21.4061 H   0  0  0  0  0  0
  -18.0332  -26.0066   22.9060 H   0  0  0  0  0  0
  -19.7901  -30.7265   24.2264 H   0  0  0  0  0  0
  -17.4976  -31.6270   24.5138 H   0  0  0  0  0  0
  -15.5321  -30.2985   23.7646 H   0  0  0  0  0  0
  -15.8634  -28.0820   22.7083 H   0  0  0  0  0  0
  -24.5906  -30.7055   25.7815 H   0  0  0  0  0  0
  -24.8937  -32.2853   26.4938 H   0  0  0  0  0  0
  -25.8095  -30.8856   27.0221 H   0  0  0  0  0  0
  -26.2814  -29.6820   24.1126 H   0  0  0  0  0  0
  -27.4076  -29.7271   25.4506 H   0  0  0  0  0  0
  -27.8643  -30.4385   23.9193 H   0  0  0  0  0  0
  -27.2674  -33.3595   26.2108 H   0  0  0  0  0  0
  -28.3838  -32.6898   25.0293 H   0  0  0  0  0  0
  -28.0737  -31.8397   26.5358 H   0  0  0  0  0  0
  -28.2619  -38.0103   24.7498 H   0  0  0  0  0  0
  -28.1061  -36.2630   24.6312 H   0  0  0  0  0  0
  -27.2291  -37.1499   25.8868 H   0  0  0  0  0  0
  -20.9265  -29.8722   21.6945 H   0  0  0  0  0  0
  -26.0185  -38.2885   24.1396 H   0  0  0  0  0  0
  -28.4193  -14.2163   25.7985 H   0  0  0  0  0  0
  -28.3204  -18.6091   19.8418 H   0  0  0  0  0  0
  -30.6230  -19.3854   23.4143 H   0  0  0  0  0  0
  -28.9267  -16.2416   19.9583 H   0  0  0  0  0  0
  -31.2174  -17.0321   23.5627 H   0  0  0  0  0  0
  -31.8908  -14.9935   23.4468 H   0  0  0  0  0  0
  -31.3787  -13.4184   22.9383 H   0  0  0  0  0  0
  -26.8387  -24.6432   20.6901 H   0  0  0  0  0  0
  -28.3493  -24.0226   20.0751 H   0  0  0  0  0  0
  -27.5302  -24.0562   23.0197 H   0  0  0  0  0  0
  -28.9989  -23.3662   22.4467 H   0  0  0  0  0  0
  -29.6310  -25.7213   21.3432 H   0  0  0  0  0  0
  -28.1744  -26.3301   22.0930 H   0  0  0  0  0  0
  -26.9644  -19.0975   21.5395 H   0  0  0  0  0  0
  -25.6459  -20.2155   21.7755 H   0  0  0  0  0  0
  -26.2027  -22.4647   22.0404 H   0  0  0  0  0  0
  1 25  1  0  0  0
  1 30  2  0  0  0
  1 86  1  0  0  0
  2  3  1  0  0  0
  2 25  1  0  0  0
  2 89  1  0  0  0
  2 90  1  0  0  0
  3  4  1  0  0  0
  3 91  1  0  0  0
  3 92  1  0  0  0
  4  5  1  0  0  0
  4 93  1  0  0  0
  4 94  1  0  0  0
  5  6  1  0  0  0
  5 26  1  0  0  0
  5 95  1  0  0  0
  6 25  1  0  0  0
  6 96  1  0  0  0
  6 97  1  0  0  0
  7  8  2  0  0  0
  7 26  1  0  0  0
  7 29  1  0  0  0
  8  9  1  0  0  0
  8 22  1  0  0  0
  9 10  1  0  0  0
  9 27  2  0  0  0
 10 11  2  0  0  0
 10 15  1  0  0  0
 11 12  1  0  0  0
 11 98  1  0  0  0
 12 13  2  0  0  0
 12 99  1  0  0  0
 13 14  1  0  0  0
 13 31  1  0  0  0
 14 15  2  0  0  0
 14100  1  0  0  0
 15101  1  0  0  0
 16 17  2  0  0  0
 16 21  1  0  0  0
 16 31  1  0  0  0
 17 18  1  0  0  0
 17102  1  0  0  0
 18 19  2  0  0  0
 18103  1  0  0  0
 19 20  1  0  0  0
 19 24  1  0  0  0
 20 21  2  0  0  0
 20104  1  0  0  0
 21 23  1  0  0  0
 22 28  1  0  0  0
 22 32  2  0  0  0
 26 27  1  0  0  0
 28105  1  0  0  0
 28106  1  0  0  0
 29107  1  0  0  0
 29108  1  0  0  0
 33 34  1  0  0  0
 33 66  1  0  0  0
 33 70  2  0  0  0
 34 36  1  0  0  0
 34 59  1  0  0  0
 34109  1  0  0  0
 35 44  2  0  0  0
 35 45  1  0  0  0
 35 68  1  0  0  0
 36 56  1  0  0  0
 36110  1  0  0  0
 37 39  1  0  0  0
 37 47  1  0  0  0
 37 66  1  0  0  0
 37111  1  0  0  0
 38 43  2  0  0  0
 38 46  1  0  0  0
 38 47  1  0  0  0
 39 64  1  0  0  0
 39 67  2  0  0  0
 40 52  1  0  0  0
 40 53  2  0  0  0
 40 58  1  0  0  0
 41112  1  0  0  0
 41113  1  0  0  0
 41114  1  0  0  0
 41 48  1  0  0  0
 42 43  1  0  0  0
 42 66  1  0  0  0
 42115  1  0  0  0
 42116  1  0  0  0
 43 44  1  0  0  0
 44117  1  0  0  0
 45 46  2  0  0  0
 45118  1  0  0  0
 46119  1  0  0  0
 47120  1  0  0  0
 47121  1  0  0  0
 48 56  1  0  0  0
 48 65  1  0  0  0
 48122  1  0  0  0
 49 50  1  0  0  0
 49 53  1  0  0  0
 49 64  1  0  0  0
 49123  1  0  0  0
 50 51  1  0  0  0
 50124  1  0  0  0
 50125  1  0  0  0
 51 52  1  0  0  0
 51126  1  0  0  0
 51127  1  0  0  0
 52128  1  0  0  0
 52129  1  0  0  0
 53 54  1  0  0  0
 54 55  2  0  0  0
 54130  1  0  0  0
 55 57  1  0  0  0
 55131  1  0  0  0
 56 69  2  0  0  0
 57 58  2  0  0  0
 57132  1  0  0  0
 58133  1  0  0  0
 59 60  1  0  0  0
 59 61  1  0  0  0
 59 62  1  0  0  0
 60134  1  0  0  0
 60135  1  0  0  0
 60136  1  0  0  0
 61137  1  0  0  0
 61138  1  0  0  0
 61139  1  0  0  0
 62140  1  0  0  0
 62141  1  0  0  0
 62142  1  0  0  0
 63 65  1  0  0  0
 63143  1  0  0  0
 63144  1  0  0  0
 63145  1  0  0  0
 64146  1  0  0  0
 65147  1  0  0  0
 68 84  1  0  0  0
 71 72  3  0  0  0
 71148  1  0  0  0
 72 81  1  0  0  0
 73 75  2  0  0  0
 73 77  1  0  0  0
 73149  1  0  0  0
 74 76  1  0  0  0
 74 77  2  0  0  0
 74150  1  0  0  0
 75 78  1  0  0  0
 75151  1  0  0  0
 76 78  2  0  0  0
 76152  1  0  0  0
 77 79  1  0  0  0
 78 86  1  0  0  0
 79 80  1  0  0  0
 79 88  2  0  0  0
 80 85  1  0  0  0
 80 87  2  0  0  0
 81 86  1  0  0  0
 81153  1  0  0  0
 81154  1  0  0  0
 82 83  1  0  0  0
 82 84  1  0  0  0
 82155  1  0  0  0
 82156  1  0  0  0
 83 87  1  0  0  0
 83157  1  0  0  0
 83158  1  0  0  0
 84159  1  0  0  0
 84160  1  0  0  0
 85161  1  0  0  0
 85162  1  0  0  0
 87163  1  0  0  0
M  CHG  1  87   1
M  ISO  4   1 100  68 101  84 101  86 100
M  END
> <chiral flag>
0

> <version>
0

> <s_m_source_file>
/data/baiqing/PycharmProjects/Reinvent-master-3.2/result/LINK_invent/BTK/process_docking_weight1_custom_sum_contain_oxygen_bond_distance_aromatic_linkinvent_7_9_3/rearranged_h_0003.sdf

> <i_m_source_file_index>
52

> <r_mmod_Potential_Energy-OPLS-2005>
3.60606813430786

> <r_mmod_Stretch_Energy-OPLS-2005>
39.7555351257324

> <r_mmod_Bend_Energy-OPLS-2005>
97.2292022705078

> <r_mmod_Torsional_Energy-OPLS-2005>
327.105773925781

> <r_mmod_Improper_Torsional_Energy-OPLS-2005>
3.69252371788025

> <r_mmod_Van_der_Waal_Energy-OPLS-2005>
156.88410949707

> <r_mmod_Electrostatic_Energy-OPLS-2005>
-136.430145263672

> <r_mmod_Solvation_Energy-OPLS-2005>
-491.571014404297

> <b_mmod_Minimization_Converged-OPLS-2005>
0

> <r_mmod_RMS_Derivative-OPLS-2005>
1.64173901081085

$$$$
53
                    3D
 Structure written by MMmdl.
154162  0  0  1  0            999 V2000
  -30.6507  -14.7739   20.5152 C   0  0  0  0  0  0
  -30.4254  -12.4972   19.4733 C   0  0  0  0  0  0
  -29.5065  -12.5199   18.2352 C   0  0  0  0  0  0
  -28.0368  -12.3276   18.6537 C   0  0  0  0  0  0
  -27.6346  -13.2402   19.8443 C   0  0  2  0  0  0
  -28.6807  -13.2137   20.9806 C   0  0  0  0  0  0
  -25.2482  -13.8209   20.5694 C   0  0  0  0  0  0
  -24.1787  -13.0437   20.9196 C   0  0  0  0  0  0
  -24.6386  -11.6917   20.8743 C   0  0  0  0  0  0
  -23.9058  -10.4292   21.0378 C   0  0  0  0  0  0
  -24.3606   -9.4211   21.9164 C   0  0  0  0  0  0
  -23.6289   -8.2241   22.0738 C   0  0  0  0  0  0
  -22.4282   -8.0264   21.3514 C   0  0  0  0  0  0
  -21.9900   -9.0235   20.4630 C   0  0  0  0  0  0
  -22.7222  -10.2124   20.3041 C   0  0  0  0  0  0
  -21.6851   -6.0721   22.5264 C   0  0  0  0  0  0
  -21.4018   -6.5621   23.8197 C   0  0  0  0  0  0
  -21.3675   -5.6778   24.9160 C   0  0  0  0  0  0
  -21.6057   -4.3045   24.7214 C   0  0  0  0  0  0
  -21.8821   -3.8128   23.4337 C   0  0  0  0  0  0
  -21.9193   -4.6946   22.3391 C   0  0  0  0  0  0
  -22.7808  -13.5216   21.1835 C   0  0  0  0  0  0
  -22.1664   -4.2131   21.0971 F   0  0  0  0  0  0
  -21.5632   -3.4538   25.7731 F   0  0  0  0  0  0
  -29.9709  -13.5777   20.3853 N   0  0  0  0  0  0
  -26.2908  -12.9429   20.3266 N   0  0  0  0  0  0
  -25.9320  -11.6559   20.5730 N   0  0  0  0  0  0
  -22.0468  -12.8220   22.0412 N   0  0  0  0  0  0
  -25.4147  -15.1941   20.4122 N   0  0  0  0  0  0
  -31.8382  -14.8138   20.1823 O   0  0  0  0  0  0
  -21.6642   -6.8867   21.4224 O   0  0  0  0  0  0
  -22.3478  -14.5515   20.6674 O   0  0  0  0  0  0
  -24.6345  -31.8545   23.1967 C   0  0  0  0  0  0
  -25.9153  -32.4754   23.8331 C   0  0  1  0  0  0
  -27.2172  -27.2388   20.1340 C   0  0  0  0  0  0
  -25.5929  -33.8555   24.2267 N   0  0  0  0  0  0
  -23.4326  -30.4788   21.5391 C   0  0  2  0  0  0
  -24.8798  -28.9264   20.1050 C   0  0  0  0  0  0
  -22.7527  -29.4615   22.4881 C   0  0  0  0  0  0
  -18.0307  -28.1392   22.8502 C   0  0  0  0  0  0
  -24.1479  -36.7288   23.2642 C   0  0  0  0  0  0
  -25.9804  -30.7625   21.3774 C   0  0  0  0  0  0
  -26.0521  -29.3821   20.7206 C   0  0  0  0  0  0
  -27.2225  -28.5518   20.7245 C   0  0  0  0  0  0
  -26.0257  -26.8684   19.4691 C   0  0  0  0  0  0
  -24.8763  -27.6794   19.4639 C   0  0  0  0  0  0
  -23.6517  -29.8147   20.1544 C   0  0  0  0  0  0
  -25.4101  -36.3077   24.0339 C   0  0  1  0  0  0
  -20.5920  -28.3712   23.1254 C   0  0  2  0  0  0
  -20.6783  -26.9418   22.5409 C   0  0  0  0  0  0
  -19.5740  -26.6396   21.5229 C   0  0  0  0  0  0
  -18.1936  -26.7938   22.1653 C   0  0  0  0  0  0
  -19.1560  -28.8870   23.2884 C   0  0  0  0  0  0
  -18.9471  -30.1472   23.8900 C   0  0  0  0  0  0
  -17.6460  -30.6589   24.0572 C   0  0  0  0  0  0
  -25.9046  -34.9440   23.5107 C   0  0  0  0  0  0
  -16.5361  -29.9082   23.6324 C   0  0  0  0  0  0
  -16.7294  -28.6504   23.0359 C   0  0  0  0  0  0
  -26.4498  -31.6571   25.0719 C   0  0  0  0  0  0
  -25.3720  -31.3724   26.1444 C   0  0  0  0  0  0
  -27.0336  -30.2988   24.6204 C   0  0  0  0  0  0
  -27.6047  -32.4322   25.7491 C   0  0  0  0  0  0
  -27.5575  -37.1805   24.8470 C   0  0  0  0  0  0
  -21.4230  -29.3064   22.3639 N   0  0  0  0  0  0
  -26.4277  -37.3776   23.9420 N   0  0  0  0  0  0
  -24.7021  -31.0506   22.0943 N   0  0  0  0  0  0
  -23.4225  -28.8154   23.2992 O   0  0  0  0  0  0
  -28.2919  -26.3113   20.2234 O   0  0  0  0  0  0
  -26.5627  -34.8915   22.4683 O   0  0  0  0  0  0
  -23.5494  -32.1368   23.7264 O   0  0  0  0  0  0
  -31.7071  -18.8362   23.6056 C   0  0  0  0  0  0
  -31.9595  -17.4692   23.6166 C   0  0  0  0  0  0
  -30.8634  -19.3712   22.6260 C   0  0  0  0  0  0
  -31.3626  -16.6526   22.6499 C   0  0  0  0  0  0
  -30.2364  -18.6071   21.5926 C   0  0  0  0  0  0
  -30.5060  -17.1282   21.6103 C   0  0  0  0  0  0
  -29.3538  -19.4995   20.6497 C   0  0  0  0  0  0
  -28.9677  -23.6130   20.5369 C   0  0  0  0  0  0
  -28.6216  -22.0535   20.1569 C   0  0  0  0  0  0
  -28.0245  -24.8334   20.0015 C   0  0  0  0  0  0
  -29.9830  -15.9718   20.8170 N   0  0  0  0  0  0
  -29.4212  -20.8965   20.7716 N   0  0  0  0  0  0
  -28.6035  -18.9688   19.8303 O   0  0  0  0  0  0
  -31.4630  -12.6211   19.1615 H   0  0  0  0  0  0
  -30.3811  -11.5295   19.9758 H   0  0  0  0  0  0
  -29.7985  -11.7406   17.5296 H   0  0  0  0  0  0
  -29.6184  -13.4704   17.7101 H   0  0  0  0  0  0
  -27.9099  -11.2806   18.9317 H   0  0  0  0  0  0
  -27.3754  -12.4953   17.8021 H   0  0  0  0  0  0
  -27.6175  -14.2545   19.4438 H   0  0  0  0  0  0
  -28.7347  -12.2286   21.4472 H   0  0  0  0  0  0
  -28.4046  -13.9143   21.7692 H   0  0  0  0  0  0
  -25.2752   -9.5701   22.4732 H   0  0  0  0  0  0
  -24.0000   -7.4648   22.7474 H   0  0  0  0  0  0
  -21.0824   -8.8750   19.8947 H   0  0  0  0  0  0
  -22.3663  -10.9653   19.6154 H   0  0  0  0  0  0
  -21.2011   -7.6128   23.9689 H   0  0  0  0  0  0
  -21.1498   -6.0511   25.9064 H   0  0  0  0  0  0
  -22.0591   -2.7591   23.2833 H   0  0  0  0  0  0
  -22.4094  -11.9919   22.4855 H   0  0  0  0  0  0
  -21.1068  -13.1216   22.2580 H   0  0  0  0  0  0
  -24.6388  -15.8415   20.5084 H   0  0  0  0  0  0
  -26.2602  -15.6400   20.0812 H   0  0  0  0  0  0
  -26.7222  -32.5401   23.1075 H   0  0  0  0  0  0
  -25.0034  -33.9682   25.0388 H   0  0  0  0  0  0
  -22.7285  -31.3013   21.3929 H   0  0  0  0  0  0
  -23.3733  -35.9629   23.3297 H   0  0  0  0  0  0
  -24.3581  -36.8922   22.2063 H   0  0  0  0  0  0
  -23.7236  -37.6487   23.6664 H   0  0  0  0  0  0
  -26.1202  -31.5194   20.6039 H   0  0  0  0  0  0
  -26.8586  -30.8159   22.0093 H   0  0  0  0  0  0
  -28.1134  -28.8947   21.2316 H   0  0  0  0  0  0
  -25.9504  -25.9197   18.9581 H   0  0  0  0  0  0
  -23.9857  -27.3301   18.9597 H   0  0  0  0  0  0
  -23.7750  -30.5908   19.3989 H   0  0  0  0  0  0
  -22.7682  -29.2508   19.8500 H   0  0  0  0  0  0
  -25.1281  -36.1923   25.0832 H   0  0  0  0  0  0
  -21.0051  -28.3293   24.1360 H   0  0  0  0  0  0
  -20.5685  -26.2326   23.3630 H   0  0  0  0  0  0
  -21.6645  -26.7429   22.1194 H   0  0  0  0  0  0
  -19.6877  -25.6314   21.1249 H   0  0  0  0  0  0
  -19.6645  -27.3212   20.6761 H   0  0  0  0  0  0
  -17.4203  -26.6719   21.4058 H   0  0  0  0  0  0
  -18.0305  -26.0071   22.9035 H   0  0  0  0  0  0
  -19.7938  -30.7309   24.2263 H   0  0  0  0  0  0
  -17.5004  -31.6258   24.5188 H   0  0  0  0  0  0
  -15.5359  -30.2983   23.7627 H   0  0  0  0  0  0
  -15.8707  -28.0820   22.7058 H   0  0  0  0  0  0
  -24.5904  -30.7056   25.7785 H   0  0  0  0  0  0
  -24.8885  -32.2884   26.4850 H   0  0  0  0  0  0
  -25.8046  -30.8926   27.0235 H   0  0  0  0  0  0
  -26.2912  -29.6742   24.1221 H   0  0  0  0  0  0
  -27.4000  -29.7254   25.4729 H   0  0  0  0  0  0
  -27.8797  -30.4260   23.9449 H   0  0  0  0  0  0
  -27.2648  -33.3647   26.2016 H   0  0  0  0  0  0
  -28.3861  -32.6861   25.0312 H   0  0  0  0  0  0
  -28.0688  -31.8477   26.5450 H   0  0  0  0  0  0
  -28.2598  -38.0099   24.7511 H   0  0  0  0  0  0
  -28.1066  -36.2636   24.6282 H   0  0  0  0  0  0
  -27.2303  -37.1436   25.8876 H   0  0  0  0  0  0
  -20.9414  -29.8805   21.6855 H   0  0  0  0  0  0
  -26.0154  -38.2852   24.1408 H   0  0  0  0  0  0
  -32.1505  -19.4763   24.3580 H   0  0  0  0  0  0
  -32.5959  -17.0405   24.3787 H   0  0  0  0  0  0
  -30.7103  -20.4348   22.7245 H   0  0  0  0  0  0
  -31.5813  -15.6007   22.7632 H   0  0  0  0  0  0
  -29.9888  -23.8180   20.2138 H   0  0  0  0  0  0
  -28.9956  -23.6872   21.6236 H   0  0  0  0  0  0
  -28.6850  -21.9460   19.0736 H   0  0  0  0  0  0
  -27.5726  -21.8744   20.3982 H   0  0  0  0  0  0
  -27.0401  -24.6216   20.4218 H   0  0  0  0  0  0
  -27.9237  -24.7014   18.9234 H   0  0  0  0  0  0
  -28.9810  -15.9533   20.7013 H   0  0  0  0  0  0
  -30.1060  -21.1990   21.4500 H   0  0  0  0  0  0
  1 25  1  0  0  0
  1 30  2  0  0  0
  1 81  1  0  0  0
  2  3  1  0  0  0
  2 25  1  0  0  0
  2 84  1  0  0  0
  2 85  1  0  0  0
  3  4  1  0  0  0
  3 86  1  0  0  0
  3 87  1  0  0  0
  4  5  1  0  0  0
  4 88  1  0  0  0
  4 89  1  0  0  0
  5  6  1  0  0  0
  5 26  1  0  0  0
  5 90  1  0  0  0
  6 25  1  0  0  0
  6 91  1  0  0  0
  6 92  1  0  0  0
  7  8  2  0  0  0
  7 26  1  0  0  0
  7 29  1  0  0  0
  8  9  1  0  0  0
  8 22  1  0  0  0
  9 10  1  0  0  0
  9 27  2  0  0  0
 10 11  2  0  0  0
 10 15  1  0  0  0
 11 12  1  0  0  0
 11 93  1  0  0  0
 12 13  2  0  0  0
 12 94  1  0  0  0
 13 14  1  0  0  0
 13 31  1  0  0  0
 14 15  2  0  0  0
 14 95  1  0  0  0
 15 96  1  0  0  0
 16 17  2  0  0  0
 16 21  1  0  0  0
 16 31  1  0  0  0
 17 18  1  0  0  0
 17 97  1  0  0  0
 18 19  2  0  0  0
 18 98  1  0  0  0
 19 20  1  0  0  0
 19 24  1  0  0  0
 20 21  2  0  0  0
 20 99  1  0  0  0
 21 23  1  0  0  0
 22 28  1  0  0  0
 22 32  2  0  0  0
 26 27  1  0  0  0
 28100  1  0  0  0
 28101  1  0  0  0
 29102  1  0  0  0
 29103  1  0  0  0
 33 34  1  0  0  0
 33 66  1  0  0  0
 33 70  2  0  0  0
 34 36  1  0  0  0
 34 59  1  0  0  0
 34104  1  0  0  0
 35 44  2  0  0  0
 35 45  1  0  0  0
 35 68  1  0  0  0
 36 56  1  0  0  0
 36105  1  0  0  0
 37 39  1  0  0  0
 37 47  1  0  0  0
 37 66  1  0  0  0
 37106  1  0  0  0
 38 43  2  0  0  0
 38 46  1  0  0  0
 38 47  1  0  0  0
 39 64  1  0  0  0
 39 67  2  0  0  0
 40 52  1  0  0  0
 40 53  2  0  0  0
 40 58  1  0  0  0
 41107  1  0  0  0
 41108  1  0  0  0
 41109  1  0  0  0
 41 48  1  0  0  0
 42 43  1  0  0  0
 42 66  1  0  0  0
 42110  1  0  0  0
 42111  1  0  0  0
 43 44  1  0  0  0
 44112  1  0  0  0
 45 46  2  0  0  0
 45113  1  0  0  0
 46114  1  0  0  0
 47115  1  0  0  0
 47116  1  0  0  0
 48 56  1  0  0  0
 48 65  1  0  0  0
 48117  1  0  0  0
 49 50  1  0  0  0
 49 53  1  0  0  0
 49 64  1  0  0  0
 49118  1  0  0  0
 50 51  1  0  0  0
 50119  1  0  0  0
 50120  1  0  0  0
 51 52  1  0  0  0
 51121  1  0  0  0
 51122  1  0  0  0
 52123  1  0  0  0
 52124  1  0  0  0
 53 54  1  0  0  0
 54 55  2  0  0  0
 54125  1  0  0  0
 55 57  1  0  0  0
 55126  1  0  0  0
 56 69  2  0  0  0
 57 58  2  0  0  0
 57127  1  0  0  0
 58128  1  0  0  0
 59 60  1  0  0  0
 59 61  1  0  0  0
 59 62  1  0  0  0
 60129  1  0  0  0
 60130  1  0  0  0
 60131  1  0  0  0
 61132  1  0  0  0
 61133  1  0  0  0
 61134  1  0  0  0
 62135  1  0  0  0
 62136  1  0  0  0
 62137  1  0  0  0
 63 65  1  0  0  0
 63138  1  0  0  0
 63139  1  0  0  0
 63140  1  0  0  0
 64141  1  0  0  0
 65142  1  0  0  0
 68 80  1  0  0  0
 71 72  2  0  0  0
 71 73  1  0  0  0
 71143  1  0  0  0
 72 74  1  0  0  0
 72144  1  0  0  0
 73 75  2  0  0  0
 73145  1  0  0  0
 74 76  2  0  0  0
 74146  1  0  0  0
 75 76  1  0  0  0
 75 77  1  0  0  0
 76 81  1  0  0  0
 77 82  1  0  0  0
 77 83  2  0  0  0
 78 79  1  0  0  0
 78 80  1  0  0  0
 78147  1  0  0  0
 78148  1  0  0  0
 79 82  1  0  0  0
 79149  1  0  0  0
 79150  1  0  0  0
 80151  1  0  0  0
 80152  1  0  0  0
 81153  1  0  0  0
 82154  1  0  0  0
M  ISO  4   1 100  68 101  80 101  81 100
M  END
> <chiral flag>
0

> <version>
0

> <s_m_source_file>
/data/baiqing/PycharmProjects/Reinvent-master-3.2/result/LINK_invent/BTK/process_docking_weight1_custom_sum_contain_oxygen_bond_distance_aromatic_linkinvent_7_9_3/rearranged_h_0003.sdf

> <i_m_source_file_index>
53

> <r_mmod_Potential_Energy-OPLS-2005>
306.884368896484

> <r_mmod_Stretch_Energy-OPLS-2005>
166.90022277832

> <r_mmod_Bend_Energy-OPLS-2005>
218.487442016602

> <r_mmod_Torsional_Energy-OPLS-2005>
236.863693237305

> <r_mmod_Improper_Torsional_Energy-OPLS-2005>
5.19521760940552

> <r_mmod_Van_der_Waal_Energy-OPLS-2005>
155.840896606445

> <r_mmod_Electrostatic_Energy-OPLS-2005>
-346.000762939453

> <r_mmod_Solvation_Energy-OPLS-2005>
-233.578323364258

> <b_mmod_Minimization_Converged-OPLS-2005>
0

> <r_mmod_RMS_Derivative-OPLS-2005>
2.64270067214966

$$$$
54
                    3D
 Structure written by MMmdl.
168175  0  0  1  0            999 V2000
  -30.7007  -14.3982   20.5963 C   0  0  0  0  0  0
  -30.4257  -12.2796   19.3783 C   0  0  0  0  0  0
  -29.4792  -12.5087   18.1804 C   0  0  0  0  0  0
  -27.9955  -12.3971   18.5969 C   0  0  0  0  0  0
  -27.6672  -13.1910   19.8909 C   0  0  2  0  0  0
  -28.7151  -12.8614   20.9761 C   0  0  0  0  0  0
  -25.2586  -13.8118   20.5664 C   0  0  0  0  0  0
  -24.1815  -13.0424   20.9145 C   0  0  0  0  0  0
  -24.6372  -11.6884   20.8766 C   0  0  0  0  0  0
  -23.9033  -10.4278   21.0454 C   0  0  0  0  0  0
  -24.3570   -9.4186   21.9241 C   0  0  0  0  0  0
  -23.6237   -8.2218   22.0760 C   0  0  0  0  0  0
  -22.4225   -8.0248   21.3537 C   0  0  0  0  0  0
  -21.9892   -9.0224   20.4639 C   0  0  0  0  0  0
  -22.7226  -10.2114   20.3071 C   0  0  0  0  0  0
  -21.6819   -6.0699   22.5294 C   0  0  0  0  0  0
  -21.4025   -6.5625   23.8231 C   0  0  0  0  0  0
  -21.3658   -5.6778   24.9188 C   0  0  0  0  0  0
  -21.6028   -4.3038   24.7244 C   0  0  0  0  0  0
  -21.8828   -3.8127   23.4377 C   0  0  0  0  0  0
  -21.9193   -4.6930   22.3416 C   0  0  0  0  0  0
  -22.7835  -13.5236   21.1721 C   0  0  0  0  0  0
  -22.1646   -4.2115   21.0989 F   0  0  0  0  0  0
  -21.5610   -3.4533   25.7762 F   0  0  0  0  0  0
  -30.0364  -13.2208   20.4384 N   0  0  0  0  0  0
  -26.3048  -12.9268   20.3473 N   0  0  0  0  0  0
  -25.9300  -11.6436   20.5838 N   0  0  0  0  0  0
  -22.0340  -12.8174   22.0098 N   0  0  0  0  0  0
  -25.4314  -15.1812   20.3989 N   0  0  0  0  0  0
  -31.8164  -14.6115   20.1171 O   0  0  0  0  0  0
  -21.6602   -6.8831   21.4248 O   0  0  0  0  0  0
  -22.3601  -14.5608   20.6613 O   0  0  0  0  0  0
  -24.6115  -31.8706   23.2135 C   0  0  0  0  0  0
  -25.9028  -32.4855   23.8409 C   0  0  1  0  0  0
  -27.2442  -27.4803   20.0815 C   0  0  0  0  0  0
  -25.5892  -33.8646   24.2341 N   0  0  0  0  0  0
  -23.3956  -30.4974   21.5522 C   0  0  2  0  0  0
  -24.8419  -28.9702   20.1147 C   0  0  0  0  0  0
  -22.7378  -29.4691   22.4999 C   0  0  0  0  0  0
  -18.0253  -28.1346   22.8492 C   0  0  0  0  0  0
  -24.1475  -36.7329   23.2632 C   0  0  0  0  0  0
  -25.9189  -30.8527   21.3566 C   0  0  0  0  0  0
  -25.9961  -29.4863   20.7136 C   0  0  0  0  0  0
  -27.1930  -28.7406   20.7121 C   0  0  0  0  0  0
  -26.0769  -26.9904   19.4500 C   0  0  0  0  0  0
  -24.8714  -27.7148   19.4875 C   0  0  0  0  0  0
  -23.6015  -29.8282   20.1678 C   0  0  0  0  0  0
  -25.4098  -36.3125   24.0331 C   0  0  1  0  0  0
  -20.5848  -28.3617   23.1285 C   0  0  2  0  0  0
  -20.6751  -26.9346   22.5407 C   0  0  0  0  0  0
  -19.5702  -26.6273   21.5252 C   0  0  0  0  0  0
  -18.1893  -26.7871   22.1660 C   0  0  0  0  0  0
  -19.1515  -28.8802   23.2873 C   0  0  0  0  0  0
  -18.9474  -30.1414   23.8873 C   0  0  0  0  0  0
  -17.6490  -30.6574   24.0527 C   0  0  0  0  0  0
  -25.9005  -34.9494   23.5124 C   0  0  0  0  0  0
  -16.5368  -29.9103   23.6291 C   0  0  0  0  0  0
  -16.7269  -28.6508   23.0325 C   0  0  0  0  0  0
  -26.4466  -31.6607   25.0714 C   0  0  0  0  0  0
  -25.3753  -31.3717   26.1489 C   0  0  0  0  0  0
  -27.0278  -30.3052   24.6025 C   0  0  0  0  0  0
  -27.6021  -32.4317   25.7498 C   0  0  0  0  0  0
  -27.5558  -37.1819   24.8451 C   0  0  0  0  0  0
  -21.4113  -29.3003   22.3698 N   0  0  0  0  0  0
  -26.4279  -37.3814   23.9399 N   0  0  0  0  0  0
  -24.6606  -31.0867   22.1001 N   0  0  0  0  0  0
  -23.4180  -28.8226   23.3013 O   0  0  0  0  0  0
  -28.4437  -26.7945   20.1319 O   0  0  0  0  0  0
  -26.5538  -34.8936   22.4661 O   0  0  0  0  0  0
  -23.5312  -32.1433   23.7538 O   0  0  0  0  0  0
  -27.6956  -24.4728   20.4450 C   0  0  0  0  0  0
  -28.5543  -25.4573   19.6321 C   0  0  0  0  0  0
  -24.9404  -19.1682   22.1526 C   0  0  0  0  0  0
  -26.4489  -19.3057   21.8784 C   0  0  0  0  0  0
  -24.2527  -20.4743   22.6081 C   0  0  0  0  0  0
  -27.1805  -17.9690   21.7073 C   0  0  0  0  0  0
  -24.2154  -21.5888   21.5479 C   0  0  0  0  0  0
  -28.7157  -18.1232   21.7086 C   0  0  0  0  0  0
  -25.4840  -22.4629   21.4564 C   0  0  0  0  0  0
  -29.4290  -17.1474   22.6641 C   0  0  0  0  0  0
  -25.6182  -23.0583   20.0435 C   0  0  0  0  0  0
  -29.3088  -15.6743   22.2462 C   0  0  0  0  0  0
  -26.8837  -23.7064   19.7050 N   0  0  0  0  0  0
  -29.9654  -15.4559   20.9607 N   0  0  0  0  0  0
  -27.7113  -24.4799   21.6776 O   0  0  0  0  0  0
  -31.4632  -12.4030   19.0639 H   0  0  0  0  0  0
  -30.3494  -11.2513   19.7337 H   0  0  0  0  0  0
  -29.6954  -11.7920   17.3867 H   0  0  0  0  0  0
  -29.6638  -13.4967   17.7551 H   0  0  0  0  0  0
  -27.7680  -11.3413   18.7446 H   0  0  0  0  0  0
  -27.3522  -12.7320   17.7826 H   0  0  0  0  0  0
  -27.7389  -14.2530   19.6552 H   0  0  0  0  0  0
  -28.6956  -11.7905   21.1848 H   0  0  0  0  0  0
  -28.4916  -13.3118   21.9363 H   0  0  0  0  0  0
  -25.2709   -9.5644   22.4856 H   0  0  0  0  0  0
  -23.9919   -7.4600   22.7475 H   0  0  0  0  0  0
  -21.0847   -8.8758   19.8903 H   0  0  0  0  0  0
  -22.3700  -10.9658   19.6171 H   0  0  0  0  0  0
  -21.2024   -7.6139   23.9741 H   0  0  0  0  0  0
  -21.1460   -6.0492   25.9086 H   0  0  0  0  0  0
  -22.0605   -2.7592   23.2888 H   0  0  0  0  0  0
  -22.3782  -11.9647   22.4257 H   0  0  0  0  0  0
  -21.0915  -13.1193   22.2128 H   0  0  0  0  0  0
  -24.6762  -15.8461   20.5267 H   0  0  0  0  0  0
  -26.2993  -15.6105   20.1070 H   0  0  0  0  0  0
  -26.7118  -32.5600   23.1203 H   0  0  0  0  0  0
  -25.0160  -33.9834   25.0569 H   0  0  0  0  0  0
  -22.6858  -31.3158   21.4136 H   0  0  0  0  0  0
  -23.3726  -35.9672   23.3309 H   0  0  0  0  0  0
  -24.3570  -36.8933   22.2041 H   0  0  0  0  0  0
  -23.7238  -37.6548   23.6624 H   0  0  0  0  0  0
  -26.0037  -31.6132   20.5774 H   0  0  0  0  0  0
  -26.8193  -30.9263   21.9554 H   0  0  0  0  0  0
  -28.0797  -29.1330   21.1893 H   0  0  0  0  0  0
  -26.0688  -26.0563   18.9137 H   0  0  0  0  0  0
  -23.9882  -27.3145   19.0122 H   0  0  0  0  0  0
  -23.7096  -30.6008   19.4061 H   0  0  0  0  0  0
  -22.7308  -29.2416   19.8707 H   0  0  0  0  0  0
  -25.1281  -36.2006   25.0826 H   0  0  0  0  0  0
  -20.9956  -28.3209   24.1395 H   0  0  0  0  0  0
  -20.5666  -26.2276   23.3646 H   0  0  0  0  0  0
  -21.6631  -26.7391   22.1188 H   0  0  0  0  0  0
  -19.6863  -25.6154   21.1349 H   0  0  0  0  0  0
  -19.6630  -27.3014   20.6731 H   0  0  0  0  0  0
  -17.4178  -26.6608   21.4047 H   0  0  0  0  0  0
  -18.0243  -26.0033   22.9059 H   0  0  0  0  0  0
  -19.7978  -30.7198   24.2234 H   0  0  0  0  0  0
  -17.5082  -31.6275   24.5095 H   0  0  0  0  0  0
  -15.5380  -30.3045   23.7575 H   0  0  0  0  0  0
  -15.8655  -28.0858   22.7038 H   0  0  0  0  0  0
  -24.5914  -30.7061   25.7848 H   0  0  0  0  0  0
  -24.8987  -32.2905   26.4909 H   0  0  0  0  0  0
  -25.8162  -30.8917   27.0242 H   0  0  0  0  0  0
  -26.2822  -29.6847   24.1042 H   0  0  0  0  0  0
  -27.4038  -29.7225   25.4437 H   0  0  0  0  0  0
  -27.8642  -30.4367   23.9161 H   0  0  0  0  0  0
  -27.2598  -33.3583   26.2099 H   0  0  0  0  0  0
  -28.3841  -32.6930   25.0363 H   0  0  0  0  0  0
  -28.0667  -31.8435   26.5415 H   0  0  0  0  0  0
  -28.2596  -38.0091   24.7506 H   0  0  0  0  0  0
  -28.1032  -36.2633   24.6288 H   0  0  0  0  0  0
  -27.2261  -37.1499   25.8847 H   0  0  0  0  0  0
  -20.9264  -29.8791   21.6995 H   0  0  0  0  0  0
  -26.0163  -38.2880   24.1450 H   0  0  0  0  0  0
  -29.5979  -25.1458   19.7057 H   0  0  0  0  0  0
  -28.3023  -25.4273   18.5724 H   0  0  0  0  0  0
  -24.7844  -18.4210   22.9333 H   0  0  0  0  0  0
  -24.4410  -18.7737   21.2675 H   0  0  0  0  0  0
  -26.9037  -19.8542   22.7059 H   0  0  0  0  0  0
  -26.6051  -19.8949   20.9733 H   0  0  0  0  0  0
  -24.6947  -20.8441   23.5331 H   0  0  0  0  0  0
  -23.2197  -20.2246   22.8556 H   0  0  0  0  0  0
  -26.8681  -17.5042   20.7715 H   0  0  0  0  0  0
  -26.8684  -17.2860   22.5006 H   0  0  0  0  0  0
  -23.3709  -22.2490   21.7560 H   0  0  0  0  0  0
  -23.9892  -21.1372   20.5822 H   0  0  0  0  0  0
  -28.9894  -19.1382   21.9974 H   0  0  0  0  0  0
  -29.0963  -18.0147   20.6918 H   0  0  0  0  0  0
  -26.3847  -21.9073   21.7012 H   0  0  0  0  0  0
  -25.4237  -23.2540   22.2060 H   0  0  0  0  0  0
  -29.0224  -17.2738   23.6688 H   0  0  0  0  0  0
  -30.4852  -17.4167   22.7387 H   0  0  0  0  0  0
  -24.8049  -23.7612   19.8562 H   0  0  0  0  0  0
  -25.4982  -22.2609   19.3114 H   0  0  0  0  0  0
  -28.2523  -15.4166   22.1731 H   0  0  0  0  0  0
  -29.7454  -15.0339   23.0159 H   0  0  0  0  0  0
  -27.0565  -23.7740   18.7098 H   0  0  0  0  0  0
  -30.3535  -16.3103   20.5909 H   0  0  0  0  0  0
  1 25  1  0  0  0
  1 30  2  0  0  0
  1 84  1  0  0  0
  2  3  1  0  0  0
  2 25  1  0  0  0
  2 86  1  0  0  0
  2 87  1  0  0  0
  3  4  1  0  0  0
  3 88  1  0  0  0
  3 89  1  0  0  0
  4  5  1  0  0  0
  4 90  1  0  0  0
  4 91  1  0  0  0
  5  6  1  0  0  0
  5 26  1  0  0  0
  5 92  1  0  0  0
  6 25  1  0  0  0
  6 93  1  0  0  0
  6 94  1  0  0  0
  7  8  2  0  0  0
  7 26  1  0  0  0
  7 29  1  0  0  0
  8  9  1  0  0  0
  8 22  1  0  0  0
  9 10  1  0  0  0
  9 27  2  0  0  0
 10 11  2  0  0  0
 10 15  1  0  0  0
 11 12  1  0  0  0
 11 95  1  0  0  0
 12 13  2  0  0  0
 12 96  1  0  0  0
 13 14  1  0  0  0
 13 31  1  0  0  0
 14 15  2  0  0  0
 14 97  1  0  0  0
 15 98  1  0  0  0
 16 17  2  0  0  0
 16 21  1  0  0  0
 16 31  1  0  0  0
 17 18  1  0  0  0
 17 99  1  0  0  0
 18 19  2  0  0  0
 18100  1  0  0  0
 19 20  1  0  0  0
 19 24  1  0  0  0
 20 21  2  0  0  0
 20101  1  0  0  0
 21 23  1  0  0  0
 22 28  1  0  0  0
 22 32  2  0  0  0
 26 27  1  0  0  0
 28102  1  0  0  0
 28103  1  0  0  0
 29104  1  0  0  0
 29105  1  0  0  0
 33 34  1  0  0  0
 33 66  1  0  0  0
 33 70  2  0  0  0
 34 36  1  0  0  0
 34 59  1  0  0  0
 34106  1  0  0  0
 35 44  2  0  0  0
 35 45  1  0  0  0
 35 68  1  0  0  0
 36 56  1  0  0  0
 36107  1  0  0  0
 37 39  1  0  0  0
 37 47  1  0  0  0
 37 66  1  0  0  0
 37108  1  0  0  0
 38 43  2  0  0  0
 38 46  1  0  0  0
 38 47  1  0  0  0
 39 64  1  0  0  0
 39 67  2  0  0  0
 40 52  1  0  0  0
 40 53  2  0  0  0
 40 58  1  0  0  0
 41109  1  0  0  0
 41110  1  0  0  0
 41111  1  0  0  0
 41 48  1  0  0  0
 42 43  1  0  0  0
 42 66  1  0  0  0
 42112  1  0  0  0
 42113  1  0  0  0
 43 44  1  0  0  0
 44114  1  0  0  0
 45 46  2  0  0  0
 45115  1  0  0  0
 46116  1  0  0  0
 47117  1  0  0  0
 47118  1  0  0  0
 48 56  1  0  0  0
 48 65  1  0  0  0
 48119  1  0  0  0
 49 50  1  0  0  0
 49 53  1  0  0  0
 49 64  1  0  0  0
 49120  1  0  0  0
 50 51  1  0  0  0
 50121  1  0  0  0
 50122  1  0  0  0
 51 52  1  0  0  0
 51123  1  0  0  0
 51124  1  0  0  0
 52125  1  0  0  0
 52126  1  0  0  0
 53 54  1  0  0  0
 54 55  2  0  0  0
 54127  1  0  0  0
 55 57  1  0  0  0
 55128  1  0  0  0
 56 69  2  0  0  0
 57 58  2  0  0  0
 57129  1  0  0  0
 58130  1  0  0  0
 59 60  1  0  0  0
 59 61  1  0  0  0
 59 62  1  0  0  0
 60131  1  0  0  0
 60132  1  0  0  0
 60133  1  0  0  0
 61134  1  0  0  0
 61135  1  0  0  0
 61136  1  0  0  0
 62137  1  0  0  0
 62138  1  0  0  0
 62139  1  0  0  0
 63 65  1  0  0  0
 63140  1  0  0  0
 63141  1  0  0  0
 63142  1  0  0  0
 64143  1  0  0  0
 65144  1  0  0  0
 68 72  1  0  0  0
 71 72  1  0  0  0
 71 83  1  0  0  0
 71 85  2  0  0  0
 72145  1  0  0  0
 72146  1  0  0  0
 73 74  1  0  0  0
 73 75  1  0  0  0
 73147  1  0  0  0
 73148  1  0  0  0
 74 76  1  0  0  0
 74149  1  0  0  0
 74150  1  0  0  0
 75 77  1  0  0  0
 75151  1  0  0  0
 75152  1  0  0  0
 76 78  1  0  0  0
 76153  1  0  0  0
 76154  1  0  0  0
 77 79  1  0  0  0
 77155  1  0  0  0
 77156  1  0  0  0
 78 80  1  0  0  0
 78157  1  0  0  0
 78158  1  0  0  0
 79 81  1  0  0  0
 79159  1  0  0  0
 79160  1  0  0  0
 80 82  1  0  0  0
 80161  1  0  0  0
 80162  1  0  0  0
 81 83  1  0  0  0
 81163  1  0  0  0
 81164  1  0  0  0
 82 84  1  0  0  0
 82165  1  0  0  0
 82166  1  0  0  0
 83167  1  0  0  0
 84168  1  0  0  0
M  ISO  4   1 100  68 101  72 101  84 100
M  END
> <chiral flag>
0

> <version>
0

> <s_m_source_file>
/data/baiqing/PycharmProjects/Reinvent-master-3.2/result/LINK_invent/BTK/process_docking_weight1_custom_sum_contain_oxygen_bond_distance_aromatic_linkinvent_7_9_3/rearranged_h_0003.sdf

> <i_m_source_file_index>
54

> <r_mmod_Potential_Energy-OPLS-2005>
-4.7155327796936

> <r_mmod_Stretch_Energy-OPLS-2005>
31.9356899261475

> <r_mmod_Bend_Energy-OPLS-2005>
127.280784606934

> <r_mmod_Torsional_Energy-OPLS-2005>
273.534851074219

> <r_mmod_Improper_Torsional_Energy-OPLS-2005>
14.3035373687744

> <r_mmod_Van_der_Waal_Energy-OPLS-2005>
140.090194702148

> <r_mmod_Electrostatic_Energy-OPLS-2005>
-374.083648681641

> <r_mmod_Solvation_Energy-OPLS-2005>
-229.081436157227

> <b_mmod_Minimization_Converged-OPLS-2005>
0

> <r_mmod_RMS_Derivative-OPLS-2005>
3.85471296310425

$$$$
55
                    3D
 Structure written by MMmdl.
161169  0  0  1  0            999 V2000
  -30.6990  -14.3967   20.6397 C   0  0  0  0  0  0
  -30.4284  -12.2847   19.3979 C   0  0  0  0  0  0
  -29.4919  -12.5272   18.1958 C   0  0  0  0  0  0
  -28.0121  -12.3858   18.6059 C   0  0  0  0  0  0
  -27.6699  -13.1942   19.8852 C   0  0  2  0  0  0
  -28.7041  -12.9020   20.9943 C   0  0  0  0  0  0
  -25.2618  -13.8139   20.5653 C   0  0  0  0  0  0
  -24.1848  -13.0435   20.9143 C   0  0  0  0  0  0
  -24.6382  -11.6894   20.8713 C   0  0  0  0  0  0
  -23.9044  -10.4289   21.0397 C   0  0  0  0  0  0
  -24.3602   -9.4213   21.9178 C   0  0  0  0  0  0
  -23.6282   -8.2248   22.0754 C   0  0  0  0  0  0
  -22.4267   -8.0281   21.3542 C   0  0  0  0  0  0
  -21.9897   -9.0250   20.4646 C   0  0  0  0  0  0
  -22.7218  -10.2130   20.3049 C   0  0  0  0  0  0
  -21.6849   -6.0729   22.5280 C   0  0  0  0  0  0
  -21.4013   -6.5635   23.8213 C   0  0  0  0  0  0
  -21.3659   -5.6791   24.9175 C   0  0  0  0  0  0
  -21.6046   -4.3054   24.7228 C   0  0  0  0  0  0
  -21.8819   -3.8143   23.4350 C   0  0  0  0  0  0
  -21.9193   -4.6958   22.3404 C   0  0  0  0  0  0
  -22.7877  -13.5249   21.1822 C   0  0  0  0  0  0
  -22.1661   -4.2142   21.0982 F   0  0  0  0  0  0
  -21.5632   -3.4540   25.7741 F   0  0  0  0  0  0
  -30.0479  -13.2171   20.4689 N   0  0  0  0  0  0
  -26.3054  -12.9284   20.3376 N   0  0  0  0  0  0
  -25.9303  -11.6456   20.5736 N   0  0  0  0  0  0
  -22.0514  -12.8243   22.0380 N   0  0  0  0  0  0
  -25.4381  -15.1854   20.4070 N   0  0  0  0  0  0
  -31.7599  -14.6767   20.0698 O   0  0  0  0  0  0
  -21.6636   -6.8874   21.4239 O   0  0  0  0  0  0
  -22.3570  -14.5562   20.6678 O   0  0  0  0  0  0
  -24.6085  -31.8695   23.2113 C   0  0  0  0  0  0
  -25.9006  -32.4826   23.8391 C   0  0  1  0  0  0
  -27.2403  -27.4694   20.0953 C   0  0  0  0  0  0
  -25.5882  -33.8628   24.2326 N   0  0  0  0  0  0
  -23.3943  -30.4916   21.5502 C   0  0  2  0  0  0
  -24.8405  -28.9540   20.1177 C   0  0  0  0  0  0
  -22.7373  -29.4652   22.4995 C   0  0  0  0  0  0
  -18.0274  -28.1359   22.8496 C   0  0  0  0  0  0
  -24.1481  -36.7310   23.2641 C   0  0  0  0  0  0
  -25.9167  -30.8472   21.3554 C   0  0  0  0  0  0
  -25.9945  -29.4821   20.7072 C   0  0  0  0  0  0
  -27.1962  -28.7470   20.6896 C   0  0  0  0  0  0
  -26.0692  -26.9380   19.5113 C   0  0  0  0  0  0
  -24.8702  -27.6803   19.5191 C   0  0  0  0  0  0
  -23.6004  -29.8172   20.1654 C   0  0  0  0  0  0
  -25.4100  -36.3103   24.0338 C   0  0  1  0  0  0
  -20.5862  -28.3633   23.1322 C   0  0  2  0  0  0
  -20.6749  -26.9369   22.5412 C   0  0  0  0  0  0
  -19.5727  -26.6372   21.5202 C   0  0  0  0  0  0
  -18.1911  -26.7905   22.1626 C   0  0  0  0  0  0
  -19.1524  -28.8810   23.2920 C   0  0  0  0  0  0
  -18.9453  -30.1423   23.8917 C   0  0  0  0  0  0
  -17.6458  -30.6570   24.0555 C   0  0  0  0  0  0
  -25.9022  -34.9473   23.5122 C   0  0  0  0  0  0
  -16.5348  -29.9073   23.6320 C   0  0  0  0  0  0
  -16.7269  -28.6493   23.0339 C   0  0  0  0  0  0
  -26.4457  -31.6604   25.0706 C   0  0  0  0  0  0
  -25.3728  -31.3711   26.1459 C   0  0  0  0  0  0
  -27.0287  -30.3064   24.6046 C   0  0  0  0  0  0
  -27.6035  -32.4325   25.7455 C   0  0  0  0  0  0
  -27.5576  -37.1802   24.8466 C   0  0  0  0  0  0
  -21.4109  -29.3012   22.3735 N   0  0  0  0  0  0
  -26.4288  -37.3785   23.9408 N   0  0  0  0  0  0
  -24.6581  -31.0826   22.0986 N   0  0  0  0  0  0
  -23.4162  -28.8194   23.3019 O   0  0  0  0  0  0
  -28.4486  -26.8197   20.0901 O   0  0  0  0  0  0
  -26.5590  -34.8917   22.4684 O   0  0  0  0  0  0
  -23.5287  -32.1433   23.7535 O   0  0  0  0  0  0
  -28.9648  -18.6825   22.3148 C   0  0  0  0  0  0
  -29.2487  -17.3084   22.4124 C   0  0  0  0  0  0
  -29.3342  -19.4058   21.1651 C   0  0  0  0  0  0
  -30.2905  -17.3814   20.2130 C   0  0  0  0  0  0
  -29.9114  -16.6433   21.3616 C   0  0  0  0  0  0
  -30.0136  -18.7608   20.1037 C   0  0  0  0  0  0
  -31.4588  -23.2492   20.9867 C   0  0  0  0  0  0
  -31.8515  -21.7996   20.6966 C   0  0  0  0  0  0
  -31.7286  -21.4078   19.2090 C   0  0  0  0  0  0
  -29.8314  -25.0676   20.7546 C   0  0  0  0  0  0
  -30.3811  -20.7884   18.7869 C   0  0  0  0  0  0
  -28.4862  -25.3996   20.0901 C   0  0  0  0  0  0
  -30.0925  -15.2384   21.4904 N   0  0  0  0  0  0
  -30.2509  -23.6788   20.5984 N   0  0  0  0  0  0
  -32.2597  -23.9858   21.5668 O   0  0  0  0  0  0
  -30.4081  -19.3686   18.9305 O   0  0  0  0  0  0
  -31.4710  -12.4010   19.0958 H   0  0  0  0  0  0
  -30.3376  -11.2561   19.7504 H   0  0  0  0  0  0
  -29.7246  -11.8305   17.3890 H   0  0  0  0  0  0
  -29.6649  -13.5265   17.7933 H   0  0  0  0  0  0
  -27.8096  -11.3267   18.7701 H   0  0  0  0  0  0
  -27.3649  -12.6931   17.7838 H   0  0  0  0  0  0
  -27.7380  -14.2521   19.6312 H   0  0  0  0  0  0
  -28.6666  -11.8465   21.2672 H   0  0  0  0  0  0
  -28.4478  -13.4345   21.9105 H   0  0  0  0  0  0
  -25.2752   -9.5691   22.4746 H   0  0  0  0  0  0
  -23.9996   -7.4641   22.7470 H   0  0  0  0  0  0
  -21.0833   -8.8765   19.8948 H   0  0  0  0  0  0
  -22.3683  -10.9664   19.6153 H   0  0  0  0  0  0
  -21.2004   -7.6144   23.9713 H   0  0  0  0  0  0
  -21.1481   -6.0522   25.9078 H   0  0  0  0  0  0
  -22.0599   -2.7604   23.2853 H   0  0  0  0  0  0
  -22.4125  -11.9904   22.4769 H   0  0  0  0  0  0
  -21.1132  -13.1271   22.2575 H   0  0  0  0  0  0
  -24.6777  -15.8471   20.5191 H   0  0  0  0  0  0
  -26.3036  -15.6217   20.1139 H   0  0  0  0  0  0
  -26.7070  -32.5552   23.1156 H   0  0  0  0  0  0
  -25.0032  -33.9782   25.0467 H   0  0  0  0  0  0
  -22.6829  -31.3083   21.4097 H   0  0  0  0  0  0
  -23.3731  -35.9653   23.3322 H   0  0  0  0  0  0
  -24.3599  -36.8902   22.2055 H   0  0  0  0  0  0
  -23.7239  -37.6521   23.6647 H   0  0  0  0  0  0
  -26.0161  -31.6141   20.5849 H   0  0  0  0  0  0
  -26.8085  -30.9088   21.9663 H   0  0  0  0  0  0
  -28.0915  -29.1563   21.1369 H   0  0  0  0  0  0
  -26.0763  -25.9662   19.0382 H   0  0  0  0  0  0
  -23.9822  -27.2682   19.0601 H   0  0  0  0  0  0
  -23.7047  -30.5880   19.4011 H   0  0  0  0  0  0
  -22.7260  -29.2328   19.8724 H   0  0  0  0  0  0
  -25.1275  -36.1963   25.0833 H   0  0  0  0  0  0
  -20.9993  -28.3185   24.1430 H   0  0  0  0  0  0
  -20.5629  -26.2239   23.3601 H   0  0  0  0  0  0
  -21.6623  -26.7393   22.1214 H   0  0  0  0  0  0
  -19.6883  -25.6289   21.1210 H   0  0  0  0  0  0
  -19.6660  -27.3200   20.6737 H   0  0  0  0  0  0
  -17.4180  -26.6664   21.4025 H   0  0  0  0  0  0
  -18.0310  -26.0028   22.9004 H   0  0  0  0  0  0
  -19.7933  -30.7220   24.2302 H   0  0  0  0  0  0
  -17.5021  -31.6261   24.5133 H   0  0  0  0  0  0
  -15.5354  -30.2973   23.7642 H   0  0  0  0  0  0
  -15.8670  -28.0830   22.7018 H   0  0  0  0  0  0
  -24.5895  -30.7071   25.7793 H   0  0  0  0  0  0
  -24.8925  -32.2871   26.4912 H   0  0  0  0  0  0
  -25.8080  -30.8874   27.0212 H   0  0  0  0  0  0
  -26.2816  -29.6821   24.1144 H   0  0  0  0  0  0
  -27.4130  -29.7310   25.4470 H   0  0  0  0  0  0
  -27.8604  -30.4413   23.9134 H   0  0  0  0  0  0
  -27.2675  -33.3621   26.2062 H   0  0  0  0  0  0
  -28.3829  -32.6901   25.0275 H   0  0  0  0  0  0
  -28.0721  -31.8436   26.5346 H   0  0  0  0  0  0
  -28.2591  -38.0099   24.7523 H   0  0  0  0  0  0
  -28.1079  -36.2636   24.6287 H   0  0  0  0  0  0
  -27.2316  -37.1443   25.8876 H   0  0  0  0  0  0
  -20.9251  -29.8774   21.7002 H   0  0  0  0  0  0
  -26.0175  -38.2854   24.1432 H   0  0  0  0  0  0
  -28.4488  -19.1822   23.1227 H   0  0  0  0  0  0
  -28.9381  -16.7695   23.2970 H   0  0  0  0  0  0
  -29.0778  -20.4534   21.1338 H   0  0  0  0  0  0
  -30.7814  -16.8996   19.3800 H   0  0  0  0  0  0
  -31.3056  -21.1261   21.3519 H   0  0  0  0  0  0
  -32.8971  -21.6924   20.9879 H   0  0  0  0  0  0
  -32.5309  -20.7159   18.9516 H   0  0  0  0  0  0
  -31.9158  -22.2905   18.5939 H   0  0  0  0  0  0
  -29.7866  -25.3162   21.8161 H   0  0  0  0  0  0
  -30.6015  -25.7073   20.3192 H   0  0  0  0  0  0
  -30.2560  -20.9651   17.7184 H   0  0  0  0  0  0
  -29.5214  -21.2729   19.2461 H   0  0  0  0  0  0
  -27.6602  -24.9636   20.6557 H   0  0  0  0  0  0
  -28.4420  -25.0309   19.0646 H   0  0  0  0  0  0
  -29.4307  -14.7853   22.1028 H   0  0  0  0  0  0
  -29.6225  -23.0389   20.1340 H   0  0  0  0  0  0
  1 25  1  0  0  0
  1 30  2  0  0  0
  1 83  1  0  0  0
  2  3  1  0  0  0
  2 25  1  0  0  0
  2 87  1  0  0  0
  2 88  1  0  0  0
  3  4  1  0  0  0
  3 89  1  0  0  0
  3 90  1  0  0  0
  4  5  1  0  0  0
  4 91  1  0  0  0
  4 92  1  0  0  0
  5  6  1  0  0  0
  5 26  1  0  0  0
  5 93  1  0  0  0
  6 25  1  0  0  0
  6 94  1  0  0  0
  6 95  1  0  0  0
  7  8  2  0  0  0
  7 26  1  0  0  0
  7 29  1  0  0  0
  8  9  1  0  0  0
  8 22  1  0  0  0
  9 10  1  0  0  0
  9 27  2  0  0  0
 10 11  2  0  0  0
 10 15  1  0  0  0
 11 12  1  0  0  0
 11 96  1  0  0  0
 12 13  2  0  0  0
 12 97  1  0  0  0
 13 14  1  0  0  0
 13 31  1  0  0  0
 14 15  2  0  0  0
 14 98  1  0  0  0
 15 99  1  0  0  0
 16 17  2  0  0  0
 16 21  1  0  0  0
 16 31  1  0  0  0
 17 18  1  0  0  0
 17100  1  0  0  0
 18 19  2  0  0  0
 18101  1  0  0  0
 19 20  1  0  0  0
 19 24  1  0  0  0
 20 21  2  0  0  0
 20102  1  0  0  0
 21 23  1  0  0  0
 22 28  1  0  0  0
 22 32  2  0  0  0
 26 27  1  0  0  0
 28103  1  0  0  0
 28104  1  0  0  0
 29105  1  0  0  0
 29106  1  0  0  0
 33 34  1  0  0  0
 33 66  1  0  0  0
 33 70  2  0  0  0
 34 36  1  0  0  0
 34 59  1  0  0  0
 34107  1  0  0  0
 35 44  2  0  0  0
 35 45  1  0  0  0
 35 68  1  0  0  0
 36 56  1  0  0  0
 36108  1  0  0  0
 37 39  1  0  0  0
 37 47  1  0  0  0
 37 66  1  0  0  0
 37109  1  0  0  0
 38 43  2  0  0  0
 38 46  1  0  0  0
 38 47  1  0  0  0
 39 64  1  0  0  0
 39 67  2  0  0  0
 40 52  1  0  0  0
 40 53  2  0  0  0
 40 58  1  0  0  0
 41110  1  0  0  0
 41111  1  0  0  0
 41112  1  0  0  0
 41 48  1  0  0  0
 42 43  1  0  0  0
 42 66  1  0  0  0
 42113  1  0  0  0
 42114  1  0  0  0
 43 44  1  0  0  0
 44115  1  0  0  0
 45 46  2  0  0  0
 45116  1  0  0  0
 46117  1  0  0  0
 47118  1  0  0  0
 47119  1  0  0  0
 48 56  1  0  0  0
 48 65  1  0  0  0
 48120  1  0  0  0
 49 50  1  0  0  0
 49 53  1  0  0  0
 49 64  1  0  0  0
 49121  1  0  0  0
 50 51  1  0  0  0
 50122  1  0  0  0
 50123  1  0  0  0
 51 52  1  0  0  0
 51124  1  0  0  0
 51125  1  0  0  0
 52126  1  0  0  0
 52127  1  0  0  0
 53 54  1  0  0  0
 54 55  2  0  0  0
 54128  1  0  0  0
 55 57  1  0  0  0
 55129  1  0  0  0
 56 69  2  0  0  0
 57 58  2  0  0  0
 57130  1  0  0  0
 58131  1  0  0  0
 59 60  1  0  0  0
 59 61  1  0  0  0
 59 62  1  0  0  0
 60132  1  0  0  0
 60133  1  0  0  0
 60134  1  0  0  0
 61135  1  0  0  0
 61136  1  0  0  0
 61137  1  0  0  0
 62138  1  0  0  0
 62139  1  0  0  0
 62140  1  0  0  0
 63 65  1  0  0  0
 63141  1  0  0  0
 63142  1  0  0  0
 63143  1  0  0  0
 64144  1  0  0  0
 65145  1  0  0  0
 68 82  1  0  0  0
 71 72  2  0  0  0
 71 73  1  0  0  0
 71146  1  0  0  0
 72 75  1  0  0  0
 72147  1  0  0  0
 73 76  2  0  0  0
 73148  1  0  0  0
 74 75  2  0  0  0
 74 76  1  0  0  0
 74149  1  0  0  0
 75 83  1  0  0  0
 76 86  1  0  0  0
 77 78  1  0  0  0
 77 84  1  0  0  0
 77 85  2  0  0  0
 78 79  1  0  0  0
 78150  1  0  0  0
 78151  1  0  0  0
 79 81  1  0  0  0
 79152  1  0  0  0
 79153  1  0  0  0
 80 82  1  0  0  0
 80 84  1  0  0  0
 80154  1  0  0  0
 80155  1  0  0  0
 81 86  1  0  0  0
 81156  1  0  0  0
 81157  1  0  0  0
 82158  1  0  0  0
 82159  1  0  0  0
 83160  1  0  0  0
 84161  1  0  0  0
M  ISO  4   1 100  68 101  82 101  83 100
M  END
> <chiral flag>
0

> <version>
0

> <s_m_source_file>
/data/baiqing/PycharmProjects/Reinvent-master-3.2/result/LINK_invent/BTK/process_docking_weight1_custom_sum_contain_oxygen_bond_distance_aromatic_linkinvent_7_9_3/rearranged_h_0003.sdf

> <i_m_source_file_index>
55

> <r_mmod_Potential_Energy-OPLS-2005>
-142.432739257812

> <r_mmod_Stretch_Energy-OPLS-2005>
32.7936553955078

> <r_mmod_Bend_Energy-OPLS-2005>
118.251724243164

> <r_mmod_Torsional_Energy-OPLS-2005>
228.790954589844

> <r_mmod_Improper_Torsional_Energy-OPLS-2005>
3.54719400405884

> <r_mmod_Van_der_Waal_Energy-OPLS-2005>
159.889709472656

> <r_mmod_Electrostatic_Energy-OPLS-2005>
-451.476928710938

> <r_mmod_Solvation_Energy-OPLS-2005>
-242.838500976562

> <b_mmod_Minimization_Converged-OPLS-2005>
0

> <r_mmod_RMS_Derivative-OPLS-2005>
1.7008284330368

$$$$
56
                    3D
 Structure written by MMmdl.
181189  0  0  1  0            999 V2000
  -30.6727  -14.4248   20.6141 C   0  0  0  0  0  0
  -30.4252  -12.2953   19.3838 C   0  0  0  0  0  0
  -29.4926  -12.5467   18.1791 C   0  0  0  0  0  0
  -28.0040  -12.4282   18.5766 C   0  0  0  0  0  0
  -27.6629  -13.2053   19.8763 C   0  0  2  0  0  0
  -28.7009  -12.9086   20.9790 C   0  0  0  0  0  0
  -25.2581  -13.8152   20.5618 C   0  0  0  0  0  0
  -24.1813  -13.0428   20.9131 C   0  0  0  0  0  0
  -24.6352  -11.6911   20.8671 C   0  0  0  0  0  0
  -23.9023  -10.4304   21.0370 C   0  0  0  0  0  0
  -24.3592   -9.4238   21.9171 C   0  0  0  0  0  0
  -23.6271   -8.2279   22.0767 C   0  0  0  0  0  0
  -22.4261   -8.0311   21.3543 C   0  0  0  0  0  0
  -21.9862   -9.0281   20.4654 C   0  0  0  0  0  0
  -22.7182  -10.2159   20.3035 C   0  0  0  0  0  0
  -21.6867   -6.0731   22.5263 C   0  0  0  0  0  0
  -21.4046   -6.5633   23.8205 C   0  0  0  0  0  0
  -21.3655   -5.6772   24.9155 C   0  0  0  0  0  0
  -21.6034   -4.3040   24.7213 C   0  0  0  0  0  0
  -21.8837   -3.8140   23.4338 C   0  0  0  0  0  0
  -21.9213   -4.6956   22.3381 C   0  0  0  0  0  0
  -22.7871  -13.5314   21.1788 C   0  0  0  0  0  0
  -22.1684   -4.2148   21.0957 F   0  0  0  0  0  0
  -21.5586   -3.4518   25.7720 F   0  0  0  0  0  0
  -30.0336  -13.2398   20.4375 N   0  0  0  0  0  0
  -26.3012  -12.9323   20.3292 N   0  0  0  0  0  0
  -25.9282  -11.6476   20.5671 N   0  0  0  0  0  0
  -22.0485  -12.8366   22.0368 N   0  0  0  0  0  0
  -25.4263  -15.1864   20.4097 N   0  0  0  0  0  0
  -31.7981  -14.6748   20.1688 O   0  0  0  0  0  0
  -21.6655   -6.8879   21.4234 O   0  0  0  0  0  0
  -22.3588  -14.5626   20.6648 O   0  0  0  0  0  0
  -24.6116  -31.8787   23.2207 C   0  0  0  0  0  0
  -25.9051  -32.4879   23.8465 C   0  0  1  0  0  0
  -27.2246  -27.4792   20.0877 C   0  0  0  0  0  0
  -25.5934  -33.8682   24.2421 N   0  0  0  0  0  0
  -23.3883  -30.5097   21.5638 C   0  0  2  0  0  0
  -24.8277  -28.9765   20.1272 C   0  0  0  0  0  0
  -22.7347  -29.4724   22.5039 C   0  0  0  0  0  0
  -18.0255  -28.1375   22.8523 C   0  0  0  0  0  0
  -24.1459  -36.7288   23.2625 C   0  0  0  0  0  0
  -25.9195  -30.8497   21.3772 C   0  0  0  0  0  0
  -25.9885  -29.4915   20.7154 C   0  0  0  0  0  0
  -27.1870  -28.7492   20.6937 C   0  0  0  0  0  0
  -26.0427  -26.9611   19.5055 C   0  0  0  0  0  0
  -24.8456  -27.7053   19.5284 C   0  0  0  0  0  0
  -23.5969  -29.8558   20.1740 C   0  0  0  0  0  0
  -25.4085  -36.3144   24.0351 C   0  0  1  0  0  0
  -20.5863  -28.3618   23.1321 C   0  0  2  0  0  0
  -20.6755  -26.9410   22.5273 C   0  0  0  0  0  0
  -19.5715  -26.6543   21.5055 C   0  0  0  0  0  0
  -18.1918  -26.7960   22.1548 C   0  0  0  0  0  0
  -19.1540  -28.8792   23.2934 C   0  0  0  0  0  0
  -18.9509  -30.1383   23.8959 C   0  0  0  0  0  0
  -17.6541  -30.6581   24.0616 C   0  0  0  0  0  0
  -25.9020  -34.9511   23.5174 C   0  0  0  0  0  0
  -16.5384  -29.9144   23.6387 C   0  0  0  0  0  0
  -16.7259  -28.6551   23.0402 C   0  0  0  0  0  0
  -26.4495  -31.6656   25.0799 C   0  0  0  0  0  0
  -25.3734  -31.3820   26.1539 C   0  0  0  0  0  0
  -27.0389  -30.3088   24.6226 C   0  0  0  0  0  0
  -27.6075  -32.4380   25.7567 C   0  0  0  0  0  0
  -27.5567  -37.1788   24.8460 C   0  0  0  0  0  0
  -21.4085  -29.3062   22.3770 N   0  0  0  0  0  0
  -26.4273  -37.3823   23.9412 N   0  0  0  0  0  0
  -24.6561  -31.0927   22.1108 N   0  0  0  0  0  0
  -23.4157  -28.8206   23.2999 O   0  0  0  0  0  0
  -28.4404  -26.8325   20.0421 O   0  0  0  0  0  0
  -26.5548  -34.8953   22.4716 O   0  0  0  0  0  0
  -23.5333  -32.1571   23.7640 O   0  0  0  0  0  0
  -30.4543  -18.9278   23.3316 C   0  0  0  0  0  0
  -31.0410  -17.7272   23.7679 C   0  0  0  0  0  0
  -29.7761  -18.9716   22.1002 C   0  0  0  0  0  0
  -30.9007  -16.5610   22.9918 C   0  0  0  0  0  0
  -29.6565  -17.8192   21.2879 C   0  0  0  0  0  0
  -30.1953  -16.5908   21.7679 C   0  0  0  0  0  0
  -28.5013  -24.9328   21.5474 C   0  0  0  0  0  0
  -26.6601  -18.5235   20.6608 C   0  0  0  0  0  0
  -31.3296  -18.8165   19.0229 C   0  0  0  0  0  0
  -29.2584  -19.2268   17.6150 C   0  0  0  0  0  0
  -28.4902  -25.4060   20.0812 C   0  0  0  0  0  0
  -24.9562  -21.9669   20.2372 C   0  0  0  0  0  0
  -25.8190  -23.1265   20.7816 C   0  0  0  0  0  0
  -24.5954  -20.9109   21.3082 C   0  0  0  0  0  0
  -27.2930  -22.7605   21.0572 C   0  0  0  0  0  0
  -24.3695  -19.4831   20.7652 C   0  0  0  0  0  0
  -29.0463  -17.9702   19.8767 C   0  0  2  0  0  0
  -29.8061  -19.0500   19.0486 C   0  0  0  0  0  0
  -29.8713  -15.3636   21.1433 N   0  0  0  0  0  0
  -27.9542  -23.7594   21.8963 N   0  0  0  0  0  0
  -25.5446  -18.9617   20.0729 N   0  0  0  0  0  0
  -27.6083  -18.2450   19.7610 N   0  0  0  0  0  0
  -29.0248  -25.6411   22.4077 O   0  0  0  0  0  0
  -26.7834  -18.4287   21.8796 O   0  0  0  0  0  0
  -31.4741  -12.4000   19.0957 H   0  0  0  0  0  0
  -30.3171  -11.2709   19.7416 H   0  0  0  0  0  0
  -29.7131  -11.8507   17.3696 H   0  0  0  0  0  0
  -29.6847  -13.5461   17.7812 H   0  0  0  0  0  0
  -27.7559  -11.3735   18.6909 H   0  0  0  0  0  0
  -27.3777  -12.7973   17.7642 H   0  0  0  0  0  0
  -27.7230  -14.2656   19.6324 H   0  0  0  0  0  0
  -28.6639  -11.8553   21.2592 H   0  0  0  0  0  0
  -28.4641  -13.4459   21.8983 H   0  0  0  0  0  0
  -25.2744   -9.5769   22.4736 H   0  0  0  0  0  0
  -23.9991   -7.4709   22.7526 H   0  0  0  0  0  0
  -21.0769   -8.8804   19.9001 H   0  0  0  0  0  0
  -22.3614  -10.9705   19.6157 H   0  0  0  0  0  0
  -21.2074   -7.6147   23.9706 H   0  0  0  0  0  0
  -21.1431   -6.0493   25.9041 H   0  0  0  0  0  0
  -22.0620   -2.7608   23.2823 H   0  0  0  0  0  0
  -22.4073  -12.0058   22.4819 H   0  0  0  0  0  0
  -21.1170  -13.1553   22.2612 H   0  0  0  0  0  0
  -24.6538  -15.8331   20.5317 H   0  0  0  0  0  0
  -26.2858  -15.6397   20.1311 H   0  0  0  0  0  0
  -26.7121  -32.5583   23.1222 H   0  0  0  0  0  0
  -25.0216  -33.9880   25.0661 H   0  0  0  0  0  0
  -22.6755  -31.3298   21.4446 H   0  0  0  0  0  0
  -23.3756  -35.9589   23.3332 H   0  0  0  0  0  0
  -24.3524  -36.8860   22.2028 H   0  0  0  0  0  0
  -23.7203  -37.6490   23.6624 H   0  0  0  0  0  0
  -26.0598  -31.6320   20.6279 H   0  0  0  0  0  0
  -26.7945  -30.8751   22.0138 H   0  0  0  0  0  0
  -28.0829  -29.1555   21.1435 H   0  0  0  0  0  0
  -26.0238  -26.0062   19.0069 H   0  0  0  0  0  0
  -23.9439  -27.3039   19.0849 H   0  0  0  0  0  0
  -23.7278  -30.6548   19.4433 H   0  0  0  0  0  0
  -22.7123  -29.3048   19.8481 H   0  0  0  0  0  0
  -25.1260  -36.1993   25.0843 H   0  0  0  0  0  0
  -21.0000  -28.3099   24.1425 H   0  0  0  0  0  0
  -20.5676  -26.2188   23.3387 H   0  0  0  0  0  0
  -21.6622  -26.7526   22.1043 H   0  0  0  0  0  0
  -19.6911  -25.6579   21.0799 H   0  0  0  0  0  0
  -19.6567  -27.3583   20.6777 H   0  0  0  0  0  0
  -17.4127  -26.6769   21.3976 H   0  0  0  0  0  0
  -18.0403  -26.0048   22.8907 H   0  0  0  0  0  0
  -19.8053  -30.7083   24.2358 H   0  0  0  0  0  0
  -17.5157  -31.6266   24.5229 H   0  0  0  0  0  0
  -15.5410  -30.3102   23.7753 H   0  0  0  0  0  0
  -15.8585  -28.0958   22.7146 H   0  0  0  0  0  0
  -24.5842  -30.7245   25.7851 H   0  0  0  0  0  0
  -24.9014  -32.3045   26.4944 H   0  0  0  0  0  0
  -25.8020  -30.8985   27.0320 H   0  0  0  0  0  0
  -26.3037  -29.6803   24.1178 H   0  0  0  0  0  0
  -27.4065  -29.7339   25.4733 H   0  0  0  0  0  0
  -27.8892  -30.4418   23.9529 H   0  0  0  0  0  0
  -27.2690  -33.3652   26.2191 H   0  0  0  0  0  0
  -28.3866  -32.6964   25.0385 H   0  0  0  0  0  0
  -28.0764  -31.8478   26.5451 H   0  0  0  0  0  0
  -28.2588  -38.0073   24.7522 H   0  0  0  0  0  0
  -28.1055  -36.2616   24.6266 H   0  0  0  0  0  0
  -27.2276  -37.1407   25.8854 H   0  0  0  0  0  0
  -20.9250  -29.8779   21.6990 H   0  0  0  0  0  0
  -26.0173  -38.2891   24.1437 H   0  0  0  0  0  0
  -30.5216  -19.8224   23.9330 H   0  0  0  0  0  0
  -31.5689  -17.6932   24.7112 H   0  0  0  0  0  0
  -29.3387  -19.9054   21.7756 H   0  0  0  0  0  0
  -31.3111  -15.6362   23.3684 H   0  0  0  0  0  0
  -31.8402  -19.6050   18.4704 H   0  0  0  0  0  0
  -31.5775  -17.8613   18.5597 H   0  0  0  0  0  0
  -31.7609  -18.8170   20.0236 H   0  0  0  0  0  0
  -29.8249  -19.9837   17.0722 H   0  0  0  0  0  0
  -28.2237  -19.5701   17.6085 H   0  0  0  0  0  0
  -29.3052  -18.3000   17.0424 H   0  0  0  0  0  0
  -27.7277  -24.9203   19.4815 H   0  0  0  0  0  0
  -29.4382  -25.1210   19.6267 H   0  0  0  0  0  0
  -25.4560  -21.5073   19.3861 H   0  0  0  0  0  0
  -24.0256  -22.3772   19.8348 H   0  0  0  0  0  0
  -25.3610  -23.5271   21.6846 H   0  0  0  0  0  0
  -25.7947  -23.9387   20.0571 H   0  0  0  0  0  0
  -23.6921  -21.2359   21.8242 H   0  0  0  0  0  0
  -25.3594  -20.8787   22.0854 H   0  0  0  0  0  0
  -27.8439  -22.6065   20.1275 H   0  0  0  0  0  0
  -27.3330  -21.8142   21.5975 H   0  0  0  0  0  0
  -23.5281  -19.4711   20.0717 H   0  0  0  0  0  0
  -24.1020  -18.8087   21.5794 H   0  0  0  0  0  0
  -29.1822  -17.0246   19.3527 H   0  0  0  0  0  0
  -29.6561  -20.0107   19.5415 H   0  0  0  0  0  0
  -28.9284  -15.0411   21.2920 H   0  0  0  0  0  0
  -28.0324  -23.5279   22.8774 H   0  0  0  0  0  0
  -25.5004  -18.9935   19.0634 H   0  0  0  0  0  0
  -27.3213  -18.3499   18.7993 H   0  0  0  0  0  0
  1 25  1  0  0  0
  1 30  2  0  0  0
  1 89  1  0  0  0
  2  3  1  0  0  0
  2 25  1  0  0  0
  2 95  1  0  0  0
  2 96  1  0  0  0
  3  4  1  0  0  0
  3 97  1  0  0  0
  3 98  1  0  0  0
  4  5  1  0  0  0
  4 99  1  0  0  0
  4100  1  0  0  0
  5  6  1  0  0  0
  5 26  1  0  0  0
  5101  1  0  0  0
  6 25  1  0  0  0
  6102  1  0  0  0
  6103  1  0  0  0
  7  8  2  0  0  0
  7 26  1  0  0  0
  7 29  1  0  0  0
  8  9  1  0  0  0
  8 22  1  0  0  0
  9 10  1  0  0  0
  9 27  2  0  0  0
 10 11  2  0  0  0
 10 15  1  0  0  0
 11 12  1  0  0  0
 11104  1  0  0  0
 12 13  2  0  0  0
 12105  1  0  0  0
 13 14  1  0  0  0
 13 31  1  0  0  0
 14 15  2  0  0  0
 14106  1  0  0  0
 15107  1  0  0  0
 16 17  2  0  0  0
 16 21  1  0  0  0
 16 31  1  0  0  0
 17 18  1  0  0  0
 17108  1  0  0  0
 18 19  2  0  0  0
 18109  1  0  0  0
 19 20  1  0  0  0
 19 24  1  0  0  0
 20 21  2  0  0  0
 20110  1  0  0  0
 21 23  1  0  0  0
 22 28  1  0  0  0
 22 32  2  0  0  0
 26 27  1  0  0  0
 28111  1  0  0  0
 28112  1  0  0  0
 29113  1  0  0  0
 29114  1  0  0  0
 33 34  1  0  0  0
 33 66  1  0  0  0
 33 70  2  0  0  0
 34 36  1  0  0  0
 34 59  1  0  0  0
 34115  1  0  0  0
 35 44  2  0  0  0
 35 45  1  0  0  0
 35 68  1  0  0  0
 36 56  1  0  0  0
 36116  1  0  0  0
 37 39  1  0  0  0
 37 47  1  0  0  0
 37 66  1  0  0  0
 37117  1  0  0  0
 38 43  2  0  0  0
 38 46  1  0  0  0
 38 47  1  0  0  0
 39 64  1  0  0  0
 39 67  2  0  0  0
 40 52  1  0  0  0
 40 53  2  0  0  0
 40 58  1  0  0  0
 41118  1  0  0  0
 41119  1  0  0  0
 41120  1  0  0  0
 41 48  1  0  0  0
 42 43  1  0  0  0
 42 66  1  0  0  0
 42121  1  0  0  0
 42122  1  0  0  0
 43 44  1  0  0  0
 44123  1  0  0  0
 45 46  2  0  0  0
 45124  1  0  0  0
 46125  1  0  0  0
 47126  1  0  0  0
 47127  1  0  0  0
 48 56  1  0  0  0
 48 65  1  0  0  0
 48128  1  0  0  0
 49 50  1  0  0  0
 49 53  1  0  0  0
 49 64  1  0  0  0
 49129  1  0  0  0
 50 51  1  0  0  0
 50130  1  0  0  0
 50131  1  0  0  0
 51 52  1  0  0  0
 51132  1  0  0  0
 51133  1  0  0  0
 52134  1  0  0  0
 52135  1  0  0  0
 53 54  1  0  0  0
 54 55  2  0  0  0
 54136  1  0  0  0
 55 57  1  0  0  0
 55137  1  0  0  0
 56 69  2  0  0  0
 57 58  2  0  0  0
 57138  1  0  0  0
 58139  1  0  0  0
 59 60  1  0  0  0
 59 61  1  0  0  0
 59 62  1  0  0  0
 60140  1  0  0  0
 60141  1  0  0  0
 60142  1  0  0  0
 61143  1  0  0  0
 61144  1  0  0  0
 61145  1  0  0  0
 62146  1  0  0  0
 62147  1  0  0  0
 62148  1  0  0  0
 63 65  1  0  0  0
 63149  1  0  0  0
 63150  1  0  0  0
 63151  1  0  0  0
 64152  1  0  0  0
 65153  1  0  0  0
 68 81  1  0  0  0
 71 72  2  0  0  0
 71 73  1  0  0  0
 71154  1  0  0  0
 72 74  1  0  0  0
 72155  1  0  0  0
 73 75  2  0  0  0
 73156  1  0  0  0
 74 76  2  0  0  0
 74157  1  0  0  0
 75 76  1  0  0  0
 75 87  1  0  0  0
 76 89  1  0  0  0
 77 81  1  0  0  0
 77 90  1  0  0  0
 77 93  2  0  0  0
 78 91  1  0  0  0
 78 92  1  0  0  0
 78 94  2  0  0  0
 79158  1  0  0  0
 79159  1  0  0  0
 79160  1  0  0  0
 79 88  1  0  0  0
 80 88  1  0  0  0
 80161  1  0  0  0
 80162  1  0  0  0
 80163  1  0  0  0
 81164  1  0  0  0
 81165  1  0  0  0
 82 83  1  0  0  0
 82 84  1  0  0  0
 82166  1  0  0  0
 82167  1  0  0  0
 83 85  1  0  0  0
 83168  1  0  0  0
 83169  1  0  0  0
 84 86  1  0  0  0
 84170  1  0  0  0
 84171  1  0  0  0
 85 90  1  0  0  0
 85172  1  0  0  0
 85173  1  0  0  0
 86 91  1  0  0  0
 86174  1  0  0  0
 86175  1  0  0  0
 87 88  1  0  0  0
 87 92  1  0  0  0
 87176  1  0  0  0
 88177  1  0  0  0
 89178  1  0  0  0
 90179  1  0  0  0
 91180  1  0  0  0
 92181  1  0  0  0
M  ISO  4   1 100  68 101  81 101  89 100
M  END
> <chiral flag>
0

> <version>
0

> <s_m_source_file>
/data/baiqing/PycharmProjects/Reinvent-master-3.2/result/LINK_invent/BTK/process_docking_weight1_custom_sum_contain_oxygen_bond_distance_aromatic_linkinvent_7_9_3/rearranged_h_0003.sdf

> <i_m_source_file_index>
56

> <r_mmod_Potential_Energy-OPLS-2005>
-180.545959472656

> <r_mmod_Stretch_Energy-OPLS-2005>
37.5707359313965

> <r_mmod_Bend_Energy-OPLS-2005>
132.375579833984

> <r_mmod_Torsional_Energy-OPLS-2005>
270.069793701172

> <r_mmod_Improper_Torsional_Energy-OPLS-2005>
6.39487457275391

> <r_mmod_Van_der_Waal_Energy-OPLS-2005>
139.223083496094

> <r_mmod_Electrostatic_Energy-OPLS-2005>
-502.935607910156

> <r_mmod_Solvation_Energy-OPLS-2005>
-275.450866699219

> <b_mmod_Minimization_Converged-OPLS-2005>
0

> <r_mmod_RMS_Derivative-OPLS-2005>
5.44177103042603

$$$$
57
                    3D
 Structure written by MMmdl.
148156  0  0  1  0            999 V2000
  -30.5114  -14.9205   20.4353 C   0  0  0  0  0  0
  -30.4549  -12.5673   19.4922 C   0  0  0  0  0  0
  -29.5268  -12.5346   18.2535 C   0  0  0  0  0  0
  -28.0572  -12.3215   18.6680 C   0  0  0  0  0  0
  -27.6390  -13.2376   19.8470 C   0  0  2  0  0  0
  -28.6835  -13.2190   20.9848 C   0  0  0  0  0  0
  -25.2503  -13.8190   20.5691 C   0  0  0  0  0  0
  -24.1807  -13.0434   20.9226 C   0  0  0  0  0  0
  -24.6405  -11.6914   20.8755 C   0  0  0  0  0  0
  -23.9078  -10.4290   21.0412 C   0  0  0  0  0  0
  -24.3625   -9.4204   21.9188 C   0  0  0  0  0  0
  -23.6297   -8.2241   22.0756 C   0  0  0  0  0  0
  -22.4279   -8.0282   21.3545 C   0  0  0  0  0  0
  -21.9918   -9.0256   20.4646 C   0  0  0  0  0  0
  -22.7250  -10.2133   20.3058 C   0  0  0  0  0  0
  -21.6852   -6.0736   22.5280 C   0  0  0  0  0  0
  -21.4014   -6.5640   23.8213 C   0  0  0  0  0  0
  -21.3661   -5.6793   24.9175 C   0  0  0  0  0  0
  -21.6046   -4.3055   24.7225 C   0  0  0  0  0  0
  -21.8819   -3.8147   23.4346 C   0  0  0  0  0  0
  -21.9192   -4.6964   22.3403 C   0  0  0  0  0  0
  -22.7826  -13.5215   21.1878 C   0  0  0  0  0  0
  -22.1661   -4.2152   21.0980 F   0  0  0  0  0  0
  -21.5630   -3.4538   25.7737 F   0  0  0  0  0  0
  -29.9672  -13.6392   20.4024 N   0  0  0  0  0  0
  -26.2929  -12.9403   20.3256 N   0  0  0  0  0  0
  -25.9336  -11.6544   20.5741 N   0  0  0  0  0  0
  -22.0467  -12.8206   22.0429 N   0  0  0  0  0  0
  -25.4169  -15.1913   20.4062 N   0  0  0  0  0  0
  -31.6995  -15.0581   20.1214 O   0  0  0  0  0  0
  -21.6640   -6.8880   21.4242 O   0  0  0  0  0  0
  -22.3514  -14.5520   20.6719 O   0  0  0  0  0  0
  -24.6438  -31.8449   23.1897 C   0  0  0  0  0  0
  -25.9212  -32.4699   23.8283 C   0  0  1  0  0  0
  -27.2193  -27.1419   20.1447 C   0  0  0  0  0  0
  -25.5962  -33.8505   24.2199 N   0  0  0  0  0  0
  -23.4471  -30.4658   21.5355 C   0  0  2  0  0  0
  -24.8972  -28.8971   20.1103 C   0  0  0  0  0  0
  -22.7569  -29.4554   22.4861 C   0  0  0  0  0  0
  -18.0306  -28.1397   22.8477 C   0  0  0  0  0  0
  -24.1494  -36.7255   23.2641 C   0  0  0  0  0  0
  -26.0043  -30.7201   21.3890 C   0  0  0  0  0  0
  -26.0760  -29.3328   20.7288 C   0  0  0  0  0  0
  -27.2382  -28.4719   20.7298 C   0  0  0  0  0  0
  -26.0119  -26.8124   19.4852 C   0  0  0  0  0  0
  -24.8781  -27.6496   19.4735 C   0  0  0  0  0  0
  -23.6735  -29.7979   20.1543 C   0  0  0  0  0  0
  -25.4126  -36.3034   24.0315 C   0  0  1  0  0  0
  -20.5919  -28.3725   23.1233 C   0  0  2  0  0  0
  -20.6792  -26.9428   22.5402 C   0  0  0  0  0  0
  -19.5764  -26.6384   21.5212 C   0  0  0  0  0  0
  -18.1946  -26.7935   22.1624 C   0  0  0  0  0  0
  -19.1563  -28.8879   23.2847 C   0  0  0  0  0  0
  -18.9478  -30.1475   23.8873 C   0  0  0  0  0  0
  -17.6474  -30.6593   24.0560 C   0  0  0  0  0  0
  -25.9074  -34.9409   23.5064 C   0  0  0  0  0  0
  -16.5366  -29.9085   23.6337 C   0  0  0  0  0  0
  -16.7290  -28.6504   23.0357 C   0  0  0  0  0  0
  -26.4533  -31.6563   25.0721 C   0  0  0  0  0  0
  -25.3718  -31.3750   26.1415 C   0  0  0  0  0  0
  -27.0398  -30.2959   24.6302 C   0  0  0  0  0  0
  -27.6062  -32.4328   25.7508 C   0  0  0  0  0  0
  -27.5577  -37.1786   24.8466 C   0  0  0  0  0  0
  -21.4262  -29.3051   22.3605 N   0  0  0  0  0  0
  -26.4290  -37.3746   23.9406 N   0  0  0  0  0  0
  -24.7182  -31.0309   22.0931 N   0  0  0  0  0  0
  -23.4211  -28.8097   23.3008 O   0  0  0  0  0  0
  -28.2625  -26.1444   20.2158 O   0  0  0  0  0  0
  -26.5654  -34.8904   22.4638 O   0  0  0  0  0  0
  -23.5557  -32.1324   23.7117 O   0  0  0  0  0  0
  -27.9747  -19.5529   20.6422 C   0  0  0  0  0  0
  -30.2517  -19.9892   20.2292 C   0  0  0  0  0  0
  -28.2527  -18.1388   20.7224 C   0  0  0  0  0  0
  -30.5328  -18.5470   20.2971 C   0  0  0  0  0  0
  -28.9418  -20.5772   20.3930 C   0  0  0  0  0  0
  -29.5365  -17.5311   20.5470 C   0  0  0  0  0  0
  -28.9267  -23.3605   20.2937 C   0  0  0  0  0  0
  -27.9013  -24.6395   20.0445 C   0  0  0  0  0  0
  -28.4495  -22.0266   20.2703 N   0  0  0  0  0  0
  -29.6297  -16.0040   20.6635 N   0  0  0  0  0  0
  -30.1229  -23.5910   20.4895 O   0  0  0  0  0  0
  -31.4864  -12.7415   19.1813 H   0  0  0  0  0  0
  -30.4554  -11.6027   20.0023 H   0  0  0  0  0  0
  -29.8401  -11.7482   17.5656 H   0  0  0  0  0  0
  -29.6180  -13.4738   17.7054 H   0  0  0  0  0  0
  -27.9451  -11.2762   18.9579 H   0  0  0  0  0  0
  -27.3957  -12.4733   17.8143 H   0  0  0  0  0  0
  -27.6148  -14.2484   19.4398 H   0  0  0  0  0  0
  -28.7626  -12.2241   21.4257 H   0  0  0  0  0  0
  -28.3856  -13.8864   21.7950 H   0  0  0  0  0  0
  -25.2770   -9.5679   22.4764 H   0  0  0  0  0  0
  -24.0004   -7.4632   22.7476 H   0  0  0  0  0  0
  -21.0850   -8.8777   19.8951 H   0  0  0  0  0  0
  -22.3712  -10.9674   19.6168 H   0  0  0  0  0  0
  -21.2005   -7.6149   23.9718 H   0  0  0  0  0  0
  -21.1485   -6.0523   25.9079 H   0  0  0  0  0  0
  -22.0597   -2.7609   23.2845 H   0  0  0  0  0  0
  -22.4083  -11.9868   22.4820 H   0  0  0  0  0  0
  -21.1082  -13.1231   22.2628 H   0  0  0  0  0  0
  -24.6348  -15.8318   20.4896 H   0  0  0  0  0  0
  -26.2317  -15.6172   19.9853 H   0  0  0  0  0  0
  -26.7277  -32.5307   23.1011 H   0  0  0  0  0  0
  -25.0101  -33.9623   25.0342 H   0  0  0  0  0  0
  -22.7496  -31.2920   21.3822 H   0  0  0  0  0  0
  -23.3760  -35.9583   23.3294 H   0  0  0  0  0  0
  -24.3578  -36.8897   22.2058 H   0  0  0  0  0  0
  -23.7246  -37.6448   23.6682 H   0  0  0  0  0  0
  -26.1607  -31.4756   20.6179 H   0  0  0  0  0  0
  -26.8743  -30.7686   22.0321 H   0  0  0  0  0  0
  -28.1343  -28.8006   21.2370 H   0  0  0  0  0  0
  -25.8980  -25.8642   18.9841 H   0  0  0  0  0  0
  -23.9793  -27.3113   18.9762 H   0  0  0  0  0  0
  -23.8099  -30.5737   19.4000 H   0  0  0  0  0  0
  -22.7884  -29.2404   19.8425 H   0  0  0  0  0  0
  -25.1314  -36.1864   25.0807 H   0  0  0  0  0  0
  -21.0012  -28.3317   24.1353 H   0  0  0  0  0  0
  -20.5691  -26.2338   23.3621 H   0  0  0  0  0  0
  -21.6656  -26.7436   22.1197 H   0  0  0  0  0  0
  -19.6926  -25.6289   21.1256 H   0  0  0  0  0  0
  -19.6700  -27.3182   20.6732 H   0  0  0  0  0  0
  -17.4214  -26.6680   21.4028 H   0  0  0  0  0  0
  -18.0346  -26.0083   22.9026 H   0  0  0  0  0  0
  -19.7954  -30.7301   24.2231 H   0  0  0  0  0  0
  -17.5025  -31.6269   24.5167 H   0  0  0  0  0  0
  -15.5364  -30.2977   23.7675 H   0  0  0  0  0  0
  -15.8692  -28.0813   22.7085 H   0  0  0  0  0  0
  -24.5907  -30.7087   25.7737 H   0  0  0  0  0  0
  -24.8897  -32.2931   26.4783 H   0  0  0  0  0  0
  -25.8004  -30.8964   27.0230 H   0  0  0  0  0  0
  -26.3018  -29.6679   24.1299 H   0  0  0  0  0  0
  -27.4000  -29.7258   25.4876 H   0  0  0  0  0  0
  -27.8931  -30.4193   23.9629 H   0  0  0  0  0  0
  -27.2656  -33.3649   26.2029 H   0  0  0  0  0  0
  -28.3906  -32.6854   25.0361 H   0  0  0  0  0  0
  -28.0694  -31.8490   26.5473 H   0  0  0  0  0  0
  -28.2587  -38.0090   24.7509 H   0  0  0  0  0  0
  -28.1082  -36.2617   24.6299 H   0  0  0  0  0  0
  -27.2290  -37.1441   25.8868 H   0  0  0  0  0  0
  -20.9473  -29.8764   21.6784 H   0  0  0  0  0  0
  -26.0157  -38.2815   24.1407 H   0  0  0  0  0  0
  -26.9454  -19.8521   20.7809 H   0  0  0  0  0  0
  -31.0796  -20.6531   20.0229 H   0  0  0  0  0  0
  -27.4098  -17.4937   20.9252 H   0  0  0  0  0  0
  -31.5547  -18.2269   20.1490 H   0  0  0  0  0  0
  -27.0275  -24.4465   20.6678 H   0  0  0  0  0  0
  -27.5723  -24.5107   19.0136 H   0  0  0  0  0  0
  -27.4446  -22.0564   20.1609 H   0  0  0  0  0  0
  -28.7368  -15.6100   20.9166 H   0  0  0  0  0  0
  1 25  1  0  0  0
  1 30  2  0  0  0
  1 80  1  0  0  0
  2  3  1  0  0  0
  2 25  1  0  0  0
  2 82  1  0  0  0
  2 83  1  0  0  0
  3  4  1  0  0  0
  3 84  1  0  0  0
  3 85  1  0  0  0
  4  5  1  0  0  0
  4 86  1  0  0  0
  4 87  1  0  0  0
  5  6  1  0  0  0
  5 26  1  0  0  0
  5 88  1  0  0  0
  6 25  1  0  0  0
  6 89  1  0  0  0
  6 90  1  0  0  0
  7  8  2  0  0  0
  7 26  1  0  0  0
  7 29  1  0  0  0
  8  9  1  0  0  0
  8 22  1  0  0  0
  9 10  1  0  0  0
  9 27  2  0  0  0
 10 11  2  0  0  0
 10 15  1  0  0  0
 11 12  1  0  0  0
 11 91  1  0  0  0
 12 13  2  0  0  0
 12 92  1  0  0  0
 13 14  1  0  0  0
 13 31  1  0  0  0
 14 15  2  0  0  0
 14 93  1  0  0  0
 15 94  1  0  0  0
 16 17  2  0  0  0
 16 21  1  0  0  0
 16 31  1  0  0  0
 17 18  1  0  0  0
 17 95  1  0  0  0
 18 19  2  0  0  0
 18 96  1  0  0  0
 19 20  1  0  0  0
 19 24  1  0  0  0
 20 21  2  0  0  0
 20 97  1  0  0  0
 21 23  1  0  0  0
 22 28  1  0  0  0
 22 32  2  0  0  0
 26 27  1  0  0  0
 28 98  1  0  0  0
 28 99  1  0  0  0
 29100  1  0  0  0
 29101  1  0  0  0
 33 34  1  0  0  0
 33 66  1  0  0  0
 33 70  2  0  0  0
 34 36  1  0  0  0
 34 59  1  0  0  0
 34102  1  0  0  0
 35 44  2  0  0  0
 35 45  1  0  0  0
 35 68  1  0  0  0
 36 56  1  0  0  0
 36103  1  0  0  0
 37 39  1  0  0  0
 37 47  1  0  0  0
 37 66  1  0  0  0
 37104  1  0  0  0
 38 43  2  0  0  0
 38 46  1  0  0  0
 38 47  1  0  0  0
 39 64  1  0  0  0
 39 67  2  0  0  0
 40 52  1  0  0  0
 40 53  2  0  0  0
 40 58  1  0  0  0
 41105  1  0  0  0
 41106  1  0  0  0
 41107  1  0  0  0
 41 48  1  0  0  0
 42 43  1  0  0  0
 42 66  1  0  0  0
 42108  1  0  0  0
 42109  1  0  0  0
 43 44  1  0  0  0
 44110  1  0  0  0
 45 46  2  0  0  0
 45111  1  0  0  0
 46112  1  0  0  0
 47113  1  0  0  0
 47114  1  0  0  0
 48 56  1  0  0  0
 48 65  1  0  0  0
 48115  1  0  0  0
 49 50  1  0  0  0
 49 53  1  0  0  0
 49 64  1  0  0  0
 49116  1  0  0  0
 50 51  1  0  0  0
 50117  1  0  0  0
 50118  1  0  0  0
 51 52  1  0  0  0
 51119  1  0  0  0
 51120  1  0  0  0
 52121  1  0  0  0
 52122  1  0  0  0
 53 54  1  0  0  0
 54 55  2  0  0  0
 54123  1  0  0  0
 55 57  1  0  0  0
 55124  1  0  0  0
 56 69  2  0  0  0
 57 58  2  0  0  0
 57125  1  0  0  0
 58126  1  0  0  0
 59 60  1  0  0  0
 59 61  1  0  0  0
 59 62  1  0  0  0
 60127  1  0  0  0
 60128  1  0  0  0
 60129  1  0  0  0
 61130  1  0  0  0
 61131  1  0  0  0
 61132  1  0  0  0
 62133  1  0  0  0
 62134  1  0  0  0
 62135  1  0  0  0
 63 65  1  0  0  0
 63136  1  0  0  0
 63137  1  0  0  0
 63138  1  0  0  0
 64139  1  0  0  0
 65140  1  0  0  0
 68 78  1  0  0  0
 71 73  2  0  0  0
 71 75  1  0  0  0
 71141  1  0  0  0
 72 74  1  0  0  0
 72 75  2  0  0  0
 72142  1  0  0  0
 73 76  1  0  0  0
 73143  1  0  0  0
 74 76  2  0  0  0
 74144  1  0  0  0
 75 79  1  0  0  0
 76 80  1  0  0  0
 77 78  1  0  0  0
 77 79  1  0  0  0
 77 81  2  0  0  0
 78145  1  0  0  0
 78146  1  0  0  0
 79147  1  0  0  0
 80148  1  0  0  0
M  ISO  4   1 100  68 101  78 101  80 100
M  END
> <chiral flag>
0

> <version>
0

> <s_m_source_file>
/data/baiqing/PycharmProjects/Reinvent-master-3.2/result/LINK_invent/BTK/process_docking_weight1_custom_sum_contain_oxygen_bond_distance_aromatic_linkinvent_7_9_3/rearranged_h_0003.sdf

> <i_m_source_file_index>
57

> <r_mmod_Potential_Energy-OPLS-2005>
411.609313964844

> <r_mmod_Stretch_Energy-OPLS-2005>
219.232482910156

> <r_mmod_Bend_Energy-OPLS-2005>
281.814636230469

> <r_mmod_Torsional_Energy-OPLS-2005>
220.372116088867

> <r_mmod_Improper_Torsional_Energy-OPLS-2005>
4.48748207092285

> <r_mmod_Van_der_Waal_Energy-OPLS-2005>
130.148376464844

> <r_mmod_Electrostatic_Energy-OPLS-2005>
-374.771942138672

> <r_mmod_Solvation_Energy-OPLS-2005>
-252.214736938477

> <b_mmod_Minimization_Converged-OPLS-2005>
0

> <r_mmod_RMS_Derivative-OPLS-2005>
0.218703597784042

$$$$
58
                    3D
 Structure written by MMmdl.
144152  0  0  1  0            999 V2000
  -30.0996  -16.1296   20.2908 C   0  0  0  0  0  0
  -30.3826  -13.4561   19.5434 C   0  0  0  0  0  0
  -29.5687  -12.7954   18.3758 C   0  0  0  0  0  0
  -28.1847  -12.3285   18.8409 C   0  0  0  0  0  0
  -27.5826  -13.3614   19.8112 C   0  0  2  0  0  0
  -28.5625  -13.8933   20.8987 C   0  0  0  0  0  0
  -25.2250  -13.8361   20.5869 C   0  0  0  0  0  0
  -24.1692  -13.0441   20.9323 C   0  0  0  0  0  0
  -24.6467  -11.6975   20.8758 C   0  0  0  0  0  0
  -23.9175  -10.4300   21.0374 C   0  0  0  0  0  0
  -24.3689   -9.4211   21.9167 C   0  0  0  0  0  0
  -23.6334   -8.2259   22.0750 C   0  0  0  0  0  0
  -22.4313   -8.0300   21.3545 C   0  0  0  0  0  0
  -21.9971   -9.0278   20.4640 C   0  0  0  0  0  0
  -22.7330  -10.2142   20.3037 C   0  0  0  0  0  0
  -21.6866   -6.0750   22.5279 C   0  0  0  0  0  0
  -21.4024   -6.5648   23.8214 C   0  0  0  0  0  0
  -21.3662   -5.6797   24.9173 C   0  0  0  0  0  0
  -21.6044   -4.3059   24.7221 C   0  0  0  0  0  0
  -21.8818   -3.8155   23.4341 C   0  0  0  0  0  0
  -21.9196   -4.6975   22.3399 C   0  0  0  0  0  0
  -22.7690  -13.5128   21.1937 C   0  0  0  0  0  0
  -22.1663   -4.2159   21.0976 F   0  0  0  0  0  0
  -21.5626   -3.4541   25.7733 F   0  0  0  0  0  0
  -29.6519  -14.6718   20.2151 N   0  0  0  0  0  0
  -26.2767  -12.9798   20.3320 N   0  0  0  0  0  0
  -25.9437  -11.6806   20.5677 N   0  0  0  0  0  0
  -22.0369  -12.8093   22.0486 N   0  0  0  0  0  0
  -25.3755  -15.2111   20.4303 N   0  0  0  0  0  0
  -31.3472  -16.0021   20.1839 O   0  0  0  0  0  0
  -21.6659   -6.8904   21.4246 O   0  0  0  0  0  0
  -22.3350  -14.5421   20.6768 O   0  0  0  0  0  0
  -24.7153  -31.7594   23.1233 C   0  0  0  0  0  0
  -25.9572  -32.4266   23.7904 C   0  0  1  0  0  0
  -27.2420  -26.3540   20.2525 C   0  0  0  0  0  0
  -25.6011  -33.8113   24.1750 N   0  0  0  0  0  0
  -23.5572  -30.3446   21.4854 C   0  0  2  0  0  0
  -25.0174  -28.6088   20.1316 C   0  0  0  0  0  0
  -22.7905  -29.4096   22.4627 C   0  0  0  0  0  0
  -18.0355  -28.1436   22.8436 C   0  0  0  0  0  0
  -24.1497  -36.7067   23.2660 C   0  0  0  0  0  0
  -26.1494  -30.3752   21.4425 C   0  0  0  0  0  0
  -26.2089  -28.8995   20.8040 C   0  0  0  0  0  0
  -27.2851  -27.8110   20.8235 C   0  0  0  0  0  0
  -26.0173  -26.3638   19.5082 C   0  0  0  0  0  0
  -24.9807  -27.3702   19.4594 C   0  0  0  0  0  0
  -23.8305  -29.6072   20.1367 C   0  0  0  0  0  0
  -25.4159  -36.2777   24.0255 C   0  0  1  0  0  0
  -20.6005  -28.3809   23.1082 C   0  0  2  0  0  0
  -20.6803  -26.9438   22.5411 C   0  0  0  0  0  0
  -19.5786  -26.6356   21.5220 C   0  0  0  0  0  0
  -18.1968  -26.7957   22.1612 C   0  0  0  0  0  0
  -19.1629  -28.8956   23.2729 C   0  0  0  0  0  0
  -18.9530  -30.1530   23.8788 C   0  0  0  0  0  0
  -17.6516  -30.6610   24.0541 C   0  0  0  0  0  0
  -25.9162  -34.9177   23.4868 C   0  0  0  0  0  0
  -16.5404  -29.9084   23.6358 C   0  0  0  0  0  0
  -16.7333  -28.6510   23.0370 C   0  0  0  0  0  0
  -26.4646  -31.6451   25.0671 C   0  0  0  0  0  0
  -25.3624  -31.3866   26.1225 C   0  0  0  0  0  0
  -27.0634  -30.2751   24.6826 C   0  0  0  0  0  0
  -27.6025  -32.4399   25.7509 C   0  0  0  0  0  0
  -27.5558  -37.1678   24.8458 C   0  0  0  0  0  0
  -21.4523  -29.2988   22.3366 N   0  0  0  0  0  0
  -26.4250  -37.3582   23.9417 N   0  0  0  0  0  0
  -24.8348  -30.8688   22.0685 N   0  0  0  0  0  0
  -23.4188  -28.7756   23.3132 O   0  0  0  0  0  0
  -28.2125  -25.0145   20.2772 O   0  0  0  0  0  0
  -26.5857  -34.8823   22.4523 O   0  0  0  0  0  0
  -23.6100  -32.0835   23.5967 O   0  0  0  0  0  0
  -29.9254  -20.7722   20.2610 C   0  0  0  0  0  0
  -29.6157  -22.3392   20.2525 C   0  0  0  0  0  0
  -27.5472  -21.9676   20.3032 C   0  0  0  0  0  0
  -27.8366  -20.3883   20.3152 C   0  0  0  0  0  0
  -29.0946  -19.4739   20.2950 C   0  0  0  0  0  0
  -28.3762  -23.2709   20.2698 C   0  0  0  0  0  0
  -26.5595  -19.5676   20.3493 C   0  0  0  0  0  0
  -29.2920  -17.5963   20.3101 N   0  0  0  0  0  0
  -31.3308  -13.7934   19.1238 H   0  0  0  0  0  0
  -30.6690  -12.7070   20.2840 H   0  0  0  0  0  0
  -30.1239  -11.9619   17.9436 H   0  0  0  0  0  0
  -29.4474  -13.5284   17.5770 H   0  0  0  0  0  0
  -28.3000  -11.3733   19.3550 H   0  0  0  0  0  0
  -27.5252  -12.1502   17.9906 H   0  0  0  0  0  0
  -27.3821  -14.2167   19.1640 H   0  0  0  0  0  0
  -28.9333  -13.0934   21.5418 H   0  0  0  0  0  0
  -28.0359  -14.5813   21.5614 H   0  0  0  0  0  0
  -25.2825   -9.5680   22.4758 H   0  0  0  0  0  0
  -24.0027   -7.4654   22.7482 H   0  0  0  0  0  0
  -21.0899   -8.8813   19.8948 H   0  0  0  0  0  0
  -22.3789  -10.9683   19.6148 H   0  0  0  0  0  0
  -21.2021   -7.6157   23.9721 H   0  0  0  0  0  0
  -21.1485   -6.0526   25.9076 H   0  0  0  0  0  0
  -22.0592   -2.7617   23.2838 H   0  0  0  0  0  0
  -22.4030  -11.9780   22.4887 H   0  0  0  0  0  0
  -21.0964  -13.1061   22.2674 H   0  0  0  0  0  0
  -24.5968  -15.8522   20.5363 H   0  0  0  0  0  0
  -26.2099  -15.6543   20.0714 H   0  0  0  0  0  0
  -26.7689  -32.4654   23.0637 H   0  0  0  0  0  0
  -25.0001  -33.9096   24.9800 H   0  0  0  0  0  0
  -22.9024  -31.1902   21.2649 H   0  0  0  0  0  0
  -23.3802  -35.9346   23.3197 H   0  0  0  0  0  0
  -24.3564  -36.8883   22.2101 H   0  0  0  0  0  0
  -23.7207  -37.6172   23.6854 H   0  0  0  0  0  0
  -26.3868  -31.0734   20.6388 H   0  0  0  0  0  0
  -26.9887  -30.4573   22.1198 H   0  0  0  0  0  0
  -28.1797  -28.0579   21.3775 H   0  0  0  0  0  0
  -25.8050  -25.4556   18.9619 H   0  0  0  0  0  0
  -24.0945  -27.1341   18.8865 H   0  0  0  0  0  0
  -24.0347  -30.3515   19.3662 H   0  0  0  0  0  0
  -22.9284  -29.0908   19.8044 H   0  0  0  0  0  0
  -25.1382  -36.1483   25.0741 H   0  0  0  0  0  0
  -21.0069  -28.3459   24.1216 H   0  0  0  0  0  0
  -20.5629  -26.2445   23.3704 H   0  0  0  0  0  0
  -21.6663  -26.7324   22.1254 H   0  0  0  0  0  0
  -19.6938  -25.6239   21.1319 H   0  0  0  0  0  0
  -19.6741  -27.3109   20.6706 H   0  0  0  0  0  0
  -17.4239  -26.6699   21.4013 H   0  0  0  0  0  0
  -18.0344  -26.0126   22.9033 H   0  0  0  0  0  0
  -19.8007  -30.7370   24.2112 H   0  0  0  0  0  0
  -17.5066  -31.6278   24.5165 H   0  0  0  0  0  0
  -15.5399  -30.2951   23.7746 H   0  0  0  0  0  0
  -15.8734  -28.0793   22.7146 H   0  0  0  0  0  0
  -24.5851  -30.7177   25.7511 H   0  0  0  0  0  0
  -24.8774  -32.3118   26.4345 H   0  0  0  0  0  0
  -25.7722  -30.9223   27.0203 H   0  0  0  0  0  0
  -26.3413  -29.6252   24.1876 H   0  0  0  0  0  0
  -27.3977  -29.7346   25.5692 H   0  0  0  0  0  0
  -27.9424  -30.3798   24.0464 H   0  0  0  0  0  0
  -27.2519  -33.3815   26.1749 H   0  0  0  0  0  0
  -28.4002  -32.6779   25.0460 H   0  0  0  0  0  0
  -28.0510  -31.8764   26.5701 H   0  0  0  0  0  0
  -28.2488  -38.0055   24.7556 H   0  0  0  0  0  0
  -28.1141  -36.2575   24.6219 H   0  0  0  0  0  0
  -27.2283  -37.1221   25.8859 H   0  0  0  0  0  0
  -20.9910  -29.8590   21.6334 H   0  0  0  0  0  0
  -26.0044  -38.2604   24.1469 H   0  0  0  0  0  0
  -30.9871  -20.5709   20.2388 H   0  0  0  0  0  0
  -30.5294  -22.9158   20.2298 H   0  0  0  0  0  0
  -26.4914  -22.1970   20.3251 H   0  0  0  0  0  0
  -25.7268  -20.1277   20.7749 H   0  0  0  0  0  0
  -26.6856  -18.6705   20.9557 H   0  0  0  0  0  0
  -26.2828  -19.2606   19.3405 H   0  0  0  0  0  0
  -28.3451  -17.2467   20.3427 H   0  0  0  0  0  0
  1 25  1  0  0  0
  1 30  2  0  0  0
  1 78  1  0  0  0
  2  3  1  0  0  0
  2 25  1  0  0  0
  2 79  1  0  0  0
  2 80  1  0  0  0
  3  4  1  0  0  0
  3 81  1  0  0  0
  3 82  1  0  0  0
  4  5  1  0  0  0
  4 83  1  0  0  0
  4 84  1  0  0  0
  5  6  1  0  0  0
  5 26  1  0  0  0
  5 85  1  0  0  0
  6 25  1  0  0  0
  6 86  1  0  0  0
  6 87  1  0  0  0
  7  8  2  0  0  0
  7 26  1  0  0  0
  7 29  1  0  0  0
  8  9  1  0  0  0
  8 22  1  0  0  0
  9 10  1  0  0  0
  9 27  2  0  0  0
 10 11  2  0  0  0
 10 15  1  0  0  0
 11 12  1  0  0  0
 11 88  1  0  0  0
 12 13  2  0  0  0
 12 89  1  0  0  0
 13 14  1  0  0  0
 13 31  1  0  0  0
 14 15  2  0  0  0
 14 90  1  0  0  0
 15 91  1  0  0  0
 16 17  2  0  0  0
 16 21  1  0  0  0
 16 31  1  0  0  0
 17 18  1  0  0  0
 17 92  1  0  0  0
 18 19  2  0  0  0
 18 93  1  0  0  0
 19 20  1  0  0  0
 19 24  1  0  0  0
 20 21  2  0  0  0
 20 94  1  0  0  0
 21 23  1  0  0  0
 22 28  1  0  0  0
 22 32  2  0  0  0
 26 27  1  0  0  0
 28 95  1  0  0  0
 28 96  1  0  0  0
 29 97  1  0  0  0
 29 98  1  0  0  0
 33 34  1  0  0  0
 33 66  1  0  0  0
 33 70  2  0  0  0
 34 36  1  0  0  0
 34 59  1  0  0  0
 34 99  1  0  0  0
 35 44  2  0  0  0
 35 45  1  0  0  0
 35 68  1  0  0  0
 36 56  1  0  0  0
 36100  1  0  0  0
 37 39  1  0  0  0
 37 47  1  0  0  0
 37 66  1  0  0  0
 37101  1  0  0  0
 38 43  2  0  0  0
 38 46  1  0  0  0
 38 47  1  0  0  0
 39 64  1  0  0  0
 39 67  2  0  0  0
 40 52  1  0  0  0
 40 53  2  0  0  0
 40 58  1  0  0  0
 41102  1  0  0  0
 41103  1  0  0  0
 41104  1  0  0  0
 41 48  1  0  0  0
 42 43  1  0  0  0
 42 66  1  0  0  0
 42105  1  0  0  0
 42106  1  0  0  0
 43 44  1  0  0  0
 44107  1  0  0  0
 45 46  2  0  0  0
 45108  1  0  0  0
 46109  1  0  0  0
 47110  1  0  0  0
 47111  1  0  0  0
 48 56  1  0  0  0
 48 65  1  0  0  0
 48112  1  0  0  0
 49 50  1  0  0  0
 49 53  1  0  0  0
 49 64  1  0  0  0
 49113  1  0  0  0
 50 51  1  0  0  0
 50114  1  0  0  0
 50115  1  0  0  0
 51 52  1  0  0  0
 51116  1  0  0  0
 51117  1  0  0  0
 52118  1  0  0  0
 52119  1  0  0  0
 53 54  1  0  0  0
 54 55  2  0  0  0
 54120  1  0  0  0
 55 57  1  0  0  0
 55121  1  0  0  0
 56 69  2  0  0  0
 57 58  2  0  0  0
 57122  1  0  0  0
 58123  1  0  0  0
 59 60  1  0  0  0
 59 61  1  0  0  0
 59 62  1  0  0  0
 60124  1  0  0  0
 60125  1  0  0  0
 60126  1  0  0  0
 61127  1  0  0  0
 61128  1  0  0  0
 61129  1  0  0  0
 62130  1  0  0  0
 62131  1  0  0  0
 62132  1  0  0  0
 63 65  1  0  0  0
 63133  1  0  0  0
 63134  1  0  0  0
 63135  1  0  0  0
 64136  1  0  0  0
 65137  1  0  0  0
 68 76  1  0  0  0
 71 72  2  0  0  0
 71 75  1  0  0  0
 71138  1  0  0  0
 72 76  1  0  0  0
 72139  1  0  0  0
 73 74  1  0  0  0
 73 76  2  0  0  0
 73140  1  0  0  0
 74 75  2  0  0  0
 74 77  1  0  0  0
 75 78  1  0  0  0
 77141  1  0  0  0
 77142  1  0  0  0
 77143  1  0  0  0
 78144  1  0  0  0
M  ISO  4   1 100  68 101  76 101  78 100
M  END
> <chiral flag>
0

> <version>
0

> <s_m_source_file>
/data/baiqing/PycharmProjects/Reinvent-master-3.2/result/LINK_invent/BTK/process_docking_weight1_custom_sum_contain_oxygen_bond_distance_aromatic_linkinvent_7_9_3/rearranged_h_0003.sdf

> <i_m_source_file_index>
58

> <r_mmod_Potential_Energy-OPLS-2005>
4193.5986328125

> <r_mmod_Stretch_Energy-OPLS-2005>
1617.31164550781

> <r_mmod_Bend_Energy-OPLS-2005>
1016.50518798828

> <r_mmod_Torsional_Energy-OPLS-2005>
213.61311340332

> <r_mmod_Improper_Torsional_Energy-OPLS-2005>
4.05295038223267

> <r_mmod_Van_der_Waal_Energy-OPLS-2005>
143.140563964844

> <r_mmod_Electrostatic_Energy-OPLS-2005>
-366.601593017578

> <r_mmod_Solvation_Energy-OPLS-2005>
-217.056442260742

> <b_mmod_Minimization_Converged-OPLS-2005>
0

> <r_mmod_RMS_Derivative-OPLS-2005>
0.264315992593765

$$$$
59
                    3D
 Structure written by MMmdl.
154162  0  0  1  0            999 V2000
  -30.6787  -14.5851   21.0622 C   0  0  0  0  0  0
  -31.3190  -13.7831   19.0867 C   0  0  0  0  0  0
  -28.7013  -14.0603   17.2326 C   0  0  0  0  0  0
  -27.3311  -13.3640   18.2489 C   0  0  0  0  0  0
  -27.5086  -13.1348   20.0225 C   0  0  2  0  0  0
  -29.0030  -12.7526   21.0353 C   0  0  0  0  0  0
  -25.1792  -13.7669   20.6390 C   0  0  0  0  0  0
  -24.1120  -12.9987   20.9572 C   0  0  0  0  0  0
  -24.5790  -11.6483   20.9139 C   0  0  0  0  0  0
  -23.8621  -10.3976   21.0581 C   0  0  0  0  0  0
  -24.3322   -9.3951   21.9300 C   0  0  0  0  0  0
  -23.6092   -8.1970   22.0765 C   0  0  0  0  0  0
  -22.4097   -8.0056   21.3514 C   0  0  0  0  0  0
  -21.9672   -8.9999   20.4616 C   0  0  0  0  0  0
  -22.6909  -10.1900   20.3099 C   0  0  0  0  0  0
  -21.6749   -6.0613   22.5284 C   0  0  0  0  0  0
  -21.3935   -6.5564   23.8203 C   0  0  0  0  0  0
  -21.3639   -5.6749   24.9188 C   0  0  0  0  0  0
  -21.6052   -4.3012   24.7256 C   0  0  0  0  0  0
  -21.8836   -3.8077   23.4386 C   0  0  0  0  0  0
  -21.9164   -4.6865   22.3426 C   0  0  0  0  0  0
  -22.7227  -13.4938   21.1954 C   0  0  0  0  0  0
  -22.1651   -4.2059   21.1002 F   0  0  0  0  0  0
  -21.5653   -3.4516   25.7779 F   0  0  0  0  0  0
  -30.6136  -13.3418   20.6619 N   0  0  0  0  0  0
  -26.2223  -12.8559   20.4998 N   0  0  0  0  0  0
  -25.8720  -11.5803   20.6549 N   0  0  0  0  0  0
  -21.9799  -12.8055   22.0508 N   0  0  0  0  0  0
  -25.3280  -15.1462   20.4428 N   0  0  0  0  0  0
  -31.7386  -15.2170   21.0487 O   0  0  0  0  0  0
  -21.6479   -6.8684   21.4215 O   0  0  0  0  0  0
  -22.3140  -14.5313   20.6741 O   0  0  0  0  0  0
  -24.6792  -31.8083   23.1573 C   0  0  0  0  0  0
  -25.9406  -32.4506   23.8088 C   0  0  1  0  0  0
  -27.2209  -26.8294   20.0445 C   0  0  0  0  0  0
  -25.6012  -33.8328   24.1986 N   0  0  0  0  0  0
  -23.4949  -30.4190   21.5166 C   0  0  2  0  0  0
  -24.9353  -28.7839   20.1060 C   0  0  0  0  0  0
  -22.7726  -29.4373   22.4770 C   0  0  0  0  0  0
  -18.0329  -28.1410   22.8463 C   0  0  0  0  0  0
  -24.1499  -36.7167   23.2644 C   0  0  0  0  0  0
  -26.0759  -30.5678   21.4016 C   0  0  0  0  0  0
  -26.1373  -29.1525   20.7220 C   0  0  0  0  0  0
  -27.2716  -28.1969   20.6670 C   0  0  0  0  0  0
  -25.9665  -26.6332   19.4302 C   0  0  0  0  0  0
  -24.8770  -27.5435   19.4548 C   0  0  0  0  0  0
  -23.7322  -29.7302   20.1469 C   0  0  0  0  0  0
  -25.4144  -36.2915   24.0282 C   0  0  1  0  0  0
  -20.5961  -28.3765   23.1170 C   0  0  2  0  0  0
  -20.6805  -26.9437   22.5401 C   0  0  0  0  0  0
  -19.5777  -26.6372   21.5214 C   0  0  0  0  0  0
  -18.1960  -26.7938   22.1624 C   0  0  0  0  0  0
  -19.1594  -28.8910   23.2796 C   0  0  0  0  0  0
  -18.9502  -30.1496   23.8837 C   0  0  0  0  0  0
  -17.6493  -30.6599   24.0549 C   0  0  0  0  0  0
  -25.9127  -34.9307   23.4964 C   0  0  0  0  0  0
  -16.5382  -29.9084   23.6345 C   0  0  0  0  0  0
  -16.7309  -28.6502   23.0370 C   0  0  0  0  0  0
  -26.4589  -31.6510   25.0686 C   0  0  0  0  0  0
  -25.3673  -31.3813   26.1317 C   0  0  0  0  0  0
  -27.0500  -30.2854   24.6534 C   0  0  0  0  0  0
  -27.6049  -32.4356   25.7504 C   0  0  0  0  0  0
  -27.5580  -37.1723   24.8451 C   0  0  0  0  0  0
  -21.4383  -29.3036   22.3516 N   0  0  0  0  0  0
  -26.4266  -37.3682   23.9429 N   0  0  0  0  0  0
  -24.7745  -30.9605   22.0782 N   0  0  0  0  0  0
  -23.4217  -28.7947   23.3056 O   0  0  0  0  0  0
  -28.2202  -25.6813   19.9515 O   0  0  0  0  0  0
  -26.5757  -34.8878   22.4575 O   0  0  0  0  0  0
  -23.5833  -32.1129   23.6581 O   0  0  0  0  0  0
  -30.4946  -12.5322   17.2576 C   0  0  0  0  0  0
  -31.0549  -13.9461   16.6738 C   0  0  0  0  0  0
  -29.5557  -12.6002   18.6145 C   0  0  0  0  0  0
  -30.7564  -15.4424   17.2331 C   0  0  0  0  0  0
  -29.2965  -14.6445   19.2815 C   0  0  0  0  0  0
  -29.8643  -15.9195   18.4653 C   0  0  0  0  0  0
  -28.9734  -22.4521   19.2958 C   0  0  0  0  0  0
  -28.7336  -20.5878   19.2788 C   0  0  0  0  0  0
  -27.9924  -24.0027   19.7035 C   0  0  0  0  0  0
  -29.5996  -19.0286   18.6778 C   0  0  0  0  0  0
  -29.5459  -15.1290   20.6195 N   0  0  0  0  0  0
  -29.4306  -17.3648   18.9478 O   0  0  0  0  0  0
  -32.0924  -14.5563   18.9876 H   0  0  0  0  0  0
  -32.0069  -12.9338   18.9589 H   0  0  0  0  0  0
  -28.6487  -13.5682   16.2509 H   0  0  0  0  0  0
  -28.3289  -15.0468   16.9296 H   0  0  0  0  0  0
  -27.0630  -12.3944   17.8246 H   0  0  0  0  0  0
  -26.4489  -13.9750   18.0596 H   0  0  0  0  0  0
  -27.4312  -14.1345   20.4081 H   0  0  0  0  0  0
  -29.0816  -11.6696   21.1387 H   0  0  0  0  0  0
  -28.7752  -13.0493   22.0618 H   0  0  0  0  0  0
  -25.2431   -9.5486   22.4921 H   0  0  0  0  0  0
  -23.9812   -7.4344   22.7456 H   0  0  0  0  0  0
  -21.0622   -8.8478   19.8904 H   0  0  0  0  0  0
  -22.3374  -10.9480   19.6250 H   0  0  0  0  0  0
  -21.1889   -7.6069   23.9675 H   0  0  0  0  0  0
  -21.1464   -6.0490   25.9087 H   0  0  0  0  0  0
  -22.0647   -2.7539   23.2913 H   0  0  0  0  0  0
  -22.3328  -11.9714   22.4960 H   0  0  0  0  0  0
  -21.0435  -13.1173   22.2657 H   0  0  0  0  0  0
  -24.5427  -15.7852   20.5046 H   0  0  0  0  0  0
  -26.1813  -15.5977   20.1369 H   0  0  0  0  0  0
  -26.7484  -32.4974   23.0794 H   0  0  0  0  0  0
  -25.0081  -33.9381   25.0087 H   0  0  0  0  0  0
  -22.8155  -31.2555   21.3403 H   0  0  0  0  0  0
  -23.3800  -35.9453   23.3205 H   0  0  0  0  0  0
  -24.3586  -36.8930   22.2081 H   0  0  0  0  0  0
  -23.7207  -37.6298   23.6780 H   0  0  0  0  0  0
  -26.2796  -31.3118   20.6303 H   0  0  0  0  0  0
  -26.9267  -30.6123   22.0698 H   0  0  0  0  0  0
  -28.1916  -28.4846   21.1564 H   0  0  0  0  0  0
  -25.7957  -25.7016   18.9120 H   0  0  0  0  0  0
  -23.9602  -27.2531   18.9608 H   0  0  0  0  0  0
  -23.8974  -30.4975   19.3898 H   0  0  0  0  0  0
  -22.8345  -29.1976   19.8275 H   0  0  0  0  0  0
  -25.1339  -36.1674   25.0768 H   0  0  0  0  0  0
  -21.0034  -28.3372   24.1300 H   0  0  0  0  0  0
  -20.5690  -26.2378   23.3648 H   0  0  0  0  0  0
  -21.6666  -26.7405   22.1203 H   0  0  0  0  0  0
  -19.6939  -25.6268   21.1284 H   0  0  0  0  0  0
  -19.6719  -27.3150   20.6720 H   0  0  0  0  0  0
  -17.4228  -26.6676   21.4031 H   0  0  0  0  0  0
  -18.0359  -26.0095   22.9038 H   0  0  0  0  0  0
  -19.7976  -30.7327   24.2183 H   0  0  0  0  0  0
  -17.5044  -31.6277   24.5158 H   0  0  0  0  0  0
  -15.5381  -30.2968   23.7702 H   0  0  0  0  0  0
  -15.8709  -28.0796   22.7127 H   0  0  0  0  0  0
  -24.5859  -30.7164   25.7618 H   0  0  0  0  0  0
  -24.8866  -32.3035   26.4591 H   0  0  0  0  0  0
  -25.7866  -30.9067   27.0198 H   0  0  0  0  0  0
  -26.3192  -29.6494   24.1532 H   0  0  0  0  0  0
  -27.3955  -29.7272   25.5245 H   0  0  0  0  0  0
  -27.9166  -30.3995   24.0020 H   0  0  0  0  0  0
  -27.2591  -33.3717   26.1902 H   0  0  0  0  0  0
  -28.3952  -32.6826   25.0401 H   0  0  0  0  0  0
  -28.0615  -31.8607   26.5572 H   0  0  0  0  0  0
  -28.2495  -38.0118   24.7602 H   0  0  0  0  0  0
  -28.1176  -36.2646   24.6136 H   0  0  0  0  0  0
  -27.2312  -37.1182   25.8851 H   0  0  0  0  0  0
  -20.9664  -29.8718   21.6619 H   0  0  0  0  0  0
  -26.0088  -38.2714   24.1507 H   0  0  0  0  0  0
  -30.7625  -11.5881   16.8045 H   0  0  0  0  0  0
  -31.6875  -13.8835   15.7994 H   0  0  0  0  0  0
  -29.2969  -11.6405   19.0430 H   0  0  0  0  0  0
  -31.1993  -16.2417   16.6571 H   0  0  0  0  0  0
  -29.3381  -22.6598   18.2898 H   0  0  0  0  0  0
  -29.8639  -22.5666   19.9140 H   0  0  0  0  0  0
  -27.7354  -20.4767   18.8548 H   0  0  0  0  0  0
  -28.5790  -20.3700   20.3357 H   0  0  0  0  0  0
  -27.4799  -23.7264   20.6254 H   0  0  0  0  0  0
  -27.1990  -23.9789   18.9580 H   0  0  0  0  0  0
  -30.6460  -19.1934   18.9346 H   0  0  0  0  0  0
  -29.5873  -19.1072   17.5902 H   0  0  0  0  0  0
  -28.7776  -15.0232   21.2627 H   0  0  0  0  0  0
  1 25  1  0  0  0
  1 30  2  0  0  0
  1 81  1  0  0  0
  2  3  1  0  0  0
  2 25  1  0  0  0
  2 83  1  0  0  0
  2 84  1  0  0  0
  3  4  1  0  0  0
  3 85  1  0  0  0
  3 86  1  0  0  0
  4  5  1  0  0  0
  4 87  1  0  0  0
  4 88  1  0  0  0
  5  6  1  0  0  0
  5 26  1  0  0  0
  5 89  1  0  0  0
  6 25  1  0  0  0
  6 90  1  0  0  0
  6 91  1  0  0  0
  7  8  2  0  0  0
  7 26  1  0  0  0
  7 29  1  0  0  0
  8  9  1  0  0  0
  8 22  1  0  0  0
  9 10  1  0  0  0
  9 27  2  0  0  0
 10 11  2  0  0  0
 10 15  1  0  0  0
 11 12  1  0  0  0
 11 92  1  0  0  0
 12 13  2  0  0  0
 12 93  1  0  0  0
 13 14  1  0  0  0
 13 31  1  0  0  0
 14 15  2  0  0  0
 14 94  1  0  0  0
 15 95  1  0  0  0
 16 17  2  0  0  0
 16 21  1  0  0  0
 16 31  1  0  0  0
 17 18  1  0  0  0
 17 96  1  0  0  0
 18 19  2  0  0  0
 18 97  1  0  0  0
 19 20  1  0  0  0
 19 24  1  0  0  0
 20 21  2  0  0  0
 20 98  1  0  0  0
 21 23  1  0  0  0
 22 28  1  0  0  0
 22 32  2  0  0  0
 26 27  1  0  0  0
 28 99  1  0  0  0
 28100  1  0  0  0
 29101  1  0  0  0
 29102  1  0  0  0
 33 34  1  0  0  0
 33 66  1  0  0  0
 33 70  2  0  0  0
 34 36  1  0  0  0
 34 59  1  0  0  0
 34103  1  0  0  0
 35 44  2  0  0  0
 35 45  1  0  0  0
 35 68  1  0  0  0
 36 56  1  0  0  0
 36104  1  0  0  0
 37 39  1  0  0  0
 37 47  1  0  0  0
 37 66  1  0  0  0
 37105  1  0  0  0
 38 43  2  0  0  0
 38 46  1  0  0  0
 38 47  1  0  0  0
 39 64  1  0  0  0
 39 67  2  0  0  0
 40 52  1  0  0  0
 40 53  2  0  0  0
 40 58  1  0  0  0
 41106  1  0  0  0
 41107  1  0  0  0
 41108  1  0  0  0
 41 48  1  0  0  0
 42 43  1  0  0  0
 42 66  1  0  0  0
 42109  1  0  0  0
 42110  1  0  0  0
 43 44  1  0  0  0
 44111  1  0  0  0
 45 46  2  0  0  0
 45112  1  0  0  0
 46113  1  0  0  0
 47114  1  0  0  0
 47115  1  0  0  0
 48 56  1  0  0  0
 48 65  1  0  0  0
 48116  1  0  0  0
 49 50  1  0  0  0
 49 53  1  0  0  0
 49 64  1  0  0  0
 49117  1  0  0  0
 50 51  1  0  0  0
 50118  1  0  0  0
 50119  1  0  0  0
 51 52  1  0  0  0
 51120  1  0  0  0
 51121  1  0  0  0
 52122  1  0  0  0
 52123  1  0  0  0
 53 54  1  0  0  0
 54 55  2  0  0  0
 54124  1  0  0  0
 55 57  1  0  0  0
 55125  1  0  0  0
 56 69  2  0  0  0
 57 58  2  0  0  0
 57126  1  0  0  0
 58127  1  0  0  0
 59 60  1  0  0  0
 59 61  1  0  0  0
 59 62  1  0  0  0
 60128  1  0  0  0
 60129  1  0  0  0
 60130  1  0  0  0
 61131  1  0  0  0
 61132  1  0  0  0
 61133  1  0  0  0
 62134  1  0  0  0
 62135  1  0  0  0
 62136  1  0  0  0
 63 65  1  0  0  0
 63137  1  0  0  0
 63138  1  0  0  0
 63139  1  0  0  0
 64140  1  0  0  0
 65141  1  0  0  0
 68 79  1  0  0  0
 71 72  2  0  0  0
 71 73  1  0  0  0
 71142  1  0  0  0
 72 74  1  0  0  0
 72143  1  0  0  0
 73 75  2  0  0  0
 73144  1  0  0  0
 74 76  2  0  0  0
 74145  1  0  0  0
 75 76  1  0  0  0
 75 81  1  0  0  0
 76 82  1  0  0  0
 77 78  1  0  0  0
 77 79  1  0  0  0
 77146  1  0  0  0
 77147  1  0  0  0
 78 80  1  0  0  0
 78148  1  0  0  0
 78149  1  0  0  0
 79150  1  0  0  0
 79151  1  0  0  0
 80 82  1  0  0  0
 80152  1  0  0  0
 80153  1  0  0  0
 81154  1  0  0  0
M  ISO  4   1 100  68 101  79 101  81 100
M  END
> <chiral flag>
0

> <version>
0

> <s_m_source_file>
/data/baiqing/PycharmProjects/Reinvent-master-3.2/result/LINK_invent/BTK/process_docking_weight1_custom_sum_contain_oxygen_bond_distance_aromatic_linkinvent_7_9_3/rearranged_h_0003.sdf

> <i_m_source_file_index>
59

> <r_mmod_Potential_Energy-OPLS-2005>
11109.802734375

> <r_mmod_Stretch_Energy-OPLS-2005>
6307.37109375

> <r_mmod_Bend_Energy-OPLS-2005>
882.476684570312

> <r_mmod_Torsional_Energy-OPLS-2005>
399.335205078125

> <r_mmod_Improper_Torsional_Energy-OPLS-2005>
58.6720123291016

> <r_mmod_Van_der_Waal_Energy-OPLS-2005>
2752.38330078125

> <r_mmod_Electrostatic_Energy-OPLS-2005>
-404.357482910156

> <r_mmod_Solvation_Energy-OPLS-2005>
-223.568420410156

> <b_mmod_Minimization_Converged-OPLS-2005>
0

> <r_mmod_RMS_Derivative-OPLS-2005>
1.31204795837402

$$$$
60
                    3D
 Structure written by MMmdl.
166174  0  0  1  0            999 V2000
  -28.6320  -19.1545   19.8798 C   0  0  0  0  0  0
  -29.6397  -15.6996   19.3589 C   0  0  0  0  0  0
  -29.4089  -14.1935   18.5434 C   0  0  0  0  0  0
  -28.4178  -13.1704   19.1003 C   0  0  0  0  0  0
  -27.4982  -14.0855   19.8942 C   0  0  2  0  0  0
  -28.0914  -15.5732   20.6426 C   0  0  0  0  0  0
  -25.1138  -13.9898   20.6370 C   0  0  0  0  0  0
  -24.1446  -13.0896   20.9463 C   0  0  0  0  0  0
  -24.7281  -11.7859   20.8580 C   0  0  0  0  0  0
  -24.0119  -10.4744   21.0067 C   0  0  0  0  0  0
  -24.4287   -9.4593   21.9025 C   0  0  0  0  0  0
  -23.6740   -8.2691   22.0721 C   0  0  0  0  0  0
  -22.4717   -8.0656   21.3548 C   0  0  0  0  0  0
  -22.0570   -9.0668   20.4580 C   0  0  0  0  0  0
  -22.8117  -10.2477   20.2857 C   0  0  0  0  0  0
  -21.7099   -6.0925   22.5222 C   0  0  0  0  0  0
  -21.4202   -6.5753   23.8170 C   0  0  0  0  0  0
  -21.3706   -5.6867   24.9100 C   0  0  0  0  0  0
  -21.6025   -4.3124   24.7154 C   0  0  0  0  0  0
  -21.8810   -3.8246   23.4274 C   0  0  0  0  0  0
  -21.9266   -4.7093   22.3335 C   0  0  0  0  0  0
  -22.7261  -13.4802   21.2084 C   0  0  0  0  0  0
  -22.1685   -4.2255   21.0916 F   0  0  0  0  0  0
  -21.5580   -3.4565   25.7652 F   0  0  0  0  0  0
  -28.5834  -17.1161   19.8558 N   0  0  0  0  0  0
  -26.2889  -13.3251   20.4324 N   0  0  0  0  0  0
  -26.0549  -11.9384   20.5561 N   0  0  0  0  0  0
  -22.0282  -12.7528   22.0637 N   0  0  0  0  0  0
  -25.0926  -15.3653   20.4552 N   0  0  0  0  0  0
  -29.8887  -18.6007   19.9205 O   0  0  0  0  0  0
  -21.6981   -6.9253   21.4269 O   0  0  0  0  0  0
  -22.2497  -14.4855   20.6875 O   0  0  0  0  0  0
  -24.9886  -31.3280   22.5592 C   0  0  0  0  0  0
  -26.0560  -32.2259   23.4600 C   0  0  1  0  0  0
  -28.2628  -25.2032   21.3497 C   0  0  0  0  0  0
  -25.5439  -33.6054   23.8623 N   0  0  0  0  0  0
  -23.6240  -29.3272   21.2293 C   0  0  2  0  0  0
  -24.9545  -26.1613   20.0349 C   0  0  0  0  0  0
  -22.6156  -29.3484   22.4232 C   0  0  0  0  0  0
  -17.9787  -28.1357   22.8225 C   0  0  0  0  0  0
  -24.1365  -36.6100   23.2798 C   0  0  0  0  0  0
  -26.7578  -29.4902   20.7344 C   0  0  0  0  0  0
  -27.0763  -27.4195   19.9782 C   0  0  0  0  0  0
  -28.3126  -26.6563   20.4768 C   0  0  0  0  0  0
  -26.6338  -24.1269   21.7948 C   0  0  0  0  0  0
  -25.0240  -24.6947   20.9005 C   0  0  0  0  0  0
  -23.3610  -27.4291   20.5015 C   0  0  0  0  0  0
  -25.4124  -36.1437   24.0028 C   0  0  1  0  0  0
  -20.5105  -28.3319   23.1072 C   0  0  2  0  0  0
  -20.4984  -26.8524   22.6713 C   0  0  0  0  0  0
  -19.5080  -26.6211   21.5124 C   0  0  0  0  0  0
  -18.1339  -26.7775   22.1523 C   0  0  0  0  0  0
  -19.1009  -28.8869   23.2536 C   0  0  0  0  0  0
  -18.9222  -30.1433   23.8539 C   0  0  0  0  0  0
  -17.6206  -30.6488   24.0428 C   0  0  0  0  0  0
  -25.9388  -34.8077   23.3833 C   0  0  0  0  0  0
  -16.5048  -29.8975   23.6265 C   0  0  0  0  0  0
  -16.6794  -28.6414   23.0250 C   0  0  0  0  0  0
  -26.5328  -31.5928   24.8582 C   0  0  0  0  0  0
  -25.3803  -31.3306   25.8725 C   0  0  0  0  0  0
  -27.2349  -30.2945   24.5048 C   0  0  0  0  0  0
  -27.6121  -32.4267   25.6093 C   0  0  0  0  0  0
  -27.5271  -37.1089   24.8523 C   0  0  0  0  0  0
  -21.3374  -29.1172   22.1785 N   0  0  0  0  0  0
  -26.3851  -37.2685   23.9591 N   0  0  0  0  0  0
  -25.1647  -30.2007   21.5312 N   0  0  0  0  0  0
  -23.0230  -29.3186   23.5809 O   0  0  0  0  0  0
  -29.5285  -25.0956   21.5719 O   0  0  0  0  0  0
  -26.7051  -34.8779   22.4267 O   0  0  0  0  0  0
  -23.8680  -31.7791   22.9400 O   0  0  0  0  0  0
  -25.7187  -27.1480   18.0881 C   0  0  0  0  0  0
  -25.1542  -28.3318   19.4159 C   0  0  0  0  0  0
  -26.5084  -25.4971   18.3250 C   0  0  0  0  0  0
  -26.3694  -26.2958   21.7249 C   0  0  0  0  0  0
  -25.4972  -27.6996   21.5658 C   0  0  0  0  0  0
  -26.9819  -24.4079   19.6459 C   0  0  0  0  0  0
  -24.9592  -27.5537   23.0350 C   0  0  0  0  0  0
  -29.9020  -24.7025   22.8478 C   0  0  0  0  0  0
  -29.1314  -23.5380   23.5210 C   0  0  0  0  0  0
  -28.1143  -23.9637   24.6162 C   0  0  0  0  0  0
  -27.0674  -22.8999   24.9894 C   0  0  0  0  0  0
  -25.7242  -23.4637   25.5288 C   0  0  0  0  0  0
  -24.6584  -24.1106   24.5524 C   0  0  0  0  0  0
  -24.2434  -25.6425   24.5816 C   0  0  0  0  0  0
  -30.8742  -25.2808   23.4322 N   0  0  0  0  0  0
  -27.8142  -21.5239   19.7351 N   0  0  0  0  0  0
  -24.2901  -26.3945   23.2895 N   0  0  0  0  0  0
  -25.4552  -28.0685   24.0324 O   0  0  0  0  0  0
  -30.2115  -16.2195   18.5833 H   0  0  0  0  0  0
  -30.4219  -15.5672   20.1180 H   0  0  0  0  0  0
  -30.3824  -13.7147   18.4228 H   0  0  0  0  0  0
  -29.0914  -14.4383   17.5303 H   0  0  0  0  0  0
  -28.9058  -12.4581   19.7595 H   0  0  0  0  0  0
  -27.8823  -12.6360   18.3196 H   0  0  0  0  0  0
  -27.0203  -14.5820   19.0515 H   0  0  0  0  0  0
  -28.7928  -15.2869   21.4377 H   0  0  0  0  0  0
  -27.3115  -15.9111   21.3232 H   0  0  0  0  0  0
  -25.3370   -9.6014   22.4715 H   0  0  0  0  0  0
  -24.0299   -7.5189   22.7603 H   0  0  0  0  0  0
  -21.1484   -8.9350   19.8919 H   0  0  0  0  0  0
  -22.4571  -10.9984   19.5912 H   0  0  0  0  0  0
  -21.2292   -7.6269   23.9740 H   0  0  0  0  0  0
  -21.1494   -6.0550   25.9017 H   0  0  0  0  0  0
  -22.0525   -2.7696   23.2739 H   0  0  0  0  0  0
  -22.4310  -11.9300   22.4846 H   0  0  0  0  0  0
  -21.0814  -13.0159   22.2876 H   0  0  0  0  0  0
  -24.2703  -15.9431   20.5827 H   0  0  0  0  0  0
  -25.8902  -15.9096   20.1379 H   0  0  0  0  0  0
  -26.9374  -32.3501   22.8227 H   0  0  0  0  0  0
  -24.8188  -33.6064   24.5641 H   0  0  0  0  0  0
  -23.1280  -29.9525   20.4914 H   0  0  0  0  0  0
  -23.3699  -35.8342   23.2864 H   0  0  0  0  0  0
  -24.3293  -36.8639   22.2379 H   0  0  0  0  0  0
  -23.7033  -37.4894   23.7542 H   0  0  0  0  0  0
  -26.9724  -30.1373   19.8851 H   0  0  0  0  0  0
  -27.5925  -29.7094   21.3754 H   0  0  0  0  0  0
  -29.2495  -27.1979   20.4936 H   0  0  0  0  0  0
  -26.6292  -23.2489   22.4049 H   0  0  0  0  0  0
  -24.0981  -24.2059   21.1970 H   0  0  0  0  0  0
  -22.7716  -27.4895   19.5774 H   0  0  0  0  0  0
  -22.8232  -26.7584   21.1179 H   0  0  0  0  0  0
  -25.1466  -35.9434   25.0415 H   0  0  0  0  0  0
  -20.9345  -28.3395   24.1170 H   0  0  0  0  0  0
  -20.1292  -26.2730   23.5291 H   0  0  0  0  0  0
  -21.4995  -26.4857   22.4996 H   0  0  0  0  0  0
  -19.5993  -25.6415   21.0393 H   0  0  0  0  0  0
  -19.6001  -27.3397   20.6950 H   0  0  0  0  0  0
  -17.3061  -26.5733   21.4662 H   0  0  0  0  0  0
  -18.0787  -26.0103   22.9209 H   0  0  0  0  0  0
  -19.7833  -30.7148   24.1666 H   0  0  0  0  0  0
  -17.4770  -31.5980   24.5291 H   0  0  0  0  0  0
  -15.4983  -30.2744   23.7797 H   0  0  0  0  0  0
  -15.8112  -28.0634   22.7307 H   0  0  0  0  0  0
  -24.6040  -30.7062   25.4269 H   0  0  0  0  0  0
  -24.9017  -32.2577   26.1918 H   0  0  0  0  0  0
  -25.7371  -30.8158   26.7622 H   0  0  0  0  0  0
  -26.6185  -29.8232   23.7733 H   0  0  0  0  0  0
  -27.3661  -29.6339   25.3569 H   0  0  0  0  0  0
  -28.2017  -30.4207   24.0087 H   0  0  0  0  0  0
  -27.2065  -33.3177   26.0853 H   0  0  0  0  0  0
  -28.4097  -32.7394   24.9316 H   0  0  0  0  0  0
  -28.0754  -31.8283   26.3952 H   0  0  0  0  0  0
  -28.1955  -37.9655   24.7614 H   0  0  0  0  0  0
  -28.1003  -36.2141   24.6109 H   0  0  0  0  0  0
  -27.2084  -37.0406   25.8941 H   0  0  0  0  0  0
  -21.1064  -29.0782   21.1911 H   0  0  0  0  0  0
  -25.9249  -38.1425   24.1916 H   0  0  0  0  0  0
  -25.4780  -27.4147   17.0765 H   0  0  0  0  0  0
  -24.5945  -29.1861   19.0408 H   0  0  0  0  0  0
  -26.5892  -24.9710   17.3929 H   0  0  0  0  0  0
  -26.6919  -26.1592   22.7726 H   0  0  0  0  0  0
  -29.8476  -22.8780   23.9977 H   0  0  0  0  0  0
  -28.7090  -22.8435   22.7996 H   0  0  0  0  0  0
  -27.6222  -24.9149   24.4067 H   0  0  0  0  0  0
  -28.6786  -24.0876   25.5393 H   0  0  0  0  0  0
  -27.5329  -22.3579   25.8161 H   0  0  0  0  0  0
  -26.9349  -22.1245   24.2321 H   0  0  0  0  0  0
  -26.0050  -24.1300   26.3388 H   0  0  0  0  0  0
  -25.2321  -22.6010   25.9981 H   0  0  0  0  0  0
  -23.7367  -23.6357   24.8885 H   0  0  0  0  0  0
  -24.7459  -23.7156   23.5485 H   0  0  0  0  0  0
  -24.6552  -26.1566   25.4648 H   0  0  0  0  0  0
  -23.1709  -25.6908   24.7912 H   0  0  0  0  0  0
  -31.0551  -24.9221   24.3591 H   0  0  0  0  0  0
  -28.7771  -21.7415   19.4833 H   0  0  0  0  0  0
  -24.0337  -25.8922   22.4390 H   0  0  0  0  0  0
  1 25  1  0  0  0
  1 30  2  0  0  0
  1 86  1  0  0  0
  2  3  1  0  0  0
  2 25  1  0  0  0
  2 89  1  0  0  0
  2 90  1  0  0  0
  3  4  1  0  0  0
  3 91  1  0  0  0
  3 92  1  0  0  0
  4  5  1  0  0  0
  4 93  1  0  0  0
  4 94  1  0  0  0
  5  6  1  0  0  0
  5 26  1  0  0  0
  5 95  1  0  0  0
  6 25  1  0  0  0
  6 96  1  0  0  0
  6 97  1  0  0  0
  7  8  2  0  0  0
  7 26  1  0  0  0
  7 29  1  0  0  0
  8  9  1  0  0  0
  8 22  1  0  0  0
  9 10  1  0  0  0
  9 27  2  0  0  0
 10 11  2  0  0  0
 10 15  1  0  0  0
 11 12  1  0  0  0
 11 98  1  0  0  0
 12 13  2  0  0  0
 12 99  1  0  0  0
 13 14  1  0  0  0
 13 31  1  0  0  0
 14 15  2  0  0  0
 14100  1  0  0  0
 15101  1  0  0  0
 16 17  2  0  0  0
 16 21  1  0  0  0
 16 31  1  0  0  0
 17 18  1  0  0  0
 17102  1  0  0  0
 18 19  2  0  0  0
 18103  1  0  0  0
 19 20  1  0  0  0
 19 24  1  0  0  0
 20 21  2  0  0  0
 20104  1  0  0  0
 21 23  1  0  0  0
 22 28  1  0  0  0
 22 32  2  0  0  0
 26 27  1  0  0  0
 28105  1  0  0  0
 28106  1  0  0  0
 29107  1  0  0  0
 29108  1  0  0  0
 33 34  1  0  0  0
 33 66  1  0  0  0
 33 70  2  0  0  0
 34 36  1  0  0  0
 34 59  1  0  0  0
 34109  1  0  0  0
 35 44  2  0  0  0
 35 45  1  0  0  0
 35 68  1  0  0  0
 36 56  1  0  0  0
 36110  1  0  0  0
 37 39  1  0  0  0
 37 47  1  0  0  0
 37 66  1  0  0  0
 37111  1  0  0  0
 38 43  2  0  0  0
 38 46  1  0  0  0
 38 47  1  0  0  0
 39 64  1  0  0  0
 39 67  2  0  0  0
 40 52  1  0  0  0
 40 53  2  0  0  0
 40 58  1  0  0  0
 41112  1  0  0  0
 41113  1  0  0  0
 41114  1  0  0  0
 41 48  1  0  0  0
 42 43  1  0  0  0
 42 66  1  0  0  0
 42115  1  0  0  0
 42116  1  0  0  0
 43 44  1  0  0  0
 44117  1  0  0  0
 45 46  2  0  0  0
 45118  1  0  0  0
 46119  1  0  0  0
 47120  1  0  0  0
 47121  1  0  0  0
 48 56  1  0  0  0
 48 65  1  0  0  0
 48122  1  0  0  0
 49 50  1  0  0  0
 49 53  1  0  0  0
 49 64  1  0  0  0
 49123  1  0  0  0
 50 51  1  0  0  0
 50124  1  0  0  0
 50125  1  0  0  0
 51 52  1  0  0  0
 51126  1  0  0  0
 51127  1  0  0  0
 52128  1  0  0  0
 52129  1  0  0  0
 53 54  1  0  0  0
 54 55  2  0  0  0
 54130  1  0  0  0
 55 57  1  0  0  0
 55131  1  0  0  0
 56 69  2  0  0  0
 57 58  2  0  0  0
 57132  1  0  0  0
 58133  1  0  0  0
 59 60  1  0  0  0
 59 61  1  0  0  0
 59 62  1  0  0  0
 60134  1  0  0  0
 60135  1  0  0  0
 60136  1  0  0  0
 61137  1  0  0  0
 61138  1  0  0  0
 61139  1  0  0  0
 62140  1  0  0  0
 62141  1  0  0  0
 62142  1  0  0  0
 63 65  1  0  0  0
 63143  1  0  0  0
 63144  1  0  0  0
 63145  1  0  0  0
 64146  1  0  0  0
 65147  1  0  0  0
 68 78  1  0  0  0
 71 72  2  0  0  0
 71 73  1  0  0  0
 71148  1  0  0  0
 72 75  1  0  0  0
 72149  1  0  0  0
 73 76  2  0  0  0
 73150  1  0  0  0
 74 75  2  0  0  0
 74 76  1  0  0  0
 74151  1  0  0  0
 75 77  1  0  0  0
 76 86  1  0  0  0
 77 87  1  0  0  0
 77 88  2  0  0  0
 78 79  1  0  0  0
 78 85  2  0  0  0
 79 80  1  0  0  0
 79152  1  0  0  0
 79153  1  0  0  0
 80 81  1  0  0  0
 80154  1  0  0  0
 80155  1  0  0  0
 81 82  1  0  0  0
 81156  1  0  0  0
 81157  1  0  0  0
 82 83  1  0  0  0
 82158  1  0  0  0
 82159  1  0  0  0
 83 84  1  0  0  0
 83160  1  0  0  0
 83161  1  0  0  0
 84 87  1  0  0  0
 84162  1  0  0  0
 84163  1  0  0  0
 85164  1  0  0  0
 86165  1  0  0  0
 87166  1  0  0  0
M  ISO  4   1 100  68 101  78 101  86 100
M  END
> <chiral flag>
0

> <version>
0

> <s_m_source_file>
/data/baiqing/PycharmProjects/Reinvent-master-3.2/result/LINK_invent/BTK/process_docking_weight1_custom_sum_contain_oxygen_bond_distance_aromatic_linkinvent_7_9_3/rearranged_h_0003.sdf

> <i_m_source_file_index>
60

> <r_mmod_Potential_Energy-OPLS-2005>
44875.6328125

> <r_mmod_Stretch_Energy-OPLS-2005>
21218.615234375

> <r_mmod_Bend_Energy-OPLS-2005>
2114.57446289062

> <r_mmod_Torsional_Energy-OPLS-2005>
541.460144042969

> <r_mmod_Improper_Torsional_Energy-OPLS-2005>
83.4378890991211

> <r_mmod_Van_der_Waal_Energy-OPLS-2005>
5213.998046875

> <r_mmod_Electrostatic_Energy-OPLS-2005>
-387.298767089844

> <r_mmod_Solvation_Energy-OPLS-2005>
-261.821929931641

> <b_mmod_Minimization_Converged-OPLS-2005>
0

> <r_mmod_RMS_Derivative-OPLS-2005>
43.4680786132812

$$$$
61
                    3D
 Structure written by MMmdl.
143150  0  0  1  0            999 V2000
  -30.3808  -15.3587   20.3542 C   0  0  0  0  0  0
  -30.4414  -12.8695   19.5451 C   0  0  0  0  0  0
  -29.5456  -12.6010   18.3059 C   0  0  0  0  0  0
  -28.0973  -12.3048   18.7300 C   0  0  0  0  0  0
  -27.6114  -13.2827   19.8273 C   0  0  2  0  0  0
  -28.6383  -13.4821   20.9645 C   0  0  0  0  0  0
  -25.2376  -13.8254   20.5749 C   0  0  0  0  0  0
  -24.1738  -13.0434   20.9261 C   0  0  0  0  0  0
  -24.6405  -11.6935   20.8760 C   0  0  0  0  0  0
  -23.9100  -10.4292   21.0402 C   0  0  0  0  0  0
  -24.3642   -9.4205   21.9182 C   0  0  0  0  0  0
  -23.6307   -8.2245   22.0754 C   0  0  0  0  0  0
  -22.4288   -8.0285   21.3545 C   0  0  0  0  0  0
  -21.9931   -9.0260   20.4645 C   0  0  0  0  0  0
  -22.7269  -10.2133   20.3053 C   0  0  0  0  0  0
  -21.6857   -6.0739   22.5279 C   0  0  0  0  0  0
  -21.4017   -6.5642   23.8213 C   0  0  0  0  0  0
  -21.3660   -5.6793   24.9174 C   0  0  0  0  0  0
  -21.6044   -4.3056   24.7224 C   0  0  0  0  0  0
  -21.8819   -3.8149   23.4345 C   0  0  0  0  0  0
  -21.9194   -4.6966   22.3402 C   0  0  0  0  0  0
  -22.7753  -13.5181   21.1906 C   0  0  0  0  0  0
  -22.1662   -4.2151   21.0979 F   0  0  0  0  0  0
  -21.5628   -3.4539   25.7736 F   0  0  0  0  0  0
  -29.8639  -14.0199   20.3464 N   0  0  0  0  0  0
  -26.2814  -12.9543   20.3228 N   0  0  0  0  0  0
  -25.9345  -11.6640   20.5717 N   0  0  0  0  0  0
  -22.0414  -12.8162   22.0460 N   0  0  0  0  0  0
  -25.3992  -15.1990   20.4175 N   0  0  0  0  0  0
  -31.5906  -15.3862   20.0767 O   0  0  0  0  0  0
  -21.6646   -6.8885   21.4242 O   0  0  0  0  0  0
  -22.3431  -14.5482   20.6745 O   0  0  0  0  0  0
  -24.6680  -31.8163   23.1643 C   0  0  0  0  0  0
  -25.9334  -32.4549   23.8132 C   0  0  1  0  0  0
  -27.2249  -26.8652   20.1924 C   0  0  0  0  0  0
  -25.5977  -33.8367   24.2032 N   0  0  0  0  0  0
  -23.4866  -30.4238   21.5140 C   0  0  2  0  0  0
  -24.9428  -28.7975   20.1096 C   0  0  0  0  0  0
  -22.7693  -29.4398   22.4756 C   0  0  0  0  0  0
  -18.0326  -28.1412   22.8463 C   0  0  0  0  0  0
  -24.1494  -36.7191   23.2649 C   0  0  0  0  0  0
  -26.0580  -30.6015   21.4051 C   0  0  0  0  0  0
  -26.1253  -29.1845   20.7510 C   0  0  0  0  0  0
  -27.2550  -28.2394   20.7685 C   0  0  0  0  0  0
  -26.0163  -26.6484   19.4906 C   0  0  0  0  0  0
  -24.9177  -27.5522   19.4581 C   0  0  0  0  0  0
  -23.7305  -29.7322   20.1426 C   0  0  0  0  0  0
  -25.4138  -36.2945   24.0293 C   0  0  1  0  0  0
  -20.5953  -28.3760   23.1176 C   0  0  2  0  0  0
  -20.6799  -26.9435   22.5404 C   0  0  0  0  0  0
  -19.5774  -26.6374   21.5215 C   0  0  0  0  0  0
  -18.1956  -26.7944   22.1621 C   0  0  0  0  0  0
  -19.1589  -28.8908   23.2804 C   0  0  0  0  0  0
  -18.9498  -30.1496   23.8843 C   0  0  0  0  0  0
  -17.6490  -30.6600   24.0554 C   0  0  0  0  0  0
  -25.9107  -34.9329   23.4991 C   0  0  0  0  0  0
  -16.5381  -29.9085   23.6345 C   0  0  0  0  0  0
  -16.7308  -28.6506   23.0363 C   0  0  0  0  0  0
  -26.4567  -31.6524   25.0691 C   0  0  0  0  0  0
  -25.3675  -31.3795   26.1335 C   0  0  0  0  0  0
  -27.0479  -30.2883   24.6478 C   0  0  0  0  0  0
  -27.6043  -32.4354   25.7499 C   0  0  0  0  0  0
  -27.5568  -37.1752   24.8466 C   0  0  0  0  0  0
  -21.4356  -29.3035   22.3512 N   0  0  0  0  0  0
  -26.4277  -37.3689   23.9408 N   0  0  0  0  0  0
  -24.7592  -30.9763   22.0810 N   0  0  0  0  0  0
  -23.4212  -28.7982   23.3032 O   0  0  0  0  0  0
  -28.2201  -25.7363   20.3155 O   0  0  0  0  0  0
  -26.5730  -34.8879   22.4595 O   0  0  0  0  0  0
  -23.5736  -32.1164   23.6697 O   0  0  0  0  0  0
  -29.0765  -19.5235   20.6625 C   0  0  0  0  0  0
  -28.7574  -22.5075   20.6672 C   0  0  0  0  0  0
  -28.1438  -24.0930   19.9477 C   0  0  0  0  0  0
  -29.5685  -16.6114   20.5146 N   0  0  0  0  0  0
  -29.1067  -20.9233   20.1271 N   0  0  0  0  0  0
  -29.7308  -18.2849   20.1430 N   0  0  0  0  0  0
  -28.4268  -19.3695   21.6962 O   0  0  0  0  0  0
  -31.4565  -13.0889   19.2118 H   0  0  0  0  0  0
  -30.5285  -11.9725   20.1605 H   0  0  0  0  0  0
  -29.9435  -11.7719   17.7191 H   0  0  0  0  0  0
  -29.5619  -13.4750   17.6530 H   0  0  0  0  0  0
  -28.0670  -11.2837   19.1121 H   0  0  0  0  0  0
  -27.4309  -12.3299   17.8669 H   0  0  0  0  0  0
  -27.5189  -14.2434   19.3192 H   0  0  0  0  0  0
  -28.8232  -12.5531   21.5060 H   0  0  0  0  0  0
  -28.2578  -14.1961   21.6965 H   0  0  0  0  0  0
  -25.2782   -9.5680   22.4764 H   0  0  0  0  0  0
  -24.0010   -7.4636   22.7477 H   0  0  0  0  0  0
  -21.0861   -8.8785   19.8951 H   0  0  0  0  0  0
  -22.3728  -10.9674   19.6164 H   0  0  0  0  0  0
  -21.2012   -7.6150   23.9717 H   0  0  0  0  0  0
  -21.1482   -6.0523   25.9077 H   0  0  0  0  0  0
  -22.0596   -2.7611   23.2844 H   0  0  0  0  0  0
  -22.4050  -11.9835   22.4854 H   0  0  0  0  0  0
  -21.1024  -13.1165   22.2663 H   0  0  0  0  0  0
  -24.6246  -15.8449   20.5256 H   0  0  0  0  0  0
  -26.2314  -15.6397   20.0487 H   0  0  0  0  0  0
  -26.7406  -32.5067   23.0844 H   0  0  0  0  0  0
  -25.0056  -33.9433   25.0137 H   0  0  0  0  0  0
  -22.8031  -31.2569   21.3370 H   0  0  0  0  0  0
  -23.3770  -35.9506   23.3272 H   0  0  0  0  0  0
  -24.3568  -36.8882   22.2071 H   0  0  0  0  0  0
  -23.7238  -37.6359   23.6738 H   0  0  0  0  0  0
  -26.2454  -31.3382   20.6228 H   0  0  0  0  0  0
  -26.9151  -30.6613   22.0638 H   0  0  0  0  0  0
  -28.1446  -28.5323   21.3082 H   0  0  0  0  0  0
  -25.8806  -25.6997   18.9924 H   0  0  0  0  0  0
  -24.0214  -27.2506   18.9336 H   0  0  0  0  0  0
  -23.8894  -30.4978   19.3824 H   0  0  0  0  0  0
  -22.8392  -29.1884   19.8247 H   0  0  0  0  0  0
  -25.1340  -36.1730   25.0784 H   0  0  0  0  0  0
  -21.0041  -28.3374   24.1300 H   0  0  0  0  0  0
  -20.5672  -26.2381   23.3652 H   0  0  0  0  0  0
  -21.6662  -26.7399   22.1216 H   0  0  0  0  0  0
  -19.6932  -25.6271   21.1281 H   0  0  0  0  0  0
  -19.6715  -27.3154   20.6721 H   0  0  0  0  0  0
  -17.4225  -26.6686   21.4025 H   0  0  0  0  0  0
  -18.0348  -26.0099   22.9030 H   0  0  0  0  0  0
  -19.7974  -30.7327   24.2188 H   0  0  0  0  0  0
  -17.5041  -31.6274   24.5166 H   0  0  0  0  0  0
  -15.5378  -30.2969   23.7701 H   0  0  0  0  0  0
  -15.8708  -28.0806   22.7110 H   0  0  0  0  0  0
  -24.5876  -30.7126   25.7642 H   0  0  0  0  0  0
  -24.8844  -32.3002   26.4614 H   0  0  0  0  0  0
  -25.7890  -30.9058   27.0209 H   0  0  0  0  0  0
  -26.3163  -29.6535   24.1467 H   0  0  0  0  0  0
  -27.3965  -29.7277   25.5163 H   0  0  0  0  0  0
  -27.9121  -30.4047   23.9936 H   0  0  0  0  0  0
  -27.2598  -33.3706   26.1926 H   0  0  0  0  0  0
  -28.3931  -32.6833   25.0385 H   0  0  0  0  0  0
  -28.0626  -31.8584   26.5542 H   0  0  0  0  0  0
  -28.2561  -38.0070   24.7516 H   0  0  0  0  0  0
  -28.1089  -36.2595   24.6291 H   0  0  0  0  0  0
  -27.2284  -37.1388   25.8867 H   0  0  0  0  0  0
  -20.9626  -29.8710   21.6617 H   0  0  0  0  0  0
  -26.0118  -38.2743   24.1419 H   0  0  0  0  0  0
  -28.1332  -22.3469   21.5467 H   0  0  0  0  0  0
  -29.7180  -22.7965   21.0938 H   0  0  0  0  0  0
  -27.0803  -23.9124   19.7957 H   0  0  0  0  0  0
  -28.5485  -24.0828   18.9357 H   0  0  0  0  0  0
  -28.6066  -16.4678   20.7895 H   0  0  0  0  0  0
  -29.5886  -20.9450   19.2374 H   0  0  0  0  0  0
  -30.3241  -18.3695   19.3273 H   0  0  0  0  0  0
  1 25  1  0  0  0
  1 30  2  0  0  0
  1 74  1  0  0  0
  2  3  1  0  0  0
  2 25  1  0  0  0
  2 78  1  0  0  0
  2 79  1  0  0  0
  3  4  1  0  0  0
  3 80  1  0  0  0
  3 81  1  0  0  0
  4  5  1  0  0  0
  4 82  1  0  0  0
  4 83  1  0  0  0
  5  6  1  0  0  0
  5 26  1  0  0  0
  5 84  1  0  0  0
  6 25  1  0  0  0
  6 85  1  0  0  0
  6 86  1  0  0  0
  7  8  2  0  0  0
  7 26  1  0  0  0
  7 29  1  0  0  0
  8  9  1  0  0  0
  8 22  1  0  0  0
  9 10  1  0  0  0
  9 27  2  0  0  0
 10 11  2  0  0  0
 10 15  1  0  0  0
 11 12  1  0  0  0
 11 87  1  0  0  0
 12 13  2  0  0  0
 12 88  1  0  0  0
 13 14  1  0  0  0
 13 31  1  0  0  0
 14 15  2  0  0  0
 14 89  1  0  0  0
 15 90  1  0  0  0
 16 17  2  0  0  0
 16 21  1  0  0  0
 16 31  1  0  0  0
 17 18  1  0  0  0
 17 91  1  0  0  0
 18 19  2  0  0  0
 18 92  1  0  0  0
 19 20  1  0  0  0
 19 24  1  0  0  0
 20 21  2  0  0  0
 20 93  1  0  0  0
 21 23  1  0  0  0
 22 28  1  0  0  0
 22 32  2  0  0  0
 26 27  1  0  0  0
 28 94  1  0  0  0
 28 95  1  0  0  0
 29 96  1  0  0  0
 29 97  1  0  0  0
 33 34  1  0  0  0
 33 66  1  0  0  0
 33 70  2  0  0  0
 34 36  1  0  0  0
 34 59  1  0  0  0
 34 98  1  0  0  0
 35 44  2  0  0  0
 35 45  1  0  0  0
 35 68  1  0  0  0
 36 56  1  0  0  0
 36 99  1  0  0  0
 37 39  1  0  0  0
 37 47  1  0  0  0
 37 66  1  0  0  0
 37100  1  0  0  0
 38 43  2  0  0  0
 38 46  1  0  0  0
 38 47  1  0  0  0
 39 64  1  0  0  0
 39 67  2  0  0  0
 40 52  1  0  0  0
 40 53  2  0  0  0
 40 58  1  0  0  0
 41101  1  0  0  0
 41102  1  0  0  0
 41103  1  0  0  0
 41 48  1  0  0  0
 42 43  1  0  0  0
 42 66  1  0  0  0
 42104  1  0  0  0
 42105  1  0  0  0
 43 44  1  0  0  0
 44106  1  0  0  0
 45 46  2  0  0  0
 45107  1  0  0  0
 46108  1  0  0  0
 47109  1  0  0  0
 47110  1  0  0  0
 48 56  1  0  0  0
 48 65  1  0  0  0
 48111  1  0  0  0
 49 50  1  0  0  0
 49 53  1  0  0  0
 49 64  1  0  0  0
 49112  1  0  0  0
 50 51  1  0  0  0
 50113  1  0  0  0
 50114  1  0  0  0
 51 52  1  0  0  0
 51115  1  0  0  0
 51116  1  0  0  0
 52117  1  0  0  0
 52118  1  0  0  0
 53 54  1  0  0  0
 54 55  2  0  0  0
 54119  1  0  0  0
 55 57  1  0  0  0
 55120  1  0  0  0
 56 69  2  0  0  0
 57 58  2  0  0  0
 57121  1  0  0  0
 58122  1  0  0  0
 59 60  1  0  0  0
 59 61  1  0  0  0
 59 62  1  0  0  0
 60123  1  0  0  0
 60124  1  0  0  0
 60125  1  0  0  0
 61126  1  0  0  0
 61127  1  0  0  0
 61128  1  0  0  0
 62129  1  0  0  0
 62130  1  0  0  0
 62131  1  0  0  0
 63 65  1  0  0  0
 63132  1  0  0  0
 63133  1  0  0  0
 63134  1  0  0  0
 64135  1  0  0  0
 65136  1  0  0  0
 68 73  1  0  0  0
 71 75  1  0  0  0
 71 76  1  0  0  0
 71 77  2  0  0  0
 72 73  1  0  0  0
 72 75  1  0  0  0
 72137  1  0  0  0
 72138  1  0  0  0
 73139  1  0  0  0
 73140  1  0  0  0
 74 76  1  0  0  0
 74141  1  0  0  0
 75142  1  0  0  0
 76143  1  0  0  0
M  ISO  4   1 100  68 101  73 101  74 100
M  END
> <chiral flag>
0

> <version>
0

> <s_m_source_file>
/data/baiqing/PycharmProjects/Reinvent-master-3.2/result/LINK_invent/BTK/process_docking_weight1_custom_sum_contain_oxygen_bond_distance_aromatic_linkinvent_7_9_3/rearranged_h_0003.sdf

> <i_m_source_file_index>
61

> <r_mmod_Potential_Energy-OPLS-2005>
1282.99194335938

> <r_mmod_Stretch_Energy-OPLS-2005>
727.559265136719

> <r_mmod_Bend_Energy-OPLS-2005>
485.339202880859

> <r_mmod_Torsional_Energy-OPLS-2005>
210.327926635742

> <r_mmod_Improper_Torsional_Energy-OPLS-2005>
4.00612926483154

> <r_mmod_Van_der_Waal_Energy-OPLS-2005>
108.630920410156

> <r_mmod_Electrostatic_Energy-OPLS-2005>
-551.159545898438

> <r_mmod_Solvation_Energy-OPLS-2005>
-264.856475830078

> <b_mmod_Minimization_Converged-OPLS-2005>
1

> <r_mmod_RMS_Derivative-OPLS-2005>
0.0353440679609776

$$$$
62
                    3D
 Structure written by MMmdl.
143150  0  0  1  0            999 V2000
  -30.3355  -15.5533   20.3377 C   0  0  0  0  0  0
  -30.4278  -13.0206   19.5356 C   0  0  0  0  0  0
  -29.5464  -12.6353   18.3151 C   0  0  0  0  0  0
  -28.1142  -12.2965   18.7563 C   0  0  0  0  0  0
  -27.5983  -13.2998   19.8136 C   0  0  2  0  0  0
  -28.6188  -13.6020   20.9348 C   0  0  0  0  0  0
  -25.2335  -13.8272   20.5783 C   0  0  0  0  0  0
  -24.1716  -13.0431   20.9280 C   0  0  0  0  0  0
  -24.6407  -11.6939   20.8763 C   0  0  0  0  0  0
  -23.9108  -10.4290   21.0398 C   0  0  0  0  0  0
  -24.3646   -9.4204   21.9179 C   0  0  0  0  0  0
  -23.6308   -8.2245   22.0753 C   0  0  0  0  0  0
  -22.4289   -8.0285   21.3544 C   0  0  0  0  0  0
  -21.9934   -9.0259   20.4644 C   0  0  0  0  0  0
  -22.7275  -10.2132   20.3050 C   0  0  0  0  0  0
  -21.6858   -6.0738   22.5278 C   0  0  0  0  0  0
  -21.4019   -6.5642   23.8212 C   0  0  0  0  0  0
  -21.3660   -5.6794   24.9173 C   0  0  0  0  0  0
  -21.6043   -4.3057   24.7224 C   0  0  0  0  0  0
  -21.8819   -3.8148   23.4345 C   0  0  0  0  0  0
  -21.9194   -4.6965   22.3402 C   0  0  0  0  0  0
  -22.7731  -13.5167   21.1917 C   0  0  0  0  0  0
  -22.1662   -4.2150   21.0979 F   0  0  0  0  0  0
  -21.5626   -3.4540   25.7737 F   0  0  0  0  0  0
  -29.8047  -14.1993   20.2827 N   0  0  0  0  0  0
  -26.2777  -12.9589   20.3227 N   0  0  0  0  0  0
  -25.9352  -11.6669   20.5705 N   0  0  0  0  0  0
  -22.0396  -12.8145   22.0471 N   0  0  0  0  0  0
  -25.3934  -15.2012   20.4226 N   0  0  0  0  0  0
  -31.5687  -15.5024   20.1771 O   0  0  0  0  0  0
  -21.6647   -6.8885   21.4242 O   0  0  0  0  0  0
  -22.3406  -14.5465   20.6752 O   0  0  0  0  0  0
  -24.6800  -31.8038   23.1543 C   0  0  0  0  0  0
  -25.9399  -32.4487   23.8074 C   0  0  1  0  0  0
  -27.2247  -26.7418   20.2123 C   0  0  0  0  0  0
  -25.5993  -33.8310   24.1966 N   0  0  0  0  0  0
  -23.5038  -30.4073   21.5074 C   0  0  2  0  0  0
  -24.9602  -28.7545   20.1181 C   0  0  0  0  0  0
  -22.7746  -29.4338   22.4723 C   0  0  0  0  0  0
  -18.0336  -28.1422   22.8456 C   0  0  0  0  0  0
  -24.1495  -36.7162   23.2653 C   0  0  0  0  0  0
  -26.0826  -30.5501   21.4119 C   0  0  0  0  0  0
  -26.1487  -29.1190   20.7619 C   0  0  0  0  0  0
  -27.2682  -28.1399   20.7756 C   0  0  0  0  0  0
  -26.0029  -26.5744   19.5148 C   0  0  0  0  0  0
  -24.9238  -27.5069   19.4714 C   0  0  0  0  0  0
  -23.7552  -29.7060   20.1417 C   0  0  0  0  0  0
  -25.4144  -36.2907   24.0285 C   0  0  1  0  0  0
  -20.5969  -28.3778   23.1151 C   0  0  2  0  0  0
  -20.6806  -26.9441   22.5404 C   0  0  0  0  0  0
  -19.5783  -26.6372   21.5218 C   0  0  0  0  0  0
  -18.1963  -26.7949   22.1618 C   0  0  0  0  0  0
  -19.1601  -28.8923   23.2785 C   0  0  0  0  0  0
  -18.9509  -30.1507   23.8830 C   0  0  0  0  0  0
  -17.6500  -30.6605   24.0552 C   0  0  0  0  0  0
  -25.9122  -34.9297   23.4960 C   0  0  0  0  0  0
  -16.5389  -29.9089   23.6351 C   0  0  0  0  0  0
  -16.7316  -28.6511   23.0366 C   0  0  0  0  0  0
  -26.4590  -31.6507   25.0681 C   0  0  0  0  0  0
  -25.3664  -31.3815   26.1302 C   0  0  0  0  0  0
  -27.0517  -30.2851   24.6551 C   0  0  0  0  0  0
  -27.6045  -32.4359   25.7497 C   0  0  0  0  0  0
  -27.5563  -37.1737   24.8467 C   0  0  0  0  0  0
  -21.4398  -29.3031   22.3473 N   0  0  0  0  0  0
  -26.4272  -37.3665   23.9408 N   0  0  0  0  0  0
  -24.7786  -30.9523   22.0774 N   0  0  0  0  0  0
  -23.4209  -28.7935   23.3052 O   0  0  0  0  0  0
  -28.2041  -25.5512   20.2801 O   0  0  0  0  0  0
  -26.5758  -34.8869   22.4574 O   0  0  0  0  0  0
  -23.5828  -32.1094   23.6523 O   0  0  0  0  0  0
  -28.7651  -20.2674   20.2904 C   0  0  0  0  0  0
  -29.0007  -22.1779   20.3080 C   0  0  0  0  0  0
  -29.8051  -18.6520   20.3467 C   0  0  0  0  0  0
  -28.0034  -23.8204   20.2032 C   0  0  0  0  0  0
  -29.5782  -16.9027   20.3825 N   0  0  0  0  0  0
  -31.4268  -13.2705   19.1767 H   0  0  0  0  0  0
  -30.5690  -12.1647   20.1980 H   0  0  0  0  0  0
  -29.9845  -11.7945   17.7757 H   0  0  0  0  0  0
  -29.5210  -13.4708   17.6137 H   0  0  0  0  0  0
  -28.1271  -11.2932   19.1840 H   0  0  0  0  0  0
  -27.4439  -12.2569   17.8969 H   0  0  0  0  0  0
  -27.4709  -14.2301   19.2582 H   0  0  0  0  0  0
  -28.8604  -12.7103   21.5153 H   0  0  0  0  0  0
  -28.2012  -14.3242   21.6380 H   0  0  0  0  0  0
  -25.2785   -9.5679   22.4764 H   0  0  0  0  0  0
  -24.0009   -7.4638   22.7481 H   0  0  0  0  0  0
  -21.0862   -8.8785   19.8952 H   0  0  0  0  0  0
  -22.3730  -10.9673   19.6163 H   0  0  0  0  0  0
  -21.2015   -7.6151   23.9715 H   0  0  0  0  0  0
  -21.1481   -6.0525   25.9076 H   0  0  0  0  0  0
  -22.0596   -2.7611   23.2846 H   0  0  0  0  0  0
  -22.4039  -11.9821   22.4865 H   0  0  0  0  0  0
  -21.1004  -13.1141   22.2671 H   0  0  0  0  0  0
  -24.6207  -15.8487   20.5359 H   0  0  0  0  0  0
  -26.2324  -15.6443   20.0726 H   0  0  0  0  0  0
  -26.7477  -32.4971   23.0784 H   0  0  0  0  0  0
  -25.0059  -33.9354   25.0062 H   0  0  0  0  0  0
  -22.8274  -31.2439   21.3201 H   0  0  0  0  0  0
  -23.3774  -35.9475   23.3272 H   0  0  0  0  0  0
  -24.3562  -36.8864   22.2076 H   0  0  0  0  0  0
  -23.7238  -37.6325   23.6753 H   0  0  0  0  0  0
  -26.2810  -31.2776   20.6238 H   0  0  0  0  0  0
  -26.9354  -30.6164   22.0750 H   0  0  0  0  0  0
  -28.1647  -28.4248   21.3080 H   0  0  0  0  0  0
  -25.8443  -25.6278   19.0182 H   0  0  0  0  0  0
  -24.0252  -27.2191   18.9430 H   0  0  0  0  0  0
  -23.9278  -30.4668   19.3796 H   0  0  0  0  0  0
  -22.8607  -29.1707   19.8189 H   0  0  0  0  0  0
  -25.1351  -36.1675   25.0775 H   0  0  0  0  0  0
  -21.0052  -28.3402   24.1277 H   0  0  0  0  0  0
  -20.5676  -26.2401   23.3662 H   0  0  0  0  0  0
  -21.6667  -26.7393   22.1218 H   0  0  0  0  0  0
  -19.6942  -25.6265   21.1292 H   0  0  0  0  0  0
  -19.6728  -27.3145   20.6718 H   0  0  0  0  0  0
  -17.4233  -26.6692   21.4021 H   0  0  0  0  0  0
  -18.0352  -26.0108   22.9031 H   0  0  0  0  0  0
  -19.7986  -30.7339   24.2170 H   0  0  0  0  0  0
  -17.5053  -31.6279   24.5166 H   0  0  0  0  0  0
  -15.5388  -30.2971   23.7716 H   0  0  0  0  0  0
  -15.8715  -28.0809   22.7122 H   0  0  0  0  0  0
  -24.5873  -30.7140   25.7600 H   0  0  0  0  0  0
  -24.8826  -32.3036   26.4537 H   0  0  0  0  0  0
  -25.7846  -30.9101   27.0204 H   0  0  0  0  0  0
  -26.3228  -29.6473   24.1543 H   0  0  0  0  0  0
  -27.3966  -29.7288   25.5278 H   0  0  0  0  0  0
  -27.9198  -30.3989   24.0055 H   0  0  0  0  0  0
  -27.2593  -33.3729   26.1879 H   0  0  0  0  0  0
  -28.3955  -32.6809   25.0396 H   0  0  0  0  0  0
  -28.0603  -31.8616   26.5574 H   0  0  0  0  0  0
  -28.2553  -38.0057   24.7511 H   0  0  0  0  0  0
  -28.1085  -36.2580   24.6299 H   0  0  0  0  0  0
  -27.2276  -37.1380   25.8868 H   0  0  0  0  0  0
  -20.9695  -29.8687   21.6544 H   0  0  0  0  0  0
  -26.0103  -38.2714   24.1421 H   0  0  0  0  0  0
  -28.1541  -20.1192   19.3998 H   0  0  0  0  0  0
  -28.0571  -20.1169   21.1057 H   0  0  0  0  0  0
  -29.7448  -22.3205   19.5244 H   0  0  0  0  0  0
  -29.5730  -22.3235   21.2244 H   0  0  0  0  0  0
  -30.4440  -18.8018   21.2176 H   0  0  0  0  0  0
  -30.4945  -18.7676   19.5099 H   0  0  0  0  0  0
  -27.2299  -23.6732   20.9571 H   0  0  0  0  0  0
  -27.4624  -23.7113   19.2633 H   0  0  0  0  0  0
  -28.5926  -16.6942   20.4591 H   0  0  0  0  0  0
  1 25  1  0  0  0
  1 30  2  0  0  0
  1 75  1  0  0  0
  2  3  1  0  0  0
  2 25  1  0  0  0
  2 76  1  0  0  0
  2 77  1  0  0  0
  3  4  1  0  0  0
  3 78  1  0  0  0
  3 79  1  0  0  0
  4  5  1  0  0  0
  4 80  1  0  0  0
  4 81  1  0  0  0
  5  6  1  0  0  0
  5 26  1  0  0  0
  5 82  1  0  0  0
  6 25  1  0  0  0
  6 83  1  0  0  0
  6 84  1  0  0  0
  7  8  2  0  0  0
  7 26  1  0  0  0
  7 29  1  0  0  0
  8  9  1  0  0  0
  8 22  1  0  0  0
  9 10  1  0  0  0
  9 27  2  0  0  0
 10 11  2  0  0  0
 10 15  1  0  0  0
 11 12  1  0  0  0
 11 85  1  0  0  0
 12 13  2  0  0  0
 12 86  1  0  0  0
 13 14  1  0  0  0
 13 31  1  0  0  0
 14 15  2  0  0  0
 14 87  1  0  0  0
 15 88  1  0  0  0
 16 17  2  0  0  0
 16 21  1  0  0  0
 16 31  1  0  0  0
 17 18  1  0  0  0
 17 89  1  0  0  0
 18 19  2  0  0  0
 18 90  1  0  0  0
 19 20  1  0  0  0
 19 24  1  0  0  0
 20 21  2  0  0  0
 20 91  1  0  0  0
 21 23  1  0  0  0
 22 28  1  0  0  0
 22 32  2  0  0  0
 26 27  1  0  0  0
 28 92  1  0  0  0
 28 93  1  0  0  0
 29 94  1  0  0  0
 29 95  1  0  0  0
 33 34  1  0  0  0
 33 66  1  0  0  0
 33 70  2  0  0  0
 34 36  1  0  0  0
 34 59  1  0  0  0
 34 96  1  0  0  0
 35 44  2  0  0  0
 35 45  1  0  0  0
 35 68  1  0  0  0
 36 56  1  0  0  0
 36 97  1  0  0  0
 37 39  1  0  0  0
 37 47  1  0  0  0
 37 66  1  0  0  0
 37 98  1  0  0  0
 38 43  2  0  0  0
 38 46  1  0  0  0
 38 47  1  0  0  0
 39 64  1  0  0  0
 39 67  2  0  0  0
 40 52  1  0  0  0
 40 53  2  0  0  0
 40 58  1  0  0  0
 41 99  1  0  0  0
 41100  1  0  0  0
 41101  1  0  0  0
 41 48  1  0  0  0
 42 43  1  0  0  0
 42 66  1  0  0  0
 42102  1  0  0  0
 42103  1  0  0  0
 43 44  1  0  0  0
 44104  1  0  0  0
 45 46  2  0  0  0
 45105  1  0  0  0
 46106  1  0  0  0
 47107  1  0  0  0
 47108  1  0  0  0
 48 56  1  0  0  0
 48 65  1  0  0  0
 48109  1  0  0  0
 49 50  1  0  0  0
 49 53  1  0  0  0
 49 64  1  0  0  0
 49110  1  0  0  0
 50 51  1  0  0  0
 50111  1  0  0  0
 50112  1  0  0  0
 51 52  1  0  0  0
 51113  1  0  0  0
 51114  1  0  0  0
 52115  1  0  0  0
 52116  1  0  0  0
 53 54  1  0  0  0
 54 55  2  0  0  0
 54117  1  0  0  0
 55 57  1  0  0  0
 55118  1  0  0  0
 56 69  2  0  0  0
 57 58  2  0  0  0
 57119  1  0  0  0
 58120  1  0  0  0
 59 60  1  0  0  0
 59 61  1  0  0  0
 59 62  1  0  0  0
 60121  1  0  0  0
 60122  1  0  0  0
 60123  1  0  0  0
 61124  1  0  0  0
 61125  1  0  0  0
 61126  1  0  0  0
 62127  1  0  0  0
 62128  1  0  0  0
 62129  1  0  0  0
 63 65  1  0  0  0
 63130  1  0  0  0
 63131  1  0  0  0
 63132  1  0  0  0
 64133  1  0  0  0
 65134  1  0  0  0
 68 74  1  0  0  0
 71 72  1  0  0  0
 71 73  1  0  0  0
 71135  1  0  0  0
 71136  1  0  0  0
 72 74  1  0  0  0
 72137  1  0  0  0
 72138  1  0  0  0
 73 75  1  0  0  0
 73139  1  0  0  0
 73140  1  0  0  0
 74141  1  0  0  0
 74142  1  0  0  0
 75143  1  0  0  0
M  ISO  4   1 100  68 101  74 101  75 100
M  END
> <chiral flag>
0

> <version>
0

> <s_m_source_file>
/data/baiqing/PycharmProjects/Reinvent-master-3.2/result/LINK_invent/BTK/process_docking_weight1_custom_sum_contain_oxygen_bond_distance_aromatic_linkinvent_7_9_3/rearranged_h_0003.sdf

> <i_m_source_file_index>
62

> <r_mmod_Potential_Energy-OPLS-2005>
2236.59155273438

> <r_mmod_Stretch_Energy-OPLS-2005>
1088.18041992188

> <r_mmod_Bend_Energy-OPLS-2005>
600.093139648438

> <r_mmod_Torsional_Energy-OPLS-2005>
206.369812011719

> <r_mmod_Improper_Torsional_Energy-OPLS-2005>
3.66827178001404

> <r_mmod_Van_der_Waal_Energy-OPLS-2005>
110.215888977051

> <r_mmod_Electrostatic_Energy-OPLS-2005>
-352.887237548828

> <r_mmod_Solvation_Energy-OPLS-2005>
-215.827575683594

> <b_mmod_Minimization_Converged-OPLS-2005>
0

> <r_mmod_RMS_Derivative-OPLS-2005>
0.268112510442734

$$$$
63
                    3D
 Structure written by MMmdl.
157165  0  0  1  0            999 V2000
  -30.7458  -14.3818   20.6659 C   0  0  0  0  0  0
  -30.4195  -12.2903   19.3951 C   0  0  0  0  0  0
  -29.4849  -12.5201   18.1920 C   0  0  0  0  0  0
  -28.0081  -12.3778   18.6088 C   0  0  0  0  0  0
  -27.6652  -13.1996   19.8794 C   0  0  2  0  0  0
  -28.7034  -12.9353   20.9916 C   0  0  0  0  0  0
  -25.2604  -13.8150   20.5671 C   0  0  0  0  0  0
  -24.1844  -13.0437   20.9164 C   0  0  0  0  0  0
  -24.6385  -11.6900   20.8724 C   0  0  0  0  0  0
  -23.9050  -10.4290   21.0401 C   0  0  0  0  0  0
  -24.3606   -9.4209   21.9180 C   0  0  0  0  0  0
  -23.6285   -8.2243   22.0753 C   0  0  0  0  0  0
  -22.4268   -8.0278   21.3543 C   0  0  0  0  0  0
  -21.9899   -9.0250   20.4646 C   0  0  0  0  0  0
  -22.7223  -10.2131   20.3052 C   0  0  0  0  0  0
  -21.6852   -6.0733   22.5279 C   0  0  0  0  0  0
  -21.4013   -6.5638   23.8212 C   0  0  0  0  0  0
  -21.3659   -5.6791   24.9174 C   0  0  0  0  0  0
  -21.6044   -4.3054   24.7226 C   0  0  0  0  0  0
  -21.8820   -3.8145   23.4347 C   0  0  0  0  0  0
  -21.9192   -4.6961   22.3402 C   0  0  0  0  0  0
  -22.7869  -13.5242   21.1835 C   0  0  0  0  0  0
  -22.1661   -4.2146   21.0980 F   0  0  0  0  0  0
  -21.5629   -3.4538   25.7739 F   0  0  0  0  0  0
  -30.0422  -13.2398   20.4515 N   0  0  0  0  0  0
  -26.3036  -12.9306   20.3374 N   0  0  0  0  0  0
  -25.9308  -11.6470   20.5754 N   0  0  0  0  0  0
  -22.0509  -12.8238   22.0394 N   0  0  0  0  0  0
  -25.4348  -15.1866   20.4083 N   0  0  0  0  0  0
  -31.8104  -14.6353   20.0917 O   0  0  0  0  0  0
  -21.6636   -6.8874   21.4240 O   0  0  0  0  0  0
  -22.3556  -14.5552   20.6688 O   0  0  0  0  0  0
  -24.6099  -31.8709   23.2129 C   0  0  0  0  0  0
  -25.9011  -32.4838   23.8411 C   0  0  1  0  0  0
  -27.2395  -27.4731   20.0951 C   0  0  0  0  0  0
  -25.5883  -33.8636   24.2346 N   0  0  0  0  0  0
  -23.3968  -30.4926   21.5522 C   0  0  2  0  0  0
  -24.8456  -28.9565   20.1226 C   0  0  0  0  0  0
  -22.7383  -29.4668   22.5015 C   0  0  0  0  0  0
  -18.0265  -28.1371   22.8496 C   0  0  0  0  0  0
  -24.1486  -36.7324   23.2638 C   0  0  0  0  0  0
  -25.9202  -30.8454   21.3622 C   0  0  0  0  0  0
  -26.0001  -29.4776   20.7216 C   0  0  0  0  0  0
  -27.2010  -28.7387   20.7149 C   0  0  0  0  0  0
  -26.0765  -26.9546   19.4936 C   0  0  0  0  0  0
  -24.8748  -27.6892   19.5115 C   0  0  0  0  0  0
  -23.6055  -29.8199   20.1682 C   0  0  0  0  0  0
  -25.4105  -36.3124   24.0342 C   0  0  1  0  0  0
  -20.5851  -28.3651   23.1333 C   0  0  2  0  0  0
  -20.6757  -26.9394   22.5421 C   0  0  0  0  0  0
  -19.5739  -26.6385   21.5212 C   0  0  0  0  0  0
  -18.1916  -26.7919   22.1623 C   0  0  0  0  0  0
  -19.1513  -28.8827   23.2913 C   0  0  0  0  0  0
  -18.9444  -30.1435   23.8920 C   0  0  0  0  0  0
  -17.6449  -30.6582   24.0565 C   0  0  0  0  0  0
  -25.9026  -34.9486   23.5141 C   0  0  0  0  0  0
  -16.5340  -29.9086   23.6322 C   0  0  0  0  0  0
  -16.7256  -28.6501   23.0346 C   0  0  0  0  0  0
  -26.4460  -31.6601   25.0718 C   0  0  0  0  0  0
  -25.3743  -31.3688   26.1478 C   0  0  0  0  0  0
  -27.0286  -30.3053   24.6053 C   0  0  0  0  0  0
  -27.6045  -32.4311   25.7476 C   0  0  0  0  0  0
  -27.5582  -37.1817   24.8466 C   0  0  0  0  0  0
  -21.4117  -29.3027   22.3748 N   0  0  0  0  0  0
  -26.4297  -37.3802   23.9407 N   0  0  0  0  0  0
  -24.6601  -31.0837   22.1016 N   0  0  0  0  0  0
  -23.4170  -28.8217   23.3051 O   0  0  0  0  0  0
  -28.4103  -26.7699   20.0003 O   0  0  0  0  0  0
  -26.5587  -34.8930   22.4701 O   0  0  0  0  0  0
  -23.5302  -32.1447   23.7545 O   0  0  0  0  0  0
  -32.4286  -17.9477   22.7927 C   0  0  0  0  0  0
  -31.9895  -16.6834   22.3594 C   0  0  0  0  0  0
  -31.5490  -19.0471   22.7834 C   0  0  0  0  0  0
  -29.7741  -17.6121   21.9371 C   0  0  0  0  0  0
  -30.6577  -16.5111   21.9221 C   0  0  0  0  0  0
  -30.2121  -18.8922   22.3388 C   0  0  0  0  0  0
  -29.1491  -23.7012   22.0312 C   0  0  0  0  0  0
  -28.3290  -24.6456   21.1370 C   0  0  0  0  0  0
  -28.7128  -22.2306   21.9070 C   0  0  0  0  0  0
  -28.8261  -26.1000   21.1824 C   0  0  0  0  0  0
  -29.7629  -21.2542   22.4542 C   0  0  0  0  0  0
  -30.1668  -15.2444   21.5160 N   0  0  0  0  0  0
  -29.2971  -19.9218   22.2635 O   0  0  0  0  0  0
  -31.4620  -12.3955   19.0891 H   0  0  0  0  0  0
  -30.3230  -11.2681   19.7642 H   0  0  0  0  0  0
  -29.7171  -11.8134   17.3941 H   0  0  0  0  0  0
  -29.6553  -13.5154   17.7784 H   0  0  0  0  0  0
  -27.8138  -11.3197   18.7889 H   0  0  0  0  0  0
  -27.3551  -12.6694   17.7854 H   0  0  0  0  0  0
  -27.7247  -14.2539   19.6081 H   0  0  0  0  0  0
  -28.6704  -11.8875   21.2939 H   0  0  0  0  0  0
  -28.4528  -13.4950   21.8930 H   0  0  0  0  0  0
  -25.2754   -9.5687   22.4750 H   0  0  0  0  0  0
  -23.9997   -7.4636   22.7472 H   0  0  0  0  0  0
  -21.0830   -8.8765   19.8953 H   0  0  0  0  0  0
  -22.3680  -10.9668   19.6159 H   0  0  0  0  0  0
  -21.2006   -7.6146   23.9714 H   0  0  0  0  0  0
  -21.1481   -6.0522   25.9077 H   0  0  0  0  0  0
  -22.0600   -2.7607   23.2849 H   0  0  0  0  0  0
  -22.4119  -11.9893   22.4776 H   0  0  0  0  0  0
  -21.1131  -13.1271   22.2608 H   0  0  0  0  0  0
  -24.6715  -15.8457   20.5159 H   0  0  0  0  0  0
  -26.2924  -15.6227   20.0928 H   0  0  0  0  0  0
  -26.7085  -32.5574   23.1187 H   0  0  0  0  0  0
  -25.0047  -33.9806   25.0500 H   0  0  0  0  0  0
  -22.6837  -31.3076   21.4122 H   0  0  0  0  0  0
  -23.3742  -35.9666   23.3317 H   0  0  0  0  0  0
  -24.3582  -36.8918   22.2049 H   0  0  0  0  0  0
  -23.7246  -37.6539   23.6637 H   0  0  0  0  0  0
  -26.0227  -31.6068   20.5876 H   0  0  0  0  0  0
  -26.8120  -30.9075   21.9737 H   0  0  0  0  0  0
  -28.0982  -29.1441   21.1618 H   0  0  0  0  0  0
  -26.1069  -25.9901   19.0064 H   0  0  0  0  0  0
  -23.9881  -27.2821   19.0452 H   0  0  0  0  0  0
  -23.7113  -30.5919   19.4052 H   0  0  0  0  0  0
  -22.7314  -29.2355   19.8752 H   0  0  0  0  0  0
  -25.1280  -36.1999   25.0836 H   0  0  0  0  0  0
  -20.9941  -28.3211   24.1454 H   0  0  0  0  0  0
  -20.5660  -26.2256   23.3600 H   0  0  0  0  0  0
  -21.6630  -26.7445   22.1214 H   0  0  0  0  0  0
  -19.6902  -25.6302   21.1226 H   0  0  0  0  0  0
  -19.6680  -27.3209   20.6753 H   0  0  0  0  0  0
  -17.4188  -26.6669   21.4023 H   0  0  0  0  0  0
  -18.0318  -26.0053   22.9012 H   0  0  0  0  0  0
  -19.7922  -30.7241   24.2302 H   0  0  0  0  0  0
  -17.5007  -31.6264   24.5162 H   0  0  0  0  0  0
  -15.5342  -30.2998   23.7631 H   0  0  0  0  0  0
  -15.8654  -28.0829   22.7050 H   0  0  0  0  0  0
  -24.5912  -30.7039   25.7816 H   0  0  0  0  0  0
  -24.8939  -32.2837   26.4956 H   0  0  0  0  0  0
  -25.8112  -30.8838   27.0215 H   0  0  0  0  0  0
  -26.2814  -29.6821   24.1124 H   0  0  0  0  0  0
  -27.4097  -29.7277   25.4485 H   0  0  0  0  0  0
  -27.8630  -30.4391   23.9163 H   0  0  0  0  0  0
  -27.2669  -33.3593   26.2100 H   0  0  0  0  0  0
  -28.3830  -32.6900   25.0287 H   0  0  0  0  0  0
  -28.0740  -31.8406   26.5353 H   0  0  0  0  0  0
  -28.2613  -38.0102   24.7507 H   0  0  0  0  0  0
  -28.1064  -36.2635   24.6301 H   0  0  0  0  0  0
  -27.2300  -37.1481   25.8870 H   0  0  0  0  0  0
  -20.9270  -29.8747   21.6974 H   0  0  0  0  0  0
  -26.0192  -38.2885   24.1397 H   0  0  0  0  0  0
  -33.4468  -18.0756   23.1327 H   0  0  0  0  0  0
  -32.6788  -15.8503   22.3762 H   0  0  0  0  0  0
  -31.9275  -19.9996   23.1248 H   0  0  0  0  0  0
  -28.7513  -17.4872   21.6101 H   0  0  0  0  0  0
  -29.0894  -24.0194   23.0730 H   0  0  0  0  0  0
  -30.1992  -23.7853   21.7470 H   0  0  0  0  0  0
  -27.2719  -24.6072   21.4028 H   0  0  0  0  0  0
  -28.3981  -24.2882   20.1085 H   0  0  0  0  0  0
  -28.5409  -21.9897   20.8570 H   0  0  0  0  0  0
  -27.7595  -22.0818   22.4156 H   0  0  0  0  0  0
  -29.9163  -26.1223   21.1931 H   0  0  0  0  0  0
  -28.4947  -26.6028   22.0932 H   0  0  0  0  0  0
  -29.9482  -21.4384   23.5136 H   0  0  0  0  0  0
  -30.6957  -21.4192   21.9123 H   0  0  0  0  0  0
  -29.2363  -14.9961   21.8159 H   0  0  0  0  0  0
  1 25  1  0  0  0
  1 30  2  0  0  0
  1 82  1  0  0  0
  2  3  1  0  0  0
  2 25  1  0  0  0
  2 84  1  0  0  0
  2 85  1  0  0  0
  3  4  1  0  0  0
  3 86  1  0  0  0
  3 87  1  0  0  0
  4  5  1  0  0  0
  4 88  1  0  0  0
  4 89  1  0  0  0
  5  6  1  0  0  0
  5 26  1  0  0  0
  5 90  1  0  0  0
  6 25  1  0  0  0
  6 91  1  0  0  0
  6 92  1  0  0  0
  7  8  2  0  0  0
  7 26  1  0  0  0
  7 29  1  0  0  0
  8  9  1  0  0  0
  8 22  1  0  0  0
  9 10  1  0  0  0
  9 27  2  0  0  0
 10 11  2  0  0  0
 10 15  1  0  0  0
 11 12  1  0  0  0
 11 93  1  0  0  0
 12 13  2  0  0  0
 12 94  1  0  0  0
 13 14  1  0  0  0
 13 31  1  0  0  0
 14 15  2  0  0  0
 14 95  1  0  0  0
 15 96  1  0  0  0
 16 17  2  0  0  0
 16 21  1  0  0  0
 16 31  1  0  0  0
 17 18  1  0  0  0
 17 97  1  0  0  0
 18 19  2  0  0  0
 18 98  1  0  0  0
 19 20  1  0  0  0
 19 24  1  0  0  0
 20 21  2  0  0  0
 20 99  1  0  0  0
 21 23  1  0  0  0
 22 28  1  0  0  0
 22 32  2  0  0  0
 26 27  1  0  0  0
 28100  1  0  0  0
 28101  1  0  0  0
 29102  1  0  0  0
 29103  1  0  0  0
 33 34  1  0  0  0
 33 66  1  0  0  0
 33 70  2  0  0  0
 34 36  1  0  0  0
 34 59  1  0  0  0
 34104  1  0  0  0
 35 44  2  0  0  0
 35 45  1  0  0  0
 35 68  1  0  0  0
 36 56  1  0  0  0
 36105  1  0  0  0
 37 39  1  0  0  0
 37 47  1  0  0  0
 37 66  1  0  0  0
 37106  1  0  0  0
 38 43  2  0  0  0
 38 46  1  0  0  0
 38 47  1  0  0  0
 39 64  1  0  0  0
 39 67  2  0  0  0
 40 52  1  0  0  0
 40 53  2  0  0  0
 40 58  1  0  0  0
 41107  1  0  0  0
 41108  1  0  0  0
 41109  1  0  0  0
 41 48  1  0  0  0
 42 43  1  0  0  0
 42 66  1  0  0  0
 42110  1  0  0  0
 42111  1  0  0  0
 43 44  1  0  0  0
 44112  1  0  0  0
 45 46  2  0  0  0
 45113  1  0  0  0
 46114  1  0  0  0
 47115  1  0  0  0
 47116  1  0  0  0
 48 56  1  0  0  0
 48 65  1  0  0  0
 48117  1  0  0  0
 49 50  1  0  0  0
 49 53  1  0  0  0
 49 64  1  0  0  0
 49118  1  0  0  0
 50 51  1  0  0  0
 50119  1  0  0  0
 50120  1  0  0  0
 51 52  1  0  0  0
 51121  1  0  0  0
 51122  1  0  0  0
 52123  1  0  0  0
 52124  1  0  0  0
 53 54  1  0  0  0
 54 55  2  0  0  0
 54125  1  0  0  0
 55 57  1  0  0  0
 55126  1  0  0  0
 56 69  2  0  0  0
 57 58  2  0  0  0
 57127  1  0  0  0
 58128  1  0  0  0
 59 60  1  0  0  0
 59 61  1  0  0  0
 59 62  1  0  0  0
 60129  1  0  0  0
 60130  1  0  0  0
 60131  1  0  0  0
 61132  1  0  0  0
 61133  1  0  0  0
 61134  1  0  0  0
 62135  1  0  0  0
 62136  1  0  0  0
 62137  1  0  0  0
 63 65  1  0  0  0
 63138  1  0  0  0
 63139  1  0  0  0
 63140  1  0  0  0
 64141  1  0  0  0
 65142  1  0  0  0
 68 80  1  0  0  0
 71 72  2  0  0  0
 71 73  1  0  0  0
 71143  1  0  0  0
 72 75  1  0  0  0
 72144  1  0  0  0
 73 76  2  0  0  0
 73145  1  0  0  0
 74 75  2  0  0  0
 74 76  1  0  0  0
 74146  1  0  0  0
 75 82  1  0  0  0
 76 83  1  0  0  0
 77 78  1  0  0  0
 77 79  1  0  0  0
 77147  1  0  0  0
 77148  1  0  0  0
 78 80  1  0  0  0
 78149  1  0  0  0
 78150  1  0  0  0
 79 81  1  0  0  0
 79151  1  0  0  0
 79152  1  0  0  0
 80153  1  0  0  0
 80154  1  0  0  0
 81 83  1  0  0  0
 81155  1  0  0  0
 81156  1  0  0  0
 82157  1  0  0  0
M  ISO  4   1 100  68 101  80 101  82 100
M  END
> <chiral flag>
0

> <version>
0

> <s_m_source_file>
/data/baiqing/PycharmProjects/Reinvent-master-3.2/result/LINK_invent/BTK/process_docking_weight1_custom_sum_contain_oxygen_bond_distance_aromatic_linkinvent_7_9_3/rearranged_h_0003.sdf

> <i_m_source_file_index>
63

> <r_mmod_Potential_Energy-OPLS-2005>
-26.7608432769775

> <r_mmod_Stretch_Energy-OPLS-2005>
31.3302001953125

> <r_mmod_Bend_Energy-OPLS-2005>
92.4822006225586

> <r_mmod_Torsional_Energy-OPLS-2005>
240.754974365234

> <r_mmod_Improper_Torsional_Energy-OPLS-2005>
2.17668151855469

> <r_mmod_Van_der_Waal_Energy-OPLS-2005>
156.789428710938

> <r_mmod_Electrostatic_Energy-OPLS-2005>
-350.218902587891

> <r_mmod_Solvation_Energy-OPLS-2005>
-206.52033996582

> <b_mmod_Minimization_Converged-OPLS-2005>
0

> <r_mmod_RMS_Derivative-OPLS-2005>
0.148959562182426

$$$$
64
                    3D
 Structure written by MMmdl.
166173  0  0  1  0            999 V2000
  -30.8552  -14.2483   20.7837 C   0  0  0  0  0  0
  -30.4047  -12.2910   19.3616 C   0  0  0  0  0  0
  -29.4641  -12.5444   18.1753 C   0  0  0  0  0  0
  -27.9987  -12.3783   18.6084 C   0  0  0  0  0  0
  -27.6644  -13.2051   19.8756 C   0  0  2  0  0  0
  -28.7045  -12.9670   20.9925 C   0  0  0  0  0  0
  -25.2600  -13.8166   20.5685 C   0  0  0  0  0  0
  -24.1847  -13.0448   20.9166 C   0  0  0  0  0  0
  -24.6396  -11.6911   20.8729 C   0  0  0  0  0  0
  -23.9063  -10.4299   21.0404 C   0  0  0  0  0  0
  -24.3613   -9.4216   21.9185 C   0  0  0  0  0  0
  -23.6292   -8.2250   22.0757 C   0  0  0  0  0  0
  -22.4273   -8.0283   21.3553 C   0  0  0  0  0  0
  -21.9910   -9.0254   20.4653 C   0  0  0  0  0  0
  -22.7233  -10.2137   20.3059 C   0  0  0  0  0  0
  -21.6856   -6.0737   22.5281 C   0  0  0  0  0  0
  -21.4015   -6.5642   23.8214 C   0  0  0  0  0  0
  -21.3660   -5.6796   24.9177 C   0  0  0  0  0  0
  -21.6039   -4.3056   24.7228 C   0  0  0  0  0  0
  -21.8821   -3.8149   23.4350 C   0  0  0  0  0  0
  -21.9192   -4.6965   22.3405 C   0  0  0  0  0  0
  -22.7870  -13.5246   21.1832 C   0  0  0  0  0  0
  -22.1662   -4.2149   21.0985 F   0  0  0  0  0  0
  -21.5627   -3.4539   25.7742 F   0  0  0  0  0  0
  -30.0554  -13.2083   20.4534 N   0  0  0  0  0  0
  -26.3043  -12.9339   20.3385 N   0  0  0  0  0  0
  -25.9324  -11.6494   20.5767 N   0  0  0  0  0  0
  -22.0509  -12.8241   22.0386 N   0  0  0  0  0  0
  -25.4329  -15.1885   20.4104 N   0  0  0  0  0  0
  -31.7511  -14.6869   20.0540 O   0  0  0  0  0  0
  -21.6643   -6.8878   21.4245 O   0  0  0  0  0  0
  -22.3560  -14.5560   20.6688 O   0  0  0  0  0  0
  -24.6117  -31.8712   23.2119 C   0  0  0  0  0  0
  -25.9023  -32.4832   23.8411 C   0  0  1  0  0  0
  -27.2378  -27.4658   20.0862 C   0  0  0  0  0  0
  -25.5884  -33.8635   24.2341 N   0  0  0  0  0  0
  -23.3984  -30.4938   21.5527 C   0  0  2  0  0  0
  -24.8447  -28.9587   20.1214 C   0  0  0  0  0  0
  -22.7398  -29.4684   22.5019 C   0  0  0  0  0  0
  -18.0275  -28.1398   22.8491 C   0  0  0  0  0  0
  -24.1485  -36.7325   23.2639 C   0  0  0  0  0  0
  -25.9233  -30.8436   21.3617 C   0  0  0  0  0  0
  -26.0017  -29.4771   20.7165 C   0  0  0  0  0  0
  -27.2019  -28.7341   20.7016 C   0  0  0  0  0  0
  -26.0699  -26.9592   19.4768 C   0  0  0  0  0  0
  -24.8704  -27.6961   19.5045 C   0  0  0  0  0  0
  -23.6054  -29.8226   20.1692 C   0  0  0  0  0  0
  -25.4106  -36.3123   24.0340 C   0  0  1  0  0  0
  -20.5860  -28.3682   23.1335 C   0  0  2  0  0  0
  -20.6780  -26.9423   22.5428 C   0  0  0  0  0  0
  -19.5754  -26.6406   21.5231 C   0  0  0  0  0  0
  -18.1924  -26.7943   22.1623 C   0  0  0  0  0  0
  -19.1519  -28.8849   23.2905 C   0  0  0  0  0  0
  -18.9453  -30.1460   23.8912 C   0  0  0  0  0  0
  -17.6458  -30.6598   24.0574 C   0  0  0  0  0  0
  -25.9033  -34.9484   23.5142 C   0  0  0  0  0  0
  -16.5350  -29.9109   23.6330 C   0  0  0  0  0  0
  -16.7264  -28.6534   23.0337 C   0  0  0  0  0  0
  -26.4464  -31.6594   25.0728 C   0  0  0  0  0  0
  -25.3732  -31.3678   26.1480 C   0  0  0  0  0  0
  -27.0292  -30.3040   24.6070 C   0  0  0  0  0  0
  -27.6059  -32.4301   25.7480 C   0  0  0  0  0  0
  -27.5573  -37.1811   24.8467 C   0  0  0  0  0  0
  -21.4136  -29.3037   22.3737 N   0  0  0  0  0  0
  -26.4296  -37.3798   23.9410 N   0  0  0  0  0  0
  -24.6628  -31.0832   22.1013 N   0  0  0  0  0  0
  -23.4176  -28.8244   23.3066 O   0  0  0  0  0  0
  -28.4160  -26.7653   20.0346 O   0  0  0  0  0  0
  -26.5606  -34.8934   22.4708 O   0  0  0  0  0  0
  -23.5319  -32.1479   23.7517 O   0  0  0  0  0  0
  -28.8923  -18.7066   25.1276 C   0  0  0  0  0  0
  -30.2978  -18.2159   24.7711 C   0  0  0  0  0  0
  -30.3278  -16.8269   24.0986 C   0  0  0  0  0  0
  -31.6087  -16.6138   23.2720 C   0  0  0  0  0  0
  -27.4438  -22.0329   24.4344 C   0  0  0  0  0  0
  -27.9711  -24.3492   20.2333 C   0  0  0  0  0  0
  -31.8707  -15.1543   22.8695 C   0  0  0  0  0  0
  -27.4390  -20.7259   25.2505 C   0  0  0  0  0  0
  -27.7964  -21.8454   22.9506 C   0  0  0  0  0  0
  -28.4999  -25.6326   20.8981 C   0  0  0  0  0  0
  -28.3211  -23.0709   21.0020 C   0  0  0  0  0  0
  -28.7196  -20.0323   25.1430 N   0  0  0  0  0  0
  -30.7884  -14.5620   22.0840 N   0  0  0  0  0  0
  -27.9803  -17.9110   25.3598 O   0  0  0  0  0  0
  -27.7136  -23.0987   22.2877 O   0  0  0  0  0  0
  -31.4442  -12.3987   19.0458 H   0  0  0  0  0  0
  -30.3064  -11.2621   19.7106 H   0  0  0  0  0  0
  -29.6930  -11.8598   17.3576 H   0  0  0  0  0  0
  -29.6217  -13.5522   17.7874 H   0  0  0  0  0  0
  -27.8221  -11.3184   18.7967 H   0  0  0  0  0  0
  -27.3317  -12.6572   17.7920 H   0  0  0  0  0  0
  -27.7192  -14.2567   19.5929 H   0  0  0  0  0  0
  -28.6464  -11.9428   21.3621 H   0  0  0  0  0  0
  -28.4638  -13.6102   21.8394 H   0  0  0  0  0  0
  -25.2758   -9.5695   22.4759 H   0  0  0  0  0  0
  -24.0000   -7.4649   22.7483 H   0  0  0  0  0  0
  -21.0836   -8.8772   19.8965 H   0  0  0  0  0  0
  -22.3686  -10.9675   19.6166 H   0  0  0  0  0  0
  -21.2011   -7.6149   23.9720 H   0  0  0  0  0  0
  -21.1479   -6.0525   25.9080 H   0  0  0  0  0  0
  -22.0598   -2.7610   23.2853 H   0  0  0  0  0  0
  -22.4111  -11.9880   22.4747 H   0  0  0  0  0  0
  -21.1140  -13.1288   22.2616 H   0  0  0  0  0  0
  -24.6712  -15.8480   20.5264 H   0  0  0  0  0  0
  -26.2971  -15.6284   20.1187 H   0  0  0  0  0  0
  -26.7091  -32.5563   23.1183 H   0  0  0  0  0  0
  -25.0029  -33.9808   25.0481 H   0  0  0  0  0  0
  -22.6850  -31.3090   21.4127 H   0  0  0  0  0  0
  -23.3741  -35.9658   23.3328 H   0  0  0  0  0  0
  -24.3584  -36.8927   22.2046 H   0  0  0  0  0  0
  -23.7247  -37.6541   23.6649 H   0  0  0  0  0  0
  -26.0276  -31.6034   20.5863 H   0  0  0  0  0  0
  -26.8145  -30.9042   21.9732 H   0  0  0  0  0  0
  -28.1000  -29.1336   21.1527 H   0  0  0  0  0  0
  -26.0844  -26.0144   18.9547 H   0  0  0  0  0  0
  -23.9818  -27.2999   19.0334 H   0  0  0  0  0  0
  -23.7138  -30.5953   19.4081 H   0  0  0  0  0  0
  -22.7304  -29.2408   19.8745 H   0  0  0  0  0  0
  -25.1267  -36.2003   25.0828 H   0  0  0  0  0  0
  -20.9935  -28.3274   24.1464 H   0  0  0  0  0  0
  -20.5740  -26.2283   23.3615 H   0  0  0  0  0  0
  -21.6645  -26.7522   22.1169 H   0  0  0  0  0  0
  -19.6940  -25.6329   21.1240 H   0  0  0  0  0  0
  -19.6702  -27.3238   20.6779 H   0  0  0  0  0  0
  -17.4200  -26.6701   21.4024 H   0  0  0  0  0  0
  -18.0314  -26.0090   22.9016 H   0  0  0  0  0  0
  -19.7937  -30.7269   24.2283 H   0  0  0  0  0  0
  -17.5024  -31.6273   24.5185 H   0  0  0  0  0  0
  -15.5352  -30.3010   23.7665 H   0  0  0  0  0  0
  -15.8669  -28.0874   22.7024 H   0  0  0  0  0  0
  -24.5926  -30.7002   25.7816 H   0  0  0  0  0  0
  -24.8889  -32.2812   26.4932 H   0  0  0  0  0  0
  -25.8081  -30.8856   27.0244 H   0  0  0  0  0  0
  -26.2814  -29.6791   24.1169 H   0  0  0  0  0  0
  -27.4132  -29.7278   25.4500 H   0  0  0  0  0  0
  -27.8615  -30.4366   23.9154 H   0  0  0  0  0  0
  -27.2711  -33.3618   26.2049 H   0  0  0  0  0  0
  -28.3863  -32.6836   25.0291 H   0  0  0  0  0  0
  -28.0726  -31.8428   26.5396 H   0  0  0  0  0  0
  -28.2603  -38.0093   24.7507 H   0  0  0  0  0  0
  -28.1053  -36.2632   24.6294 H   0  0  0  0  0  0
  -27.2297  -37.1462   25.8871 H   0  0  0  0  0  0
  -20.9315  -29.8707   21.6905 H   0  0  0  0  0  0
  -26.0198  -38.2884   24.1394 H   0  0  0  0  0  0
  -30.9156  -18.2133   25.6706 H   0  0  0  0  0  0
  -30.7457  -18.9482   24.0972 H   0  0  0  0  0  0
  -29.4601  -16.6925   23.4507 H   0  0  0  0  0  0
  -30.2522  -16.0630   24.8741 H   0  0  0  0  0  0
  -32.4676  -16.9573   23.8509 H   0  0  0  0  0  0
  -31.5786  -17.2411   22.3796 H   0  0  0  0  0  0
  -28.1447  -22.7390   24.8815 H   0  0  0  0  0  0
  -26.4605  -22.4977   24.5124 H   0  0  0  0  0  0
  -28.3886  -24.2722   19.2289 H   0  0  0  0  0  0
  -26.8899  -24.3897   20.1220 H   0  0  0  0  0  0
  -32.0022  -14.5454   23.7655 H   0  0  0  0  0  0
  -32.8211  -15.0898   22.3347 H   0  0  0  0  0  0
  -26.6229  -20.0877   24.9053 H   0  0  0  0  0  0
  -27.2384  -20.9455   26.3000 H   0  0  0  0  0  0
  -27.1144  -21.1361   22.4789 H   0  0  0  0  0  0
  -28.8039  -21.4386   22.8561 H   0  0  0  0  0  0
  -27.9854  -25.8170   21.8428 H   0  0  0  0  0  0
  -29.5523  -25.5021   21.1493 H   0  0  0  0  0  0
  -29.4028  -22.9688   21.1004 H   0  0  0  0  0  0
  -27.9665  -22.2078   20.4358 H   0  0  0  0  0  0
  -29.5403  -20.6056   24.9984 H   0  0  0  0  0  0
  -30.0489  -14.1092   22.6016 H   0  0  0  0  0  0
  1 25  1  0  0  0
  1 30  2  0  0  0
  1 83  1  0  0  0
  2  3  1  0  0  0
  2 25  1  0  0  0
  2 86  1  0  0  0
  2 87  1  0  0  0
  3  4  1  0  0  0
  3 88  1  0  0  0
  3 89  1  0  0  0
  4  5  1  0  0  0
  4 90  1  0  0  0
  4 91  1  0  0  0
  5  6  1  0  0  0
  5 26  1  0  0  0
  5 92  1  0  0  0
  6 25  1  0  0  0
  6 93  1  0  0  0
  6 94  1  0  0  0
  7  8  2  0  0  0
  7 26  1  0  0  0
  7 29  1  0  0  0
  8  9  1  0  0  0
  8 22  1  0  0  0
  9 10  1  0  0  0
  9 27  2  0  0  0
 10 11  2  0  0  0
 10 15  1  0  0  0
 11 12  1  0  0  0
 11 95  1  0  0  0
 12 13  2  0  0  0
 12 96  1  0  0  0
 13 14  1  0  0  0
 13 31  1  0  0  0
 14 15  2  0  0  0
 14 97  1  0  0  0
 15 98  1  0  0  0
 16 17  2  0  0  0
 16 21  1  0  0  0
 16 31  1  0  0  0
 17 18  1  0  0  0
 17 99  1  0  0  0
 18 19  2  0  0  0
 18100  1  0  0  0
 19 20  1  0  0  0
 19 24  1  0  0  0
 20 21  2  0  0  0
 20101  1  0  0  0
 21 23  1  0  0  0
 22 28  1  0  0  0
 22 32  2  0  0  0
 26 27  1  0  0  0
 28102  1  0  0  0
 28103  1  0  0  0
 29104  1  0  0  0
 29105  1  0  0  0
 33 34  1  0  0  0
 33 66  1  0  0  0
 33 70  2  0  0  0
 34 36  1  0  0  0
 34 59  1  0  0  0
 34106  1  0  0  0
 35 44  2  0  0  0
 35 45  1  0  0  0
 35 68  1  0  0  0
 36 56  1  0  0  0
 36107  1  0  0  0
 37 39  1  0  0  0
 37 47  1  0  0  0
 37 66  1  0  0  0
 37108  1  0  0  0
 38 43  2  0  0  0
 38 46  1  0  0  0
 38 47  1  0  0  0
 39 64  1  0  0  0
 39 67  2  0  0  0
 40 52  1  0  0  0
 40 53  2  0  0  0
 40 58  1  0  0  0
 41109  1  0  0  0
 41110  1  0  0  0
 41111  1  0  0  0
 41 48  1  0  0  0
 42 43  1  0  0  0
 42 66  1  0  0  0
 42112  1  0  0  0
 42113  1  0  0  0
 43 44  1  0  0  0
 44114  1  0  0  0
 45 46  2  0  0  0
 45115  1  0  0  0
 46116  1  0  0  0
 47117  1  0  0  0
 47118  1  0  0  0
 48 56  1  0  0  0
 48 65  1  0  0  0
 48119  1  0  0  0
 49 50  1  0  0  0
 49 53  1  0  0  0
 49 64  1  0  0  0
 49120  1  0  0  0
 50 51  1  0  0  0
 50121  1  0  0  0
 50122  1  0  0  0
 51 52  1  0  0  0
 51123  1  0  0  0
 51124  1  0  0  0
 52125  1  0  0  0
 52126  1  0  0  0
 53 54  1  0  0  0
 54 55  2  0  0  0
 54127  1  0  0  0
 55 57  1  0  0  0
 55128  1  0  0  0
 56 69  2  0  0  0
 57 58  2  0  0  0
 57129  1  0  0  0
 58130  1  0  0  0
 59 60  1  0  0  0
 59 61  1  0  0  0
 59 62  1  0  0  0
 60131  1  0  0  0
 60132  1  0  0  0
 60133  1  0  0  0
 61134  1  0  0  0
 61135  1  0  0  0
 61136  1  0  0  0
 62137  1  0  0  0
 62138  1  0  0  0
 62139  1  0  0  0
 63 65  1  0  0  0
 63140  1  0  0  0
 63141  1  0  0  0
 63142  1  0  0  0
 64143  1  0  0  0
 65144  1  0  0  0
 68 80  1  0  0  0
 71 72  1  0  0  0
 71 82  1  0  0  0
 71 84  2  0  0  0
 72 73  1  0  0  0
 72145  1  0  0  0
 72146  1  0  0  0
 73 74  1  0  0  0
 73147  1  0  0  0
 73148  1  0  0  0
 74 77  1  0  0  0
 74149  1  0  0  0
 74150  1  0  0  0
 75 78  1  0  0  0
 75 79  1  0  0  0
 75151  1  0  0  0
 75152  1  0  0  0
 76 80  1  0  0  0
 76 81  1  0  0  0
 76153  1  0  0  0
 76154  1  0  0  0
 77 83  1  0  0  0
 77155  1  0  0  0
 77156  1  0  0  0
 78 82  1  0  0  0
 78157  1  0  0  0
 78158  1  0  0  0
 79 85  1  0  0  0
 79159  1  0  0  0
 79160  1  0  0  0
 80161  1  0  0  0
 80162  1  0  0  0
 81 85  1  0  0  0
 81163  1  0  0  0
 81164  1  0  0  0
 82165  1  0  0  0
 83166  1  0  0  0
M  ISO  4   1 100  68 101  80 101  83 100
M  END
> <chiral flag>
0

> <version>
0

> <s_m_source_file>
/data/baiqing/PycharmProjects/Reinvent-master-3.2/result/LINK_invent/BTK/process_docking_weight1_custom_sum_contain_oxygen_bond_distance_aromatic_linkinvent_7_9_3/rearranged_h_0003.sdf

> <i_m_source_file_index>
64

> <r_mmod_Potential_Energy-OPLS-2005>
-150.01286315918

> <r_mmod_Stretch_Energy-OPLS-2005>
29.5301322937012

> <r_mmod_Bend_Energy-OPLS-2005>
85.2191009521484

> <r_mmod_Torsional_Energy-OPLS-2005>
241.211990356445

> <r_mmod_Improper_Torsional_Energy-OPLS-2005>
7.37799215316772

> <r_mmod_Van_der_Waal_Energy-OPLS-2005>
133.501449584961

> <r_mmod_Electrostatic_Energy-OPLS-2005>
-422.198455810547

> <r_mmod_Solvation_Energy-OPLS-2005>
-234.792922973633

> <b_mmod_Minimization_Converged-OPLS-2005>
0

> <r_mmod_RMS_Derivative-OPLS-2005>
1.75554764270782

$$$$
65
                    3D
 Structure written by MMmdl.
165173  0  0  1  0            999 V2000
  -30.6948  -14.4696   20.4731 C   0  0  0  0  0  0
  -30.4101  -12.2790   19.4298 C   0  0  0  0  0  0
  -29.4829  -12.4760   18.2109 C   0  0  0  0  0  0
  -28.0045  -12.3368   18.6273 C   0  0  0  0  0  0
  -27.6518  -13.1905   19.8741 C   0  0  2  0  0  0
  -28.7022  -12.9804   20.9902 C   0  0  0  0  0  0
  -25.2435  -13.7964   20.5527 C   0  0  0  0  0  0
  -24.1721  -13.0296   20.9159 C   0  0  0  0  0  0
  -24.6334  -11.6809   20.8814 C   0  0  0  0  0  0
  -23.9036  -10.4221   21.0445 C   0  0  0  0  0  0
  -24.3591   -9.4147   21.9231 C   0  0  0  0  0  0
  -23.6259   -8.2199   22.0784 C   0  0  0  0  0  0
  -22.4239   -8.0256   21.3560 C   0  0  0  0  0  0
  -21.9884   -9.0229   20.4644 C   0  0  0  0  0  0
  -22.7233  -10.2090   20.3061 C   0  0  0  0  0  0
  -21.6845   -6.0731   22.5290 C   0  0  0  0  0  0
  -21.3999   -6.5644   23.8211 C   0  0  0  0  0  0
  -21.3639   -5.6796   24.9181 C   0  0  0  0  0  0
  -21.6022   -4.3063   24.7228 C   0  0  0  0  0  0
  -21.8814   -3.8147   23.4362 C   0  0  0  0  0  0
  -21.9193   -4.6965   22.3403 C   0  0  0  0  0  0
  -22.7756  -13.5138   21.1758 C   0  0  0  0  0  0
  -22.1668   -4.2148   21.0990 F   0  0  0  0  0  0
  -21.5614   -3.4550   25.7740 F   0  0  0  0  0  0
  -30.0242  -13.2857   20.4277 N   0  0  0  0  0  0
  -26.2958  -12.9204   20.3444 N   0  0  0  0  0  0
  -25.9301  -11.6396   20.5965 N   0  0  0  0  0  0
  -22.0400  -12.8125   22.0337 N   0  0  0  0  0  0
  -25.3909  -15.1563   20.3533 N   0  0  0  0  0  0
  -31.8796  -14.5841   20.1640 O   0  0  0  0  0  0
  -21.6624   -6.8873   21.4244 O   0  0  0  0  0  0
  -22.3445  -14.5415   20.6583 O   0  0  0  0  0  0
  -24.6097  -31.8662   23.2177 C   0  0  0  0  0  0
  -25.8950  -32.4852   23.8455 C   0  0  1  0  0  0
  -27.1997  -27.4465   20.0665 C   0  0  0  0  0  0
  -25.5751  -33.8659   24.2350 N   0  0  0  0  0  0
  -23.3996  -30.4975   21.5593 C   0  0  2  0  0  0
  -24.8340  -28.9845   20.1057 C   0  0  0  0  0  0
  -22.7367  -29.4638   22.4974 C   0  0  0  0  0  0
  -18.0279  -28.1338   22.8506 C   0  0  0  0  0  0
  -24.1451  -36.7372   23.2673 C   0  0  0  0  0  0
  -25.9273  -30.8435   21.3650 C   0  0  0  0  0  0
  -25.9994  -29.4822   20.7050 C   0  0  0  0  0  0
  -27.1869  -28.7173   20.6887 C   0  0  0  0  0  0
  -26.0267  -26.9944   19.4184 C   0  0  0  0  0  0
  -24.8429  -27.7408   19.4631 C   0  0  0  0  0  0
  -23.5960  -29.8411   20.1706 C   0  0  0  0  0  0
  -25.4059  -36.3162   24.0383 C   0  0  1  0  0  0
  -20.5860  -28.3609   23.1321 C   0  0  2  0  0  0
  -20.6725  -26.9322   22.5426 C   0  0  0  0  0  0
  -19.5715  -26.6350   21.5190 C   0  0  0  0  0  0
  -18.1904  -26.7892   22.1609 C   0  0  0  0  0  0
  -19.1522  -28.8796   23.2925 C   0  0  0  0  0  0
  -18.9421  -30.1409   23.8936 C   0  0  0  0  0  0
  -17.6407  -30.6550   24.0552 C   0  0  0  0  0  0
  -25.8970  -34.9518   23.5187 C   0  0  0  0  0  0
  -16.5310  -29.9044   23.6312 C   0  0  0  0  0  0
  -16.7263  -28.6460   23.0355 C   0  0  0  0  0  0
  -26.4424  -31.6623   25.0757 C   0  0  0  0  0  0
  -25.3726  -31.3602   26.1520 C   0  0  0  0  0  0
  -27.0248  -30.3087   24.6083 C   0  0  0  0  0  0
  -27.6044  -32.4351   25.7414 C   0  0  0  0  0  0
  -27.5545  -37.1834   24.8468 C   0  0  0  0  0  0
  -21.4095  -29.2994   22.3693 N   0  0  0  0  0  0
  -26.4266  -37.3806   23.9408 N   0  0  0  0  0  0
  -24.6668  -31.0774   22.1077 N   0  0  0  0  0  0
  -23.4163  -28.8160   23.2983 O   0  0  0  0  0  0
  -28.3377  -26.6692   20.1408 O   0  0  0  0  0  0
  -26.5582  -34.8971   22.4773 O   0  0  0  0  0  0
  -23.5279  -32.1372   23.7569 O   0  0  0  0  0  0
  -29.0934  -15.9235   22.7360 C   0  0  0  0  0  0
  -27.9276  -16.8501   20.8108 C   0  0  0  0  0  0
  -28.0908  -16.4349   23.5824 C   0  0  0  0  0  0
  -26.9413  -17.3839   21.6607 C   0  0  0  0  0  0
  -28.9869  -16.0881   21.3381 C   0  0  0  0  0  0
  -26.9894  -17.1426   23.0541 C   0  0  0  0  0  0
  -24.1767  -19.7971   22.3569 C   0  0  0  0  0  0
  -27.2732  -24.5819   21.0229 C   0  0  0  0  0  0
  -24.0063  -18.9571   23.6246 C   0  0  0  0  0  0
  -28.2041  -25.2396   19.9635 C   0  0  0  0  0  0
  -25.4339  -21.6963   21.4037 C   0  0  0  0  0  0
  -25.1883  -23.2145   21.3761 C   0  0  0  0  0  0
  -24.6549  -17.5566   23.5128 C   0  0  0  0  0  0
  -29.9498  -15.5877   20.4336 N   0  0  0  0  0  0
  -24.7293  -21.0123   22.4842 N   0  0  0  0  0  0
  -26.2152  -23.8830   20.5734 N   0  0  0  0  0  0
  -23.8592  -19.3277   21.2630 O   0  0  0  0  0  0
  -27.4986  -24.7272   22.2268 O   0  0  0  0  0  0
  -26.0240  -17.5762   23.9353 O   0  0  0  0  0  0
  -31.4582  -12.3616   19.1300 H   0  0  0  0  0  0
  -30.2977  -11.2744   19.8431 H   0  0  0  0  0  0
  -29.7212  -11.7562   17.4275 H   0  0  0  0  0  0
  -29.6468  -13.4665   17.7820 H   0  0  0  0  0  0
  -27.8177  -11.2848   18.8430 H   0  0  0  0  0  0
  -27.3455  -12.5934   17.7976 H   0  0  0  0  0  0
  -27.6857  -14.2319   19.5596 H   0  0  0  0  0  0
  -28.6837  -11.9484   21.3377 H   0  0  0  0  0  0
  -28.4769  -13.5765   21.8702 H   0  0  0  0  0  0
  -25.2731   -9.5642   22.4830 H   0  0  0  0  0  0
  -23.9961   -7.4589   22.7514 H   0  0  0  0  0  0
  -21.0824   -8.8752   19.8941 H   0  0  0  0  0  0
  -22.3719  -10.9643   19.6161 H   0  0  0  0  0  0
  -21.1988   -7.6157   23.9721 H   0  0  0  0  0  0
  -21.1452   -6.0531   25.9082 H   0  0  0  0  0  0
  -22.0597   -2.7616   23.2855 H   0  0  0  0  0  0
  -22.4124  -11.9896   22.4828 H   0  0  0  0  0  0
  -21.0932  -13.0997   22.2401 H   0  0  0  0  0  0
  -24.6406  -15.8244   20.4824 H   0  0  0  0  0  0
  -26.2910  -15.5884   20.1889 H   0  0  0  0  0  0
  -26.7012  -32.5568   23.1212 H   0  0  0  0  0  0
  -24.9764  -33.9824   25.0405 H   0  0  0  0  0  0
  -22.6992  -31.3237   21.4272 H   0  0  0  0  0  0
  -23.3712  -35.9697   23.3340 H   0  0  0  0  0  0
  -24.3574  -36.8989   22.2093 H   0  0  0  0  0  0
  -23.7227  -37.6604   23.6670 H   0  0  0  0  0  0
  -26.0197  -31.6202   20.6057 H   0  0  0  0  0  0
  -26.8285  -30.9027   21.9652 H   0  0  0  0  0  0
  -28.0812  -29.0854   21.1762 H   0  0  0  0  0  0
  -25.9917  -26.0598   18.8851 H   0  0  0  0  0  0
  -23.9473  -27.3649   18.9898 H   0  0  0  0  0  0
  -23.6971  -30.6240   19.4186 H   0  0  0  0  0  0
  -22.7229  -29.2527   19.8784 H   0  0  0  0  0  0
  -25.1225  -36.2085   25.0879 H   0  0  0  0  0  0
  -20.9957  -28.3167   24.1434 H   0  0  0  0  0  0
  -20.5523  -26.2162   23.3587 H   0  0  0  0  0  0
  -21.6599  -26.7278   22.1247 H   0  0  0  0  0  0
  -19.6830  -25.6269   21.1194 H   0  0  0  0  0  0
  -19.6714  -27.3179   20.6755 H   0  0  0  0  0  0
  -17.4123  -26.6653   21.4062 H   0  0  0  0  0  0
  -18.0347  -26.0047   22.9033 H   0  0  0  0  0  0
  -19.7910  -30.7227   24.2291 H   0  0  0  0  0  0
  -17.4978  -31.6261   24.5098 H   0  0  0  0  0  0
  -15.5310  -30.2923   23.7659 H   0  0  0  0  0  0
  -15.8672  -28.0793   22.7024 H   0  0  0  0  0  0
  -24.5936  -30.6935   25.7783 H   0  0  0  0  0  0
  -24.8880  -32.2696   26.5090 H   0  0  0  0  0  0
  -25.8137  -30.8671   27.0200 H   0  0  0  0  0  0
  -26.2720  -29.6827   24.1276 H   0  0  0  0  0  0
  -27.4170  -29.7366   25.4508 H   0  0  0  0  0  0
  -27.8505  -30.4465   23.9099 H   0  0  0  0  0  0
  -27.2687  -33.3633   26.2049 H   0  0  0  0  0  0
  -28.3705  -32.6939   25.0086 H   0  0  0  0  0  0
  -28.0863  -31.8465   26.5232 H   0  0  0  0  0  0
  -28.2580  -38.0092   24.7382 H   0  0  0  0  0  0
  -28.1004  -36.2620   24.6412 H   0  0  0  0  0  0
  -27.2256  -37.1632   25.8869 H   0  0  0  0  0  0
  -20.9179  -29.8737   21.6982 H   0  0  0  0  0  0
  -26.0202  -38.2897   24.1425 H   0  0  0  0  0  0
  -29.9294  -15.3909   23.1648 H   0  0  0  0  0  0
  -27.8381  -16.9931   19.7416 H   0  0  0  0  0  0
  -28.1667  -16.2618   24.6460 H   0  0  0  0  0  0
  -26.1290  -17.9394   21.2146 H   0  0  0  0  0  0
  -22.9365  -18.8469   23.7924 H   0  0  0  0  0  0
  -24.3833  -19.4843   24.5008 H   0  0  0  0  0  0
  -29.1934  -24.8009   20.0852 H   0  0  0  0  0  0
  -27.9128  -24.9931   18.9417 H   0  0  0  0  0  0
  -26.4904  -21.4927   21.5705 H   0  0  0  0  0  0
  -25.1985  -21.2690   20.4272 H   0  0  0  0  0  0
  -25.1358  -23.6375   22.3828 H   0  0  0  0  0  0
  -24.2164  -23.3983   20.9154 H   0  0  0  0  0  0
  -24.5166  -17.1279   22.5184 H   0  0  0  0  0  0
  -24.1293  -16.8723   24.1778 H   0  0  0  0  0  0
  -30.3830  -16.3146   19.8807 H   0  0  0  0  0  0
  -24.8697  -21.3747   23.4184 H   0  0  0  0  0  0
  -26.1154  -23.7919   19.5724 H   0  0  0  0  0  0
  1 25  1  0  0  0
  1 30  2  0  0  0
  1 84  1  0  0  0
  2  3  1  0  0  0
  2 25  1  0  0  0
  2 90  1  0  0  0
  2 91  1  0  0  0
  3  4  1  0  0  0
  3 92  1  0  0  0
  3 93  1  0  0  0
  4  5  1  0  0  0
  4 94  1  0  0  0
  4 95  1  0  0  0
  5  6  1  0  0  0
  5 26  1  0  0  0
  5 96  1  0  0  0
  6 25  1  0  0  0
  6 97  1  0  0  0
  6 98  1  0  0  0
  7  8  2  0  0  0
  7 26  1  0  0  0
  7 29  1  0  0  0
  8  9  1  0  0  0
  8 22  1  0  0  0
  9 10  1  0  0  0
  9 27  2  0  0  0
 10 11  2  0  0  0
 10 15  1  0  0  0
 11 12  1  0  0  0
 11 99  1  0  0  0
 12 13  2  0  0  0
 12100  1  0  0  0
 13 14  1  0  0  0
 13 31  1  0  0  0
 14 15  2  0  0  0
 14101  1  0  0  0
 15102  1  0  0  0
 16 17  2  0  0  0
 16 21  1  0  0  0
 16 31  1  0  0  0
 17 18  1  0  0  0
 17103  1  0  0  0
 18 19  2  0  0  0
 18104  1  0  0  0
 19 20  1  0  0  0
 19 24  1  0  0  0
 20 21  2  0  0  0
 20105  1  0  0  0
 21 23  1  0  0  0
 22 28  1  0  0  0
 22 32  2  0  0  0
 26 27  1  0  0  0
 28106  1  0  0  0
 28107  1  0  0  0
 29108  1  0  0  0
 29109  1  0  0  0
 33 34  1  0  0  0
 33 66  1  0  0  0
 33 70  2  0  0  0
 34 36  1  0  0  0
 34 59  1  0  0  0
 34110  1  0  0  0
 35 44  2  0  0  0
 35 45  1  0  0  0
 35 68  1  0  0  0
 36 56  1  0  0  0
 36111  1  0  0  0
 37 39  1  0  0  0
 37 47  1  0  0  0
 37 66  1  0  0  0
 37112  1  0  0  0
 38 43  2  0  0  0
 38 46  1  0  0  0
 38 47  1  0  0  0
 39 64  1  0  0  0
 39 67  2  0  0  0
 40 52  1  0  0  0
 40 53  2  0  0  0
 40 58  1  0  0  0
 41113  1  0  0  0
 41114  1  0  0  0
 41115  1  0  0  0
 41 48  1  0  0  0
 42 43  1  0  0  0
 42 66  1  0  0  0
 42116  1  0  0  0
 42117  1  0  0  0
 43 44  1  0  0  0
 44118  1  0  0  0
 45 46  2  0  0  0
 45119  1  0  0  0
 46120  1  0  0  0
 47121  1  0  0  0
 47122  1  0  0  0
 48 56  1  0  0  0
 48 65  1  0  0  0
 48123  1  0  0  0
 49 50  1  0  0  0
 49 53  1  0  0  0
 49 64  1  0  0  0
 49124  1  0  0  0
 50 51  1  0  0  0
 50125  1  0  0  0
 50126  1  0  0  0
 51 52  1  0  0  0
 51127  1  0  0  0
 51128  1  0  0  0
 52129  1  0  0  0
 52130  1  0  0  0
 53 54  1  0  0  0
 54 55  2  0  0  0
 54131  1  0  0  0
 55 57  1  0  0  0
 55132  1  0  0  0
 56 69  2  0  0  0
 57 58  2  0  0  0
 57133  1  0  0  0
 58134  1  0  0  0
 59 60  1  0  0  0
 59 61  1  0  0  0
 59 62  1  0  0  0
 60135  1  0  0  0
 60136  1  0  0  0
 60137  1  0  0  0
 61138  1  0  0  0
 61139  1  0  0  0
 61140  1  0  0  0
 62141  1  0  0  0
 62142  1  0  0  0
 62143  1  0  0  0
 63 65  1  0  0  0
 63144  1  0  0  0
 63145  1  0  0  0
 63146  1  0  0  0
 64147  1  0  0  0
 65148  1  0  0  0
 68 80  1  0  0  0
 71 73  2  0  0  0
 71 75  1  0  0  0
 71149  1  0  0  0
 72 74  1  0  0  0
 72 75  2  0  0  0
 72150  1  0  0  0
 73 76  1  0  0  0
 73151  1  0  0  0
 74 76  2  0  0  0
 74152  1  0  0  0
 75 84  1  0  0  0
 76 89  1  0  0  0
 77 79  1  0  0  0
 77 85  1  0  0  0
 77 87  2  0  0  0
 78 80  1  0  0  0
 78 86  1  0  0  0
 78 88  2  0  0  0
 79 83  1  0  0  0
 79153  1  0  0  0
 79154  1  0  0  0
 80155  1  0  0  0
 80156  1  0  0  0
 81 82  1  0  0  0
 81 85  1  0  0  0
 81157  1  0  0  0
 81158  1  0  0  0
 82 86  1  0  0  0
 82159  1  0  0  0
 82160  1  0  0  0
 83 89  1  0  0  0
 83161  1  0  0  0
 83162  1  0  0  0
 84163  1  0  0  0
 85164  1  0  0  0
 86165  1  0  0  0
M  ISO  4   1 100  68 101  80 101  84 100
M  END
> <chiral flag>
0

> <version>
0

> <s_m_source_file>
/data/baiqing/PycharmProjects/Reinvent-master-3.2/result/LINK_invent/BTK/process_docking_weight1_custom_sum_contain_oxygen_bond_distance_aromatic_linkinvent_7_9_3/rearranged_h_0003.sdf

> <i_m_source_file_index>
65

> <r_mmod_Potential_Energy-OPLS-2005>
-138.375869750977

> <r_mmod_Stretch_Energy-OPLS-2005>
35.6119689941406

> <r_mmod_Bend_Energy-OPLS-2005>
121.25659942627

> <r_mmod_Torsional_Energy-OPLS-2005>
265.978851318359

> <r_mmod_Improper_Torsional_Energy-OPLS-2005>
15.4882097244263

> <r_mmod_Van_der_Waal_Energy-OPLS-2005>
159.13037109375

> <r_mmod_Electrostatic_Energy-OPLS-2005>
-494.57373046875

> <r_mmod_Solvation_Energy-OPLS-2005>
-263.661499023438

> <b_mmod_Minimization_Converged-OPLS-2005>
0

> <r_mmod_RMS_Derivative-OPLS-2005>
5.83139753341675

$$$$
66
                    3D
 Structure written by MMmdl.
191198  0  0  1  0            999 V2000
  -30.7076  -14.4970   20.5461 C   0  0  0  0  0  0
  -30.4162  -12.3170   19.4375 C   0  0  0  0  0  0
  -29.4939  -12.4978   18.2135 C   0  0  0  0  0  0
  -28.0170  -12.3563   18.6279 C   0  0  0  0  0  0
  -27.6590  -13.2120   19.8736 C   0  0  2  0  0  0
  -28.7000  -13.0258   21.0010 C   0  0  0  0  0  0
  -25.2583  -13.8172   20.5676 C   0  0  0  0  0  0
  -24.1830  -13.0436   20.9190 C   0  0  0  0  0  0
  -24.6374  -11.6913   20.8751 C   0  0  0  0  0  0
  -23.9041  -10.4281   21.0408 C   0  0  0  0  0  0
  -24.3591   -9.4200   21.9188 C   0  0  0  0  0  0
  -23.6268   -8.2245   22.0762 C   0  0  0  0  0  0
  -22.4256   -8.0286   21.3545 C   0  0  0  0  0  0
  -21.9881   -9.0258   20.4652 C   0  0  0  0  0  0
  -22.7213  -10.2131   20.3057 C   0  0  0  0  0  0
  -21.6853   -6.0718   22.5272 C   0  0  0  0  0  0
  -21.4024   -6.5625   23.8197 C   0  0  0  0  0  0
  -21.3659   -5.6796   24.9165 C   0  0  0  0  0  0
  -21.6039   -4.3052   24.7230 C   0  0  0  0  0  0
  -21.8820   -3.8130   23.4353 C   0  0  0  0  0  0
  -21.9188   -4.6944   22.3407 C   0  0  0  0  0  0
  -22.7849  -13.5246   21.1845 C   0  0  0  0  0  0
  -22.1665   -4.2124   21.0980 F   0  0  0  0  0  0
  -21.5618   -3.4543   25.7744 F   0  0  0  0  0  0
  -30.0296  -13.3211   20.4404 N   0  0  0  0  0  0
  -26.3009  -12.9346   20.3372 N   0  0  0  0  0  0
  -25.9293  -11.6501   20.5774 N   0  0  0  0  0  0
  -22.0475  -12.8239   22.0406 N   0  0  0  0  0  0
  -25.4309  -15.1883   20.4077 N   0  0  0  0  0  0
  -31.8441  -14.6541   20.0916 O   0  0  0  0  0  0
  -21.6633   -6.8865   21.4237 O   0  0  0  0  0  0
  -22.3534  -14.5551   20.6687 O   0  0  0  0  0  0
  -24.6210  -31.8724   23.2166 C   0  0  0  0  0  0
  -25.9111  -32.4857   23.8440 C   0  0  1  0  0  0
  -27.1844  -27.3982   20.0683 C   0  0  0  0  0  0
  -25.5944  -33.8647   24.2369 N   0  0  0  0  0  0
  -23.4012  -30.5116   21.5632 C   0  0  2  0  0  0
  -24.8295  -28.9857   20.1273 C   0  0  0  0  0  0
  -22.7418  -29.4732   22.5021 C   0  0  0  0  0  0
  -18.0272  -28.1382   22.8501 C   0  0  0  0  0  0
  -24.1478  -36.7321   23.2638 C   0  0  0  0  0  0
  -25.9406  -30.8298   21.3710 C   0  0  0  0  0  0
  -26.0093  -29.4676   20.7087 C   0  0  0  0  0  0
  -27.2010  -28.6910   20.6603 C   0  0  0  0  0  0
  -25.9665  -26.9477   19.5320 C   0  0  0  0  0  0
  -24.8039  -27.7218   19.5371 C   0  0  0  0  0  0
  -23.6048  -29.8661   20.1734 C   0  0  0  0  0  0
  -25.4097  -36.3133   24.0348 C   0  0  1  0  0  0
  -20.5866  -28.3671   23.1311 C   0  0  2  0  0  0
  -20.6783  -26.9411   22.5401 C   0  0  0  0  0  0
  -19.5753  -26.6385   21.5210 C   0  0  0  0  0  0
  -18.1932  -26.7919   22.1633 C   0  0  0  0  0  0
  -19.1526  -28.8839   23.2901 C   0  0  0  0  0  0
  -18.9450  -30.1446   23.8907 C   0  0  0  0  0  0
  -17.6458  -30.6588   24.0563 C   0  0  0  0  0  0
  -25.9031  -34.9503   23.5143 C   0  0  0  0  0  0
  -16.5345  -29.9088   23.6340 C   0  0  0  0  0  0
  -16.7261  -28.6507   23.0352 C   0  0  0  0  0  0
  -26.4501  -31.6620   25.0770 C   0  0  0  0  0  0
  -25.3755  -31.3727   26.1508 C   0  0  0  0  0  0
  -27.0320  -30.3066   24.6160 C   0  0  0  0  0  0
  -27.6070  -32.4310   25.7536 C   0  0  0  0  0  0
  -27.5574  -37.1830   24.8475 C   0  0  0  0  0  0
  -21.4142  -29.3066   22.3745 N   0  0  0  0  0  0
  -26.4297  -37.3813   23.9406 N   0  0  0  0  0  0
  -24.6737  -31.0841   22.1069 N   0  0  0  0  0  0
  -23.4205  -28.8252   23.3030 O   0  0  0  0  0  0
  -28.3249  -26.6224   19.9276 O   0  0  0  0  0  0
  -26.5587  -34.8951   22.4704 O   0  0  0  0  0  0
  -23.5406  -32.1437   23.7594 O   0  0  0  0  0  0
  -29.8541  -19.4773   20.7193 C   0  0  0  0  0  0
  -28.9775  -22.3431   18.4456 C   0  0  0  0  0  0
  -24.2872  -28.3407   15.9534 C   0  0  0  0  0  0
  -33.0394  -24.8711   16.2217 C   0  0  0  0  0  0
  -29.4693  -17.9855   20.5142 C   0  0  0  0  0  0
  -26.4495  -24.8019   16.9492 C   0  0  0  0  0  0
  -25.9009  -24.9492   15.5129 C   0  0  0  0  0  0
  -31.6262  -23.6214   19.3673 C   0  0  0  0  0  0
  -31.2440  -22.1367   19.6117 C   0  0  0  0  0  0
  -30.4720  -16.9519   21.1139 C   0  0  0  0  0  0
  -27.5151  -23.6983   17.0960 C   0  0  0  0  0  0
  -27.5529  -24.0520   19.6581 C   0  0  0  0  0  0
  -24.7157  -25.9299   15.4000 C   0  0  0  0  0  0
  -32.9046  -23.8135   18.5246 C   0  0  0  0  0  0
  -28.3119  -25.2370   20.3779 C   0  0  0  0  0  0
  -29.7204  -21.8243   19.7072 C   0  0  2  0  0  0
  -24.7725  -29.5705   16.0804 N   0  0  0  0  0  0
  -22.9853  -28.1358   16.1380 N   0  3  0  0  0  0
  -32.8118  -25.9517   15.4759 N   0  0  0  0  0  0
  -33.5695  -23.7870   15.6542 N   0  3  0  0  0  0
  -29.5127  -20.3576   19.7595 N   0  0  0  0  0  0
  -30.0114  -15.5428   21.0381 N   0  0  0  0  0  0
  -28.1221  -23.4178   18.4325 N   0  0  0  0  0  0
  -25.1086  -27.3294   15.6377 N   0  0  0  0  0  0
  -32.7328  -24.8921   17.5281 N   0  0  0  0  0  0
  -30.4304  -19.8300   21.7477 O   0  0  0  0  0  0
  -29.2322  -21.7193   17.4080 O   0  0  0  0  0  0
  -31.4635  -12.4011   19.1418 H   0  0  0  0  0  0
  -30.3097  -11.3134   19.8549 H   0  0  0  0  0  0
  -29.7426  -11.7603   17.4494 H   0  0  0  0  0  0
  -29.6612  -13.4744   17.7588 H   0  0  0  0  0  0
  -27.8364  -11.3020   18.8401 H   0  0  0  0  0  0
  -27.3653  -12.6169   17.7938 H   0  0  0  0  0  0
  -27.6935  -14.2547   19.5588 H   0  0  0  0  0  0
  -28.6792  -12.0019   21.3772 H   0  0  0  0  0  0
  -28.4574  -13.6593   21.8578 H   0  0  0  0  0  0
  -25.2728   -9.5683   22.4762 H   0  0  0  0  0  0
  -23.9972   -7.4638   22.7477 H   0  0  0  0  0  0
  -21.0812   -8.8759   19.8963 H   0  0  0  0  0  0
  -22.3658  -10.9664   19.6169 H   0  0  0  0  0  0
  -21.2025   -7.6138   23.9694 H   0  0  0  0  0  0
  -21.1489   -6.0526   25.9070 H   0  0  0  0  0  0
  -22.0595   -2.7593   23.2855 H   0  0  0  0  0  0
  -22.4094  -11.9906   22.4788 H   0  0  0  0  0  0
  -21.1101  -13.1306   22.2621 H   0  0  0  0  0  0
  -24.6616  -15.8443   20.5000 H   0  0  0  0  0  0
  -26.2800  -15.6205   20.0664 H   0  0  0  0  0  0
  -26.7162  -32.5560   23.1180 H   0  0  0  0  0  0
  -25.0116  -33.9780   25.0541 H   0  0  0  0  0  0
  -22.6915  -31.3336   21.4414 H   0  0  0  0  0  0
  -23.3732  -35.9667   23.3353 H   0  0  0  0  0  0
  -24.3556  -36.8889   22.2033 H   0  0  0  0  0  0
  -23.7227  -37.6548   23.6615 H   0  0  0  0  0  0
  -26.0649  -31.5983   20.6060 H   0  0  0  0  0  0
  -26.8245  -30.8685   21.9972 H   0  0  0  0  0  0
  -28.1237  -29.0776   21.0717 H   0  0  0  0  0  0
  -25.8634  -26.0018   19.0697 H   0  0  0  0  0  0
  -23.8970  -27.3378   19.0881 H   0  0  0  0  0  0
  -23.7349  -30.6498   19.4249 H   0  0  0  0  0  0
  -22.7166  -29.3116   19.8624 H   0  0  0  0  0  0
  -25.1264  -36.2009   25.0840 H   0  0  0  0  0  0
  -20.9960  -28.3212   24.1431 H   0  0  0  0  0  0
  -20.5702  -26.2260   23.3578 H   0  0  0  0  0  0
  -21.6649  -26.7473   22.1179 H   0  0  0  0  0  0
  -19.6908  -25.6295   21.1232 H   0  0  0  0  0  0
  -19.6685  -27.3205   20.6749 H   0  0  0  0  0  0
  -17.4192  -26.6653   21.4046 H   0  0  0  0  0  0
  -18.0358  -26.0047   22.9019 H   0  0  0  0  0  0
  -19.7919  -30.7267   24.2279 H   0  0  0  0  0  0
  -17.5007  -31.6278   24.5155 H   0  0  0  0  0  0
  -15.5345  -30.3002   23.7663 H   0  0  0  0  0  0
  -15.8653  -28.0844   22.7064 H   0  0  0  0  0  0
  -24.5903  -30.7116   25.7832 H   0  0  0  0  0  0
  -24.8988  -32.2886   26.4998 H   0  0  0  0  0  0
  -25.8090  -30.8839   27.0241 H   0  0  0  0  0  0
  -26.2873  -29.6842   24.1181 H   0  0  0  0  0  0
  -27.4032  -29.7303   25.4640 H   0  0  0  0  0  0
  -27.8752  -30.4384   23.9376 H   0  0  0  0  0  0
  -27.2702  -33.3579   26.2184 H   0  0  0  0  0  0
  -28.3864  -32.6896   25.0361 H   0  0  0  0  0  0
  -28.0761  -31.8380   26.5392 H   0  0  0  0  0  0
  -28.2629  -38.0091   24.7487 H   0  0  0  0  0  0
  -28.1036  -36.2620   24.6351 H   0  0  0  0  0  0
  -27.2307  -37.1561   25.8891 H   0  0  0  0  0  0
  -20.9298  -29.8802   21.6999 H   0  0  0  0  0  0
  -26.0198  -38.2919   24.1372 H   0  0  0  0  0  0
  -29.3397  -17.7876   19.4499 H   0  0  0  0  0  0
  -28.4884  -17.8460   20.9697 H   0  0  0  0  0  0
  -25.5931  -24.5665   17.5813 H   0  0  0  0  0  0
  -26.8815  -25.7540   17.2525 H   0  0  0  0  0  0
  -25.5593  -23.9768   15.1562 H   0  0  0  0  0  0
  -26.6985  -25.2517   14.8335 H   0  0  0  0  0  0
  -31.7553  -24.1095   20.3354 H   0  0  0  0  0  0
  -30.8169  -24.1695   18.8872 H   0  0  0  0  0  0
  -31.7493  -21.7991   20.5130 H   0  0  0  0  0  0
  -31.6552  -21.5264   18.8079 H   0  0  0  0  0  0
  -31.4339  -17.0700   20.6137 H   0  0  0  0  0  0
  -30.6576  -17.1869   22.1628 H   0  0  0  0  0  0
  -28.3221  -23.9191   16.3953 H   0  0  0  0  0  0
  -27.0482  -22.7785   16.7384 H   0  0  0  0  0  0
  -26.4913  -24.2179   19.5464 H   0  0  0  0  0  0
  -27.4940  -23.2618   20.4048 H   0  0  0  0  0  0
  -23.9289  -25.6389   16.0959 H   0  0  0  0  0  0
  -24.2800  -25.8744   14.4019 H   0  0  0  0  0  0
  -33.1732  -22.8891   18.0172 H   0  0  0  0  0  0
  -33.7491  -24.0534   19.1715 H   0  0  0  0  0  0
  -27.9280  -25.2697   21.3992 H   0  0  0  0  0  0
  -29.3529  -24.9417   20.5031 H   0  0  0  0  0  0
  -29.3258  -22.2662   20.6192 H   0  0  0  0  0  0
  -24.1859  -30.3649   16.2892 H   0  0  0  0  0  0
  -25.7538  -29.7620   15.9354 H   0  0  0  0  0  0
  -22.3412  -28.8844   16.3471 H   0  0  0  0  0  0
  -22.5907  -27.2143   16.0310 H   0  0  0  0  0  0
  -33.0332  -25.9882   14.4880 H   0  0  0  0  0  0
  -32.4089  -26.7995   15.8522 H   0  0  0  0  0  0
  -33.8179  -23.7536   14.6744 H   0  0  0  0  0  0
  -33.7632  -22.9531   16.1863 H   0  0  0  0  0  0
  -29.0517  -19.9903   18.9360 H   0  0  0  0  0  0
  -29.0853  -15.3429   21.3824 H   0  0  0  0  0  0
  -26.0781  -27.5442   15.4510 H   0  0  0  0  0  0
  -32.3916  -25.7612   17.9235 H   0  0  0  0  0  0
  1 25  1  0  0  0
  1 30  2  0  0  0
  1 92  1  0  0  0
  2  3  1  0  0  0
  2 25  1  0  0  0
  2 98  1  0  0  0
  2 99  1  0  0  0
  3  4  1  0  0  0
  3100  1  0  0  0
  3101  1  0  0  0
  4  5  1  0  0  0
  4102  1  0  0  0
  4103  1  0  0  0
  5  6  1  0  0  0
  5 26  1  0  0  0
  5104  1  0  0  0
  6 25  1  0  0  0
  6105  1  0  0  0
  6106  1  0  0  0
  7  8  2  0  0  0
  7 26  1  0  0  0
  7 29  1  0  0  0
  8  9  1  0  0  0
  8 22  1  0  0  0
  9 10  1  0  0  0
  9 27  2  0  0  0
 10 11  2  0  0  0
 10 15  1  0  0  0
 11 12  1  0  0  0
 11107  1  0  0  0
 12 13  2  0  0  0
 12108  1  0  0  0
 13 14  1  0  0  0
 13 31  1  0  0  0
 14 15  2  0  0  0
 14109  1  0  0  0
 15110  1  0  0  0
 16 17  2  0  0  0
 16 21  1  0  0  0
 16 31  1  0  0  0
 17 18  1  0  0  0
 17111  1  0  0  0
 18 19  2  0  0  0
 18112  1  0  0  0
 19 20  1  0  0  0
 19 24  1  0  0  0
 20 21  2  0  0  0
 20113  1  0  0  0
 21 23  1  0  0  0
 22 28  1  0  0  0
 22 32  2  0  0  0
 26 27  1  0  0  0
 28114  1  0  0  0
 28115  1  0  0  0
 29116  1  0  0  0
 29117  1  0  0  0
 33 34  1  0  0  0
 33 66  1  0  0  0
 33 70  2  0  0  0
 34 36  1  0  0  0
 34 59  1  0  0  0
 34118  1  0  0  0
 35 44  2  0  0  0
 35 45  1  0  0  0
 35 68  1  0  0  0
 36 56  1  0  0  0
 36119  1  0  0  0
 37 39  1  0  0  0
 37 47  1  0  0  0
 37 66  1  0  0  0
 37120  1  0  0  0
 38 43  2  0  0  0
 38 46  1  0  0  0
 38 47  1  0  0  0
 39 64  1  0  0  0
 39 67  2  0  0  0
 40 52  1  0  0  0
 40 53  2  0  0  0
 40 58  1  0  0  0
 41121  1  0  0  0
 41122  1  0  0  0
 41123  1  0  0  0
 41 48  1  0  0  0
 42 43  1  0  0  0
 42 66  1  0  0  0
 42124  1  0  0  0
 42125  1  0  0  0
 43 44  1  0  0  0
 44126  1  0  0  0
 45 46  2  0  0  0
 45127  1  0  0  0
 46128  1  0  0  0
 47129  1  0  0  0
 47130  1  0  0  0
 48 56  1  0  0  0
 48 65  1  0  0  0
 48131  1  0  0  0
 49 50  1  0  0  0
 49 53  1  0  0  0
 49 64  1  0  0  0
 49132  1  0  0  0
 50 51  1  0  0  0
 50133  1  0  0  0
 50134  1  0  0  0
 51 52  1  0  0  0
 51135  1  0  0  0
 51136  1  0  0  0
 52137  1  0  0  0
 52138  1  0  0  0
 53 54  1  0  0  0
 54 55  2  0  0  0
 54139  1  0  0  0
 55 57  1  0  0  0
 55140  1  0  0  0
 56 69  2  0  0  0
 57 58  2  0  0  0
 57141  1  0  0  0
 58142  1  0  0  0
 59 60  1  0  0  0
 59 61  1  0  0  0
 59 62  1  0  0  0
 60143  1  0  0  0
 60144  1  0  0  0
 60145  1  0  0  0
 61146  1  0  0  0
 61147  1  0  0  0
 61148  1  0  0  0
 62149  1  0  0  0
 62150  1  0  0  0
 62151  1  0  0  0
 63 65  1  0  0  0
 63152  1  0  0  0
 63153  1  0  0  0
 63154  1  0  0  0
 64155  1  0  0  0
 65156  1  0  0  0
 68 85  1  0  0  0
 71 75  1  0  0  0
 71 91  1  0  0  0
 71 96  2  0  0  0
 72 86  1  0  0  0
 72 93  1  0  0  0
 72 97  2  0  0  0
 73 87  1  0  0  0
 73 88  2  0  0  0
 73 94  1  0  0  0
 74 89  1  0  0  0
 74 90  2  0  0  0
 74 95  1  0  0  0
 75 80  1  0  0  0
 75157  1  0  0  0
 75158  1  0  0  0
 76 77  1  0  0  0
 76 81  1  0  0  0
 76159  1  0  0  0
 76160  1  0  0  0
 77 83  1  0  0  0
 77161  1  0  0  0
 77162  1  0  0  0
 78 79  1  0  0  0
 78 84  1  0  0  0
 78163  1  0  0  0
 78164  1  0  0  0
 79165  1  0  0  0
 79166  1  0  0  0
 79 86  1  0  0  0
 80 92  1  0  0  0
 80167  1  0  0  0
 80168  1  0  0  0
 81 93  1  0  0  0
 81169  1  0  0  0
 81170  1  0  0  0
 82 85  1  0  0  0
 82 93  1  0  0  0
 82171  1  0  0  0
 82172  1  0  0  0
 83 94  1  0  0  0
 83173  1  0  0  0
 83174  1  0  0  0
 84 95  1  0  0  0
 84175  1  0  0  0
 84176  1  0  0  0
 85177  1  0  0  0
 85178  1  0  0  0
 86 91  1  0  0  0
 86179  1  0  0  0
 87180  1  0  0  0
 87181  1  0  0  0
 88182  1  0  0  0
 88183  1  0  0  0
 89184  1  0  0  0
 89185  1  0  0  0
 90186  1  0  0  0
 90187  1  0  0  0
 91188  1  0  0  0
 92189  1  0  0  0
 94190  1  0  0  0
 95191  1  0  0  0
M  CHG  2  88   1  90   1
M  ISO  4   1 100  68 101  85 101  92 100
M  END
> <chiral flag>
0

> <version>
0

> <s_m_source_file>
/data/baiqing/PycharmProjects/Reinvent-master-3.2/result/LINK_invent/BTK/process_docking_weight1_custom_sum_contain_oxygen_bond_distance_aromatic_linkinvent_7_9_3/rearranged_h_0003.sdf

> <i_m_source_file_index>
66

> <r_mmod_Potential_Energy-OPLS-2005>
-579.366333007812

> <r_mmod_Stretch_Energy-OPLS-2005>
57.9892349243164

> <r_mmod_Bend_Energy-OPLS-2005>
173.58430480957

> <r_mmod_Torsional_Energy-OPLS-2005>
276.536926269531

> <r_mmod_Improper_Torsional_Energy-OPLS-2005>
4.46267223358154

> <r_mmod_Van_der_Waal_Energy-OPLS-2005>
150.351806640625

> <r_mmod_Electrostatic_Energy-OPLS-2005>
-357.552185058594

> <r_mmod_Solvation_Energy-OPLS-2005>
-906.337585449219

> <b_mmod_Minimization_Converged-OPLS-2005>
0

> <r_mmod_RMS_Derivative-OPLS-2005>
4.13889646530151

$$$$
67
                    3D
 Structure written by MMmdl.
163170  0  0  1  0            999 V2000
  -30.7443  -14.4324   20.6080 C   0  0  0  0  0  0
  -30.4214  -12.3061   19.3958 C   0  0  0  0  0  0
  -29.4749  -12.4935   18.1923 C   0  0  0  0  0  0
  -28.0064  -12.3022   18.6157 C   0  0  0  0  0  0
  -27.6499  -13.1547   19.8551 C   0  0  2  0  0  0
  -28.7031  -12.9639   20.9765 C   0  0  0  0  0  0
  -25.2616  -13.8030   20.5587 C   0  0  0  0  0  0
  -24.1833  -13.0408   20.9209 C   0  0  0  0  0  0
  -24.6317  -11.6848   20.8771 C   0  0  0  0  0  0
  -23.8972  -10.4271   21.0457 C   0  0  0  0  0  0
  -24.3559   -9.4190   21.9214 C   0  0  0  0  0  0
  -23.6254   -8.2215   22.0768 C   0  0  0  0  0  0
  -22.4245   -8.0242   21.3539 C   0  0  0  0  0  0
  -21.9861   -9.0221   20.4668 C   0  0  0  0  0  0
  -22.7166  -10.2115   20.3096 C   0  0  0  0  0  0
  -21.6831   -6.0710   22.5280 C   0  0  0  0  0  0
  -21.3993   -6.5640   23.8211 C   0  0  0  0  0  0
  -21.3656   -5.6808   24.9183 C   0  0  0  0  0  0
  -21.6049   -4.3065   24.7240 C   0  0  0  0  0  0
  -21.8816   -3.8133   23.4373 C   0  0  0  0  0  0
  -21.9186   -4.6939   22.3417 C   0  0  0  0  0  0
  -22.7889  -13.5273   21.1898 C   0  0  0  0  0  0
  -22.1669   -4.2123   21.0999 F   0  0  0  0  0  0
  -21.5665   -3.4560   25.7761 F   0  0  0  0  0  0
  -30.0352  -13.2818   20.4274 N   0  0  0  0  0  0
  -26.2942  -12.9061   20.3269 N   0  0  0  0  0  0
  -25.9201  -11.6297   20.5748 N   0  0  0  0  0  0
  -22.0487  -12.8239   22.0431 N   0  0  0  0  0  0
  -25.4465  -15.1719   20.3793 N   0  0  0  0  0  0
  -31.8609  -14.6176   20.1238 O   0  0  0  0  0  0
  -21.6625   -6.8827   21.4229 O   0  0  0  0  0  0
  -22.3613  -14.5600   20.6761 O   0  0  0  0  0  0
  -24.6061  -31.8737   23.2170 C   0  0  0  0  0  0
  -25.8977  -32.4854   23.8437 C   0  0  1  0  0  0
  -27.2406  -27.4921   20.0893 C   0  0  0  0  0  0
  -25.5858  -33.8658   24.2365 N   0  0  0  0  0  0
  -23.3926  -30.4969   21.5539 C   0  0  2  0  0  0
  -24.8433  -28.9657   20.1207 C   0  0  0  0  0  0
  -22.7356  -29.4708   22.5033 C   0  0  0  0  0  0
  -18.0262  -28.1372   22.8498 C   0  0  0  0  0  0
  -24.1486  -36.7333   23.2640 C   0  0  0  0  0  0
  -25.9163  -30.8545   21.3633 C   0  0  0  0  0  0
  -25.9973  -29.4898   20.7181 C   0  0  0  0  0  0
  -27.1995  -28.7569   20.7078 C   0  0  0  0  0  0
  -26.0813  -26.9718   19.4824 C   0  0  0  0  0  0
  -24.8760  -27.7010   19.5045 C   0  0  0  0  0  0
  -23.5998  -29.8252   20.1697 C   0  0  0  0  0  0
  -25.4099  -36.3128   24.0336 C   0  0  1  0  0  0
  -20.5848  -28.3644   23.1338 C   0  0  2  0  0  0
  -20.6778  -26.9405   22.5369 C   0  0  0  0  0  0
  -19.5735  -26.6432   21.5180 C   0  0  0  0  0  0
  -18.1927  -26.7927   22.1622 C   0  0  0  0  0  0
  -19.1498  -28.8821   23.2926 C   0  0  0  0  0  0
  -18.9429  -30.1427   23.8902 C   0  0  0  0  0  0
  -17.6434  -30.6591   24.0537 C   0  0  0  0  0  0
  -25.9015  -34.9496   23.5139 C   0  0  0  0  0  0
  -16.5326  -29.9091   23.6321 C   0  0  0  0  0  0
  -16.7247  -28.6503   23.0341 C   0  0  0  0  0  0
  -26.4438  -31.6609   25.0740 C   0  0  0  0  0  0
  -25.3727  -31.3690   26.1501 C   0  0  0  0  0  0
  -27.0256  -30.3057   24.6072 C   0  0  0  0  0  0
  -27.6035  -32.4316   25.7479 C   0  0  0  0  0  0
  -27.5579  -37.1833   24.8461 C   0  0  0  0  0  0
  -21.4081  -29.3087   22.3788 N   0  0  0  0  0  0
  -26.4297  -37.3803   23.9397 N   0  0  0  0  0  0
  -24.6550  -31.0903   22.1027 N   0  0  0  0  0  0
  -23.4164  -28.8243   23.3033 O   0  0  0  0  0  0
  -28.4078  -26.7772   20.0580 O   0  0  0  0  0  0
  -26.5606  -34.8925   22.4725 O   0  0  0  0  0  0
  -23.5276  -32.1457   23.7629 O   0  0  0  0  0  0
  -29.0300  -17.5784   20.8400 C   0  0  0  0  0  0
  -28.1554  -24.6896   21.2016 C   0  0  0  0  0  0
  -28.9535  -16.0624   20.9275 C   0  0  0  0  0  0
  -28.7056  -26.1136   21.2843 C   0  0  0  0  0  0
  -25.6649  -21.0807   19.5694 C   0  0  0  0  0  0
  -24.6245  -21.9652   20.2871 C   0  0  0  0  0  0
  -26.2169  -19.9388   20.4424 C   0  0  0  0  0  0
  -25.2203  -23.3061   20.7527 C   0  0  0  0  0  0
  -27.6448  -19.5234   20.0464 C   0  0  0  0  0  0
  -26.3093  -23.1665   21.8337 C   0  0  0  0  0  0
  -27.8874  -18.1457   20.4410 N   0  0  0  0  0  0
  -27.0854  -24.3963   21.9541 N   0  0  0  0  0  0
  -30.1852  -15.3991   21.3482 N   0  0  0  0  0  0
  -30.0766  -18.1870   21.0714 O   0  0  0  0  0  0
  -28.6597  -23.8854   20.4131 O   0  0  0  0  0  0
  -31.4603  -12.4121   19.0743 H   0  0  0  0  0  0
  -30.3412  -11.2946   19.7967 H   0  0  0  0  0  0
  -29.7286  -11.7883   17.3988 H   0  0  0  0  0  0
  -29.6031  -13.4916   17.7717 H   0  0  0  0  0  0
  -27.8518  -11.2454   18.8324 H   0  0  0  0  0  0
  -27.3363  -12.5444   17.7906 H   0  0  0  0  0  0
  -27.6547  -14.1683   19.4821 H   0  0  0  0  0  0
  -28.6956  -11.9302   21.3223 H   0  0  0  0  0  0
  -28.4534  -13.5510   21.8592 H   0  0  0  0  0  0
  -25.2700   -9.5684   22.4791 H   0  0  0  0  0  0
  -23.9977   -7.4609   22.7485 H   0  0  0  0  0  0
  -21.0798   -8.8729   19.8979 H   0  0  0  0  0  0
  -22.3612  -10.9671   19.6230 H   0  0  0  0  0  0
  -21.1968   -7.6145   23.9679 H   0  0  0  0  0  0
  -21.1494   -6.0567   25.9077 H   0  0  0  0  0  0
  -22.0589   -2.7597   23.2897 H   0  0  0  0  0  0
  -22.4045  -11.9837   22.4735 H   0  0  0  0  0  0
  -21.1142  -13.1331   22.2688 H   0  0  0  0  0  0
  -24.6584  -15.8082   20.4222 H   0  0  0  0  0  0
  -26.1947  -15.5112   19.7926 H   0  0  0  0  0  0
  -26.7070  -32.5583   23.1231 H   0  0  0  0  0  0
  -24.9963  -33.9824   25.0471 H   0  0  0  0  0  0
  -22.6771  -31.3094   21.4196 H   0  0  0  0  0  0
  -23.3732  -35.9685   23.3318 H   0  0  0  0  0  0
  -24.3581  -36.8933   22.2054 H   0  0  0  0  0  0
  -23.7263  -37.6554   23.6643 H   0  0  0  0  0  0
  -26.0173  -31.6186   20.5896 H   0  0  0  0  0  0
  -26.8079  -30.9139   21.9747 H   0  0  0  0  0  0
  -28.0927  -29.1596   21.1655 H   0  0  0  0  0  0
  -26.1112  -26.0073   18.9940 H   0  0  0  0  0  0
  -23.9872  -27.2942   19.0417 H   0  0  0  0  0  0
  -23.7006  -30.5981   19.4063 H   0  0  0  0  0  0
  -22.7247  -29.2397   19.8805 H   0  0  0  0  0  0
  -25.1289  -36.2002   25.0832 H   0  0  0  0  0  0
  -20.9955  -28.3125   24.1458 H   0  0  0  0  0  0
  -20.5764  -26.2238   23.3534 H   0  0  0  0  0  0
  -21.6616  -26.7484   22.1059 H   0  0  0  0  0  0
  -19.6923  -25.6373   21.1144 H   0  0  0  0  0  0
  -19.6643  -27.3298   20.6756 H   0  0  0  0  0  0
  -17.4213  -26.6683   21.4003 H   0  0  0  0  0  0
  -18.0358  -26.0032   22.8989 H   0  0  0  0  0  0
  -19.7903  -30.7257   24.2270 H   0  0  0  0  0  0
  -17.4980  -31.6298   24.5084 H   0  0  0  0  0  0
  -15.5317  -30.2986   23.7649 H   0  0  0  0  0  0
  -15.8645  -28.0817   22.7028 H   0  0  0  0  0  0
  -24.5890  -30.7050   25.7840 H   0  0  0  0  0  0
  -24.8919  -32.2837   26.4979 H   0  0  0  0  0  0
  -25.8078  -30.8841   27.0248 H   0  0  0  0  0  0
  -26.2795  -29.6861   24.1087 H   0  0  0  0  0  0
  -27.4001  -29.7234   25.4505 H   0  0  0  0  0  0
  -27.8638  -30.4379   23.9221 H   0  0  0  0  0  0
  -27.2665  -33.3596   26.2094 H   0  0  0  0  0  0
  -28.3801  -32.6911   25.0277 H   0  0  0  0  0  0
  -28.0751  -31.8431   26.5352 H   0  0  0  0  0  0
  -28.2627  -38.0109   24.7501 H   0  0  0  0  0  0
  -28.1053  -36.2649   24.6293 H   0  0  0  0  0  0
  -27.2304  -37.1493   25.8871 H   0  0  0  0  0  0
  -20.9247  -29.8851   21.7043 H   0  0  0  0  0  0
  -26.0189  -38.2888   24.1386 H   0  0  0  0  0  0
  -28.1171  -15.7694   21.5602 H   0  0  0  0  0  0
  -28.7408  -15.7967   19.8945 H   0  0  0  0  0  0
  -29.7869  -26.0761   21.4110 H   0  0  0  0  0  0
  -28.3054  -26.6399   22.1534 H   0  0  0  0  0  0
  -26.4820  -21.7030   19.1997 H   0  0  0  0  0  0
  -25.2246  -20.6462   18.6719 H   0  0  0  0  0  0
  -24.1627  -21.4400   21.1245 H   0  0  0  0  0  0
  -23.8125  -22.1753   19.5907 H   0  0  0  0  0  0
  -25.5307  -19.0916   20.3712 H   0  0  0  0  0  0
  -26.2256  -20.2202   21.4963 H   0  0  0  0  0  0
  -24.4245  -23.9583   21.1219 H   0  0  0  0  0  0
  -25.6287  -23.8144   19.8794 H   0  0  0  0  0  0
  -28.3757  -20.2075   20.4813 H   0  0  0  0  0  0
  -27.7645  -19.5804   18.9638 H   0  0  0  0  0  0
  -26.9913  -22.3487   21.6006 H   0  0  0  0  0  0
  -25.8558  -22.9170   22.7927 H   0  0  0  0  0  0
  -27.1038  -17.5188   20.3238 H   0  0  0  0  0  0
  -26.7547  -25.0966   22.6069 H   0  0  0  0  0  0
  -30.8571  -16.0843   21.6663 H   0  0  0  0  0  0
  1 25  1  0  0  0
  1 30  2  0  0  0
  1 83  1  0  0  0
  2  3  1  0  0  0
  2 25  1  0  0  0
  2 86  1  0  0  0
  2 87  1  0  0  0
  3  4  1  0  0  0
  3 88  1  0  0  0
  3 89  1  0  0  0
  4  5  1  0  0  0
  4 90  1  0  0  0
  4 91  1  0  0  0
  5  6  1  0  0  0
  5 26  1  0  0  0
  5 92  1  0  0  0
  6 25  1  0  0  0
  6 93  1  0  0  0
  6 94  1  0  0  0
  7  8  2  0  0  0
  7 26  1  0  0  0
  7 29  1  0  0  0
  8  9  1  0  0  0
  8 22  1  0  0  0
  9 10  1  0  0  0
  9 27  2  0  0  0
 10 11  2  0  0  0
 10 15  1  0  0  0
 11 12  1  0  0  0
 11 95  1  0  0  0
 12 13  2  0  0  0
 12 96  1  0  0  0
 13 14  1  0  0  0
 13 31  1  0  0  0
 14 15  2  0  0  0
 14 97  1  0  0  0
 15 98  1  0  0  0
 16 17  2  0  0  0
 16 21  1  0  0  0
 16 31  1  0  0  0
 17 18  1  0  0  0
 17 99  1  0  0  0
 18 19  2  0  0  0
 18100  1  0  0  0
 19 20  1  0  0  0
 19 24  1  0  0  0
 20 21  2  0  0  0
 20101  1  0  0  0
 21 23  1  0  0  0
 22 28  1  0  0  0
 22 32  2  0  0  0
 26 27  1  0  0  0
 28102  1  0  0  0
 28103  1  0  0  0
 29104  1  0  0  0
 29105  1  0  0  0
 33 34  1  0  0  0
 33 66  1  0  0  0
 33 70  2  0  0  0
 34 36  1  0  0  0
 34 59  1  0  0  0
 34106  1  0  0  0
 35 44  2  0  0  0
 35 45  1  0  0  0
 35 68  1  0  0  0
 36 56  1  0  0  0
 36107  1  0  0  0
 37 39  1  0  0  0
 37 47  1  0  0  0
 37 66  1  0  0  0
 37108  1  0  0  0
 38 43  2  0  0  0
 38 46  1  0  0  0
 38 47  1  0  0  0
 39 64  1  0  0  0
 39 67  2  0  0  0
 40 52  1  0  0  0
 40 53  2  0  0  0
 40 58  1  0  0  0
 41109  1  0  0  0
 41110  1  0  0  0
 41111  1  0  0  0
 41 48  1  0  0  0
 42 43  1  0  0  0
 42 66  1  0  0  0
 42112  1  0  0  0
 42113  1  0  0  0
 43 44  1  0  0  0
 44114  1  0  0  0
 45 46  2  0  0  0
 45115  1  0  0  0
 46116  1  0  0  0
 47117  1  0  0  0
 47118  1  0  0  0
 48 56  1  0  0  0
 48 65  1  0  0  0
 48119  1  0  0  0
 49 50  1  0  0  0
 49 53  1  0  0  0
 49 64  1  0  0  0
 49120  1  0  0  0
 50 51  1  0  0  0
 50121  1  0  0  0
 50122  1  0  0  0
 51 52  1  0  0  0
 51123  1  0  0  0
 51124  1  0  0  0
 52125  1  0  0  0
 52126  1  0  0  0
 53 54  1  0  0  0
 54 55  2  0  0  0
 54127  1  0  0  0
 55 57  1  0  0  0
 55128  1  0  0  0
 56 69  2  0  0  0
 57 58  2  0  0  0
 57129  1  0  0  0
 58130  1  0  0  0
 59 60  1  0  0  0
 59 61  1  0  0  0
 59 62  1  0  0  0
 60131  1  0  0  0
 60132  1  0  0  0
 60133  1  0  0  0
 61134  1  0  0  0
 61135  1  0  0  0
 61136  1  0  0  0
 62137  1  0  0  0
 62138  1  0  0  0
 62139  1  0  0  0
 63 65  1  0  0  0
 63140  1  0  0  0
 63141  1  0  0  0
 63142  1  0  0  0
 64143  1  0  0  0
 65144  1  0  0  0
 68 74  1  0  0  0
 71 73  1  0  0  0
 71 81  1  0  0  0
 71 84  2  0  0  0
 72 74  1  0  0  0
 72 82  1  0  0  0
 72 85  2  0  0  0
 73 83  1  0  0  0
 73145  1  0  0  0
 73146  1  0  0  0
 74147  1  0  0  0
 74148  1  0  0  0
 75 76  1  0  0  0
 75 77  1  0  0  0
 75149  1  0  0  0
 75150  1  0  0  0
 76 78  1  0  0  0
 76151  1  0  0  0
 76152  1  0  0  0
 77 79  1  0  0  0
 77153  1  0  0  0
 77154  1  0  0  0
 78 80  1  0  0  0
 78155  1  0  0  0
 78156  1  0  0  0
 79 81  1  0  0  0
 79157  1  0  0  0
 79158  1  0  0  0
 80 82  1  0  0  0
 80159  1  0  0  0
 80160  1  0  0  0
 81161  1  0  0  0
 82162  1  0  0  0
 83163  1  0  0  0
M  ISO  4   1 100  68 101  74 101  83 100
M  END
> <chiral flag>
0

> <version>
0

> <s_m_source_file>
/data/baiqing/PycharmProjects/Reinvent-master-3.2/result/LINK_invent/BTK/process_docking_weight1_custom_sum_contain_oxygen_bond_distance_aromatic_linkinvent_7_9_3/rearranged_h_0003.sdf

> <i_m_source_file_index>
67

> <r_mmod_Potential_Energy-OPLS-2005>
-212.260040283203

> <r_mmod_Stretch_Energy-OPLS-2005>
30.0243053436279

> <r_mmod_Bend_Energy-OPLS-2005>
102.352981567383

> <r_mmod_Torsional_Energy-OPLS-2005>
292.457366943359

> <r_mmod_Improper_Torsional_Energy-OPLS-2005>
8.70461845397949

> <r_mmod_Van_der_Waal_Energy-OPLS-2005>
132.122528076172

> <r_mmod_Electrostatic_Energy-OPLS-2005>
-527.853759765625

> <r_mmod_Solvation_Energy-OPLS-2005>
-261.175048828125

> <b_mmod_Minimization_Converged-OPLS-2005>
0

> <r_mmod_RMS_Derivative-OPLS-2005>
3.5713791847229

$$$$
68
                    3D
 Structure written by MMmdl.
159167  0  0  1  0            999 V2000
  -30.6630  -14.4738   20.5996 C   0  0  0  0  0  0
  -30.4355  -12.3140   19.4136 C   0  0  0  0  0  0
  -29.4986  -12.5085   18.2018 C   0  0  0  0  0  0
  -28.0175  -12.3685   18.6113 C   0  0  0  0  0  0
  -27.6649  -13.1945   19.8765 C   0  0  2  0  0  0
  -28.7032  -12.9387   20.9915 C   0  0  0  0  0  0
  -25.2618  -13.8126   20.5646 C   0  0  0  0  0  0
  -24.1855  -13.0433   20.9168 C   0  0  0  0  0  0
  -24.6384  -11.6890   20.8729 C   0  0  0  0  0  0
  -23.9041  -10.4287   21.0401 C   0  0  0  0  0  0
  -24.3601   -9.4212   21.9185 C   0  0  0  0  0  0
  -23.6284   -8.2243   22.0757 C   0  0  0  0  0  0
  -22.4268   -8.0276   21.3539 C   0  0  0  0  0  0
  -21.9897   -9.0247   20.4645 C   0  0  0  0  0  0
  -22.7214  -10.2130   20.3053 C   0  0  0  0  0  0
  -21.6854   -6.0733   22.5279 C   0  0  0  0  0  0
  -21.4013   -6.5640   23.8212 C   0  0  0  0  0  0
  -21.3659   -5.6793   24.9174 C   0  0  0  0  0  0
  -21.6039   -4.3054   24.7228 C   0  0  0  0  0  0
  -21.8822   -3.8146   23.4350 C   0  0  0  0  0  0
  -21.9193   -4.6960   22.3401 C   0  0  0  0  0  0
  -22.7881  -13.5245   21.1833 C   0  0  0  0  0  0
  -22.1663   -4.2143   21.0978 F   0  0  0  0  0  0
  -21.5629   -3.4536   25.7744 F   0  0  0  0  0  0
  -30.0345  -13.2749   20.4521 N   0  0  0  0  0  0
  -26.3035  -12.9269   20.3338 N   0  0  0  0  0  0
  -25.9303  -11.6444   20.5737 N   0  0  0  0  0  0
  -22.0512  -12.8244   22.0389 N   0  0  0  0  0  0
  -25.4383  -15.1844   20.4027 N   0  0  0  0  0  0
  -31.7797  -14.7061   20.1238 O   0  0  0  0  0  0
  -21.6637   -6.8872   21.4237 O   0  0  0  0  0  0
  -22.3577  -14.5557   20.6685 O   0  0  0  0  0  0
  -24.6132  -31.8671   23.2078 C   0  0  0  0  0  0
  -25.9020  -32.4823   23.8375 C   0  0  1  0  0  0
  -27.2381  -27.4349   20.0977 C   0  0  0  0  0  0
  -25.5865  -33.8618   24.2302 N   0  0  0  0  0  0
  -23.4013  -30.4891   21.5498 C   0  0  2  0  0  0
  -24.8486  -28.9521   20.1190 C   0  0  0  0  0  0
  -22.7403  -29.4641   22.4993 C   0  0  0  0  0  0
  -18.0266  -28.1369   22.8495 C   0  0  0  0  0  0
  -24.1484  -36.7323   23.2636 C   0  0  0  0  0  0
  -25.9290  -30.8363   21.3582 C   0  0  0  0  0  0
  -26.0092  -29.4698   20.7069 C   0  0  0  0  0  0
  -27.2079  -28.7202   20.6877 C   0  0  0  0  0  0
  -26.0573  -26.9271   19.5111 C   0  0  0  0  0  0
  -24.8667  -27.6794   19.5202 C   0  0  0  0  0  0
  -23.6106  -29.8187   20.1662 C   0  0  0  0  0  0
  -25.4105  -36.3115   24.0332 C   0  0  1  0  0  0
  -20.5856  -28.3648   23.1325 C   0  0  2  0  0  0
  -20.6763  -26.9385   22.5426 C   0  0  0  0  0  0
  -19.5741  -26.6377   21.5217 C   0  0  0  0  0  0
  -18.1917  -26.7916   22.1625 C   0  0  0  0  0  0
  -19.1518  -28.8827   23.2907 C   0  0  0  0  0  0
  -18.9451  -30.1435   23.8915 C   0  0  0  0  0  0
  -17.6459  -30.6587   24.0556 C   0  0  0  0  0  0
  -25.9030  -34.9477   23.5122 C   0  0  0  0  0  0
  -16.5347  -29.9091   23.6316 C   0  0  0  0  0  0
  -16.7259  -28.6502   23.0345 C   0  0  0  0  0  0
  -26.4455  -31.6601   25.0697 C   0  0  0  0  0  0
  -25.3717  -31.3712   26.1444 C   0  0  0  0  0  0
  -27.0255  -30.3039   24.6041 C   0  0  0  0  0  0
  -27.6023  -32.4317   25.7475 C   0  0  0  0  0  0
  -27.5584  -37.1816   24.8457 C   0  0  0  0  0  0
  -21.4131  -29.3018   22.3739 N   0  0  0  0  0  0
  -26.4296  -37.3797   23.9406 N   0  0  0  0  0  0
  -24.6664  -31.0772   22.0982 N   0  0  0  0  0  0
  -23.4180  -28.8184   23.3033 O   0  0  0  0  0  0
  -28.4201  -26.7232   20.0836 O   0  0  0  0  0  0
  -26.5614  -34.8941   22.4700 O   0  0  0  0  0  0
  -23.5331  -32.1418   23.7487 O   0  0  0  0  0  0
  -28.8695  -18.9699   21.6864 C   0  0  0  0  0  0
  -31.2790  -18.9331   21.3798 C   0  0  0  0  0  0
  -28.8336  -17.5690   21.5127 C   0  0  0  0  0  0
  -31.2438  -17.5312   21.2002 C   0  0  0  0  0  0
  -30.0966  -19.6655   21.6428 C   0  0  0  0  0  0
  -30.0172  -16.8298   21.2797 C   0  0  0  0  0  0
  -30.6160  -21.9426   19.7027 C   0  0  0  0  0  0
  -30.1658  -21.1563   22.0104 C   0  0  0  0  0  0
  -29.7812  -24.7728   20.5643 C   0  0  0  0  0  0
  -29.9523  -23.5426   21.5097 C   0  0  0  0  0  0
  -28.3491  -25.3122   20.3457 C   0  0  0  0  0  0
  -29.8989  -15.4079   21.2059 N   0  0  0  0  0  0
  -29.8359  -22.1554   20.9470 N   0  3  1  0  0  0
  -31.4766  -12.4421   19.1116 H   0  0  0  0  0  0
  -30.3597  -11.2955   19.7965 H   0  0  0  0  0  0
  -29.7377  -11.7843   17.4223 H   0  0  0  0  0  0
  -29.6657  -13.4937   17.7635 H   0  0  0  0  0  0
  -27.8228  -11.3109   18.7943 H   0  0  0  0  0  0
  -27.3701  -12.6558   17.7818 H   0  0  0  0  0  0
  -27.7182  -14.2456   19.5951 H   0  0  0  0  0  0
  -28.6873  -11.8882   21.2871 H   0  0  0  0  0  0
  -28.4519  -13.4895   21.8986 H   0  0  0  0  0  0
  -25.2748   -9.5692   22.4756 H   0  0  0  0  0  0
  -23.9997   -7.4636   22.7480 H   0  0  0  0  0  0
  -21.0831   -8.8756   19.8952 H   0  0  0  0  0  0
  -22.3671  -10.9666   19.6162 H   0  0  0  0  0  0
  -21.2008   -7.6151   23.9710 H   0  0  0  0  0  0
  -21.1476   -6.0526   25.9075 H   0  0  0  0  0  0
  -22.0602   -2.7607   23.2852 H   0  0  0  0  0  0
  -22.4119  -11.9901   22.4771 H   0  0  0  0  0  0
  -21.1131  -13.1279   22.2578 H   0  0  0  0  0  0
  -24.6705  -15.8409   20.4939 H   0  0  0  0  0  0
  -26.2806  -15.6100   20.0376 H   0  0  0  0  0  0
  -26.7091  -32.5549   23.1139 H   0  0  0  0  0  0
  -24.9971  -33.9772   25.0418 H   0  0  0  0  0  0
  -22.6892  -31.3051   21.4092 H   0  0  0  0  0  0
  -23.3746  -35.9655   23.3299 H   0  0  0  0  0  0
  -24.3582  -36.8938   22.2050 H   0  0  0  0  0  0
  -23.7239  -37.6527   23.6659 H   0  0  0  0  0  0
  -26.0314  -31.6029   20.5891 H   0  0  0  0  0  0
  -26.8194  -30.8950   21.9722 H   0  0  0  0  0  0
  -28.1076  -29.1192   21.1375 H   0  0  0  0  0  0
  -26.0476  -25.9590   19.0316 H   0  0  0  0  0  0
  -23.9725  -27.2730   19.0671 H   0  0  0  0  0  0
  -23.7184  -30.5912   19.4035 H   0  0  0  0  0  0
  -22.7348  -29.2371   19.8740 H   0  0  0  0  0  0
  -25.1285  -36.1980   25.0824 H   0  0  0  0  0  0
  -20.9948  -28.3235   24.1439 H   0  0  0  0  0  0
  -20.5671  -26.2259   23.3617 H   0  0  0  0  0  0
  -21.6639  -26.7437   22.1211 H   0  0  0  0  0  0
  -19.6902  -25.6290   21.1235 H   0  0  0  0  0  0
  -19.6687  -27.3203   20.6759 H   0  0  0  0  0  0
  -17.4186  -26.6659   21.4025 H   0  0  0  0  0  0
  -18.0305  -26.0060   22.9024 H   0  0  0  0  0  0
  -19.7939  -30.7223   24.2315 H   0  0  0  0  0  0
  -17.5025  -31.6276   24.5143 H   0  0  0  0  0  0
  -15.5350  -30.3004   23.7633 H   0  0  0  0  0  0
  -15.8654  -28.0834   22.7050 H   0  0  0  0  0  0
  -24.5897  -30.7044   25.7784 H   0  0  0  0  0  0
  -24.8906  -32.2875   26.4878 H   0  0  0  0  0  0
  -25.8070  -30.8899   27.0208 H   0  0  0  0  0  0
  -26.2768  -29.6845   24.1084 H   0  0  0  0  0  0
  -27.4000  -29.7229   25.4476 H   0  0  0  0  0  0
  -27.8622  -30.4335   23.9173 H   0  0  0  0  0  0
  -27.2612  -33.3600   26.2072 H   0  0  0  0  0  0
  -28.3835  -32.6904   25.0313 H   0  0  0  0  0  0
  -28.0679  -31.8421   26.5383 H   0  0  0  0  0  0
  -28.2598  -38.0124   24.7528 H   0  0  0  0  0  0
  -28.1094  -36.2659   24.6259 H   0  0  0  0  0  0
  -27.2306  -37.1421   25.8862 H   0  0  0  0  0  0
  -20.9288  -29.8751   21.6970 H   0  0  0  0  0  0
  -26.0192  -38.2871   24.1437 H   0  0  0  0  0  0
  -27.9512  -19.4993   21.9020 H   0  0  0  0  0  0
  -32.2353  -19.4382   21.3593 H   0  0  0  0  0  0
  -27.8798  -17.0642   21.5855 H   0  0  0  0  0  0
  -32.1759  -17.0057   21.0456 H   0  0  0  0  0  0
  -30.5278  -20.9177   19.3427 H   0  0  0  0  0  0
  -31.6749  -22.1535   19.8552 H   0  0  0  0  0  0
  -30.2494  -22.5730   18.8943 H   0  0  0  0  0  0
  -31.1698  -21.3595   22.3869 H   0  0  0  0  0  0
  -29.5000  -21.3154   22.8607 H   0  0  0  0  0  0
  -30.3000  -24.6564   19.6150 H   0  0  0  0  0  0
  -30.3245  -25.5806   21.0566 H   0  0  0  0  0  0
  -29.2749  -23.6457   22.3586 H   0  0  0  0  0  0
  -30.9524  -23.6238   21.9385 H   0  0  0  0  0  0
  -27.7410  -25.1472   21.2376 H   0  0  0  0  0  0
  -27.8804  -24.7767   19.5196 H   0  0  0  0  0  0
  -29.0125  -15.0397   21.5148 H   0  0  0  0  0  0
  -28.8678  -22.0032   20.7073 H   0  0  0  0  0  0
  1 25  1  0  0  0
  1 30  2  0  0  0
  1 82  1  0  0  0
  2  3  1  0  0  0
  2 25  1  0  0  0
  2 84  1  0  0  0
  2 85  1  0  0  0
  3  4  1  0  0  0
  3 86  1  0  0  0
  3 87  1  0  0  0
  4  5  1  0  0  0
  4 88  1  0  0  0
  4 89  1  0  0  0
  5  6  1  0  0  0
  5 26  1  0  0  0
  5 90  1  0  0  0
  6 25  1  0  0  0
  6 91  1  0  0  0
  6 92  1  0  0  0
  7  8  2  0  0  0
  7 26  1  0  0  0
  7 29  1  0  0  0
  8  9  1  0  0  0
  8 22  1  0  0  0
  9 10  1  0  0  0
  9 27  2  0  0  0
 10 11  2  0  0  0
 10 15  1  0  0  0
 11 12  1  0  0  0
 11 93  1  0  0  0
 12 13  2  0  0  0
 12 94  1  0  0  0
 13 14  1  0  0  0
 13 31  1  0  0  0
 14 15  2  0  0  0
 14 95  1  0  0  0
 15 96  1  0  0  0
 16 17  2  0  0  0
 16 21  1  0  0  0
 16 31  1  0  0  0
 17 18  1  0  0  0
 17 97  1  0  0  0
 18 19  2  0  0  0
 18 98  1  0  0  0
 19 20  1  0  0  0
 19 24  1  0  0  0
 20 21  2  0  0  0
 20 99  1  0  0  0
 21 23  1  0  0  0
 22 28  1  0  0  0
 22 32  2  0  0  0
 26 27  1  0  0  0
 28100  1  0  0  0
 28101  1  0  0  0
 29102  1  0  0  0
 29103  1  0  0  0
 33 34  1  0  0  0
 33 66  1  0  0  0
 33 70  2  0  0  0
 34 36  1  0  0  0
 34 59  1  0  0  0
 34104  1  0  0  0
 35 44  2  0  0  0
 35 45  1  0  0  0
 35 68  1  0  0  0
 36 56  1  0  0  0
 36105  1  0  0  0
 37 39  1  0  0  0
 37 47  1  0  0  0
 37 66  1  0  0  0
 37106  1  0  0  0
 38 43  2  0  0  0
 38 46  1  0  0  0
 38 47  1  0  0  0
 39 64  1  0  0  0
 39 67  2  0  0  0
 40 52  1  0  0  0
 40 53  2  0  0  0
 40 58  1  0  0  0
 41107  1  0  0  0
 41108  1  0  0  0
 41109  1  0  0  0
 41 48  1  0  0  0
 42 43  1  0  0  0
 42 66  1  0  0  0
 42110  1  0  0  0
 42111  1  0  0  0
 43 44  1  0  0  0
 44112  1  0  0  0
 45 46  2  0  0  0
 45113  1  0  0  0
 46114  1  0  0  0
 47115  1  0  0  0
 47116  1  0  0  0
 48 56  1  0  0  0
 48 65  1  0  0  0
 48117  1  0  0  0
 49 50  1  0  0  0
 49 53  1  0  0  0
 49 64  1  0  0  0
 49118  1  0  0  0
 50 51  1  0  0  0
 50119  1  0  0  0
 50120  1  0  0  0
 51 52  1  0  0  0
 51121  1  0  0  0
 51122  1  0  0  0
 52123  1  0  0  0
 52124  1  0  0  0
 53 54  1  0  0  0
 54 55  2  0  0  0
 54125  1  0  0  0
 55 57  1  0  0  0
 55126  1  0  0  0
 56 69  2  0  0  0
 57 58  2  0  0  0
 57127  1  0  0  0
 58128  1  0  0  0
 59 60  1  0  0  0
 59 61  1  0  0  0
 59 62  1  0  0  0
 60129  1  0  0  0
 60130  1  0  0  0
 60131  1  0  0  0
 61132  1  0  0  0
 61133  1  0  0  0
 61134  1  0  0  0
 62135  1  0  0  0
 62136  1  0  0  0
 62137  1  0  0  0
 63 65  1  0  0  0
 63138  1  0  0  0
 63139  1  0  0  0
 63140  1  0  0  0
 64141  1  0  0  0
 65142  1  0  0  0
 68 81  1  0  0  0
 71 73  2  0  0  0
 71 75  1  0  0  0
 71143  1  0  0  0
 72 74  1  0  0  0
 72 75  2  0  0  0
 72144  1  0  0  0
 73 76  1  0  0  0
 73145  1  0  0  0
 74 76  2  0  0  0
 74146  1  0  0  0
 75 78  1  0  0  0
 76 82  1  0  0  0
 77147  1  0  0  0
 77148  1  0  0  0
 77149  1  0  0  0
 77 83  1  0  0  0
 78 83  1  0  0  0
 78150  1  0  0  0
 78151  1  0  0  0
 79 80  1  0  0  0
 79 81  1  0  0  0
 79152  1  0  0  0
 79153  1  0  0  0
 80 83  1  0  0  0
 80154  1  0  0  0
 80155  1  0  0  0
 81156  1  0  0  0
 81157  1  0  0  0
 82158  1  0  0  0
 83159  1  0  0  0
M  CHG  1  83   1
M  ISO  4   1 100  68 101  81 101  82 100
M  END
> <chiral flag>
0

> <version>
0

> <s_m_source_file>
/data/baiqing/PycharmProjects/Reinvent-master-3.2/result/LINK_invent/BTK/process_docking_weight1_custom_sum_contain_oxygen_bond_distance_aromatic_linkinvent_7_9_3/rearranged_h_0003.sdf

> <i_m_source_file_index>
68

> <r_mmod_Potential_Energy-OPLS-2005>
-169.5888671875

> <r_mmod_Stretch_Energy-OPLS-2005>
39.6837730407715

> <r_mmod_Bend_Energy-OPLS-2005>
116.625686645508

> <r_mmod_Torsional_Energy-OPLS-2005>
224.905197143555

> <r_mmod_Improper_Torsional_Energy-OPLS-2005>
4.02819395065308

> <r_mmod_Van_der_Waal_Energy-OPLS-2005>
155.463958740234

> <r_mmod_Electrostatic_Energy-OPLS-2005>
-270.951782226562

> <r_mmod_Solvation_Energy-OPLS-2005>
-451.460754394531

> <b_mmod_Minimization_Converged-OPLS-2005>
0

> <r_mmod_RMS_Derivative-OPLS-2005>
1.51259875297546

$$$$
69
                    3D
 Structure written by MMmdl.
173181  0  0  1  0            999 V2000
  -30.7307  -14.3911   20.6186 C   0  0  0  0  0  0
  -30.4214  -12.2783   19.3993 C   0  0  0  0  0  0
  -29.4901  -12.5067   18.1911 C   0  0  0  0  0  0
  -28.0090  -12.3806   18.6000 C   0  0  0  0  0  0
  -27.6658  -13.1955   19.8738 C   0  0  2  0  0  0
  -28.7017  -12.9213   20.9830 C   0  0  0  0  0  0
  -25.2590  -13.8147   20.5648 C   0  0  0  0  0  0
  -24.1831  -13.0431   20.9152 C   0  0  0  0  0  0
  -24.6364  -11.6910   20.8720 C   0  0  0  0  0  0
  -23.9024  -10.4302   21.0404 C   0  0  0  0  0  0
  -24.3600   -9.4213   21.9146 C   0  0  0  0  0  0
  -23.6295   -8.2243   22.0723 C   0  0  0  0  0  0
  -22.4252   -8.0292   21.3559 C   0  0  0  0  0  0
  -21.9850   -9.0269   20.4693 C   0  0  0  0  0  0
  -22.7172  -10.2157   20.3083 C   0  0  0  0  0  0
  -21.6870   -6.0742   22.5299 C   0  0  0  0  0  0
  -21.4040   -6.5652   23.8232 C   0  0  0  0  0  0
  -21.3654   -5.6794   24.9192 C   0  0  0  0  0  0
  -21.6037   -4.3056   24.7238 C   0  0  0  0  0  0
  -21.8817   -3.8157   23.4352 C   0  0  0  0  0  0
  -21.9213   -4.6975   22.3411 C   0  0  0  0  0  0
  -22.7849  -13.5249   21.1833 C   0  0  0  0  0  0
  -22.1661   -4.2162   21.0989 F   0  0  0  0  0  0
  -21.5619   -3.4528   25.7733 F   0  0  0  0  0  0
  -30.0388  -13.2335   20.4481 N   0  0  0  0  0  0
  -26.3025  -12.9308   20.3315 N   0  0  0  0  0  0
  -25.9294  -11.6487   20.5745 N   0  0  0  0  0  0
  -22.0445  -12.8258   22.0384 N   0  0  0  0  0  0
  -25.4301  -15.1859   20.4052 N   0  0  0  0  0  0
  -31.8279  -14.6071   20.1018 O   0  0  0  0  0  0
  -21.6644   -6.8871   21.4252 O   0  0  0  0  0  0
  -22.3567  -14.5563   20.6693 O   0  0  0  0  0  0
  -24.6119  -31.8710   23.2154 C   0  0  0  0  0  0
  -25.9029  -32.4832   23.8427 C   0  0  1  0  0  0
  -27.2300  -27.4653   20.0810 C   0  0  0  0  0  0
  -25.5904  -33.8629   24.2361 N   0  0  0  0  0  0
  -23.3985  -30.4968   21.5527 C   0  0  2  0  0  0
  -24.8447  -28.9662   20.1197 C   0  0  0  0  0  0
  -22.7401  -29.4669   22.4983 C   0  0  0  0  0  0
  -18.0282  -28.1367   22.8514 C   0  0  0  0  0  0
  -24.1478  -36.7312   23.2639 C   0  0  0  0  0  0
  -25.9260  -30.8388   21.3718 C   0  0  0  0  0  0
  -26.0020  -29.4738   20.7245 C   0  0  0  0  0  0
  -27.1994  -28.7249   20.7155 C   0  0  0  0  0  0
  -26.0696  -26.9823   19.4512 C   0  0  0  0  0  0
  -24.8695  -27.7145   19.4826 C   0  0  0  0  0  0
  -23.6075  -29.8325   20.1662 C   0  0  0  0  0  0
  -25.4102  -36.3115   24.0344 C   0  0  1  0  0  0
  -20.5880  -28.3645   23.1316 C   0  0  2  0  0  0
  -20.6775  -26.9382   22.5407 C   0  0  0  0  0  0
  -19.5743  -26.6379   21.5216 C   0  0  0  0  0  0
  -18.1925  -26.7926   22.1631 C   0  0  0  0  0  0
  -19.1532  -28.8828   23.2921 C   0  0  0  0  0  0
  -18.9459  -30.1449   23.8916 C   0  0  0  0  0  0
  -17.6456  -30.6576   24.0573 C   0  0  0  0  0  0
  -25.9029  -34.9480   23.5148 C   0  0  0  0  0  0
  -16.5350  -29.9075   23.6324 C   0  0  0  0  0  0
  -16.7272  -28.6491   23.0349 C   0  0  0  0  0  0
  -26.4495  -31.6598   25.0735 C   0  0  0  0  0  0
  -25.3789  -31.3688   26.1494 C   0  0  0  0  0  0
  -27.0327  -30.3040   24.6103 C   0  0  0  0  0  0
  -27.6067  -32.4316   25.7491 C   0  0  0  0  0  0
  -27.5581  -37.1811   24.8471 C   0  0  0  0  0  0
  -21.4135  -29.3015   22.3713 N   0  0  0  0  0  0
  -26.4293  -37.3796   23.9424 N   0  0  0  0  0  0
  -24.6627  -31.0830   22.1046 N   0  0  0  0  0  0
  -23.4192  -28.8210   23.3009 O   0  0  0  0  0  0
  -28.3853  -26.7338   19.9989 O   0  0  0  0  0  0
  -26.5560  -34.8927   22.4691 O   0  0  0  0  0  0
  -23.5312  -32.1437   23.7562 O   0  0  0  0  0  0
  -27.2299  -21.7937   24.7265 C   0  0  0  0  0  0
  -27.1306  -20.4482   25.1241 C   0  0  0  0  0  0
  -27.6654  -21.0704   22.4467 C   0  0  0  0  0  0
  -27.4717  -22.1165   23.3775 C   0  0  0  0  0  0
  -27.5717  -19.7166   22.8298 C   0  0  0  0  0  0
  -27.2865  -19.4100   24.1882 C   0  0  0  0  0  0
  -25.8680  -23.6266   21.1454 C   0  0  0  0  0  0
  -24.0990  -23.9371   19.3423 C   0  0  0  0  0  0
  -25.6597  -21.9512   19.2654 C   0  0  0  0  0  0
  -27.5096  -23.5881   22.9628 C   0  0  0  0  0  0
  -29.3804  -17.1859   22.6898 C   0  0  0  0  0  0
  -29.8941  -15.7423   22.5234 C   0  0  0  0  0  0
  -28.2616  -24.3657   20.7443 C   0  0  0  0  0  0
  -27.9773  -17.4238   22.0862 C   0  0  0  0  0  0
  -28.6085  -25.8388   21.0823 C   0  0  0  0  0  0
  -25.5246  -23.4333   19.6509 C   0  0  0  0  0  0
  -30.0379  -15.4243   21.1031 N   0  0  0  0  0  0
  -27.1421  -23.8596   21.5597 N   0  0  0  0  0  0
  -24.9523  -23.4702   21.9599 O   0  0  0  0  0  0
  -27.7481  -18.8019   21.8104 O   0  0  0  0  0  0
  -27.1379  -18.1370   24.6260 F   0  0  0  0  0  0
  -31.4643  -12.3818   19.0936 H   0  0  0  0  0  0
  -30.3253  -11.2578   19.7703 H   0  0  0  0  0  0
  -29.7208  -11.7923   17.4003 H   0  0  0  0  0  0
  -29.6682  -13.4956   17.7680 H   0  0  0  0  0  0
  -27.8031  -11.3224   18.7677 H   0  0  0  0  0  0
  -27.3655  -12.6908   17.7760 H   0  0  0  0  0  0
  -27.7324  -14.2500   19.6073 H   0  0  0  0  0  0
  -28.6680  -11.8736   21.2855 H   0  0  0  0  0  0
  -28.4447  -13.4812   21.8757 H   0  0  0  0  0  0
  -25.2782   -9.5675   22.4667 H   0  0  0  0  0  0
  -24.0065   -7.4603   22.7374 H   0  0  0  0  0  0
  -21.0770   -8.8806   19.9022 H   0  0  0  0  0  0
  -22.3617  -10.9708   19.6231 H   0  0  0  0  0  0
  -21.2021   -7.6158   23.9740 H   0  0  0  0  0  0
  -21.1469   -6.0514   25.9097 H   0  0  0  0  0  0
  -22.0581   -2.7619   23.2852 H   0  0  0  0  0  0
  -22.4048  -11.9939   22.4806 H   0  0  0  0  0  0
  -21.1058  -13.1316   22.2535 H   0  0  0  0  0  0
  -24.6587  -15.8382   20.5019 H   0  0  0  0  0  0
  -26.2839  -15.6175   20.0791 H   0  0  0  0  0  0
  -26.7103  -32.5559   23.1195 H   0  0  0  0  0  0
  -25.0122  -33.9803   25.0548 H   0  0  0  0  0  0
  -22.6865  -31.3130   21.4174 H   0  0  0  0  0  0
  -23.3735  -35.9649   23.3315 H   0  0  0  0  0  0
  -24.3571  -36.8899   22.2051 H   0  0  0  0  0  0
  -23.7234  -37.6530   23.6629 H   0  0  0  0  0  0
  -26.0429  -31.6052   20.6045 H   0  0  0  0  0  0
  -26.8143  -30.8893   21.9903 H   0  0  0  0  0  0
  -28.0963  -29.1149   21.1771 H   0  0  0  0  0  0
  -26.1007  -26.0606   18.9009 H   0  0  0  0  0  0
  -23.9859  -27.3314   18.9908 H   0  0  0  0  0  0
  -23.7197  -30.6083   19.4076 H   0  0  0  0  0  0
  -22.7331  -29.2530   19.8673 H   0  0  0  0  0  0
  -25.1281  -36.1982   25.0836 H   0  0  0  0  0  0
  -21.0009  -28.3211   24.1427 H   0  0  0  0  0  0
  -20.5688  -26.2257   23.3591 H   0  0  0  0  0  0
  -21.6641  -26.7419   22.1198 H   0  0  0  0  0  0
  -19.6888  -25.6300   21.1222 H   0  0  0  0  0  0
  -19.6677  -27.3207   20.6766 H   0  0  0  0  0  0
  -17.4203  -26.6709   21.4019 H   0  0  0  0  0  0
  -18.0306  -26.0049   22.9008 H   0  0  0  0  0  0
  -19.7932  -30.7280   24.2264 H   0  0  0  0  0  0
  -17.5002  -31.6257   24.5175 H   0  0  0  0  0  0
  -15.5350  -30.2978   23.7630 H   0  0  0  0  0  0
  -15.8682  -28.0817   22.7034 H   0  0  0  0  0  0
  -24.5950  -30.7044   25.7847 H   0  0  0  0  0  0
  -24.9004  -32.2840   26.4986 H   0  0  0  0  0  0
  -25.8169  -30.8834   27.0223 H   0  0  0  0  0  0
  -26.2854  -29.6785   24.1202 H   0  0  0  0  0  0
  -27.4153  -29.7294   25.4553 H   0  0  0  0  0  0
  -27.8679  -30.4367   23.9217 H   0  0  0  0  0  0
  -27.2677  -33.3592   26.2119 H   0  0  0  0  0  0
  -28.3852  -32.6908   25.0305 H   0  0  0  0  0  0
  -28.0772  -31.8415   26.5370 H   0  0  0  0  0  0
  -28.2612  -38.0096   24.7510 H   0  0  0  0  0  0
  -28.1057  -36.2627   24.6298 H   0  0  0  0  0  0
  -27.2297  -37.1476   25.8873 H   0  0  0  0  0  0
  -20.9267  -29.8749   21.6959 H   0  0  0  0  0  0
  -26.0176  -38.2872   24.1423 H   0  0  0  0  0  0
  -27.1031  -22.5743   25.4632 H   0  0  0  0  0  0
  -26.9176  -20.2080   26.1550 H   0  0  0  0  0  0
  -27.8816  -21.2965   21.4124 H   0  0  0  0  0  0
  -23.9570  -24.9675   19.6673 H   0  0  0  0  0  0
  -23.3453  -23.3327   19.8485 H   0  0  0  0  0  0
  -23.8859  -23.8988   18.2744 H   0  0  0  0  0  0
  -26.7029  -21.6350   19.2939 H   0  0  0  0  0  0
  -25.2915  -21.7696   18.2563 H   0  0  0  0  0  0
  -25.0965  -21.3041   19.9409 H   0  0  0  0  0  0
  -28.5096  -23.9642   23.1885 H   0  0  0  0  0  0
  -26.8403  -24.1554   23.6115 H   0  0  0  0  0  0
  -30.0915  -17.8731   22.2274 H   0  0  0  0  0  0
  -29.3737  -17.4440   23.7483 H   0  0  0  0  0  0
  -29.2160  -15.0574   23.0305 H   0  0  0  0  0  0
  -30.8632  -15.6313   23.0168 H   0  0  0  0  0  0
  -29.1327  -23.7477   20.9726 H   0  0  0  0  0  0
  -28.1374  -24.2393   19.6712 H   0  0  0  0  0  0
  -27.1786  -16.9700   22.6716 H   0  0  0  0  0  0
  -27.9156  -16.9275   21.1178 H   0  0  0  0  0  0
  -29.6758  -25.8988   21.2999 H   0  0  0  0  0  0
  -28.1121  -26.1785   21.9933 H   0  0  0  0  0  0
  -26.1969  -23.9902   19.0104 H   0  0  0  0  0  0
  -30.3032  -16.2530   20.5929 H   0  0  0  0  0  0
  1 25  1  0  0  0
  1 30  2  0  0  0
  1 87  1  0  0  0
  2  3  1  0  0  0
  2 25  1  0  0  0
  2 92  1  0  0  0
  2 93  1  0  0  0
  3  4  1  0  0  0
  3 94  1  0  0  0
  3 95  1  0  0  0
  4  5  1  0  0  0
  4 96  1  0  0  0
  4 97  1  0  0  0
  5  6  1  0  0  0
  5 26  1  0  0  0
  5 98  1  0  0  0
  6 25  1  0  0  0
  6 99  1  0  0  0
  6100  1  0  0  0
  7  8  2  0  0  0
  7 26  1  0  0  0
  7 29  1  0  0  0
  8  9  1  0  0  0
  8 22  1  0  0  0
  9 10  1  0  0  0
  9 27  2  0  0  0
 10 11  2  0  0  0
 10 15  1  0  0  0
 11 12  1  0  0  0
 11101  1  0  0  0
 12 13  2  0  0  0
 12102  1  0  0  0
 13 14  1  0  0  0
 13 31  1  0  0  0
 14 15  2  0  0  0
 14103  1  0  0  0
 15104  1  0  0  0
 16 17  2  0  0  0
 16 21  1  0  0  0
 16 31  1  0  0  0
 17 18  1  0  0  0
 17105  1  0  0  0
 18 19  2  0  0  0
 18106  1  0  0  0
 19 20  1  0  0  0
 19 24  1  0  0  0
 20 21  2  0  0  0
 20107  1  0  0  0
 21 23  1  0  0  0
 22 28  1  0  0  0
 22 32  2  0  0  0
 26 27  1  0  0  0
 28108  1  0  0  0
 28109  1  0  0  0
 29110  1  0  0  0
 29111  1  0  0  0
 33 34  1  0  0  0
 33 66  1  0  0  0
 33 70  2  0  0  0
 34 36  1  0  0  0
 34 59  1  0  0  0
 34112  1  0  0  0
 35 44  2  0  0  0
 35 45  1  0  0  0
 35 68  1  0  0  0
 36 56  1  0  0  0
 36113  1  0  0  0
 37 39  1  0  0  0
 37 47  1  0  0  0
 37 66  1  0  0  0
 37114  1  0  0  0
 38 43  2  0  0  0
 38 46  1  0  0  0
 38 47  1  0  0  0
 39 64  1  0  0  0
 39 67  2  0  0  0
 40 52  1  0  0  0
 40 53  2  0  0  0
 40 58  1  0  0  0
 41115  1  0  0  0
 41116  1  0  0  0
 41117  1  0  0  0
 41 48  1  0  0  0
 42 43  1  0  0  0
 42 66  1  0  0  0
 42118  1  0  0  0
 42119  1  0  0  0
 43 44  1  0  0  0
 44120  1  0  0  0
 45 46  2  0  0  0
 45121  1  0  0  0
 46122  1  0  0  0
 47123  1  0  0  0
 47124  1  0  0  0
 48 56  1  0  0  0
 48 65  1  0  0  0
 48125  1  0  0  0
 49 50  1  0  0  0
 49 53  1  0  0  0
 49 64  1  0  0  0
 49126  1  0  0  0
 50 51  1  0  0  0
 50127  1  0  0  0
 50128  1  0  0  0
 51 52  1  0  0  0
 51129  1  0  0  0
 51130  1  0  0  0
 52131  1  0  0  0
 52132  1  0  0  0
 53 54  1  0  0  0
 54 55  2  0  0  0
 54133  1  0  0  0
 55 57  1  0  0  0
 55134  1  0  0  0
 56 69  2  0  0  0
 57 58  2  0  0  0
 57135  1  0  0  0
 58136  1  0  0  0
 59 60  1  0  0  0
 59 61  1  0  0  0
 59 62  1  0  0  0
 60137  1  0  0  0
 60138  1  0  0  0
 60139  1  0  0  0
 61140  1  0  0  0
 61141  1  0  0  0
 61142  1  0  0  0
 62143  1  0  0  0
 62144  1  0  0  0
 62145  1  0  0  0
 63 65  1  0  0  0
 63146  1  0  0  0
 63147  1  0  0  0
 63148  1  0  0  0
 64149  1  0  0  0
 65150  1  0  0  0
 68 85  1  0  0  0
 71 72  2  0  0  0
 71 74  1  0  0  0
 71151  1  0  0  0
 72 76  1  0  0  0
 72152  1  0  0  0
 73 74  2  0  0  0
 73 75  1  0  0  0
 73153  1  0  0  0
 74 80  1  0  0  0
 75 76  2  0  0  0
 75 90  1  0  0  0
 76 91  1  0  0  0
 77 86  1  0  0  0
 77 88  1  0  0  0
 77 89  2  0  0  0
 78154  1  0  0  0
 78155  1  0  0  0
 78156  1  0  0  0
 78 86  1  0  0  0
 79 86  1  0  0  0
 79157  1  0  0  0
 79158  1  0  0  0
 79159  1  0  0  0
 80 88  1  0  0  0
 80160  1  0  0  0
 80161  1  0  0  0
 81 82  1  0  0  0
 81 84  1  0  0  0
 81162  1  0  0  0
 81163  1  0  0  0
 82 87  1  0  0  0
 82164  1  0  0  0
 82165  1  0  0  0
 83 85  1  0  0  0
 83 88  1  0  0  0
 83166  1  0  0  0
 83167  1  0  0  0
 84 90  1  0  0  0
 84168  1  0  0  0
 84169  1  0  0  0
 85170  1  0  0  0
 85171  1  0  0  0
 86172  1  0  0  0
 87173  1  0  0  0
M  ISO  4   1 100  68 101  85 101  87 100
M  END
> <chiral flag>
0

> <version>
0

> <s_m_source_file>
/data/baiqing/PycharmProjects/Reinvent-master-3.2/result/LINK_invent/BTK/process_docking_weight1_custom_sum_contain_oxygen_bond_distance_aromatic_linkinvent_7_9_3/rearranged_h_0003.sdf

> <i_m_source_file_index>
69

> <r_mmod_Potential_Energy-OPLS-2005>
67.8989944458008

> <r_mmod_Stretch_Energy-OPLS-2005>
36.8741226196289

> <r_mmod_Bend_Energy-OPLS-2005>
128.425155639648

> <r_mmod_Torsional_Energy-OPLS-2005>
329.031494140625

> <r_mmod_Improper_Torsional_Energy-OPLS-2005>
13.3761510848999

> <r_mmod_Van_der_Waal_Energy-OPLS-2005>
153.446731567383

> <r_mmod_Electrostatic_Energy-OPLS-2005>
-387.862243652344

> <r_mmod_Solvation_Energy-OPLS-2005>
-213.849212646484

> <b_mmod_Minimization_Converged-OPLS-2005>
0

> <r_mmod_RMS_Derivative-OPLS-2005>
2.85052919387817

$$$$
70
                    3D
 Structure written by MMmdl.
163170  0  0  1  0            999 V2000
  -30.7785  -14.3328   20.6565 C   0  0  0  0  0  0
  -30.4236  -12.2722   19.3475 C   0  0  0  0  0  0
  -29.4598  -12.5207   18.1678 C   0  0  0  0  0  0
  -27.9855  -12.3994   18.5996 C   0  0  0  0  0  0
  -27.6772  -13.1872   19.8964 C   0  0  2  0  0  0
  -28.7369  -12.8518   20.9718 C   0  0  0  0  0  0
  -25.2713  -13.8163   20.5820 C   0  0  0  0  0  0
  -24.1922  -13.0480   20.9222 C   0  0  0  0  0  0
  -24.6406  -11.6916   20.8773 C   0  0  0  0  0  0
  -23.9042  -10.4330   21.0424 C   0  0  0  0  0  0
  -24.3625   -9.4248   21.9198 C   0  0  0  0  0  0
  -23.6322   -8.2267   22.0753 C   0  0  0  0  0  0
  -22.4290   -8.0311   21.3541 C   0  0  0  0  0  0
  -21.9920   -9.0273   20.4641 C   0  0  0  0  0  0
  -22.7218  -10.2165   20.3065 C   0  0  0  0  0  0
  -21.6867   -6.0773   22.5273 C   0  0  0  0  0  0
  -21.4017   -6.5667   23.8209 C   0  0  0  0  0  0
  -21.3647   -5.6805   24.9159 C   0  0  0  0  0  0
  -21.6025   -4.3074   24.7203 C   0  0  0  0  0  0
  -21.8824   -3.8171   23.4333 C   0  0  0  0  0  0
  -21.9211   -4.6995   22.3394 C   0  0  0  0  0  0
  -22.7922  -13.5273   21.1817 C   0  0  0  0  0  0
  -22.1684   -4.2191   21.0977 F   0  0  0  0  0  0
  -21.5605   -3.4552   25.7720 F   0  0  0  0  0  0
  -30.0648  -13.1980   20.4273 N   0  0  0  0  0  0
  -26.3147  -12.9287   20.3575 N   0  0  0  0  0  0
  -25.9344  -11.6454   20.5861 N   0  0  0  0  0  0
  -22.0543  -12.8302   22.0373 N   0  0  0  0  0  0
  -25.4489  -15.1911   20.4276 N   0  0  0  0  0  0
  -31.8061  -14.6324   20.0445 O   0  0  0  0  0  0
  -21.6657   -6.8913   21.4230 O   0  0  0  0  0  0
  -22.3606  -14.5577   20.6631 O   0  0  0  0  0  0
  -24.6115  -31.8726   23.2146 C   0  0  0  0  0  0
  -25.9032  -32.4836   23.8420 C   0  0  1  0  0  0
  -27.2120  -27.4539   20.0912 C   0  0  0  0  0  0
  -25.5901  -33.8638   24.2339 N   0  0  0  0  0  0
  -23.3980  -30.5006   21.5532 C   0  0  2  0  0  0
  -24.8432  -28.9777   20.1080 C   0  0  0  0  0  0
  -22.7386  -29.4713   22.4994 C   0  0  0  0  0  0
  -18.0247  -28.1390   22.8503 C   0  0  0  0  0  0
  -24.1495  -36.7328   23.2638 C   0  0  0  0  0  0
  -25.9280  -30.8411   21.3702 C   0  0  0  0  0  0
  -26.0025  -29.4778   20.7185 C   0  0  0  0  0  0
  -27.1906  -28.7157   20.7232 C   0  0  0  0  0  0
  -26.0572  -26.9990   19.4219 C   0  0  0  0  0  0
  -24.8618  -27.7329   19.4625 C   0  0  0  0  0  0
  -23.6063  -29.8405   20.1649 C   0  0  0  0  0  0
  -25.4115  -36.3127   24.0339 C   0  0  1  0  0  0
  -20.5835  -28.3695   23.1288 C   0  0  2  0  0  0
  -20.6745  -26.9424   22.5439 C   0  0  0  0  0  0
  -19.5725  -26.6404   21.5246 C   0  0  0  0  0  0
  -18.1911  -26.7915   22.1677 C   0  0  0  0  0  0
  -19.1492  -28.8863   23.2882 C   0  0  0  0  0  0
  -18.9444  -30.1497   23.8842 C   0  0  0  0  0  0
  -17.6450  -30.6626   24.0506 C   0  0  0  0  0  0
  -25.9038  -34.9483   23.5137 C   0  0  0  0  0  0
  -16.5335  -29.9098   23.6323 C   0  0  0  0  0  0
  -16.7246  -28.6502   23.0386 C   0  0  0  0  0  0
  -26.4458  -31.6596   25.0723 C   0  0  0  0  0  0
  -25.3738  -31.3687   26.1478 C   0  0  0  0  0  0
  -27.0297  -30.3052   24.6084 C   0  0  0  0  0  0
  -27.6044  -32.4303   25.7479 C   0  0  0  0  0  0
  -27.5588  -37.1829   24.8468 C   0  0  0  0  0  0
  -21.4111  -29.3065   22.3691 N   0  0  0  0  0  0
  -26.4305  -37.3803   23.9404 N   0  0  0  0  0  0
  -24.6633  -31.0853   22.1036 N   0  0  0  0  0  0
  -23.4173  -28.8259   23.3030 O   0  0  0  0  0  0
  -28.3343  -26.6620   20.1098 O   0  0  0  0  0  0
  -26.5592  -34.8931   22.4695 O   0  0  0  0  0  0
  -23.5311  -32.1473   23.7547 O   0  0  0  0  0  0
  -25.8426  -22.5095   21.6198 C   0  0  0  0  0  0
  -29.4419  -17.1823   22.3976 C   0  0  0  0  0  0
  -27.0952  -23.3814   21.8576 C   0  0  0  0  0  0
  -29.2001  -15.8784   21.6650 C   0  0  0  0  0  0
  -27.1493  -24.5696   20.8765 C   0  0  0  0  0  0
  -26.8923  -21.0397   24.2156 C   0  0  0  0  0  0
  -26.8909  -19.6482   23.5674 C   0  0  0  0  0  0
  -25.5765  -21.8179   24.0435 C   0  0  0  0  0  0
  -28.3286  -19.1585   23.3603 C   0  0  0  0  0  0
  -28.3032  -25.5887   21.0694 C   0  0  0  0  0  0
  -25.1784  -21.9494   22.6420 N   0  0  0  0  0  0
  -28.3456  -17.8971   22.6449 N   0  0  0  0  0  0
  -30.4004  -15.0583   21.7058 N   0  0  0  0  0  0
  -25.4287  -22.3460   20.4728 O   0  0  0  0  0  0
  -30.5757  -17.5198   22.7459 O   0  0  0  0  0  0
  -31.4551  -12.3928   19.0137 H   0  0  0  0  0  0
  -30.3484  -11.2437   19.7031 H   0  0  0  0  0  0
  -29.6627  -11.8212   17.3551 H   0  0  0  0  0  0
  -29.6230  -13.5214   17.7646 H   0  0  0  0  0  0
  -27.7507  -11.3434   18.7362 H   0  0  0  0  0  0
  -27.3343  -12.7540   17.8020 H   0  0  0  0  0  0
  -27.7516  -14.2473   19.6566 H   0  0  0  0  0  0
  -28.7147  -11.7817   21.1876 H   0  0  0  0  0  0
  -28.5237  -13.3068   21.9349 H   0  0  0  0  0  0
  -25.2781   -9.5729   22.4765 H   0  0  0  0  0  0
  -24.0042   -7.4665   22.7492 H   0  0  0  0  0  0
  -21.0845   -8.8768   19.8998 H   0  0  0  0  0  0
  -22.3654  -10.9708   19.6183 H   0  0  0  0  0  0
  -21.2017   -7.6179   23.9705 H   0  0  0  0  0  0
  -21.1448   -6.0555   25.9063 H   0  0  0  0  0  0
  -22.0622   -2.7649   23.2806 H   0  0  0  0  0  0
  -22.4163  -11.9981   22.4775 H   0  0  0  0  0  0
  -21.1164  -13.1330   22.2571 H   0  0  0  0  0  0
  -24.6820  -15.8460   20.5333 H   0  0  0  0  0  0
  -26.2861  -15.6276   20.0661 H   0  0  0  0  0  0
  -26.7109  -32.5557   23.1197 H   0  0  0  0  0  0
  -25.0037  -33.9810   25.0474 H   0  0  0  0  0  0
  -22.6851  -31.3164   21.4164 H   0  0  0  0  0  0
  -23.3747  -35.9675   23.3327 H   0  0  0  0  0  0
  -24.3585  -36.8912   22.2047 H   0  0  0  0  0  0
  -23.7266  -37.6552   23.6632 H   0  0  0  0  0  0
  -26.0436  -31.6054   20.6001 H   0  0  0  0  0  0
  -26.8162  -30.8902   21.9884 H   0  0  0  0  0  0
  -28.0789  -29.0847   21.2173 H   0  0  0  0  0  0
  -26.0705  -26.0603   18.8877 H   0  0  0  0  0  0
  -23.9749  -27.3496   18.9752 H   0  0  0  0  0  0
  -23.7134  -30.6174   19.4063 H   0  0  0  0  0  0
  -22.7309  -29.2596   19.8687 H   0  0  0  0  0  0
  -25.1299  -36.1993   25.0833 H   0  0  0  0  0  0
  -20.9939  -28.3306   24.1398 H   0  0  0  0  0  0
  -20.5627  -26.2338   23.3660 H   0  0  0  0  0  0
  -21.6626  -26.7447   22.1252 H   0  0  0  0  0  0
  -19.6909  -25.6343   21.1229 H   0  0  0  0  0  0
  -19.6630  -27.3252   20.6802 H   0  0  0  0  0  0
  -17.4167  -26.6611   21.4116 H   0  0  0  0  0  0
  -18.0345  -26.0079   22.9105 H   0  0  0  0  0  0
  -19.7922  -30.7320   24.2165 H   0  0  0  0  0  0
  -17.5010  -31.6343   24.5023 H   0  0  0  0  0  0
  -15.5342  -30.3009   23.7647 H   0  0  0  0  0  0
  -15.8639  -28.0804   22.7153 H   0  0  0  0  0  0
  -24.5895  -30.7053   25.7819 H   0  0  0  0  0  0
  -24.8936  -32.2829   26.4976 H   0  0  0  0  0  0
  -25.8081  -30.8819   27.0217 H   0  0  0  0  0  0
  -26.2853  -29.6819   24.1116 H   0  0  0  0  0  0
  -27.4075  -29.7266   25.4525 H   0  0  0  0  0  0
  -27.8676  -30.4400   23.9241 H   0  0  0  0  0  0
  -27.2681  -33.3587   26.2113 H   0  0  0  0  0  0
  -28.3815  -32.6893   25.0275 H   0  0  0  0  0  0
  -28.0765  -31.8394   26.5343 H   0  0  0  0  0  0
  -28.2625  -38.0106   24.7500 H   0  0  0  0  0  0
  -28.1060  -36.2643   24.6312 H   0  0  0  0  0  0
  -27.2303  -37.1502   25.8868 H   0  0  0  0  0  0
  -20.9314  -29.8741   21.6848 H   0  0  0  0  0  0
  -26.0197  -38.2891   24.1371 H   0  0  0  0  0  0
  -27.9940  -22.7729   21.7527 H   0  0  0  0  0  0
  -27.0901  -23.7736   22.8735 H   0  0  0  0  0  0
  -28.9137  -16.1156   20.6390 H   0  0  0  0  0  0
  -28.3664  -15.3770   22.1540 H   0  0  0  0  0  0
  -26.1935  -25.0748   21.0068 H   0  0  0  0  0  0
  -27.1816  -24.1955   19.8513 H   0  0  0  0  0  0
  -27.7093  -21.6252   23.7989 H   0  0  0  0  0  0
  -27.1266  -20.9394   25.2768 H   0  0  0  0  0  0
  -26.3265  -18.9484   24.1886 H   0  0  0  0  0  0
  -26.3901  -19.6773   22.5988 H   0  0  0  0  0  0
  -25.6395  -22.8020   24.5080 H   0  0  0  0  0  0
  -24.7863  -21.2821   24.5712 H   0  0  0  0  0  0
  -28.8339  -19.0566   24.3244 H   0  0  0  0  0  0
  -28.8926  -19.8930   22.7781 H   0  0  0  0  0  0
  -29.2541  -25.0640   20.9808 H   0  0  0  0  0  0
  -28.2788  -26.0034   22.0783 H   0  0  0  0  0  0
  -24.3056  -21.4925   22.4029 H   0  0  0  0  0  0
  -27.4614  -17.5333   22.3077 H   0  0  0  0  0  0
  -31.1583  -15.6243   22.0682 H   0  0  0  0  0  0
  1 25  1  0  0  0
  1 30  2  0  0  0
  1 83  1  0  0  0
  2  3  1  0  0  0
  2 25  1  0  0  0
  2 86  1  0  0  0
  2 87  1  0  0  0
  3  4  1  0  0  0
  3 88  1  0  0  0
  3 89  1  0  0  0
  4  5  1  0  0  0
  4 90  1  0  0  0
  4 91  1  0  0  0
  5  6  1  0  0  0
  5 26  1  0  0  0
  5 92  1  0  0  0
  6 25  1  0  0  0
  6 93  1  0  0  0
  6 94  1  0  0  0
  7  8  2  0  0  0
  7 26  1  0  0  0
  7 29  1  0  0  0
  8  9  1  0  0  0
  8 22  1  0  0  0
  9 10  1  0  0  0
  9 27  2  0  0  0
 10 11  2  0  0  0
 10 15  1  0  0  0
 11 12  1  0  0  0
 11 95  1  0  0  0
 12 13  2  0  0  0
 12 96  1  0  0  0
 13 14  1  0  0  0
 13 31  1  0  0  0
 14 15  2  0  0  0
 14 97  1  0  0  0
 15 98  1  0  0  0
 16 17  2  0  0  0
 16 21  1  0  0  0
 16 31  1  0  0  0
 17 18  1  0  0  0
 17 99  1  0  0  0
 18 19  2  0  0  0
 18100  1  0  0  0
 19 20  1  0  0  0
 19 24  1  0  0  0
 20 21  2  0  0  0
 20101  1  0  0  0
 21 23  1  0  0  0
 22 28  1  0  0  0
 22 32  2  0  0  0
 26 27  1  0  0  0
 28102  1  0  0  0
 28103  1  0  0  0
 29104  1  0  0  0
 29105  1  0  0  0
 33 34  1  0  0  0
 33 66  1  0  0  0
 33 70  2  0  0  0
 34 36  1  0  0  0
 34 59  1  0  0  0
 34106  1  0  0  0
 35 44  2  0  0  0
 35 45  1  0  0  0
 35 68  1  0  0  0
 36 56  1  0  0  0
 36107  1  0  0  0
 37 39  1  0  0  0
 37 47  1  0  0  0
 37 66  1  0  0  0
 37108  1  0  0  0
 38 43  2  0  0  0
 38 46  1  0  0  0
 38 47  1  0  0  0
 39 64  1  0  0  0
 39 67  2  0  0  0
 40 52  1  0  0  0
 40 53  2  0  0  0
 40 58  1  0  0  0
 41109  1  0  0  0
 41110  1  0  0  0
 41111  1  0  0  0
 41 48  1  0  0  0
 42 43  1  0  0  0
 42 66  1  0  0  0
 42112  1  0  0  0
 42113  1  0  0  0
 43 44  1  0  0  0
 44114  1  0  0  0
 45 46  2  0  0  0
 45115  1  0  0  0
 46116  1  0  0  0
 47117  1  0  0  0
 47118  1  0  0  0
 48 56  1  0  0  0
 48 65  1  0  0  0
 48119  1  0  0  0
 49 50  1  0  0  0
 49 53  1  0  0  0
 49 64  1  0  0  0
 49120  1  0  0  0
 50 51  1  0  0  0
 50121  1  0  0  0
 50122  1  0  0  0
 51 52  1  0  0  0
 51123  1  0  0  0
 51124  1  0  0  0
 52125  1  0  0  0
 52126  1  0  0  0
 53 54  1  0  0  0
 54 55  2  0  0  0
 54127  1  0  0  0
 55 57  1  0  0  0
 55128  1  0  0  0
 56 69  2  0  0  0
 57 58  2  0  0  0
 57129  1  0  0  0
 58130  1  0  0  0
 59 60  1  0  0  0
 59 61  1  0  0  0
 59 62  1  0  0  0
 60131  1  0  0  0
 60132  1  0  0  0
 60133  1  0  0  0
 61134  1  0  0  0
 61135  1  0  0  0
 61136  1  0  0  0
 62137  1  0  0  0
 62138  1  0  0  0
 62139  1  0  0  0
 63 65  1  0  0  0
 63140  1  0  0  0
 63141  1  0  0  0
 63142  1  0  0  0
 64143  1  0  0  0
 65144  1  0  0  0
 68 80  1  0  0  0
 71 73  1  0  0  0
 71 81  1  0  0  0
 71 84  2  0  0  0
 72 74  1  0  0  0
 72 82  1  0  0  0
 72 85  2  0  0  0
 73 75  1  0  0  0
 73145  1  0  0  0
 73146  1  0  0  0
 74 83  1  0  0  0
 74147  1  0  0  0
 74148  1  0  0  0
 75 80  1  0  0  0
 75149  1  0  0  0
 75150  1  0  0  0
 76 77  1  0  0  0
 76 78  1  0  0  0
 76151  1  0  0  0
 76152  1  0  0  0
 77 79  1  0  0  0
 77153  1  0  0  0
 77154  1  0  0  0
 78 81  1  0  0  0
 78155  1  0  0  0
 78156  1  0  0  0
 79 82  1  0  0  0
 79157  1  0  0  0
 79158  1  0  0  0
 80159  1  0  0  0
 80160  1  0  0  0
 81161  1  0  0  0
 82162  1  0  0  0
 83163  1  0  0  0
M  ISO  4   1 100  68 101  80 101  83 100
M  END
> <chiral flag>
0

> <version>
0

> <s_m_source_file>
/data/baiqing/PycharmProjects/Reinvent-master-3.2/result/LINK_invent/BTK/process_docking_weight1_custom_sum_contain_oxygen_bond_distance_aromatic_linkinvent_7_9_3/rearranged_h_0003.sdf

> <i_m_source_file_index>
70

> <r_mmod_Potential_Energy-OPLS-2005>
-281.948089599609

> <r_mmod_Stretch_Energy-OPLS-2005>
31.8158531188965

> <r_mmod_Bend_Energy-OPLS-2005>
108.572967529297

> <r_mmod_Torsional_Energy-OPLS-2005>
281.168884277344

> <r_mmod_Improper_Torsional_Energy-OPLS-2005>
8.39623546600342

> <r_mmod_Van_der_Waal_Energy-OPLS-2005>
147.58625793457

> <r_mmod_Electrostatic_Energy-OPLS-2005>
-611.283447265625

> <r_mmod_Solvation_Energy-OPLS-2005>
-260.424407958984

> <b_mmod_Minimization_Converged-OPLS-2005>
0

> <r_mmod_RMS_Derivative-OPLS-2005>
4.94163799285889

$$$$
71
                    3D
 Structure written by MMmdl.
195203  0  0  1  0            999 V2000
  -30.6876  -14.4686   20.4467 C   0  0  0  0  0  0
  -30.4388  -12.2261   19.4695 C   0  0  0  0  0  0
  -29.5035  -12.2789   18.2422 C   0  0  0  0  0  0
  -28.0007  -12.3256   18.6278 C   0  0  0  0  0  0
  -27.6527  -13.1752   19.8881 C   0  0  2  0  0  0
  -28.7140  -12.9968   20.9981 C   0  0  0  0  0  0
  -25.2602  -13.8085   20.5754 C   0  0  0  0  0  0
  -24.1804  -13.0391   20.9238 C   0  0  0  0  0  0
  -24.6313  -11.6855   20.8803 C   0  0  0  0  0  0
  -23.8982  -10.4246   21.0459 C   0  0  0  0  0  0
  -24.3580   -9.4166   21.9224 C   0  0  0  0  0  0
  -23.6270   -8.2195   22.0772 C   0  0  0  0  0  0
  -22.4249   -8.0240   21.3553 C   0  0  0  0  0  0
  -21.9857   -9.0196   20.4642 C   0  0  0  0  0  0
  -22.7158  -10.2087   20.3076 C   0  0  0  0  0  0
  -21.6865   -6.0678   22.5248 C   0  0  0  0  0  0
  -21.4043   -6.5615   23.8178 C   0  0  0  0  0  0
  -21.3653   -5.6785   24.9137 C   0  0  0  0  0  0
  -21.6063   -4.3031   24.7205 C   0  0  0  0  0  0
  -21.8816   -3.8107   23.4334 C   0  0  0  0  0  0
  -21.9210   -4.6923   22.3378 C   0  0  0  0  0  0
  -22.7836  -13.5217   21.1823 C   0  0  0  0  0  0
  -22.1665   -4.2090   21.0970 F   0  0  0  0  0  0
  -21.5628   -3.4533   25.7736 F   0  0  0  0  0  0
  -30.0424  -13.2734   20.4191 N   0  0  0  0  0  0
  -26.2998  -12.9157   20.3551 N   0  0  0  0  0  0
  -25.9254  -11.6359   20.5978 N   0  0  0  0  0  0
  -22.0497  -12.8222   22.0431 N   0  0  0  0  0  0
  -25.4312  -15.1796   20.4132 N   0  0  0  0  0  0
  -31.8612  -14.6275   20.1112 O   0  0  0  0  0  0
  -21.6652   -6.8806   21.4192 O   0  0  0  0  0  0
  -22.3507  -14.5516   20.6655 O   0  0  0  0  0  0
  -24.6101  -31.8736   23.2149 C   0  0  0  0  0  0
  -25.9013  -32.4860   23.8450 C   0  0  1  0  0  0
  -27.2438  -27.4805   20.0541 C   0  0  0  0  0  0
  -25.5865  -33.8653   24.2367 N   0  0  0  0  0  0
  -23.3969  -30.4928   21.5608 C   0  0  2  0  0  0
  -24.8429  -28.9652   20.1158 C   0  0  0  0  0  0
  -22.7381  -29.4674   22.5081 C   0  0  0  0  0  0
  -18.0250  -28.1411   22.8508 C   0  0  0  0  0  0
  -24.1477  -36.7308   23.2652 C   0  0  0  0  0  0
  -25.9222  -30.8420   21.3656 C   0  0  0  0  0  0
  -26.0017  -29.4818   20.7078 C   0  0  0  0  0  0
  -27.2021  -28.7411   20.6835 C   0  0  0  0  0  0
  -26.0682  -26.9605   19.4705 C   0  0  0  0  0  0
  -24.8693  -27.6997   19.4989 C   0  0  0  0  0  0
  -23.5997  -29.8248   20.1759 C   0  0  0  0  0  0
  -25.4099  -36.3152   24.0361 C   0  0  1  0  0  0
  -20.5840  -28.3660   23.1362 C   0  0  2  0  0  0
  -20.6752  -26.9414   22.5442 C   0  0  0  0  0  0
  -19.5744  -26.6414   21.5221 C   0  0  0  0  0  0
  -18.1912  -26.7952   22.1632 C   0  0  0  0  0  0
  -19.1508  -28.8849   23.2928 C   0  0  0  0  0  0
  -18.9439  -30.1457   23.8927 C   0  0  0  0  0  0
  -17.6447  -30.6622   24.0560 C   0  0  0  0  0  0
  -25.9014  -34.9506   23.5165 C   0  0  0  0  0  0
  -16.5326  -29.9117   23.6366 C   0  0  0  0  0  0
  -16.7231  -28.6548   23.0365 C   0  0  0  0  0  0
  -26.4425  -31.6632   25.0754 C   0  0  0  0  0  0
  -25.3719  -31.3686   26.1514 C   0  0  0  0  0  0
  -27.0244  -30.3103   24.6084 C   0  0  0  0  0  0
  -27.6036  -32.4328   25.7482 C   0  0  0  0  0  0
  -27.5574  -37.1803   24.8473 C   0  0  0  0  0  0
  -21.4119  -29.3022   22.3771 N   0  0  0  0  0  0
  -26.4281  -37.3816   23.9430 N   0  0  0  0  0  0
  -24.6628  -31.0815   22.1073 N   0  0  0  0  0  0
  -23.4134  -28.8242   23.3165 O   0  0  0  0  0  0
  -28.4195  -26.7728   20.0569 O   0  0  0  0  0  0
  -26.5589  -34.8935   22.4729 O   0  0  0  0  0  0
  -23.5307  -32.1474   23.7556 O   0  0  0  0  0  0
  -29.2798  -19.3407   19.0016 C   0  0  0  0  0  0
  -29.9329  -19.2003   20.2368 C   0  0  0  0  0  0
  -29.0064  -18.2199   18.1985 C   0  0  0  0  0  0
  -30.2363  -17.9235   20.7463 C   0  0  0  0  0  0
  -29.3189  -16.9279   18.6993 C   0  0  0  0  0  0
  -29.8735  -16.7704   20.0084 C   0  0  0  0  0  0
  -29.7933  -17.8014   14.9742 C   0  0  0  0  0  0
  -32.3975  -15.2920   15.6296 C   0  0  0  0  0  0
  -32.0879  -22.6357   18.0316 C   0  0  0  0  0  0
  -30.9620  -17.8209   22.0768 C   0  0  0  0  0  0
  -29.0628  -15.7327   17.8089 C   0  0  0  0  0  0
  -28.2773  -18.4725   16.8672 C   0  0  0  0  0  0
  -29.8636  -16.9061   13.7341 C   0  0  0  0  0  0
  -31.9375  -15.3804   14.1705 C   0  0  0  0  0  0
  -32.1868  -21.1695   18.4670 C   0  0  0  0  0  0
  -30.4069  -15.4770   13.9724 C   0  0  0  0  0  0
  -33.3495  -20.3311   17.9125 C   0  0  0  0  0  0
  -33.0677  -18.8269   18.1125 C   0  0  0  0  0  0
  -34.1895  -17.8924   17.6330 C   0  0  0  0  0  0
  -29.5876  -24.9671   18.9763 C   0  0  0  0  0  0
  -33.7078  -16.4505   17.4009 C   0  0  0  0  0  0
  -30.3943  -24.4880   17.7568 C   0  0  0  0  0  0
  -28.9319  -26.3433   18.7945 C   0  0  0  0  0  0
  -29.8722  -15.5078   20.6774 N   0  0  0  0  0  0
  -28.6769  -17.6908   15.6974 N   0  0  0  0  0  0
  -32.9565  -16.3853   16.1513 N   0  0  0  0  0  0
  -30.8381  -23.1175   17.9873 N   0  0  0  0  0  0
  -30.7020  -18.5888   15.2336 O   0  0  0  0  0  0
  -32.3045  -14.2326   16.2487 O   0  0  0  0  0  0
  -33.0914  -23.3102   17.7875 O   0  0  0  0  0  0
  -31.4791  -12.3213   19.1541 H   0  0  0  0  0  0
  -30.3671  -11.2555   19.9646 H   0  0  0  0  0  0
  -29.6720  -11.3727   17.6566 H   0  0  0  0  0  0
  -29.7964  -13.0778   17.5701 H   0  0  0  0  0  0
  -27.6915  -11.2928   18.7995 H   0  0  0  0  0  0
  -27.4141  -12.6643   17.7749 H   0  0  0  0  0  0
  -27.6390  -14.2192   19.6106 H   0  0  0  0  0  0
  -28.6882  -11.9751   21.3825 H   0  0  0  0  0  0
  -28.5084  -13.6348   21.8608 H   0  0  0  0  0  0
  -25.2701   -9.5665   22.4804 H   0  0  0  0  0  0
  -23.9980   -7.4583   22.7503 H   0  0  0  0  0  0
  -21.0783   -8.8673   19.8972 H   0  0  0  0  0  0
  -22.3581  -10.9638   19.6193 H   0  0  0  0  0  0
  -21.2064   -7.6128   23.9630 H   0  0  0  0  0  0
  -21.1499   -6.0543   25.9035 H   0  0  0  0  0  0
  -22.0628   -2.7575   23.2854 H   0  0  0  0  0  0
  -22.4145  -11.9905   22.4825 H   0  0  0  0  0  0
  -21.1111  -13.1236   22.2668 H   0  0  0  0  0  0
  -24.6718  -15.8389   20.5395 H   0  0  0  0  0  0
  -26.2795  -15.6183   20.0811 H   0  0  0  0  0  0
  -26.7070  -32.5589   23.1210 H   0  0  0  0  0  0
  -24.9975  -33.9841   25.0485 H   0  0  0  0  0  0
  -22.6867  -31.3100   21.4266 H   0  0  0  0  0  0
  -23.3749  -35.9627   23.3348 H   0  0  0  0  0  0
  -24.3538  -36.8874   22.2054 H   0  0  0  0  0  0
  -23.7188  -37.6511   23.6612 H   0  0  0  0  0  0
  -26.0333  -31.6147   20.6018 H   0  0  0  0  0  0
  -26.8112  -30.8941   21.9837 H   0  0  0  0  0  0
  -28.1045  -29.1424   21.1245 H   0  0  0  0  0  0
  -26.0744  -25.9884   18.9974 H   0  0  0  0  0  0
  -23.9759  -27.2955   19.0412 H   0  0  0  0  0  0
  -23.6927  -30.6009   19.4156 H   0  0  0  0  0  0
  -22.7243  -29.2380   19.8912 H   0  0  0  0  0  0
  -25.1266  -36.2041   25.0842 H   0  0  0  0  0  0
  -20.9898  -28.3231   24.1491 H   0  0  0  0  0  0
  -20.5697  -26.2254   23.3611 H   0  0  0  0  0  0
  -21.6622  -26.7513   22.1213 H   0  0  0  0  0  0
  -19.6918  -25.6333   21.1246 H   0  0  0  0  0  0
  -19.6707  -27.3239   20.6766 H   0  0  0  0  0  0
  -17.4182  -26.6688   21.4035 H   0  0  0  0  0  0
  -18.0323  -26.0083   22.9034 H   0  0  0  0  0  0
  -19.7901  -30.7268   24.2318 H   0  0  0  0  0  0
  -17.4997  -31.6310   24.5153 H   0  0  0  0  0  0
  -15.5338  -30.3030   23.7687 H   0  0  0  0  0  0
  -15.8612  -28.0867   22.7088 H   0  0  0  0  0  0
  -24.5904  -30.7007   25.7847 H   0  0  0  0  0  0
  -24.8869  -32.2814   26.5010 H   0  0  0  0  0  0
  -25.8103  -30.8831   27.0256 H   0  0  0  0  0  0
  -26.2772  -29.6890   24.1119 H   0  0  0  0  0  0
  -27.4035  -29.7293   25.4509 H   0  0  0  0  0  0
  -27.8601  -30.4450   23.9204 H   0  0  0  0  0  0
  -27.2693  -33.3628   26.2106 H   0  0  0  0  0  0
  -28.3796  -32.6909   25.0251 H   0  0  0  0  0  0
  -28.0760  -31.8416   26.5348 H   0  0  0  0  0  0
  -28.2633  -38.0073   24.7519 H   0  0  0  0  0  0
  -28.1040  -36.2604   24.6312 H   0  0  0  0  0  0
  -27.2286  -37.1471   25.8877 H   0  0  0  0  0  0
  -20.9294  -29.8612   21.6874 H   0  0  0  0  0  0
  -26.0211  -38.2905   24.1420 H   0  0  0  0  0  0
  -29.0078  -20.3318   18.6588 H   0  0  0  0  0  0
  -30.1811  -20.0895   20.7987 H   0  0  0  0  0  0
  -31.9967  -17.5178   21.9045 H   0  0  0  0  0  0
  -30.4995  -17.0873   22.7350 H   0  0  0  0  0  0
  -30.9833  -18.7765   22.6046 H   0  0  0  0  0  0
  -29.8700  -15.6466   17.0822 H   0  0  0  0  0  0
  -28.1027  -15.7802   17.2974 H   0  0  0  0  0  0
  -29.0692  -14.8218   18.3542 H   0  0  0  0  0  0
  -28.3131  -19.5322   16.6079 H   0  0  0  0  0  0
  -27.2244  -18.2487   17.0469 H   0  0  0  0  0  0
  -30.4641  -17.4033   12.9731 H   0  0  0  0  0  0
  -28.8630  -16.8298   13.3067 H   0  0  0  0  0  0
  -32.2891  -14.4699   13.6831 H   0  0  0  0  0  0
  -32.4522  -16.1961   13.6559 H   0  0  0  0  0  0
  -31.2716  -20.6931   18.1314 H   0  0  0  0  0  0
  -32.1928  -21.1311   19.5577 H   0  0  0  0  0  0
  -30.1614  -14.8859   13.0880 H   0  0  0  0  0  0
  -29.8747  -14.9882   14.7922 H   0  0  0  0  0  0
  -34.2765  -20.6157   18.4146 H   0  0  0  0  0  0
  -33.4811  -20.5354   16.8484 H   0  0  0  0  0  0
  -32.8671  -18.6298   19.1684 H   0  0  0  0  0  0
  -32.1465  -18.5657   17.5913 H   0  0  0  0  0  0
  -34.9884  -17.8983   18.3736 H   0  0  0  0  0  0
  -34.6260  -18.2684   16.7068 H   0  0  0  0  0  0
  -30.2417  -24.9934   19.8487 H   0  0  0  0  0  0
  -28.8049  -24.2394   19.2004 H   0  0  0  0  0  0
  -33.1052  -16.0913   18.2385 H   0  0  0  0  0  0
  -34.5668  -15.7795   17.3288 H   0  0  0  0  0  0
  -31.2309  -25.1582   17.5517 H   0  0  0  0  0  0
  -29.7620  -24.4902   16.8674 H   0  0  0  0  0  0
  -28.1752  -26.2906   18.0127 H   0  0  0  0  0  0
  -29.6787  -27.0698   18.4700 H   0  0  0  0  0  0
  -28.9692  -15.2204   21.0228 H   0  0  0  0  0  0
  -27.9953  -17.0215   15.3664 H   0  0  0  0  0  0
  -32.8903  -17.2404   15.6124 H   0  0  0  0  0  0
  -30.1036  -22.4561   18.1997 H   0  0  0  0  0  0
  1 25  1  0  0  0
  1 30  2  0  0  0
  1 94  1  0  0  0
  2  3  1  0  0  0
  2 25  1  0  0  0
  2101  1  0  0  0
  2102  1  0  0  0
  3  4  1  0  0  0
  3103  1  0  0  0
  3104  1  0  0  0
  4  5  1  0  0  0
  4105  1  0  0  0
  4106  1  0  0  0
  5  6  1  0  0  0
  5 26  1  0  0  0
  5107  1  0  0  0
  6 25  1  0  0  0
  6108  1  0  0  0
  6109  1  0  0  0
  7  8  2  0  0  0
  7 26  1  0  0  0
  7 29  1  0  0  0
  8  9  1  0  0  0
  8 22  1  0  0  0
  9 10  1  0  0  0
  9 27  2  0  0  0
 10 11  2  0  0  0
 10 15  1  0  0  0
 11 12  1  0  0  0
 11110  1  0  0  0
 12 13  2  0  0  0
 12111  1  0  0  0
 13 14  1  0  0  0
 13 31  1  0  0  0
 14 15  2  0  0  0
 14112  1  0  0  0
 15113  1  0  0  0
 16 17  2  0  0  0
 16 21  1  0  0  0
 16 31  1  0  0  0
 17 18  1  0  0  0
 17114  1  0  0  0
 18 19  2  0  0  0
 18115  1  0  0  0
 19 20  1  0  0  0
 19 24  1  0  0  0
 20 21  2  0  0  0
 20116  1  0  0  0
 21 23  1  0  0  0
 22 28  1  0  0  0
 22 32  2  0  0  0
 26 27  1  0  0  0
 28117  1  0  0  0
 28118  1  0  0  0
 29119  1  0  0  0
 29120  1  0  0  0
 33 34  1  0  0  0
 33 66  1  0  0  0
 33 70  2  0  0  0
 34 36  1  0  0  0
 34 59  1  0  0  0
 34121  1  0  0  0
 35 44  2  0  0  0
 35 45  1  0  0  0
 35 68  1  0  0  0
 36 56  1  0  0  0
 36122  1  0  0  0
 37 39  1  0  0  0
 37 47  1  0  0  0
 37 66  1  0  0  0
 37123  1  0  0  0
 38 43  2  0  0  0
 38 46  1  0  0  0
 38 47  1  0  0  0
 39 64  1  0  0  0
 39 67  2  0  0  0
 40 52  1  0  0  0
 40 53  2  0  0  0
 40 58  1  0  0  0
 41124  1  0  0  0
 41125  1  0  0  0
 41126  1  0  0  0
 41 48  1  0  0  0
 42 43  1  0  0  0
 42 66  1  0  0  0
 42127  1  0  0  0
 42128  1  0  0  0
 43 44  1  0  0  0
 44129  1  0  0  0
 45 46  2  0  0  0
 45130  1  0  0  0
 46131  1  0  0  0
 47132  1  0  0  0
 47133  1  0  0  0
 48 56  1  0  0  0
 48 65  1  0  0  0
 48134  1  0  0  0
 49 50  1  0  0  0
 49 53  1  0  0  0
 49 64  1  0  0  0
 49135  1  0  0  0
 50 51  1  0  0  0
 50136  1  0  0  0
 50137  1  0  0  0
 51 52  1  0  0  0
 51138  1  0  0  0
 51139  1  0  0  0
 52140  1  0  0  0
 52141  1  0  0  0
 53 54  1  0  0  0
 54 55  2  0  0  0
 54142  1  0  0  0
 55 57  1  0  0  0
 55143  1  0  0  0
 56 69  2  0  0  0
 57 58  2  0  0  0
 57144  1  0  0  0
 58145  1  0  0  0
 59 60  1  0  0  0
 59 61  1  0  0  0
 59 62  1  0  0  0
 60146  1  0  0  0
 60147  1  0  0  0
 60148  1  0  0  0
 61149  1  0  0  0
 61150  1  0  0  0
 61151  1  0  0  0
 62152  1  0  0  0
 62153  1  0  0  0
 62154  1  0  0  0
 63 65  1  0  0  0
 63155  1  0  0  0
 63156  1  0  0  0
 63157  1  0  0  0
 64158  1  0  0  0
 65159  1  0  0  0
 68 93  1  0  0  0
 71 72  2  0  0  0
 71 73  1  0  0  0
 71160  1  0  0  0
 72 74  1  0  0  0
 72161  1  0  0  0
 73 75  2  0  0  0
 73 82  1  0  0  0
 74 76  2  0  0  0
 74 80  1  0  0  0
 75 76  1  0  0  0
 75 81  1  0  0  0
 76 94  1  0  0  0
 77 83  1  0  0  0
 77 95  1  0  0  0
 77 98  2  0  0  0
 78 84  1  0  0  0
 78 96  1  0  0  0
 78 99  2  0  0  0
 79 85  1  0  0  0
 79 97  1  0  0  0
 79100  2  0  0  0
 80162  1  0  0  0
 80163  1  0  0  0
 80164  1  0  0  0
 81165  1  0  0  0
 81166  1  0  0  0
 81167  1  0  0  0
 82 95  1  0  0  0
 82168  1  0  0  0
 82169  1  0  0  0
 83 86  1  0  0  0
 83170  1  0  0  0
 83171  1  0  0  0
 84 86  1  0  0  0
 84172  1  0  0  0
 84173  1  0  0  0
 85 87  1  0  0  0
 85174  1  0  0  0
 85175  1  0  0  0
 86176  1  0  0  0
 86177  1  0  0  0
 87 88  1  0  0  0
 87178  1  0  0  0
 87179  1  0  0  0
 88 89  1  0  0  0
 88180  1  0  0  0
 88181  1  0  0  0
 89 91  1  0  0  0
 89182  1  0  0  0
 89183  1  0  0  0
 90 92  1  0  0  0
 90 93  1  0  0  0
 90184  1  0  0  0
 90185  1  0  0  0
 91 96  1  0  0  0
 91186  1  0  0  0
 91187  1  0  0  0
 92 97  1  0  0  0
 92188  1  0  0  0
 92189  1  0  0  0
 93190  1  0  0  0
 93191  1  0  0  0
 94192  1  0  0  0
 95193  1  0  0  0
 96194  1  0  0  0
 97195  1  0  0  0
M  ISO  4   1 100  68 101  93 101  94 100
M  END
> <chiral flag>
0

> <version>
0

> <s_m_source_file>
/data/baiqing/PycharmProjects/Reinvent-master-3.2/result/LINK_invent/BTK/process_docking_weight1_custom_sum_contain_oxygen_bond_distance_aromatic_linkinvent_7_9_3/rearranged_h_0003.sdf

> <i_m_source_file_index>
71

> <r_mmod_Potential_Energy-OPLS-2005>
-246.160308837891

> <r_mmod_Stretch_Energy-OPLS-2005>
38.4197158813477

> <r_mmod_Bend_Energy-OPLS-2005>
124.355438232422

> <r_mmod_Torsional_Energy-OPLS-2005>
297.920135498047

> <r_mmod_Improper_Torsional_Energy-OPLS-2005>
8.48974227905273

> <r_mmod_Van_der_Waal_Energy-OPLS-2005>
131.597305297852

> <r_mmod_Electrostatic_Energy-OPLS-2005>
-579.875671386719

> <r_mmod_Solvation_Energy-OPLS-2005>
-290.96240234375

> <b_mmod_Minimization_Converged-OPLS-2005>
0

> <r_mmod_RMS_Derivative-OPLS-2005>
6.15834665298462

$$$$
72
                    3D
 Structure written by MMmdl.
158166  0  0  1  0            999 V2000
  -30.6291  -14.6241   20.5124 C   0  0  0  0  0  0
  -30.4404  -12.3854   19.4499 C   0  0  0  0  0  0
  -29.5070  -12.5087   18.2244 C   0  0  0  0  0  0
  -28.0298  -12.3499   18.6368 C   0  0  0  0  0  0
  -27.6572  -13.2151   19.8702 C   0  0  2  0  0  0
  -28.7023  -13.0557   20.9975 C   0  0  0  0  0  0
  -25.2563  -13.8161   20.5628 C   0  0  0  0  0  0
  -24.1832  -13.0438   20.9162 C   0  0  0  0  0  0
  -24.6404  -11.6909   20.8746 C   0  0  0  0  0  0
  -23.9067  -10.4295   21.0412 C   0  0  0  0  0  0
  -24.3618   -9.4208   21.9189 C   0  0  0  0  0  0
  -23.6293   -8.2243   22.0757 C   0  0  0  0  0  0
  -22.4274   -8.0283   21.3548 C   0  0  0  0  0  0
  -21.9910   -9.0256   20.4651 C   0  0  0  0  0  0
  -22.7238  -10.2137   20.3062 C   0  0  0  0  0  0
  -21.6851   -6.0736   22.5277 C   0  0  0  0  0  0
  -21.4011   -6.5641   23.8211 C   0  0  0  0  0  0
  -21.3660   -5.6794   24.9173 C   0  0  0  0  0  0
  -21.6045   -4.3057   24.7224 C   0  0  0  0  0  0
  -21.8819   -3.8149   23.4346 C   0  0  0  0  0  0
  -21.9192   -4.6964   22.3400 C   0  0  0  0  0  0
  -22.7860  -13.5238   21.1834 C   0  0  0  0  0  0
  -22.1661   -4.2149   21.0978 F   0  0  0  0  0  0
  -21.5630   -3.4542   25.7739 F   0  0  0  0  0  0
  -30.0204  -13.3985   20.4379 N   0  0  0  0  0  0
  -26.3017  -12.9349   20.3364 N   0  0  0  0  0  0
  -25.9342  -11.6505   20.5802 N   0  0  0  0  0  0
  -22.0511  -12.8235   22.0403 N   0  0  0  0  0  0
  -25.4251  -15.1862   20.3929 N   0  0  0  0  0  0
  -31.7809  -14.7951   20.1020 O   0  0  0  0  0  0
  -21.6640   -6.8881   21.4240 O   0  0  0  0  0  0
  -22.3541  -14.5547   20.6692 O   0  0  0  0  0  0
  -24.6264  -31.8608   23.2036 C   0  0  0  0  0  0
  -25.9114  -32.4783   23.8362 C   0  0  1  0  0  0
  -27.2218  -27.3245   20.1129 C   0  0  0  0  0  0
  -25.5932  -33.8584   24.2286 N   0  0  0  0  0  0
  -23.4185  -30.4862   21.5470 C   0  0  2  0  0  0
  -24.8634  -28.9445   20.1113 C   0  0  0  0  0  0
  -22.7473  -29.4632   22.4942 C   0  0  0  0  0  0
  -18.0287  -28.1380   22.8491 C   0  0  0  0  0  0
  -24.1486  -36.7294   23.2639 C   0  0  0  0  0  0
  -25.9599  -30.7939   21.3731 C   0  0  0  0  0  0
  -26.0337  -29.4222   20.7143 C   0  0  0  0  0  0
  -27.2161  -28.6247   20.7048 C   0  0  0  0  0  0
  -26.0253  -26.9006   19.4864 C   0  0  0  0  0  0
  -24.8610  -27.6884   19.4890 C   0  0  0  0  0  0
  -23.6320  -29.8245   20.1613 C   0  0  0  0  0  0
  -25.4110  -36.3083   24.0331 C   0  0  1  0  0  0
  -20.5886  -28.3687   23.1284 C   0  0  2  0  0  0
  -20.6778  -26.9412   22.5407 C   0  0  0  0  0  0
  -19.5748  -26.6381   21.5212 C   0  0  0  0  0  0
  -18.1928  -26.7923   22.1627 C   0  0  0  0  0  0
  -19.1540  -28.8851   23.2880 C   0  0  0  0  0  0
  -18.9466  -30.1457   23.8888 C   0  0  0  0  0  0
  -17.6466  -30.6584   24.0566 C   0  0  0  0  0  0
  -25.9050  -34.9454   23.5106 C   0  0  0  0  0  0
  -16.5357  -29.9083   23.6333 C   0  0  0  0  0  0
  -16.7277  -28.6502   23.0349 C   0  0  0  0  0  0
  -26.4495  -31.6588   25.0729 C   0  0  0  0  0  0
  -25.3733  -31.3725   26.1462 C   0  0  0  0  0  0
  -27.0341  -30.3016   24.6175 C   0  0  0  0  0  0
  -27.6053  -32.4328   25.7497 C   0  0  0  0  0  0
  -27.5573  -37.1804   24.8467 C   0  0  0  0  0  0
  -21.4188  -29.3047   22.3684 N   0  0  0  0  0  0
  -26.4285  -37.3780   23.9413 N   0  0  0  0  0  0
  -24.6874  -31.0628   22.0983 N   0  0  0  0  0  0
  -23.4201  -28.8167   23.3015 O   0  0  0  0  0  0
  -28.3389  -26.4738   20.1641 O   0  0  0  0  0  0
  -26.5615  -34.8922   22.4671 O   0  0  0  0  0  0
  -23.5430  -32.1402   23.7371 O   0  0  0  0  0  0
  -30.8623  -19.2516   20.0100 C   0  0  0  0  0  0
  -30.9164  -17.8321   20.1273 C   0  0  0  0  0  0
  -28.7577  -19.2874   21.1769 C   0  0  0  0  0  0
  -29.7811  -20.0216   20.5183 C   0  0  0  0  0  0
  -29.8894  -17.1037   20.7812 C   0  0  0  0  0  0
  -28.8104  -17.8593   21.3191 C   0  0  0  0  0  0
  -28.8468  -22.4432   20.4886 C   0  0  0  0  0  0
  -26.1164  -16.8042   23.6106 C   0  0  0  0  0  0
  -29.2411  -23.9740   20.4063 C   0  0  0  0  0  0
  -26.8835  -17.8228   22.7642 C   0  0  0  0  0  0
  -28.0913  -25.0157   20.0598 C   0  0  0  0  0  0
  -29.8208  -21.4829   20.3939 N   0  0  0  0  0  0
  -29.8359  -15.6521   20.9376 N   0  0  0  0  0  0
  -27.6598  -22.1448   20.6354 O   0  0  0  0  0  0
  -27.8425  -17.1266   21.9780 O   0  0  0  0  0  0
  -31.4808  -12.5122   19.1451 H   0  0  0  0  0  0
  -30.3774  -11.3865   19.8843 H   0  0  0  0  0  0
  -29.7673  -11.7591   17.4759 H   0  0  0  0  0  0
  -29.6512  -13.4794   17.7473 H   0  0  0  0  0  0
  -27.8626  -11.2958   18.8617 H   0  0  0  0  0  0
  -27.3755  -12.5879   17.7973 H   0  0  0  0  0  0
  -27.6807  -14.2534   19.5389 H   0  0  0  0  0  0
  -28.7108  -12.0297   21.3682 H   0  0  0  0  0  0
  -28.4478  -13.6769   21.8578 H   0  0  0  0  0  0
  -25.2764   -9.5680   22.4760 H   0  0  0  0  0  0
  -24.0002   -7.4634   22.7477 H   0  0  0  0  0  0
  -21.0841   -8.8774   19.8958 H   0  0  0  0  0  0
  -22.3696  -10.9675   19.6173 H   0  0  0  0  0  0
  -21.2002   -7.6148   23.9713 H   0  0  0  0  0  0
  -21.1482   -6.0525   25.9076 H   0  0  0  0  0  0
  -22.0597   -2.7610   23.2845 H   0  0  0  0  0  0
  -22.4134  -11.9896   22.4782 H   0  0  0  0  0  0
  -21.1135  -13.1264   22.2624 H   0  0  0  0  0  0
  -24.6606  -15.8414   20.5092 H   0  0  0  0  0  0
  -26.2932  -15.6341   20.1286 H   0  0  0  0  0  0
  -26.7185  -32.5454   23.1113 H   0  0  0  0  0  0
  -25.0086  -33.9734   25.0436 H   0  0  0  0  0  0
  -22.7122  -31.3071   21.4061 H   0  0  0  0  0  0
  -23.3748  -35.9625   23.3295 H   0  0  0  0  0  0
  -24.3575  -36.8923   22.2055 H   0  0  0  0  0  0
  -23.7243  -37.6495   23.6667 H   0  0  0  0  0  0
  -26.0883  -31.5576   20.6048 H   0  0  0  0  0  0
  -26.8419  -30.8429   22.0000 H   0  0  0  0  0  0
  -28.1138  -28.9864   21.1862 H   0  0  0  0  0  0
  -25.9544  -25.9428   18.9945 H   0  0  0  0  0  0
  -23.9642  -27.3165   19.0125 H   0  0  0  0  0  0
  -23.7525  -30.6030   19.4071 H   0  0  0  0  0  0
  -22.7512  -29.2563   19.8568 H   0  0  0  0  0  0
  -25.1287  -36.1930   25.0822 H   0  0  0  0  0  0
  -20.9979  -28.3261   24.1403 H   0  0  0  0  0  0
  -20.5685  -26.2299   23.3607 H   0  0  0  0  0  0
  -21.6646  -26.7445   22.1195 H   0  0  0  0  0  0
  -19.6909  -25.6291   21.1247 H   0  0  0  0  0  0
  -19.6676  -27.3192   20.6743 H   0  0  0  0  0  0
  -17.4197  -26.6682   21.4027 H   0  0  0  0  0  0
  -18.0321  -26.0056   22.9014 H   0  0  0  0  0  0
  -19.7942  -30.7284   24.2239 H   0  0  0  0  0  0
  -17.5021  -31.6260   24.5175 H   0  0  0  0  0  0
  -15.5359  -30.2988   23.7654 H   0  0  0  0  0  0
  -15.8676  -28.0831   22.7048 H   0  0  0  0  0  0
  -24.5894  -30.7087   25.7794 H   0  0  0  0  0  0
  -24.8939  -32.2895   26.4905 H   0  0  0  0  0  0
  -25.8062  -30.8889   27.0229 H   0  0  0  0  0  0
  -26.2916  -29.6763   24.1204 H   0  0  0  0  0  0
  -27.4055  -29.7271   25.4673 H   0  0  0  0  0  0
  -27.8774  -30.4307   23.9384 H   0  0  0  0  0  0
  -27.2660  -33.3638   26.2053 H   0  0  0  0  0  0
  -28.3870  -32.6879   25.0327 H   0  0  0  0  0  0
  -28.0709  -31.8469   26.5432 H   0  0  0  0  0  0
  -28.2592  -38.0099   24.7511 H   0  0  0  0  0  0
  -28.1069  -36.2633   24.6293 H   0  0  0  0  0  0
  -27.2295  -37.1456   25.8871 H   0  0  0  0  0  0
  -20.9362  -29.8789   21.6912 H   0  0  0  0  0  0
  -26.0161  -38.2853   24.1417 H   0  0  0  0  0  0
  -31.6794  -19.7517   19.5088 H   0  0  0  0  0  0
  -31.7649  -17.3142   19.7050 H   0  0  0  0  0  0
  -27.9280  -19.8381   21.5909 H   0  0  0  0  0  0
  -25.3739  -17.2997   24.2361 H   0  0  0  0  0  0
  -26.7902  -16.2532   24.2666 H   0  0  0  0  0  0
  -25.5932  -16.0808   22.9866 H   0  0  0  0  0  0
  -30.0487  -24.0854   19.6829 H   0  0  0  0  0  0
  -29.6650  -24.2393   21.3745 H   0  0  0  0  0  0
  -27.3722  -18.5383   23.4277 H   0  0  0  0  0  0
  -26.1926  -18.3703   22.1211 H   0  0  0  0  0  0
  -27.2361  -24.7807   20.6963 H   0  0  0  0  0  0
  -27.7836  -24.7992   19.0364 H   0  0  0  0  0  0
  -30.7361  -21.8599   20.1858 H   0  0  0  0  0  0
  -28.9614  -15.3371   21.3306 H   0  0  0  0  0  0
  1 25  1  0  0  0
  1 30  2  0  0  0
  1 83  1  0  0  0
  2  3  1  0  0  0
  2 25  1  0  0  0
  2 86  1  0  0  0
  2 87  1  0  0  0
  3  4  1  0  0  0
  3 88  1  0  0  0
  3 89  1  0  0  0
  4  5  1  0  0  0
  4 90  1  0  0  0
  4 91  1  0  0  0
  5  6  1  0  0  0
  5 26  1  0  0  0
  5 92  1  0  0  0
  6 25  1  0  0  0
  6 93  1  0  0  0
  6 94  1  0  0  0
  7  8  2  0  0  0
  7 26  1  0  0  0
  7 29  1  0  0  0
  8  9  1  0  0  0
  8 22  1  0  0  0
  9 10  1  0  0  0
  9 27  2  0  0  0
 10 11  2  0  0  0
 10 15  1  0  0  0
 11 12  1  0  0  0
 11 95  1  0  0  0
 12 13  2  0  0  0
 12 96  1  0  0  0
 13 14  1  0  0  0
 13 31  1  0  0  0
 14 15  2  0  0  0
 14 97  1  0  0  0
 15 98  1  0  0  0
 16 17  2  0  0  0
 16 21  1  0  0  0
 16 31  1  0  0  0
 17 18  1  0  0  0
 17 99  1  0  0  0
 18 19  2  0  0  0
 18100  1  0  0  0
 19 20  1  0  0  0
 19 24  1  0  0  0
 20 21  2  0  0  0
 20101  1  0  0  0
 21 23  1  0  0  0
 22 28  1  0  0  0
 22 32  2  0  0  0
 26 27  1  0  0  0
 28102  1  0  0  0
 28103  1  0  0  0
 29104  1  0  0  0
 29105  1  0  0  0
 33 34  1  0  0  0
 33 66  1  0  0  0
 33 70  2  0  0  0
 34 36  1  0  0  0
 34 59  1  0  0  0
 34106  1  0  0  0
 35 44  2  0  0  0
 35 45  1  0  0  0
 35 68  1  0  0  0
 36 56  1  0  0  0
 36107  1  0  0  0
 37 39  1  0  0  0
 37 47  1  0  0  0
 37 66  1  0  0  0
 37108  1  0  0  0
 38 43  2  0  0  0
 38 46  1  0  0  0
 38 47  1  0  0  0
 39 64  1  0  0  0
 39 67  2  0  0  0
 40 52  1  0  0  0
 40 53  2  0  0  0
 40 58  1  0  0  0
 41109  1  0  0  0
 41110  1  0  0  0
 41111  1  0  0  0
 41 48  1  0  0  0
 42 43  1  0  0  0
 42 66  1  0  0  0
 42112  1  0  0  0
 42113  1  0  0  0
 43 44  1  0  0  0
 44114  1  0  0  0
 45 46  2  0  0  0
 45115  1  0  0  0
 46116  1  0  0  0
 47117  1  0  0  0
 47118  1  0  0  0
 48 56  1  0  0  0
 48 65  1  0  0  0
 48119  1  0  0  0
 49 50  1  0  0  0
 49 53  1  0  0  0
 49 64  1  0  0  0
 49120  1  0  0  0
 50 51  1  0  0  0
 50121  1  0  0  0
 50122  1  0  0  0
 51 52  1  0  0  0
 51123  1  0  0  0
 51124  1  0  0  0
 52125  1  0  0  0
 52126  1  0  0  0
 53 54  1  0  0  0
 54 55  2  0  0  0
 54127  1  0  0  0
 55 57  1  0  0  0
 55128  1  0  0  0
 56 69  2  0  0  0
 57 58  2  0  0  0
 57129  1  0  0  0
 58130  1  0  0  0
 59 60  1  0  0  0
 59 61  1  0  0  0
 59 62  1  0  0  0
 60131  1  0  0  0
 60132  1  0  0  0
 60133  1  0  0  0
 61134  1  0  0  0
 61135  1  0  0  0
 61136  1  0  0  0
 62137  1  0  0  0
 62138  1  0  0  0
 62139  1  0  0  0
 63 65  1  0  0  0
 63140  1  0  0  0
 63141  1  0  0  0
 63142  1  0  0  0
 64143  1  0  0  0
 65144  1  0  0  0
 68 81  1  0  0  0
 71 72  2  0  0  0
 71 74  1  0  0  0
 71145  1  0  0  0
 72 75  1  0  0  0
 72146  1  0  0  0
 73 74  2  0  0  0
 73 76  1  0  0  0
 73147  1  0  0  0
 74 82  1  0  0  0
 75 76  2  0  0  0
 75 83  1  0  0  0
 76 85  1  0  0  0
 77 79  1  0  0  0
 77 82  1  0  0  0
 77 84  2  0  0  0
 78 80  1  0  0  0
 78148  1  0  0  0
 78149  1  0  0  0
 78150  1  0  0  0
 79 81  1  0  0  0
 79151  1  0  0  0
 79152  1  0  0  0
 80 85  1  0  0  0
 80153  1  0  0  0
 80154  1  0  0  0
 81155  1  0  0  0
 81156  1  0  0  0
 82157  1  0  0  0
 83158  1  0  0  0
M  ISO  4   1 100  68 101  81 101  83 100
M  END
> <chiral flag>
0

> <version>
0

> <s_m_source_file>
/data/baiqing/PycharmProjects/Reinvent-master-3.2/result/LINK_invent/BTK/process_docking_weight1_custom_sum_contain_oxygen_bond_distance_aromatic_linkinvent_7_9_3/rearranged_h_0003.sdf

> <i_m_source_file_index>
72

> <r_mmod_Potential_Energy-OPLS-2005>
-50.173210144043

> <r_mmod_Stretch_Energy-OPLS-2005>
77.0587463378906

> <r_mmod_Bend_Energy-OPLS-2005>
145.960968017578

> <r_mmod_Torsional_Energy-OPLS-2005>
220.158630371094

> <r_mmod_Improper_Torsional_Energy-OPLS-2005>
3.44921493530273

> <r_mmod_Van_der_Waal_Energy-OPLS-2005>
148.640502929688

> <r_mmod_Electrostatic_Energy-OPLS-2005>
-468.119934082031

> <r_mmod_Solvation_Energy-OPLS-2005>
-222.104125976562

> <b_mmod_Minimization_Converged-OPLS-2005>
0

> <r_mmod_RMS_Derivative-OPLS-2005>
0.553473770618439

$$$$
73
                    3D
 Structure written by MMmdl.
152159  0  0  1  0            999 V2000
  -30.7203  -14.4587   20.5852 C   0  0  0  0  0  0
  -30.4160  -12.3033   19.4228 C   0  0  0  0  0  0
  -29.4919  -12.5130   18.2065 C   0  0  0  0  0  0
  -28.0128  -12.3778   18.6172 C   0  0  0  0  0  0
  -27.6624  -13.2106   19.8798 C   0  0  2  0  0  0
  -28.7046  -12.9913   21.0003 C   0  0  0  0  0  0
  -25.2583  -13.8165   20.5694 C   0  0  0  0  0  0
  -24.1837  -13.0437   20.9169 C   0  0  0  0  0  0
  -24.6391  -11.6907   20.8726 C   0  0  0  0  0  0
  -23.9059  -10.4293   21.0399 C   0  0  0  0  0  0
  -24.3617   -9.4207   21.9173 C   0  0  0  0  0  0
  -23.6298   -8.2237   22.0742 C   0  0  0  0  0  0
  -22.4279   -8.0277   21.3539 C   0  0  0  0  0  0
  -21.9913   -9.0244   20.4636 C   0  0  0  0  0  0
  -22.7232  -10.2128   20.3046 C   0  0  0  0  0  0
  -21.6848   -6.0737   22.5283 C   0  0  0  0  0  0
  -21.4013   -6.5641   23.8216 C   0  0  0  0  0  0
  -21.3664   -5.6791   24.9178 C   0  0  0  0  0  0
  -21.6048   -4.3054   24.7224 C   0  0  0  0  0  0
  -21.8820   -3.8147   23.4349 C   0  0  0  0  0  0
  -21.9192   -4.6966   22.3405 C   0  0  0  0  0  0
  -22.7857  -13.5231   21.1846 C   0  0  0  0  0  0
  -22.1665   -4.2147   21.0984 F   0  0  0  0  0  0
  -21.5631   -3.4544   25.7742 F   0  0  0  0  0  0
  -30.0349  -13.2911   20.4458 N   0  0  0  0  0  0
  -26.3029  -12.9349   20.3395 N   0  0  0  0  0  0
  -25.9325  -11.6504   20.5775 N   0  0  0  0  0  0
  -22.0511  -12.8215   22.0403 N   0  0  0  0  0  0
  -25.4300  -15.1885   20.4118 N   0  0  0  0  0  0
  -31.8363  -14.6371   20.0888 O   0  0  0  0  0  0
  -21.6642   -6.8877   21.4242 O   0  0  0  0  0  0
  -22.3544  -14.5545   20.6710 O   0  0  0  0  0  0
  -24.6179  -31.8685   23.2113 C   0  0  0  0  0  0
  -25.9063  -32.4832   23.8415 C   0  0  1  0  0  0
  -27.2252  -27.4123   20.0994 C   0  0  0  0  0  0
  -25.5914  -33.8629   24.2348 N   0  0  0  0  0  0
  -23.4064  -30.4955   21.5523 C   0  0  2  0  0  0
  -24.8506  -28.9676   20.1119 C   0  0  0  0  0  0
  -22.7430  -29.4667   22.4972 C   0  0  0  0  0  0
  -18.0285  -28.1388   22.8489 C   0  0  0  0  0  0
  -24.1488  -36.7318   23.2634 C   0  0  0  0  0  0
  -25.9387  -30.8309   21.3660 C   0  0  0  0  0  0
  -26.0151  -29.4653   20.7097 C   0  0  0  0  0  0
  -27.2065  -28.6972   20.6980 C   0  0  0  0  0  0
  -26.0391  -26.9485   19.4787 C   0  0  0  0  0  0
  -24.8596  -27.7105   19.4906 C   0  0  0  0  0  0
  -23.6156  -29.8379   20.1639 C   0  0  0  0  0  0
  -25.4107  -36.3119   24.0341 C   0  0  1  0  0  0
  -20.5876  -28.3680   23.1312 C   0  0  2  0  0  0
  -20.6779  -26.9413   22.5413 C   0  0  0  0  0  0
  -19.5753  -26.6386   21.5220 C   0  0  0  0  0  0
  -18.1934  -26.7934   22.1630 C   0  0  0  0  0  0
  -19.1530  -28.8851   23.2903 C   0  0  0  0  0  0
  -18.9449  -30.1455   23.8915 C   0  0  0  0  0  0
  -17.6445  -30.6588   24.0563 C   0  0  0  0  0  0
  -25.9035  -34.9481   23.5140 C   0  0  0  0  0  0
  -16.5344  -29.9087   23.6315 C   0  0  0  0  0  0
  -16.7270  -28.6508   23.0340 C   0  0  0  0  0  0
  -26.4468  -31.6608   25.0743 C   0  0  0  0  0  0
  -25.3713  -31.3727   26.1480 C   0  0  0  0  0  0
  -27.0290  -30.3050   24.6119 C   0  0  0  0  0  0
  -27.6065  -32.4299   25.7499 C   0  0  0  0  0  0
  -27.5585  -37.1817   24.8463 C   0  0  0  0  0  0
  -21.4155  -29.3046   22.3715 N   0  0  0  0  0  0
  -26.4297  -37.3797   23.9409 N   0  0  0  0  0  0
  -24.6730  -31.0783   22.1021 N   0  0  0  0  0  0
  -23.4200  -28.8194   23.3005 O   0  0  0  0  0  0
  -28.3713  -26.6301   20.1486 O   0  0  0  0  0  0
  -26.5580  -34.8926   22.4690 O   0  0  0  0  0  0
  -23.5362  -32.1437   23.7494 O   0  0  0  0  0  0
  -28.9480  -22.8150   20.5380 C   0  0  0  0  0  0
  -29.3167  -24.3053   20.5749 C   0  0  0  0  0  0
  -30.1586  -19.3873   21.0945 C   0  0  0  0  0  0
  -29.5758  -17.9489   20.9997 C   0  0  0  0  0  0
  -29.1328  -20.5035   20.7702 C   0  0  0  0  0  0
  -30.5871  -16.8372   21.3847 C   0  0  0  0  0  0
  -28.1626  -25.2009   20.0556 C   0  0  0  0  0  0
  -29.7186  -21.8436   20.8609 N   0  0  0  0  0  0
  -30.0688  -15.4665   21.1987 N   0  0  0  0  0  0
  -31.4626  -12.3878   19.1248 H   0  0  0  0  0  0
  -30.3027  -11.2921   19.8169 H   0  0  0  0  0  0
  -29.7294  -11.7942   17.4214 H   0  0  0  0  0  0
  -29.6647  -13.5016   17.7783 H   0  0  0  0  0  0
  -27.8129  -11.3214   18.8013 H   0  0  0  0  0  0
  -27.3653  -12.6651   17.7880 H   0  0  0  0  0  0
  -27.7080  -14.2607   19.5889 H   0  0  0  0  0  0
  -28.6781  -11.9558   21.3430 H   0  0  0  0  0  0
  -28.4694  -13.5927   21.8791 H   0  0  0  0  0  0
  -25.2763   -9.5690   22.4742 H   0  0  0  0  0  0
  -24.0013   -7.4633   22.7463 H   0  0  0  0  0  0
  -21.0841   -8.8763   19.8946 H   0  0  0  0  0  0
  -22.3685  -10.9670   19.6161 H   0  0  0  0  0  0
  -21.2004   -7.6149   23.9722 H   0  0  0  0  0  0
  -21.1490   -6.0523   25.9082 H   0  0  0  0  0  0
  -22.0595   -2.7607   23.2849 H   0  0  0  0  0  0
  -22.4149  -11.9880   22.4781 H   0  0  0  0  0  0
  -21.1129  -13.1229   22.2631 H   0  0  0  0  0  0
  -24.6628  -15.8429   20.5189 H   0  0  0  0  0  0
  -26.2866  -15.6289   20.1002 H   0  0  0  0  0  0
  -26.7142  -32.5543   23.1190 H   0  0  0  0  0  0
  -25.0089  -33.9795   25.0511 H   0  0  0  0  0  0
  -22.6963  -31.3137   21.4175 H   0  0  0  0  0  0
  -23.3753  -35.9647   23.3295 H   0  0  0  0  0  0
  -24.3589  -36.8928   22.2048 H   0  0  0  0  0  0
  -23.7235  -37.6525   23.6639 H   0  0  0  0  0  0
  -26.0502  -31.5977   20.5982 H   0  0  0  0  0  0
  -26.8280  -30.8857   21.9822 H   0  0  0  0  0  0
  -28.1020  -29.0749   21.1719 H   0  0  0  0  0  0
  -25.9949  -25.9911   18.9817 H   0  0  0  0  0  0
  -23.9671  -27.3250   19.0178 H   0  0  0  0  0  0
  -23.7298  -30.6198   19.4117 H   0  0  0  0  0  0
  -22.7377  -29.2647   19.8601 H   0  0  0  0  0  0
  -25.1282  -36.1989   25.0834 H   0  0  0  0  0  0
  -20.9977  -28.3245   24.1429 H   0  0  0  0  0  0
  -20.5708  -26.2279   23.3600 H   0  0  0  0  0  0
  -21.6649  -26.7465   22.1191 H   0  0  0  0  0  0
  -19.6915  -25.6296   21.1255 H   0  0  0  0  0  0
  -19.6702  -27.3190   20.6747 H   0  0  0  0  0  0
  -17.4203  -26.6678   21.4032 H   0  0  0  0  0  0
  -18.0334  -26.0082   22.9031 H   0  0  0  0  0  0
  -19.7920  -30.7272   24.2299 H   0  0  0  0  0  0
  -17.4996  -31.6272   24.5155 H   0  0  0  0  0  0
  -15.5346  -30.2993   23.7629 H   0  0  0  0  0  0
  -15.8675  -28.0838   22.7035 H   0  0  0  0  0  0
  -24.5890  -30.7076   25.7806 H   0  0  0  0  0  0
  -24.8894  -32.2883   26.4915 H   0  0  0  0  0  0
  -25.8037  -30.8897   27.0251 H   0  0  0  0  0  0
  -26.2844  -29.6839   24.1130 H   0  0  0  0  0  0
  -27.4016  -29.7265   25.4583 H   0  0  0  0  0  0
  -27.8696  -30.4383   23.9307 H   0  0  0  0  0  0
  -27.2733  -33.3611   26.2092 H   0  0  0  0  0  0
  -28.3867  -32.6828   25.0308 H   0  0  0  0  0  0
  -28.0733  -31.8395   26.5394 H   0  0  0  0  0  0
  -28.2605  -38.0111   24.7509 H   0  0  0  0  0  0
  -28.1078  -36.2645   24.6288 H   0  0  0  0  0  0
  -27.2303  -37.1466   25.8865 H   0  0  0  0  0  0
  -20.9309  -29.8785   21.6958 H   0  0  0  0  0  0
  -26.0193  -38.2879   24.1402 H   0  0  0  0  0  0
  -27.9214  -22.6311   20.2046 H   0  0  0  0  0  0
  -30.2143  -24.4701   19.9792 H   0  0  0  0  0  0
  -29.5587  -24.5767   21.6021 H   0  0  0  0  0  0
  -31.0059  -19.4675   20.4122 H   0  0  0  0  0  0
  -30.5600  -19.5456   22.0965 H   0  0  0  0  0  0
  -29.2205  -17.7802   19.9819 H   0  0  0  0  0  0
  -28.6993  -17.8744   21.6444 H   0  0  0  0  0  0
  -28.2895  -20.4141   21.4597 H   0  0  0  0  0  0
  -28.7289  -20.3284   19.7702 H   0  0  0  0  0  0
  -30.8759  -16.9475   22.4301 H   0  0  0  0  0  0
  -31.5004  -16.9865   20.8064 H   0  0  0  0  0  0
  -27.2733  -24.9343   20.6321 H   0  0  0  0  0  0
  -27.9622  -24.9423   19.0140 H   0  0  0  0  0  0
  -29.1547  -15.2559   21.5713 H   0  0  0  0  0  0
  1 25  1  0  0  0
  1 30  2  0  0  0
  1 79  1  0  0  0
  2  3  1  0  0  0
  2 25  1  0  0  0
  2 80  1  0  0  0
  2 81  1  0  0  0
  3  4  1  0  0  0
  3 82  1  0  0  0
  3 83  1  0  0  0
  4  5  1  0  0  0
  4 84  1  0  0  0
  4 85  1  0  0  0
  5  6  1  0  0  0
  5 26  1  0  0  0
  5 86  1  0  0  0
  6 25  1  0  0  0
  6 87  1  0  0  0
  6 88  1  0  0  0
  7  8  2  0  0  0
  7 26  1  0  0  0
  7 29  1  0  0  0
  8  9  1  0  0  0
  8 22  1  0  0  0
  9 10  1  0  0  0
  9 27  2  0  0  0
 10 11  2  0  0  0
 10 15  1  0  0  0
 11 12  1  0  0  0
 11 89  1  0  0  0
 12 13  2  0  0  0
 12 90  1  0  0  0
 13 14  1  0  0  0
 13 31  1  0  0  0
 14 15  2  0  0  0
 14 91  1  0  0  0
 15 92  1  0  0  0
 16 17  2  0  0  0
 16 21  1  0  0  0
 16 31  1  0  0  0
 17 18  1  0  0  0
 17 93  1  0  0  0
 18 19  2  0  0  0
 18 94  1  0  0  0
 19 20  1  0  0  0
 19 24  1  0  0  0
 20 21  2  0  0  0
 20 95  1  0  0  0
 21 23  1  0  0  0
 22 28  1  0  0  0
 22 32  2  0  0  0
 26 27  1  0  0  0
 28 96  1  0  0  0
 28 97  1  0  0  0
 29 98  1  0  0  0
 29 99  1  0  0  0
 33 34  1  0  0  0
 33 66  1  0  0  0
 33 70  2  0  0  0
 34 36  1  0  0  0
 34 59  1  0  0  0
 34100  1  0  0  0
 35 44  2  0  0  0
 35 45  1  0  0  0
 35 68  1  0  0  0
 36 56  1  0  0  0
 36101  1  0  0  0
 37 39  1  0  0  0
 37 47  1  0  0  0
 37 66  1  0  0  0
 37102  1  0  0  0
 38 43  2  0  0  0
 38 46  1  0  0  0
 38 47  1  0  0  0
 39 64  1  0  0  0
 39 67  2  0  0  0
 40 52  1  0  0  0
 40 53  2  0  0  0
 40 58  1  0  0  0
 41103  1  0  0  0
 41104  1  0  0  0
 41105  1  0  0  0
 41 48  1  0  0  0
 42 43  1  0  0  0
 42 66  1  0  0  0
 42106  1  0  0  0
 42107  1  0  0  0
 43 44  1  0  0  0
 44108  1  0  0  0
 45 46  2  0  0  0
 45109  1  0  0  0
 46110  1  0  0  0
 47111  1  0  0  0
 47112  1  0  0  0
 48 56  1  0  0  0
 48 65  1  0  0  0
 48113  1  0  0  0
 49 50  1  0  0  0
 49 53  1  0  0  0
 49 64  1  0  0  0
 49114  1  0  0  0
 50 51  1  0  0  0
 50115  1  0  0  0
 50116  1  0  0  0
 51 52  1  0  0  0
 51117  1  0  0  0
 51118  1  0  0  0
 52119  1  0  0  0
 52120  1  0  0  0
 53 54  1  0  0  0
 54 55  2  0  0  0
 54121  1  0  0  0
 55 57  1  0  0  0
 55122  1  0  0  0
 56 69  2  0  0  0
 57 58  2  0  0  0
 57123  1  0  0  0
 58124  1  0  0  0
 59 60  1  0  0  0
 59 61  1  0  0  0
 59 62  1  0  0  0
 60125  1  0  0  0
 60126  1  0  0  0
 60127  1  0  0  0
 61128  1  0  0  0
 61129  1  0  0  0
 61130  1  0  0  0
 62131  1  0  0  0
 62132  1  0  0  0
 62133  1  0  0  0
 63 65  1  0  0  0
 63134  1  0  0  0
 63135  1  0  0  0
 63136  1  0  0  0
 64137  1  0  0  0
 65138  1  0  0  0
 68 77  1  0  0  0
 71 72  1  0  0  0
 71 78  2  0  0  0
 71139  1  0  0  0
 72 77  1  0  0  0
 72140  1  0  0  0
 72141  1  0  0  0
 73 74  1  0  0  0
 73 75  1  0  0  0
 73142  1  0  0  0
 73143  1  0  0  0
 74 76  1  0  0  0
 74144  1  0  0  0
 74145  1  0  0  0
 75 78  1  0  0  0
 75146  1  0  0  0
 75147  1  0  0  0
 76 79  1  0  0  0
 76148  1  0  0  0
 76149  1  0  0  0
 77150  1  0  0  0
 77151  1  0  0  0
 79152  1  0  0  0
M  ISO  4   1 100  68 101  77 101  79 100
M  END
> <chiral flag>
0

> <version>
0

> <s_m_source_file>
/data/baiqing/PycharmProjects/Reinvent-master-3.2/result/LINK_invent/BTK/process_docking_weight1_custom_sum_contain_oxygen_bond_distance_aromatic_linkinvent_7_9_3/rearranged_h_0003.sdf

> <i_m_source_file_index>
73

> <r_mmod_Potential_Energy-OPLS-2005>
-113.084083557129

> <r_mmod_Stretch_Energy-OPLS-2005>
39.5323905944824

> <r_mmod_Bend_Energy-OPLS-2005>
91.4605255126953

> <r_mmod_Torsional_Energy-OPLS-2005>
189.807174682617

> <r_mmod_Improper_Torsional_Energy-OPLS-2005>
2.61740064620972

> <r_mmod_Van_der_Waal_Energy-OPLS-2005>
142.338439941406

> <r_mmod_Electrostatic_Energy-OPLS-2005>
-371.947906494141

> <r_mmod_Solvation_Energy-OPLS-2005>
-221.947723388672

> <b_mmod_Minimization_Converged-OPLS-2005>
0

> <r_mmod_RMS_Derivative-OPLS-2005>
1.30731296539307

$$$$
74
                    3D
 Structure written by MMmdl.
174182  0  0  1  0            999 V2000
  -30.6731  -14.4775   20.4678 C   0  0  0  0  0  0
  -30.4324  -12.2751   19.4317 C   0  0  0  0  0  0
  -29.5058  -12.4259   18.2062 C   0  0  0  0  0  0
  -28.0173  -12.3455   18.6133 C   0  0  0  0  0  0
  -27.6596  -13.1950   19.8641 C   0  0  2  0  0  0
  -28.7049  -13.0038   20.9865 C   0  0  0  0  0  0
  -25.2602  -13.8129   20.5671 C   0  0  0  0  0  0
  -24.1833  -13.0435   20.9186 C   0  0  0  0  0  0
  -24.6366  -11.6894   20.8720 C   0  0  0  0  0  0
  -23.9029  -10.4295   21.0408 C   0  0  0  0  0  0
  -24.3600   -9.4214   21.9174 C   0  0  0  0  0  0
  -23.6296   -8.2235   22.0734 C   0  0  0  0  0  0
  -22.4265   -8.0264   21.3539 C   0  0  0  0  0  0
  -21.9904   -9.0232   20.4639 C   0  0  0  0  0  0
  -22.7210  -10.2126   20.3057 C   0  0  0  0  0  0
  -21.6853   -6.0736   22.5277 C   0  0  0  0  0  0
  -21.3999   -6.5635   23.8212 C   0  0  0  0  0  0
  -21.3667   -5.6783   24.9173 C   0  0  0  0  0  0
  -21.6059   -4.3046   24.7223 C   0  0  0  0  0  0
  -21.8819   -3.8146   23.4339 C   0  0  0  0  0  0
  -21.9195   -4.6967   22.3398 C   0  0  0  0  0  0
  -22.7866  -13.5248   21.1857 C   0  0  0  0  0  0
  -22.1666   -4.2161   21.0971 F   0  0  0  0  0  0
  -21.5654   -3.4525   25.7737 F   0  0  0  0  0  0
  -30.0345  -13.2827   20.4234 N   0  0  0  0  0  0
  -26.3012  -12.9260   20.3326 N   0  0  0  0  0  0
  -25.9290  -11.6443   20.5751 N   0  0  0  0  0  0
  -22.0501  -12.8237   22.0406 N   0  0  0  0  0  0
  -25.4399  -15.1830   20.4030 N   0  0  0  0  0  0
  -31.8523  -14.6341   20.1396 O   0  0  0  0  0  0
  -21.6635   -6.8864   21.4230 O   0  0  0  0  0  0
  -22.3564  -14.5570   20.6727 O   0  0  0  0  0  0
  -24.6088  -31.8691   23.2146 C   0  0  0  0  0  0
  -25.9006  -32.4829   23.8426 C   0  0  1  0  0  0
  -27.2375  -27.4852   20.0855 C   0  0  0  0  0  0
  -25.5879  -33.8625   24.2354 N   0  0  0  0  0  0
  -23.3980  -30.4921   21.5503 C   0  0  2  0  0  0
  -24.8478  -28.9665   20.1092 C   0  0  0  0  0  0
  -22.7401  -29.4651   22.4988 C   0  0  0  0  0  0
  -18.0273  -28.1395   22.8492 C   0  0  0  0  0  0
  -24.1488  -36.7318   23.2639 C   0  0  0  0  0  0
  -25.9200  -30.8515   21.3629 C   0  0  0  0  0  0
  -26.0014  -29.4892   20.7100 C   0  0  0  0  0  0
  -27.2002  -28.7500   20.7040 C   0  0  0  0  0  0
  -26.0765  -26.9621   19.4837 C   0  0  0  0  0  0
  -24.8784  -27.7011   19.4933 C   0  0  0  0  0  0
  -23.6067  -29.8254   20.1625 C   0  0  0  0  0  0
  -25.4100  -36.3111   24.0346 C   0  0  1  0  0  0
  -20.5863  -28.3668   23.1330 C   0  0  2  0  0  0
  -20.6755  -26.9405   22.5425 C   0  0  0  0  0  0
  -19.5730  -26.6400   21.5215 C   0  0  0  0  0  0
  -18.1917  -26.7941   22.1625 C   0  0  0  0  0  0
  -19.1530  -28.8845   23.2916 C   0  0  0  0  0  0
  -18.9447  -30.1451   23.8922 C   0  0  0  0  0  0
  -17.6451  -30.6590   24.0580 C   0  0  0  0  0  0
  -25.9006  -34.9468   23.5144 C   0  0  0  0  0  0
  -16.5340  -29.9099   23.6325 C   0  0  0  0  0  0
  -16.7265  -28.6523   23.0335 C   0  0  0  0  0  0
  -26.4467  -31.6583   25.0725 C   0  0  0  0  0  0
  -25.3761  -31.3660   26.1496 C   0  0  0  0  0  0
  -27.0293  -30.3035   24.6052 C   0  0  0  0  0  0
  -27.6055  -32.4296   25.7479 C   0  0  0  0  0  0
  -27.5580  -37.1813   24.8464 C   0  0  0  0  0  0
  -21.4131  -29.3024   22.3739 N   0  0  0  0  0  0
  -26.4292  -37.3787   23.9410 N   0  0  0  0  0  0
  -24.6597  -31.0848   22.1011 N   0  0  0  0  0  0
  -23.4194  -28.8171   23.2996 O   0  0  0  0  0  0
  -28.3792  -26.7335   20.1001 O   0  0  0  0  0  0
  -26.5581  -34.8910   22.4704 O   0  0  0  0  0  0
  -23.5294  -32.1407   23.7566 O   0  0  0  0  0  0
  -29.4637  -17.2329   17.2915 C   0  0  0  0  0  0
  -29.4153  -16.2638   18.3089 C   0  0  0  0  0  0
  -29.8636  -18.5438   17.6020 C   0  0  0  0  0  0
  -30.1691  -17.8993   19.9495 C   0  0  0  0  0  0
  -29.8215  -16.5685   19.6295 C   0  0  0  0  0  0
  -30.1697  -18.8841   18.9339 C   0  0  0  0  0  0
  -26.4357  -22.2172   21.1196 C   0  0  0  0  0  0
  -25.0229  -22.2638   20.5329 C   0  0  0  0  0  0
  -24.9643  -22.5115   19.0030 C   0  0  0  0  0  0
  -25.9871  -21.7393   18.1378 C   0  0  0  0  0  0
  -27.2695  -22.5474   17.8422 C   0  0  0  0  0  0
  -29.0470  -24.6200   21.0736 C   0  0  0  0  0  0
  -28.5383  -21.6853   17.7536 C   0  0  0  0  0  0
  -28.3563  -23.5635   21.9562 C   0  0  0  0  0  0
  -28.5481  -26.0485   21.3375 C   0  0  0  0  0  0
  -29.8579  -15.5383   20.6143 N   0  0  0  0  0  0
  -26.9635  -23.3706   21.5460 N   0  0  0  0  0  0
  -29.0686  -21.4135   19.0965 N   0  0  0  0  0  0
  -27.0495  -21.1484   21.1523 O   0  0  0  0  0  0
  -30.8727  -20.6999   20.7614 O   0  0  0  0  0  0
  -31.5036  -21.1184   18.3302 O   0  0  0  0  0  0
  -30.5582  -20.5899   19.3284 S   0  0  0  0  0  0
  -31.4767  -12.3790   19.1282 H   0  0  0  0  0  0
  -30.3453  -11.2773   19.8603 H   0  0  0  0  0  0
  -29.7297  -11.6470   17.4759 H   0  0  0  0  0  0
  -29.7170  -13.3581   17.6889 H   0  0  0  0  0  0
  -27.7876  -11.2958   18.8035 H   0  0  0  0  0  0
  -27.3843  -12.6397   17.7752 H   0  0  0  0  0  0
  -27.6875  -14.2363   19.5485 H   0  0  0  0  0  0
  -28.6757  -11.9830   21.3691 H   0  0  0  0  0  0
  -28.4851  -13.6493   21.8389 H   0  0  0  0  0  0
  -25.2763   -9.5711   22.4716 H   0  0  0  0  0  0
  -24.0051   -7.4626   22.7429 H   0  0  0  0  0  0
  -21.0856   -8.8727   19.8934 H   0  0  0  0  0  0
  -22.3666  -10.9649   19.6154 H   0  0  0  0  0  0
  -21.1950   -7.6135   23.9721 H   0  0  0  0  0  0
  -21.1508   -6.0504   25.9083 H   0  0  0  0  0  0
  -22.0594   -2.7612   23.2823 H   0  0  0  0  0  0
  -22.4132  -11.9922   22.4831 H   0  0  0  0  0  0
  -21.1110  -13.1251   22.2582 H   0  0  0  0  0  0
  -24.6808  -15.8472   20.4993 H   0  0  0  0  0  0
  -26.2895  -15.6065   20.0539 H   0  0  0  0  0  0
  -26.7090  -32.5594   23.1214 H   0  0  0  0  0  0
  -25.0025  -33.9785   25.0504 H   0  0  0  0  0  0
  -22.6844  -31.3073   21.4134 H   0  0  0  0  0  0
  -23.3729  -35.9675   23.3308 H   0  0  0  0  0  0
  -24.3575  -36.8913   22.2049 H   0  0  0  0  0  0
  -23.7267  -37.6535   23.6643 H   0  0  0  0  0  0
  -26.0280  -31.6223   20.5983 H   0  0  0  0  0  0
  -26.8089  -30.9066   21.9794 H   0  0  0  0  0  0
  -28.0915  -29.1390   21.1773 H   0  0  0  0  0  0
  -26.1026  -25.9839   19.0252 H   0  0  0  0  0  0
  -23.9932  -27.2958   19.0229 H   0  0  0  0  0  0
  -23.7130  -30.6013   19.4034 H   0  0  0  0  0  0
  -22.7347  -29.2403   19.8653 H   0  0  0  0  0  0
  -25.1279  -36.1973   25.0843 H   0  0  0  0  0  0
  -20.9974  -28.3236   24.1443 H   0  0  0  0  0  0
  -20.5657  -26.2265   23.3607 H   0  0  0  0  0  0
  -21.6627  -26.7445   22.1217 H   0  0  0  0  0  0
  -19.6877  -25.6317   21.1226 H   0  0  0  0  0  0
  -19.6672  -27.3224   20.6758 H   0  0  0  0  0  0
  -17.4186  -26.6707   21.4033 H   0  0  0  0  0  0
  -18.0310  -26.0094   22.9028 H   0  0  0  0  0  0
  -19.7922  -30.7282   24.2295 H   0  0  0  0  0  0
  -17.4995  -31.6266   24.5194 H   0  0  0  0  0  0
  -15.5336  -30.3004   23.7629 H   0  0  0  0  0  0
  -15.8670  -28.0854   22.7009 H   0  0  0  0  0  0
  -24.5950  -30.6985   25.7847 H   0  0  0  0  0  0
  -24.8940  -32.2799   26.4970 H   0  0  0  0  0  0
  -25.8145  -30.8830   27.0236 H   0  0  0  0  0  0
  -26.2815  -29.6802   24.1138 H   0  0  0  0  0  0
  -27.4114  -29.7257   25.4474 H   0  0  0  0  0  0
  -27.8629  -30.4359   23.9152 H   0  0  0  0  0  0
  -27.2679  -33.3585   26.2085 H   0  0  0  0  0  0
  -28.3842  -32.6861   25.0289 H   0  0  0  0  0  0
  -28.0752  -31.8408   26.5365 H   0  0  0  0  0  0
  -28.2599  -38.0105   24.7495 H   0  0  0  0  0  0
  -28.1067  -36.2632   24.6303 H   0  0  0  0  0  0
  -27.2298  -37.1494   25.8867 H   0  0  0  0  0  0
  -20.9284  -29.8771   21.6993 H   0  0  0  0  0  0
  -26.0174  -38.2864   24.1403 H   0  0  0  0  0  0
  -29.1960  -16.9654   16.2782 H   0  0  0  0  0  0
  -29.0769  -15.2778   18.0485 H   0  0  0  0  0  0
  -29.9210  -19.2913   16.8250 H   0  0  0  0  0  0
  -30.4466  -18.1675   20.9577 H   0  0  0  0  0  0
  -24.4304  -23.0192   21.0527 H   0  0  0  0  0  0
  -24.5414  -21.3112   20.7606 H   0  0  0  0  0  0
  -25.0337  -23.5798   18.8006 H   0  0  0  0  0  0
  -23.9624  -22.2334   18.6736 H   0  0  0  0  0  0
  -25.5209  -21.4878   17.1832 H   0  0  0  0  0  0
  -26.2190  -20.7790   18.5993 H   0  0  0  0  0  0
  -27.4147  -23.3370   18.5776 H   0  0  0  0  0  0
  -27.1297  -23.0699   16.8949 H   0  0  0  0  0  0
  -28.9031  -24.3599   20.0250 H   0  0  0  0  0  0
  -30.1261  -24.5884   21.2313 H   0  0  0  0  0  0
  -29.3012  -22.2053   17.1729 H   0  0  0  0  0  0
  -28.3151  -20.7565   17.2308 H   0  0  0  0  0  0
  -28.3863  -23.8712   23.0025 H   0  0  0  0  0  0
  -28.9175  -22.6282   21.9006 H   0  0  0  0  0  0
  -29.2553  -26.5909   21.9658 H   0  0  0  0  0  0
  -27.6125  -26.0144   21.9017 H   0  0  0  0  0  0
  -28.9624  -15.3011   21.0133 H   0  0  0  0  0  0
  -26.3780  -24.1932   21.4946 H   0  0  0  0  0  0
  -28.3607  -21.1051   19.7755 H   0  0  0  0  0  0
  1 25  1  0  0  0
  1 30  2  0  0  0
  1 86  1  0  0  0
  2  3  1  0  0  0
  2 25  1  0  0  0
  2 93  1  0  0  0
  2 94  1  0  0  0
  3  4  1  0  0  0
  3 95  1  0  0  0
  3 96  1  0  0  0
  4  5  1  0  0  0
  4 97  1  0  0  0
  4 98  1  0  0  0
  5  6  1  0  0  0
  5 26  1  0  0  0
  5 99  1  0  0  0
  6 25  1  0  0  0
  6100  1  0  0  0
  6101  1  0  0  0
  7  8  2  0  0  0
  7 26  1  0  0  0
  7 29  1  0  0  0
  8  9  1  0  0  0
  8 22  1  0  0  0
  9 10  1  0  0  0
  9 27  2  0  0  0
 10 11  2  0  0  0
 10 15  1  0  0  0
 11 12  1  0  0  0
 11102  1  0  0  0
 12 13  2  0  0  0
 12103  1  0  0  0
 13 14  1  0  0  0
 13 31  1  0  0  0
 14 15  2  0  0  0
 14104  1  0  0  0
 15105  1  0  0  0
 16 17  2  0  0  0
 16 21  1  0  0  0
 16 31  1  0  0  0
 17 18  1  0  0  0
 17106  1  0  0  0
 18 19  2  0  0  0
 18107  1  0  0  0
 19 20  1  0  0  0
 19 24  1  0  0  0
 20 21  2  0  0  0
 20108  1  0  0  0
 21 23  1  0  0  0
 22 28  1  0  0  0
 22 32  2  0  0  0
 26 27  1  0  0  0
 28109  1  0  0  0
 28110  1  0  0  0
 29111  1  0  0  0
 29112  1  0  0  0
 33 34  1  0  0  0
 33 66  1  0  0  0
 33 70  2  0  0  0
 34 36  1  0  0  0
 34 59  1  0  0  0
 34113  1  0  0  0
 35 44  2  0  0  0
 35 45  1  0  0  0
 35 68  1  0  0  0
 36 56  1  0  0  0
 36114  1  0  0  0
 37 39  1  0  0  0
 37 47  1  0  0  0
 37 66  1  0  0  0
 37115  1  0  0  0
 38 43  2  0  0  0
 38 46  1  0  0  0
 38 47  1  0  0  0
 39 64  1  0  0  0
 39 67  2  0  0  0
 40 52  1  0  0  0
 40 53  2  0  0  0
 40 58  1  0  0  0
 41116  1  0  0  0
 41117  1  0  0  0
 41118  1  0  0  0
 41 48  1  0  0  0
 42 43  1  0  0  0
 42 66  1  0  0  0
 42119  1  0  0  0
 42120  1  0  0  0
 43 44  1  0  0  0
 44121  1  0  0  0
 45 46  2  0  0  0
 45122  1  0  0  0
 46123  1  0  0  0
 47124  1  0  0  0
 47125  1  0  0  0
 48 56  1  0  0  0
 48 65  1  0  0  0
 48126  1  0  0  0
 49 50  1  0  0  0
 49 53  1  0  0  0
 49 64  1  0  0  0
 49127  1  0  0  0
 50 51  1  0  0  0
 50128  1  0  0  0
 50129  1  0  0  0
 51 52  1  0  0  0
 51130  1  0  0  0
 51131  1  0  0  0
 52132  1  0  0  0
 52133  1  0  0  0
 53 54  1  0  0  0
 54 55  2  0  0  0
 54134  1  0  0  0
 55 57  1  0  0  0
 55135  1  0  0  0
 56 69  2  0  0  0
 57 58  2  0  0  0
 57136  1  0  0  0
 58137  1  0  0  0
 59 60  1  0  0  0
 59 61  1  0  0  0
 59 62  1  0  0  0
 60138  1  0  0  0
 60139  1  0  0  0
 60140  1  0  0  0
 61141  1  0  0  0
 61142  1  0  0  0
 61143  1  0  0  0
 62144  1  0  0  0
 62145  1  0  0  0
 62146  1  0  0  0
 63 65  1  0  0  0
 63147  1  0  0  0
 63148  1  0  0  0
 63149  1  0  0  0
 64150  1  0  0  0
 65151  1  0  0  0
 68 85  1  0  0  0
 71 72  2  0  0  0
 71 73  1  0  0  0
 71152  1  0  0  0
 72 75  1  0  0  0
 72153  1  0  0  0
 73 76  2  0  0  0
 73154  1  0  0  0
 74 75  2  0  0  0
 74 76  1  0  0  0
 74155  1  0  0  0
 75 86  1  0  0  0
 76 92  1  0  0  0
 77 78  1  0  0  0
 77 87  1  0  0  0
 77 89  2  0  0  0
 78 79  1  0  0  0
 78156  1  0  0  0
 78157  1  0  0  0
 79 80  1  0  0  0
 79158  1  0  0  0
 79159  1  0  0  0
 80 81  1  0  0  0
 80160  1  0  0  0
 80161  1  0  0  0
 81 83  1  0  0  0
 81162  1  0  0  0
 81163  1  0  0  0
 82 84  1  0  0  0
 82 85  1  0  0  0
 82164  1  0  0  0
 82165  1  0  0  0
 83 88  1  0  0  0
 83166  1  0  0  0
 83167  1  0  0  0
 84 87  1  0  0  0
 84168  1  0  0  0
 84169  1  0  0  0
 85170  1  0  0  0
 85171  1  0  0  0
 86172  1  0  0  0
 87173  1  0  0  0
 88174  1  0  0  0
 88 92  1  0  0  0
 90 92  2  0  0  0
 91 92  2  0  0  0
M  ISO  4   1 100  68 101  85 101  86 100
M  END
> <chiral flag>
0

> <version>
0

> <s_m_source_file>
/data/baiqing/PycharmProjects/Reinvent-master-3.2/result/LINK_invent/BTK/process_docking_weight1_custom_sum_contain_oxygen_bond_distance_aromatic_linkinvent_7_9_3/rearranged_h_0003.sdf

> <i_m_source_file_index>
74

> <r_mmod_Potential_Energy-OPLS-2005>
-161.671295166016

> <r_mmod_Stretch_Energy-OPLS-2005>
32.7202262878418

> <r_mmod_Bend_Energy-OPLS-2005>
93.1437072753906

> <r_mmod_Torsional_Energy-OPLS-2005>
323.166137695312

> <r_mmod_Improper_Torsional_Energy-OPLS-2005>
14.0644598007202

> <r_mmod_Van_der_Waal_Energy-OPLS-2005>
130.889114379883

> <r_mmod_Electrostatic_Energy-OPLS-2005>
-509.332794189453

> <r_mmod_Solvation_Energy-OPLS-2005>
-263.042907714844

> <b_mmod_Minimization_Converged-OPLS-2005>
0

> <r_mmod_RMS_Derivative-OPLS-2005>
2.7562689781189

$$$$
75
                    3D
 Structure written by MMmdl.
151159  0  0  1  0            999 V2000
  -30.5144  -14.9178   20.4216 C   0  0  0  0  0  0
  -30.4560  -12.5635   19.4882 C   0  0  0  0  0  0
  -29.5264  -12.5230   18.2513 C   0  0  0  0  0  0
  -28.0577  -12.3107   18.6687 C   0  0  0  0  0  0
  -27.6385  -13.2351   19.8408 C   0  0  2  0  0  0
  -28.6835  -13.2240   20.9781 C   0  0  0  0  0  0
  -25.2517  -13.8197   20.5688 C   0  0  0  0  0  0
  -24.1817  -13.0447   20.9226 C   0  0  0  0  0  0
  -24.6407  -11.6925   20.8751 C   0  0  0  0  0  0
  -23.9077  -10.4301   21.0411 C   0  0  0  0  0  0
  -24.3626   -9.4211   21.9183 C   0  0  0  0  0  0
  -23.6293   -8.2252   22.0756 C   0  0  0  0  0  0
  -22.4274   -8.0294   21.3548 C   0  0  0  0  0  0
  -21.9910   -9.0271   20.4653 C   0  0  0  0  0  0
  -22.7247  -10.2144   20.3061 C   0  0  0  0  0  0
  -21.6856   -6.0735   22.5278 C   0  0  0  0  0  0
  -21.4013   -6.5638   23.8210 C   0  0  0  0  0  0
  -21.3655   -5.6791   24.9175 C   0  0  0  0  0  0
  -21.6042   -4.3053   24.7227 C   0  0  0  0  0  0
  -21.8819   -3.8147   23.4347 C   0  0  0  0  0  0
  -21.9191   -4.6961   22.3399 C   0  0  0  0  0  0
  -22.7834  -13.5231   21.1879 C   0  0  0  0  0  0
  -22.1661   -4.2145   21.0976 F   0  0  0  0  0  0
  -21.5626   -3.4539   25.7741 F   0  0  0  0  0  0
  -29.9688  -13.6382   20.3941 N   0  0  0  0  0  0
  -26.2930  -12.9401   20.3226 N   0  0  0  0  0  0
  -25.9332  -11.6544   20.5721 N   0  0  0  0  0  0
  -22.0471  -12.8227   22.0434 N   0  0  0  0  0  0
  -25.4206  -15.1921   20.4086 N   0  0  0  0  0  0
  -31.7037  -15.0545   20.1122 O   0  0  0  0  0  0
  -21.6645   -6.8885   21.4243 O   0  0  0  0  0  0
  -22.3518  -14.5535   20.6722 O   0  0  0  0  0  0
  -24.6453  -31.8441   23.1886 C   0  0  0  0  0  0
  -25.9228  -32.4687   23.8285 C   0  0  1  0  0  0
  -27.2215  -27.1380   20.1428 C   0  0  0  0  0  0
  -25.5979  -33.8495   24.2202 N   0  0  0  0  0  0
  -23.4494  -30.4652   21.5334 C   0  0  2  0  0  0
  -24.8997  -28.8955   20.1096 C   0  0  0  0  0  0
  -22.7585  -29.4551   22.4839 C   0  0  0  0  0  0
  -18.0323  -28.1388   22.8471 C   0  0  0  0  0  0
  -24.1499  -36.7250   23.2636 C   0  0  0  0  0  0
  -26.0067  -30.7174   21.3895 C   0  0  0  0  0  0
  -26.0784  -29.3297   20.7290 C   0  0  0  0  0  0
  -27.2403  -28.4676   20.7297 C   0  0  0  0  0  0
  -26.0137  -26.8102   19.4837 C   0  0  0  0  0  0
  -24.8804  -27.6480   19.4724 C   0  0  0  0  0  0
  -23.6771  -29.7977   20.1520 C   0  0  0  0  0  0
  -25.4129  -36.3024   24.0310 C   0  0  1  0  0  0
  -20.5936  -28.3723   23.1217 C   0  0  2  0  0  0
  -20.6803  -26.9423   22.5390 C   0  0  0  0  0  0
  -19.5769  -26.6378   21.5203 C   0  0  0  0  0  0
  -18.1958  -26.7921   22.1627 C   0  0  0  0  0  0
  -19.1578  -28.8874   23.2837 C   0  0  0  0  0  0
  -18.9489  -30.1467   23.8864 C   0  0  0  0  0  0
  -17.6484  -30.6578   24.0561 C   0  0  0  0  0  0
  -25.9084  -34.9398   23.5063 C   0  0  0  0  0  0
  -16.5378  -29.9071   23.6329 C   0  0  0  0  0  0
  -16.7306  -28.6494   23.0344 C   0  0  0  0  0  0
  -26.4542  -31.6547   25.0722 C   0  0  0  0  0  0
  -25.3735  -31.3761   26.1429 C   0  0  0  0  0  0
  -27.0384  -30.2926   24.6319 C   0  0  0  0  0  0
  -27.6082  -32.4303   25.7506 C   0  0  0  0  0  0
  -27.5571  -37.1794   24.8473 C   0  0  0  0  0  0
  -21.4276  -29.3050   22.3584 N   0  0  0  0  0  0
  -26.4295  -37.3731   23.9395 N   0  0  0  0  0  0
  -24.7201  -31.0306   22.0916 N   0  0  0  0  0  0
  -23.4223  -28.8097   23.2992 O   0  0  0  0  0  0
  -28.2633  -26.1376   20.2110 O   0  0  0  0  0  0
  -26.5658  -34.8894   22.4634 O   0  0  0  0  0  0
  -23.5572  -32.1322   23.7099 O   0  0  0  0  0  0
  -30.5010  -18.5328   20.1498 C   0  0  0  0  0  0
  -30.2088  -19.9711   20.0805 C   0  0  0  0  0  0
  -28.2809  -18.1368   20.8248 C   0  0  0  0  0  0
  -27.9796  -19.5497   20.7531 C   0  0  0  0  0  0
  -29.5385  -17.5266   20.5263 C   0  0  0  0  0  0
  -28.9240  -20.5643   20.3727 C   0  0  0  0  0  0
  -28.9212  -23.3481   20.2721 C   0  0  0  0  0  0
  -26.5588  -19.9644   21.1017 C   0  0  0  0  0  0
  -27.9030  -24.6331   20.0204 C   0  0  0  0  0  0
  -28.4403  -22.0162   20.2307 N   0  0  0  0  0  0
  -29.6325  -16.0010   20.6400 N   0  0  0  0  0  0
  -30.1160  -23.5721   20.4861 O   0  0  0  0  0  0
  -31.4858  -12.7382   19.1738 H   0  0  0  0  0  0
  -30.4598  -11.6021   20.0044 H   0  0  0  0  0  0
  -29.8392  -11.7314   17.5690 H   0  0  0  0  0  0
  -29.6159  -13.4575   17.6962 H   0  0  0  0  0  0
  -27.9498  -11.2672   18.9676 H   0  0  0  0  0  0
  -27.3954  -12.4519   17.8138 H   0  0  0  0  0  0
  -27.6115  -14.2425   19.4245 H   0  0  0  0  0  0
  -28.7614  -12.2332   21.4284 H   0  0  0  0  0  0
  -28.3849  -13.9001   21.7808 H   0  0  0  0  0  0
  -25.2769   -9.5681   22.4759 H   0  0  0  0  0  0
  -23.9997   -7.4639   22.7478 H   0  0  0  0  0  0
  -21.0831   -8.8796   19.8962 H   0  0  0  0  0  0
  -22.3704  -10.9687   19.6177 H   0  0  0  0  0  0
  -21.2010   -7.6146   23.9710 H   0  0  0  0  0  0
  -21.1472   -6.0525   25.9072 H   0  0  0  0  0  0
  -22.0599   -2.7611   23.2855 H   0  0  0  0  0  0
  -22.4081  -11.9890   22.4828 H   0  0  0  0  0  0
  -21.1089  -13.1261   22.2637 H   0  0  0  0  0  0
  -24.6472  -15.8400   20.5114 H   0  0  0  0  0  0
  -26.2404  -15.6209   20.0005 H   0  0  0  0  0  0
  -26.7297  -32.5292   23.1019 H   0  0  0  0  0  0
  -25.0120  -33.9613   25.0345 H   0  0  0  0  0  0
  -22.7525  -31.2914   21.3793 H   0  0  0  0  0  0
  -23.3744  -35.9602   23.3325 H   0  0  0  0  0  0
  -24.3579  -36.8847   22.2044 H   0  0  0  0  0  0
  -23.7285  -37.6470   23.6650 H   0  0  0  0  0  0
  -26.1686  -31.4734   20.6200 H   0  0  0  0  0  0
  -26.8745  -30.7635   22.0355 H   0  0  0  0  0  0
  -28.1362  -28.7953   21.2380 H   0  0  0  0  0  0
  -25.9003  -25.8626   18.9816 H   0  0  0  0  0  0
  -23.9828  -27.3108   18.9725 H   0  0  0  0  0  0
  -23.8161  -30.5734   19.3977 H   0  0  0  0  0  0
  -22.7919  -29.2419   19.8383 H   0  0  0  0  0  0
  -25.1318  -36.1855   25.0801 H   0  0  0  0  0  0
  -21.0043  -28.3318   24.1332 H   0  0  0  0  0  0
  -20.5693  -26.2339   23.3614 H   0  0  0  0  0  0
  -21.6668  -26.7416   22.1188 H   0  0  0  0  0  0
  -19.6929  -25.6287   21.1238 H   0  0  0  0  0  0
  -19.6689  -27.3181   20.6725 H   0  0  0  0  0  0
  -17.4218  -26.6651   21.4045 H   0  0  0  0  0  0
  -18.0374  -26.0073   22.9037 H   0  0  0  0  0  0
  -19.7967  -30.7295   24.2214 H   0  0  0  0  0  0
  -17.5035  -31.6252   24.5173 H   0  0  0  0  0  0
  -15.5375  -30.2959   23.7666 H   0  0  0  0  0  0
  -15.8712  -28.0804   22.7059 H   0  0  0  0  0  0
  -24.5883  -30.7142   25.7758 H   0  0  0  0  0  0
  -24.8970  -32.2956   26.4835 H   0  0  0  0  0  0
  -25.8020  -30.8936   27.0222 H   0  0  0  0  0  0
  -26.2991  -29.6660   24.1314 H   0  0  0  0  0  0
  -27.3953  -29.7222   25.4906 H   0  0  0  0  0  0
  -27.8930  -30.4126   23.9657 H   0  0  0  0  0  0
  -27.2674  -33.3600   26.2076 H   0  0  0  0  0  0
  -28.3903  -32.6870   25.0347 H   0  0  0  0  0  0
  -28.0742  -31.8436   26.5435 H   0  0  0  0  0  0
  -28.2618  -38.0057   24.7456 H   0  0  0  0  0  0
  -28.1037  -36.2588   24.6381 H   0  0  0  0  0  0
  -27.2280  -37.1537   25.8875 H   0  0  0  0  0  0
  -20.9488  -29.8769   21.6764 H   0  0  0  0  0  0
  -26.0161  -38.2807   24.1355 H   0  0  0  0  0  0
  -31.4990  -18.2091   19.8898 H   0  0  0  0  0  0
  -31.0046  -20.6281   19.7592 H   0  0  0  0  0  0
  -27.4782  -17.4766   21.1222 H   0  0  0  0  0  0
  -26.0229  -19.1654   21.6150 H   0  0  0  0  0  0
  -26.0022  -20.2111   20.1976 H   0  0  0  0  0  0
  -26.5511  -20.8296   21.7648 H   0  0  0  0  0  0
  -27.0215  -24.4334   20.6310 H   0  0  0  0  0  0
  -27.5869  -24.5146   18.9844 H   0  0  0  0  0  0
  -27.4372  -22.0463   20.1106 H   0  0  0  0  0  0
  -28.7418  -15.6070   20.9001 H   0  0  0  0  0  0
  1 25  1  0  0  0
  1 30  2  0  0  0
  1 81  1  0  0  0
  2  3  1  0  0  0
  2 25  1  0  0  0
  2 83  1  0  0  0
  2 84  1  0  0  0
  3  4  1  0  0  0
  3 85  1  0  0  0
  3 86  1  0  0  0
  4  5  1  0  0  0
  4 87  1  0  0  0
  4 88  1  0  0  0
  5  6  1  0  0  0
  5 26  1  0  0  0
  5 89  1  0  0  0
  6 25  1  0  0  0
  6 90  1  0  0  0
  6 91  1  0  0  0
  7  8  2  0  0  0
  7 26  1  0  0  0
  7 29  1  0  0  0
  8  9  1  0  0  0
  8 22  1  0  0  0
  9 10  1  0  0  0
  9 27  2  0  0  0
 10 11  2  0  0  0
 10 15  1  0  0  0
 11 12  1  0  0  0
 11 92  1  0  0  0
 12 13  2  0  0  0
 12 93  1  0  0  0
 13 14  1  0  0  0
 13 31  1  0  0  0
 14 15  2  0  0  0
 14 94  1  0  0  0
 15 95  1  0  0  0
 16 17  2  0  0  0
 16 21  1  0  0  0
 16 31  1  0  0  0
 17 18  1  0  0  0
 17 96  1  0  0  0
 18 19  2  0  0  0
 18 97  1  0  0  0
 19 20  1  0  0  0
 19 24  1  0  0  0
 20 21  2  0  0  0
 20 98  1  0  0  0
 21 23  1  0  0  0
 22 28  1  0  0  0
 22 32  2  0  0  0
 26 27  1  0  0  0
 28 99  1  0  0  0
 28100  1  0  0  0
 29101  1  0  0  0
 29102  1  0  0  0
 33 34  1  0  0  0
 33 66  1  0  0  0
 33 70  2  0  0  0
 34 36  1  0  0  0
 34 59  1  0  0  0
 34103  1  0  0  0
 35 44  2  0  0  0
 35 45  1  0  0  0
 35 68  1  0  0  0
 36 56  1  0  0  0
 36104  1  0  0  0
 37 39  1  0  0  0
 37 47  1  0  0  0
 37 66  1  0  0  0
 37105  1  0  0  0
 38 43  2  0  0  0
 38 46  1  0  0  0
 38 47  1  0  0  0
 39 64  1  0  0  0
 39 67  2  0  0  0
 40 52  1  0  0  0
 40 53  2  0  0  0
 40 58  1  0  0  0
 41106  1  0  0  0
 41107  1  0  0  0
 41108  1  0  0  0
 41 48  1  0  0  0
 42 43  1  0  0  0
 42 66  1  0  0  0
 42109  1  0  0  0
 42110  1  0  0  0
 43 44  1  0  0  0
 44111  1  0  0  0
 45 46  2  0  0  0
 45112  1  0  0  0
 46113  1  0  0  0
 47114  1  0  0  0
 47115  1  0  0  0
 48 56  1  0  0  0
 48 65  1  0  0  0
 48116  1  0  0  0
 49 50  1  0  0  0
 49 53  1  0  0  0
 49 64  1  0  0  0
 49117  1  0  0  0
 50 51  1  0  0  0
 50118  1  0  0  0
 50119  1  0  0  0
 51 52  1  0  0  0
 51120  1  0  0  0
 51121  1  0  0  0
 52122  1  0  0  0
 52123  1  0  0  0
 53 54  1  0  0  0
 54 55  2  0  0  0
 54124  1  0  0  0
 55 57  1  0  0  0
 55125  1  0  0  0
 56 69  2  0  0  0
 57 58  2  0  0  0
 57126  1  0  0  0
 58127  1  0  0  0
 59 60  1  0  0  0
 59 61  1  0  0  0
 59 62  1  0  0  0
 60128  1  0  0  0
 60129  1  0  0  0
 60130  1  0  0  0
 61131  1  0  0  0
 61132  1  0  0  0
 61133  1  0  0  0
 62134  1  0  0  0
 62135  1  0  0  0
 62136  1  0  0  0
 63 65  1  0  0  0
 63137  1  0  0  0
 63138  1  0  0  0
 63139  1  0  0  0
 64140  1  0  0  0
 65141  1  0  0  0
 68 79  1  0  0  0
 71 72  2  0  0  0
 71 75  1  0  0  0
 71142  1  0  0  0
 72 76  1  0  0  0
 72143  1  0  0  0
 73 74  1  0  0  0
 73 75  2  0  0  0
 73144  1  0  0  0
 74 76  2  0  0  0
 74 78  1  0  0  0
 75 81  1  0  0  0
 76 80  1  0  0  0
 77 79  1  0  0  0
 77 80  1  0  0  0
 77 82  2  0  0  0
 78145  1  0  0  0
 78146  1  0  0  0
 78147  1  0  0  0
 79148  1  0  0  0
 79149  1  0  0  0
 80150  1  0  0  0
 81151  1  0  0  0
M  ISO  4   1 100  68 101  79 101  81 100
M  END
> <chiral flag>
0

> <version>
0

> <s_m_source_file>
/data/baiqing/PycharmProjects/Reinvent-master-3.2/result/LINK_invent/BTK/process_docking_weight1_custom_sum_contain_oxygen_bond_distance_aromatic_linkinvent_7_9_3/rearranged_h_0003.sdf

> <i_m_source_file_index>
75

> <r_mmod_Potential_Energy-OPLS-2005>
406.607940673828

> <r_mmod_Stretch_Energy-OPLS-2005>
220.072738647461

> <r_mmod_Bend_Energy-OPLS-2005>
280.334228515625

> <r_mmod_Torsional_Energy-OPLS-2005>
222.647247314453

> <r_mmod_Improper_Torsional_Energy-OPLS-2005>
4.48283672332764

> <r_mmod_Van_der_Waal_Energy-OPLS-2005>
131.61994934082

> <r_mmod_Electrostatic_Energy-OPLS-2005>
-387.265258789062

> <r_mmod_Solvation_Energy-OPLS-2005>
-249.595458984375

> <b_mmod_Minimization_Converged-OPLS-2005>
0

> <r_mmod_RMS_Derivative-OPLS-2005>
1.20512986183167

$$$$
77
                    3D
 Structure written by MMmdl.
159166  0  0  1  0            999 V2000
  -30.7505  -14.3795   20.6543 C   0  0  0  0  0  0
  -30.4176  -12.2788   19.4154 C   0  0  0  0  0  0
  -29.4999  -12.5227   18.2024 C   0  0  0  0  0  0
  -28.0166  -12.3912   18.6058 C   0  0  0  0  0  0
  -27.6673  -13.2068   19.8796 C   0  0  2  0  0  0
  -28.6997  -12.9549   21.0015 C   0  0  0  0  0  0
  -25.2610  -13.8169   20.5649 C   0  0  0  0  0  0
  -24.1845  -13.0464   20.9122 C   0  0  0  0  0  0
  -24.6384  -11.6924   20.8684 C   0  0  0  0  0  0
  -23.9049  -10.4310   21.0387 C   0  0  0  0  0  0
  -24.3613   -9.4237   21.9170 C   0  0  0  0  0  0
  -23.6278   -8.2276   22.0751 C   0  0  0  0  0  0
  -22.4260   -8.0296   21.3541 C   0  0  0  0  0  0
  -21.9892   -9.0270   20.4648 C   0  0  0  0  0  0
  -22.7220  -10.2142   20.3050 C   0  0  0  0  0  0
  -21.6864   -6.0734   22.5280 C   0  0  0  0  0  0
  -21.4027   -6.5642   23.8215 C   0  0  0  0  0  0
  -21.3656   -5.6789   24.9177 C   0  0  0  0  0  0
  -21.6037   -4.3050   24.7224 C   0  0  0  0  0  0
  -21.8822   -3.8140   23.4346 C   0  0  0  0  0  0
  -21.9191   -4.6957   22.3402 C   0  0  0  0  0  0
  -22.7880  -13.5282   21.1800 C   0  0  0  0  0  0
  -22.1660   -4.2141   21.0981 F   0  0  0  0  0  0
  -21.5627   -3.4537   25.7741 F   0  0  0  0  0  0
  -30.0442  -13.2380   20.4653 N   0  0  0  0  0  0
  -26.3041  -12.9338   20.3336 N   0  0  0  0  0  0
  -25.9305  -11.6490   20.5712 N   0  0  0  0  0  0
  -22.0495  -12.8288   22.0362 N   0  0  0  0  0  0
  -25.4361  -15.1885   20.4108 N   0  0  0  0  0  0
  -31.8032  -14.6347   20.0597 O   0  0  0  0  0  0
  -21.6639   -6.8878   21.4241 O   0  0  0  0  0  0
  -22.3580  -14.5590   20.6645 O   0  0  0  0  0  0
  -24.6117  -31.8711   23.2088 C   0  0  0  0  0  0
  -25.9028  -32.4833   23.8377 C   0  0  1  0  0  0
  -27.2276  -27.4680   20.0959 C   0  0  0  0  0  0
  -25.5894  -33.8622   24.2320 N   0  0  0  0  0  0
  -23.3942  -30.4926   21.5500 C   0  0  2  0  0  0
  -24.8400  -28.9606   20.1102 C   0  0  0  0  0  0
  -22.7366  -29.4681   22.5019 C   0  0  0  0  0  0
  -18.0248  -28.1366   22.8484 C   0  0  0  0  0  0
  -24.1486  -36.7333   23.2626 C   0  0  0  0  0  0
  -25.9151  -30.8531   21.3459 C   0  0  0  0  0  0
  -25.9956  -29.4846   20.7053 C   0  0  0  0  0  0
  -27.1934  -28.7418   20.7063 C   0  0  0  0  0  0
  -26.0683  -26.9578   19.4826 C   0  0  0  0  0  0
  -24.8680  -27.6943   19.5006 C   0  0  0  0  0  0
  -23.5958  -29.8184   20.1652 C   0  0  0  0  0  0
  -25.4104  -36.3119   24.0332 C   0  0  1  0  0  0
  -20.5828  -28.3681   23.1347 C   0  0  2  0  0  0
  -20.6755  -26.9418   22.5457 C   0  0  0  0  0  0
  -19.5754  -26.6375   21.5241 C   0  0  0  0  0  0
  -18.1926  -26.7906   22.1637 C   0  0  0  0  0  0
  -19.1487  -28.8836   23.2906 C   0  0  0  0  0  0
  -18.9415  -30.1443   23.8917 C   0  0  0  0  0  0
  -17.6417  -30.6590   24.0546 C   0  0  0  0  0  0
  -25.9038  -34.9482   23.5129 C   0  0  0  0  0  0
  -16.5314  -29.9076   23.6312 C   0  0  0  0  0  0
  -16.7236  -28.6486   23.0347 C   0  0  0  0  0  0
  -26.4466  -31.6595   25.0674 C   0  0  0  0  0  0
  -25.3729  -31.3714   26.1425 C   0  0  0  0  0  0
  -27.0269  -30.3047   24.5971 C   0  0  0  0  0  0
  -27.6060  -32.4280   25.7442 C   0  0  0  0  0  0
  -27.5574  -37.1811   24.8455 C   0  0  0  0  0  0
  -21.4102  -29.3034   22.3747 N   0  0  0  0  0  0
  -26.4290  -37.3800   23.9397 N   0  0  0  0  0  0
  -24.6592  -31.0850   22.0952 N   0  0  0  0  0  0
  -23.4149  -28.8231   23.3060 O   0  0  0  0  0  0
  -28.3614  -26.6986   20.1034 O   0  0  0  0  0  0
  -26.5613  -34.8926   22.4692 O   0  0  0  0  0  0
  -23.5335  -32.1447   23.7529 O   0  0  0  0  0  0
  -28.1873  -21.6836   20.8607 C   0  0  0  0  0  0
  -27.8938  -20.2313   21.2533 C   0  0  0  0  0  0
  -29.1529  -19.4105   21.5871 C   0  0  0  0  0  0
  -28.7973  -18.0626   22.2500 C   0  0  0  0  0  0
  -30.0017  -17.3281   22.8724 C   0  0  0  0  0  0
  -28.9705  -24.8270   21.5405 C   0  0  0  0  0  0
  -30.8529  -16.5211   21.8776 C   0  0  0  0  0  0
  -27.6379  -24.0618   21.4184 C   0  0  0  0  0  0
  -28.8121  -26.3529   21.4146 C   0  0  0  0  0  0
  -27.7598  -22.6316   21.7045 N   0  0  0  0  0  0
  -30.2316  -15.2439   21.5338 N   0  0  0  0  0  0
  -28.7439  -21.9388   19.7922 O   0  0  0  0  0  0
  -31.4690  -12.3547   19.1295 H   0  0  0  0  0  0
  -30.2917  -11.2607   19.7862 H   0  0  0  0  0  0
  -29.7364  -11.8222   17.4012 H   0  0  0  0  0  0
  -29.6891  -13.5192   17.8018 H   0  0  0  0  0  0
  -27.8026  -11.3335   18.7656 H   0  0  0  0  0  0
  -27.3824  -12.7062   17.7771 H   0  0  0  0  0  0
  -27.7246  -14.2618   19.6092 H   0  0  0  0  0  0
  -28.6560  -11.9181   21.3363 H   0  0  0  0  0  0
  -28.4461  -13.5452   21.8821 H   0  0  0  0  0  0
  -25.2768   -9.5721   22.4727 H   0  0  0  0  0  0
  -23.9985   -7.4691   22.7490 H   0  0  0  0  0  0
  -21.0812   -8.8801   19.8962 H   0  0  0  0  0  0
  -22.3686  -10.9680   19.6156 H   0  0  0  0  0  0
  -21.2041   -7.6154   23.9724 H   0  0  0  0  0  0
  -21.1465   -6.0514   25.9076 H   0  0  0  0  0  0
  -22.0590   -2.7596   23.2857 H   0  0  0  0  0  0
  -22.4083  -11.9963   22.4788 H   0  0  0  0  0  0
  -21.1124  -13.1356   22.2563 H   0  0  0  0  0  0
  -24.6755  -15.8487   20.5312 H   0  0  0  0  0  0
  -26.3016  -15.6249   20.1187 H   0  0  0  0  0  0
  -26.7088  -32.5550   23.1152 H   0  0  0  0  0  0
  -25.0000  -33.9793   25.0435 H   0  0  0  0  0  0
  -22.6802  -31.3074   21.4113 H   0  0  0  0  0  0
  -23.3733  -35.9682   23.3310 H   0  0  0  0  0  0
  -24.3572  -36.8933   22.2032 H   0  0  0  0  0  0
  -23.7279  -37.6551   23.6643 H   0  0  0  0  0  0
  -25.9996  -31.6118   20.5660 H   0  0  0  0  0  0
  -26.8151  -30.9297   21.9436 H   0  0  0  0  0  0
  -28.0825  -29.1373   21.1747 H   0  0  0  0  0  0
  -26.0852  -25.9830   19.0130 H   0  0  0  0  0  0
  -23.9744  -27.2853   19.0471 H   0  0  0  0  0  0
  -23.6815  -30.5889   19.3979 H   0  0  0  0  0  0
  -22.7250  -29.2228   19.8830 H   0  0  0  0  0  0
  -25.1280  -36.1975   25.0828 H   0  0  0  0  0  0
  -20.9906  -28.3262   24.1470 H   0  0  0  0  0  0
  -20.5693  -26.2279   23.3646 H   0  0  0  0  0  0
  -21.6640  -26.7492   22.1247 H   0  0  0  0  0  0
  -19.6948  -25.6286   21.1290 H   0  0  0  0  0  0
  -19.6683  -27.3165   20.6760 H   0  0  0  0  0  0
  -17.4190  -26.6579   21.4055 H   0  0  0  0  0  0
  -18.0372  -26.0074   22.9066 H   0  0  0  0  0  0
  -19.7894  -30.7238   24.2320 H   0  0  0  0  0  0
  -17.4965  -31.6289   24.5107 H   0  0  0  0  0  0
  -15.5317  -30.2965   23.7648 H   0  0  0  0  0  0
  -15.8623  -28.0804   22.7070 H   0  0  0  0  0  0
  -24.5904  -30.7067   25.7750 H   0  0  0  0  0  0
  -24.8930  -32.2888   26.4833 H   0  0  0  0  0  0
  -25.8076  -30.8893   27.0192 H   0  0  0  0  0  0
  -26.2780  -29.6837   24.1045 H   0  0  0  0  0  0
  -27.4101  -29.7236   25.4369 H   0  0  0  0  0  0
  -27.8578  -30.4380   23.9042 H   0  0  0  0  0  0
  -27.2697  -33.3557   26.2075 H   0  0  0  0  0  0
  -28.3859  -32.6874   25.0272 H   0  0  0  0  0  0
  -28.0743  -31.8361   26.5317 H   0  0  0  0  0  0
  -28.2611  -38.0085   24.7480 H   0  0  0  0  0  0
  -28.1054  -36.2624   24.6313 H   0  0  0  0  0  0
  -27.2284  -37.1486   25.8854 H   0  0  0  0  0  0
  -20.9283  -29.8696   21.6913 H   0  0  0  0  0  0
  -26.0182  -38.2871   24.1413 H   0  0  0  0  0  0
  -27.3524  -19.7545   20.4340 H   0  0  0  0  0  0
  -27.2130  -20.2236   22.1071 H   0  0  0  0  0  0
  -29.7888  -19.9962   22.2546 H   0  0  0  0  0  0
  -29.7349  -19.2400   20.6805 H   0  0  0  0  0  0
  -28.2762  -17.4184   21.5397 H   0  0  0  0  0  0
  -28.0826  -18.2574   23.0529 H   0  0  0  0  0  0
  -29.6506  -16.6632   23.6620 H   0  0  0  0  0  0
  -30.6387  -18.0539   23.3783 H   0  0  0  0  0  0
  -29.6779  -24.4746   20.7907 H   0  0  0  0  0  0
  -29.4157  -24.6121   22.5131 H   0  0  0  0  0  0
  -31.8282  -16.3123   22.3197 H   0  0  0  0  0  0
  -31.0401  -17.1045   20.9734 H   0  0  0  0  0  0
  -27.2201  -24.1974   20.4202 H   0  0  0  0  0  0
  -26.9033  -24.4780   22.1112 H   0  0  0  0  0  0
  -29.7661  -26.8484   21.5922 H   0  0  0  0  0  0
  -28.1344  -26.6972   22.2007 H   0  0  0  0  0  0
  -27.3618  -22.3111   22.5778 H   0  0  0  0  0  0
  -29.3769  -14.9810   22.0019 H   0  0  0  0  0  0
  1 25  1  0  0  0
  1 30  2  0  0  0
  1 81  1  0  0  0
  2  3  1  0  0  0
  2 25  1  0  0  0
  2 83  1  0  0  0
  2 84  1  0  0  0
  3  4  1  0  0  0
  3 85  1  0  0  0
  3 86  1  0  0  0
  4  5  1  0  0  0
  4 87  1  0  0  0
  4 88  1  0  0  0
  5  6  1  0  0  0
  5 26  1  0  0  0
  5 89  1  0  0  0
  6 25  1  0  0  0
  6 90  1  0  0  0
  6 91  1  0  0  0
  7  8  2  0  0  0
  7 26  1  0  0  0
  7 29  1  0  0  0
  8  9  1  0  0  0
  8 22  1  0  0  0
  9 10  1  0  0  0
  9 27  2  0  0  0
 10 11  2  0  0  0
 10 15  1  0  0  0
 11 12  1  0  0  0
 11 92  1  0  0  0
 12 13  2  0  0  0
 12 93  1  0  0  0
 13 14  1  0  0  0
 13 31  1  0  0  0
 14 15  2  0  0  0
 14 94  1  0  0  0
 15 95  1  0  0  0
 16 17  2  0  0  0
 16 21  1  0  0  0
 16 31  1  0  0  0
 17 18  1  0  0  0
 17 96  1  0  0  0
 18 19  2  0  0  0
 18 97  1  0  0  0
 19 20  1  0  0  0
 19 24  1  0  0  0
 20 21  2  0  0  0
 20 98  1  0  0  0
 21 23  1  0  0  0
 22 28  1  0  0  0
 22 32  2  0  0  0
 26 27  1  0  0  0
 28 99  1  0  0  0
 28100  1  0  0  0
 29101  1  0  0  0
 29102  1  0  0  0
 33 34  1  0  0  0
 33 66  1  0  0  0
 33 70  2  0  0  0
 34 36  1  0  0  0
 34 59  1  0  0  0
 34103  1  0  0  0
 35 44  2  0  0  0
 35 45  1  0  0  0
 35 68  1  0  0  0
 36 56  1  0  0  0
 36104  1  0  0  0
 37 39  1  0  0  0
 37 47  1  0  0  0
 37 66  1  0  0  0
 37105  1  0  0  0
 38 43  2  0  0  0
 38 46  1  0  0  0
 38 47  1  0  0  0
 39 64  1  0  0  0
 39 67  2  0  0  0
 40 52  1  0  0  0
 40 53  2  0  0  0
 40 58  1  0  0  0
 41106  1  0  0  0
 41107  1  0  0  0
 41108  1  0  0  0
 41 48  1  0  0  0
 42 43  1  0  0  0
 42 66  1  0  0  0
 42109  1  0  0  0
 42110  1  0  0  0
 43 44  1  0  0  0
 44111  1  0  0  0
 45 46  2  0  0  0
 45112  1  0  0  0
 46113  1  0  0  0
 47114  1  0  0  0
 47115  1  0  0  0
 48 56  1  0  0  0
 48 65  1  0  0  0
 48116  1  0  0  0
 49 50  1  0  0  0
 49 53  1  0  0  0
 49 64  1  0  0  0
 49117  1  0  0  0
 50 51  1  0  0  0
 50118  1  0  0  0
 50119  1  0  0  0
 51 52  1  0  0  0
 51120  1  0  0  0
 51121  1  0  0  0
 52122  1  0  0  0
 52123  1  0  0  0
 53 54  1  0  0  0
 54 55  2  0  0  0
 54124  1  0  0  0
 55 57  1  0  0  0
 55125  1  0  0  0
 56 69  2  0  0  0
 57 58  2  0  0  0
 57126  1  0  0  0
 58127  1  0  0  0
 59 60  1  0  0  0
 59 61  1  0  0  0
 59 62  1  0  0  0
 60128  1  0  0  0
 60129  1  0  0  0
 60130  1  0  0  0
 61131  1  0  0  0
 61132  1  0  0  0
 61133  1  0  0  0
 62134  1  0  0  0
 62135  1  0  0  0
 62136  1  0  0  0
 63 65  1  0  0  0
 63137  1  0  0  0
 63138  1  0  0  0
 63139  1  0  0  0
 64140  1  0  0  0
 65141  1  0  0  0
 68 79  1  0  0  0
 71 72  1  0  0  0
 71 80  1  0  0  0
 71 82  2  0  0  0
 72 73  1  0  0  0
 72142  1  0  0  0
 72143  1  0  0  0
 73 74  1  0  0  0
 73144  1  0  0  0
 73145  1  0  0  0
 74 75  1  0  0  0
 74146  1  0  0  0
 74147  1  0  0  0
 75 77  1  0  0  0
 75148  1  0  0  0
 75149  1  0  0  0
 76 78  1  0  0  0
 76 79  1  0  0  0
 76150  1  0  0  0
 76151  1  0  0  0
 77 81  1  0  0  0
 77152  1  0  0  0
 77153  1  0  0  0
 78 80  1  0  0  0
 78154  1  0  0  0
 78155  1  0  0  0
 79156  1  0  0  0
 79157  1  0  0  0
 80158  1  0  0  0
 81159  1  0  0  0
M  ISO  4   1 100  68 101  79 101  81 100
M  END
> <chiral flag>
0

> <version>
0

> <s_m_source_file>
/data/baiqing/PycharmProjects/Reinvent-master-3.2/result/LINK_invent/BTK/process_docking_weight1_custom_sum_contain_oxygen_bond_distance_aromatic_linkinvent_7_9_3/rearranged_h_0003.sdf

> <i_m_source_file_index>
76

> <r_mmod_Potential_Energy-OPLS-2005>
-164.543869018555

> <r_mmod_Stretch_Energy-OPLS-2005>
30.5073356628418

> <r_mmod_Bend_Energy-OPLS-2005>
86.4119110107422

> <r_mmod_Torsional_Energy-OPLS-2005>
229.080459594727

> <r_mmod_Improper_Torsional_Energy-OPLS-2005>
2.14310598373413

> <r_mmod_Van_der_Waal_Energy-OPLS-2005>
128.860260009766

> <r_mmod_Electrostatic_Energy-OPLS-2005>
-412.541107177734

> <r_mmod_Solvation_Energy-OPLS-2005>
-236.403961181641

> <b_mmod_Minimization_Converged-OPLS-2005>
0

> <r_mmod_RMS_Derivative-OPLS-2005>
3.46835994720459

$$$$
78
                    3D
 Structure written by MMmdl.
150157  0  0  1  0            999 V2000
  -30.6369  -14.6805   20.4717 C   0  0  0  0  0  0
  -30.4294  -12.4117   19.4745 C   0  0  0  0  0  0
  -29.5097  -12.5032   18.2368 C   0  0  0  0  0  0
  -28.0337  -12.3389   18.6467 C   0  0  0  0  0  0
  -27.6483  -13.2273   19.8599 C   0  0  2  0  0  0
  -28.6916  -13.1319   20.9968 C   0  0  0  0  0  0
  -25.2532  -13.8193   20.5697 C   0  0  0  0  0  0
  -24.1813  -13.0443   20.9200 C   0  0  0  0  0  0
  -24.6397  -11.6918   20.8746 C   0  0  0  0  0  0
  -23.9071  -10.4295   21.0406 C   0  0  0  0  0  0
  -24.3620   -9.4209   21.9184 C   0  0  0  0  0  0
  -23.6295   -8.2245   22.0754 C   0  0  0  0  0  0
  -22.4277   -8.0282   21.3544 C   0  0  0  0  0  0
  -21.9913   -9.0257   20.4646 C   0  0  0  0  0  0
  -22.7242  -10.2136   20.3056 C   0  0  0  0  0  0
  -21.6854   -6.0737   22.5279 C   0  0  0  0  0  0
  -21.4015   -6.5640   23.8212 C   0  0  0  0  0  0
  -21.3660   -5.6793   24.9174 C   0  0  0  0  0  0
  -21.6044   -4.3056   24.7225 C   0  0  0  0  0  0
  -21.8819   -3.8148   23.4346 C   0  0  0  0  0  0
  -21.9193   -4.6964   22.3402 C   0  0  0  0  0  0
  -22.7833  -13.5226   21.1860 C   0  0  0  0  0  0
  -22.1661   -4.2150   21.0979 F   0  0  0  0  0  0
  -21.5629   -3.4539   25.7737 F   0  0  0  0  0  0
  -30.0037  -13.4625   20.4255 N   0  0  0  0  0  0
  -26.2967  -12.9395   20.3318 N   0  0  0  0  0  0
  -25.9329  -11.6539   20.5766 N   0  0  0  0  0  0
  -22.0479  -12.8217   22.0417 N   0  0  0  0  0  0
  -25.4225  -15.1917   20.4112 N   0  0  0  0  0  0
  -31.8073  -14.7912   20.0980 O   0  0  0  0  0  0
  -21.6641   -6.8880   21.4240 O   0  0  0  0  0  0
  -22.3517  -14.5532   20.6707 O   0  0  0  0  0  0
  -24.6288  -31.8584   23.2027 C   0  0  0  0  0  0
  -25.9128  -32.4771   23.8357 C   0  0  1  0  0  0
  -27.2152  -27.2856   20.1186 C   0  0  0  0  0  0
  -25.5935  -33.8573   24.2277 N   0  0  0  0  0  0
  -23.4237  -30.4840   21.5457 C   0  0  2  0  0  0
  -24.8698  -28.9415   20.1070 C   0  0  0  0  0  0
  -22.7490  -29.4618   22.4922 C   0  0  0  0  0  0
  -18.0290  -28.1386   22.8485 C   0  0  0  0  0  0
  -24.1490  -36.7290   23.2638 C   0  0  0  0  0  0
  -25.9691  -30.7766   21.3828 C   0  0  0  0  0  0
  -26.0399  -29.4029   20.7228 C   0  0  0  0  0  0
  -27.2129  -28.5846   20.7252 C   0  0  0  0  0  0
  -26.0276  -26.9052   19.4480 C   0  0  0  0  0  0
  -24.8679  -27.6994   19.4597 C   0  0  0  0  0  0
  -23.6400  -29.8247   20.1591 C   0  0  0  0  0  0
  -25.4116  -36.3079   24.0328 C   0  0  1  0  0  0
  -20.5893  -28.3695   23.1273 C   0  0  2  0  0  0
  -20.6779  -26.9415   22.5407 C   0  0  0  0  0  0
  -19.5753  -26.6384   21.5211 C   0  0  0  0  0  0
  -18.1934  -26.7928   22.1625 C   0  0  0  0  0  0
  -19.1543  -28.8857   23.2875 C   0  0  0  0  0  0
  -18.9464  -30.1458   23.8893 C   0  0  0  0  0  0
  -17.6463  -30.6587   24.0562 C   0  0  0  0  0  0
  -25.9054  -34.9448   23.5102 C   0  0  0  0  0  0
  -16.5355  -29.9085   23.6330 C   0  0  0  0  0  0
  -16.7276  -28.6502   23.0352 C   0  0  0  0  0  0
  -26.4502  -31.6588   25.0737 C   0  0  0  0  0  0
  -25.3726  -31.3733   26.1456 C   0  0  0  0  0  0
  -27.0350  -30.3005   24.6218 C   0  0  0  0  0  0
  -27.6056  -32.4328   25.7509 C   0  0  0  0  0  0
  -27.5579  -37.1803   24.8465 C   0  0  0  0  0  0
  -21.4201  -29.3046   22.3664 N   0  0  0  0  0  0
  -26.4293  -37.3775   23.9407 N   0  0  0  0  0  0
  -24.6926  -31.0570   22.0998 N   0  0  0  0  0  0
  -23.4203  -28.8150   23.3004 O   0  0  0  0  0  0
  -28.3062  -26.3917   20.2050 O   0  0  0  0  0  0
  -26.5622  -34.8917   22.4668 O   0  0  0  0  0  0
  -23.5444  -32.1400   23.7334 O   0  0  0  0  0  0
  -28.9339  -23.8375   20.6096 C   0  0  0  0  0  0
  -28.0864  -24.9506   19.8557 C   0  0  0  0  0  0
  -29.4987  -19.9050   20.1728 C   0  0  0  0  0  0
  -29.5293  -18.4890   20.9417 C   0  0  0  0  0  0
  -29.2213  -21.2595   20.9916 C   0  0  0  0  0  0
  -30.1407  -17.2102   20.1873 C   0  0  0  0  0  0
  -28.8177  -22.5127   20.2369 N   0  0  0  0  0  0
  -29.8729  -15.8049   20.7014 N   0  0  0  0  0  0
  -29.6411  -24.1639   21.5656 O   0  0  0  0  0  0
  -31.4736  -12.5186   19.1757 H   0  0  0  0  0  0
  -30.3534  -11.4276   19.9397 H   0  0  0  0  0  0
  -29.7818  -11.7402   17.5063 H   0  0  0  0  0  0
  -29.6500  -13.4656   17.7420 H   0  0  0  0  0  0
  -27.8779  -11.2884   18.8947 H   0  0  0  0  0  0
  -27.3796  -12.5505   17.8001 H   0  0  0  0  0  0
  -27.6534  -14.2546   19.4953 H   0  0  0  0  0  0
  -28.7077  -12.1288   21.4252 H   0  0  0  0  0  0
  -28.4363  -13.8076   21.8145 H   0  0  0  0  0  0
  -25.2765   -9.5686   22.4760 H   0  0  0  0  0  0
  -24.0004   -7.4637   22.7473 H   0  0  0  0  0  0
  -21.0845   -8.8776   19.8952 H   0  0  0  0  0  0
  -22.3700  -10.9676   19.6166 H   0  0  0  0  0  0
  -21.2008   -7.6149   23.9716 H   0  0  0  0  0  0
  -21.1482   -6.0523   25.9077 H   0  0  0  0  0  0
  -22.0598   -2.7610   23.2845 H   0  0  0  0  0  0
  -22.4098  -11.9880   22.4806 H   0  0  0  0  0  0
  -21.1096  -13.1240   22.2623 H   0  0  0  0  0  0
  -24.6537  -15.8445   20.5193 H   0  0  0  0  0  0
  -26.2693  -15.6322   20.0747 H   0  0  0  0  0  0
  -26.7193  -32.5428   23.1099 H   0  0  0  0  0  0
  -25.0082  -33.9717   25.0422 H   0  0  0  0  0  0
  -22.7188  -31.3059   21.4043 H   0  0  0  0  0  0
  -23.3752  -35.9623   23.3302 H   0  0  0  0  0  0
  -24.3580  -36.8910   22.2052 H   0  0  0  0  0  0
  -23.7244  -37.6492   23.6660 H   0  0  0  0  0  0
  -26.1087  -31.5393   20.6155 H   0  0  0  0  0  0
  -26.8467  -30.8219   22.0159 H   0  0  0  0  0  0
  -28.1038  -28.9279   21.2323 H   0  0  0  0  0  0
  -25.9527  -25.9742   18.9078 H   0  0  0  0  0  0
  -23.9767  -27.3474   18.9583 H   0  0  0  0  0  0
  -23.7621  -30.6043   19.4064 H   0  0  0  0  0  0
  -22.7587  -29.2579   19.8533 H   0  0  0  0  0  0
  -25.1297  -36.1931   25.0820 H   0  0  0  0  0  0
  -20.9987  -28.3273   24.1393 H   0  0  0  0  0  0
  -20.5681  -26.2305   23.3610 H   0  0  0  0  0  0
  -21.6647  -26.7443   22.1199 H   0  0  0  0  0  0
  -19.6915  -25.6294   21.1243 H   0  0  0  0  0  0
  -19.6688  -27.3193   20.6740 H   0  0  0  0  0  0
  -17.4203  -26.6674   21.4029 H   0  0  0  0  0  0
  -18.0336  -26.0071   22.9023 H   0  0  0  0  0  0
  -19.7940  -30.7275   24.2260 H   0  0  0  0  0  0
  -17.5017  -31.6267   24.5165 H   0  0  0  0  0  0
  -15.5355  -30.2985   23.7655 H   0  0  0  0  0  0
  -15.8676  -28.0820   22.7069 H   0  0  0  0  0  0
  -24.5908  -30.7074   25.7785 H   0  0  0  0  0  0
  -24.8909  -32.2900   26.4868 H   0  0  0  0  0  0
  -25.8044  -30.8922   27.0241 H   0  0  0  0  0  0
  -26.2936  -29.6752   24.1230 H   0  0  0  0  0  0
  -27.4020  -29.7267   25.4739 H   0  0  0  0  0  0
  -27.8820  -30.4280   23.9473 H   0  0  0  0  0  0
  -27.2662  -33.3631   26.2077 H   0  0  0  0  0  0
  -28.3871  -32.6884   25.0341 H   0  0  0  0  0  0
  -28.0719  -31.8461   26.5433 H   0  0  0  0  0  0
  -28.2599  -38.0098   24.7509 H   0  0  0  0  0  0
  -28.1073  -36.2628   24.6298 H   0  0  0  0  0  0
  -27.2295  -37.1459   25.8868 H   0  0  0  0  0  0
  -20.9380  -29.8778   21.6881 H   0  0  0  0  0  0
  -26.0173  -38.2850   24.1404 H   0  0  0  0  0  0
  -27.0648  -24.6566   20.0932 H   0  0  0  0  0  0
  -28.2164  -24.8257   18.7803 H   0  0  0  0  0  0
  -30.4499  -20.0280   19.6537 H   0  0  0  0  0  0
  -28.7525  -19.8251   19.3816 H   0  0  0  0  0  0
  -28.5072  -18.2582   21.2439 H   0  0  0  0  0  0
  -30.0810  -18.6182   21.8736 H   0  0  0  0  0  0
  -30.0981  -21.4823   21.6018 H   0  0  0  0  0  0
  -28.4183  -21.0624   21.7032 H   0  0  0  0  0  0
  -31.2191  -17.3533   20.1011 H   0  0  0  0  0  0
  -29.7707  -17.2234   19.1611 H   0  0  0  0  0  0
  -28.2399  -22.3543   19.4210 H   0  0  0  0  0  0
  -28.9327  -15.6220   21.0197 H   0  0  0  0  0  0
  1 25  1  0  0  0
  1 30  2  0  0  0
  1 78  1  0  0  0
  2  3  1  0  0  0
  2 25  1  0  0  0
  2 80  1  0  0  0
  2 81  1  0  0  0
  3  4  1  0  0  0
  3 82  1  0  0  0
  3 83  1  0  0  0
  4  5  1  0  0  0
  4 84  1  0  0  0
  4 85  1  0  0  0
  5  6  1  0  0  0
  5 26  1  0  0  0
  5 86  1  0  0  0
  6 25  1  0  0  0
  6 87  1  0  0  0
  6 88  1  0  0  0
  7  8  2  0  0  0
  7 26  1  0  0  0
  7 29  1  0  0  0
  8  9  1  0  0  0
  8 22  1  0  0  0
  9 10  1  0  0  0
  9 27  2  0  0  0
 10 11  2  0  0  0
 10 15  1  0  0  0
 11 12  1  0  0  0
 11 89  1  0  0  0
 12 13  2  0  0  0
 12 90  1  0  0  0
 13 14  1  0  0  0
 13 31  1  0  0  0
 14 15  2  0  0  0
 14 91  1  0  0  0
 15 92  1  0  0  0
 16 17  2  0  0  0
 16 21  1  0  0  0
 16 31  1  0  0  0
 17 18  1  0  0  0
 17 93  1  0  0  0
 18 19  2  0  0  0
 18 94  1  0  0  0
 19 20  1  0  0  0
 19 24  1  0  0  0
 20 21  2  0  0  0
 20 95  1  0  0  0
 21 23  1  0  0  0
 22 28  1  0  0  0
 22 32  2  0  0  0
 26 27  1  0  0  0
 28 96  1  0  0  0
 28 97  1  0  0  0
 29 98  1  0  0  0
 29 99  1  0  0  0
 33 34  1  0  0  0
 33 66  1  0  0  0
 33 70  2  0  0  0
 34 36  1  0  0  0
 34 59  1  0  0  0
 34100  1  0  0  0
 35 44  2  0  0  0
 35 45  1  0  0  0
 35 68  1  0  0  0
 36 56  1  0  0  0
 36101  1  0  0  0
 37 39  1  0  0  0
 37 47  1  0  0  0
 37 66  1  0  0  0
 37102  1  0  0  0
 38 43  2  0  0  0
 38 46  1  0  0  0
 38 47  1  0  0  0
 39 64  1  0  0  0
 39 67  2  0  0  0
 40 52  1  0  0  0
 40 53  2  0  0  0
 40 58  1  0  0  0
 41103  1  0  0  0
 41104  1  0  0  0
 41105  1  0  0  0
 41 48  1  0  0  0
 42 43  1  0  0  0
 42 66  1  0  0  0
 42106  1  0  0  0
 42107  1  0  0  0
 43 44  1  0  0  0
 44108  1  0  0  0
 45 46  2  0  0  0
 45109  1  0  0  0
 46110  1  0  0  0
 47111  1  0  0  0
 47112  1  0  0  0
 48 56  1  0  0  0
 48 65  1  0  0  0
 48113  1  0  0  0
 49 50  1  0  0  0
 49 53  1  0  0  0
 49 64  1  0  0  0
 49114  1  0  0  0
 50 51  1  0  0  0
 50115  1  0  0  0
 50116  1  0  0  0
 51 52  1  0  0  0
 51117  1  0  0  0
 51118  1  0  0  0
 52119  1  0  0  0
 52120  1  0  0  0
 53 54  1  0  0  0
 54 55  2  0  0  0
 54121  1  0  0  0
 55 57  1  0  0  0
 55122  1  0  0  0
 56 69  2  0  0  0
 57 58  2  0  0  0
 57123  1  0  0  0
 58124  1  0  0  0
 59 60  1  0  0  0
 59 61  1  0  0  0
 59 62  1  0  0  0
 60125  1  0  0  0
 60126  1  0  0  0
 60127  1  0  0  0
 61128  1  0  0  0
 61129  1  0  0  0
 61130  1  0  0  0
 62131  1  0  0  0
 62132  1  0  0  0
 62133  1  0  0  0
 63 65  1  0  0  0
 63134  1  0  0  0
 63135  1  0  0  0
 63136  1  0  0  0
 64137  1  0  0  0
 65138  1  0  0  0
 68 72  1  0  0  0
 71 72  1  0  0  0
 71 77  1  0  0  0
 71 79  2  0  0  0
 72139  1  0  0  0
 72140  1  0  0  0
 73 74  1  0  0  0
 73 75  1  0  0  0
 73141  1  0  0  0
 73142  1  0  0  0
 74 76  1  0  0  0
 74143  1  0  0  0
 74144  1  0  0  0
 75 77  1  0  0  0
 75145  1  0  0  0
 75146  1  0  0  0
 76 78  1  0  0  0
 76147  1  0  0  0
 76148  1  0  0  0
 77149  1  0  0  0
 78150  1  0  0  0
M  ISO  4   1 100  68 101  72 101  78 100
M  END
> <chiral flag>
0

> <version>
0

> <s_m_source_file>
/data/baiqing/PycharmProjects/Reinvent-master-3.2/result/LINK_invent/BTK/process_docking_weight1_custom_sum_contain_oxygen_bond_distance_aromatic_linkinvent_7_9_3/rearranged_h_0003.sdf

> <i_m_source_file_index>
77

> <r_mmod_Potential_Energy-OPLS-2005>
29.1479625701904

> <r_mmod_Stretch_Energy-OPLS-2005>
100.355453491211

> <r_mmod_Bend_Energy-OPLS-2005>
145.085632324219

> <r_mmod_Torsional_Energy-OPLS-2005>
210.125640869141

> <r_mmod_Improper_Torsional_Energy-OPLS-2005>
7.15349721908569

> <r_mmod_Van_der_Waal_Energy-OPLS-2005>
126.612968444824

> <r_mmod_Electrostatic_Energy-OPLS-2005>
-372.141723632812

> <r_mmod_Solvation_Energy-OPLS-2005>
-255.416427612305

> <b_mmod_Minimization_Converged-OPLS-2005>
0

> <r_mmod_RMS_Derivative-OPLS-2005>
0.0840050131082535

$$$$
79
                    3D
 Structure written by MMmdl.
195203  0  0  1  0            999 V2000
  -30.7585  -14.3296   20.7078 C   0  0  0  0  0  0
  -30.4261  -12.2779   19.3740 C   0  0  0  0  0  0
  -29.4828  -12.5382   18.1833 C   0  0  0  0  0  0
  -28.0066  -12.3954   18.6017 C   0  0  0  0  0  0
  -27.6756  -13.1937   19.8893 C   0  0  2  0  0  0
  -28.7133  -12.8916   20.9922 C   0  0  0  0  0  0
  -25.2649  -13.8148   20.5673 C   0  0  0  0  0  0
  -24.1876  -13.0430   20.9136 C   0  0  0  0  0  0
  -24.6407  -11.6886   20.8706 C   0  0  0  0  0  0
  -23.9053  -10.4280   21.0400 C   0  0  0  0  0  0
  -24.3610   -9.4196   21.9182 C   0  0  0  0  0  0
  -23.6297   -8.2225   22.0762 C   0  0  0  0  0  0
  -22.4272   -8.0276   21.3565 C   0  0  0  0  0  0
  -21.9903   -9.0236   20.4664 C   0  0  0  0  0  0
  -22.7224  -10.2120   20.3056 C   0  0  0  0  0  0
  -21.6843   -6.0748   22.5284 C   0  0  0  0  0  0
  -21.4007   -6.5654   23.8218 C   0  0  0  0  0  0
  -21.3653   -5.6813   24.9179 C   0  0  0  0  0  0
  -21.6030   -4.3068   24.7234 C   0  0  0  0  0  0
  -21.8809   -3.8173   23.4348 C   0  0  0  0  0  0
  -21.9186   -4.6980   22.3400 C   0  0  0  0  0  0
  -22.7907  -13.5239   21.1799 C   0  0  0  0  0  0
  -22.1661   -4.2169   21.0976 F   0  0  0  0  0  0
  -21.5621   -3.4543   25.7741 F   0  0  0  0  0  0
  -30.0662  -13.1859   20.4717 N   0  0  0  0  0  0
  -26.3100  -12.9292   20.3432 N   0  0  0  0  0  0
  -25.9327  -11.6452   20.5741 N   0  0  0  0  0  0
  -22.0568  -12.8217   22.0369 N   0  0  0  0  0  0
  -25.4361  -15.1860   20.4085 N   0  0  0  0  0  0
  -31.7159  -14.7145   20.0277 O   0  0  0  0  0  0
  -21.6626   -6.8889   21.4257 O   0  0  0  0  0  0
  -22.3568  -14.5530   20.6639 O   0  0  0  0  0  0
  -24.6077  -31.8727   23.2146 C   0  0  0  0  0  0
  -25.8988  -32.4848   23.8425 C   0  0  1  0  0  0
  -27.2598  -27.4944   20.0873 C   0  0  0  0  0  0
  -25.5864  -33.8641   24.2365 N   0  0  0  0  0  0
  -23.3946  -30.4953   21.5537 C   0  0  2  0  0  0
  -24.8472  -28.9698   20.1201 C   0  0  0  0  0  0
  -22.7380  -29.4670   22.5018 C   0  0  0  0  0  0
  -18.0268  -28.1366   22.8489 C   0  0  0  0  0  0
  -24.1486  -36.7333   23.2641 C   0  0  0  0  0  0
  -25.9164  -30.8577   21.3592 C   0  0  0  0  0  0
  -26.0022  -29.4945   20.7123 C   0  0  0  0  0  0
  -27.2105  -28.7681   20.7005 C   0  0  0  0  0  0
  -26.0866  -26.9819   19.4946 C   0  0  0  0  0  0
  -24.8808  -27.7057   19.5099 C   0  0  0  0  0  0
  -23.6026  -29.8253   20.1691 C   0  0  0  0  0  0
  -25.4099  -36.3124   24.0352 C   0  0  1  0  0  0
  -20.5853  -28.3636   23.1335 C   0  0  2  0  0  0
  -20.6764  -26.9378   22.5418 C   0  0  0  0  0  0
  -19.5747  -26.6367   21.5208 C   0  0  0  0  0  0
  -18.1922  -26.7914   22.1616 C   0  0  0  0  0  0
  -19.1516  -28.8815   23.2914 C   0  0  0  0  0  0
  -18.9447  -30.1424   23.8924 C   0  0  0  0  0  0
  -17.6453  -30.6577   24.0562 C   0  0  0  0  0  0
  -25.9016  -34.9485   23.5156 C   0  0  0  0  0  0
  -16.5342  -29.9083   23.6318 C   0  0  0  0  0  0
  -16.7259  -28.6495   23.0344 C   0  0  0  0  0  0
  -26.4443  -31.6601   25.0720 C   0  0  0  0  0  0
  -25.3731  -31.3685   26.1481 C   0  0  0  0  0  0
  -27.0269  -30.3057   24.6041 C   0  0  0  0  0  0
  -27.6039  -32.4301   25.7472 C   0  0  0  0  0  0
  -27.5584  -37.1818   24.8466 C   0  0  0  0  0  0
  -21.4119  -29.3017   22.3751 N   0  0  0  0  0  0
  -26.4294  -37.3797   23.9410 N   0  0  0  0  0  0
  -24.6570  -31.0874   22.1019 N   0  0  0  0  0  0
  -23.4174  -28.8224   23.3047 O   0  0  0  0  0  0
  -28.3688  -26.6831   20.0185 O   0  0  0  0  0  0
  -26.5580  -34.8927   22.4718 O   0  0  0  0  0  0
  -23.5281  -32.1451   23.7568 O   0  0  0  0  0  0
  -28.5251  -18.0853   20.8917 C   0  0  0  0  0  0
  -27.5956  -18.1298   21.9511 C   0  0  0  0  0  0
  -29.4973  -17.0662   20.8404 C   0  0  0  0  0  0
  -28.6468  -16.1698   22.9432 C   0  0  0  0  0  0
  -27.6510  -17.1650   22.9820 C   0  0  0  0  0  0
  -29.5417  -16.0861   21.8596 C   0  0  0  0  0  0
  -26.6703  -17.1650   24.1152 C   0  0  0  0  0  0
  -22.9506  -22.0804   23.0146 C   0  0  0  0  0  0
  -29.8571  -24.4373   17.4288 C   0  0  0  0  0  0
  -22.3648  -22.1387   21.5991 C   0  0  0  0  0  0
  -29.1128  -23.2109   17.9623 C   0  0  0  0  0  0
  -23.2288  -22.9077   20.5793 C   0  0  0  0  0  0
  -27.6730  -23.6177   18.3242 C   0  0  0  0  0  0
  -24.5417  -22.1999   20.1854 C   0  0  0  0  0  0
  -26.8119  -22.5409   18.9995 C   0  0  0  0  0  0
  -25.4411  -23.1314   19.3671 C   0  0  0  0  0  0
  -23.3000  -18.3598   24.5906 C   0  0  0  0  0  0
  -23.9340  -19.6590   25.1235 C   0  0  0  0  0  0
  -30.5625  -27.5699   19.3835 C   0  0  0  0  0  0
  -24.2390  -17.1464   24.6479 C   0  0  0  0  0  0
  -22.9391  -20.8316   25.1644 C   0  0  0  0  0  0
  -30.6003  -26.7014   18.1003 C   0  0  0  0  0  0
  -29.6403  -27.0826   20.5207 C   0  0  0  0  0  0
  -30.3988  -14.9598   21.8310 N   0  0  0  0  0  0
  -25.3885  -17.3077   23.7615 N   0  0  0  0  0  0
  -22.4507  -21.1417   23.8243 N   0  0  0  0  0  0
  -30.3432  -25.2827   18.3457 N   0  0  0  0  0  0
  -27.0418  -16.9514   25.2719 O   0  0  0  0  0  0
  -23.8349  -22.8619   23.3711 O   0  0  0  0  0  0
  -29.9135  -24.6556   16.2175 O   0  0  0  0  0  0
  -31.4662  -12.3950   19.0649 H   0  0  0  0  0  0
  -30.3377  -11.2443   19.7101 H   0  0  0  0  0  0
  -29.7076  -11.8520   17.3657 H   0  0  0  0  0  0
  -29.6569  -13.5413   17.7921 H   0  0  0  0  0  0
  -27.8028  -11.3353   18.7564 H   0  0  0  0  0  0
  -27.3546  -12.7141   17.7870 H   0  0  0  0  0  0
  -27.7496  -14.2536   19.6466 H   0  0  0  0  0  0
  -28.6625  -11.8389   21.2746 H   0  0  0  0  0  0
  -28.4544  -13.4384   21.8976 H   0  0  0  0  0  0
  -25.2762   -9.5673   22.4745 H   0  0  0  0  0  0
  -24.0013   -7.4617   22.7476 H   0  0  0  0  0  0
  -21.0830   -8.8749   19.8986 H   0  0  0  0  0  0
  -22.3685  -10.9647   19.6151 H   0  0  0  0  0  0
  -21.2014   -7.6172   23.9714 H   0  0  0  0  0  0
  -21.1483   -6.0562   25.9074 H   0  0  0  0  0  0
  -22.0600   -2.7637   23.2850 H   0  0  0  0  0  0
  -22.4231  -11.9884   22.4731 H   0  0  0  0  0  0
  -21.1170  -13.1211   22.2539 H   0  0  0  0  0  0
  -24.6580  -15.8317   20.4720 H   0  0  0  0  0  0
  -26.2992  -15.6275   20.1165 H   0  0  0  0  0  0
  -26.7066  -32.5601   23.1212 H   0  0  0  0  0  0
  -24.9998  -33.9806   25.0496 H   0  0  0  0  0  0
  -22.6801  -31.3094   21.4157 H   0  0  0  0  0  0
  -23.3731  -35.9683   23.3311 H   0  0  0  0  0  0
  -24.3592  -36.8926   22.2054 H   0  0  0  0  0  0
  -23.7252  -37.6555   23.6635 H   0  0  0  0  0  0
  -26.0154  -31.6232   20.5880 H   0  0  0  0  0  0
  -26.8085  -30.9200   21.9704 H   0  0  0  0  0  0
  -28.0809  -29.2116   21.1583 H   0  0  0  0  0  0
  -26.1076  -26.0218   19.0049 H   0  0  0  0  0  0
  -23.9961  -27.2928   19.0461 H   0  0  0  0  0  0
  -23.7022  -30.5979   19.4060 H   0  0  0  0  0  0
  -22.7317  -29.2356   19.8781 H   0  0  0  0  0  0
  -25.1270  -36.2006   25.0846 H   0  0  0  0  0  0
  -20.9945  -28.3191   24.1454 H   0  0  0  0  0  0
  -20.5669  -26.2233   23.3593 H   0  0  0  0  0  0
  -21.6640  -26.7427   22.1217 H   0  0  0  0  0  0
  -19.6915  -25.6278   21.1233 H   0  0  0  0  0  0
  -19.6698  -27.3180   20.6742 H   0  0  0  0  0  0
  -17.4198  -26.6656   21.4017 H   0  0  0  0  0  0
  -18.0335  -26.0051   22.9008 H   0  0  0  0  0  0
  -19.7924  -30.7224   24.2323 H   0  0  0  0  0  0
  -17.5010  -31.6266   24.5151 H   0  0  0  0  0  0
  -15.5347  -30.2997   23.7626 H   0  0  0  0  0  0
  -15.8656  -28.0823   22.7054 H   0  0  0  0  0  0
  -24.5898  -30.7039   25.7815 H   0  0  0  0  0  0
  -24.8923  -32.2833   26.4958 H   0  0  0  0  0  0
  -25.8096  -30.8833   27.0220 H   0  0  0  0  0  0
  -26.2800  -29.6834   24.1095 H   0  0  0  0  0  0
  -27.4072  -29.7262   25.4465 H   0  0  0  0  0  0
  -27.8614  -30.4403   23.9154 H   0  0  0  0  0  0
  -27.2677  -33.3585   26.2103 H   0  0  0  0  0  0
  -28.3817  -32.6887   25.0273 H   0  0  0  0  0  0
  -28.0740  -31.8387   26.5341 H   0  0  0  0  0  0
  -28.2607  -38.0109   24.7498 H   0  0  0  0  0  0
  -28.1073  -36.2641   24.6299 H   0  0  0  0  0  0
  -27.2308  -37.1482   25.8872 H   0  0  0  0  0  0
  -20.9268  -29.8731   21.6976 H   0  0  0  0  0  0
  -26.0192  -38.2885   24.1387 H   0  0  0  0  0  0
  -28.4802  -18.8254   20.1043 H   0  0  0  0  0  0
  -26.8457  -18.9086   21.9703 H   0  0  0  0  0  0
  -30.1859  -17.0358   20.0075 H   0  0  0  0  0  0
  -28.6793  -15.4287   23.7312 H   0  0  0  0  0  0
  -21.3886  -22.6193   21.6729 H   0  0  0  0  0  0
  -22.1824  -21.1267   21.2359 H   0  0  0  0  0  0
  -29.6356  -22.8103   18.8320 H   0  0  0  0  0  0
  -29.1078  -22.4259   17.2051 H   0  0  0  0  0  0
  -23.4472  -23.8996   20.9796 H   0  0  0  0  0  0
  -22.6377  -23.0849   19.6798 H   0  0  0  0  0  0
  -27.1634  -23.9795   17.4289 H   0  0  0  0  0  0
  -27.7265  -24.4675   19.0021 H   0  0  0  0  0  0
  -24.3233  -21.2934   19.6187 H   0  0  0  0  0  0
  -25.0837  -21.8861   21.0790 H   0  0  0  0  0  0
  -27.3126  -22.1796   19.8987 H   0  0  0  0  0  0
  -26.6895  -21.6802   18.3408 H   0  0  0  0  0  0
  -25.5980  -24.0386   19.9514 H   0  0  0  0  0  0
  -24.9207  -23.4398   18.4589 H   0  0  0  0  0  0
  -22.9526  -18.5005   23.5659 H   0  0  0  0  0  0
  -22.4095  -18.1352   25.1795 H   0  0  0  0  0  0
  -24.7964  -19.9329   24.5138 H   0  0  0  0  0  0
  -24.3204  -19.4860   26.1289 H   0  0  0  0  0  0
  -30.2823  -28.5864   19.1055 H   0  0  0  0  0  0
  -31.5734  -27.6494   19.7845 H   0  0  0  0  0  0
  -23.6982  -16.2539   24.3320 H   0  0  0  0  0  0
  -24.5431  -16.9609   25.6800 H   0  0  0  0  0  0
  -23.4025  -21.7066   25.6245 H   0  0  0  0  0  0
  -22.0873  -20.5775   25.7976 H   0  0  0  0  0  0
  -31.5562  -26.8225   17.5891 H   0  0  0  0  0  0
  -29.8383  -27.0784   17.4149 H   0  0  0  0  0  0
  -29.5998  -27.8032   21.3352 H   0  0  0  0  0  0
  -30.0838  -26.1934   20.9698 H   0  0  0  0  0  0
  -30.1584  -14.2955   22.5517 H   0  0  0  0  0  0
  -25.2001  -17.4193   22.7751 H   0  0  0  0  0  0
  -21.7128  -20.5544   23.4579 H   0  0  0  0  0  0
  -30.2597  -24.9948   19.3110 H   0  0  0  0  0  0
  1 25  1  0  0  0
  1 30  2  0  0  0
  1 94  1  0  0  0
  2  3  1  0  0  0
  2 25  1  0  0  0
  2101  1  0  0  0
  2102  1  0  0  0
  3  4  1  0  0  0
  3103  1  0  0  0
  3104  1  0  0  0
  4  5  1  0  0  0
  4105  1  0  0  0
  4106  1  0  0  0
  5  6  1  0  0  0
  5 26  1  0  0  0
  5107  1  0  0  0
  6 25  1  0  0  0
  6108  1  0  0  0
  6109  1  0  0  0
  7  8  2  0  0  0
  7 26  1  0  0  0
  7 29  1  0  0  0
  8  9  1  0  0  0
  8 22  1  0  0  0
  9 10  1  0  0  0
  9 27  2  0  0  0
 10 11  2  0  0  0
 10 15  1  0  0  0
 11 12  1  0  0  0
 11110  1  0  0  0
 12 13  2  0  0  0
 12111  1  0  0  0
 13 14  1  0  0  0
 13 31  1  0  0  0
 14 15  2  0  0  0
 14112  1  0  0  0
 15113  1  0  0  0
 16 17  2  0  0  0
 16 21  1  0  0  0
 16 31  1  0  0  0
 17 18  1  0  0  0
 17114  1  0  0  0
 18 19  2  0  0  0
 18115  1  0  0  0
 19 20  1  0  0  0
 19 24  1  0  0  0
 20 21  2  0  0  0
 20116  1  0  0  0
 21 23  1  0  0  0
 22 28  1  0  0  0
 22 32  2  0  0  0
 26 27  1  0  0  0
 28117  1  0  0  0
 28118  1  0  0  0
 29119  1  0  0  0
 29120  1  0  0  0
 33 34  1  0  0  0
 33 66  1  0  0  0
 33 70  2  0  0  0
 34 36  1  0  0  0
 34 59  1  0  0  0
 34121  1  0  0  0
 35 44  2  0  0  0
 35 45  1  0  0  0
 35 68  1  0  0  0
 36 56  1  0  0  0
 36122  1  0  0  0
 37 39  1  0  0  0
 37 47  1  0  0  0
 37 66  1  0  0  0
 37123  1  0  0  0
 38 43  2  0  0  0
 38 46  1  0  0  0
 38 47  1  0  0  0
 39 64  1  0  0  0
 39 67  2  0  0  0
 40 52  1  0  0  0
 40 53  2  0  0  0
 40 58  1  0  0  0
 41124  1  0  0  0
 41125  1  0  0  0
 41126  1  0  0  0
 41 48  1  0  0  0
 42 43  1  0  0  0
 42 66  1  0  0  0
 42127  1  0  0  0
 42128  1  0  0  0
 43 44  1  0  0  0
 44129  1  0  0  0
 45 46  2  0  0  0
 45130  1  0  0  0
 46131  1  0  0  0
 47132  1  0  0  0
 47133  1  0  0  0
 48 56  1  0  0  0
 48 65  1  0  0  0
 48134  1  0  0  0
 49 50  1  0  0  0
 49 53  1  0  0  0
 49 64  1  0  0  0
 49135  1  0  0  0
 50 51  1  0  0  0
 50136  1  0  0  0
 50137  1  0  0  0
 51 52  1  0  0  0
 51138  1  0  0  0
 51139  1  0  0  0
 52140  1  0  0  0
 52141  1  0  0  0
 53 54  1  0  0  0
 54 55  2  0  0  0
 54142  1  0  0  0
 55 57  1  0  0  0
 55143  1  0  0  0
 56 69  2  0  0  0
 57 58  2  0  0  0
 57144  1  0  0  0
 58145  1  0  0  0
 59 60  1  0  0  0
 59 61  1  0  0  0
 59 62  1  0  0  0
 60146  1  0  0  0
 60147  1  0  0  0
 60148  1  0  0  0
 61149  1  0  0  0
 61150  1  0  0  0
 61151  1  0  0  0
 62152  1  0  0  0
 62153  1  0  0  0
 62154  1  0  0  0
 63 65  1  0  0  0
 63155  1  0  0  0
 63156  1  0  0  0
 63157  1  0  0  0
 64158  1  0  0  0
 65159  1  0  0  0
 68 93  1  0  0  0
 71 72  2  0  0  0
 71 73  1  0  0  0
 71160  1  0  0  0
 72 75  1  0  0  0
 72161  1  0  0  0
 73 76  2  0  0  0
 73162  1  0  0  0
 74 75  2  0  0  0
 74 76  1  0  0  0
 74163  1  0  0  0
 75 77  1  0  0  0
 76 94  1  0  0  0
 77 95  1  0  0  0
 77 98  2  0  0  0
 78 80  1  0  0  0
 78 96  1  0  0  0
 78 99  2  0  0  0
 79 81  1  0  0  0
 79 97  1  0  0  0
 79100  2  0  0  0
 80 82  1  0  0  0
 80164  1  0  0  0
 80165  1  0  0  0
 81 83  1  0  0  0
 81166  1  0  0  0
 81167  1  0  0  0
 82 84  1  0  0  0
 82168  1  0  0  0
 82169  1  0  0  0
 83 85  1  0  0  0
 83170  1  0  0  0
 83171  1  0  0  0
 84 86  1  0  0  0
 84172  1  0  0  0
 84173  1  0  0  0
 85 86  1  0  0  0
 85174  1  0  0  0
 85175  1  0  0  0
 86176  1  0  0  0
 86177  1  0  0  0
 87 88  1  0  0  0
 87 90  1  0  0  0
 87178  1  0  0  0
 87179  1  0  0  0
 88 91  1  0  0  0
 88180  1  0  0  0
 88181  1  0  0  0
 89 92  1  0  0  0
 89 93  1  0  0  0
 89182  1  0  0  0
 89183  1  0  0  0
 90 95  1  0  0  0
 90184  1  0  0  0
 90185  1  0  0  0
 91 96  1  0  0  0
 91186  1  0  0  0
 91187  1  0  0  0
 92 97  1  0  0  0
 92188  1  0  0  0
 92189  1  0  0  0
 93190  1  0  0  0
 93191  1  0  0  0
 94192  1  0  0  0
 95193  1  0  0  0
 96194  1  0  0  0
 97195  1  0  0  0
M  ISO  4   1 100  68 101  93 101  94 100
M  END
> <chiral flag>
0

> <version>
0

> <s_m_source_file>
/data/baiqing/PycharmProjects/Reinvent-master-3.2/result/LINK_invent/BTK/process_docking_weight1_custom_sum_contain_oxygen_bond_distance_aromatic_linkinvent_7_9_3/rearranged_h_0003.sdf

> <i_m_source_file_index>
78

> <r_mmod_Potential_Energy-OPLS-2005>
-237.73811340332

> <r_mmod_Stretch_Energy-OPLS-2005>
33.1490020751953

> <r_mmod_Bend_Energy-OPLS-2005>
120.931007385254

> <r_mmod_Torsional_Energy-OPLS-2005>
280.401916503906

> <r_mmod_Improper_Torsional_Energy-OPLS-2005>
9.42920303344727

> <r_mmod_Van_der_Waal_Energy-OPLS-2005>
132.848861694336

> <r_mmod_Electrostatic_Energy-OPLS-2005>
-535.578186035156

> <r_mmod_Solvation_Energy-OPLS-2005>
-286.166229248047

> <b_mmod_Minimization_Converged-OPLS-2005>
0

> <r_mmod_RMS_Derivative-OPLS-2005>
1.89197266101837

$$$$
80
                    3D
 Structure written by MMmdl.
159166  0  0  1  0            999 V2000
  -30.7505  -14.3795   20.6543 C   0  0  0  0  0  0
  -30.4176  -12.2788   19.4154 C   0  0  0  0  0  0
  -29.4999  -12.5227   18.2024 C   0  0  0  0  0  0
  -28.0166  -12.3912   18.6058 C   0  0  0  0  0  0
  -27.6673  -13.2068   19.8796 C   0  0  2  0  0  0
  -28.6997  -12.9549   21.0015 C   0  0  0  0  0  0
  -25.2610  -13.8169   20.5649 C   0  0  0  0  0  0
  -24.1845  -13.0464   20.9122 C   0  0  0  0  0  0
  -24.6384  -11.6924   20.8684 C   0  0  0  0  0  0
  -23.9049  -10.4310   21.0387 C   0  0  0  0  0  0
  -24.3613   -9.4237   21.9170 C   0  0  0  0  0  0
  -23.6278   -8.2276   22.0751 C   0  0  0  0  0  0
  -22.4260   -8.0296   21.3541 C   0  0  0  0  0  0
  -21.9892   -9.0270   20.4648 C   0  0  0  0  0  0
  -22.7220  -10.2142   20.3050 C   0  0  0  0  0  0
  -21.6864   -6.0734   22.5280 C   0  0  0  0  0  0
  -21.4027   -6.5642   23.8215 C   0  0  0  0  0  0
  -21.3656   -5.6789   24.9177 C   0  0  0  0  0  0
  -21.6037   -4.3050   24.7224 C   0  0  0  0  0  0
  -21.8822   -3.8140   23.4346 C   0  0  0  0  0  0
  -21.9191   -4.6957   22.3402 C   0  0  0  0  0  0
  -22.7880  -13.5282   21.1800 C   0  0  0  0  0  0
  -22.1660   -4.2141   21.0981 F   0  0  0  0  0  0
  -21.5627   -3.4537   25.7741 F   0  0  0  0  0  0
  -30.0442  -13.2380   20.4653 N   0  0  0  0  0  0
  -26.3041  -12.9338   20.3336 N   0  0  0  0  0  0
  -25.9305  -11.6490   20.5712 N   0  0  0  0  0  0
  -22.0495  -12.8288   22.0362 N   0  0  0  0  0  0
  -25.4361  -15.1885   20.4108 N   0  0  0  0  0  0
  -31.8032  -14.6347   20.0597 O   0  0  0  0  0  0
  -21.6639   -6.8878   21.4241 O   0  0  0  0  0  0
  -22.3580  -14.5590   20.6645 O   0  0  0  0  0  0
  -24.6117  -31.8711   23.2088 C   0  0  0  0  0  0
  -25.9028  -32.4833   23.8377 C   0  0  1  0  0  0
  -27.2276  -27.4680   20.0959 C   0  0  0  0  0  0
  -25.5894  -33.8622   24.2320 N   0  0  0  0  0  0
  -23.3942  -30.4926   21.5500 C   0  0  2  0  0  0
  -24.8400  -28.9606   20.1102 C   0  0  0  0  0  0
  -22.7366  -29.4681   22.5019 C   0  0  0  0  0  0
  -18.0248  -28.1366   22.8484 C   0  0  0  0  0  0
  -24.1486  -36.7333   23.2626 C   0  0  0  0  0  0
  -25.9151  -30.8531   21.3459 C   0  0  0  0  0  0
  -25.9956  -29.4846   20.7053 C   0  0  0  0  0  0
  -27.1934  -28.7418   20.7063 C   0  0  0  0  0  0
  -26.0683  -26.9578   19.4826 C   0  0  0  0  0  0
  -24.8680  -27.6943   19.5006 C   0  0  0  0  0  0
  -23.5958  -29.8184   20.1652 C   0  0  0  0  0  0
  -25.4104  -36.3119   24.0332 C   0  0  1  0  0  0
  -20.5828  -28.3681   23.1347 C   0  0  2  0  0  0
  -20.6755  -26.9418   22.5457 C   0  0  0  0  0  0
  -19.5754  -26.6375   21.5241 C   0  0  0  0  0  0
  -18.1926  -26.7906   22.1637 C   0  0  0  0  0  0
  -19.1487  -28.8836   23.2906 C   0  0  0  0  0  0
  -18.9415  -30.1443   23.8917 C   0  0  0  0  0  0
  -17.6417  -30.6590   24.0546 C   0  0  0  0  0  0
  -25.9038  -34.9482   23.5129 C   0  0  0  0  0  0
  -16.5314  -29.9076   23.6312 C   0  0  0  0  0  0
  -16.7236  -28.6486   23.0347 C   0  0  0  0  0  0
  -26.4466  -31.6595   25.0674 C   0  0  0  0  0  0
  -25.3729  -31.3714   26.1425 C   0  0  0  0  0  0
  -27.0269  -30.3047   24.5971 C   0  0  0  0  0  0
  -27.6060  -32.4280   25.7442 C   0  0  0  0  0  0
  -27.5574  -37.1811   24.8455 C   0  0  0  0  0  0
  -21.4102  -29.3034   22.3747 N   0  0  0  0  0  0
  -26.4290  -37.3800   23.9397 N   0  0  0  0  0  0
  -24.6592  -31.0850   22.0952 N   0  0  0  0  0  0
  -23.4149  -28.8231   23.3060 O   0  0  0  0  0  0
  -28.3614  -26.6986   20.1034 O   0  0  0  0  0  0
  -26.5613  -34.8926   22.4692 O   0  0  0  0  0  0
  -23.5335  -32.1447   23.7529 O   0  0  0  0  0  0
  -28.1873  -21.6836   20.8607 C   0  0  0  0  0  0
  -27.8938  -20.2313   21.2533 C   0  0  0  0  0  0
  -29.1529  -19.4105   21.5871 C   0  0  0  0  0  0
  -28.7973  -18.0626   22.2500 C   0  0  0  0  0  0
  -30.0017  -17.3281   22.8724 C   0  0  0  0  0  0
  -28.9705  -24.8270   21.5405 C   0  0  0  0  0  0
  -30.8529  -16.5211   21.8776 C   0  0  0  0  0  0
  -27.6379  -24.0618   21.4184 C   0  0  0  0  0  0
  -28.8121  -26.3529   21.4146 C   0  0  0  0  0  0
  -27.7598  -22.6316   21.7045 N   0  0  0  0  0  0
  -30.2316  -15.2439   21.5338 N   0  0  0  0  0  0
  -28.7439  -21.9388   19.7922 O   0  0  0  0  0  0
  -31.4690  -12.3547   19.1295 H   0  0  0  0  0  0
  -30.2917  -11.2607   19.7862 H   0  0  0  0  0  0
  -29.7364  -11.8222   17.4012 H   0  0  0  0  0  0
  -29.6891  -13.5192   17.8018 H   0  0  0  0  0  0
  -27.8026  -11.3335   18.7656 H   0  0  0  0  0  0
  -27.3824  -12.7062   17.7771 H   0  0  0  0  0  0
  -27.7246  -14.2618   19.6092 H   0  0  0  0  0  0
  -28.6560  -11.9181   21.3363 H   0  0  0  0  0  0
  -28.4461  -13.5452   21.8821 H   0  0  0  0  0  0
  -25.2768   -9.5721   22.4727 H   0  0  0  0  0  0
  -23.9985   -7.4691   22.7490 H   0  0  0  0  0  0
  -21.0812   -8.8801   19.8962 H   0  0  0  0  0  0
  -22.3686  -10.9680   19.6156 H   0  0  0  0  0  0
  -21.2041   -7.6154   23.9724 H   0  0  0  0  0  0
  -21.1465   -6.0514   25.9076 H   0  0  0  0  0  0
  -22.0590   -2.7596   23.2857 H   0  0  0  0  0  0
  -22.4083  -11.9963   22.4788 H   0  0  0  0  0  0
  -21.1124  -13.1356   22.2563 H   0  0  0  0  0  0
  -24.6755  -15.8487   20.5312 H   0  0  0  0  0  0
  -26.3016  -15.6249   20.1187 H   0  0  0  0  0  0
  -26.7088  -32.5550   23.1152 H   0  0  0  0  0  0
  -25.0000  -33.9793   25.0435 H   0  0  0  0  0  0
  -22.6802  -31.3074   21.4113 H   0  0  0  0  0  0
  -23.3733  -35.9682   23.3310 H   0  0  0  0  0  0
  -24.3572  -36.8933   22.2032 H   0  0  0  0  0  0
  -23.7279  -37.6551   23.6643 H   0  0  0  0  0  0
  -25.9996  -31.6118   20.5660 H   0  0  0  0  0  0
  -26.8151  -30.9297   21.9436 H   0  0  0  0  0  0
  -28.0825  -29.1373   21.1747 H   0  0  0  0  0  0
  -26.0852  -25.9830   19.0130 H   0  0  0  0  0  0
  -23.9744  -27.2853   19.0471 H   0  0  0  0  0  0
  -23.6815  -30.5889   19.3979 H   0  0  0  0  0  0
  -22.7250  -29.2228   19.8830 H   0  0  0  0  0  0
  -25.1280  -36.1975   25.0828 H   0  0  0  0  0  0
  -20.9906  -28.3262   24.1470 H   0  0  0  0  0  0
  -20.5693  -26.2279   23.3646 H   0  0  0  0  0  0
  -21.6640  -26.7492   22.1247 H   0  0  0  0  0  0
  -19.6948  -25.6286   21.1290 H   0  0  0  0  0  0
  -19.6683  -27.3165   20.6760 H   0  0  0  0  0  0
  -17.4190  -26.6579   21.4055 H   0  0  0  0  0  0
  -18.0372  -26.0074   22.9066 H   0  0  0  0  0  0
  -19.7894  -30.7238   24.2320 H   0  0  0  0  0  0
  -17.4965  -31.6289   24.5107 H   0  0  0  0  0  0
  -15.5317  -30.2965   23.7648 H   0  0  0  0  0  0
  -15.8623  -28.0804   22.7070 H   0  0  0  0  0  0
  -24.5904  -30.7067   25.7750 H   0  0  0  0  0  0
  -24.8930  -32.2888   26.4833 H   0  0  0  0  0  0
  -25.8076  -30.8893   27.0192 H   0  0  0  0  0  0
  -26.2780  -29.6837   24.1045 H   0  0  0  0  0  0
  -27.4101  -29.7236   25.4369 H   0  0  0  0  0  0
  -27.8578  -30.4380   23.9042 H   0  0  0  0  0  0
  -27.2697  -33.3557   26.2075 H   0  0  0  0  0  0
  -28.3859  -32.6874   25.0272 H   0  0  0  0  0  0
  -28.0743  -31.8361   26.5317 H   0  0  0  0  0  0
  -28.2611  -38.0085   24.7480 H   0  0  0  0  0  0
  -28.1054  -36.2624   24.6313 H   0  0  0  0  0  0
  -27.2284  -37.1486   25.8854 H   0  0  0  0  0  0
  -20.9283  -29.8696   21.6913 H   0  0  0  0  0  0
  -26.0182  -38.2871   24.1413 H   0  0  0  0  0  0
  -27.3524  -19.7545   20.4340 H   0  0  0  0  0  0
  -27.2130  -20.2236   22.1071 H   0  0  0  0  0  0
  -29.7888  -19.9962   22.2546 H   0  0  0  0  0  0
  -29.7349  -19.2400   20.6805 H   0  0  0  0  0  0
  -28.2762  -17.4184   21.5397 H   0  0  0  0  0  0
  -28.0826  -18.2574   23.0529 H   0  0  0  0  0  0
  -29.6506  -16.6632   23.6620 H   0  0  0  0  0  0
  -30.6387  -18.0539   23.3783 H   0  0  0  0  0  0
  -29.6779  -24.4746   20.7907 H   0  0  0  0  0  0
  -29.4157  -24.6121   22.5131 H   0  0  0  0  0  0
  -31.8282  -16.3123   22.3197 H   0  0  0  0  0  0
  -31.0401  -17.1045   20.9734 H   0  0  0  0  0  0
  -27.2201  -24.1974   20.4202 H   0  0  0  0  0  0
  -26.9033  -24.4780   22.1112 H   0  0  0  0  0  0
  -29.7661  -26.8484   21.5922 H   0  0  0  0  0  0
  -28.1344  -26.6972   22.2007 H   0  0  0  0  0  0
  -27.3618  -22.3111   22.5778 H   0  0  0  0  0  0
  -29.3769  -14.9810   22.0019 H   0  0  0  0  0  0
  1 25  1  0  0  0
  1 30  2  0  0  0
  1 81  1  0  0  0
  2  3  1  0  0  0
  2 25  1  0  0  0
  2 83  1  0  0  0
  2 84  1  0  0  0
  3  4  1  0  0  0
  3 85  1  0  0  0
  3 86  1  0  0  0
  4  5  1  0  0  0
  4 87  1  0  0  0
  4 88  1  0  0  0
  5  6  1  0  0  0
  5 26  1  0  0  0
  5 89  1  0  0  0
  6 25  1  0  0  0
  6 90  1  0  0  0
  6 91  1  0  0  0
  7  8  2  0  0  0
  7 26  1  0  0  0
  7 29  1  0  0  0
  8  9  1  0  0  0
  8 22  1  0  0  0
  9 10  1  0  0  0
  9 27  2  0  0  0
 10 11  2  0  0  0
 10 15  1  0  0  0
 11 12  1  0  0  0
 11 92  1  0  0  0
 12 13  2  0  0  0
 12 93  1  0  0  0
 13 14  1  0  0  0
 13 31  1  0  0  0
 14 15  2  0  0  0
 14 94  1  0  0  0
 15 95  1  0  0  0
 16 17  2  0  0  0
 16 21  1  0  0  0
 16 31  1  0  0  0
 17 18  1  0  0  0
 17 96  1  0  0  0
 18 19  2  0  0  0
 18 97  1  0  0  0
 19 20  1  0  0  0
 19 24  1  0  0  0
 20 21  2  0  0  0
 20 98  1  0  0  0
 21 23  1  0  0  0
 22 28  1  0  0  0
 22 32  2  0  0  0
 26 27  1  0  0  0
 28 99  1  0  0  0
 28100  1  0  0  0
 29101  1  0  0  0
 29102  1  0  0  0
 33 34  1  0  0  0
 33 66  1  0  0  0
 33 70  2  0  0  0
 34 36  1  0  0  0
 34 59  1  0  0  0
 34103  1  0  0  0
 35 44  2  0  0  0
 35 45  1  0  0  0
 35 68  1  0  0  0
 36 56  1  0  0  0
 36104  1  0  0  0
 37 39  1  0  0  0
 37 47  1  0  0  0
 37 66  1  0  0  0
 37105  1  0  0  0
 38 43  2  0  0  0
 38 46  1  0  0  0
 38 47  1  0  0  0
 39 64  1  0  0  0
 39 67  2  0  0  0
 40 52  1  0  0  0
 40 53  2  0  0  0
 40 58  1  0  0  0
 41106  1  0  0  0
 41107  1  0  0  0
 41108  1  0  0  0
 41 48  1  0  0  0
 42 43  1  0  0  0
 42 66  1  0  0  0
 42109  1  0  0  0
 42110  1  0  0  0
 43 44  1  0  0  0
 44111  1  0  0  0
 45 46  2  0  0  0
 45112  1  0  0  0
 46113  1  0  0  0
 47114  1  0  0  0
 47115  1  0  0  0
 48 56  1  0  0  0
 48 65  1  0  0  0
 48116  1  0  0  0
 49 50  1  0  0  0
 49 53  1  0  0  0
 49 64  1  0  0  0
 49117  1  0  0  0
 50 51  1  0  0  0
 50118  1  0  0  0
 50119  1  0  0  0
 51 52  1  0  0  0
 51120  1  0  0  0
 51121  1  0  0  0
 52122  1  0  0  0
 52123  1  0  0  0
 53 54  1  0  0  0
 54 55  2  0  0  0
 54124  1  0  0  0
 55 57  1  0  0  0
 55125  1  0  0  0
 56 69  2  0  0  0
 57 58  2  0  0  0
 57126  1  0  0  0
 58127  1  0  0  0
 59 60  1  0  0  0
 59 61  1  0  0  0
 59 62  1  0  0  0
 60128  1  0  0  0
 60129  1  0  0  0
 60130  1  0  0  0
 61131  1  0  0  0
 61132  1  0  0  0
 61133  1  0  0  0
 62134  1  0  0  0
 62135  1  0  0  0
 62136  1  0  0  0
 63 65  1  0  0  0
 63137  1  0  0  0
 63138  1  0  0  0
 63139  1  0  0  0
 64140  1  0  0  0
 65141  1  0  0  0
 68 79  1  0  0  0
 71 72  1  0  0  0
 71 80  1  0  0  0
 71 82  2  0  0  0
 72 73  1  0  0  0
 72142  1  0  0  0
 72143  1  0  0  0
 73 74  1  0  0  0
 73144  1  0  0  0
 73145  1  0  0  0
 74 75  1  0  0  0
 74146  1  0  0  0
 74147  1  0  0  0
 75 77  1  0  0  0
 75148  1  0  0  0
 75149  1  0  0  0
 76 78  1  0  0  0
 76 79  1  0  0  0
 76150  1  0  0  0
 76151  1  0  0  0
 77 81  1  0  0  0
 77152  1  0  0  0
 77153  1  0  0  0
 78 80  1  0  0  0
 78154  1  0  0  0
 78155  1  0  0  0
 79156  1  0  0  0
 79157  1  0  0  0
 80158  1  0  0  0
 81159  1  0  0  0
M  ISO  4   1 100  68 101  79 101  81 100
M  END
> <chiral flag>
0

> <version>
0

> <s_m_source_file>
/data/baiqing/PycharmProjects/Reinvent-master-3.2/result/LINK_invent/BTK/process_docking_weight1_custom_sum_contain_oxygen_bond_distance_aromatic_linkinvent_7_9_3/rearranged_h_0003.sdf

> <i_m_source_file_index>
79

> <r_mmod_Potential_Energy-OPLS-2005>
-164.543869018555

> <r_mmod_Stretch_Energy-OPLS-2005>
30.5073356628418

> <r_mmod_Bend_Energy-OPLS-2005>
86.4119110107422

> <r_mmod_Torsional_Energy-OPLS-2005>
229.080459594727

> <r_mmod_Improper_Torsional_Energy-OPLS-2005>
2.14310598373413

> <r_mmod_Van_der_Waal_Energy-OPLS-2005>
128.860260009766

> <r_mmod_Electrostatic_Energy-OPLS-2005>
-412.541107177734

> <r_mmod_Solvation_Energy-OPLS-2005>
-236.403961181641

> <b_mmod_Minimization_Converged-OPLS-2005>
0

> <r_mmod_RMS_Derivative-OPLS-2005>
3.46835994720459

$$$$
81
                    3D
 Structure written by MMmdl.
169177  0  0  1  0            999 V2000
  -30.8418  -14.3293   20.7273 C   0  0  0  0  0  0
  -30.4011  -12.2859   19.4327 C   0  0  0  0  0  0
  -29.4946  -12.5305   18.2117 C   0  0  0  0  0  0
  -28.0158  -12.3742   18.6025 C   0  0  0  0  0  0
  -27.6617  -13.2047   19.8578 C   0  0  2  0  0  0
  -28.6794  -12.9712   20.9884 C   0  0  0  0  0  0
  -25.2589  -13.8169   20.5615 C   0  0  0  0  0  0
  -24.1847  -13.0446   20.9137 C   0  0  0  0  0  0
  -24.6386  -11.6913   20.8682 C   0  0  0  0  0  0
  -23.9038  -10.4303   21.0383 C   0  0  0  0  0  0
  -24.3609   -9.4216   21.9149 C   0  0  0  0  0  0
  -23.6304   -8.2244   22.0730 C   0  0  0  0  0  0
  -22.4274   -8.0280   21.3544 C   0  0  0  0  0  0
  -21.9878   -9.0260   20.4674 C   0  0  0  0  0  0
  -22.7189  -10.2151   20.3068 C   0  0  0  0  0  0
  -21.6856   -6.0736   22.5281 C   0  0  0  0  0  0
  -21.4023   -6.5641   23.8213 C   0  0  0  0  0  0
  -21.3667   -5.6796   24.9179 C   0  0  0  0  0  0
  -21.6048   -4.3055   24.7235 C   0  0  0  0  0  0
  -21.8815   -3.8145   23.4357 C   0  0  0  0  0  0
  -21.9197   -4.6961   22.3411 C   0  0  0  0  0  0
  -22.7878  -13.5260   21.1838 C   0  0  0  0  0  0
  -22.1668   -4.2144   21.0988 F   0  0  0  0  0  0
  -21.5618   -3.4541   25.7749 F   0  0  0  0  0  0
  -30.0508  -13.2367   20.5073 N   0  0  0  0  0  0
  -26.2998  -12.9329   20.3189 N   0  0  0  0  0  0
  -25.9292  -11.6489   20.5627 N   0  0  0  0  0  0
  -22.0521  -12.8251   22.0398 N   0  0  0  0  0  0
  -25.4309  -15.1890   20.4064 N   0  0  0  0  0  0
  -31.7537  -14.6421   19.9593 O   0  0  0  0  0  0
  -21.6641   -6.8875   21.4243 O   0  0  0  0  0  0
  -22.3570  -14.5564   20.6688 O   0  0  0  0  0  0
  -24.6127  -31.8700   23.2115 C   0  0  0  0  0  0
  -25.9026  -32.4835   23.8406 C   0  0  1  0  0  0
  -27.2358  -27.4522   20.0860 C   0  0  0  0  0  0
  -25.5879  -33.8632   24.2342 N   0  0  0  0  0  0
  -23.3985  -30.4946   21.5529 C   0  0  2  0  0  0
  -24.8427  -28.9635   20.1150 C   0  0  0  0  0  0
  -22.7406  -29.4663   22.5007 C   0  0  0  0  0  0
  -18.0266  -28.1371   22.8486 C   0  0  0  0  0  0
  -24.1481  -36.7325   23.2639 C   0  0  0  0  0  0
  -25.9254  -30.8420   21.3590 C   0  0  0  0  0  0
  -26.0022  -29.4775   20.7069 C   0  0  0  0  0  0
  -27.1990  -28.7295   20.6883 C   0  0  0  0  0  0
  -26.0524  -26.9471   19.4955 C   0  0  0  0  0  0
  -24.8622  -27.6973   19.5070 C   0  0  0  0  0  0
  -23.6036  -29.8277   20.1669 C   0  0  0  0  0  0
  -25.4099  -36.3124   24.0346 C   0  0  1  0  0  0
  -20.5851  -28.3659   23.1319 C   0  0  2  0  0  0
  -20.6752  -26.9398   22.5414 C   0  0  0  0  0  0
  -19.5733  -26.6383   21.5208 C   0  0  0  0  0  0
  -18.1913  -26.7915   22.1624 C   0  0  0  0  0  0
  -19.1512  -28.8831   23.2902 C   0  0  0  0  0  0
  -18.9445  -30.1429   23.8928 C   0  0  0  0  0  0
  -17.6449  -30.6583   24.0554 C   0  0  0  0  0  0
  -25.9022  -34.9485   23.5146 C   0  0  0  0  0  0
  -16.5340  -29.9089   23.6306 C   0  0  0  0  0  0
  -16.7254  -28.6494   23.0348 C   0  0  0  0  0  0
  -26.4457  -31.6600   25.0723 C   0  0  0  0  0  0
  -25.3723  -31.3705   26.1473 C   0  0  0  0  0  0
  -27.0271  -30.3048   24.6060 C   0  0  0  0  0  0
  -27.6044  -32.4309   25.7479 C   0  0  0  0  0  0
  -27.5579  -37.1816   24.8466 C   0  0  0  0  0  0
  -21.4134  -29.3038   22.3749 N   0  0  0  0  0  0
  -26.4293  -37.3802   23.9410 N   0  0  0  0  0  0
  -24.6646  -31.0816   22.1008 N   0  0  0  0  0  0
  -23.4191  -28.8210   23.3041 O   0  0  0  0  0  0
  -28.4326  -26.7639   20.0931 O   0  0  0  0  0  0
  -26.5598  -34.8933   22.4714 O   0  0  0  0  0  0
  -23.5325  -32.1435   23.7524 O   0  0  0  0  0  0
  -28.8546  -14.1106   24.9137 C   0  0  0  0  0  0
  -28.0397  -15.2464   25.0649 C   0  0  0  0  0  0
  -29.7674  -14.0431   23.8501 C   0  0  0  0  0  0
  -28.1282  -16.3374   24.1687 C   0  0  0  0  0  0
  -29.0761  -16.2848   23.1026 C   0  0  0  0  0  0
  -29.8514  -15.1069   22.9278 C   0  0  0  0  0  0
  -27.2253  -17.5188   24.4175 C   0  0  0  0  0  0
  -29.2880  -17.4658   22.1497 C   0  0  0  0  0  0
  -27.1636  -22.4760   22.3150 C   0  0  0  0  0  0
  -26.8359  -20.9760   22.2000 C   0  0  0  0  0  0
  -27.7500  -23.1094   21.0409 C   0  0  0  0  0  0
  -26.1160  -20.4742   23.4672 C   0  0  0  0  0  0
  -27.8722  -24.6394   21.1780 C   0  0  0  0  0  0
  -25.5515  -19.0436   23.3822 C   0  0  0  0  0  0
  -28.4291  -25.3436   19.9247 C   0  0  0  0  0  0
  -30.7826  -15.0370   21.8704 N   0  0  0  0  0  0
  -26.5845  -18.0127   23.3502 N   0  0  0  0  0  0
  -27.0410  -17.9374   25.5631 O   0  0  0  0  0  0
  -31.4505  -12.3507   19.1400 H   0  0  0  0  0  0
  -30.2721  -11.2666   19.7994 H   0  0  0  0  0  0
  -29.7452  -11.8342   17.4101 H   0  0  0  0  0  0
  -29.6722  -13.5316   17.8153 H   0  0  0  0  0  0
  -27.8247  -11.3165   18.7883 H   0  0  0  0  0  0
  -27.3719  -12.6595   17.7695 H   0  0  0  0  0  0
  -27.7187  -14.2564   19.5746 H   0  0  0  0  0  0
  -28.6244  -11.9449   21.3547 H   0  0  0  0  0  0
  -28.3443  -13.5896   21.8084 H   0  0  0  0  0  0
  -25.2772   -9.5678   22.4687 H   0  0  0  0  0  0
  -24.0050   -7.4636   22.7432 H   0  0  0  0  0  0
  -21.0802   -8.8758   19.9000 H   0  0  0  0  0  0
  -22.3611  -10.9695   19.6201 H   0  0  0  0  0  0
  -21.2011   -7.6147   23.9710 H   0  0  0  0  0  0
  -21.1481   -6.0540   25.9077 H   0  0  0  0  0  0
  -22.0585   -2.7603   23.2863 H   0  0  0  0  0  0
  -22.4113  -11.9894   22.4765 H   0  0  0  0  0  0
  -21.1171  -13.1330   22.2671 H   0  0  0  0  0  0
  -24.6571  -15.8380   20.4963 H   0  0  0  0  0  0
  -26.2776  -15.6206   20.0592 H   0  0  0  0  0  0
  -26.7102  -32.5550   23.1177 H   0  0  0  0  0  0
  -25.0023  -33.9795   25.0482 H   0  0  0  0  0  0
  -22.6856  -31.3109   21.4169 H   0  0  0  0  0  0
  -23.3739  -35.9662   23.3314 H   0  0  0  0  0  0
  -24.3577  -36.8924   22.2050 H   0  0  0  0  0  0
  -23.7234  -37.6538   23.6638 H   0  0  0  0  0  0
  -26.0278  -31.6060   20.5870 H   0  0  0  0  0  0
  -26.8191  -30.9013   21.9685 H   0  0  0  0  0  0
  -28.0958  -29.1263   21.1441 H   0  0  0  0  0  0
  -26.0222  -25.9820   19.0146 H   0  0  0  0  0  0
  -23.9702  -27.2954   19.0461 H   0  0  0  0  0  0
  -23.7071  -30.6030   19.4071 H   0  0  0  0  0  0
  -22.7283  -29.2455   19.8738 H   0  0  0  0  0  0
  -25.1267  -36.2004   25.0840 H   0  0  0  0  0  0
  -20.9928  -28.3217   24.1443 H   0  0  0  0  0  0
  -20.5639  -26.2281   23.3605 H   0  0  0  0  0  0
  -21.6631  -26.7437   22.1220 H   0  0  0  0  0  0
  -19.6902  -25.6300   21.1226 H   0  0  0  0  0  0
  -19.6662  -27.3208   20.6748 H   0  0  0  0  0  0
  -17.4179  -26.6648   21.4029 H   0  0  0  0  0  0
  -18.0318  -26.0059   22.9024 H   0  0  0  0  0  0
  -19.7927  -30.7215   24.2334 H   0  0  0  0  0  0
  -17.5015  -31.6266   24.5155 H   0  0  0  0  0  0
  -15.5344  -30.3010   23.7609 H   0  0  0  0  0  0
  -15.8648  -28.0816   22.7071 H   0  0  0  0  0  0
  -24.5898  -30.7050   25.7812 H   0  0  0  0  0  0
  -24.8909  -32.2862   26.4918 H   0  0  0  0  0  0
  -25.8074  -30.8877   27.0232 H   0  0  0  0  0  0
  -26.2806  -29.6841   24.1090 H   0  0  0  0  0  0
  -27.4040  -29.7244   25.4491 H   0  0  0  0  0  0
  -27.8640  -30.4390   23.9200 H   0  0  0  0  0  0
  -27.2676  -33.3602   26.2089 H   0  0  0  0  0  0
  -28.3835  -32.6881   25.0289 H   0  0  0  0  0  0
  -28.0730  -31.8408   26.5364 H   0  0  0  0  0  0
  -28.2608  -38.0103   24.7505 H   0  0  0  0  0  0
  -28.1066  -36.2636   24.6298 H   0  0  0  0  0  0
  -27.2304  -37.1476   25.8873 H   0  0  0  0  0  0
  -20.9301  -29.8783   21.6985 H   0  0  0  0  0  0
  -26.0189  -38.2889   24.1399 H   0  0  0  0  0  0
  -28.7759  -13.2890   25.6126 H   0  0  0  0  0  0
  -27.3345  -15.2778   25.8850 H   0  0  0  0  0  0
  -30.3858  -13.1637   23.7345 H   0  0  0  0  0  0
  -29.1432  -18.4249   22.6462 H   0  0  0  0  0  0
  -28.6001  -17.4032   21.3067 H   0  0  0  0  0  0
  -30.2995  -17.5054   21.7477 H   0  0  0  0  0  0
  -27.8524  -22.6313   23.1472 H   0  0  0  0  0  0
  -26.2487  -23.0106   22.5759 H   0  0  0  0  0  0
  -27.7493  -20.4032   22.0319 H   0  0  0  0  0  0
  -26.1990  -20.8088   21.3296 H   0  0  0  0  0  0
  -27.1096  -22.8760   20.1892 H   0  0  0  0  0  0
  -28.7256  -22.6713   20.8246 H   0  0  0  0  0  0
  -25.2779  -21.1410   23.6755 H   0  0  0  0  0  0
  -26.7801  -20.5636   24.3278 H   0  0  0  0  0  0
  -28.5085  -24.8792   22.0306 H   0  0  0  0  0  0
  -26.8888  -25.0448   21.4165 H   0  0  0  0  0  0
  -24.9237  -18.9399   22.4965 H   0  0  0  0  0  0
  -24.8945  -18.8639   24.2351 H   0  0  0  0  0  0
  -27.9105  -25.0395   19.0159 H   0  0  0  0  0  0
  -29.4640  -25.0334   19.7766 H   0  0  0  0  0  0
  -31.4556  -15.7877   21.8645 H   0  0  0  0  0  0
  -26.7683  -17.5653   22.4629 H   0  0  0  0  0  0
  1 25  1  0  0  0
  1 30  2  0  0  0
  1 86  1  0  0  0
  2  3  1  0  0  0
  2 25  1  0  0  0
  2 89  1  0  0  0
  2 90  1  0  0  0
  3  4  1  0  0  0
  3 91  1  0  0  0
  3 92  1  0  0  0
  4  5  1  0  0  0
  4 93  1  0  0  0
  4 94  1  0  0  0
  5  6  1  0  0  0
  5 26  1  0  0  0
  5 95  1  0  0  0
  6 25  1  0  0  0
  6 96  1  0  0  0
  6 97  1  0  0  0
  7  8  2  0  0  0
  7 26  1  0  0  0
  7 29  1  0  0  0
  8  9  1  0  0  0
  8 22  1  0  0  0
  9 10  1  0  0  0
  9 27  2  0  0  0
 10 11  2  0  0  0
 10 15  1  0  0  0
 11 12  1  0  0  0
 11 98  1  0  0  0
 12 13  2  0  0  0
 12 99  1  0  0  0
 13 14  1  0  0  0
 13 31  1  0  0  0
 14 15  2  0  0  0
 14100  1  0  0  0
 15101  1  0  0  0
 16 17  2  0  0  0
 16 21  1  0  0  0
 16 31  1  0  0  0
 17 18  1  0  0  0
 17102  1  0  0  0
 18 19  2  0  0  0
 18103  1  0  0  0
 19 20  1  0  0  0
 19 24  1  0  0  0
 20 21  2  0  0  0
 20104  1  0  0  0
 21 23  1  0  0  0
 22 28  1  0  0  0
 22 32  2  0  0  0
 26 27  1  0  0  0
 28105  1  0  0  0
 28106  1  0  0  0
 29107  1  0  0  0
 29108  1  0  0  0
 33 34  1  0  0  0
 33 66  1  0  0  0
 33 70  2  0  0  0
 34 36  1  0  0  0
 34 59  1  0  0  0
 34109  1  0  0  0
 35 44  2  0  0  0
 35 45  1  0  0  0
 35 68  1  0  0  0
 36 56  1  0  0  0
 36110  1  0  0  0
 37 39  1  0  0  0
 37 47  1  0  0  0
 37 66  1  0  0  0
 37111  1  0  0  0
 38 43  2  0  0  0
 38 46  1  0  0  0
 38 47  1  0  0  0
 39 64  1  0  0  0
 39 67  2  0  0  0
 40 52  1  0  0  0
 40 53  2  0  0  0
 40 58  1  0  0  0
 41112  1  0  0  0
 41113  1  0  0  0
 41114  1  0  0  0
 41 48  1  0  0  0
 42 43  1  0  0  0
 42 66  1  0  0  0
 42115  1  0  0  0
 42116  1  0  0  0
 43 44  1  0  0  0
 44117  1  0  0  0
 45 46  2  0  0  0
 45118  1  0  0  0
 46119  1  0  0  0
 47120  1  0  0  0
 47121  1  0  0  0
 48 56  1  0  0  0
 48 65  1  0  0  0
 48122  1  0  0  0
 49 50  1  0  0  0
 49 53  1  0  0  0
 49 64  1  0  0  0
 49123  1  0  0  0
 50 51  1  0  0  0
 50124  1  0  0  0
 50125  1  0  0  0
 51 52  1  0  0  0
 51126  1  0  0  0
 51127  1  0  0  0
 52128  1  0  0  0
 52129  1  0  0  0
 53 54  1  0  0  0
 54 55  2  0  0  0
 54130  1  0  0  0
 55 57  1  0  0  0
 55131  1  0  0  0
 56 69  2  0  0  0
 57 58  2  0  0  0
 57132  1  0  0  0
 58133  1  0  0  0
 59 60  1  0  0  0
 59 61  1  0  0  0
 59 62  1  0  0  0
 60134  1  0  0  0
 60135  1  0  0  0
 60136  1  0  0  0
 61137  1  0  0  0
 61138  1  0  0  0
 61139  1  0  0  0
 62140  1  0  0  0
 62141  1  0  0  0
 62142  1  0  0  0
 63 65  1  0  0  0
 63143  1  0  0  0
 63144  1  0  0  0
 63145  1  0  0  0
 64146  1  0  0  0
 65147  1  0  0  0
 68 85  1  0  0  0
 71 72  2  0  0  0
 71 73  1  0  0  0
 71148  1  0  0  0
 72 74  1  0  0  0
 72149  1  0  0  0
 73 76  2  0  0  0
 73150  1  0  0  0
 74 75  2  0  0  0
 74 77  1  0  0  0
 75 76  1  0  0  0
 75 78  1  0  0  0
 76 86  1  0  0  0
 77 87  1  0  0  0
 77 88  2  0  0  0
 78151  1  0  0  0
 78152  1  0  0  0
 78153  1  0  0  0
 79 80  1  0  0  0
 79 81  1  0  0  0
 79154  1  0  0  0
 79155  1  0  0  0
 80 82  1  0  0  0
 80156  1  0  0  0
 80157  1  0  0  0
 81 83  1  0  0  0
 81158  1  0  0  0
 81159  1  0  0  0
 82 84  1  0  0  0
 82160  1  0  0  0
 82161  1  0  0  0
 83 85  1  0  0  0
 83162  1  0  0  0
 83163  1  0  0  0
 84 87  1  0  0  0
 84164  1  0  0  0
 84165  1  0  0  0
 85166  1  0  0  0
 85167  1  0  0  0
 86168  1  0  0  0
 87169  1  0  0  0
M  ISO  4   1 100  68 101  85 101  86 100
M  END
> <chiral flag>
0

> <version>
0

> <s_m_source_file>
/data/baiqing/PycharmProjects/Reinvent-master-3.2/result/LINK_invent/BTK/process_docking_weight1_custom_sum_contain_oxygen_bond_distance_aromatic_linkinvent_7_9_3/rearranged_h_0003.sdf

> <i_m_source_file_index>
80

> <r_mmod_Potential_Energy-OPLS-2005>
-56.6661682128906

> <r_mmod_Stretch_Energy-OPLS-2005>
36.7993431091309

> <r_mmod_Bend_Energy-OPLS-2005>
133.841354370117

> <r_mmod_Torsional_Energy-OPLS-2005>
245.907867431641

> <r_mmod_Improper_Torsional_Energy-OPLS-2005>
4.71254539489746

> <r_mmod_Van_der_Waal_Energy-OPLS-2005>
157.309234619141

> <r_mmod_Electrostatic_Energy-OPLS-2005>
-437.367950439453

> <r_mmod_Solvation_Energy-OPLS-2005>
-208.565582275391

> <b_mmod_Minimization_Converged-OPLS-2005>
0

> <r_mmod_RMS_Derivative-OPLS-2005>
1.35253894329071

$$$$
82
                    3D
 Structure written by MMmdl.
174181  0  0  1  0            999 V2000
  -30.7180  -14.4062   20.6510 C   0  0  0  0  0  0
  -30.4372  -12.2888   19.4149 C   0  0  0  0  0  0
  -29.5074  -12.5182   18.2018 C   0  0  0  0  0  0
  -28.0237  -12.3880   18.6085 C   0  0  0  0  0  0
  -27.6742  -13.2019   19.8860 C   0  0  2  0  0  0
  -28.7093  -12.9261   20.9980 C   0  0  0  0  0  0
  -25.2623  -13.8156   20.5725 C   0  0  0  0  0  0
  -24.1869  -13.0453   20.9202 C   0  0  0  0  0  0
  -24.6412  -11.6919   20.8748 C   0  0  0  0  0  0
  -23.9100  -10.4295   21.0404 C   0  0  0  0  0  0
  -24.3657   -9.4198   21.9166 C   0  0  0  0  0  0
  -23.6332   -8.2253   22.0743 C   0  0  0  0  0  0
  -22.4299   -8.0298   21.3551 C   0  0  0  0  0  0
  -21.9934   -9.0284   20.4643 C   0  0  0  0  0  0
  -22.7279  -10.2149   20.3036 C   0  0  0  0  0  0
  -21.6863   -6.0751   22.5300 C   0  0  0  0  0  0
  -21.4024   -6.5647   23.8240 C   0  0  0  0  0  0
  -21.3645   -5.6783   24.9186 C   0  0  0  0  0  0
  -21.6035   -4.3053   24.7202 C   0  0  0  0  0  0
  -21.8823   -3.8144   23.4325 C   0  0  0  0  0  0
  -21.9209   -4.6982   22.3394 C   0  0  0  0  0  0
  -22.7869  -13.5254   21.1832 C   0  0  0  0  0  0
  -22.1673   -4.2171   21.0968 F   0  0  0  0  0  0
  -21.5636   -3.4513   25.7708 F   0  0  0  0  0  0
  -30.0515  -13.2362   20.4714 N   0  0  0  0  0  0
  -26.3086  -12.9327   20.3401 N   0  0  0  0  0  0
  -25.9330  -11.6485   20.5750 N   0  0  0  0  0  0
  -22.0472  -12.8288   22.0412 N   0  0  0  0  0  0
  -25.4327  -15.1871   20.4135 N   0  0  0  0  0  0
  -31.7754  -14.6812   20.0723 O   0  0  0  0  0  0
  -21.6640   -6.8894   21.4267 O   0  0  0  0  0  0
  -22.3535  -14.5539   20.6655 O   0  0  0  0  0  0
  -24.6089  -31.8729   23.2244 C   0  0  0  0  0  0
  -25.9005  -32.4860   23.8495 C   0  0  1  0  0  0
  -27.2174  -27.4700   20.0429 C   0  0  0  0  0  0
  -25.5904  -33.8673   24.2392 N   0  0  0  0  0  0
  -23.3923  -30.5058   21.5654 C   0  0  2  0  0  0
  -24.8298  -28.9904   20.1164 C   0  0  0  0  0  0
  -22.7370  -29.4679   22.5056 C   0  0  0  0  0  0
  -18.0289  -28.1332   22.8527 C   0  0  0  0  0  0
  -24.1482  -36.7327   23.2633 C   0  0  0  0  0  0
  -25.9250  -30.8395   21.3852 C   0  0  0  0  0  0
  -25.9918  -29.4818   20.7203 C   0  0  0  0  0  0
  -27.1813  -28.7220   20.6977 C   0  0  0  0  0  0
  -26.0382  -27.0147   19.4108 C   0  0  0  0  0  0
  -24.8428  -27.7481   19.4683 C   0  0  0  0  0  0
  -23.5947  -29.8552   20.1749 C   0  0  0  0  0  0
  -25.4100  -36.3145   24.0346 C   0  0  1  0  0  0
  -20.5864  -28.3606   23.1359 C   0  0  2  0  0  0
  -20.6791  -26.9352   22.5418 C   0  0  0  0  0  0
  -19.5756  -26.6331   21.5227 C   0  0  0  0  0  0
  -18.1933  -26.7885   22.1626 C   0  0  0  0  0  0
  -19.1531  -28.8778   23.2938 C   0  0  0  0  0  0
  -18.9456  -30.1396   23.8938 C   0  0  0  0  0  0
  -17.6474  -30.6581   24.0515 C   0  0  0  0  0  0
  -25.9027  -34.9511   23.5155 C   0  0  0  0  0  0
  -16.5359  -29.9070   23.6313 C   0  0  0  0  0  0
  -16.7263  -28.6444   23.0393 C   0  0  0  0  0  0
  -26.4467  -31.6648   25.0821 C   0  0  0  0  0  0
  -25.3768  -31.3733   26.1597 C   0  0  0  0  0  0
  -27.0266  -30.3075   24.6226 C   0  0  0  0  0  0
  -27.6054  -32.4376   25.7576 C   0  0  0  0  0  0
  -27.5585  -37.1818   24.8460 C   0  0  0  0  0  0
  -21.4108  -29.3016   22.3799 N   0  0  0  0  0  0
  -26.4288  -37.3829   23.9409 N   0  0  0  0  0  0
  -24.6600  -31.0864   22.1141 N   0  0  0  0  0  0
  -23.4162  -28.8181   23.3044 O   0  0  0  0  0  0
  -28.4126  -26.7802   20.0232 O   0  0  0  0  0  0
  -26.5556  -34.8948   22.4717 O   0  0  0  0  0  0
  -23.5300  -32.1467   23.7657 O   0  0  0  0  0  0
  -26.8602  -23.8489   20.6600 C   0  0  0  0  0  0
  -21.1322  -21.8132   24.9608 C   0  0  0  0  0  0
  -28.3049  -24.3256   20.3968 C   0  0  0  0  0  0
  -22.6585  -21.9607   24.9848 C   0  0  0  0  0  0
  -23.1937  -22.3273   23.5968 C   0  0  0  0  0  0
  -29.4128  -19.0561   21.9704 C   0  0  0  0  0  0
  -29.0594  -20.4033   22.6811 C   0  0  0  0  0  0
  -24.7138  -22.5402   23.5252 C   0  0  0  0  0  0
  -29.3920  -17.5313   22.3218 C   0  0  0  0  0  0
  -27.8888  -21.1499   21.9909 C   0  0  0  0  0  0
  -30.4197  -16.7316   21.4877 C   0  0  0  0  0  0
  -25.1210  -22.9039   22.0819 C   0  0  0  0  0  0
  -27.5640  -22.5134   22.6278 C   0  0  0  0  0  0
  -28.5036  -25.4934   19.3977 C   0  0  0  0  0  0
  -30.1070  -15.2976   21.4468 N   0  0  0  0  0  0
  -26.5471  -23.2155   21.8222 N   0  0  0  0  0  0
  -26.0101  -24.0171   19.7830 O   0  0  0  0  0  0
  -31.4855  -12.3985   19.1246 H   0  0  0  0  0  0
  -30.3406  -11.2673   19.7881 H   0  0  0  0  0  0
  -29.7412  -11.8046   17.4112 H   0  0  0  0  0  0
  -29.6889  -13.5093   17.7811 H   0  0  0  0  0  0
  -27.8301  -11.3309   18.7827 H   0  0  0  0  0  0
  -27.3777  -12.6841   17.7820 H   0  0  0  0  0  0
  -27.7411  -14.2586   19.6297 H   0  0  0  0  0  0
  -28.6715  -11.8712   21.2768 H   0  0  0  0  0  0
  -28.4676  -13.4737   21.9087 H   0  0  0  0  0  0
  -25.2800   -9.5689   22.4728 H   0  0  0  0  0  0
  -24.0064   -7.4617   22.7440 H   0  0  0  0  0  0
  -21.0871   -8.8802   19.8934 H   0  0  0  0  0  0
  -22.3753  -10.9701   19.6146 H   0  0  0  0  0  0
  -21.2016   -7.6147   23.9773 H   0  0  0  0  0  0
  -21.1472   -6.0469   25.9096 H   0  0  0  0  0  0
  -22.0617   -2.7610   23.2806 H   0  0  0  0  0  0
  -22.4119  -12.0039   22.4929 H   0  0  0  0  0  0
  -21.1064  -13.1314   22.2483 H   0  0  0  0  0  0
  -24.6638  -15.8412   20.5108 H   0  0  0  0  0  0
  -26.2831  -15.6307   20.0897 H   0  0  0  0  0  0
  -26.7063  -32.5569   23.1232 H   0  0  0  0  0  0
  -25.0106  -33.9846   25.0579 H   0  0  0  0  0  0
  -22.6777  -31.3224   21.4388 H   0  0  0  0  0  0
  -23.3763  -35.9640   23.3302 H   0  0  0  0  0  0
  -24.3546  -36.8924   22.2040 H   0  0  0  0  0  0
  -23.7216  -37.6534   23.6627 H   0  0  0  0  0  0
  -26.0541  -31.6173   20.6305 H   0  0  0  0  0  0
  -26.8064  -30.8674   22.0143 H   0  0  0  0  0  0
  -28.0788  -29.1005   21.1659 H   0  0  0  0  0  0
  -26.0077  -26.1187   18.8205 H   0  0  0  0  0  0
  -23.9539  -27.3772   18.9771 H   0  0  0  0  0  0
  -23.6986  -30.6377   19.4203 H   0  0  0  0  0  0
  -22.7178  -29.2742   19.8804 H   0  0  0  0  0  0
  -25.1287  -36.2022   25.0832 H   0  0  0  0  0  0
  -20.9933  -28.3137   24.1491 H   0  0  0  0  0  0
  -20.5732  -26.2189   23.3582 H   0  0  0  0  0  0
  -21.6657  -26.7416   22.1195 H   0  0  0  0  0  0
  -19.6858  -25.6224   21.1276 H   0  0  0  0  0  0
  -19.6731  -27.3123   20.6746 H   0  0  0  0  0  0
  -17.4211  -26.6661   21.4009 H   0  0  0  0  0  0
  -18.0320  -26.0021   22.9013 H   0  0  0  0  0  0
  -19.7941  -30.7187   24.2328 H   0  0  0  0  0  0
  -17.5037  -31.6295   24.5047 H   0  0  0  0  0  0
  -15.5357  -30.2966   23.7615 H   0  0  0  0  0  0
  -15.8654  -28.0729   22.7186 H   0  0  0  0  0  0
  -24.5932  -30.7068   25.7961 H   0  0  0  0  0  0
  -24.8991  -32.2900   26.5092 H   0  0  0  0  0  0
  -25.8189  -30.8890   27.0318 H   0  0  0  0  0  0
  -26.2806  -29.6877   24.1235 H   0  0  0  0  0  0
  -27.3916  -29.7288   25.4718 H   0  0  0  0  0  0
  -27.8720  -30.4337   23.9449 H   0  0  0  0  0  0
  -27.2664  -33.3661   26.2181 H   0  0  0  0  0  0
  -28.3868  -32.6951   25.0408 H   0  0  0  0  0  0
  -28.0726  -31.8497   26.5477 H   0  0  0  0  0  0
  -28.2625  -38.0101   24.7532 H   0  0  0  0  0  0
  -28.1067  -36.2642   24.6278 H   0  0  0  0  0  0
  -27.2294  -37.1483   25.8858 H   0  0  0  0  0  0
  -20.9203  -29.8799   21.7131 H   0  0  0  0  0  0
  -26.0195  -38.2905   24.1433 H   0  0  0  0  0  0
  -20.7468  -21.5438   25.9420 H   0  0  0  0  0  0
  -20.8313  -21.0351   24.2575 H   0  0  0  0  0  0
  -20.6511  -22.7425   24.6505 H   0  0  0  0  0  0
  -28.8459  -23.4558   20.0212 H   0  0  0  0  0  0
  -28.7945  -24.6188   21.3217 H   0  0  0  0  0  0
  -23.1068  -21.0253   25.3210 H   0  0  0  0  0  0
  -22.9374  -22.7212   25.7161 H   0  0  0  0  0  0
  -22.6957  -23.2405   23.2653 H   0  0  0  0  0  0
  -22.9075  -21.5474   22.8883 H   0  0  0  0  0  0
  -28.4362  -18.9046   22.4283 H   0  0  0  0  0  0
  -30.3862  -19.0983   22.4672 H   0  0  0  0  0  0
  -29.9234  -21.0727   22.6224 H   0  0  0  0  0  0
  -28.8666  -20.2927   23.7560 H   0  0  0  0  0  0
  -25.2070  -21.6264   23.8555 H   0  0  0  0  0  0
  -25.0130  -23.3373   24.2068 H   0  0  0  0  0  0
  -28.4229  -17.0676   22.0977 H   0  0  0  0  0  0
  -29.5690  -17.3644   23.3883 H   0  0  0  0  0  0
  -26.9802  -20.5422   21.9968 H   0  0  0  0  0  0
  -28.1459  -21.2891   20.9412 H   0  0  0  0  0  0
  -31.4310  -16.8805   21.8694 H   0  0  0  0  0  0
  -30.4188  -17.1107   20.4639 H   0  0  0  0  0  0
  -24.5035  -23.7548   21.7808 H   0  0  0  0  0  0
  -24.8408  -22.0827   21.4206 H   0  0  0  0  0  0
  -28.4756  -23.0991   22.7287 H   0  0  0  0  0  0
  -27.2537  -22.3748   23.6602 H   0  0  0  0  0  0
  -27.9192  -25.3963   18.4847 H   0  0  0  0  0  0
  -29.5309  -25.4303   19.0361 H   0  0  0  0  0  0
  -29.2670  -14.9817   21.9128 H   0  0  0  0  0  0
  1 25  1  0  0  0
  1 30  2  0  0  0
  1 85  1  0  0  0
  2  3  1  0  0  0
  2 25  1  0  0  0
  2 88  1  0  0  0
  2 89  1  0  0  0
  3  4  1  0  0  0
  3 90  1  0  0  0
  3 91  1  0  0  0
  4  5  1  0  0  0
  4 92  1  0  0  0
  4 93  1  0  0  0
  5  6  1  0  0  0
  5 26  1  0  0  0
  5 94  1  0  0  0
  6 25  1  0  0  0
  6 95  1  0  0  0
  6 96  1  0  0  0
  7  8  2  0  0  0
  7 26  1  0  0  0
  7 29  1  0  0  0
  8  9  1  0  0  0
  8 22  1  0  0  0
  9 10  1  0  0  0
  9 27  2  0  0  0
 10 11  2  0  0  0
 10 15  1  0  0  0
 11 12  1  0  0  0
 11 97  1  0  0  0
 12 13  2  0  0  0
 12 98  1  0  0  0
 13 14  1  0  0  0
 13 31  1  0  0  0
 14 15  2  0  0  0
 14 99  1  0  0  0
 15100  1  0  0  0
 16 17  2  0  0  0
 16 21  1  0  0  0
 16 31  1  0  0  0
 17 18  1  0  0  0
 17101  1  0  0  0
 18 19  2  0  0  0
 18102  1  0  0  0
 19 20  1  0  0  0
 19 24  1  0  0  0
 20 21  2  0  0  0
 20103  1  0  0  0
 21 23  1  0  0  0
 22 28  1  0  0  0
 22 32  2  0  0  0
 26 27  1  0  0  0
 28104  1  0  0  0
 28105  1  0  0  0
 29106  1  0  0  0
 29107  1  0  0  0
 33 34  1  0  0  0
 33 66  1  0  0  0
 33 70  2  0  0  0
 34 36  1  0  0  0
 34 59  1  0  0  0
 34108  1  0  0  0
 35 44  2  0  0  0
 35 45  1  0  0  0
 35 68  1  0  0  0
 36 56  1  0  0  0
 36109  1  0  0  0
 37 39  1  0  0  0
 37 47  1  0  0  0
 37 66  1  0  0  0
 37110  1  0  0  0
 38 43  2  0  0  0
 38 46  1  0  0  0
 38 47  1  0  0  0
 39 64  1  0  0  0
 39 67  2  0  0  0
 40 52  1  0  0  0
 40 53  2  0  0  0
 40 58  1  0  0  0
 41111  1  0  0  0
 41112  1  0  0  0
 41113  1  0  0  0
 41 48  1  0  0  0
 42 43  1  0  0  0
 42 66  1  0  0  0
 42114  1  0  0  0
 42115  1  0  0  0
 43 44  1  0  0  0
 44116  1  0  0  0
 45 46  2  0  0  0
 45117  1  0  0  0
 46118  1  0  0  0
 47119  1  0  0  0
 47120  1  0  0  0
 48 56  1  0  0  0
 48 65  1  0  0  0
 48121  1  0  0  0
 49 50  1  0  0  0
 49 53  1  0  0  0
 49 64  1  0  0  0
 49122  1  0  0  0
 50 51  1  0  0  0
 50123  1  0  0  0
 50124  1  0  0  0
 51 52  1  0  0  0
 51125  1  0  0  0
 51126  1  0  0  0
 52127  1  0  0  0
 52128  1  0  0  0
 53 54  1  0  0  0
 54 55  2  0  0  0
 54129  1  0  0  0
 55 57  1  0  0  0
 55130  1  0  0  0
 56 69  2  0  0  0
 57 58  2  0  0  0
 57131  1  0  0  0
 58132  1  0  0  0
 59 60  1  0  0  0
 59 61  1  0  0  0
 59 62  1  0  0  0
 60133  1  0  0  0
 60134  1  0  0  0
 60135  1  0  0  0
 61136  1  0  0  0
 61137  1  0  0  0
 61138  1  0  0  0
 62139  1  0  0  0
 62140  1  0  0  0
 62141  1  0  0  0
 63 65  1  0  0  0
 63142  1  0  0  0
 63143  1  0  0  0
 63144  1  0  0  0
 64145  1  0  0  0
 65146  1  0  0  0
 68 84  1  0  0  0
 71 73  1  0  0  0
 71 86  1  0  0  0
 71 87  2  0  0  0
 72 74  1  0  0  0
 72147  1  0  0  0
 72148  1  0  0  0
 72149  1  0  0  0
 73 84  1  0  0  0
 73150  1  0  0  0
 73151  1  0  0  0
 74 75  1  0  0  0
 74152  1  0  0  0
 74153  1  0  0  0
 75 78  1  0  0  0
 75154  1  0  0  0
 75155  1  0  0  0
 76 77  1  0  0  0
 76 79  1  0  0  0
 76156  1  0  0  0
 76157  1  0  0  0
 77 80  1  0  0  0
 77158  1  0  0  0
 77159  1  0  0  0
 78 82  1  0  0  0
 78160  1  0  0  0
 78161  1  0  0  0
 79 81  1  0  0  0
 79162  1  0  0  0
 79163  1  0  0  0
 80 83  1  0  0  0
 80164  1  0  0  0
 80165  1  0  0  0
 81 85  1  0  0  0
 81166  1  0  0  0
 81167  1  0  0  0
 82 86  1  0  0  0
 82168  1  0  0  0
 82169  1  0  0  0
 83 86  1  0  0  0
 83170  1  0  0  0
 83171  1  0  0  0
 84172  1  0  0  0
 84173  1  0  0  0
 85174  1  0  0  0
M  ISO  4   1 100  68 101  84 101  85 100
M  END
> <chiral flag>
0

> <version>
0

> <s_m_source_file>
/data/baiqing/PycharmProjects/Reinvent-master-3.2/result/LINK_invent/BTK/process_docking_weight1_custom_sum_contain_oxygen_bond_distance_aromatic_linkinvent_7_9_3/rearranged_h_0003.sdf

> <i_m_source_file_index>
81

> <r_mmod_Potential_Energy-OPLS-2005>
238.127914428711

> <r_mmod_Stretch_Energy-OPLS-2005>
39.9164619445801

> <r_mmod_Bend_Energy-OPLS-2005>
351.870452880859

> <r_mmod_Torsional_Energy-OPLS-2005>
235.859939575195

> <r_mmod_Improper_Torsional_Energy-OPLS-2005>
3.72574019432068

> <r_mmod_Van_der_Waal_Energy-OPLS-2005>
169.675476074219

> <r_mmod_Electrostatic_Energy-OPLS-2005>
-362.353424072266

> <r_mmod_Solvation_Energy-OPLS-2005>
-211.5927734375

> <b_mmod_Minimization_Converged-OPLS-2005>
0

> <r_mmod_RMS_Derivative-OPLS-2005>
5.08367538452148

$$$$
83
                    3D
 Structure written by MMmdl.
162169  0  0  1  0            999 V2000
  -30.7396  -14.4463   20.6619 C   0  0  0  0  0  0
  -30.4138  -12.3125   19.4499 C   0  0  0  0  0  0
  -29.5036  -12.5355   18.2265 C   0  0  0  0  0  0
  -28.0296  -12.3523   18.6309 C   0  0  0  0  0  0
  -27.6605  -13.2058   19.8739 C   0  0  2  0  0  0
  -28.6890  -13.0197   21.0119 C   0  0  0  0  0  0
  -25.2558  -13.8180   20.5643 C   0  0  0  0  0  0
  -24.1820  -13.0409   20.9117 C   0  0  0  0  0  0
  -24.6378  -11.6889   20.8672 C   0  0  0  0  0  0
  -23.9032  -10.4267   21.0377 C   0  0  0  0  0  0
  -24.3583   -9.4200   21.9178 C   0  0  0  0  0  0
  -23.6275   -8.2231   22.0754 C   0  0  0  0  0  0
  -22.4270   -8.0248   21.3526 C   0  0  0  0  0  0
  -21.9887   -9.0204   20.4642 C   0  0  0  0  0  0
  -22.7184  -10.2097   20.3053 C   0  0  0  0  0  0
  -21.6858   -6.0728   22.5257 C   0  0  0  0  0  0
  -21.4032   -6.5637   23.8179 C   0  0  0  0  0  0
  -21.3674   -5.6788   24.9155 C   0  0  0  0  0  0
  -21.6039   -4.3045   24.7213 C   0  0  0  0  0  0
  -21.8815   -3.8143   23.4345 C   0  0  0  0  0  0
  -21.9177   -4.6964   22.3406 C   0  0  0  0  0  0
  -22.7851  -13.5225   21.1791 C   0  0  0  0  0  0
  -22.1644   -4.2157   21.0983 F   0  0  0  0  0  0
  -21.5620   -3.4525   25.7728 F   0  0  0  0  0  0
  -30.0371  -13.2942   20.4792 N   0  0  0  0  0  0
  -26.2996  -12.9322   20.3347 N   0  0  0  0  0  0
  -25.9301  -11.6465   20.5748 N   0  0  0  0  0  0
  -22.0532  -12.8201   22.0401 N   0  0  0  0  0  0
  -25.4217  -15.1910   20.4028 N   0  0  0  0  0  0
  -31.7884  -14.6900   20.0572 O   0  0  0  0  0  0
  -21.6623   -6.8858   21.4218 O   0  0  0  0  0  0
  -22.3524  -14.5523   20.6647 O   0  0  0  0  0  0
  -24.6082  -31.8751   23.2139 C   0  0  0  0  0  0
  -25.9009  -32.4872   23.8457 C   0  0  1  0  0  0
  -27.2276  -27.4583   20.0717 C   0  0  0  0  0  0
  -25.5839  -33.8659   24.2358 N   0  0  0  0  0  0
  -23.3999  -30.4963   21.5536 C   0  0  2  0  0  0
  -24.8426  -28.9714   20.1195 C   0  0  0  0  0  0
  -22.7389  -29.4685   22.4973 C   0  0  0  0  0  0
  -18.0198  -28.1423   22.8534 C   0  0  0  0  0  0
  -24.1483  -36.7322   23.2631 C   0  0  0  0  0  0
  -25.9249  -30.8422   21.3688 C   0  0  0  0  0  0
  -25.9982  -29.4756   20.7220 C   0  0  0  0  0  0
  -27.1902  -28.7171   20.7150 C   0  0  0  0  0  0
  -26.0463  -26.9654   19.4734 C   0  0  0  0  0  0
  -24.8548  -27.7111   19.5018 C   0  0  0  0  0  0
  -23.6096  -29.8406   20.1660 C   0  0  0  0  0  0
  -25.4103  -36.3130   24.0324 C   0  0  1  0  0  0
  -20.5840  -28.3658   23.1222 C   0  0  2  0  0  0
  -20.6713  -26.9428   22.5260 C   0  0  0  0  0  0
  -19.5518  -26.6342   21.5252 C   0  0  0  0  0  0
  -18.1844  -26.7808   22.1990 C   0  0  0  0  0  0
  -19.1512  -28.8863   23.2848 C   0  0  0  0  0  0
  -18.9518  -30.1452   23.8886 C   0  0  0  0  0  0
  -17.6570  -30.6634   24.0615 C   0  0  0  0  0  0
  -25.8989  -34.9495   23.5138 C   0  0  0  0  0  0
  -16.5391  -29.9193   23.6438 C   0  0  0  0  0  0
  -16.7222  -28.6609   23.0417 C   0  0  0  0  0  0
  -26.4451  -31.6636   25.0762 C   0  0  0  0  0  0
  -25.3702  -31.3734   26.1491 C   0  0  0  0  0  0
  -27.0274  -30.3089   24.6123 C   0  0  0  0  0  0
  -27.6036  -32.4332   25.7493 C   0  0  0  0  0  0
  -27.5592  -37.1832   24.8460 C   0  0  0  0  0  0
  -21.4146  -29.3004   22.3649 N   0  0  0  0  0  0
  -26.4305  -37.3807   23.9375 N   0  0  0  0  0  0
  -24.6617  -31.0855   22.1032 N   0  0  0  0  0  0
  -23.4170  -28.8245   23.3025 O   0  0  0  0  0  0
  -28.4151  -26.7582   20.0742 O   0  0  0  0  0  0
  -26.5587  -34.8908   22.4734 O   0  0  0  0  0  0
  -23.5263  -32.1513   23.7501 O   0  0  0  0  0  0
  -25.7526  -20.6361   21.1127 C   0  0  0  0  0  0
  -26.8757  -20.2741   22.1120 C   0  0  0  0  0  0
  -28.0292  -19.4051   21.4722 C   0  0  0  0  0  0
  -28.6935  -18.0744   21.9934 C   0  0  0  0  0  0
  -30.1341  -17.8650   21.4737 C   0  0  0  0  0  0
  -27.1504  -23.6663   19.7123 C   0  0  0  0  0  0
  -28.5531  -24.3119   19.6122 C   0  0  0  0  0  0
  -27.2773  -22.1340   19.7904 C   0  0  0  0  0  0
  -30.8260  -16.5822   22.0152 C   0  0  0  0  0  0
  -28.6453  -25.7619   19.0777 C   0  0  0  0  0  0
  -26.0074  -21.4750   20.0966 N   0  0  0  0  0  0
  -30.2273  -15.3169   21.5498 N   0  0  0  0  0  0
  -24.6356  -20.1324   21.2516 O   0  0  0  0  0  0
  -31.4683  -12.3865   19.1756 H   0  0  0  0  0  0
  -30.2756  -11.3054   19.8447 H   0  0  0  0  0  0
  -29.7696  -11.8467   17.4244 H   0  0  0  0  0  0
  -29.6556  -13.5437   17.8379 H   0  0  0  0  0  0
  -27.8632  -11.2919   18.8410 H   0  0  0  0  0  0
  -27.3802  -12.6052   17.7953 H   0  0  0  0  0  0
  -27.6999  -14.2503   19.5645 H   0  0  0  0  0  0
  -28.6505  -12.0074   21.4138 H   0  0  0  0  0  0
  -28.4280  -13.6639   21.8543 H   0  0  0  0  0  0
  -25.2745   -9.5673   22.4709 H   0  0  0  0  0  0
  -23.9968   -7.4660   22.7508 H   0  0  0  0  0  0
  -21.0787   -8.8685   19.9000 H   0  0  0  0  0  0
  -22.3609  -10.9585   19.6147 H   0  0  0  0  0  0
  -21.2059   -7.6139   23.9692 H   0  0  0  0  0  0
  -21.1500   -6.0532   25.9053 H   0  0  0  0  0  0
  -22.0599   -2.7602   23.2825 H   0  0  0  0  0  0
  -22.4157  -11.9857   22.4742 H   0  0  0  0  0  0
  -21.1186  -13.1246   22.2714 H   0  0  0  0  0  0
  -24.6336  -15.8255   20.4775 H   0  0  0  0  0  0
  -26.2697  -15.6326   20.0670 H   0  0  0  0  0  0
  -26.7113  -32.5621   23.1240 H   0  0  0  0  0  0
  -25.0020  -33.9865   25.0535 H   0  0  0  0  0  0
  -22.6916  -31.3158   21.4210 H   0  0  0  0  0  0
  -23.3744  -35.9669   23.3315 H   0  0  0  0  0  0
  -24.3587  -36.8922   22.2055 H   0  0  0  0  0  0
  -23.7245  -37.6517   23.6667 H   0  0  0  0  0  0
  -26.0318  -31.6081   20.5968 H   0  0  0  0  0  0
  -26.8142  -30.9021   21.9843 H   0  0  0  0  0  0
  -28.0823  -29.1066   21.1871 H   0  0  0  0  0  0
  -26.0139  -26.0126   18.9728 H   0  0  0  0  0  0
  -23.9633  -27.3226   19.0310 H   0  0  0  0  0  0
  -22.7354  -29.2627   19.8574 H   0  0  0  0  0  0
  -23.7266  -30.6229   19.4157 H   0  0  0  0  0  0
  -25.1308  -36.2052   25.0831 H   0  0  0  0  0  0
  -20.9936  -28.3121   24.1322 H   0  0  0  0  0  0
  -20.5797  -26.2270   23.3425 H   0  0  0  0  0  0
  -21.6455  -26.7508   22.0782 H   0  0  0  0  0  0
  -19.6667  -25.6245   21.1322 H   0  0  0  0  0  0
  -19.6260  -27.3128   20.6747 H   0  0  0  0  0  0
  -17.3796  -26.6070   21.4805 H   0  0  0  0  0  0
  -18.0760  -26.0239   22.9783 H   0  0  0  0  0  0
  -19.8073  -30.7227   24.2179 H   0  0  0  0  0  0
  -17.5221  -31.6281   24.5282 H   0  0  0  0  0  0
  -15.5415  -30.3134   23.7919 H   0  0  0  0  0  0
  -15.8560  -28.0991   22.7226 H   0  0  0  0  0  0
  -24.5812  -30.7179   25.7806 H   0  0  0  0  0  0
  -24.8935  -32.2887   26.5042 H   0  0  0  0  0  0
  -25.7975  -30.8800   27.0239 H   0  0  0  0  0  0
  -26.2833  -29.6855   24.1121 H   0  0  0  0  0  0
  -27.4031  -29.7310   25.4594 H   0  0  0  0  0  0
  -27.8694  -30.4432   23.9288 H   0  0  0  0  0  0
  -27.2692  -33.3602   26.2179 H   0  0  0  0  0  0
  -28.3760  -32.6957   25.0250 H   0  0  0  0  0  0
  -28.0837  -31.8411   26.5310 H   0  0  0  0  0  0
  -28.2625  -38.0114   24.7503 H   0  0  0  0  0  0
  -28.1039  -36.2648   24.6289 H   0  0  0  0  0  0
  -27.2272  -37.1479   25.8843 H   0  0  0  0  0  0
  -20.9332  -29.8669   21.6801 H   0  0  0  0  0  0
  -26.0191  -38.2876   24.1408 H   0  0  0  0  0  0
  -26.4188  -19.7654   22.9661 H   0  0  0  0  0  0
  -27.2292  -21.2213   22.5303 H   0  0  0  0  0  0
  -27.1705  -18.7467   21.3656 H   0  0  0  0  0  0
  -28.6144  -19.8695   22.2737 H   0  0  0  0  0  0
  -28.1382  -17.1721   21.7136 H   0  0  0  0  0  0
  -28.7069  -18.0546   23.0880 H   0  0  0  0  0  0
  -30.7329  -18.7251   21.7833 H   0  0  0  0  0  0
  -30.1530  -17.8872   20.3805 H   0  0  0  0  0  0
  -26.5526  -23.9060   18.8334 H   0  0  0  0  0  0
  -26.6064  -24.0573   20.5756 H   0  0  0  0  0  0
  -29.1517  -23.6982   18.9312 H   0  0  0  0  0  0
  -29.0570  -24.2426   20.5815 H   0  0  0  0  0  0
  -28.0658  -21.8920   20.5026 H   0  0  0  0  0  0
  -27.6122  -21.7540   18.8231 H   0  0  0  0  0  0
  -30.7920  -16.5980   23.1066 H   0  0  0  0  0  0
  -31.8896  -16.6039   21.7748 H   0  0  0  0  0  0
  -28.0733  -25.9119   18.1613 H   0  0  0  0  0  0
  -29.6775  -25.9168   18.7609 H   0  0  0  0  0  0
  -25.2698  -21.5954   19.4149 H   0  0  0  0  0  0
  -29.3756  -15.0324   22.0107 H   0  0  0  0  0  0
  1 25  1  0  0  0
  1 30  2  0  0  0
  1 82  1  0  0  0
  2  3  1  0  0  0
  2 25  1  0  0  0
  2 84  1  0  0  0
  2 85  1  0  0  0
  3  4  1  0  0  0
  3 86  1  0  0  0
  3 87  1  0  0  0
  4  5  1  0  0  0
  4 88  1  0  0  0
  4 89  1  0  0  0
  5  6  1  0  0  0
  5 26  1  0  0  0
  5 90  1  0  0  0
  6 25  1  0  0  0
  6 91  1  0  0  0
  6 92  1  0  0  0
  7  8  2  0  0  0
  7 26  1  0  0  0
  7 29  1  0  0  0
  8  9  1  0  0  0
  8 22  1  0  0  0
  9 10  1  0  0  0
  9 27  2  0  0  0
 10 11  2  0  0  0
 10 15  1  0  0  0
 11 12  1  0  0  0
 11 93  1  0  0  0
 12 13  2  0  0  0
 12 94  1  0  0  0
 13 14  1  0  0  0
 13 31  1  0  0  0
 14 15  2  0  0  0
 14 95  1  0  0  0
 15 96  1  0  0  0
 16 17  2  0  0  0
 16 21  1  0  0  0
 16 31  1  0  0  0
 17 18  1  0  0  0
 17 97  1  0  0  0
 18 19  2  0  0  0
 18 98  1  0  0  0
 19 20  1  0  0  0
 19 24  1  0  0  0
 20 21  2  0  0  0
 20 99  1  0  0  0
 21 23  1  0  0  0
 22 28  1  0  0  0
 22 32  2  0  0  0
 26 27  1  0  0  0
 28100  1  0  0  0
 28101  1  0  0  0
 29102  1  0  0  0
 29103  1  0  0  0
 33 34  1  0  0  0
 33 66  1  0  0  0
 33 70  2  0  0  0
 34 36  1  0  0  0
 34 59  1  0  0  0
 34104  1  0  0  0
 35 44  2  0  0  0
 35 45  1  0  0  0
 35 68  1  0  0  0
 36 56  1  0  0  0
 36105  1  0  0  0
 37 39  1  0  0  0
 37 47  1  0  0  0
 37 66  1  0  0  0
 37106  1  0  0  0
 38 43  2  0  0  0
 38 46  1  0  0  0
 38 47  1  0  0  0
 39 64  1  0  0  0
 39 67  2  0  0  0
 40 52  1  0  0  0
 40 53  2  0  0  0
 40 58  1  0  0  0
 41107  1  0  0  0
 41108  1  0  0  0
 41109  1  0  0  0
 41 48  1  0  0  0
 42 43  1  0  0  0
 42 66  1  0  0  0
 42110  1  0  0  0
 42111  1  0  0  0
 43 44  1  0  0  0
 44112  1  0  0  0
 45 46  2  0  0  0
 45113  1  0  0  0
 46114  1  0  0  0
 47115  1  0  0  0
 47116  1  0  0  0
 48 56  1  0  0  0
 48 65  1  0  0  0
 48117  1  0  0  0
 49 50  1  0  0  0
 49 53  1  0  0  0
 49 64  1  0  0  0
 49118  1  0  0  0
 50 51  1  0  0  0
 50119  1  0  0  0
 50120  1  0  0  0
 51 52  1  0  0  0
 51121  1  0  0  0
 51122  1  0  0  0
 52123  1  0  0  0
 52124  1  0  0  0
 53 54  1  0  0  0
 54 55  2  0  0  0
 54125  1  0  0  0
 55 57  1  0  0  0
 55126  1  0  0  0
 56 69  2  0  0  0
 57 58  2  0  0  0
 57127  1  0  0  0
 58128  1  0  0  0
 59 60  1  0  0  0
 59 61  1  0  0  0
 59 62  1  0  0  0
 60129  1  0  0  0
 60130  1  0  0  0
 60131  1  0  0  0
 61132  1  0  0  0
 61133  1  0  0  0
 61134  1  0  0  0
 62135  1  0  0  0
 62136  1  0  0  0
 62137  1  0  0  0
 63 65  1  0  0  0
 63138  1  0  0  0
 63139  1  0  0  0
 63140  1  0  0  0
 64141  1  0  0  0
 65142  1  0  0  0
 68 80  1  0  0  0
 71 72  1  0  0  0
 71 81  1  0  0  0
 71 83  2  0  0  0
 72 73  1  0  0  0
 72143  1  0  0  0
 72144  1  0  0  0
 73 74  1  0  0  0
 73145  1  0  0  0
 73146  1  0  0  0
 74 75  1  0  0  0
 74147  1  0  0  0
 74148  1  0  0  0
 75 79  1  0  0  0
 75149  1  0  0  0
 75150  1  0  0  0
 76 77  1  0  0  0
 76 78  1  0  0  0
 76151  1  0  0  0
 76152  1  0  0  0
 77 80  1  0  0  0
 77153  1  0  0  0
 77154  1  0  0  0
 78 81  1  0  0  0
 78155  1  0  0  0
 78156  1  0  0  0
 79 82  1  0  0  0
 79157  1  0  0  0
 79158  1  0  0  0
 80159  1  0  0  0
 80160  1  0  0  0
 81161  1  0  0  0
 82162  1  0  0  0
M  ISO  4   1 100  68 101  80 101  82 100
M  END
> <chiral flag>
0

> <version>
0

> <s_m_source_file>
/data/baiqing/PycharmProjects/Reinvent-master-3.2/result/LINK_invent/BTK/process_docking_weight1_custom_sum_contain_oxygen_bond_distance_aromatic_linkinvent_7_9_3/rearranged_h_0003.sdf

> <i_m_source_file_index>
82

> <r_mmod_Potential_Energy-OPLS-2005>
114.189590454102

> <r_mmod_Stretch_Energy-OPLS-2005>
39.4447364807129

> <r_mmod_Bend_Energy-OPLS-2005>
336.224822998047

> <r_mmod_Torsional_Energy-OPLS-2005>
227.520751953125

> <r_mmod_Improper_Torsional_Energy-OPLS-2005>
2.12363481521606

> <r_mmod_Van_der_Waal_Energy-OPLS-2005>
156.500213623047

> <r_mmod_Electrostatic_Energy-OPLS-2005>
-426.161041259766

> <r_mmod_Solvation_Energy-OPLS-2005>
-232.57649230957

> <b_mmod_Minimization_Converged-OPLS-2005>
0

> <r_mmod_RMS_Derivative-OPLS-2005>
7.90074396133423

$$$$
84
                    3D
 Structure written by MMmdl.
168176  0  0  1  0            999 V2000
  -30.6780  -14.4449   20.5807 C   0  0  0  0  0  0
  -30.4241  -12.2901   19.4186 C   0  0  0  0  0  0
  -29.4964  -12.5331   18.2077 C   0  0  0  0  0  0
  -28.0150  -12.3928   18.6129 C   0  0  0  0  0  0
  -27.6663  -13.2024   19.8904 C   0  0  2  0  0  0
  -28.7053  -12.9321   21.0049 C   0  0  0  0  0  0
  -25.2560  -13.8153   20.5658 C   0  0  0  0  0  0
  -24.1796  -13.0446   20.9169 C   0  0  0  0  0  0
  -24.6362  -11.6917   20.8739 C   0  0  0  0  0  0
  -23.9034  -10.4301   21.0419 C   0  0  0  0  0  0
  -24.3593   -9.4213   21.9194 C   0  0  0  0  0  0
  -23.6261   -8.2250   22.0756 C   0  0  0  0  0  0
  -22.4243   -8.0290   21.3549 C   0  0  0  0  0  0
  -21.9878   -9.0270   20.4664 C   0  0  0  0  0  0
  -22.7208  -10.2145   20.3066 C   0  0  0  0  0  0
  -21.6850   -6.0723   22.5281 C   0  0  0  0  0  0
  -21.4024   -6.5627   23.8221 C   0  0  0  0  0  0
  -21.3656   -5.6777   24.9175 C   0  0  0  0  0  0
  -21.6046   -4.3041   24.7233 C   0  0  0  0  0  0
  -21.8820   -3.8132   23.4353 C   0  0  0  0  0  0
  -21.9186   -4.6950   22.3404 C   0  0  0  0  0  0
  -22.7815  -13.5256   21.1834 C   0  0  0  0  0  0
  -22.1650   -4.2133   21.0980 F   0  0  0  0  0  0
  -21.5630   -3.4527   25.7751 F   0  0  0  0  0  0
  -30.0474  -13.2433   20.4730 N   0  0  0  0  0  0
  -26.3024  -12.9328   20.3416 N   0  0  0  0  0  0
  -25.9289  -11.6491   20.5774 N   0  0  0  0  0  0
  -22.0436  -12.8272   22.0406 N   0  0  0  0  0  0
  -25.4264  -15.1875   20.4014 N   0  0  0  0  0  0
  -31.7462  -14.6948   20.0179 O   0  0  0  0  0  0
  -21.6624   -6.8872   21.4242 O   0  0  0  0  0  0
  -22.3517  -14.5562   20.6663 O   0  0  0  0  0  0
  -24.6117  -31.8699   23.2131 C   0  0  0  0  0  0
  -25.9033  -32.4831   23.8410 C   0  0  1  0  0  0
  -27.2426  -27.4698   20.0797 C   0  0  0  0  0  0
  -25.5901  -33.8628   24.2344 N   0  0  0  0  0  0
  -23.3963  -30.4932   21.5532 C   0  0  2  0  0  0
  -24.8432  -28.9588   20.1181 C   0  0  0  0  0  0
  -22.7385  -29.4665   22.5016 C   0  0  0  0  0  0
  -18.0266  -28.1370   22.8492 C   0  0  0  0  0  0
  -24.1477  -36.7326   23.2632 C   0  0  0  0  0  0
  -25.9210  -30.8419   21.3615 C   0  0  0  0  0  0
  -25.9991  -29.4754   20.7159 C   0  0  0  0  0  0
  -27.1969  -28.7302   20.7092 C   0  0  0  0  0  0
  -26.0663  -26.9484   19.4966 C   0  0  0  0  0  0
  -24.8677  -27.6885   19.5134 C   0  0  0  0  0  0
  -23.6033  -29.8233   20.1673 C   0  0  0  0  0  0
  -25.4093  -36.3115   24.0334 C   0  0  1  0  0  0
  -20.5853  -28.3648   23.1332 C   0  0  2  0  0  0
  -20.6758  -26.9388   22.5428 C   0  0  0  0  0  0
  -19.5745  -26.6381   21.5216 C   0  0  0  0  0  0
  -18.1916  -26.7919   22.1615 C   0  0  0  0  0  0
  -19.1515  -28.8825   23.2910 C   0  0  0  0  0  0
  -18.9448  -30.1428   23.8927 C   0  0  0  0  0  0
  -17.6453  -30.6574   24.0577 C   0  0  0  0  0  0
  -25.9021  -34.9481   23.5128 C   0  0  0  0  0  0
  -16.5341  -29.9083   23.6322 C   0  0  0  0  0  0
  -16.7258  -28.6498   23.0343 C   0  0  0  0  0  0
  -26.4476  -31.6607   25.0728 C   0  0  0  0  0  0
  -25.3770  -31.3723   26.1499 C   0  0  0  0  0  0
  -27.0298  -30.3051   24.6091 C   0  0  0  0  0  0
  -27.6053  -32.4328   25.7485 C   0  0  0  0  0  0
  -27.5566  -37.1816   24.8456 C   0  0  0  0  0  0
  -21.4119  -29.3012   22.3744 N   0  0  0  0  0  0
  -26.4276  -37.3801   23.9404 N   0  0  0  0  0  0
  -24.6612  -31.0825   22.1017 N   0  0  0  0  0  0
  -23.4172  -28.8211   23.3053 O   0  0  0  0  0  0
  -28.4260  -26.7685   20.0728 O   0  0  0  0  0  0
  -26.5575  -34.8925   22.4685 O   0  0  0  0  0  0
  -23.5328  -32.1434   23.7563 O   0  0  0  0  0  0
  -29.6906  -22.4115   16.1454 C   0  0  0  0  0  0
  -30.0217  -21.1095   15.7393 C   0  0  0  0  0  0
  -30.4462  -21.9025   18.4025 C   0  0  0  0  0  0
  -30.8177  -20.5998   17.9909 C   0  0  0  0  0  0
  -29.8867  -22.8173   17.4769 C   0  0  0  0  0  0
  -30.6032  -20.1918   16.6486 C   0  0  0  0  0  0
  -30.8129  -17.6745   20.3785 C   0  0  0  0  0  0
  -29.1920  -24.7375   18.9322 C   0  0  0  0  0  0
  -31.4651  -19.6482   18.9969 C   0  0  0  0  0  0
  -29.6498  -16.7329   20.7174 C   0  0  0  0  0  0
  -28.8450  -26.2302   18.8163 C   0  0  0  0  0  0
  -31.7875  -18.9449   13.9690 C   0  0  0  0  0  0
  -30.7383  -18.4292   14.9747 C   0  0  0  0  0  0
  -29.5516  -24.1631   17.7739 N   0  0  0  0  0  0
  -30.5427  -18.6243   19.4712 N   0  0  0  0  0  0
  -29.9519  -15.3803   21.2111 N   0  0  0  0  0  0
  -33.1633  -18.6305   14.4045 N   0  3  0  0  0  0
  -31.8996  -17.5804   20.9522 O   0  0  0  0  0  0
  -29.1247  -24.1457   20.0134 O   0  0  0  0  0  0
  -30.9922  -18.9147   16.2965 O   0  0  0  0  0  0
  -31.4717  -12.3851   19.1268 H   0  0  0  0  0  0
  -30.3096  -11.2693   19.7864 H   0  0  0  0  0  0
  -29.7288  -11.8375   17.3988 H   0  0  0  0  0  0
  -29.6713  -13.5323   17.8059 H   0  0  0  0  0  0
  -27.8118  -11.3343   18.7783 H   0  0  0  0  0  0
  -27.3701  -12.7020   17.7891 H   0  0  0  0  0  0
  -27.7218  -14.2587   19.6277 H   0  0  0  0  0  0
  -28.6698  -11.8817   21.2997 H   0  0  0  0  0  0
  -28.4592  -13.4882   21.9100 H   0  0  0  0  0  0
  -25.2747   -9.5677   22.4748 H   0  0  0  0  0  0
  -23.9994   -7.4620   22.7444 H   0  0  0  0  0  0
  -21.0815   -8.8780   19.8945 H   0  0  0  0  0  0
  -22.3684  -10.9674   19.6155 H   0  0  0  0  0  0
  -21.2018   -7.6136   23.9722 H   0  0  0  0  0  0
  -21.1478   -6.0506   25.9080 H   0  0  0  0  0  0
  -22.0597   -2.7596   23.2861 H   0  0  0  0  0  0
  -22.4032  -11.9961   22.4861 H   0  0  0  0  0  0
  -21.1050  -13.1315   22.2603 H   0  0  0  0  0  0
  -24.6585  -15.8430   20.4930 H   0  0  0  0  0  0
  -26.2831  -15.6228   20.0837 H   0  0  0  0  0  0
  -26.7112  -32.5554   23.1185 H   0  0  0  0  0  0
  -25.0093  -33.9808   25.0516 H   0  0  0  0  0  0
  -22.6823  -31.3075   21.4163 H   0  0  0  0  0  0
  -23.3725  -35.9673   23.3315 H   0  0  0  0  0  0
  -24.3576  -36.8926   22.2045 H   0  0  0  0  0  0
  -23.7247  -37.6541   23.6644 H   0  0  0  0  0  0
  -26.0252  -31.6049   20.5890 H   0  0  0  0  0  0
  -26.8114  -30.9019   21.9749 H   0  0  0  0  0  0
  -28.0902  -29.1279   21.1708 H   0  0  0  0  0  0
  -26.0678  -25.9709   19.0368 H   0  0  0  0  0  0
  -23.9751  -27.2777   19.0619 H   0  0  0  0  0  0
  -23.7068  -30.5969   19.4057 H   0  0  0  0  0  0
  -22.7273  -29.2418   19.8753 H   0  0  0  0  0  0
  -25.1266  -36.1977   25.0827 H   0  0  0  0  0  0
  -20.9941  -28.3215   24.1455 H   0  0  0  0  0  0
  -20.5665  -26.2257   23.3609 H   0  0  0  0  0  0
  -21.6636  -26.7437   22.1223 H   0  0  0  0  0  0
  -19.6910  -25.6301   21.1228 H   0  0  0  0  0  0
  -19.6684  -27.3209   20.6764 H   0  0  0  0  0  0
  -17.4193  -26.6674   21.4011 H   0  0  0  0  0  0
  -18.0301  -26.0049   22.8995 H   0  0  0  0  0  0
  -19.7928  -30.7235   24.2310 H   0  0  0  0  0  0
  -17.5011  -31.6253   24.5175 H   0  0  0  0  0  0
  -15.5347  -30.2995   23.7636 H   0  0  0  0  0  0
  -15.8653  -28.0832   22.7044 H   0  0  0  0  0  0
  -24.5901  -30.7112   25.7853 H   0  0  0  0  0  0
  -24.9025  -32.2901   26.4989 H   0  0  0  0  0  0
  -25.8147  -30.8857   27.0227 H   0  0  0  0  0  0
  -26.2830  -29.6808   24.1171 H   0  0  0  0  0  0
  -27.4098  -29.7287   25.4539 H   0  0  0  0  0  0
  -27.8653  -30.4364   23.9210 H   0  0  0  0  0  0
  -27.2656  -33.3600   26.2113 H   0  0  0  0  0  0
  -28.3834  -32.6939   25.0300 H   0  0  0  0  0  0
  -28.0753  -31.8432   26.5368 H   0  0  0  0  0  0
  -28.2599  -38.0099   24.7488 H   0  0  0  0  0  0
  -28.1048  -36.2637   24.6286 H   0  0  0  0  0  0
  -27.2304  -37.1476   25.8866 H   0  0  0  0  0  0
  -20.9280  -29.8721   21.6953 H   0  0  0  0  0  0
  -26.0164  -38.2875   24.1415 H   0  0  0  0  0  0
  -29.2798  -23.0980   15.4177 H   0  0  0  0  0  0
  -29.8316  -20.8631   14.7066 H   0  0  0  0  0  0
  -30.6230  -22.1977   19.4280 H   0  0  0  0  0  0
  -31.8541  -20.2139   19.8461 H   0  0  0  0  0  0
  -32.3274  -19.1674   18.5324 H   0  0  0  0  0  0
  -29.0204  -16.6201   19.8326 H   0  0  0  0  0  0
  -29.0286  -17.2298   21.4621 H   0  0  0  0  0  0
  -28.1162  -26.3683   18.0163 H   0  0  0  0  0  0
  -29.7399  -26.7699   18.5041 H   0  0  0  0  0  0
  -31.7078  -20.0216   13.8248 H   0  0  0  0  0  0
  -31.6111  -18.4917   12.9920 H   0  0  0  0  0  0
  -30.7876  -17.3413   15.0185 H   0  0  0  0  0  0
  -29.7211  -18.6563   14.6506 H   0  0  0  0  0  0
  -29.4943  -24.7796   16.9747 H   0  0  0  0  0  0
  -29.6151  -18.6392   19.0700 H   0  0  0  0  0  0
  -29.2202  -14.9930   21.7855 H   0  0  0  0  0  0
  -33.3517  -19.0565   15.2956 H   0  0  0  0  0  0
  -33.8314  -18.9853   13.7419 H   0  0  0  0  0  0
  -33.3033  -17.6384   14.4907 H   0  0  0  0  0  0
  1 25  1  0  0  0
  1 30  2  0  0  0
  1 86  1  0  0  0
  2  3  1  0  0  0
  2 25  1  0  0  0
  2 91  1  0  0  0
  2 92  1  0  0  0
  3  4  1  0  0  0
  3 93  1  0  0  0
  3 94  1  0  0  0
  4  5  1  0  0  0
  4 95  1  0  0  0
  4 96  1  0  0  0
  5  6  1  0  0  0
  5 26  1  0  0  0
  5 97  1  0  0  0
  6 25  1  0  0  0
  6 98  1  0  0  0
  6 99  1  0  0  0
  7  8  2  0  0  0
  7 26  1  0  0  0
  7 29  1  0  0  0
  8  9  1  0  0  0
  8 22  1  0  0  0
  9 10  1  0  0  0
  9 27  2  0  0  0
 10 11  2  0  0  0
 10 15  1  0  0  0
 11 12  1  0  0  0
 11100  1  0  0  0
 12 13  2  0  0  0
 12101  1  0  0  0
 13 14  1  0  0  0
 13 31  1  0  0  0
 14 15  2  0  0  0
 14102  1  0  0  0
 15103  1  0  0  0
 16 17  2  0  0  0
 16 21  1  0  0  0
 16 31  1  0  0  0
 17 18  1  0  0  0
 17104  1  0  0  0
 18 19  2  0  0  0
 18105  1  0  0  0
 19 20  1  0  0  0
 19 24  1  0  0  0
 20 21  2  0  0  0
 20106  1  0  0  0
 21 23  1  0  0  0
 22 28  1  0  0  0
 22 32  2  0  0  0
 26 27  1  0  0  0
 28107  1  0  0  0
 28108  1  0  0  0
 29109  1  0  0  0
 29110  1  0  0  0
 33 34  1  0  0  0
 33 66  1  0  0  0
 33 70  2  0  0  0
 34 36  1  0  0  0
 34 59  1  0  0  0
 34111  1  0  0  0
 35 44  2  0  0  0
 35 45  1  0  0  0
 35 68  1  0  0  0
 36 56  1  0  0  0
 36112  1  0  0  0
 37 39  1  0  0  0
 37 47  1  0  0  0
 37 66  1  0  0  0
 37113  1  0  0  0
 38 43  2  0  0  0
 38 46  1  0  0  0
 38 47  1  0  0  0
 39 64  1  0  0  0
 39 67  2  0  0  0
 40 52  1  0  0  0
 40 53  2  0  0  0
 40 58  1  0  0  0
 41114  1  0  0  0
 41115  1  0  0  0
 41116  1  0  0  0
 41 48  1  0  0  0
 42 43  1  0  0  0
 42 66  1  0  0  0
 42117  1  0  0  0
 42118  1  0  0  0
 43 44  1  0  0  0
 44119  1  0  0  0
 45 46  2  0  0  0
 45120  1  0  0  0
 46121  1  0  0  0
 47122  1  0  0  0
 47123  1  0  0  0
 48 56  1  0  0  0
 48 65  1  0  0  0
 48124  1  0  0  0
 49 50  1  0  0  0
 49 53  1  0  0  0
 49 64  1  0  0  0
 49125  1  0  0  0
 50 51  1  0  0  0
 50126  1  0  0  0
 50127  1  0  0  0
 51 52  1  0  0  0
 51128  1  0  0  0
 51129  1  0  0  0
 52130  1  0  0  0
 52131  1  0  0  0
 53 54  1  0  0  0
 54 55  2  0  0  0
 54132  1  0  0  0
 55 57  1  0  0  0
 55133  1  0  0  0
 56 69  2  0  0  0
 57 58  2  0  0  0
 57134  1  0  0  0
 58135  1  0  0  0
 59 60  1  0  0  0
 59 61  1  0  0  0
 59 62  1  0  0  0
 60136  1  0  0  0
 60137  1  0  0  0
 60138  1  0  0  0
 61139  1  0  0  0
 61140  1  0  0  0
 61141  1  0  0  0
 62142  1  0  0  0
 62143  1  0  0  0
 62144  1  0  0  0
 63 65  1  0  0  0
 63145  1  0  0  0
 63146  1  0  0  0
 63147  1  0  0  0
 64148  1  0  0  0
 65149  1  0  0  0
 68 81  1  0  0  0
 71 72  2  0  0  0
 71 75  1  0  0  0
 71150  1  0  0  0
 72 76  1  0  0  0
 72151  1  0  0  0
 73 74  1  0  0  0
 73 75  2  0  0  0
 73152  1  0  0  0
 74 76  2  0  0  0
 74 79  1  0  0  0
 75 84  1  0  0  0
 76 90  1  0  0  0
 77 80  1  0  0  0
 77 85  1  0  0  0
 77 88  2  0  0  0
 78 81  1  0  0  0
 78 84  1  0  0  0
 78 89  2  0  0  0
 79 85  1  0  0  0
 79153  1  0  0  0
 79154  1  0  0  0
 80 86  1  0  0  0
 80155  1  0  0  0
 80156  1  0  0  0
 81157  1  0  0  0
 81158  1  0  0  0
 82 83  1  0  0  0
 82 87  1  0  0  0
 82159  1  0  0  0
 82160  1  0  0  0
 83 90  1  0  0  0
 83161  1  0  0  0
 83162  1  0  0  0
 84163  1  0  0  0
 85164  1  0  0  0
 86165  1  0  0  0
 87166  1  0  0  0
 87167  1  0  0  0
 87168  1  0  0  0
M  CHG  1  87   1
M  ISO  4   1 100  68 101  81 101  86 100
M  END
> <chiral flag>
0

> <version>
0

> <s_m_source_file>
/data/baiqing/PycharmProjects/Reinvent-master-3.2/result/LINK_invent/BTK/process_docking_weight1_custom_sum_contain_oxygen_bond_distance_aromatic_linkinvent_7_9_3/rearranged_h_0003.sdf

> <i_m_source_file_index>
83

> <r_mmod_Potential_Energy-OPLS-2005>
-472.243133544922

> <r_mmod_Stretch_Energy-OPLS-2005>
36.1637344360352

> <r_mmod_Bend_Energy-OPLS-2005>
118.587219238281

> <r_mmod_Torsional_Energy-OPLS-2005>
244.428955078125

> <r_mmod_Improper_Torsional_Energy-OPLS-2005>
6.82508230209351

> <r_mmod_Van_der_Waal_Energy-OPLS-2005>
160.736907958984

> <r_mmod_Electrostatic_Energy-OPLS-2005>
-473.486724853516

> <r_mmod_Solvation_Energy-OPLS-2005>
-575.263732910156

> <b_mmod_Minimization_Converged-OPLS-2005>
0

> <r_mmod_RMS_Derivative-OPLS-2005>
2.38859868049622

$$$$
85
                    3D
 Structure written by MMmdl.
143150  0  0  1  0            999 V2000
  -30.3203  -15.6044   20.3361 C   0  0  0  0  0  0
  -30.4251  -13.0586   19.5399 C   0  0  0  0  0  0
  -29.5490  -12.6493   18.3218 C   0  0  0  0  0  0
  -28.1204  -12.2992   18.7641 C   0  0  0  0  0  0
  -27.5968  -13.3057   19.8138 C   0  0  2  0  0  0
  -28.6142  -13.6287   20.9337 C   0  0  0  0  0  0
  -25.2326  -13.8283   20.5793 C   0  0  0  0  0  0
  -24.1713  -13.0434   20.9286 C   0  0  0  0  0  0
  -24.6412  -11.6944   20.8765 C   0  0  0  0  0  0
  -23.9115  -10.4292   21.0398 C   0  0  0  0  0  0
  -24.3651   -9.4205   21.9180 C   0  0  0  0  0  0
  -23.6313   -8.2246   22.0753 C   0  0  0  0  0  0
  -22.4293   -8.0287   21.3545 C   0  0  0  0  0  0
  -21.9939   -9.0262   20.4644 C   0  0  0  0  0  0
  -22.7281  -10.2134   20.3050 C   0  0  0  0  0  0
  -21.6858   -6.0741   22.5279 C   0  0  0  0  0  0
  -21.4018   -6.5643   23.8213 C   0  0  0  0  0  0
  -21.3661   -5.6794   24.9174 C   0  0  0  0  0  0
  -21.6044   -4.3057   24.7224 C   0  0  0  0  0  0
  -21.8818   -3.8150   23.4345 C   0  0  0  0  0  0
  -21.9194   -4.6968   22.3402 C   0  0  0  0  0  0
  -22.7725  -13.5165   21.1921 C   0  0  0  0  0  0
  -22.1662   -4.2153   21.0979 F   0  0  0  0  0  0
  -21.5627   -3.4539   25.7736 F   0  0  0  0  0  0
  -29.7935  -14.2421   20.2803 N   0  0  0  0  0  0
  -26.2774  -12.9610   20.3236 N   0  0  0  0  0  0
  -25.9358  -11.6683   20.5704 N   0  0  0  0  0  0
  -22.0390  -12.8141   22.0473 N   0  0  0  0  0  0
  -25.3919  -15.2024   20.4238 N   0  0  0  0  0  0
  -31.5535  -15.5434   20.1720 O   0  0  0  0  0  0
  -21.6648   -6.8888   21.4243 O   0  0  0  0  0  0
  -22.3400  -14.5463   20.6757 O   0  0  0  0  0  0
  -24.6837  -31.8007   23.1540 C   0  0  0  0  0  0
  -25.9421  -32.4471   23.8079 C   0  0  1  0  0  0
  -27.2203  -26.6984   20.2162 C   0  0  0  0  0  0
  -25.6002  -33.8297   24.1960 N   0  0  0  0  0  0
  -23.5098  -30.4042   21.5077 C   0  0  2  0  0  0
  -24.9678  -28.7493   20.1190 C   0  0  0  0  0  0
  -22.7767  -29.4318   22.4714 C   0  0  0  0  0  0
  -18.0339  -28.1421   22.8455 C   0  0  0  0  0  0
  -24.1496  -36.7154   23.2652 C   0  0  0  0  0  0
  -26.0912  -30.5303   21.4234 C   0  0  0  0  0  0
  -26.1550  -29.0948   20.7757 C   0  0  0  0  0  0
  -27.2648  -28.0962   20.7980 C   0  0  0  0  0  0
  -26.0086  -26.5792   19.4851 C   0  0  0  0  0  0
  -24.9335  -27.5157   19.4504 C   0  0  0  0  0  0
  -23.7649  -29.7048   20.1421 C   0  0  0  0  0  0
  -25.4146  -36.2898   24.0282 C   0  0  1  0  0  0
  -20.5975  -28.3781   23.1140 C   0  0  2  0  0  0
  -20.6805  -26.9440   22.5402 C   0  0  0  0  0  0
  -19.5780  -26.6370   21.5216 C   0  0  0  0  0  0
  -18.1963  -26.7949   22.1619 C   0  0  0  0  0  0
  -19.1605  -28.8926   23.2778 C   0  0  0  0  0  0
  -18.9510  -30.1509   23.8824 C   0  0  0  0  0  0
  -17.6500  -30.6603   24.0550 C   0  0  0  0  0  0
  -25.9126  -34.9287   23.4956 C   0  0  0  0  0  0
  -16.5390  -29.9085   23.6350 C   0  0  0  0  0  0
  -16.7319  -28.6507   23.0367 C   0  0  0  0  0  0
  -26.4598  -31.6506   25.0701 C   0  0  0  0  0  0
  -25.3661  -31.3825   26.1313 C   0  0  0  0  0  0
  -27.0532  -30.2841   24.6613 C   0  0  0  0  0  0
  -27.6045  -32.4369   25.7516 C   0  0  0  0  0  0
  -27.5564  -37.1735   24.8466 C   0  0  0  0  0  0
  -21.4415  -29.3029   22.3460 N   0  0  0  0  0  0
  -26.4272  -37.3658   23.9407 N   0  0  0  0  0  0
  -24.7849  -30.9448   22.0804 N   0  0  0  0  0  0
  -23.4209  -28.7914   23.3056 O   0  0  0  0  0  0
  -28.1748  -25.4653   20.2560 O   0  0  0  0  0  0
  -26.5763  -34.8861   22.4572 O   0  0  0  0  0  0
  -23.5855  -32.1087   23.6487 O   0  0  0  0  0  0
  -27.8991  -23.8766   20.3035 C   0  0  0  0  0  0
  -28.9890  -22.3115   20.2720 C   0  0  0  0  0  0
  -28.7550  -20.3822   20.3457 C   0  0  0  0  0  0
  -29.7849  -18.7350   20.3144 C   0  0  0  0  0  0
  -26.6796  -23.5638   20.3969 N   0  0  0  0  0  0
  -29.5681  -16.9691   20.3866 N   0  0  0  0  0  0
  -31.4211  -13.3144   19.1769 H   0  0  0  0  0  0
  -30.5775  -12.2107   20.2099 H   0  0  0  0  0  0
  -29.9976  -11.8078   17.7921 H   0  0  0  0  0  0
  -29.5154  -13.4770   17.6118 H   0  0  0  0  0  0
  -28.1419  -11.2991   19.1989 H   0  0  0  0  0  0
  -27.4507  -12.2484   17.9046 H   0  0  0  0  0  0
  -27.4628  -14.2300   19.2501 H   0  0  0  0  0  0
  -28.8669  -12.7443   21.5204 H   0  0  0  0  0  0
  -28.1862  -14.3493   21.6322 H   0  0  0  0  0  0
  -25.2790   -9.5679   22.4765 H   0  0  0  0  0  0
  -24.0013   -7.4639   22.7479 H   0  0  0  0  0  0
  -21.0868   -8.8790   19.8950 H   0  0  0  0  0  0
  -22.3740  -10.9676   19.6162 H   0  0  0  0  0  0
  -21.2013   -7.6151   23.9718 H   0  0  0  0  0  0
  -21.1482   -6.0524   25.9077 H   0  0  0  0  0  0
  -22.0596   -2.7612   23.2844 H   0  0  0  0  0  0
  -22.4033  -11.9818   22.4868 H   0  0  0  0  0  0
  -21.0996  -13.1136   22.2671 H   0  0  0  0  0  0
  -24.6195  -15.8499   20.5377 H   0  0  0  0  0  0
  -26.2314  -15.6456   20.0748 H   0  0  0  0  0  0
  -26.7502  -32.4942   23.0790 H   0  0  0  0  0  0
  -25.0063  -33.9340   25.0056 H   0  0  0  0  0  0
  -22.8352  -31.2419   21.3193 H   0  0  0  0  0  0
  -23.3777  -35.9464   23.3264 H   0  0  0  0  0  0
  -24.3564  -36.8866   22.2076 H   0  0  0  0  0  0
  -23.7237  -37.6313   23.6760 H   0  0  0  0  0  0
  -26.2967  -31.2538   20.6334 H   0  0  0  0  0  0
  -26.9416  -30.5978   22.0893 H   0  0  0  0  0  0
  -28.1567  -28.3663   21.3454 H   0  0  0  0  0  0
  -25.8453  -25.6526   18.9541 H   0  0  0  0  0  0
  -24.0425  -27.2445   18.9009 H   0  0  0  0  0  0
  -23.9414  -30.4665   19.3818 H   0  0  0  0  0  0
  -22.8699  -29.1723   19.8159 H   0  0  0  0  0  0
  -25.1355  -36.1662   25.0772 H   0  0  0  0  0  0
  -21.0057  -28.3406   24.1266 H   0  0  0  0  0  0
  -20.5670  -26.2405   23.3664 H   0  0  0  0  0  0
  -21.6666  -26.7383   22.1219 H   0  0  0  0  0  0
  -19.6936  -25.6262   21.1293 H   0  0  0  0  0  0
  -19.6724  -27.3140   20.6714 H   0  0  0  0  0  0
  -17.4233  -26.6691   21.4023 H   0  0  0  0  0  0
  -18.0352  -26.0109   22.9033 H   0  0  0  0  0  0
  -19.7986  -30.7345   24.2161 H   0  0  0  0  0  0
  -17.5050  -31.6275   24.5167 H   0  0  0  0  0  0
  -15.5387  -30.2963   23.7717 H   0  0  0  0  0  0
  -15.8720  -28.0801   22.7123 H   0  0  0  0  0  0
  -24.5873  -30.7145   25.7614 H   0  0  0  0  0  0
  -24.8819  -32.3047   26.4536 H   0  0  0  0  0  0
  -25.7836  -30.9123   27.0225 H   0  0  0  0  0  0
  -26.3253  -29.6450   24.1604 H   0  0  0  0  0  0
  -27.3949  -29.7294   25.5362 H   0  0  0  0  0  0
  -27.9240  -30.3961   24.0152 H   0  0  0  0  0  0
  -27.2586  -33.3743   26.1885 H   0  0  0  0  0  0
  -28.3962  -32.6815   25.0421 H   0  0  0  0  0  0
  -28.0598  -31.8640   26.5605 H   0  0  0  0  0  0
  -28.2550  -38.0060   24.7514 H   0  0  0  0  0  0
  -28.1092  -36.2582   24.6295 H   0  0  0  0  0  0
  -27.2278  -37.1371   25.8867 H   0  0  0  0  0  0
  -20.9720  -29.8688   21.6529 H   0  0  0  0  0  0
  -26.0100  -38.2706   24.1419 H   0  0  0  0  0  0
  -29.7074  -22.5024   21.0691 H   0  0  0  0  0  0
  -29.5847  -22.4517   19.3700 H   0  0  0  0  0  0
  -28.0301  -20.2145   19.5491 H   0  0  0  0  0  0
  -28.1607  -20.2638   21.2519 H   0  0  0  0  0  0
  -30.5155  -18.8903   21.1088 H   0  0  0  0  0  0
  -30.3802  -18.8376   19.4066 H   0  0  0  0  0  0
  -26.5606  -22.5568   20.4290 H   0  0  0  0  0  0
  -28.5834  -16.7614   20.4794 H   0  0  0  0  0  0
  1 25  1  0  0  0
  1 30  2  0  0  0
  1 76  1  0  0  0
  2  3  1  0  0  0
  2 25  1  0  0  0
  2 77  1  0  0  0
  2 78  1  0  0  0
  3  4  1  0  0  0
  3 79  1  0  0  0
  3 80  1  0  0  0
  4  5  1  0  0  0
  4 81  1  0  0  0
  4 82  1  0  0  0
  5  6  1  0  0  0
  5 26  1  0  0  0
  5 83  1  0  0  0
  6 25  1  0  0  0
  6 84  1  0  0  0
  6 85  1  0  0  0
  7  8  2  0  0  0
  7 26  1  0  0  0
  7 29  1  0  0  0
  8  9  1  0  0  0
  8 22  1  0  0  0
  9 10  1  0  0  0
  9 27  2  0  0  0
 10 11  2  0  0  0
 10 15  1  0  0  0
 11 12  1  0  0  0
 11 86  1  0  0  0
 12 13  2  0  0  0
 12 87  1  0  0  0
 13 14  1  0  0  0
 13 31  1  0  0  0
 14 15  2  0  0  0
 14 88  1  0  0  0
 15 89  1  0  0  0
 16 17  2  0  0  0
 16 21  1  0  0  0
 16 31  1  0  0  0
 17 18  1  0  0  0
 17 90  1  0  0  0
 18 19  2  0  0  0
 18 91  1  0  0  0
 19 20  1  0  0  0
 19 24  1  0  0  0
 20 21  2  0  0  0
 20 92  1  0  0  0
 21 23  1  0  0  0
 22 28  1  0  0  0
 22 32  2  0  0  0
 26 27  1  0  0  0
 28 93  1  0  0  0
 28 94  1  0  0  0
 29 95  1  0  0  0
 29 96  1  0  0  0
 33 34  1  0  0  0
 33 66  1  0  0  0
 33 70  2  0  0  0
 34 36  1  0  0  0
 34 59  1  0  0  0
 34 97  1  0  0  0
 35 44  2  0  0  0
 35 45  1  0  0  0
 35 68  1  0  0  0
 36 56  1  0  0  0
 36 98  1  0  0  0
 37 39  1  0  0  0
 37 47  1  0  0  0
 37 66  1  0  0  0
 37 99  1  0  0  0
 38 43  2  0  0  0
 38 46  1  0  0  0
 38 47  1  0  0  0
 39 64  1  0  0  0
 39 67  2  0  0  0
 40 52  1  0  0  0
 40 53  2  0  0  0
 40 58  1  0  0  0
 41100  1  0  0  0
 41101  1  0  0  0
 41102  1  0  0  0
 41 48  1  0  0  0
 42 43  1  0  0  0
 42 66  1  0  0  0
 42103  1  0  0  0
 42104  1  0  0  0
 43 44  1  0  0  0
 44105  1  0  0  0
 45 46  2  0  0  0
 45106  1  0  0  0
 46107  1  0  0  0
 47108  1  0  0  0
 47109  1  0  0  0
 48 56  1  0  0  0
 48 65  1  0  0  0
 48110  1  0  0  0
 49 50  1  0  0  0
 49 53  1  0  0  0
 49 64  1  0  0  0
 49111  1  0  0  0
 50 51  1  0  0  0
 50112  1  0  0  0
 50113  1  0  0  0
 51 52  1  0  0  0
 51114  1  0  0  0
 51115  1  0  0  0
 52116  1  0  0  0
 52117  1  0  0  0
 53 54  1  0  0  0
 54 55  2  0  0  0
 54118  1  0  0  0
 55 57  1  0  0  0
 55119  1  0  0  0
 56 69  2  0  0  0
 57 58  2  0  0  0
 57120  1  0  0  0
 58121  1  0  0  0
 59 60  1  0  0  0
 59 61  1  0  0  0
 59 62  1  0  0  0
 60122  1  0  0  0
 60123  1  0  0  0
 60124  1  0  0  0
 61125  1  0  0  0
 61126  1  0  0  0
 61127  1  0  0  0
 62128  1  0  0  0
 62129  1  0  0  0
 62130  1  0  0  0
 63 65  1  0  0  0
 63131  1  0  0  0
 63132  1  0  0  0
 63133  1  0  0  0
 64134  1  0  0  0
 65135  1  0  0  0
 68 71  1  0  0  0
 71 72  1  0  0  0
 71 75  2  0  0  0
 72 73  1  0  0  0
 72136  1  0  0  0
 72137  1  0  0  0
 73 74  1  0  0  0
 73138  1  0  0  0
 73139  1  0  0  0
 74 76  1  0  0  0
 74140  1  0  0  0
 74141  1  0  0  0
 75142  1  0  0  0
 76143  1  0  0  0
M  ISO  4   1 100  68 101  71 101  76 100
M  END
> <chiral flag>
0

> <version>
0

> <s_m_source_file>
/data/baiqing/PycharmProjects/Reinvent-master-3.2/result/LINK_invent/BTK/process_docking_weight1_custom_sum_contain_oxygen_bond_distance_aromatic_linkinvent_7_9_3/rearranged_h_0003.sdf

> <i_m_source_file_index>
84

> <r_mmod_Potential_Energy-OPLS-2005>
2369.75659179688

> <r_mmod_Stretch_Energy-OPLS-2005>
1146.25598144531

> <r_mmod_Bend_Energy-OPLS-2005>
613.168151855469

> <r_mmod_Torsional_Energy-OPLS-2005>
202.705490112305

> <r_mmod_Improper_Torsional_Energy-OPLS-2005>
3.64124321937561

> <r_mmod_Van_der_Waal_Energy-OPLS-2005>
112.620277404785

> <r_mmod_Electrostatic_Energy-OPLS-2005>
-361.546112060547

> <r_mmod_Solvation_Energy-OPLS-2005>
-224.574935913086

> <b_mmod_Minimization_Converged-OPLS-2005>
0

> <r_mmod_RMS_Derivative-OPLS-2005>
0.0569571442902088

$$$$
86
                    3D
 Structure written by MMmdl.
154162  0  0  1  0            999 V2000
  -30.6507  -14.7739   20.5152 C   0  0  0  0  0  0
  -30.4254  -12.4972   19.4733 C   0  0  0  0  0  0
  -29.5065  -12.5199   18.2352 C   0  0  0  0  0  0
  -28.0368  -12.3276   18.6537 C   0  0  0  0  0  0
  -27.6346  -13.2402   19.8443 C   0  0  2  0  0  0
  -28.6807  -13.2137   20.9806 C   0  0  0  0  0  0
  -25.2482  -13.8209   20.5694 C   0  0  0  0  0  0
  -24.1787  -13.0437   20.9196 C   0  0  0  0  0  0
  -24.6386  -11.6917   20.8743 C   0  0  0  0  0  0
  -23.9058  -10.4292   21.0378 C   0  0  0  0  0  0
  -24.3606   -9.4211   21.9164 C   0  0  0  0  0  0
  -23.6289   -8.2241   22.0738 C   0  0  0  0  0  0
  -22.4282   -8.0264   21.3514 C   0  0  0  0  0  0
  -21.9900   -9.0235   20.4630 C   0  0  0  0  0  0
  -22.7222  -10.2124   20.3041 C   0  0  0  0  0  0
  -21.6851   -6.0721   22.5264 C   0  0  0  0  0  0
  -21.4018   -6.5621   23.8197 C   0  0  0  0  0  0
  -21.3675   -5.6778   24.9160 C   0  0  0  0  0  0
  -21.6057   -4.3045   24.7214 C   0  0  0  0  0  0
  -21.8821   -3.8128   23.4337 C   0  0  0  0  0  0
  -21.9193   -4.6946   22.3391 C   0  0  0  0  0  0
  -22.7808  -13.5216   21.1835 C   0  0  0  0  0  0
  -22.1664   -4.2131   21.0971 F   0  0  0  0  0  0
  -21.5632   -3.4538   25.7731 F   0  0  0  0  0  0
  -29.9709  -13.5777   20.3853 N   0  0  0  0  0  0
  -26.2908  -12.9429   20.3266 N   0  0  0  0  0  0
  -25.9320  -11.6559   20.5730 N   0  0  0  0  0  0
  -22.0468  -12.8220   22.0412 N   0  0  0  0  0  0
  -25.4147  -15.1941   20.4122 N   0  0  0  0  0  0
  -31.8382  -14.8138   20.1823 O   0  0  0  0  0  0
  -21.6642   -6.8867   21.4224 O   0  0  0  0  0  0
  -22.3478  -14.5515   20.6674 O   0  0  0  0  0  0
  -24.6345  -31.8545   23.1967 C   0  0  0  0  0  0
  -25.9153  -32.4754   23.8331 C   0  0  1  0  0  0
  -27.2172  -27.2388   20.1340 C   0  0  0  0  0  0
  -25.5929  -33.8555   24.2267 N   0  0  0  0  0  0
  -23.4326  -30.4788   21.5391 C   0  0  2  0  0  0
  -24.8798  -28.9264   20.1050 C   0  0  0  0  0  0
  -22.7527  -29.4615   22.4881 C   0  0  0  0  0  0
  -18.0307  -28.1392   22.8502 C   0  0  0  0  0  0
  -24.1479  -36.7288   23.2642 C   0  0  0  0  0  0
  -25.9804  -30.7625   21.3774 C   0  0  0  0  0  0
  -26.0521  -29.3821   20.7206 C   0  0  0  0  0  0
  -27.2225  -28.5518   20.7245 C   0  0  0  0  0  0
  -26.0257  -26.8684   19.4691 C   0  0  0  0  0  0
  -24.8763  -27.6794   19.4639 C   0  0  0  0  0  0
  -23.6517  -29.8147   20.1544 C   0  0  0  0  0  0
  -25.4101  -36.3077   24.0339 C   0  0  1  0  0  0
  -20.5920  -28.3712   23.1254 C   0  0  2  0  0  0
  -20.6783  -26.9418   22.5409 C   0  0  0  0  0  0
  -19.5740  -26.6396   21.5229 C   0  0  0  0  0  0
  -18.1936  -26.7938   22.1653 C   0  0  0  0  0  0
  -19.1560  -28.8870   23.2884 C   0  0  0  0  0  0
  -18.9471  -30.1472   23.8900 C   0  0  0  0  0  0
  -17.6460  -30.6589   24.0572 C   0  0  0  0  0  0
  -25.9046  -34.9440   23.5107 C   0  0  0  0  0  0
  -16.5361  -29.9082   23.6324 C   0  0  0  0  0  0
  -16.7294  -28.6504   23.0359 C   0  0  0  0  0  0
  -26.4498  -31.6571   25.0719 C   0  0  0  0  0  0
  -25.3720  -31.3724   26.1444 C   0  0  0  0  0  0
  -27.0336  -30.2988   24.6204 C   0  0  0  0  0  0
  -27.6047  -32.4322   25.7491 C   0  0  0  0  0  0
  -27.5575  -37.1805   24.8470 C   0  0  0  0  0  0
  -21.4230  -29.3064   22.3639 N   0  0  0  0  0  0
  -26.4277  -37.3776   23.9420 N   0  0  0  0  0  0
  -24.7021  -31.0506   22.0943 N   0  0  0  0  0  0
  -23.4225  -28.8154   23.2992 O   0  0  0  0  0  0
  -28.2919  -26.3113   20.2234 O   0  0  0  0  0  0
  -26.5627  -34.8915   22.4683 O   0  0  0  0  0  0
  -23.5494  -32.1368   23.7264 O   0  0  0  0  0  0
  -31.7071  -18.8362   23.6056 C   0  0  0  0  0  0
  -31.9595  -17.4692   23.6166 C   0  0  0  0  0  0
  -30.8634  -19.3712   22.6260 C   0  0  0  0  0  0
  -31.3626  -16.6526   22.6499 C   0  0  0  0  0  0
  -30.2364  -18.6071   21.5926 C   0  0  0  0  0  0
  -30.5060  -17.1282   21.6103 C   0  0  0  0  0  0
  -29.3538  -19.4995   20.6497 C   0  0  0  0  0  0
  -28.9677  -23.6130   20.5369 C   0  0  0  0  0  0
  -28.6216  -22.0535   20.1569 C   0  0  0  0  0  0
  -28.0245  -24.8334   20.0015 C   0  0  0  0  0  0
  -29.9830  -15.9718   20.8170 N   0  0  0  0  0  0
  -29.4212  -20.8965   20.7716 N   0  0  0  0  0  0
  -28.6035  -18.9688   19.8303 O   0  0  0  0  0  0
  -31.4630  -12.6211   19.1615 H   0  0  0  0  0  0
  -30.3811  -11.5295   19.9758 H   0  0  0  0  0  0
  -29.7985  -11.7406   17.5296 H   0  0  0  0  0  0
  -29.6184  -13.4704   17.7101 H   0  0  0  0  0  0
  -27.9099  -11.2806   18.9317 H   0  0  0  0  0  0
  -27.3754  -12.4953   17.8021 H   0  0  0  0  0  0
  -27.6175  -14.2545   19.4438 H   0  0  0  0  0  0
  -28.7347  -12.2286   21.4472 H   0  0  0  0  0  0
  -28.4046  -13.9143   21.7692 H   0  0  0  0  0  0
  -25.2752   -9.5701   22.4732 H   0  0  0  0  0  0
  -24.0000   -7.4648   22.7474 H   0  0  0  0  0  0
  -21.0824   -8.8750   19.8947 H   0  0  0  0  0  0
  -22.3663  -10.9653   19.6154 H   0  0  0  0  0  0
  -21.2011   -7.6128   23.9689 H   0  0  0  0  0  0
  -21.1498   -6.0511   25.9064 H   0  0  0  0  0  0
  -22.0591   -2.7591   23.2833 H   0  0  0  0  0  0
  -22.4094  -11.9919   22.4855 H   0  0  0  0  0  0
  -21.1068  -13.1216   22.2580 H   0  0  0  0  0  0
  -24.6388  -15.8415   20.5084 H   0  0  0  0  0  0
  -26.2602  -15.6400   20.0812 H   0  0  0  0  0  0
  -26.7222  -32.5401   23.1075 H   0  0  0  0  0  0
  -25.0034  -33.9682   25.0388 H   0  0  0  0  0  0
  -22.7285  -31.3013   21.3929 H   0  0  0  0  0  0
  -23.3733  -35.9629   23.3297 H   0  0  0  0  0  0
  -24.3581  -36.8922   22.2063 H   0  0  0  0  0  0
  -23.7236  -37.6487   23.6664 H   0  0  0  0  0  0
  -26.1202  -31.5194   20.6039 H   0  0  0  0  0  0
  -26.8586  -30.8159   22.0093 H   0  0  0  0  0  0
  -28.1134  -28.8947   21.2316 H   0  0  0  0  0  0
  -25.9504  -25.9197   18.9581 H   0  0  0  0  0  0
  -23.9857  -27.3301   18.9597 H   0  0  0  0  0  0
  -23.7750  -30.5908   19.3989 H   0  0  0  0  0  0
  -22.7682  -29.2508   19.8500 H   0  0  0  0  0  0
  -25.1281  -36.1923   25.0832 H   0  0  0  0  0  0
  -21.0051  -28.3293   24.1360 H   0  0  0  0  0  0
  -20.5685  -26.2326   23.3630 H   0  0  0  0  0  0
  -21.6645  -26.7429   22.1194 H   0  0  0  0  0  0
  -19.6877  -25.6314   21.1249 H   0  0  0  0  0  0
  -19.6645  -27.3212   20.6761 H   0  0  0  0  0  0
  -17.4203  -26.6719   21.4058 H   0  0  0  0  0  0
  -18.0305  -26.0071   22.9035 H   0  0  0  0  0  0
  -19.7938  -30.7309   24.2263 H   0  0  0  0  0  0
  -17.5004  -31.6258   24.5188 H   0  0  0  0  0  0
  -15.5359  -30.2983   23.7627 H   0  0  0  0  0  0
  -15.8707  -28.0820   22.7058 H   0  0  0  0  0  0
  -24.5904  -30.7056   25.7785 H   0  0  0  0  0  0
  -24.8885  -32.2884   26.4850 H   0  0  0  0  0  0
  -25.8046  -30.8926   27.0235 H   0  0  0  0  0  0
  -26.2912  -29.6742   24.1221 H   0  0  0  0  0  0
  -27.4000  -29.7254   25.4729 H   0  0  0  0  0  0
  -27.8797  -30.4260   23.9449 H   0  0  0  0  0  0
  -27.2648  -33.3647   26.2016 H   0  0  0  0  0  0
  -28.3861  -32.6861   25.0312 H   0  0  0  0  0  0
  -28.0688  -31.8477   26.5450 H   0  0  0  0  0  0
  -28.2598  -38.0099   24.7511 H   0  0  0  0  0  0
  -28.1066  -36.2636   24.6282 H   0  0  0  0  0  0
  -27.2303  -37.1436   25.8876 H   0  0  0  0  0  0
  -20.9414  -29.8805   21.6855 H   0  0  0  0  0  0
  -26.0154  -38.2852   24.1408 H   0  0  0  0  0  0
  -32.1505  -19.4763   24.3580 H   0  0  0  0  0  0
  -32.5959  -17.0405   24.3787 H   0  0  0  0  0  0
  -30.7103  -20.4348   22.7245 H   0  0  0  0  0  0
  -31.5813  -15.6007   22.7632 H   0  0  0  0  0  0
  -29.9888  -23.8180   20.2138 H   0  0  0  0  0  0
  -28.9956  -23.6872   21.6236 H   0  0  0  0  0  0
  -28.6850  -21.9460   19.0736 H   0  0  0  0  0  0
  -27.5726  -21.8744   20.3982 H   0  0  0  0  0  0
  -27.0401  -24.6216   20.4218 H   0  0  0  0  0  0
  -27.9237  -24.7014   18.9234 H   0  0  0  0  0  0
  -28.9810  -15.9533   20.7013 H   0  0  0  0  0  0
  -30.1060  -21.1990   21.4500 H   0  0  0  0  0  0
  1 25  1  0  0  0
  1 30  2  0  0  0
  1 81  1  0  0  0
  2  3  1  0  0  0
  2 25  1  0  0  0
  2 84  1  0  0  0
  2 85  1  0  0  0
  3  4  1  0  0  0
  3 86  1  0  0  0
  3 87  1  0  0  0
  4  5  1  0  0  0
  4 88  1  0  0  0
  4 89  1  0  0  0
  5  6  1  0  0  0
  5 26  1  0  0  0
  5 90  1  0  0  0
  6 25  1  0  0  0
  6 91  1  0  0  0
  6 92  1  0  0  0
  7  8  2  0  0  0
  7 26  1  0  0  0
  7 29  1  0  0  0
  8  9  1  0  0  0
  8 22  1  0  0  0
  9 10  1  0  0  0
  9 27  2  0  0  0
 10 11  2  0  0  0
 10 15  1  0  0  0
 11 12  1  0  0  0
 11 93  1  0  0  0
 12 13  2  0  0  0
 12 94  1  0  0  0
 13 14  1  0  0  0
 13 31  1  0  0  0
 14 15  2  0  0  0
 14 95  1  0  0  0
 15 96  1  0  0  0
 16 17  2  0  0  0
 16 21  1  0  0  0
 16 31  1  0  0  0
 17 18  1  0  0  0
 17 97  1  0  0  0
 18 19  2  0  0  0
 18 98  1  0  0  0
 19 20  1  0  0  0
 19 24  1  0  0  0
 20 21  2  0  0  0
 20 99  1  0  0  0
 21 23  1  0  0  0
 22 28  1  0  0  0
 22 32  2  0  0  0
 26 27  1  0  0  0
 28100  1  0  0  0
 28101  1  0  0  0
 29102  1  0  0  0
 29103  1  0  0  0
 33 34  1  0  0  0
 33 66  1  0  0  0
 33 70  2  0  0  0
 34 36  1  0  0  0
 34 59  1  0  0  0
 34104  1  0  0  0
 35 44  2  0  0  0
 35 45  1  0  0  0
 35 68  1  0  0  0
 36 56  1  0  0  0
 36105  1  0  0  0
 37 39  1  0  0  0
 37 47  1  0  0  0
 37 66  1  0  0  0
 37106  1  0  0  0
 38 43  2  0  0  0
 38 46  1  0  0  0
 38 47  1  0  0  0
 39 64  1  0  0  0
 39 67  2  0  0  0
 40 52  1  0  0  0
 40 53  2  0  0  0
 40 58  1  0  0  0
 41107  1  0  0  0
 41108  1  0  0  0
 41109  1  0  0  0
 41 48  1  0  0  0
 42 43  1  0  0  0
 42 66  1  0  0  0
 42110  1  0  0  0
 42111  1  0  0  0
 43 44  1  0  0  0
 44112  1  0  0  0
 45 46  2  0  0  0
 45113  1  0  0  0
 46114  1  0  0  0
 47115  1  0  0  0
 47116  1  0  0  0
 48 56  1  0  0  0
 48 65  1  0  0  0
 48117  1  0  0  0
 49 50  1  0  0  0
 49 53  1  0  0  0
 49 64  1  0  0  0
 49118  1  0  0  0
 50 51  1  0  0  0
 50119  1  0  0  0
 50120  1  0  0  0
 51 52  1  0  0  0
 51121  1  0  0  0
 51122  1  0  0  0
 52123  1  0  0  0
 52124  1  0  0  0
 53 54  1  0  0  0
 54 55  2  0  0  0
 54125  1  0  0  0
 55 57  1  0  0  0
 55126  1  0  0  0
 56 69  2  0  0  0
 57 58  2  0  0  0
 57127  1  0  0  0
 58128  1  0  0  0
 59 60  1  0  0  0
 59 61  1  0  0  0
 59 62  1  0  0  0
 60129  1  0  0  0
 60130  1  0  0  0
 60131  1  0  0  0
 61132  1  0  0  0
 61133  1  0  0  0
 61134  1  0  0  0
 62135  1  0  0  0
 62136  1  0  0  0
 62137  1  0  0  0
 63 65  1  0  0  0
 63138  1  0  0  0
 63139  1  0  0  0
 63140  1  0  0  0
 64141  1  0  0  0
 65142  1  0  0  0
 68 80  1  0  0  0
 71 72  2  0  0  0
 71 73  1  0  0  0
 71143  1  0  0  0
 72 74  1  0  0  0
 72144  1  0  0  0
 73 75  2  0  0  0
 73145  1  0  0  0
 74 76  2  0  0  0
 74146  1  0  0  0
 75 76  1  0  0  0
 75 77  1  0  0  0
 76 81  1  0  0  0
 77 82  1  0  0  0
 77 83  2  0  0  0
 78 79  1  0  0  0
 78 80  1  0  0  0
 78147  1  0  0  0
 78148  1  0  0  0
 79 82  1  0  0  0
 79149  1  0  0  0
 79150  1  0  0  0
 80151  1  0  0  0
 80152  1  0  0  0
 81153  1  0  0  0
 82154  1  0  0  0
M  ISO  4   1 100  68 101  80 101  81 100
M  END
> <chiral flag>
0

> <version>
0

> <s_m_source_file>
/data/baiqing/PycharmProjects/Reinvent-master-3.2/result/LINK_invent/BTK/process_docking_weight1_custom_sum_contain_oxygen_bond_distance_aromatic_linkinvent_7_9_3/rearranged_h_0003.sdf

> <i_m_source_file_index>
85

> <r_mmod_Potential_Energy-OPLS-2005>
306.884368896484

> <r_mmod_Stretch_Energy-OPLS-2005>
166.90022277832

> <r_mmod_Bend_Energy-OPLS-2005>
218.487442016602

> <r_mmod_Torsional_Energy-OPLS-2005>
236.863693237305

> <r_mmod_Improper_Torsional_Energy-OPLS-2005>
5.19521760940552

> <r_mmod_Van_der_Waal_Energy-OPLS-2005>
155.840896606445

> <r_mmod_Electrostatic_Energy-OPLS-2005>
-346.000762939453

> <r_mmod_Solvation_Energy-OPLS-2005>
-233.578323364258

> <b_mmod_Minimization_Converged-OPLS-2005>
0

> <r_mmod_RMS_Derivative-OPLS-2005>
2.64270067214966

$$$$
87
                    3D
 Structure written by MMmdl.
151159  0  0  1  0            999 V2000
  -30.4955  -15.0177   20.3891 C   0  0  0  0  0  0
  -30.4332  -12.6353   19.4550 C   0  0  0  0  0  0
  -29.5046  -12.5027   18.2273 C   0  0  0  0  0  0
  -28.0643  -12.2253   18.6958 C   0  0  0  0  0  0
  -27.6225  -13.2163   19.8086 C   0  0  2  0  0  0
  -28.6673  -13.3133   20.9404 C   0  0  0  0  0  0
  -25.2558  -13.8129   20.5651 C   0  0  0  0  0  0
  -24.1851  -13.0397   20.9186 C   0  0  0  0  0  0
  -24.6395  -11.6855   20.8691 C   0  0  0  0  0  0
  -23.9050  -10.4267   21.0343 C   0  0  0  0  0  0
  -24.3631   -9.4180   21.9118 C   0  0  0  0  0  0
  -23.6297   -8.2224   22.0734 C   0  0  0  0  0  0
  -22.4294   -8.0242   21.3503 C   0  0  0  0  0  0
  -21.9908   -9.0213   20.4615 C   0  0  0  0  0  0
  -22.7247  -10.2082   20.2996 C   0  0  0  0  0  0
  -21.6883   -6.0701   22.5271 C   0  0  0  0  0  0
  -21.4019   -6.5596   23.8197 C   0  0  0  0  0  0
  -21.3653   -5.6747   24.9159 C   0  0  0  0  0  0
  -21.6068   -4.3017   24.7222 C   0  0  0  0  0  0
  -21.8833   -3.8112   23.4347 C   0  0  0  0  0  0
  -21.9204   -4.6927   22.3402 C   0  0  0  0  0  0
  -22.7903  -13.5174   21.1894 C   0  0  0  0  0  0
  -22.1666   -4.2102   21.0986 F   0  0  0  0  0  0
  -21.5640   -3.4526   25.7741 F   0  0  0  0  0  0
  -29.9122  -13.7488   20.3099 N   0  0  0  0  0  0
  -26.2886  -12.9272   20.3128 N   0  0  0  0  0  0
  -25.9295  -11.6439   20.5678 N   0  0  0  0  0  0
  -22.0528  -12.8117   22.0406 N   0  0  0  0  0  0
  -25.4172  -15.1873   20.4103 N   0  0  0  0  0  0
  -31.7107  -15.0544   20.1698 O   0  0  0  0  0  0
  -21.6657   -6.8859   21.4227 O   0  0  0  0  0  0
  -22.3543  -14.5493   20.6753 O   0  0  0  0  0  0
  -24.6437  -31.8415   23.1913 C   0  0  0  0  0  0
  -25.9184  -32.4732   23.8330 C   0  0  1  0  0  0
  -27.2184  -27.0805   20.1825 C   0  0  0  0  0  0
  -25.5898  -33.8549   24.2245 N   0  0  0  0  0  0
  -23.4501  -30.4563   21.5396 C   0  0  2  0  0  0
  -24.8954  -28.8717   20.1133 C   0  0  0  0  0  0
  -22.7637  -29.4476   22.4926 C   0  0  0  0  0  0
  -18.0375  -28.1415   22.8530 C   0  0  0  0  0  0
  -24.1456  -36.7317   23.2652 C   0  0  0  0  0  0
  -26.0001  -30.6979   21.3858 C   0  0  0  0  0  0
  -26.0725  -29.2986   20.7407 C   0  0  0  0  0  0
  -27.2244  -28.4187   20.7629 C   0  0  0  0  0  0
  -26.0229  -26.7791   19.4851 C   0  0  0  0  0  0
  -24.8860  -27.6234   19.4695 C   0  0  0  0  0  0
  -23.6738  -29.7823   20.1584 C   0  0  0  0  0  0
  -25.4093  -36.3104   24.0344 C   0  0  1  0  0  0
  -20.5979  -28.3647   23.1279 C   0  0  2  0  0  0
  -20.6800  -26.9412   22.5276 C   0  0  0  0  0  0
  -19.5778  -26.6637   21.5040 C   0  0  0  0  0  0
  -18.1968  -26.8048   22.1510 C   0  0  0  0  0  0
  -19.1651  -28.8845   23.2934 C   0  0  0  0  0  0
  -18.9633  -30.1426   23.8965 C   0  0  0  0  0  0
  -17.6653  -30.6632   24.0608 C   0  0  0  0  0  0
  -25.9030  -34.9462   23.5126 C   0  0  0  0  0  0
  -16.5505  -29.9160   23.6413 C   0  0  0  0  0  0
  -16.7374  -28.6526   23.0503 C   0  0  0  0  0  0
  -26.4464  -31.6599   25.0777 C   0  0  0  0  0  0
  -25.3654  -31.3801   26.1491 C   0  0  0  0  0  0
  -27.0309  -30.3020   24.6291 C   0  0  0  0  0  0
  -27.5994  -32.4364   25.7541 C   0  0  0  0  0  0
  -27.5579  -37.1819   24.8468 C   0  0  0  0  0  0
  -21.4314  -29.3023   22.3754 N   0  0  0  0  0  0
  -26.4289  -37.3799   23.9413 N   0  0  0  0  0  0
  -24.7209  -31.0227   22.0975 N   0  0  0  0  0  0
  -23.4321  -28.8035   23.3058 O   0  0  0  0  0  0
  -28.2680  -26.0753   20.3378 O   0  0  0  0  0  0
  -26.5633  -34.8944   22.4727 O   0  0  0  0  0  0
  -23.5545  -32.1311   23.7098 O   0  0  0  0  0  0
  -31.3322  -18.1508   23.2394 C   0  0  0  0  0  0
  -31.2055  -19.5157   23.0082 C   0  0  0  0  0  0
  -30.7934  -17.2463   22.3255 C   0  0  0  0  0  0
  -30.4654  -19.9728   21.9169 C   0  0  0  0  0  0
  -30.0718  -17.6030   21.1504 C   0  0  0  0  0  0
  -29.7942  -19.1259   20.9962 C   0  0  0  0  0  0
  -28.6864  -23.0680   20.6745 C   0  0  0  0  0  0
  -28.2403  -24.5487   19.8969 C   0  0  0  0  0  0
  -28.9869  -21.5627   19.8812 C   0  0  0  0  0  0
  -29.7244  -16.2467   20.4838 N   0  0  0  0  0  0
  -28.9139  -19.9929   20.2004 O   0  0  0  0  0  0
  -31.4514  -12.8264   19.1217 H   0  0  0  0  0  0
  -30.4650  -11.6894   20.0030 H   0  0  0  0  0  0
  -29.8455  -11.6904   17.5830 H   0  0  0  0  0  0
  -29.5403  -13.4086   17.6178 H   0  0  0  0  0  0
  -28.0506  -11.2117   19.0969 H   0  0  0  0  0  0
  -27.3736  -12.2202   17.8545 H   0  0  0  0  0  0
  -27.5670  -14.1903   19.3191 H   0  0  0  0  0  0
  -28.8059  -12.3582   21.4538 H   0  0  0  0  0  0
  -28.3547  -14.0434   21.6903 H   0  0  0  0  0  0
  -25.2768   -9.5686   22.4688 H   0  0  0  0  0  0
  -24.0005   -7.4637   22.7468 H   0  0  0  0  0  0
  -21.0842   -8.8715   19.8931 H   0  0  0  0  0  0
  -22.3675  -10.9599   19.6102 H   0  0  0  0  0  0
  -21.1985   -7.6111   23.9682 H   0  0  0  0  0  0
  -21.1473   -6.0482   25.9052 H   0  0  0  0  0  0
  -22.0633   -2.7580   23.2866 H   0  0  0  0  0  0
  -22.4194  -11.9764   22.4779 H   0  0  0  0  0  0
  -21.1113  -13.1037   22.2571 H   0  0  0  0  0  0
  -24.6421  -15.8263   20.5578 H   0  0  0  0  0  0
  -26.2512  -15.6552   20.0760 H   0  0  0  0  0  0
  -26.7264  -32.5303   23.1065 H   0  0  0  0  0  0
  -24.9910  -33.9606   25.0304 H   0  0  0  0  0  0
  -22.7528  -31.2850   21.3941 H   0  0  0  0  0  0
  -23.3724  -35.9643   23.3278 H   0  0  0  0  0  0
  -24.3545  -36.8964   22.2070 H   0  0  0  0  0  0
  -23.7171  -37.6508   23.6679 H   0  0  0  0  0  0
  -26.1353  -31.4318   20.5894 H   0  0  0  0  0  0
  -26.8805  -30.7759   22.0107 H   0  0  0  0  0  0
  -28.1104  -28.7349   21.2916 H   0  0  0  0  0  0
  -25.9098  -25.8417   18.9651 H   0  0  0  0  0  0
  -23.9869  -27.2911   18.9658 H   0  0  0  0  0  0
  -23.8190  -30.5615   19.4101 H   0  0  0  0  0  0
  -22.7769  -29.2386   19.8466 H   0  0  0  0  0  0
  -25.1260  -36.1986   25.0839 H   0  0  0  0  0  0
  -20.9979  -28.3088   24.1414 H   0  0  0  0  0  0
  -20.5673  -26.2186   23.3392 H   0  0  0  0  0  0
  -21.6641  -26.7457   22.0993 H   0  0  0  0  0  0
  -19.6920  -25.6702   21.0738 H   0  0  0  0  0  0
  -19.6746  -27.3664   20.6751 H   0  0  0  0  0  0
  -17.4197  -26.6968   21.3919 H   0  0  0  0  0  0
  -18.0385  -26.0053   22.8747 H   0  0  0  0  0  0
  -19.8178  -30.7127   24.2358 H   0  0  0  0  0  0
  -17.5250  -31.6347   24.5197 H   0  0  0  0  0  0
  -15.5492  -30.3091   23.7676 H   0  0  0  0  0  0
  -15.8743  -28.0881   22.7225 H   0  0  0  0  0  0
  -24.5851  -30.7086   25.7877 H   0  0  0  0  0  0
  -24.8799  -32.2968   26.4857 H   0  0  0  0  0  0
  -25.7964  -30.9075   27.0323 H   0  0  0  0  0  0
  -26.2899  -29.6781   24.1266 H   0  0  0  0  0  0
  -27.3913  -29.7289   25.4835 H   0  0  0  0  0  0
  -27.8813  -30.4306   23.9597 H   0  0  0  0  0  0
  -27.2607  -33.3704   26.2041 H   0  0  0  0  0  0
  -28.3838  -32.6856   25.0390 H   0  0  0  0  0  0
  -28.0610  -31.8540   26.5503 H   0  0  0  0  0  0
  -28.2621  -38.0093   24.7525 H   0  0  0  0  0  0
  -28.1041  -36.2638   24.6273 H   0  0  0  0  0  0
  -27.2303  -37.1477   25.8871 H   0  0  0  0  0  0
  -20.9473  -29.9004   21.7228 H   0  0  0  0  0  0
  -26.0175  -38.2893   24.1391 H   0  0  0  0  0  0
  -31.8385  -17.7872   24.1210 H   0  0  0  0  0  0
  -31.6176  -20.2198   23.7142 H   0  0  0  0  0  0
  -30.9451  -16.2148   22.6065 H   0  0  0  0  0  0
  -30.3508  -21.0435   21.8653 H   0  0  0  0  0  0
  -27.9277  -22.8849   21.4324 H   0  0  0  0  0  0
  -29.5800  -23.2765   21.2690 H   0  0  0  0  0  0
  -27.2489  -24.3400   19.5041 H   0  0  0  0  0  0
  -28.8776  -24.5765   19.0139 H   0  0  0  0  0  0
  -29.9354  -21.6896   19.3570 H   0  0  0  0  0  0
  -28.2576  -21.6293   19.0718 H   0  0  0  0  0  0
  -28.7324  -16.0951   20.3997 H   0  0  0  0  0  0
  1 25  1  0  0  0
  1 30  2  0  0  0
  1 80  1  0  0  0
  2  3  1  0  0  0
  2 25  1  0  0  0
  2 82  1  0  0  0
  2 83  1  0  0  0
  3  4  1  0  0  0
  3 84  1  0  0  0
  3 85  1  0  0  0
  4  5  1  0  0  0
  4 86  1  0  0  0
  4 87  1  0  0  0
  5  6  1  0  0  0
  5 26  1  0  0  0
  5 88  1  0  0  0
  6 25  1  0  0  0
  6 89  1  0  0  0
  6 90  1  0  0  0
  7  8  2  0  0  0
  7 26  1  0  0  0
  7 29  1  0  0  0
  8  9  1  0  0  0
  8 22  1  0  0  0
  9 10  1  0  0  0
  9 27  2  0  0  0
 10 11  2  0  0  0
 10 15  1  0  0  0
 11 12  1  0  0  0
 11 91  1  0  0  0
 12 13  2  0  0  0
 12 92  1  0  0  0
 13 14  1  0  0  0
 13 31  1  0  0  0
 14 15  2  0  0  0
 14 93  1  0  0  0
 15 94  1  0  0  0
 16 17  2  0  0  0
 16 21  1  0  0  0
 16 31  1  0  0  0
 17 18  1  0  0  0
 17 95  1  0  0  0
 18 19  2  0  0  0
 18 96  1  0  0  0
 19 20  1  0  0  0
 19 24  1  0  0  0
 20 21  2  0  0  0
 20 97  1  0  0  0
 21 23  1  0  0  0
 22 28  1  0  0  0
 22 32  2  0  0  0
 26 27  1  0  0  0
 28 98  1  0  0  0
 28 99  1  0  0  0
 29100  1  0  0  0
 29101  1  0  0  0
 33 34  1  0  0  0
 33 66  1  0  0  0
 33 70  2  0  0  0
 34 36  1  0  0  0
 34 59  1  0  0  0
 34102  1  0  0  0
 35 44  2  0  0  0
 35 45  1  0  0  0
 35 68  1  0  0  0
 36 56  1  0  0  0
 36103  1  0  0  0
 37 39  1  0  0  0
 37 47  1  0  0  0
 37 66  1  0  0  0
 37104  1  0  0  0
 38 43  2  0  0  0
 38 46  1  0  0  0
 38 47  1  0  0  0
 39 64  1  0  0  0
 39 67  2  0  0  0
 40 52  1  0  0  0
 40 53  2  0  0  0
 40 58  1  0  0  0
 41105  1  0  0  0
 41106  1  0  0  0
 41107  1  0  0  0
 41 48  1  0  0  0
 42 43  1  0  0  0
 42 66  1  0  0  0
 42108  1  0  0  0
 42109  1  0  0  0
 43 44  1  0  0  0
 44110  1  0  0  0
 45 46  2  0  0  0
 45111  1  0  0  0
 46112  1  0  0  0
 47113  1  0  0  0
 47114  1  0  0  0
 48 56  1  0  0  0
 48 65  1  0  0  0
 48115  1  0  0  0
 49 50  1  0  0  0
 49 53  1  0  0  0
 49 64  1  0  0  0
 49116  1  0  0  0
 50 51  1  0  0  0
 50117  1  0  0  0
 50118  1  0  0  0
 51 52  1  0  0  0
 51119  1  0  0  0
 51120  1  0  0  0
 52121  1  0  0  0
 52122  1  0  0  0
 53 54  1  0  0  0
 54 55  2  0  0  0
 54123  1  0  0  0
 55 57  1  0  0  0
 55124  1  0  0  0
 56 69  2  0  0  0
 57 58  2  0  0  0
 57125  1  0  0  0
 58126  1  0  0  0
 59 60  1  0  0  0
 59 61  1  0  0  0
 59 62  1  0  0  0
 60127  1  0  0  0
 60128  1  0  0  0
 60129  1  0  0  0
 61130  1  0  0  0
 61131  1  0  0  0
 61132  1  0  0  0
 62133  1  0  0  0
 62134  1  0  0  0
 62135  1  0  0  0
 63 65  1  0  0  0
 63136  1  0  0  0
 63137  1  0  0  0
 63138  1  0  0  0
 64139  1  0  0  0
 65140  1  0  0  0
 68 78  1  0  0  0
 71 72  2  0  0  0
 71 73  1  0  0  0
 71141  1  0  0  0
 72 74  1  0  0  0
 72142  1  0  0  0
 73 75  2  0  0  0
 73143  1  0  0  0
 74 76  2  0  0  0
 74144  1  0  0  0
 75 76  1  0  0  0
 75 80  1  0  0  0
 76 81  1  0  0  0
 77 78  1  0  0  0
 77 79  1  0  0  0
 77145  1  0  0  0
 77146  1  0  0  0
 78147  1  0  0  0
 78148  1  0  0  0
 79 81  1  0  0  0
 79149  1  0  0  0
 79150  1  0  0  0
 80151  1  0  0  0
M  ISO  4   1 100  68 101  78 101  80 100
M  END
> <chiral flag>
0

> <version>
0

> <s_m_source_file>
/data/baiqing/PycharmProjects/Reinvent-master-3.2/result/LINK_invent/BTK/process_docking_weight1_custom_sum_contain_oxygen_bond_distance_aromatic_linkinvent_7_9_3/rearranged_h_0003.sdf

> <i_m_source_file_index>
86

> <r_mmod_Potential_Energy-OPLS-2005>
873.905090332031

> <r_mmod_Stretch_Energy-OPLS-2005>
387.765472412109

> <r_mmod_Bend_Energy-OPLS-2005>
439.809753417969

> <r_mmod_Torsional_Energy-OPLS-2005>
243.070327758789

> <r_mmod_Improper_Torsional_Energy-OPLS-2005>
6.96536016464233

> <r_mmod_Van_der_Waal_Energy-OPLS-2005>
144.070739746094

> <r_mmod_Electrostatic_Energy-OPLS-2005>
-383.493530273438

> <r_mmod_Solvation_Energy-OPLS-2005>
-217.433380126953

> <b_mmod_Minimization_Converged-OPLS-2005>
0

> <r_mmod_RMS_Derivative-OPLS-2005>
8.36663627624512

$$$$
88
                    3D
 Structure written by MMmdl.
154162  0  0  1  0            999 V2000
  -30.6781  -14.5756   20.5067 C   0  0  0  0  0  0
  -30.4152  -12.3573   19.4332 C   0  0  0  0  0  0
  -29.4939  -12.4998   18.2041 C   0  0  0  0  0  0
  -28.0149  -12.3559   18.6179 C   0  0  0  0  0  0
  -27.6484  -13.2221   19.8552 C   0  0  2  0  0  0
  -28.6947  -13.0852   20.9818 C   0  0  0  0  0  0
  -25.2557  -13.8187   20.5691 C   0  0  0  0  0  0
  -24.1836  -13.0432   20.9210 C   0  0  0  0  0  0
  -24.6412  -11.6908   20.8749 C   0  0  0  0  0  0
  -23.9088  -10.4285   21.0421 C   0  0  0  0  0  0
  -24.3630   -9.4199   21.9202 C   0  0  0  0  0  0
  -23.6305   -8.2234   22.0763 C   0  0  0  0  0  0
  -22.4288   -8.0284   21.3557 C   0  0  0  0  0  0
  -21.9929   -9.0263   20.4659 C   0  0  0  0  0  0
  -22.7266  -10.2138   20.3065 C   0  0  0  0  0  0
  -21.6853   -6.0741   22.5292 C   0  0  0  0  0  0
  -21.4014   -6.5638   23.8232 C   0  0  0  0  0  0
  -21.3663   -5.6794   24.9188 C   0  0  0  0  0  0
  -21.6030   -4.3059   24.7241 C   0  0  0  0  0  0
  -21.8819   -3.8147   23.4365 C   0  0  0  0  0  0
  -21.9196   -4.6962   22.3416 C   0  0  0  0  0  0
  -22.7861  -13.5230   21.1868 C   0  0  0  0  0  0
  -22.1665   -4.2141   21.1001 F   0  0  0  0  0  0
  -21.5624   -3.4545   25.7759 F   0  0  0  0  0  0
  -30.0079  -13.3913   20.4004 N   0  0  0  0  0  0
  -26.2973  -12.9378   20.3296 N   0  0  0  0  0  0
  -25.9339  -11.6523   20.5749 N   0  0  0  0  0  0
  -22.0508  -12.8213   22.0416 N   0  0  0  0  0  0
  -25.4257  -15.1906   20.4108 N   0  0  0  0  0  0
  -31.8576  -14.6825   20.1604 O   0  0  0  0  0  0
  -21.6650   -6.8881   21.4258 O   0  0  0  0  0  0
  -22.3555  -14.5548   20.6734 O   0  0  0  0  0  0
  -24.6206  -31.8612   23.2067 C   0  0  0  0  0  0
  -25.9070  -32.4784   23.8375 C   0  0  1  0  0  0
  -27.2150  -27.3711   20.1120 C   0  0  0  0  0  0
  -25.5893  -33.8585   24.2305 N   0  0  0  0  0  0
  -23.4122  -30.4837   21.5505 C   0  0  2  0  0  0
  -24.8562  -28.9476   20.1092 C   0  0  0  0  0  0
  -22.7456  -29.4598   22.4987 C   0  0  0  0  0  0
  -18.0276  -28.1374   22.8475 C   0  0  0  0  0  0
  -24.1492  -36.7295   23.2646 C   0  0  0  0  0  0
  -25.9466  -30.8129   21.3664 C   0  0  0  0  0  0
  -26.0229  -29.4443   20.7082 C   0  0  0  0  0  0
  -27.2112  -28.6652   20.6981 C   0  0  0  0  0  0
  -26.0332  -26.9055   19.5029 C   0  0  0  0  0  0
  -24.8596  -27.6825   19.4980 C   0  0  0  0  0  0
  -23.6221  -29.8215   20.1631 C   0  0  0  0  0  0
  -25.4110  -36.3081   24.0338 C   0  0  1  0  0  0
  -20.5869  -28.3641   23.1322 C   0  0  2  0  0  0
  -20.6767  -26.9375   22.5419 C   0  0  0  0  0  0
  -19.5752  -26.6379   21.5217 C   0  0  0  0  0  0
  -18.1927  -26.7919   22.1622 C   0  0  0  0  0  0
  -19.1526  -28.8833   23.2878 C   0  0  0  0  0  0
  -18.9458  -30.1448   23.8877 C   0  0  0  0  0  0
  -17.6449  -30.6582   24.0562 C   0  0  0  0  0  0
  -25.9033  -34.9449   23.5129 C   0  0  0  0  0  0
  -16.5340  -29.9072   23.6332 C   0  0  0  0  0  0
  -16.7251  -28.6497   23.0332 C   0  0  0  0  0  0
  -26.4475  -31.6586   25.0726 C   0  0  0  0  0  0
  -25.3713  -31.3720   26.1460 C   0  0  0  0  0  0
  -27.0326  -30.3023   24.6145 C   0  0  0  0  0  0
  -27.6052  -32.4318   25.7477 C   0  0  0  0  0  0
  -27.5582  -37.1792   24.8469 C   0  0  0  0  0  0
  -21.4171  -29.3007   22.3740 N   0  0  0  0  0  0
  -26.4294  -37.3769   23.9420 N   0  0  0  0  0  0
  -24.6791  -31.0669   22.0995 N   0  0  0  0  0  0
  -23.4204  -28.8154   23.3058 O   0  0  0  0  0  0
  -28.3313  -26.5469   20.1228 O   0  0  0  0  0  0
  -26.5607  -34.8901   22.4696 O   0  0  0  0  0  0
  -23.5374  -32.1411   23.7417 O   0  0  0  0  0  0
  -31.9303  -18.2364   22.6464 C   0  0  0  0  0  0
  -31.4598  -19.4508   22.1221 C   0  0  0  0  0  0
  -31.4144  -17.0185   22.1811 C   0  0  0  0  0  0
  -29.9044  -18.2400   20.6862 C   0  0  0  0  0  0
  -30.4391  -19.4914   21.1455 C   0  0  0  0  0  0
  -30.4136  -16.9868   21.1845 C   0  0  0  0  0  0
  -30.0703  -20.8799   20.6235 C   0  0  0  0  0  0
  -28.5533  -23.9338   20.1674 C   0  0  0  0  0  0
  -28.4109  -22.7123   21.1503 C   0  0  0  0  0  0
  -28.1794  -25.2974   20.8630 C   0  0  0  0  0  0
  -29.9287  -15.6886   20.7656 N   0  0  0  0  0  0
  -28.8037  -21.3259   20.7480 N   0  0  0  0  0  0
  -30.9748  -21.6397   20.2668 O   0  0  0  0  0  0
  -31.4629  -12.4414   19.1403 H   0  0  0  0  0  0
  -30.3067  -11.3648   19.8762 H   0  0  0  0  0  0
  -29.7449  -11.7489   17.4548 H   0  0  0  0  0  0
  -29.6508  -13.4701   17.7291 H   0  0  0  0  0  0
  -27.8339  -11.3028   18.8352 H   0  0  0  0  0  0
  -27.3649  -12.6079   17.7786 H   0  0  0  0  0  0
  -27.6656  -14.2582   19.5159 H   0  0  0  0  0  0
  -28.6901  -12.0737   21.3906 H   0  0  0  0  0  0
  -28.4607  -13.7511   21.8147 H   0  0  0  0  0  0
  -25.2774   -9.5656   22.4788 H   0  0  0  0  0  0
  -24.0008   -7.4611   22.7472 H   0  0  0  0  0  0
  -21.0858   -8.8793   19.8962 H   0  0  0  0  0  0
  -22.3744  -10.9680   19.6164 H   0  0  0  0  0  0
  -21.2006   -7.6147   23.9725 H   0  0  0  0  0  0
  -21.1489   -6.0533   25.9091 H   0  0  0  0  0  0
  -22.0593   -2.7608   23.2885 H   0  0  0  0  0  0
  -22.4145  -11.9859   22.4757 H   0  0  0  0  0  0
  -21.1126  -13.1230   22.2635 H   0  0  0  0  0  0
  -24.6556  -15.8422   20.5168 H   0  0  0  0  0  0
  -26.2667  -15.6308   20.0613 H   0  0  0  0  0  0
  -26.7141  -32.5468   23.1124 H   0  0  0  0  0  0
  -25.0013  -33.9720   25.0434 H   0  0  0  0  0  0
  -22.7039  -31.3031   21.4143 H   0  0  0  0  0  0
  -23.3732  -35.9646   23.3319 H   0  0  0  0  0  0
  -24.3590  -36.8910   22.2062 H   0  0  0  0  0  0
  -23.7248  -37.6502   23.6655 H   0  0  0  0  0  0
  -26.0654  -31.5832   20.6023 H   0  0  0  0  0  0
  -26.8303  -30.8621   21.9922 H   0  0  0  0  0  0
  -28.1144  -29.0392   21.1636 H   0  0  0  0  0  0
  -26.0176  -25.9280   19.0430 H   0  0  0  0  0  0
  -23.9627  -27.3031   19.0263 H   0  0  0  0  0  0
  -23.7289  -30.6026   19.4105 H   0  0  0  0  0  0
  -22.7423  -29.2477   19.8635 H   0  0  0  0  0  0
  -25.1282  -36.1967   25.0826 H   0  0  0  0  0  0
  -20.9933  -28.3201   24.1454 H   0  0  0  0  0  0
  -20.5721  -26.2221   23.3599 H   0  0  0  0  0  0
  -21.6632  -26.7452   22.1194 H   0  0  0  0  0  0
  -19.6919  -25.6301   21.1229 H   0  0  0  0  0  0
  -19.6715  -27.3202   20.6764 H   0  0  0  0  0  0
  -17.4199  -26.6661   21.4007 H   0  0  0  0  0  0
  -18.0316  -26.0070   22.9027 H   0  0  0  0  0  0
  -19.7935  -30.7277   24.2228 H   0  0  0  0  0  0
  -17.5003  -31.6264   24.5153 H   0  0  0  0  0  0
  -15.5330  -30.2957   23.7700 H   0  0  0  0  0  0
  -15.8657  -28.0840   22.7015 H   0  0  0  0  0  0
  -24.5902  -30.7052   25.7795 H   0  0  0  0  0  0
  -24.8856  -32.2877   26.4843 H   0  0  0  0  0  0
  -25.8026  -30.8941   27.0269 H   0  0  0  0  0  0
  -26.2904  -29.6764   24.1172 H   0  0  0  0  0  0
  -27.4057  -29.7277   25.4631 H   0  0  0  0  0  0
  -27.8748  -30.4328   23.9347 H   0  0  0  0  0  0
  -27.2687  -33.3634   26.2044 H   0  0  0  0  0  0
  -28.3851  -32.6846   25.0288 H   0  0  0  0  0  0
  -28.0720  -31.8441   26.5404 H   0  0  0  0  0  0
  -28.2581  -38.0099   24.7501 H   0  0  0  0  0  0
  -28.1085  -36.2621   24.6304 H   0  0  0  0  0  0
  -27.2291  -37.1452   25.8866 H   0  0  0  0  0  0
  -20.9352  -29.8705   21.6936 H   0  0  0  0  0  0
  -26.0188  -38.2852   24.1415 H   0  0  0  0  0  0
  -32.6973  -18.2389   23.4088 H   0  0  0  0  0  0
  -31.8955  -20.3721   22.4824 H   0  0  0  0  0  0
  -31.8026  -16.1058   22.6108 H   0  0  0  0  0  0
  -29.1470  -18.2461   19.9149 H   0  0  0  0  0  0
  -27.9114  -23.7848   19.3003 H   0  0  0  0  0  0
  -29.5751  -23.9903   19.7924 H   0  0  0  0  0  0
  -27.3619  -22.6542   21.4492 H   0  0  0  0  0  0
  -28.9525  -22.9459   22.0680 H   0  0  0  0  0  0
  -28.8144  -25.4042   21.7424 H   0  0  0  0  0  0
  -27.1707  -25.2021   21.2715 H   0  0  0  0  0  0
  -28.9287  -15.5615   20.7467 H   0  0  0  0  0  0
  -28.1315  -20.6064   20.9841 H   0  0  0  0  0  0
  1 25  1  0  0  0
  1 30  2  0  0  0
  1 81  1  0  0  0
  2  3  1  0  0  0
  2 25  1  0  0  0
  2 84  1  0  0  0
  2 85  1  0  0  0
  3  4  1  0  0  0
  3 86  1  0  0  0
  3 87  1  0  0  0
  4  5  1  0  0  0
  4 88  1  0  0  0
  4 89  1  0  0  0
  5  6  1  0  0  0
  5 26  1  0  0  0
  5 90  1  0  0  0
  6 25  1  0  0  0
  6 91  1  0  0  0
  6 92  1  0  0  0
  7  8  2  0  0  0
  7 26  1  0  0  0
  7 29  1  0  0  0
  8  9  1  0  0  0
  8 22  1  0  0  0
  9 10  1  0  0  0
  9 27  2  0  0  0
 10 11  2  0  0  0
 10 15  1  0  0  0
 11 12  1  0  0  0
 11 93  1  0  0  0
 12 13  2  0  0  0
 12 94  1  0  0  0
 13 14  1  0  0  0
 13 31  1  0  0  0
 14 15  2  0  0  0
 14 95  1  0  0  0
 15 96  1  0  0  0
 16 17  2  0  0  0
 16 21  1  0  0  0
 16 31  1  0  0  0
 17 18  1  0  0  0
 17 97  1  0  0  0
 18 19  2  0  0  0
 18 98  1  0  0  0
 19 20  1  0  0  0
 19 24  1  0  0  0
 20 21  2  0  0  0
 20 99  1  0  0  0
 21 23  1  0  0  0
 22 28  1  0  0  0
 22 32  2  0  0  0
 26 27  1  0  0  0
 28100  1  0  0  0
 28101  1  0  0  0
 29102  1  0  0  0
 29103  1  0  0  0
 33 34  1  0  0  0
 33 66  1  0  0  0
 33 70  2  0  0  0
 34 36  1  0  0  0
 34 59  1  0  0  0
 34104  1  0  0  0
 35 44  2  0  0  0
 35 45  1  0  0  0
 35 68  1  0  0  0
 36 56  1  0  0  0
 36105  1  0  0  0
 37 39  1  0  0  0
 37 47  1  0  0  0
 37 66  1  0  0  0
 37106  1  0  0  0
 38 43  2  0  0  0
 38 46  1  0  0  0
 38 47  1  0  0  0
 39 64  1  0  0  0
 39 67  2  0  0  0
 40 52  1  0  0  0
 40 53  2  0  0  0
 40 58  1  0  0  0
 41107  1  0  0  0
 41108  1  0  0  0
 41109  1  0  0  0
 41 48  1  0  0  0
 42 43  1  0  0  0
 42 66  1  0  0  0
 42110  1  0  0  0
 42111  1  0  0  0
 43 44  1  0  0  0
 44112  1  0  0  0
 45 46  2  0  0  0
 45113  1  0  0  0
 46114  1  0  0  0
 47115  1  0  0  0
 47116  1  0  0  0
 48 56  1  0  0  0
 48 65  1  0  0  0
 48117  1  0  0  0
 49 50  1  0  0  0
 49 53  1  0  0  0
 49 64  1  0  0  0
 49118  1  0  0  0
 50 51  1  0  0  0
 50119  1  0  0  0
 50120  1  0  0  0
 51 52  1  0  0  0
 51121  1  0  0  0
 51122  1  0  0  0
 52123  1  0  0  0
 52124  1  0  0  0
 53 54  1  0  0  0
 54 55  2  0  0  0
 54125  1  0  0  0
 55 57  1  0  0  0
 55126  1  0  0  0
 56 69  2  0  0  0
 57 58  2  0  0  0
 57127  1  0  0  0
 58128  1  0  0  0
 59 60  1  0  0  0
 59 61  1  0  0  0
 59 62  1  0  0  0
 60129  1  0  0  0
 60130  1  0  0  0
 60131  1  0  0  0
 61132  1  0  0  0
 61133  1  0  0  0
 61134  1  0  0  0
 62135  1  0  0  0
 62136  1  0  0  0
 62137  1  0  0  0
 63 65  1  0  0  0
 63138  1  0  0  0
 63139  1  0  0  0
 63140  1  0  0  0
 64141  1  0  0  0
 65142  1  0  0  0
 68 80  1  0  0  0
 71 72  2  0  0  0
 71 73  1  0  0  0
 71143  1  0  0  0
 72 75  1  0  0  0
 72144  1  0  0  0
 73 76  2  0  0  0
 73145  1  0  0  0
 74 75  2  0  0  0
 74 76  1  0  0  0
 74146  1  0  0  0
 75 77  1  0  0  0
 76 81  1  0  0  0
 77 82  1  0  0  0
 77 83  2  0  0  0
 78 79  1  0  0  0
 78 80  1  0  0  0
 78147  1  0  0  0
 78148  1  0  0  0
 79 82  1  0  0  0
 79149  1  0  0  0
 79150  1  0  0  0
 80151  1  0  0  0
 80152  1  0  0  0
 81153  1  0  0  0
 82154  1  0  0  0
M  ISO  4   1 100  68 101  80 101  81 100
M  END
> <chiral flag>
0

> <version>
0

> <s_m_source_file>
/data/baiqing/PycharmProjects/Reinvent-master-3.2/result/LINK_invent/BTK/process_docking_weight1_custom_sum_contain_oxygen_bond_distance_aromatic_linkinvent_7_9_3/rearranged_h_0003.sdf

> <i_m_source_file_index>
87

> <r_mmod_Potential_Energy-OPLS-2005>
-6.84075784683228

> <r_mmod_Stretch_Energy-OPLS-2005>
57.7708206176758

> <r_mmod_Bend_Energy-OPLS-2005>
122.469619750977

> <r_mmod_Torsional_Energy-OPLS-2005>
278.912048339844

> <r_mmod_Improper_Torsional_Energy-OPLS-2005>
10.5075798034668

> <r_mmod_Van_der_Waal_Energy-OPLS-2005>
143.249465942383

> <r_mmod_Electrostatic_Energy-OPLS-2005>
-409.116546630859

> <r_mmod_Solvation_Energy-OPLS-2005>
-243.69189453125

> <b_mmod_Minimization_Converged-OPLS-2005>
0

> <r_mmod_RMS_Derivative-OPLS-2005>
3.05263543128967

$$$$
89
                    3D
 Structure written by MMmdl.
151159  0  0  1  0            999 V2000
  -30.6225  -14.6233   20.5083 C   0  0  0  0  0  0
  -30.4418  -12.3822   19.4494 C   0  0  0  0  0  0
  -29.5096  -12.5061   18.2229 C   0  0  0  0  0  0
  -28.0318  -12.3445   18.6342 C   0  0  0  0  0  0
  -27.6567  -13.2123   19.8657 C   0  0  2  0  0  0
  -28.7008  -13.0502   20.9940 C   0  0  0  0  0  0
  -25.2577  -13.8162   20.5679 C   0  0  0  0  0  0
  -24.1839  -13.0434   20.9190 C   0  0  0  0  0  0
  -24.6398  -11.6903   20.8739 C   0  0  0  0  0  0
  -23.9060  -10.4291   21.0410 C   0  0  0  0  0  0
  -24.3613   -9.4210   21.9188 C   0  0  0  0  0  0
  -23.6292   -8.2241   22.0754 C   0  0  0  0  0  0
  -22.4275   -8.0276   21.3542 C   0  0  0  0  0  0
  -21.9906   -9.0253   20.4649 C   0  0  0  0  0  0
  -22.7232  -10.2135   20.3062 C   0  0  0  0  0  0
  -21.6848   -6.0738   22.5282 C   0  0  0  0  0  0
  -21.4009   -6.5641   23.8217 C   0  0  0  0  0  0
  -21.3661   -5.6789   24.9178 C   0  0  0  0  0  0
  -21.6043   -4.3053   24.7224 C   0  0  0  0  0  0
  -21.8819   -3.8147   23.4347 C   0  0  0  0  0  0
  -21.9191   -4.6965   22.3405 C   0  0  0  0  0  0
  -22.7863  -13.5237   21.1853 C   0  0  0  0  0  0
  -22.1662   -4.2155   21.0982 F   0  0  0  0  0  0
  -21.5630   -3.4532   25.7736 F   0  0  0  0  0  0
  -30.0198  -13.3948   20.4368 N   0  0  0  0  0  0
  -26.3004  -12.9336   20.3314 N   0  0  0  0  0  0
  -25.9321  -11.6495   20.5748 N   0  0  0  0  0  0
  -22.0494  -12.8238   22.0409 N   0  0  0  0  0  0
  -25.4295  -15.1884   20.4095 N   0  0  0  0  0  0
  -31.7781  -14.7966   20.1076 O   0  0  0  0  0  0
  -21.6635   -6.8879   21.4244 O   0  0  0  0  0  0
  -22.3554  -14.5543   20.6698 O   0  0  0  0  0  0
  -24.6259  -31.8615   23.2045 C   0  0  0  0  0  0
  -25.9110  -32.4786   23.8371 C   0  0  1  0  0  0
  -27.2178  -27.3267   20.1079 C   0  0  0  0  0  0
  -25.5929  -33.8586   24.2300 N   0  0  0  0  0  0
  -23.4182  -30.4886   21.5476 C   0  0  2  0  0  0
  -24.8621  -28.9486   20.1097 C   0  0  0  0  0  0
  -22.7472  -29.4639   22.4933 C   0  0  0  0  0  0
  -18.0289  -28.1385   22.8491 C   0  0  0  0  0  0
  -24.1488  -36.7292   23.2638 C   0  0  0  0  0  0
  -25.9606  -30.7946   21.3745 C   0  0  0  0  0  0
  -26.0329  -29.4239   20.7142 C   0  0  0  0  0  0
  -27.2142  -28.6248   20.7038 C   0  0  0  0  0  0
  -26.0216  -26.9067   19.4781 C   0  0  0  0  0  0
  -24.8583  -27.6951   19.4830 C   0  0  0  0  0  0
  -23.6315  -29.8295   20.1609 C   0  0  0  0  0  0
  -25.4110  -36.3087   24.0338 C   0  0  1  0  0  0
  -20.5892  -28.3687   23.1285 C   0  0  2  0  0  0
  -20.6777  -26.9412   22.5408 C   0  0  0  0  0  0
  -19.5752  -26.6390   21.5213 C   0  0  0  0  0  0
  -18.1934  -26.7929   22.1632 C   0  0  0  0  0  0
  -19.1541  -28.8851   23.2887 C   0  0  0  0  0  0
  -18.9462  -30.1455   23.8904 C   0  0  0  0  0  0
  -17.6461  -30.6589   24.0565 C   0  0  0  0  0  0
  -25.9050  -34.9454   23.5121 C   0  0  0  0  0  0
  -16.5353  -29.9089   23.6329 C   0  0  0  0  0  0
  -16.7276  -28.6505   23.0355 C   0  0  0  0  0  0
  -26.4492  -31.6584   25.0730 C   0  0  0  0  0  0
  -25.3730  -31.3730   26.1464 C   0  0  0  0  0  0
  -27.0317  -30.3006   24.6169 C   0  0  0  0  0  0
  -27.6076  -32.4293   25.7487 C   0  0  0  0  0  0
  -27.5581  -37.1800   24.8467 C   0  0  0  0  0  0
  -21.4186  -29.3045   22.3679 N   0  0  0  0  0  0
  -26.4289  -37.3779   23.9418 N   0  0  0  0  0  0
  -24.6875  -31.0639   22.0992 N   0  0  0  0  0  0
  -23.4198  -28.8169   23.3001 O   0  0  0  0  0  0
  -28.3324  -26.4737   20.1583 O   0  0  0  0  0  0
  -26.5610  -34.8915   22.4682 O   0  0  0  0  0  0
  -23.5422  -32.1408   23.7377 O   0  0  0  0  0  0
  -30.8900  -19.2621   20.0720 C   0  0  0  0  0  0
  -28.6856  -19.2877   21.0333 C   0  0  0  0  0  0
  -30.9401  -17.8400   20.1881 C   0  0  0  0  0  0
  -28.7393  -17.8687   21.1589 C   0  0  0  0  0  0
  -29.7645  -20.0285   20.4845 C   0  0  0  0  0  0
  -29.8612  -17.1018   20.7420 C   0  0  0  0  0  0
  -28.8226  -22.4378   20.3658 C   0  0  0  0  0  0
  -29.2124  -23.9702   20.3851 C   0  0  0  0  0  0
  -28.0842  -25.0211   20.0070 C   0  0  0  0  0  0
  -29.8105  -21.4895   20.3935 N   0  0  0  0  0  0
  -29.8109  -15.6499   20.9078 N   0  0  0  0  0  0
  -27.6301  -22.1276   20.3149 O   0  0  0  0  0  0
  -31.4830  -12.5093   19.1474 H   0  0  0  0  0  0
  -30.3772  -11.3830   19.8827 H   0  0  0  0  0  0
  -29.7730  -11.7585   17.4735 H   0  0  0  0  0  0
  -29.6529  -13.4779   17.7470 H   0  0  0  0  0  0
  -27.8679  -11.2908   18.8638 H   0  0  0  0  0  0
  -27.3769  -12.5764   17.7937 H   0  0  0  0  0  0
  -27.6803  -14.2501   19.5320 H   0  0  0  0  0  0
  -28.7081  -12.0226   21.3613 H   0  0  0  0  0  0
  -28.4453  -13.6671   21.8566 H   0  0  0  0  0  0
  -25.2760   -9.5681   22.4757 H   0  0  0  0  0  0
  -24.0004   -7.4629   22.7464 H   0  0  0  0  0  0
  -21.0837   -8.8770   19.8953 H   0  0  0  0  0  0
  -22.3692  -10.9671   19.6166 H   0  0  0  0  0  0
  -21.1999   -7.6149   23.9722 H   0  0  0  0  0  0
  -21.1484   -6.0519   25.9081 H   0  0  0  0  0  0
  -22.0598   -2.7608   23.2840 H   0  0  0  0  0  0
  -22.4096  -11.9898   22.4808 H   0  0  0  0  0  0
  -21.1113  -13.1276   22.2610 H   0  0  0  0  0  0
  -24.6577  -15.8384   20.5118 H   0  0  0  0  0  0
  -26.2703  -15.6250   20.0532 H   0  0  0  0  0  0
  -26.7178  -32.5454   23.1120 H   0  0  0  0  0  0
  -25.0075  -33.9729   25.0445 H   0  0  0  0  0  0
  -22.7129  -31.3109   21.4093 H   0  0  0  0  0  0
  -23.3756  -35.9617   23.3289 H   0  0  0  0  0  0
  -24.3591  -36.8916   22.2055 H   0  0  0  0  0  0
  -23.7228  -37.6490   23.6655 H   0  0  0  0  0  0
  -26.0939  -31.5600   20.6084 H   0  0  0  0  0  0
  -26.8407  -30.8406   22.0039 H   0  0  0  0  0  0
  -28.1123  -28.9845   21.1866 H   0  0  0  0  0  0
  -25.9485  -25.9523   18.9794 H   0  0  0  0  0  0
  -23.9617  -27.3275   19.0026 H   0  0  0  0  0  0
  -23.7517  -30.6094   19.4082 H   0  0  0  0  0  0
  -22.7492  -29.2629   19.8564 H   0  0  0  0  0  0
  -25.1285  -36.1945   25.0829 H   0  0  0  0  0  0
  -20.9999  -28.3257   24.1400 H   0  0  0  0  0  0
  -20.5692  -26.2292   23.3604 H   0  0  0  0  0  0
  -21.6646  -26.7449   22.1191 H   0  0  0  0  0  0
  -19.6909  -25.6303   21.1242 H   0  0  0  0  0  0
  -19.6685  -27.3204   20.6747 H   0  0  0  0  0  0
  -17.4201  -26.6676   21.4037 H   0  0  0  0  0  0
  -18.0338  -26.0074   22.9034 H   0  0  0  0  0  0
  -19.7934  -30.7271   24.2277 H   0  0  0  0  0  0
  -17.5015  -31.6271   24.5164 H   0  0  0  0  0  0
  -15.5352  -30.2994   23.7647 H   0  0  0  0  0  0
  -15.8680  -28.0829   22.7065 H   0  0  0  0  0  0
  -24.5873  -30.7121   25.7786 H   0  0  0  0  0  0
  -24.8955  -32.2901   26.4923 H   0  0  0  0  0  0
  -25.8046  -30.8865   27.0220 H   0  0  0  0  0  0
  -26.2877  -29.6765   24.1202 H   0  0  0  0  0  0
  -27.4031  -29.7254   25.4659 H   0  0  0  0  0  0
  -27.8747  -30.4296   23.9378 H   0  0  0  0  0  0
  -27.2732  -33.3616   26.2052 H   0  0  0  0  0  0
  -28.3890  -32.6809   25.0302 H   0  0  0  0  0  0
  -28.0733  -31.8408   26.5402 H   0  0  0  0  0  0
  -28.2599  -38.0098   24.7520 H   0  0  0  0  0  0
  -28.1079  -36.2633   24.6283 H   0  0  0  0  0  0
  -27.2303  -37.1432   25.8870 H   0  0  0  0  0  0
  -20.9357  -29.8774   21.6902 H   0  0  0  0  0  0
  -26.0175  -38.2857   24.1416 H   0  0  0  0  0  0
  -31.7477  -19.7682   19.6520 H   0  0  0  0  0  0
  -27.8046  -19.8023   21.3894 H   0  0  0  0  0  0
  -31.8293  -17.3304   19.8462 H   0  0  0  0  0  0
  -27.8869  -17.3668   21.5952 H   0  0  0  0  0  0
  -30.0681  -24.1163   19.7263 H   0  0  0  0  0  0
  -29.5639  -24.1927   21.3921 H   0  0  0  0  0  0
  -27.2039  -24.7700   20.6018 H   0  0  0  0  0  0
  -27.8172  -24.8330   18.9663 H   0  0  0  0  0  0
  -30.7424  -21.8769   20.3285 H   0  0  0  0  0  0
  -28.9344  -15.3091   21.2715 H   0  0  0  0  0  0
  1 25  1  0  0  0
  1 30  2  0  0  0
  1 81  1  0  0  0
  2  3  1  0  0  0
  2 25  1  0  0  0
  2 83  1  0  0  0
  2 84  1  0  0  0
  3  4  1  0  0  0
  3 85  1  0  0  0
  3 86  1  0  0  0
  4  5  1  0  0  0
  4 87  1  0  0  0
  4 88  1  0  0  0
  5  6  1  0  0  0
  5 26  1  0  0  0
  5 89  1  0  0  0
  6 25  1  0  0  0
  6 90  1  0  0  0
  6 91  1  0  0  0
  7  8  2  0  0  0
  7 26  1  0  0  0
  7 29  1  0  0  0
  8  9  1  0  0  0
  8 22  1  0  0  0
  9 10  1  0  0  0
  9 27  2  0  0  0
 10 11  2  0  0  0
 10 15  1  0  0  0
 11 12  1  0  0  0
 11 92  1  0  0  0
 12 13  2  0  0  0
 12 93  1  0  0  0
 13 14  1  0  0  0
 13 31  1  0  0  0
 14 15  2  0  0  0
 14 94  1  0  0  0
 15 95  1  0  0  0
 16 17  2  0  0  0
 16 21  1  0  0  0
 16 31  1  0  0  0
 17 18  1  0  0  0
 17 96  1  0  0  0
 18 19  2  0  0  0
 18 97  1  0  0  0
 19 20  1  0  0  0
 19 24  1  0  0  0
 20 21  2  0  0  0
 20 98  1  0  0  0
 21 23  1  0  0  0
 22 28  1  0  0  0
 22 32  2  0  0  0
 26 27  1  0  0  0
 28 99  1  0  0  0
 28100  1  0  0  0
 29101  1  0  0  0
 29102  1  0  0  0
 33 34  1  0  0  0
 33 66  1  0  0  0
 33 70  2  0  0  0
 34 36  1  0  0  0
 34 59  1  0  0  0
 34103  1  0  0  0
 35 44  2  0  0  0
 35 45  1  0  0  0
 35 68  1  0  0  0
 36 56  1  0  0  0
 36104  1  0  0  0
 37 39  1  0  0  0
 37 47  1  0  0  0
 37 66  1  0  0  0
 37105  1  0  0  0
 38 43  2  0  0  0
 38 46  1  0  0  0
 38 47  1  0  0  0
 39 64  1  0  0  0
 39 67  2  0  0  0
 40 52  1  0  0  0
 40 53  2  0  0  0
 40 58  1  0  0  0
 41106  1  0  0  0
 41107  1  0  0  0
 41108  1  0  0  0
 41 48  1  0  0  0
 42 43  1  0  0  0
 42 66  1  0  0  0
 42109  1  0  0  0
 42110  1  0  0  0
 43 44  1  0  0  0
 44111  1  0  0  0
 45 46  2  0  0  0
 45112  1  0  0  0
 46113  1  0  0  0
 47114  1  0  0  0
 47115  1  0  0  0
 48 56  1  0  0  0
 48 65  1  0  0  0
 48116  1  0  0  0
 49 50  1  0  0  0
 49 53  1  0  0  0
 49 64  1  0  0  0
 49117  1  0  0  0
 50 51  1  0  0  0
 50118  1  0  0  0
 50119  1  0  0  0
 51 52  1  0  0  0
 51120  1  0  0  0
 51121  1  0  0  0
 52122  1  0  0  0
 52123  1  0  0  0
 53 54  1  0  0  0
 54 55  2  0  0  0
 54124  1  0  0  0
 55 57  1  0  0  0
 55125  1  0  0  0
 56 69  2  0  0  0
 57 58  2  0  0  0
 57126  1  0  0  0
 58127  1  0  0  0
 59 60  1  0  0  0
 59 61  1  0  0  0
 59 62  1  0  0  0
 60128  1  0  0  0
 60129  1  0  0  0
 60130  1  0  0  0
 61131  1  0  0  0
 61132  1  0  0  0
 61133  1  0  0  0
 62134  1  0  0  0
 62135  1  0  0  0
 62136  1  0  0  0
 63 65  1  0  0  0
 63137  1  0  0  0
 63138  1  0  0  0
 63139  1  0  0  0
 64140  1  0  0  0
 65141  1  0  0  0
 68 79  1  0  0  0
 71 73  2  0  0  0
 71 75  1  0  0  0
 71142  1  0  0  0
 72 74  1  0  0  0
 72 75  2  0  0  0
 72143  1  0  0  0
 73 76  1  0  0  0
 73144  1  0  0  0
 74 76  2  0  0  0
 74145  1  0  0  0
 75 80  1  0  0  0
 76 81  1  0  0  0
 77 78  1  0  0  0
 77 80  1  0  0  0
 77 82  2  0  0  0
 78 79  1  0  0  0
 78146  1  0  0  0
 78147  1  0  0  0
 79148  1  0  0  0
 79149  1  0  0  0
 80150  1  0  0  0
 81151  1  0  0  0
M  ISO  4   1 100  68 101  79 101  81 100
M  END
> <chiral flag>
0

> <version>
0

> <s_m_source_file>
/data/baiqing/PycharmProjects/Reinvent-master-3.2/result/LINK_invent/BTK/process_docking_weight1_custom_sum_contain_oxygen_bond_distance_aromatic_linkinvent_7_9_3/rearranged_h_0003.sdf

> <i_m_source_file_index>
88

> <r_mmod_Potential_Energy-OPLS-2005>
-22.6337127685547

> <r_mmod_Stretch_Energy-OPLS-2005>
74.1388244628906

> <r_mmod_Bend_Energy-OPLS-2005>
136.268478393555

> <r_mmod_Torsional_Energy-OPLS-2005>
219.131301879883

> <r_mmod_Improper_Torsional_Energy-OPLS-2005>
3.96359419822693

> <r_mmod_Van_der_Waal_Energy-OPLS-2005>
148.799301147461

> <r_mmod_Electrostatic_Energy-OPLS-2005>
-419.957763671875

> <r_mmod_Solvation_Energy-OPLS-2005>
-229.819793701172

> <b_mmod_Minimization_Converged-OPLS-2005>
0

> <r_mmod_RMS_Derivative-OPLS-2005>
0.986919105052948

$$$$
90
                    3D
 Structure written by MMmdl.
154162  0  0  1  0            999 V2000
  -30.6238  -14.6427   20.5091 C   0  0  0  0  0  0
  -30.4394  -12.3944   19.4606 C   0  0  0  0  0  0
  -29.5114  -12.5084   18.2305 C   0  0  0  0  0  0
  -28.0344  -12.3428   18.6409 C   0  0  0  0  0  0
  -27.6549  -13.2156   19.8669 C   0  0  2  0  0  0
  -28.6967  -13.0724   20.9994 C   0  0  0  0  0  0
  -25.2566  -13.8169   20.5665 C   0  0  0  0  0  0
  -24.1829  -13.0442   20.9179 C   0  0  0  0  0  0
  -24.6393  -11.6907   20.8737 C   0  0  0  0  0  0
  -23.9060  -10.4289   21.0407 C   0  0  0  0  0  0
  -24.3618   -9.4210   21.9187 C   0  0  0  0  0  0
  -23.6294   -8.2246   22.0755 C   0  0  0  0  0  0
  -22.4279   -8.0282   21.3542 C   0  0  0  0  0  0
  -21.9912   -9.0252   20.4647 C   0  0  0  0  0  0
  -22.7234  -10.2133   20.3056 C   0  0  0  0  0  0
  -21.6851   -6.0743   22.5277 C   0  0  0  0  0  0
  -21.4013   -6.5645   23.8211 C   0  0  0  0  0  0
  -21.3660   -5.6796   24.9173 C   0  0  0  0  0  0
  -21.6047   -4.3056   24.7221 C   0  0  0  0  0  0
  -21.8818   -3.8151   23.4339 C   0  0  0  0  0  0
  -21.9193   -4.6973   22.3398 C   0  0  0  0  0  0
  -22.7853  -13.5239   21.1845 C   0  0  0  0  0  0
  -22.1662   -4.2159   21.0976 F   0  0  0  0  0  0
  -21.5632   -3.4537   25.7732 F   0  0  0  0  0  0
  -30.0145  -13.4155   20.4401 N   0  0  0  0  0  0
  -26.2995  -12.9347   20.3326 N   0  0  0  0  0  0
  -25.9324  -11.6501   20.5763 N   0  0  0  0  0  0
  -22.0494  -12.8224   22.0401 N   0  0  0  0  0  0
  -25.4300  -15.1885   20.4071 N   0  0  0  0  0  0
  -31.7756  -14.8047   20.0956 O   0  0  0  0  0  0
  -21.6640   -6.8884   21.4239 O   0  0  0  0  0  0
  -22.3539  -14.5553   20.6712 O   0  0  0  0  0  0
  -24.6272  -31.8590   23.2024 C   0  0  0  0  0  0
  -25.9111  -32.4783   23.8359 C   0  0  1  0  0  0
  -27.2318  -27.3239   20.1118 C   0  0  0  0  0  0
  -25.5923  -33.8578   24.2273 N   0  0  0  0  0  0
  -23.4208  -30.4849   21.5437 C   0  0  2  0  0  0
  -24.8692  -28.9430   20.1099 C   0  0  0  0  0  0
  -22.7489  -29.4627   22.4916 C   0  0  0  0  0  0
  -18.0288  -28.1394   22.8486 C   0  0  0  0  0  0
  -24.1489  -36.7296   23.2641 C   0  0  0  0  0  0
  -25.9628  -30.7960   21.3699 C   0  0  0  0  0  0
  -26.0397  -29.4236   20.7100 C   0  0  0  0  0  0
  -27.2250  -28.6281   20.6962 C   0  0  0  0  0  0
  -26.0333  -26.8978   19.4904 C   0  0  0  0  0  0
  -24.8681  -27.6859   19.4921 C   0  0  0  0  0  0
  -23.6371  -29.8213   20.1586 C   0  0  0  0  0  0
  -25.4110  -36.3075   24.0330 C   0  0  1  0  0  0
  -20.5893  -28.3688   23.1277 C   0  0  2  0  0  0
  -20.6778  -26.9410   22.5405 C   0  0  0  0  0  0
  -19.5749  -26.6376   21.5221 C   0  0  0  0  0  0
  -18.1930  -26.7936   22.1625 C   0  0  0  0  0  0
  -19.1544  -28.8851   23.2884 C   0  0  0  0  0  0
  -18.9476  -30.1457   23.8890 C   0  0  0  0  0  0
  -17.6476  -30.6592   24.0568 C   0  0  0  0  0  0
  -25.9040  -34.9455   23.5099 C   0  0  0  0  0  0
  -16.5367  -29.9096   23.6328 C   0  0  0  0  0  0
  -16.7275  -28.6521   23.0338 C   0  0  0  0  0  0
  -26.4489  -31.6595   25.0729 C   0  0  0  0  0  0
  -25.3723  -31.3763   26.1459 C   0  0  0  0  0  0
  -27.0320  -30.3015   24.6169 C   0  0  0  0  0  0
  -27.6038  -32.4329   25.7508 C   0  0  0  0  0  0
  -27.5573  -37.1803   24.8464 C   0  0  0  0  0  0
  -21.4194  -29.3056   22.3680 N   0  0  0  0  0  0
  -26.4284  -37.3773   23.9414 N   0  0  0  0  0  0
  -24.6892  -31.0624   22.0957 N   0  0  0  0  0  0
  -23.4227  -28.8149   23.2979 O   0  0  0  0  0  0
  -28.3496  -26.4708   20.1649 O   0  0  0  0  0  0
  -26.5606  -34.8919   22.4658 O   0  0  0  0  0  0
  -23.5422  -32.1374   23.7350 O   0  0  0  0  0  0
  -30.8469  -19.2425   19.8139 C   0  0  0  0  0  0
  -30.8352  -17.8198   19.9148 C   0  0  0  0  0  0
  -29.0344  -17.9858   21.4929 C   0  0  0  0  0  0
  -29.9717  -20.0892   20.5544 C   0  0  0  0  0  0
  -29.0446  -19.4185   21.4090 C   0  0  0  0  0  0
  -29.9315  -17.1444   20.7754 C   0  0  0  0  0  0
  -29.3109  -24.0425   20.3354 C   0  0  0  0  0  0
  -30.2158  -21.6523   20.5252 C   0  0  0  0  0  0
  -28.0979  -25.0113   20.0430 C   0  0  0  0  0  0
  -28.0814  -20.2219   22.2832 C   0  0  0  0  0  0
  -29.8395  -15.6860   20.9327 N   0  0  0  0  0  0
  -29.1324  -22.6783   20.3361 N   0  0  0  0  0  0
  -30.4252  -24.5304   20.5414 O   0  0  0  0  0  0
  -27.3209  -19.4372   23.0479 F   0  0  0  0  0  0
  -28.7660  -21.0320   23.0904 F   0  0  0  0  0  0
  -27.2692  -20.9557   21.5213 F   0  0  0  0  0  0
  -31.4806  -12.5185   19.1596 H   0  0  0  0  0  0
  -30.3747  -11.3978   19.9005 H   0  0  0  0  0  0
  -29.7779  -11.7568   17.4865 H   0  0  0  0  0  0
  -29.6523  -13.4787   17.7519 H   0  0  0  0  0  0
  -27.8748  -11.2894   18.8747 H   0  0  0  0  0  0
  -27.3800  -12.5683   17.7984 H   0  0  0  0  0  0
  -27.6751  -14.2511   19.5267 H   0  0  0  0  0  0
  -28.7046  -12.0512   21.3839 H   0  0  0  0  0  0
  -28.4340  -13.7042   21.8489 H   0  0  0  0  0  0
  -25.2767   -9.5689   22.4759 H   0  0  0  0  0  0
  -24.0008   -7.4635   22.7468 H   0  0  0  0  0  0
  -21.0851   -8.8771   19.8941 H   0  0  0  0  0  0
  -22.3700  -10.9678   19.6164 H   0  0  0  0  0  0
  -21.2000   -7.6152   23.9719 H   0  0  0  0  0  0
  -21.1486   -6.0525   25.9079 H   0  0  0  0  0  0
  -22.0597   -2.7614   23.2832 H   0  0  0  0  0  0
  -22.4106  -11.9871   22.4767 H   0  0  0  0  0  0
  -21.1119  -13.1261   22.2627 H   0  0  0  0  0  0
  -24.6610  -15.8431   20.4992 H   0  0  0  0  0  0
  -26.2797  -15.6217   20.0687 H   0  0  0  0  0  0
  -26.7173  -32.5444   23.1100 H   0  0  0  0  0  0
  -25.0084  -33.9723   25.0427 H   0  0  0  0  0  0
  -22.7164  -31.3061   21.3996 H   0  0  0  0  0  0
  -23.3750  -35.9627   23.3289 H   0  0  0  0  0  0
  -24.3586  -36.8915   22.2055 H   0  0  0  0  0  0
  -23.7251  -37.6498   23.6665 H   0  0  0  0  0  0
  -26.0916  -31.5646   20.6058 H   0  0  0  0  0  0
  -26.8439  -30.8434   21.9977 H   0  0  0  0  0  0
  -28.1248  -29.0003   21.1652 H   0  0  0  0  0  0
  -25.9586  -25.9403   19.0015 H   0  0  0  0  0  0
  -23.9713  -27.3093   19.0202 H   0  0  0  0  0  0
  -23.7621  -30.5985   19.4049 H   0  0  0  0  0  0
  -22.7599  -29.2506   19.8491 H   0  0  0  0  0  0
  -25.1296  -36.1913   25.0823 H   0  0  0  0  0  0
  -20.9976  -28.3238   24.1404 H   0  0  0  0  0  0
  -20.5673  -26.2301   23.3602 H   0  0  0  0  0  0
  -21.6647  -26.7431   22.1204 H   0  0  0  0  0  0
  -19.6914  -25.6285   21.1249 H   0  0  0  0  0  0
  -19.6688  -27.3181   20.6748 H   0  0  0  0  0  0
  -17.4206  -26.6672   21.4024 H   0  0  0  0  0  0
  -18.0325  -26.0088   22.9023 H   0  0  0  0  0  0
  -19.7960  -30.7277   24.2240 H   0  0  0  0  0  0
  -17.5047  -31.6269   24.5176 H   0  0  0  0  0  0
  -15.5376  -30.3010   23.7669 H   0  0  0  0  0  0
  -15.8675  -28.0860   22.7035 H   0  0  0  0  0  0
  -24.5907  -30.7091   25.7822 H   0  0  0  0  0  0
  -24.8931  -32.2954   26.4835 H   0  0  0  0  0  0
  -25.8059  -30.9003   27.0262 H   0  0  0  0  0  0
  -26.2890  -29.6780   24.1175 H   0  0  0  0  0  0
  -27.4011  -29.7245   25.4660 H   0  0  0  0  0  0
  -27.8763  -30.4308   23.9391 H   0  0  0  0  0  0
  -27.2633  -33.3646   26.2038 H   0  0  0  0  0  0
  -28.3883  -32.6838   25.0360 H   0  0  0  0  0  0
  -28.0651  -31.8480   26.5473 H   0  0  0  0  0  0
  -28.2577  -38.0109   24.7504 H   0  0  0  0  0  0
  -28.1076  -36.2637   24.6284 H   0  0  0  0  0  0
  -27.2298  -37.1439   25.8868 H   0  0  0  0  0  0
  -20.9356  -29.8847   21.6960 H   0  0  0  0  0  0
  -26.0155  -38.2838   24.1426 H   0  0  0  0  0  0
  -31.5859  -19.6933   19.1665 H   0  0  0  0  0  0
  -31.5418  -17.2547   19.3230 H   0  0  0  0  0  0
  -28.3231  -17.5170   22.1570 H   0  0  0  0  0  0
  -30.9536  -21.8498   19.7465 H   0  0  0  0  0  0
  -30.7282  -21.8951   21.4572 H   0  0  0  0  0  0
  -27.2863  -24.7297   20.7150 H   0  0  0  0  0  0
  -27.7751  -24.7913   19.0254 H   0  0  0  0  0  0
  -28.9835  -15.3675   21.3622 H   0  0  0  0  0  0
  -28.1945  -22.3275   20.1916 H   0  0  0  0  0  0
  1 25  1  0  0  0
  1 30  2  0  0  0
  1 81  1  0  0  0
  2  3  1  0  0  0
  2 25  1  0  0  0
  2 87  1  0  0  0
  2 88  1  0  0  0
  3  4  1  0  0  0
  3 89  1  0  0  0
  3 90  1  0  0  0
  4  5  1  0  0  0
  4 91  1  0  0  0
  4 92  1  0  0  0
  5  6  1  0  0  0
  5 26  1  0  0  0
  5 93  1  0  0  0
  6 25  1  0  0  0
  6 94  1  0  0  0
  6 95  1  0  0  0
  7  8  2  0  0  0
  7 26  1  0  0  0
  7 29  1  0  0  0
  8  9  1  0  0  0
  8 22  1  0  0  0
  9 10  1  0  0  0
  9 27  2  0  0  0
 10 11  2  0  0  0
 10 15  1  0  0  0
 11 12  1  0  0  0
 11 96  1  0  0  0
 12 13  2  0  0  0
 12 97  1  0  0  0
 13 14  1  0  0  0
 13 31  1  0  0  0
 14 15  2  0  0  0
 14 98  1  0  0  0
 15 99  1  0  0  0
 16 17  2  0  0  0
 16 21  1  0  0  0
 16 31  1  0  0  0
 17 18  1  0  0  0
 17100  1  0  0  0
 18 19  2  0  0  0
 18101  1  0  0  0
 19 20  1  0  0  0
 19 24  1  0  0  0
 20 21  2  0  0  0
 20102  1  0  0  0
 21 23  1  0  0  0
 22 28  1  0  0  0
 22 32  2  0  0  0
 26 27  1  0  0  0
 28103  1  0  0  0
 28104  1  0  0  0
 29105  1  0  0  0
 29106  1  0  0  0
 33 34  1  0  0  0
 33 66  1  0  0  0
 33 70  2  0  0  0
 34 36  1  0  0  0
 34 59  1  0  0  0
 34107  1  0  0  0
 35 44  2  0  0  0
 35 45  1  0  0  0
 35 68  1  0  0  0
 36 56  1  0  0  0
 36108  1  0  0  0
 37 39  1  0  0  0
 37 47  1  0  0  0
 37 66  1  0  0  0
 37109  1  0  0  0
 38 43  2  0  0  0
 38 46  1  0  0  0
 38 47  1  0  0  0
 39 64  1  0  0  0
 39 67  2  0  0  0
 40 52  1  0  0  0
 40 53  2  0  0  0
 40 58  1  0  0  0
 41110  1  0  0  0
 41111  1  0  0  0
 41112  1  0  0  0
 41 48  1  0  0  0
 42 43  1  0  0  0
 42 66  1  0  0  0
 42113  1  0  0  0
 42114  1  0  0  0
 43 44  1  0  0  0
 44115  1  0  0  0
 45 46  2  0  0  0
 45116  1  0  0  0
 46117  1  0  0  0
 47118  1  0  0  0
 47119  1  0  0  0
 48 56  1  0  0  0
 48 65  1  0  0  0
 48120  1  0  0  0
 49 50  1  0  0  0
 49 53  1  0  0  0
 49 64  1  0  0  0
 49121  1  0  0  0
 50 51  1  0  0  0
 50122  1  0  0  0
 50123  1  0  0  0
 51 52  1  0  0  0
 51124  1  0  0  0
 51125  1  0  0  0
 52126  1  0  0  0
 52127  1  0  0  0
 53 54  1  0  0  0
 54 55  2  0  0  0
 54128  1  0  0  0
 55 57  1  0  0  0
 55129  1  0  0  0
 56 69  2  0  0  0
 57 58  2  0  0  0
 57130  1  0  0  0
 58131  1  0  0  0
 59 60  1  0  0  0
 59 61  1  0  0  0
 59 62  1  0  0  0
 60132  1  0  0  0
 60133  1  0  0  0
 60134  1  0  0  0
 61135  1  0  0  0
 61136  1  0  0  0
 61137  1  0  0  0
 62138  1  0  0  0
 62139  1  0  0  0
 62140  1  0  0  0
 63 65  1  0  0  0
 63141  1  0  0  0
 63142  1  0  0  0
 63143  1  0  0  0
 64144  1  0  0  0
 65145  1  0  0  0
 68 79  1  0  0  0
 71 72  2  0  0  0
 71 74  1  0  0  0
 71146  1  0  0  0
 72 76  1  0  0  0
 72147  1  0  0  0
 73 75  1  0  0  0
 73 76  2  0  0  0
 73148  1  0  0  0
 74 75  2  0  0  0
 74 78  1  0  0  0
 75 80  1  0  0  0
 76 81  1  0  0  0
 77 79  1  0  0  0
 77 82  1  0  0  0
 77 83  2  0  0  0
 78 82  1  0  0  0
 78149  1  0  0  0
 78150  1  0  0  0
 79151  1  0  0  0
 79152  1  0  0  0
 80 84  1  0  0  0
 80 85  1  0  0  0
 80 86  1  0  0  0
 81153  1  0  0  0
 82154  1  0  0  0
M  ISO  4   1 100  68 101  79 101  81 100
M  END
> <chiral flag>
0

> <version>
0

> <s_m_source_file>
/data/baiqing/PycharmProjects/Reinvent-master-3.2/result/LINK_invent/BTK/process_docking_weight1_custom_sum_contain_oxygen_bond_distance_aromatic_linkinvent_7_9_3/rearranged_h_0003.sdf

> <i_m_source_file_index>
89

> <r_mmod_Potential_Energy-OPLS-2005>
14.7556304931641

> <r_mmod_Stretch_Energy-OPLS-2005>
83.4133682250977

> <r_mmod_Bend_Energy-OPLS-2005>
141.16194152832

> <r_mmod_Torsional_Energy-OPLS-2005>
213.042770385742

> <r_mmod_Improper_Torsional_Energy-OPLS-2005>
4.24114274978638

> <r_mmod_Van_der_Waal_Energy-OPLS-2005>
149.847213745117

> <r_mmod_Electrostatic_Energy-OPLS-2005>
-387.640777587891

> <r_mmod_Solvation_Energy-OPLS-2005>
-237.318923950195

> <b_mmod_Minimization_Converged-OPLS-2005>
0

> <r_mmod_RMS_Derivative-OPLS-2005>
2.05578422546387

$$$$
91
                    3D
 Structure written by MMmdl.
156164  0  0  1  0            999 V2000
  -30.7120  -14.3971   20.6577 C   0  0  0  0  0  0
  -30.4129  -12.2891   19.4029 C   0  0  0  0  0  0
  -29.4860  -12.5457   18.1976 C   0  0  0  0  0  0
  -28.0066  -12.3999   18.6046 C   0  0  0  0  0  0
  -27.6641  -13.2049   19.8860 C   0  0  2  0  0  0
  -28.6974  -12.9233   20.9985 C   0  0  0  0  0  0
  -25.2574  -13.8142   20.5639 C   0  0  0  0  0  0
  -24.1831  -13.0429   20.9126 C   0  0  0  0  0  0
  -24.6386  -11.6890   20.8713 C   0  0  0  0  0  0
  -23.9065  -10.4281   21.0408 C   0  0  0  0  0  0
  -24.3622   -9.4191   21.9178 C   0  0  0  0  0  0
  -23.6288   -8.2229   22.0750 C   0  0  0  0  0  0
  -22.4268   -8.0279   21.3557 C   0  0  0  0  0  0
  -21.9897   -9.0252   20.4659 C   0  0  0  0  0  0
  -22.7243  -10.2117   20.3061 C   0  0  0  0  0  0
  -21.6842   -6.0751   22.5281 C   0  0  0  0  0  0
  -21.4019   -6.5656   23.8228 C   0  0  0  0  0  0
  -21.3660   -5.6800   24.9183 C   0  0  0  0  0  0
  -21.6036   -4.3062   24.7222 C   0  0  0  0  0  0
  -21.8821   -3.8165   23.4343 C   0  0  0  0  0  0
  -21.9184   -4.6981   22.3404 C   0  0  0  0  0  0
  -22.7858  -13.5226   21.1805 C   0  0  0  0  0  0
  -22.1634   -4.2174   21.0977 F   0  0  0  0  0  0
  -21.5622   -3.4531   25.7728 F   0  0  0  0  0  0
  -30.0411  -13.2311   20.4703 N   0  0  0  0  0  0
  -26.3024  -12.9313   20.3393 N   0  0  0  0  0  0
  -25.9318  -11.6468   20.5758 N   0  0  0  0  0  0
  -22.0541  -12.8223   22.0384 N   0  0  0  0  0  0
  -25.4269  -15.1863   20.4034 N   0  0  0  0  0  0
  -31.7728  -14.6582   20.0767 O   0  0  0  0  0  0
  -21.6623   -6.8883   21.4234 O   0  0  0  0  0  0
  -22.3527  -14.5546   20.6689 O   0  0  0  0  0  0
  -24.6150  -31.8668   23.2112 C   0  0  0  0  0  0
  -25.9052  -32.4807   23.8406 C   0  0  1  0  0  0
  -27.2333  -27.4502   20.0917 C   0  0  0  0  0  0
  -25.5941  -33.8607   24.2363 N   0  0  0  0  0  0
  -23.4029  -30.4899   21.5506 C   0  0  2  0  0  0
  -24.8496  -28.9531   20.1173 C   0  0  0  0  0  0
  -22.7414  -29.4663   22.5005 C   0  0  0  0  0  0
  -18.0270  -28.1378   22.8481 C   0  0  0  0  0  0
  -24.1473  -36.7291   23.2604 C   0  0  0  0  0  0
  -25.9291  -30.8377   21.3606 C   0  0  0  0  0  0
  -26.0075  -29.4705   20.7126 C   0  0  0  0  0  0
  -27.2068  -28.7256   20.6971 C   0  0  0  0  0  0
  -26.0651  -26.9399   19.4944 C   0  0  0  0  0  0
  -24.8716  -27.6868   19.5051 C   0  0  0  0  0  0
  -23.6113  -29.8176   20.1659 C   0  0  0  0  0  0
  -25.4063  -36.3094   24.0351 C   0  0  1  0  0  0
  -20.5859  -28.3654   23.1314 C   0  0  2  0  0  0
  -20.6754  -26.9379   22.5433 C   0  0  0  0  0  0
  -19.5754  -26.6380   21.5204 C   0  0  0  0  0  0
  -18.1916  -26.7942   22.1570 C   0  0  0  0  0  0
  -19.1523  -28.8827   23.2906 C   0  0  0  0  0  0
  -18.9449  -30.1444   23.8908 C   0  0  0  0  0  0
  -17.6446  -30.6577   24.0559 C   0  0  0  0  0  0
  -25.9031  -34.9471   23.5148 C   0  0  0  0  0  0
  -16.5335  -29.9075   23.6343 C   0  0  0  0  0  0
  -16.7250  -28.6500   23.0340 C   0  0  0  0  0  0
  -26.4489  -31.6570   25.0717 C   0  0  0  0  0  0
  -25.3803  -31.3683   26.1521 C   0  0  0  0  0  0
  -27.0242  -30.2993   24.6059 C   0  0  0  0  0  0
  -27.6137  -32.4229   25.7427 C   0  0  0  0  0  0
  -27.5647  -37.1674   24.8370 C   0  0  0  0  0  0
  -21.4142  -29.3023   22.3727 N   0  0  0  0  0  0
  -26.4203  -37.3840   23.9548 N   0  0  0  0  0  0
  -24.6672  -31.0782   22.1007 N   0  0  0  0  0  0
  -23.4188  -28.8215   23.3052 O   0  0  0  0  0  0
  -28.3862  -26.7087   20.0592 O   0  0  0  0  0  0
  -26.5570  -34.8931   22.4701 O   0  0  0  0  0  0
  -23.5344  -32.1398   23.7529 O   0  0  0  0  0  0
  -29.0696  -18.7040   22.3793 C   0  0  0  0  0  0
  -31.1856  -18.8471   21.1875 C   0  0  0  0  0  0
  -29.0981  -17.3000   22.2591 C   0  0  0  0  0  0
  -31.2201  -17.4414   21.0774 C   0  0  0  0  0  0
  -30.1132  -19.4868   21.8445 C   0  0  0  0  0  0
  -30.1687  -16.6529   21.6042 C   0  0  0  0  0  0
  -30.1238  -20.9952   22.0502 C   0  0  0  0  0  0
  -29.1970  -21.7998   21.1131 C   0  0  0  0  0  0
  -29.1104  -23.2793   21.5564 C   0  0  0  0  0  0
  -28.6000  -24.2811   20.4966 C   0  0  0  0  0  0
  -28.4730  -25.7090   21.0777 C   0  0  0  0  0  0
  -30.1229  -15.2316   21.5315 N   0  0  0  0  0  0
  -31.4588  -12.3853   19.1082 H   0  0  0  0  0  0
  -30.3006  -11.2630   19.7567 H   0  0  0  0  0  0
  -29.7221  -11.8611   17.3834 H   0  0  0  0  0  0
  -29.6586  -13.5511   17.8090 H   0  0  0  0  0  0
  -27.8021  -11.3403   18.7632 H   0  0  0  0  0  0
  -27.3574  -12.7160   17.7850 H   0  0  0  0  0  0
  -27.7268  -14.2640   19.6319 H   0  0  0  0  0  0
  -28.6595  -11.8730   21.2919 H   0  0  0  0  0  0
  -28.4385  -13.4726   21.9030 H   0  0  0  0  0  0
  -25.2786   -9.5643   22.4728 H   0  0  0  0  0  0
  -23.9989   -7.4613   22.7452 H   0  0  0  0  0  0
  -21.0826   -8.8789   19.8970 H   0  0  0  0  0  0
  -22.3721  -10.9651   19.6145 H   0  0  0  0  0  0
  -21.2023   -7.6166   23.9730 H   0  0  0  0  0  0
  -21.1459   -6.0534   25.9073 H   0  0  0  0  0  0
  -22.0600   -2.7626   23.2825 H   0  0  0  0  0  0
  -22.4164  -11.9836   22.4688 H   0  0  0  0  0  0
  -21.1169  -13.1242   22.2661 H   0  0  0  0  0  0
  -24.6517  -15.8355   20.4821 H   0  0  0  0  0  0
  -26.2872  -15.6321   20.1096 H   0  0  0  0  0  0
  -26.7133  -32.5504   23.1179 H   0  0  0  0  0  0
  -25.0219  -33.9777   25.0598 H   0  0  0  0  0  0
  -22.6924  -31.3069   21.4084 H   0  0  0  0  0  0
  -23.3829  -35.9516   23.3017 H   0  0  0  0  0  0
  -24.3681  -36.9143   22.2082 H   0  0  0  0  0  0
  -23.7054  -37.6353   23.6751 H   0  0  0  0  0  0
  -26.0347  -31.5999   20.5874 H   0  0  0  0  0  0
  -26.8207  -30.8975   21.9730 H   0  0  0  0  0  0
  -28.1059  -29.1212   21.1477 H   0  0  0  0  0  0
  -26.0825  -25.9695   19.0187 H   0  0  0  0  0  0
  -23.9839  -27.2849   19.0369 H   0  0  0  0  0  0
  -23.7180  -30.5889   19.4025 H   0  0  0  0  0  0
  -22.7370  -29.2346   19.8697 H   0  0  0  0  0  0
  -25.1193  -36.1905   25.0826 H   0  0  0  0  0  0
  -20.9937  -28.3208   24.1437 H   0  0  0  0  0  0
  -20.5600  -26.2270   23.3629 H   0  0  0  0  0  0
  -21.6632  -26.7399   22.1241 H   0  0  0  0  0  0
  -19.6900  -25.6292   21.1235 H   0  0  0  0  0  0
  -19.6727  -27.3203   20.6748 H   0  0  0  0  0  0
  -17.4212  -26.6756   21.3938 H   0  0  0  0  0  0
  -18.0254  -26.0054   22.8918 H   0  0  0  0  0  0
  -19.7912  -30.7281   24.2264 H   0  0  0  0  0  0
  -17.4983  -31.6258   24.5157 H   0  0  0  0  0  0
  -15.5339  -30.2964   23.7677 H   0  0  0  0  0  0
  -15.8649  -28.0832   22.7035 H   0  0  0  0  0  0
  -24.6058  -30.6888   25.7955 H   0  0  0  0  0  0
  -24.8887  -32.2806   26.4899 H   0  0  0  0  0  0
  -25.8234  -30.8997   27.0320 H   0  0  0  0  0  0
  -26.2713  -29.6774   24.1200 H   0  0  0  0  0  0
  -27.4092  -29.7220   25.4477 H   0  0  0  0  0  0
  -27.8542  -30.4277   23.9107 H   0  0  0  0  0  0
  -27.2869  -33.3574   26.1995 H   0  0  0  0  0  0
  -28.3940  -32.6684   25.0210 H   0  0  0  0  0  0
  -28.0798  -31.8321   26.5322 H   0  0  0  0  0  0
  -28.2320  -38.0296   24.7979 H   0  0  0  0  0  0
  -28.1482  -36.2933   24.5439 H   0  0  0  0  0  0
  -27.2535  -37.0365   25.8752 H   0  0  0  0  0  0
  -20.9317  -29.8733   21.6928 H   0  0  0  0  0  0
  -26.0073  -38.2821   24.1937 H   0  0  0  0  0  0
  -28.2491  -19.1795   22.9001 H   0  0  0  0  0  0
  -32.0035  -19.4286   20.7846 H   0  0  0  0  0  0
  -28.2888  -16.7214   22.6840 H   0  0  0  0  0  0
  -32.0738  -16.9923   20.5935 H   0  0  0  0  0  0
  -31.1466  -21.3566   21.9350 H   0  0  0  0  0  0
  -29.8625  -21.1892   23.0914 H   0  0  0  0  0  0
  -28.1964  -21.3659   21.1100 H   0  0  0  0  0  0
  -29.5651  -21.7223   20.0906 H   0  0  0  0  0  0
  -30.1026  -23.6092   21.8707 H   0  0  0  0  0  0
  -28.4829  -23.3393   22.4467 H   0  0  0  0  0  0
  -27.6388  -23.9577   20.0953 H   0  0  0  0  0  0
  -29.2971  -24.2912   19.6583 H   0  0  0  0  0  0
  -29.3559  -25.9442   21.6726 H   0  0  0  0  0  0
  -27.6303  -25.7504   21.7727 H   0  0  0  0  0  0
  -29.3426  -14.8063   22.0084 H   0  0  0  0  0  0
  1 25  1  0  0  0
  1 30  2  0  0  0
  1 82  1  0  0  0
  2  3  1  0  0  0
  2 25  1  0  0  0
  2 83  1  0  0  0
  2 84  1  0  0  0
  3  4  1  0  0  0
  3 85  1  0  0  0
  3 86  1  0  0  0
  4  5  1  0  0  0
  4 87  1  0  0  0
  4 88  1  0  0  0
  5  6  1  0  0  0
  5 26  1  0  0  0
  5 89  1  0  0  0
  6 25  1  0  0  0
  6 90  1  0  0  0
  6 91  1  0  0  0
  7  8  2  0  0  0
  7 26  1  0  0  0
  7 29  1  0  0  0
  8  9  1  0  0  0
  8 22  1  0  0  0
  9 10  1  0  0  0
  9 27  2  0  0  0
 10 11  2  0  0  0
 10 15  1  0  0  0
 11 12  1  0  0  0
 11 92  1  0  0  0
 12 13  2  0  0  0
 12 93  1  0  0  0
 13 14  1  0  0  0
 13 31  1  0  0  0
 14 15  2  0  0  0
 14 94  1  0  0  0
 15 95  1  0  0  0
 16 17  2  0  0  0
 16 21  1  0  0  0
 16 31  1  0  0  0
 17 18  1  0  0  0
 17 96  1  0  0  0
 18 19  2  0  0  0
 18 97  1  0  0  0
 19 20  1  0  0  0
 19 24  1  0  0  0
 20 21  2  0  0  0
 20 98  1  0  0  0
 21 23  1  0  0  0
 22 28  1  0  0  0
 22 32  2  0  0  0
 26 27  1  0  0  0
 28 99  1  0  0  0
 28100  1  0  0  0
 29101  1  0  0  0
 29102  1  0  0  0
 33 34  1  0  0  0
 33 66  1  0  0  0
 33 70  2  0  0  0
 34 36  1  0  0  0
 34 59  1  0  0  0
 34103  1  0  0  0
 35 44  2  0  0  0
 35 45  1  0  0  0
 35 68  1  0  0  0
 36 56  1  0  0  0
 36104  1  0  0  0
 37 39  1  0  0  0
 37 47  1  0  0  0
 37 66  1  0  0  0
 37105  1  0  0  0
 38 43  2  0  0  0
 38 46  1  0  0  0
 38 47  1  0  0  0
 39 64  1  0  0  0
 39 67  2  0  0  0
 40 52  1  0  0  0
 40 53  2  0  0  0
 40 58  1  0  0  0
 41106  1  0  0  0
 41107  1  0  0  0
 41108  1  0  0  0
 41 48  1  0  0  0
 42 43  1  0  0  0
 42 66  1  0  0  0
 42109  1  0  0  0
 42110  1  0  0  0
 43 44  1  0  0  0
 44111  1  0  0  0
 45 46  2  0  0  0
 45112  1  0  0  0
 46113  1  0  0  0
 47114  1  0  0  0
 47115  1  0  0  0
 48 56  1  0  0  0
 48 65  1  0  0  0
 48116  1  0  0  0
 49 50  1  0  0  0
 49 53  1  0  0  0
 49 64  1  0  0  0
 49117  1  0  0  0
 50 51  1  0  0  0
 50118  1  0  0  0
 50119  1  0  0  0
 51 52  1  0  0  0
 51120  1  0  0  0
 51121  1  0  0  0
 52122  1  0  0  0
 52123  1  0  0  0
 53 54  1  0  0  0
 54 55  2  0  0  0
 54124  1  0  0  0
 55 57  1  0  0  0
 55125  1  0  0  0
 56 69  2  0  0  0
 57 58  2  0  0  0
 57126  1  0  0  0
 58127  1  0  0  0
 59 60  1  0  0  0
 59 61  1  0  0  0
 59 62  1  0  0  0
 60128  1  0  0  0
 60129  1  0  0  0
 60130  1  0  0  0
 61131  1  0  0  0
 61132  1  0  0  0
 61133  1  0  0  0
 62134  1  0  0  0
 62135  1  0  0  0
 62136  1  0  0  0
 63 65  1  0  0  0
 63137  1  0  0  0
 63138  1  0  0  0
 63139  1  0  0  0
 64140  1  0  0  0
 65141  1  0  0  0
 68 81  1  0  0  0
 71 73  2  0  0  0
 71 75  1  0  0  0
 71142  1  0  0  0
 72 74  1  0  0  0
 72 75  2  0  0  0
 72143  1  0  0  0
 73 76  1  0  0  0
 73144  1  0  0  0
 74 76  2  0  0  0
 74145  1  0  0  0
 75 77  1  0  0  0
 76 82  1  0  0  0
 77 78  1  0  0  0
 77146  1  0  0  0
 77147  1  0  0  0
 78 79  1  0  0  0
 78148  1  0  0  0
 78149  1  0  0  0
 79 80  1  0  0  0
 79150  1  0  0  0
 79151  1  0  0  0
 80 81  1  0  0  0
 80152  1  0  0  0
 80153  1  0  0  0
 81154  1  0  0  0
 81155  1  0  0  0
 82156  1  0  0  0
M  ISO  4   1 100  68 101  81 101  82 100
M  END
> <chiral flag>
0

> <version>
0

> <s_m_source_file>
/data/baiqing/PycharmProjects/Reinvent-master-3.2/result/LINK_invent/BTK/process_docking_weight1_custom_sum_contain_oxygen_bond_distance_aromatic_linkinvent_7_9_3/rearranged_h_0003.sdf

> <i_m_source_file_index>
90

> <r_mmod_Potential_Energy-OPLS-2005>
-35.4857711791992

> <r_mmod_Stretch_Energy-OPLS-2005>
33.4155654907227

> <r_mmod_Bend_Energy-OPLS-2005>
93.5388488769531

> <r_mmod_Torsional_Energy-OPLS-2005>
235.688781738281

> <r_mmod_Improper_Torsional_Energy-OPLS-2005>
3.12569189071655

> <r_mmod_Van_der_Waal_Energy-OPLS-2005>
150.50537109375

> <r_mmod_Electrostatic_Energy-OPLS-2005>
-363.52734375

> <r_mmod_Solvation_Energy-OPLS-2005>
-196.255111694336

> <b_mmod_Minimization_Converged-OPLS-2005>
0

> <r_mmod_RMS_Derivative-OPLS-2005>
2.87488913536072

$$$$
92
                    3D
 Structure written by MMmdl.
157165  0  0  1  0            999 V2000
  -30.7030  -14.4503   20.5792 C   0  0  0  0  0  0
  -30.4178  -12.2872   19.4304 C   0  0  0  0  0  0
  -29.4990  -12.5118   18.2110 C   0  0  0  0  0  0
  -28.0135  -12.3924   18.6088 C   0  0  0  0  0  0
  -27.6654  -13.2118   19.8818 C   0  0  2  0  0  0
  -28.7034  -12.9671   21.0029 C   0  0  0  0  0  0
  -25.2605  -13.8183   20.5702 C   0  0  0  0  0  0
  -24.1861  -13.0450   20.9194 C   0  0  0  0  0  0
  -24.6415  -11.6917   20.8727 C   0  0  0  0  0  0
  -23.9078  -10.4296   21.0391 C   0  0  0  0  0  0
  -24.3632   -9.4219   21.9171 C   0  0  0  0  0  0
  -23.6304   -8.2259   22.0744 C   0  0  0  0  0  0
  -22.4281   -8.0294   21.3550 C   0  0  0  0  0  0
  -21.9926   -9.0263   20.4639 C   0  0  0  0  0  0
  -22.7253  -10.2141   20.3035 C   0  0  0  0  0  0
  -21.6856   -6.0755   22.5294 C   0  0  0  0  0  0
  -21.4016   -6.5652   23.8229 C   0  0  0  0  0  0
  -21.3658   -5.6793   24.9187 C   0  0  0  0  0  0
  -21.6044   -4.3056   24.7230 C   0  0  0  0  0  0
  -21.8812   -3.8166   23.4343 C   0  0  0  0  0  0
  -21.9189   -4.6989   22.3414 C   0  0  0  0  0  0
  -22.7882  -13.5243   21.1857 C   0  0  0  0  0  0
  -22.1651   -4.2177   21.0989 F   0  0  0  0  0  0
  -21.5637   -3.4532   25.7739 F   0  0  0  0  0  0
  -30.0427  -13.2652   20.4626 N   0  0  0  0  0  0
  -26.3039  -12.9362   20.3367 N   0  0  0  0  0  0
  -25.9343  -11.6511   20.5751 N   0  0  0  0  0  0
  -22.0542  -12.8222   22.0406 N   0  0  0  0  0  0
  -25.4305  -15.1904   20.4149 N   0  0  0  0  0  0
  -31.8048  -14.6561   20.0627 O   0  0  0  0  0  0
  -21.6643   -6.8895   21.4243 O   0  0  0  0  0  0
  -22.3559  -14.5542   20.6692 O   0  0  0  0  0  0
  -24.6138  -31.8688   23.2099 C   0  0  0  0  0  0
  -25.9040  -32.4825   23.8384 C   0  0  1  0  0  0
  -27.2299  -27.4271   20.0830 C   0  0  0  0  0  0
  -25.5903  -33.8622   24.2318 N   0  0  0  0  0  0
  -23.4006  -30.4934   21.5510 C   0  0  2  0  0  0
  -24.8438  -28.9575   20.1158 C   0  0  0  0  0  0
  -22.7398  -29.4674   22.4998 C   0  0  0  0  0  0
  -18.0273  -28.1377   22.8492 C   0  0  0  0  0  0
  -24.1490  -36.7315   23.2626 C   0  0  0  0  0  0
  -25.9301  -30.8279   21.3665 C   0  0  0  0  0  0
  -26.0043  -29.4619   20.7133 C   0  0  0  0  0  0
  -27.1962  -28.7014   20.6982 C   0  0  0  0  0  0
  -26.0425  -26.9343   19.4914 C   0  0  0  0  0  0
  -24.8573  -27.6920   19.5073 C   0  0  0  0  0  0
  -23.6074  -29.8263   20.1656 C   0  0  0  0  0  0
  -25.4107  -36.3108   24.0333 C   0  0  1  0  0  0
  -20.5860  -28.3668   23.1323 C   0  0  2  0  0  0
  -20.6770  -26.9408   22.5414 C   0  0  0  0  0  0
  -19.5751  -26.6398   21.5209 C   0  0  0  0  0  0
  -18.1927  -26.7927   22.1615 C   0  0  0  0  0  0
  -19.1518  -28.8835   23.2911 C   0  0  0  0  0  0
  -18.9449  -30.1444   23.8918 C   0  0  0  0  0  0
  -17.6450  -30.6584   24.0569 C   0  0  0  0  0  0
  -25.9040  -34.9480   23.5126 C   0  0  0  0  0  0
  -16.5343  -29.9084   23.6325 C   0  0  0  0  0  0
  -16.7262  -28.6501   23.0344 C   0  0  0  0  0  0
  -26.4454  -31.6600   25.0716 C   0  0  0  0  0  0
  -25.3708  -31.3726   26.1462 C   0  0  0  0  0  0
  -27.0277  -30.3033   24.6106 C   0  0  0  0  0  0
  -27.6038  -32.4308   25.7481 C   0  0  0  0  0  0
  -27.5598  -37.1796   24.8442 C   0  0  0  0  0  0
  -21.4126  -29.3047   22.3735 N   0  0  0  0  0  0
  -26.4285  -37.3805   23.9427 N   0  0  0  0  0  0
  -24.6663  -31.0777   22.1011 N   0  0  0  0  0  0
  -23.4176  -28.8215   23.3039 O   0  0  0  0  0  0
  -28.4206  -26.7233   20.0874 O   0  0  0  0  0  0
  -26.5598  -34.8932   22.4687 O   0  0  0  0  0  0
  -23.5335  -32.1450   23.7494 O   0  0  0  0  0  0
  -28.2537  -18.6253   20.5835 C   0  0  0  0  0  0
  -28.5751  -17.3514   21.0963 C   0  0  0  0  0  0
  -30.7917  -17.5225   20.1217 C   0  0  0  0  0  0
  -29.1739  -19.3433   19.7905 C   0  0  0  0  0  0
  -30.4747  -18.8036   19.6050 C   0  0  0  0  0  0
  -29.8254  -16.7577   20.8220 C   0  0  0  0  0  0
  -28.0139  -22.9498   19.3732 C   0  0  0  0  0  0
  -31.5398  -19.5520   18.8187 C   0  0  0  0  0  0
  -28.6926  -20.6018   19.0556 C   0  0  0  0  0  0
  -28.0626  -24.2431   20.2091 C   0  0  0  0  0  0
  -28.5241  -25.4743   19.3830 C   0  0  0  0  0  0
  -30.0301  -15.4082   21.2451 N   0  0  0  0  0  0
  -28.6041  -21.8339   19.8455 N   0  0  0  0  0  0
  -27.4318  -22.9598   18.2866 O   0  0  0  0  0  0
  -31.4669  -12.3648   19.1411 H   0  0  0  0  0  0
  -30.2970  -11.2758   19.8224 H   0  0  0  0  0  0
  -29.7311  -11.7917   17.4249 H   0  0  0  0  0  0
  -29.6879  -13.4991   17.7865 H   0  0  0  0  0  0
  -27.7922  -11.3360   18.7689 H   0  0  0  0  0  0
  -27.3781  -12.7095   17.7813 H   0  0  0  0  0  0
  -27.7137  -14.2659   19.6070 H   0  0  0  0  0  0
  -28.6683  -11.9258   21.3300 H   0  0  0  0  0  0
  -28.4620  -13.5523   21.8916 H   0  0  0  0  0  0
  -25.2777   -9.5701   22.4749 H   0  0  0  0  0  0
  -24.0018   -7.4644   22.7461 H   0  0  0  0  0  0
  -21.0861   -8.8767   19.8936 H   0  0  0  0  0  0
  -22.3711  -10.9673   19.6138 H   0  0  0  0  0  0
  -21.2005   -7.6157   23.9762 H   0  0  0  0  0  0
  -21.1480   -6.0509   25.9090 H   0  0  0  0  0  0
  -22.0592   -2.7632   23.2835 H   0  0  0  0  0  0
  -22.4133  -11.9839   22.4731 H   0  0  0  0  0  0
  -21.1157  -13.1247   22.2613 H   0  0  0  0  0  0
  -24.6694  -15.8494   20.5449 H   0  0  0  0  0  0
  -26.2797  -15.6292   20.0821 H   0  0  0  0  0  0
  -26.7113  -32.5521   23.1148 H   0  0  0  0  0  0
  -25.0059  -33.9795   25.0464 H   0  0  0  0  0  0
  -22.6890  -31.3097   21.4121 H   0  0  0  0  0  0
  -23.3774  -35.9624   23.3236 H   0  0  0  0  0  0
  -24.3601  -36.8983   22.2055 H   0  0  0  0  0  0
  -23.7217  -37.6493   23.6672 H   0  0  0  0  0  0
  -26.0434  -31.5946   20.5994 H   0  0  0  0  0  0
  -26.8182  -30.8798   21.9840 H   0  0  0  0  0  0
  -28.0928  -29.0893   21.1607 H   0  0  0  0  0  0
  -26.0010  -25.9666   19.0143 H   0  0  0  0  0  0
  -23.9603  -27.2955   19.0523 H   0  0  0  0  0  0
  -23.7151  -30.5997   19.4045 H   0  0  0  0  0  0
  -22.7302  -29.2470   19.8719 H   0  0  0  0  0  0
  -25.1281  -36.1959   25.0827 H   0  0  0  0  0  0
  -20.9945  -28.3226   24.1449 H   0  0  0  0  0  0
  -20.5682  -26.2270   23.3596 H   0  0  0  0  0  0
  -21.6642  -26.7468   22.1197 H   0  0  0  0  0  0
  -19.6917  -25.6315   21.1231 H   0  0  0  0  0  0
  -19.6695  -27.3220   20.6750 H   0  0  0  0  0  0
  -17.4200  -26.6677   21.4018 H   0  0  0  0  0  0
  -18.0328  -26.0062   22.9003 H   0  0  0  0  0  0
  -19.7927  -30.7259   24.2294 H   0  0  0  0  0  0
  -17.5007  -31.6260   24.5173 H   0  0  0  0  0  0
  -15.5348  -30.2994   23.7646 H   0  0  0  0  0  0
  -15.8657  -28.0836   22.7044 H   0  0  0  0  0  0
  -24.5879  -30.7078   25.7791 H   0  0  0  0  0  0
  -24.8903  -32.2898   26.4884 H   0  0  0  0  0  0
  -25.8052  -30.8901   27.0230 H   0  0  0  0  0  0
  -26.2834  -29.6818   24.1116 H   0  0  0  0  0  0
  -27.3984  -29.7249   25.4578 H   0  0  0  0  0  0
  -27.8693  -30.4332   23.9298 H   0  0  0  0  0  0
  -27.2668  -33.3610   26.2068 H   0  0  0  0  0  0
  -28.3852  -32.6864   25.0312 H   0  0  0  0  0  0
  -28.0691  -31.8411   26.5391 H   0  0  0  0  0  0
  -28.2546  -38.0160   24.7600 H   0  0  0  0  0  0
  -28.1169  -36.2710   24.6126 H   0  0  0  0  0  0
  -27.2335  -37.1261   25.8838 H   0  0  0  0  0  0
  -20.9271  -29.8772   21.6969 H   0  0  0  0  0  0
  -26.0169  -38.2870   24.1480 H   0  0  0  0  0  0
  -27.2631  -19.0239   20.7502 H   0  0  0  0  0  0
  -27.8249  -16.8113   21.6568 H   0  0  0  0  0  0
  -31.7785  -17.1201   19.9427 H   0  0  0  0  0  0
  -32.5061  -19.0495   18.8764 H   0  0  0  0  0  0
  -31.6736  -20.5594   19.2126 H   0  0  0  0  0  0
  -31.2683  -19.6224   17.7643 H   0  0  0  0  0  0
  -27.7017  -20.3679   18.6600 H   0  0  0  0  0  0
  -29.3056  -20.7918   18.1730 H   0  0  0  0  0  0
  -28.7102  -24.1113   21.0753 H   0  0  0  0  0  0
  -27.0600  -24.4185   20.5987 H   0  0  0  0  0  0
  -28.0291  -25.5290   18.4130 H   0  0  0  0  0  0
  -29.5782  -25.3428   19.1350 H   0  0  0  0  0  0
  -29.2647  -15.0230   21.7760 H   0  0  0  0  0  0
  -29.0595  -21.8548   20.7486 H   0  0  0  0  0  0
  1 25  1  0  0  0
  1 30  2  0  0  0
  1 82  1  0  0  0
  2  3  1  0  0  0
  2 25  1  0  0  0
  2 85  1  0  0  0
  2 86  1  0  0  0
  3  4  1  0  0  0
  3 87  1  0  0  0
  3 88  1  0  0  0
  4  5  1  0  0  0
  4 89  1  0  0  0
  4 90  1  0  0  0
  5  6  1  0  0  0
  5 26  1  0  0  0
  5 91  1  0  0  0
  6 25  1  0  0  0
  6 92  1  0  0  0
  6 93  1  0  0  0
  7  8  2  0  0  0
  7 26  1  0  0  0
  7 29  1  0  0  0
  8  9  1  0  0  0
  8 22  1  0  0  0
  9 10  1  0  0  0
  9 27  2  0  0  0
 10 11  2  0  0  0
 10 15  1  0  0  0
 11 12  1  0  0  0
 11 94  1  0  0  0
 12 13  2  0  0  0
 12 95  1  0  0  0
 13 14  1  0  0  0
 13 31  1  0  0  0
 14 15  2  0  0  0
 14 96  1  0  0  0
 15 97  1  0  0  0
 16 17  2  0  0  0
 16 21  1  0  0  0
 16 31  1  0  0  0
 17 18  1  0  0  0
 17 98  1  0  0  0
 18 19  2  0  0  0
 18 99  1  0  0  0
 19 20  1  0  0  0
 19 24  1  0  0  0
 20 21  2  0  0  0
 20100  1  0  0  0
 21 23  1  0  0  0
 22 28  1  0  0  0
 22 32  2  0  0  0
 26 27  1  0  0  0
 28101  1  0  0  0
 28102  1  0  0  0
 29103  1  0  0  0
 29104  1  0  0  0
 33 34  1  0  0  0
 33 66  1  0  0  0
 33 70  2  0  0  0
 34 36  1  0  0  0
 34 59  1  0  0  0
 34105  1  0  0  0
 35 44  2  0  0  0
 35 45  1  0  0  0
 35 68  1  0  0  0
 36 56  1  0  0  0
 36106  1  0  0  0
 37 39  1  0  0  0
 37 47  1  0  0  0
 37 66  1  0  0  0
 37107  1  0  0  0
 38 43  2  0  0  0
 38 46  1  0  0  0
 38 47  1  0  0  0
 39 64  1  0  0  0
 39 67  2  0  0  0
 40 52  1  0  0  0
 40 53  2  0  0  0
 40 58  1  0  0  0
 41108  1  0  0  0
 41109  1  0  0  0
 41110  1  0  0  0
 41 48  1  0  0  0
 42 43  1  0  0  0
 42 66  1  0  0  0
 42111  1  0  0  0
 42112  1  0  0  0
 43 44  1  0  0  0
 44113  1  0  0  0
 45 46  2  0  0  0
 45114  1  0  0  0
 46115  1  0  0  0
 47116  1  0  0  0
 47117  1  0  0  0
 48 56  1  0  0  0
 48 65  1  0  0  0
 48118  1  0  0  0
 49 50  1  0  0  0
 49 53  1  0  0  0
 49 64  1  0  0  0
 49119  1  0  0  0
 50 51  1  0  0  0
 50120  1  0  0  0
 50121  1  0  0  0
 51 52  1  0  0  0
 51122  1  0  0  0
 51123  1  0  0  0
 52124  1  0  0  0
 52125  1  0  0  0
 53 54  1  0  0  0
 54 55  2  0  0  0
 54126  1  0  0  0
 55 57  1  0  0  0
 55127  1  0  0  0
 56 69  2  0  0  0
 57 58  2  0  0  0
 57128  1  0  0  0
 58129  1  0  0  0
 59 60  1  0  0  0
 59 61  1  0  0  0
 59 62  1  0  0  0
 60130  1  0  0  0
 60131  1  0  0  0
 60132  1  0  0  0
 61133  1  0  0  0
 61134  1  0  0  0
 61135  1  0  0  0
 62136  1  0  0  0
 62137  1  0  0  0
 62138  1  0  0  0
 63 65  1  0  0  0
 63139  1  0  0  0
 63140  1  0  0  0
 63141  1  0  0  0
 64142  1  0  0  0
 65143  1  0  0  0
 68 81  1  0  0  0
 71 72  2  0  0  0
 71 74  1  0  0  0
 71144  1  0  0  0
 72 76  1  0  0  0
 72145  1  0  0  0
 73 75  1  0  0  0
 73 76  2  0  0  0
 73146  1  0  0  0
 74 75  2  0  0  0
 74 79  1  0  0  0
 75 78  1  0  0  0
 76 82  1  0  0  0
 77 80  1  0  0  0
 77 83  1  0  0  0
 77 84  2  0  0  0
 78147  1  0  0  0
 78148  1  0  0  0
 78149  1  0  0  0
 79 83  1  0  0  0
 79150  1  0  0  0
 79151  1  0  0  0
 80 81  1  0  0  0
 80152  1  0  0  0
 80153  1  0  0  0
 81154  1  0  0  0
 81155  1  0  0  0
 82156  1  0  0  0
 83157  1  0  0  0
M  ISO  4   1 100  68 101  81 101  82 100
M  END
> <chiral flag>
0

> <version>
0

> <s_m_source_file>
/data/baiqing/PycharmProjects/Reinvent-master-3.2/result/LINK_invent/BTK/process_docking_weight1_custom_sum_contain_oxygen_bond_distance_aromatic_linkinvent_7_9_3/rearranged_h_0003.sdf

> <i_m_source_file_index>
91

> <r_mmod_Potential_Energy-OPLS-2005>
-136.798080444336

> <r_mmod_Stretch_Energy-OPLS-2005>
38.1429595947266

> <r_mmod_Bend_Energy-OPLS-2005>
102.728797912598

> <r_mmod_Torsional_Energy-OPLS-2005>
221.869812011719

> <r_mmod_Improper_Torsional_Energy-OPLS-2005>
5.36150932312012

> <r_mmod_Van_der_Waal_Energy-OPLS-2005>
155.60400390625

> <r_mmod_Electrostatic_Energy-OPLS-2005>
-445.020721435547

> <r_mmod_Solvation_Energy-OPLS-2005>
-226.603485107422

> <b_mmod_Minimization_Converged-OPLS-2005>
0

> <r_mmod_RMS_Derivative-OPLS-2005>
2.6264226436615

$$$$
93
                    3D
 Structure written by MMmdl.
142150  0  0  1  0            999 V2000
  -30.0650  -16.2561   20.2730 C   0  0  0  0  0  0
  -30.3732  -13.5365   19.5801 C   0  0  0  0  0  0
  -29.5823  -12.8441   18.4075 C   0  0  0  0  0  0
  -28.2051  -12.3502   18.8605 C   0  0  0  0  0  0
  -27.5777  -13.3879   19.8061 C   0  0  2  0  0  0
  -28.5332  -13.9719   20.8921 C   0  0  0  0  0  0
  -25.2212  -13.8415   20.5865 C   0  0  0  0  0  0
  -24.1678  -13.0454   20.9301 C   0  0  0  0  0  0
  -24.6487  -11.7001   20.8725 C   0  0  0  0  0  0
  -23.9199  -10.4311   21.0351 C   0  0  0  0  0  0
  -24.3704   -9.4225   21.9154 C   0  0  0  0  0  0
  -23.6345   -8.2274   22.0749 C   0  0  0  0  0  0
  -22.4323   -8.0309   21.3544 C   0  0  0  0  0  0
  -21.9983   -9.0285   20.4637 C   0  0  0  0  0  0
  -22.7346  -10.2147   20.3025 C   0  0  0  0  0  0
  -21.6872   -6.0755   22.5277 C   0  0  0  0  0  0
  -21.4030   -6.5649   23.8212 C   0  0  0  0  0  0
  -21.3666   -5.6798   24.9171 C   0  0  0  0  0  0
  -21.6044   -4.3059   24.7218 C   0  0  0  0  0  0
  -21.8816   -3.8156   23.4337 C   0  0  0  0  0  0
  -21.9198   -4.6978   22.3396 C   0  0  0  0  0  0
  -22.7671  -13.5117   21.1931 C   0  0  0  0  0  0
  -22.1661   -4.2162   21.0974 F   0  0  0  0  0  0
  -21.5627   -3.4541   25.7728 F   0  0  0  0  0  0
  -29.6368  -14.7703   20.2419 N   0  0  0  0  0  0
  -26.2755  -12.9906   20.3286 N   0  0  0  0  0  0
  -25.9463  -11.6880   20.5617 N   0  0  0  0  0  0
  -22.0369  -12.8076   22.0493 N   0  0  0  0  0  0
  -25.3700  -15.2173   20.4354 N   0  0  0  0  0  0
  -31.3013  -16.0840   20.1237 O   0  0  0  0  0  0
  -21.6670   -6.8912   21.4246 O   0  0  0  0  0  0
  -22.3310  -14.5403   20.6771 O   0  0  0  0  0  0
  -24.7245  -31.7493   23.1183 C   0  0  0  0  0  0
  -25.9619  -32.4215   23.7881 C   0  0  1  0  0  0
  -27.2416  -26.2624   20.2575 C   0  0  0  0  0  0
  -25.6023  -33.8068   24.1713 N   0  0  0  0  0  0
  -23.5713  -30.3318   21.4822 C   0  0  2  0  0  0
  -25.0362  -28.5848   20.1320 C   0  0  0  0  0  0
  -22.7952  -29.4040   22.4601 C   0  0  0  0  0  0
  -18.0363  -28.1444   22.8434 C   0  0  0  0  0  0
  -24.1499  -36.7041   23.2664 C   0  0  0  0  0  0
  -26.1671  -30.3321   21.4569 C   0  0  0  0  0  0
  -26.2265  -28.8475   20.8186 C   0  0  0  0  0  0
  -27.2891  -27.7277   20.8456 C   0  0  0  0  0  0
  -26.0322  -26.3436   19.4798 C   0  0  0  0  0  0
  -25.0049  -27.3615   19.4359 C   0  0  0  0  0  0
  -23.8515  -29.5911   20.1361 C   0  0  0  0  0  0
  -25.4164  -36.2748   24.0251 C   0  0  1  0  0  0
  -20.6019  -28.3819   23.1063 C   0  0  2  0  0  0
  -20.6809  -26.9439   22.5408 C   0  0  0  0  0  0
  -19.5789  -26.6355   21.5221 C   0  0  0  0  0  0
  -18.1973  -26.7960   22.1617 C   0  0  0  0  0  0
  -19.1641  -28.8966   23.2713 C   0  0  0  0  0  0
  -18.9539  -30.1539   23.8775 C   0  0  0  0  0  0
  -17.6525  -30.6613   24.0541 C   0  0  0  0  0  0
  -25.9170  -34.9150   23.4850 C   0  0  0  0  0  0
  -16.5411  -29.9087   23.6364 C   0  0  0  0  0  0
  -16.7340  -28.6514   23.0375 C   0  0  0  0  0  0
  -26.4662  -31.6436   25.0680 C   0  0  0  0  0  0
  -25.3617  -31.3881   26.1213 C   0  0  0  0  0  0
  -27.0663  -30.2727   24.6909 C   0  0  0  0  0  0
  -27.6028  -32.4404   25.7513 C   0  0  0  0  0  0
  -27.5545  -37.1681   24.8470 C   0  0  0  0  0  0
  -21.4562  -29.2978   22.3336 N   0  0  0  0  0  0
  -26.4253  -37.3555   23.9402 N   0  0  0  0  0  0
  -24.8496  -30.8490   22.0699 N   0  0  0  0  0  0
  -23.4186  -28.7711   23.3148 O   0  0  0  0  0  0
  -28.1183  -24.8133   20.2790 O   0  0  0  0  0  0
  -26.5870  -34.8811   22.4510 O   0  0  0  0  0  0
  -23.6170  -32.0780   23.5844 O   0  0  0  0  0  0
  -25.7832  -20.9408   20.8773 C   0  0  0  0  0  0
  -25.5016  -22.2839   20.9842 C   0  0  0  0  0  0
  -27.0751  -20.4992   20.6135 C   0  0  0  0  0  0
  -26.4894  -23.2379   20.7725 C   0  0  0  0  0  0
  -28.2636  -21.2654   20.3945 C   0  0  0  0  0  0
  -27.8537  -23.0636   20.4089 C   0  0  0  0  0  0
  -29.3178  -19.4821   20.2698 C   0  0  0  0  0  0
  -29.2274  -17.8563   20.3634 N   0  0  0  0  0  0
  -31.3267  -13.8627   19.1641 H   0  0  0  0  0  0
  -30.6556  -12.7985   20.3335 H   0  0  0  0  0  0
  -30.1600  -12.0183   17.9906 H   0  0  0  0  0  0
  -29.4545  -13.5660   17.5997 H   0  0  0  0  0  0
  -28.3349  -11.4070   19.3928 H   0  0  0  0  0  0
  -27.5584  -12.1459   18.0062 H   0  0  0  0  0  0
  -27.3643  -14.2264   19.1407 H   0  0  0  0  0  0
  -28.9018  -13.1957   21.5648 H   0  0  0  0  0  0
  -27.9787  -14.6619   21.5293 H   0  0  0  0  0  0
  -25.2839   -9.5694   22.4746 H   0  0  0  0  0  0
  -24.0034   -7.4673   22.7489 H   0  0  0  0  0  0
  -21.0908   -8.8821   19.8948 H   0  0  0  0  0  0
  -22.3801  -10.9684   19.6134 H   0  0  0  0  0  0
  -21.2030   -7.6159   23.9718 H   0  0  0  0  0  0
  -21.1490   -6.0528   25.9075 H   0  0  0  0  0  0
  -22.0589   -2.7618   23.2833 H   0  0  0  0  0  0
  -22.4045  -11.9764   22.4883 H   0  0  0  0  0  0
  -21.0963  -13.1037   22.2692 H   0  0  0  0  0  0
  -24.6026  -15.8667   20.5689 H   0  0  0  0  0  0
  -26.2304  -15.6702   20.1519 H   0  0  0  0  0  0
  -26.7747  -32.4591   23.0619 H   0  0  0  0  0  0
  -25.0012  -33.9037   24.9762 H   0  0  0  0  0  0
  -22.9215  -31.1799   21.2552 H   0  0  0  0  0  0
  -23.3786  -35.9344   23.3253 H   0  0  0  0  0  0
  -24.3548  -36.8800   22.2093 H   0  0  0  0  0  0
  -23.7243  -37.6179   23.6823 H   0  0  0  0  0  0
  -26.4160  -31.0237   20.6509 H   0  0  0  0  0  0
  -27.0032  -30.4175   22.1369 H   0  0  0  0  0  0
  -28.1722  -27.9524   21.4270 H   0  0  0  0  0  0
  -25.8075  -25.4591   18.9005 H   0  0  0  0  0  0
  -24.1293  -27.1473   18.8379 H   0  0  0  0  0  0
  -24.0605  -30.3339   19.3655 H   0  0  0  0  0  0
  -22.9492  -29.0771   19.8011 H   0  0  0  0  0  0
  -25.1398  -36.1452   25.0740 H   0  0  0  0  0  0
  -21.0079  -28.3477   24.1200 H   0  0  0  0  0  0
  -20.5639  -26.2456   23.3709 H   0  0  0  0  0  0
  -21.6668  -26.7319   22.1250 H   0  0  0  0  0  0
  -19.6941  -25.6236   21.1326 H   0  0  0  0  0  0
  -19.6744  -27.3105   20.6705 H   0  0  0  0  0  0
  -17.4245  -26.6698   21.4019 H   0  0  0  0  0  0
  -18.0350  -26.0131   22.9040 H   0  0  0  0  0  0
  -19.8015  -30.7385   24.2092 H   0  0  0  0  0  0
  -17.5074  -31.6282   24.5166 H   0  0  0  0  0  0
  -15.5408  -30.2953   23.7756 H   0  0  0  0  0  0
  -15.8739  -28.0794   22.7157 H   0  0  0  0  0  0
  -24.5833  -30.7210   25.7491 H   0  0  0  0  0  0
  -24.8783  -32.3145   26.4326 H   0  0  0  0  0  0
  -25.7689  -30.9229   27.0198 H   0  0  0  0  0  0
  -26.3461  -29.6195   24.1974 H   0  0  0  0  0  0
  -27.3974  -29.7360   25.5810 H   0  0  0  0  0  0
  -27.9486  -30.3747   24.0591 H   0  0  0  0  0  0
  -27.2512  -33.3827   26.1727 H   0  0  0  0  0  0
  -28.4013  -32.6770   25.0469 H   0  0  0  0  0  0
  -28.0503  -31.8788   26.5721 H   0  0  0  0  0  0
  -28.2520  -38.0011   24.7496 H   0  0  0  0  0  0
  -28.1080  -36.2526   24.6327 H   0  0  0  0  0  0
  -27.2250  -37.1341   25.8869 H   0  0  0  0  0  0
  -20.9970  -29.8565   21.6276 H   0  0  0  0  0  0
  -26.0041  -38.2585   24.1413 H   0  0  0  0  0  0
  -24.9927  -20.2181   21.0313 H   0  0  0  0  0  0
  -24.4970  -22.5993   21.2306 H   0  0  0  0  0  0
  -27.0727  -19.4179   20.6065 H   0  0  0  0  0  0
  -26.0908  -24.2223   20.9278 H   0  0  0  0  0  0
  -30.3462  -19.7822   20.0544 H   0  0  0  0  0  0
  1 25  1  0  0  0
  1 30  2  0  0  0
  1 78  1  0  0  0
  2  3  1  0  0  0
  2 25  1  0  0  0
  2 79  1  0  0  0
  2 80  1  0  0  0
  3  4  1  0  0  0
  3 81  1  0  0  0
  3 82  1  0  0  0
  4  5  1  0  0  0
  4 83  1  0  0  0
  4 84  1  0  0  0
  5  6  1  0  0  0
  5 26  1  0  0  0
  5 85  1  0  0  0
  6 25  1  0  0  0
  6 86  1  0  0  0
  6 87  1  0  0  0
  7  8  2  0  0  0
  7 26  1  0  0  0
  7 29  1  0  0  0
  8  9  1  0  0  0
  8 22  1  0  0  0
  9 10  1  0  0  0
  9 27  2  0  0  0
 10 11  2  0  0  0
 10 15  1  0  0  0
 11 12  1  0  0  0
 11 88  1  0  0  0
 12 13  2  0  0  0
 12 89  1  0  0  0
 13 14  1  0  0  0
 13 31  1  0  0  0
 14 15  2  0  0  0
 14 90  1  0  0  0
 15 91  1  0  0  0
 16 17  2  0  0  0
 16 21  1  0  0  0
 16 31  1  0  0  0
 17 18  1  0  0  0
 17 92  1  0  0  0
 18 19  2  0  0  0
 18 93  1  0  0  0
 19 20  1  0  0  0
 19 24  1  0  0  0
 20 21  2  0  0  0
 20 94  1  0  0  0
 21 23  1  0  0  0
 22 28  1  0  0  0
 22 32  2  0  0  0
 26 27  1  0  0  0
 28 95  1  0  0  0
 28 96  1  0  0  0
 29 97  1  0  0  0
 29 98  1  0  0  0
 33 34  1  0  0  0
 33 66  1  0  0  0
 33 70  2  0  0  0
 34 36  1  0  0  0
 34 59  1  0  0  0
 34 99  1  0  0  0
 35 44  2  0  0  0
 35 45  1  0  0  0
 35 68  1  0  0  0
 36 56  1  0  0  0
 36100  1  0  0  0
 37 39  1  0  0  0
 37 47  1  0  0  0
 37 66  1  0  0  0
 37101  1  0  0  0
 38 43  2  0  0  0
 38 46  1  0  0  0
 38 47  1  0  0  0
 39 64  1  0  0  0
 39 67  2  0  0  0
 40 52  1  0  0  0
 40 53  2  0  0  0
 40 58  1  0  0  0
 41102  1  0  0  0
 41103  1  0  0  0
 41104  1  0  0  0
 41 48  1  0  0  0
 42 43  1  0  0  0
 42 66  1  0  0  0
 42105  1  0  0  0
 42106  1  0  0  0
 43 44  1  0  0  0
 44107  1  0  0  0
 45 46  2  0  0  0
 45108  1  0  0  0
 46109  1  0  0  0
 47110  1  0  0  0
 47111  1  0  0  0
 48 56  1  0  0  0
 48 65  1  0  0  0
 48112  1  0  0  0
 49 50  1  0  0  0
 49 53  1  0  0  0
 49 64  1  0  0  0
 49113  1  0  0  0
 50 51  1  0  0  0
 50114  1  0  0  0
 50115  1  0  0  0
 51 52  1  0  0  0
 51116  1  0  0  0
 51117  1  0  0  0
 52118  1  0  0  0
 52119  1  0  0  0
 53 54  1  0  0  0
 54 55  2  0  0  0
 54120  1  0  0  0
 55 57  1  0  0  0
 55121  1  0  0  0
 56 69  2  0  0  0
 57 58  2  0  0  0
 57122  1  0  0  0
 58123  1  0  0  0
 59 60  1  0  0  0
 59 61  1  0  0  0
 59 62  1  0  0  0
 60124  1  0  0  0
 60125  1  0  0  0
 60126  1  0  0  0
 61127  1  0  0  0
 61128  1  0  0  0
 61129  1  0  0  0
 62130  1  0  0  0
 62131  1  0  0  0
 62132  1  0  0  0
 63 65  1  0  0  0
 63133  1  0  0  0
 63134  1  0  0  0
 63135  1  0  0  0
 64136  1  0  0  0
 65137  1  0  0  0
 68 76  1  0  0  0
 71 72  2  0  0  0
 71 73  1  0  0  0
 71138  1  0  0  0
 72 74  1  0  0  0
 72139  1  0  0  0
 73 75  2  0  0  0
 73140  1  0  0  0
 74 76  2  0  0  0
 74141  1  0  0  0
 75 76  1  0  0  0
 75 77  1  0  0  0
 77 78  2  0  0  0
 77142  1  0  0  0
M  ISO  4   1 100  68 101  76 101  78 100
M  END
> <chiral flag>
0

> <version>
0

> <s_m_source_file>
/data/baiqing/PycharmProjects/Reinvent-master-3.2/result/LINK_invent/BTK/process_docking_weight1_custom_sum_contain_oxygen_bond_distance_aromatic_linkinvent_7_9_3/rearranged_h_0003.sdf

> <i_m_source_file_index>
92

> <r_mmod_Potential_Energy-OPLS-2005>
5322.94677734375

> <r_mmod_Stretch_Energy-OPLS-2005>
2310.76440429688

> <r_mmod_Bend_Energy-OPLS-2005>
1099.95922851562

> <r_mmod_Torsional_Energy-OPLS-2005>
182.18083190918

> <r_mmod_Improper_Torsional_Energy-OPLS-2005>
2.26828265190125

> <r_mmod_Van_der_Waal_Energy-OPLS-2005>
146.8876953125

> <r_mmod_Electrostatic_Energy-OPLS-2005>
-306.290863037109

> <r_mmod_Solvation_Energy-OPLS-2005>
-190.875747680664

> <b_mmod_Minimization_Converged-OPLS-2005>
0

> <r_mmod_RMS_Derivative-OPLS-2005>
0.596807301044464

$$$$
94
                    3D
 Structure written by MMmdl.
164172  0  0  1  0            999 V2000
  -30.8151  -14.3062   20.7202 C   0  0  0  0  0  0
  -30.4088  -12.2798   19.3815 C   0  0  0  0  0  0
  -29.4764  -12.5351   18.1858 C   0  0  0  0  0  0
  -28.0038  -12.3870   18.6077 C   0  0  0  0  0  0
  -27.6674  -13.2049   19.8813 C   0  0  2  0  0  0
  -28.7060  -12.9462   20.9960 C   0  0  0  0  0  0
  -25.2604  -13.8165   20.5683 C   0  0  0  0  0  0
  -24.1848  -13.0439   20.9170 C   0  0  0  0  0  0
  -24.6401  -11.6907   20.8730 C   0  0  0  0  0  0
  -23.9067  -10.4293   21.0403 C   0  0  0  0  0  0
  -24.3618   -9.4209   21.9183 C   0  0  0  0  0  0
  -23.6292   -8.2243   22.0753 C   0  0  0  0  0  0
  -22.4274   -8.0283   21.3543 C   0  0  0  0  0  0
  -21.9913   -9.0257   20.4645 C   0  0  0  0  0  0
  -22.7241  -10.2136   20.3051 C   0  0  0  0  0  0
  -21.6853   -6.0737   22.5280 C   0  0  0  0  0  0
  -21.4015   -6.5640   23.8215 C   0  0  0  0  0  0
  -21.3660   -5.6793   24.9178 C   0  0  0  0  0  0
  -21.6044   -4.3055   24.7225 C   0  0  0  0  0  0
  -21.8819   -3.8148   23.4347 C   0  0  0  0  0  0
  -21.9193   -4.6965   22.3404 C   0  0  0  0  0  0
  -22.7870  -13.5235   21.1838 C   0  0  0  0  0  0
  -22.1661   -4.2151   21.0979 F   0  0  0  0  0  0
  -21.5631   -3.4536   25.7739 F   0  0  0  0  0  0
  -30.0550  -13.2134   20.4597 N   0  0  0  0  0  0
  -26.3052  -12.9340   20.3391 N   0  0  0  0  0  0
  -25.9328  -11.6495   20.5760 N   0  0  0  0  0  0
  -22.0510  -12.8224   22.0397 N   0  0  0  0  0  0
  -25.4326  -15.1882   20.4109 N   0  0  0  0  0  0
  -31.7698  -14.6460   20.0139 O   0  0  0  0  0  0
  -21.6638   -6.8881   21.4240 O   0  0  0  0  0  0
  -22.3558  -14.5547   20.6701 O   0  0  0  0  0  0
  -24.6074  -31.8724   23.2105 C   0  0  0  0  0  0
  -25.8996  -32.4842   23.8394 C   0  0  1  0  0  0
  -27.2595  -27.4941   20.1074 C   0  0  0  0  0  0
  -25.5876  -33.8640   24.2339 N   0  0  0  0  0  0
  -23.3923  -30.4920   21.5507 C   0  0  2  0  0  0
  -24.8428  -28.9613   20.1166 C   0  0  0  0  0  0
  -22.7368  -29.4680   22.5034 C   0  0  0  0  0  0
  -18.0265  -28.1366   22.8497 C   0  0  0  0  0  0
  -24.1494  -36.7325   23.2635 C   0  0  0  0  0  0
  -25.9104  -30.8658   21.3462 C   0  0  0  0  0  0
  -25.9953  -29.5046   20.6930 C   0  0  0  0  0  0
  -27.2054  -28.7904   20.6686 C   0  0  0  0  0  0
  -26.0923  -26.9593   19.5226 C   0  0  0  0  0  0
  -24.8843  -27.6859   19.5236 C   0  0  0  0  0  0
  -23.5964  -29.8134   20.1681 C   0  0  0  0  0  0
  -25.4117  -36.3133   24.0343 C   0  0  1  0  0  0
  -20.5847  -28.3647   23.1342 C   0  0  2  0  0  0
  -20.6751  -26.9394   22.5425 C   0  0  0  0  0  0
  -19.5735  -26.6381   21.5209 C   0  0  0  0  0  0
  -18.1915  -26.7917   22.1616 C   0  0  0  0  0  0
  -19.1513  -28.8822   23.2915 C   0  0  0  0  0  0
  -18.9442  -30.1424   23.8929 C   0  0  0  0  0  0
  -17.6449  -30.6579   24.0564 C   0  0  0  0  0  0
  -25.9034  -34.9493   23.5141 C   0  0  0  0  0  0
  -16.5339  -29.9089   23.6315 C   0  0  0  0  0  0
  -16.7255  -28.6498   23.0348 C   0  0  0  0  0  0
  -26.4452  -31.6589   25.0688 C   0  0  0  0  0  0
  -25.3739  -31.3667   26.1451 C   0  0  0  0  0  0
  -27.0276  -30.3041   24.5992 C   0  0  0  0  0  0
  -27.6036  -32.4297   25.7456 C   0  0  0  0  0  0
  -27.5599  -37.1822   24.8458 C   0  0  0  0  0  0
  -21.4106  -29.3026   22.3767 N   0  0  0  0  0  0
  -26.4306  -37.3814   23.9412 N   0  0  0  0  0  0
  -24.6548  -31.0884   22.0963 N   0  0  0  0  0  0
  -23.4171  -28.8241   23.3065 O   0  0  0  0  0  0
  -28.3895  -26.7053   20.1031 O   0  0  0  0  0  0
  -26.5601  -34.8936   22.4705 O   0  0  0  0  0  0
  -23.5285  -32.1445   23.7546 O   0  0  0  0  0  0
  -33.2999  -17.1195   23.1204 C   0  0  0  0  0  0
  -32.6381  -16.0494   22.4930 C   0  0  0  0  0  0
  -32.5584  -18.1514   23.7243 C   0  0  0  0  0  0
  -30.4893  -17.0242   23.1036 C   0  0  0  0  0  0
  -31.2242  -16.0027   22.4699 C   0  0  0  0  0  0
  -31.1432  -18.1164   23.7077 C   0  0  0  0  0  0
  -29.1947  -23.8477   24.3615 C   0  0  0  0  0  0
  -30.3152  -22.8421   24.6032 C   0  0  0  0  0  0
  -29.7996  -21.3993   24.4957 C   0  0  0  0  0  0
  -29.1264  -27.0381   22.4880 C   0  0  0  0  0  0
  -28.4246  -25.7752   23.0100 C   0  0  0  0  0  0
  -30.9332  -20.3763   24.4566 C   0  0  0  0  0  0
  -29.4768  -27.0310   20.9776 C   0  0  0  0  0  0
  -30.5129  -14.9355   21.8645 N   0  0  0  0  0  0
  -29.3814  -24.7386   23.3815 N   0  0  0  0  0  0
  -28.1721  -23.8097   25.0478 O   0  0  0  0  0  0
  -30.3472  -19.0994   24.2462 O   0  0  0  0  0  0
  -31.4517  -12.3737   19.0726 H   0  0  0  0  0  0
  -30.2997  -11.2542   19.7374 H   0  0  0  0  0  0
  -29.7042  -11.8421   17.3753 H   0  0  0  0  0  0
  -29.6489  -13.5376   17.7909 H   0  0  0  0  0  0
  -27.8115  -11.3281   18.7841 H   0  0  0  0  0  0
  -27.3473  -12.6828   17.7885 H   0  0  0  0  0  0
  -27.7263  -14.2594   19.6113 H   0  0  0  0  0  0
  -28.6559  -11.9076   21.3253 H   0  0  0  0  0  0
  -28.4548  -13.5420   21.8734 H   0  0  0  0  0  0
  -25.2764   -9.5684   22.4758 H   0  0  0  0  0  0
  -24.0004   -7.4635   22.7473 H   0  0  0  0  0  0
  -21.0844   -8.8778   19.8950 H   0  0  0  0  0  0
  -22.3703  -10.9676   19.6160 H   0  0  0  0  0  0
  -21.2006   -7.6150   23.9720 H   0  0  0  0  0  0
  -21.1483   -6.0522   25.9081 H   0  0  0  0  0  0
  -22.0599   -2.7609   23.2847 H   0  0  0  0  0  0
  -22.4121  -11.9874   22.4769 H   0  0  0  0  0  0
  -21.1131  -13.1254   22.2608 H   0  0  0  0  0  0
  -24.6694  -15.8470   20.5226 H   0  0  0  0  0  0
  -26.2953  -15.6289   20.1151 H   0  0  0  0  0  0
  -26.7081  -32.5588   23.1183 H   0  0  0  0  0  0
  -25.0014  -33.9817   25.0474 H   0  0  0  0  0  0
  -22.6765  -31.3050   21.4109 H   0  0  0  0  0  0
  -23.3765  -35.9647   23.3299 H   0  0  0  0  0  0
  -24.3584  -36.8937   22.2048 H   0  0  0  0  0  0
  -23.7233  -37.6525   23.6649 H   0  0  0  0  0  0
  -26.0100  -31.6386   20.5817 H   0  0  0  0  0  0
  -26.8000  -30.9219   21.9615 H   0  0  0  0  0  0
  -28.0834  -29.2562   21.0899 H   0  0  0  0  0  0
  -26.1186  -25.9725   19.0818 H   0  0  0  0  0  0
  -23.9977  -27.2560   19.0778 H   0  0  0  0  0  0
  -23.6894  -30.5824   19.4004 H   0  0  0  0  0  0
  -22.7261  -29.2176   19.8854 H   0  0  0  0  0  0
  -25.1290  -36.2011   25.0837 H   0  0  0  0  0  0
  -20.9930  -28.3209   24.1463 H   0  0  0  0  0  0
  -20.5656  -26.2257   23.3608 H   0  0  0  0  0  0
  -21.6631  -26.7453   22.1228 H   0  0  0  0  0  0
  -19.6898  -25.6295   21.1225 H   0  0  0  0  0  0
  -19.6667  -27.3197   20.6748 H   0  0  0  0  0  0
  -17.4187  -26.6671   21.4013 H   0  0  0  0  0  0
  -18.0302  -26.0050   22.9000 H   0  0  0  0  0  0
  -19.7923  -30.7215   24.2330 H   0  0  0  0  0  0
  -17.5014  -31.6270   24.5148 H   0  0  0  0  0  0
  -15.5343  -30.3003   23.7611 H   0  0  0  0  0  0
  -15.8658  -28.0822   22.7055 H   0  0  0  0  0  0
  -24.5888  -30.7054   25.7765 H   0  0  0  0  0  0
  -24.8963  -32.2812   26.4971 H   0  0  0  0  0  0
  -25.8099  -30.8769   27.0167 H   0  0  0  0  0  0
  -26.2800  -29.6807   24.1076 H   0  0  0  0  0  0
  -27.4102  -29.7250   25.4405 H   0  0  0  0  0  0
  -27.8599  -30.4363   23.9078 H   0  0  0  0  0  0
  -27.2661  -33.3565   26.2104 H   0  0  0  0  0  0
  -28.3816  -32.6909   25.0272 H   0  0  0  0  0  0
  -28.0743  -31.8383   26.5321 H   0  0  0  0  0  0
  -28.2610  -38.0133   24.7562 H   0  0  0  0  0  0
  -28.1109  -36.2674   24.6223 H   0  0  0  0  0  0
  -27.2324  -37.1404   25.8860 H   0  0  0  0  0  0
  -20.9255  -29.8744   21.6993 H   0  0  0  0  0  0
  -26.0199  -38.2891   24.1424 H   0  0  0  0  0  0
  -34.3801  -17.1509   23.1364 H   0  0  0  0  0  0
  -33.2291  -15.2668   22.0378 H   0  0  0  0  0  0
  -33.0983  -18.9591   24.1978 H   0  0  0  0  0  0
  -29.4084  -16.9964   23.0988 H   0  0  0  0  0  0
  -30.7457  -23.0188   25.5894 H   0  0  0  0  0  0
  -31.1160  -23.0075   23.8820 H   0  0  0  0  0  0
  -29.2037  -21.2948   23.5875 H   0  0  0  0  0  0
  -29.1310  -21.1772   25.3287 H   0  0  0  0  0  0
  -30.0343  -27.2205   23.0649 H   0  0  0  0  0  0
  -28.4883  -27.8853   22.7283 H   0  0  0  0  0  0
  -27.7161  -25.3859   22.2781 H   0  0  0  0  0  0
  -27.8311  -26.0561   23.8826 H   0  0  0  0  0  0
  -31.4982  -20.3846   25.3900 H   0  0  0  0  0  0
  -31.6125  -20.6375   23.6428 H   0  0  0  0  0  0
  -30.2540  -26.2863   20.8049 H   0  0  0  0  0  0
  -29.9186  -27.9842   20.6839 H   0  0  0  0  0  0
  -29.6640  -14.6330   22.3181 H   0  0  0  0  0  0
  -30.2479  -24.6912   22.8618 H   0  0  0  0  0  0
  1 25  1  0  0  0
  1 30  2  0  0  0
  1 84  1  0  0  0
  2  3  1  0  0  0
  2 25  1  0  0  0
  2 88  1  0  0  0
  2 89  1  0  0  0
  3  4  1  0  0  0
  3 90  1  0  0  0
  3 91  1  0  0  0
  4  5  1  0  0  0
  4 92  1  0  0  0
  4 93  1  0  0  0
  5  6  1  0  0  0
  5 26  1  0  0  0
  5 94  1  0  0  0
  6 25  1  0  0  0
  6 95  1  0  0  0
  6 96  1  0  0  0
  7  8  2  0  0  0
  7 26  1  0  0  0
  7 29  1  0  0  0
  8  9  1  0  0  0
  8 22  1  0  0  0
  9 10  1  0  0  0
  9 27  2  0  0  0
 10 11  2  0  0  0
 10 15  1  0  0  0
 11 12  1  0  0  0
 11 97  1  0  0  0
 12 13  2  0  0  0
 12 98  1  0  0  0
 13 14  1  0  0  0
 13 31  1  0  0  0
 14 15  2  0  0  0
 14 99  1  0  0  0
 15100  1  0  0  0
 16 17  2  0  0  0
 16 21  1  0  0  0
 16 31  1  0  0  0
 17 18  1  0  0  0
 17101  1  0  0  0
 18 19  2  0  0  0
 18102  1  0  0  0
 19 20  1  0  0  0
 19 24  1  0  0  0
 20 21  2  0  0  0
 20103  1  0  0  0
 21 23  1  0  0  0
 22 28  1  0  0  0
 22 32  2  0  0  0
 26 27  1  0  0  0
 28104  1  0  0  0
 28105  1  0  0  0
 29106  1  0  0  0
 29107  1  0  0  0
 33 34  1  0  0  0
 33 66  1  0  0  0
 33 70  2  0  0  0
 34 36  1  0  0  0
 34 59  1  0  0  0
 34108  1  0  0  0
 35 44  2  0  0  0
 35 45  1  0  0  0
 35 68  1  0  0  0
 36 56  1  0  0  0
 36109  1  0  0  0
 37 39  1  0  0  0
 37 47  1  0  0  0
 37 66  1  0  0  0
 37110  1  0  0  0
 38 43  2  0  0  0
 38 46  1  0  0  0
 38 47  1  0  0  0
 39 64  1  0  0  0
 39 67  2  0  0  0
 40 52  1  0  0  0
 40 53  2  0  0  0
 40 58  1  0  0  0
 41111  1  0  0  0
 41112  1  0  0  0
 41113  1  0  0  0
 41 48  1  0  0  0
 42 43  1  0  0  0
 42 66  1  0  0  0
 42114  1  0  0  0
 42115  1  0  0  0
 43 44  1  0  0  0
 44116  1  0  0  0
 45 46  2  0  0  0
 45117  1  0  0  0
 46118  1  0  0  0
 47119  1  0  0  0
 47120  1  0  0  0
 48 56  1  0  0  0
 48 65  1  0  0  0
 48121  1  0  0  0
 49 50  1  0  0  0
 49 53  1  0  0  0
 49 64  1  0  0  0
 49122  1  0  0  0
 50 51  1  0  0  0
 50123  1  0  0  0
 50124  1  0  0  0
 51 52  1  0  0  0
 51125  1  0  0  0
 51126  1  0  0  0
 52127  1  0  0  0
 52128  1  0  0  0
 53 54  1  0  0  0
 54 55  2  0  0  0
 54129  1  0  0  0
 55 57  1  0  0  0
 55130  1  0  0  0
 56 69  2  0  0  0
 57 58  2  0  0  0
 57131  1  0  0  0
 58132  1  0  0  0
 59 60  1  0  0  0
 59 61  1  0  0  0
 59 62  1  0  0  0
 60133  1  0  0  0
 60134  1  0  0  0
 60135  1  0  0  0
 61136  1  0  0  0
 61137  1  0  0  0
 61138  1  0  0  0
 62139  1  0  0  0
 62140  1  0  0  0
 62141  1  0  0  0
 63 65  1  0  0  0
 63142  1  0  0  0
 63143  1  0  0  0
 63144  1  0  0  0
 64145  1  0  0  0
 65146  1  0  0  0
 68 83  1  0  0  0
 71 72  2  0  0  0
 71 73  1  0  0  0
 71147  1  0  0  0
 72 75  1  0  0  0
 72148  1  0  0  0
 73 76  2  0  0  0
 73149  1  0  0  0
 74 75  2  0  0  0
 74 76  1  0  0  0
 74150  1  0  0  0
 75 84  1  0  0  0
 76 87  1  0  0  0
 77 78  1  0  0  0
 77 85  1  0  0  0
 77 86  2  0  0  0
 78 79  1  0  0  0
 78151  1  0  0  0
 78152  1  0  0  0
 79 82  1  0  0  0
 79153  1  0  0  0
 79154  1  0  0  0
 80 81  1  0  0  0
 80 83  1  0  0  0
 80155  1  0  0  0
 80156  1  0  0  0
 81 85  1  0  0  0
 81157  1  0  0  0
 81158  1  0  0  0
 82 87  1  0  0  0
 82159  1  0  0  0
 82160  1  0  0  0
 83161  1  0  0  0
 83162  1  0  0  0
 84163  1  0  0  0
 85164  1  0  0  0
M  ISO  4   1 100  68 101  83 101  84 100
M  END
> <chiral flag>
0

> <version>
0

> <s_m_source_file>
/data/baiqing/PycharmProjects/Reinvent-master-3.2/result/LINK_invent/BTK/process_docking_weight1_custom_sum_contain_oxygen_bond_distance_aromatic_linkinvent_7_9_3/rearranged_h_0003.sdf

> <i_m_source_file_index>
93

> <r_mmod_Potential_Energy-OPLS-2005>
-137.535552978516

> <r_mmod_Stretch_Energy-OPLS-2005>
32.1217918395996

> <r_mmod_Bend_Energy-OPLS-2005>
101.477760314941

> <r_mmod_Torsional_Energy-OPLS-2005>
224.155227661133

> <r_mmod_Improper_Torsional_Energy-OPLS-2005>
2.22313022613525

> <r_mmod_Van_der_Waal_Energy-OPLS-2005>
167.93408203125

> <r_mmod_Electrostatic_Energy-OPLS-2005>
-430.189544677734

> <r_mmod_Solvation_Energy-OPLS-2005>
-242.75244140625

> <b_mmod_Minimization_Converged-OPLS-2005>
0

> <r_mmod_RMS_Derivative-OPLS-2005>
1.16281402111053

$$$$
95
                    3D
 Structure written by MMmdl.
147155  0  0  1  0            999 V2000
  -30.2482  -15.7708   20.3173 C   0  0  0  0  0  0
  -30.4157  -13.1832   19.5393 C   0  0  0  0  0  0
  -29.5554  -12.6895   18.3367 C   0  0  0  0  0  0
  -28.1398  -12.3027   18.7873 C   0  0  0  0  0  0
  -27.5911  -13.3207   19.8101 C   0  0  2  0  0  0
  -28.5991  -13.7111   20.9200 C   0  0  0  0  0  0
  -25.2302  -13.8301   20.5812 C   0  0  0  0  0  0
  -24.1706  -13.0434   20.9299 C   0  0  0  0  0  0
  -24.6425  -11.6950   20.8765 C   0  0  0  0  0  0
  -23.9130  -10.4293   21.0393 C   0  0  0  0  0  0
  -24.3660   -9.4205   21.9178 C   0  0  0  0  0  0
  -23.6317   -8.2248   22.0753 C   0  0  0  0  0  0
  -22.4297   -8.0289   21.3544 C   0  0  0  0  0  0
  -21.9947   -9.0265   20.4643 C   0  0  0  0  0  0
  -22.7294  -10.2135   20.3047 C   0  0  0  0  0  0
  -21.6860   -6.0743   22.5278 C   0  0  0  0  0  0
  -21.4020   -6.5644   23.8212 C   0  0  0  0  0  0
  -21.3661   -5.6795   24.9173 C   0  0  0  0  0  0
  -21.6044   -4.3057   24.7223 C   0  0  0  0  0  0
  -21.8818   -3.8150   23.4343 C   0  0  0  0  0  0
  -21.9195   -4.6969   22.3401 C   0  0  0  0  0  0
  -22.7714  -13.5154   21.1928 C   0  0  0  0  0  0
  -22.1662   -4.2154   21.0978 F   0  0  0  0  0  0
  -21.5627   -3.4540   25.7735 F   0  0  0  0  0  0
  -29.7496  -14.3777   20.2537 N   0  0  0  0  0  0
  -26.2764  -12.9656   20.3248 N   0  0  0  0  0  0
  -25.9376  -11.6713   20.5693 N   0  0  0  0  0  0
  -22.0383  -12.8126   22.0479 N   0  0  0  0  0  0
  -25.3872  -15.2045   20.4248 N   0  0  0  0  0  0
  -31.4883  -15.6902   20.1835 O   0  0  0  0  0  0
  -21.6651   -6.8891   21.4243 O   0  0  0  0  0  0
  -22.3386  -14.5451   20.6763 O   0  0  0  0  0  0
  -24.6938  -31.7879   23.1426 C   0  0  0  0  0  0
  -25.9469  -32.4407   23.8012 C   0  0  1  0  0  0
  -27.2312  -26.5984   20.2260 C   0  0  0  0  0  0
  -25.6004  -33.8238   24.1889 N   0  0  0  0  0  0
  -23.5249  -30.3851   21.4991 C   0  0  2  0  0  0
  -24.9836  -28.7037   20.1220 C   0  0  0  0  0  0
  -22.7813  -29.4252   22.4683 C   0  0  0  0  0  0
  -18.0346  -28.1427   22.8450 C   0  0  0  0  0  0
  -24.1496  -36.7127   23.2655 C   0  0  0  0  0  0
  -26.1102  -30.4868   21.4227 C   0  0  0  0  0  0
  -26.1751  -29.0398   20.7752 C   0  0  0  0  0  0
  -27.2794  -28.0189   20.7901 C   0  0  0  0  0  0
  -26.0047  -26.4981   19.5139 C   0  0  0  0  0  0
  -24.9438  -27.4599   19.4667 C   0  0  0  0  0  0
  -23.7849  -29.6719   20.1394 C   0  0  0  0  0  0
  -25.4151  -36.2860   24.0274 C   0  0  1  0  0  0
  -20.5986  -28.3792   23.1122 C   0  0  2  0  0  0
  -20.6807  -26.9442   22.5405 C   0  0  0  0  0  0
  -19.5784  -26.6368   21.5218 C   0  0  0  0  0  0
  -18.1967  -26.7953   22.1618 C   0  0  0  0  0  0
  -19.1615  -28.8937   23.2764 C   0  0  0  0  0  0
  -18.9518  -30.1517   23.8814 C   0  0  0  0  0  0
  -17.6506  -30.6607   24.0548 C   0  0  0  0  0  0
  -25.9137  -34.9253   23.4926 C   0  0  0  0  0  0
  -16.5395  -29.9086   23.6353 C   0  0  0  0  0  0
  -16.7325  -28.6509   23.0369 C   0  0  0  0  0  0
  -26.4613  -31.6486   25.0678 C   0  0  0  0  0  0
  -25.3650  -31.3832   26.1272 C   0  0  0  0  0  0
  -27.0563  -30.2813   24.6654 C   0  0  0  0  0  0
  -27.6039  -32.4373   25.7504 C   0  0  0  0  0  0
  -27.5561  -37.1720   24.8465 C   0  0  0  0  0  0
  -21.4450  -29.3019   22.3431 N   0  0  0  0  0  0
  -26.4267  -37.3633   23.9408 N   0  0  0  0  0  0
  -24.8010  -30.9223   22.0736 N   0  0  0  0  0  0
  -23.4207  -28.7870   23.3076 O   0  0  0  0  0  0
  -28.1810  -25.3315   20.2911 O   0  0  0  0  0  0
  -26.5793  -34.8852   22.4554 O   0  0  0  0  0  0
  -23.5935  -32.1001   23.6315 O   0  0  0  0  0  0
  -31.2228  -20.8496   20.3869 C   0  0  0  0  0  0
  -30.3255  -21.9701   20.3447 C   0  0  0  0  0  0
  -30.8968  -19.4511   20.3754 C   0  0  0  0  0  0
  -28.9144  -21.8782   20.2812 C   0  0  0  0  0  0
  -28.6340  -20.2585   20.2750 C   0  0  0  0  0  0
  -29.5843  -18.9216   20.3223 C   0  0  0  0  0  0
  -27.1625  -19.9103   20.2072 C   0  0  0  0  0  0
  -27.9537  -23.5369   20.1979 C   0  0  0  0  0  0
  -29.4665  -17.1605   20.3360 N   0  0  0  0  0  0
  -31.3968  -13.4684   19.1583 H   0  0  0  0  0  0
  -30.6134  -12.3660   20.2352 H   0  0  0  0  0  0
  -30.0377  -11.8468   17.8396 H   0  0  0  0  0  0
  -29.4916  -13.4875   17.5955 H   0  0  0  0  0  0
  -28.1924  -11.3165   19.2503 H   0  0  0  0  0  0
  -27.4715  -12.2085   17.9304 H   0  0  0  0  0  0
  -27.4348  -14.2232   19.2174 H   0  0  0  0  0  0
  -28.8921  -12.8519   21.5254 H   0  0  0  0  0  0
  -28.1393  -14.4238   21.6062 H   0  0  0  0  0  0
  -25.2799   -9.5678   22.4764 H   0  0  0  0  0  0
  -24.0016   -7.4641   22.7480 H   0  0  0  0  0  0
  -21.0876   -8.8795   19.8949 H   0  0  0  0  0  0
  -22.3752  -10.9677   19.6159 H   0  0  0  0  0  0
  -21.2015   -7.6152   23.9718 H   0  0  0  0  0  0
  -21.1483   -6.0524   25.9077 H   0  0  0  0  0  0
  -22.0595   -2.7613   23.2842 H   0  0  0  0  0  0
  -22.4031  -11.9805   22.4874 H   0  0  0  0  0  0
  -21.0987  -13.1114   22.2675 H   0  0  0  0  0  0
  -24.6120  -15.8494   20.5341 H   0  0  0  0  0  0
  -26.2228  -15.6463   20.0665 H   0  0  0  0  0  0
  -26.7561  -32.4854   23.0729 H   0  0  0  0  0  0
  -25.0045  -33.9258   24.9971 H   0  0  0  0  0  0
  -22.8561  -31.2251   21.2999 H   0  0  0  0  0  0
  -23.3780  -35.9433   23.3255 H   0  0  0  0  0  0
  -24.3561  -36.8859   22.2082 H   0  0  0  0  0  0
  -23.7235  -37.6276   23.6782 H   0  0  0  0  0  0
  -26.3237  -31.2044   20.6294 H   0  0  0  0  0  0
  -26.9571  -30.5591   22.0924 H   0  0  0  0  0  0
  -28.1744  -28.2874   21.3333 H   0  0  0  0  0  0
  -25.8203  -25.5630   19.0042 H   0  0  0  0  0  0
  -24.0477  -27.1917   18.9240 H   0  0  0  0  0  0
  -23.9690  -30.4272   19.3745 H   0  0  0  0  0  0
  -22.8875  -29.1437   19.8127 H   0  0  0  0  0  0
  -25.1366  -36.1606   25.0763 H   0  0  0  0  0  0
  -21.0065  -28.3426   24.1250 H   0  0  0  0  0  0
  -20.5661  -26.2420   23.3677 H   0  0  0  0  0  0
  -21.6667  -26.7368   22.1230 H   0  0  0  0  0  0
  -19.6938  -25.6256   21.1302 H   0  0  0  0  0  0
  -19.6730  -27.3132   20.6712 H   0  0  0  0  0  0
  -17.4237  -26.6695   21.4021 H   0  0  0  0  0  0
  -18.0352  -26.0116   22.9033 H   0  0  0  0  0  0
  -19.7993  -30.7355   24.2147 H   0  0  0  0  0  0
  -17.5056  -31.6278   24.5167 H   0  0  0  0  0  0
  -15.5392  -30.2961   23.7725 H   0  0  0  0  0  0
  -15.8726  -28.0799   22.7133 H   0  0  0  0  0  0
  -24.5870  -30.7146   25.7568 H   0  0  0  0  0  0
  -24.8801  -32.3062   26.4461 H   0  0  0  0  0  0
  -25.7802  -30.9151   27.0205 H   0  0  0  0  0  0
  -26.3302  -29.6395   24.1656 H   0  0  0  0  0  0
  -27.3960  -29.7302   25.5434 H   0  0  0  0  0  0
  -27.9293  -30.3915   24.0219 H   0  0  0  0  0  0
  -27.2564  -33.3755   26.1841 H   0  0  0  0  0  0
  -28.3973  -32.6806   25.0423 H   0  0  0  0  0  0
  -28.0573  -31.8666   26.5619 H   0  0  0  0  0  0
  -28.2538  -38.0053   24.7519 H   0  0  0  0  0  0
  -28.1098  -36.2574   24.6287 H   0  0  0  0  0  0
  -27.2276  -37.1346   25.8867 H   0  0  0  0  0  0
  -20.9780  -29.8657   21.6465 H   0  0  0  0  0  0
  -26.0084  -38.2675   24.1425 H   0  0  0  0  0  0
  -32.2764  -21.0883   20.4317 H   0  0  0  0  0  0
  -30.7594  -22.9607   20.3569 H   0  0  0  0  0  0
  -31.7200  -18.7511   20.4137 H   0  0  0  0  0  0
  -26.5428  -20.8026   20.1182 H   0  0  0  0  0  0
  -26.8596  -19.3740   21.1067 H   0  0  0  0  0  0
  -26.9638  -19.2727   19.3454 H   0  0  0  0  0  0
  -27.1769  -23.3754   20.9454 H   0  0  0  0  0  0
  -27.4211  -23.4312   19.2529 H   0  0  0  0  0  0
  -28.4901  -16.9047   20.3640 H   0  0  0  0  0  0
  1 25  1  0  0  0
  1 30  2  0  0  0
  1 79  1  0  0  0
  2  3  1  0  0  0
  2 25  1  0  0  0
  2 80  1  0  0  0
  2 81  1  0  0  0
  3  4  1  0  0  0
  3 82  1  0  0  0
  3 83  1  0  0  0
  4  5  1  0  0  0
  4 84  1  0  0  0
  4 85  1  0  0  0
  5  6  1  0  0  0
  5 26  1  0  0  0
  5 86  1  0  0  0
  6 25  1  0  0  0
  6 87  1  0  0  0
  6 88  1  0  0  0
  7  8  2  0  0  0
  7 26  1  0  0  0
  7 29  1  0  0  0
  8  9  1  0  0  0
  8 22  1  0  0  0
  9 10  1  0  0  0
  9 27  2  0  0  0
 10 11  2  0  0  0
 10 15  1  0  0  0
 11 12  1  0  0  0
 11 89  1  0  0  0
 12 13  2  0  0  0
 12 90  1  0  0  0
 13 14  1  0  0  0
 13 31  1  0  0  0
 14 15  2  0  0  0
 14 91  1  0  0  0
 15 92  1  0  0  0
 16 17  2  0  0  0
 16 21  1  0  0  0
 16 31  1  0  0  0
 17 18  1  0  0  0
 17 93  1  0  0  0
 18 19  2  0  0  0
 18 94  1  0  0  0
 19 20  1  0  0  0
 19 24  1  0  0  0
 20 21  2  0  0  0
 20 95  1  0  0  0
 21 23  1  0  0  0
 22 28  1  0  0  0
 22 32  2  0  0  0
 26 27  1  0  0  0
 28 96  1  0  0  0
 28 97  1  0  0  0
 29 98  1  0  0  0
 29 99  1  0  0  0
 33 34  1  0  0  0
 33 66  1  0  0  0
 33 70  2  0  0  0
 34 36  1  0  0  0
 34 59  1  0  0  0
 34100  1  0  0  0
 35 44  2  0  0  0
 35 45  1  0  0  0
 35 68  1  0  0  0
 36 56  1  0  0  0
 36101  1  0  0  0
 37 39  1  0  0  0
 37 47  1  0  0  0
 37 66  1  0  0  0
 37102  1  0  0  0
 38 43  2  0  0  0
 38 46  1  0  0  0
 38 47  1  0  0  0
 39 64  1  0  0  0
 39 67  2  0  0  0
 40 52  1  0  0  0
 40 53  2  0  0  0
 40 58  1  0  0  0
 41103  1  0  0  0
 41104  1  0  0  0
 41105  1  0  0  0
 41 48  1  0  0  0
 42 43  1  0  0  0
 42 66  1  0  0  0
 42106  1  0  0  0
 42107  1  0  0  0
 43 44  1  0  0  0
 44108  1  0  0  0
 45 46  2  0  0  0
 45109  1  0  0  0
 46110  1  0  0  0
 47111  1  0  0  0
 47112  1  0  0  0
 48 56  1  0  0  0
 48 65  1  0  0  0
 48113  1  0  0  0
 49 50  1  0  0  0
 49 53  1  0  0  0
 49 64  1  0  0  0
 49114  1  0  0  0
 50 51  1  0  0  0
 50115  1  0  0  0
 50116  1  0  0  0
 51 52  1  0  0  0
 51117  1  0  0  0
 51118  1  0  0  0
 52119  1  0  0  0
 52120  1  0  0  0
 53 54  1  0  0  0
 54 55  2  0  0  0
 54121  1  0  0  0
 55 57  1  0  0  0
 55122  1  0  0  0
 56 69  2  0  0  0
 57 58  2  0  0  0
 57123  1  0  0  0
 58124  1  0  0  0
 59 60  1  0  0  0
 59 61  1  0  0  0
 59 62  1  0  0  0
 60125  1  0  0  0
 60126  1  0  0  0
 60127  1  0  0  0
 61128  1  0  0  0
 61129  1  0  0  0
 61130  1  0  0  0
 62131  1  0  0  0
 62132  1  0  0  0
 62133  1  0  0  0
 63 65  1  0  0  0
 63134  1  0  0  0
 63135  1  0  0  0
 63136  1  0  0  0
 64137  1  0  0  0
 65138  1  0  0  0
 68 78  1  0  0  0
 71 72  2  0  0  0
 71 73  1  0  0  0
 71139  1  0  0  0
 72 74  1  0  0  0
 72140  1  0  0  0
 73 76  2  0  0  0
 73141  1  0  0  0
 74 75  2  0  0  0
 74 78  1  0  0  0
 75 76  1  0  0  0
 75 77  1  0  0  0
 76 79  1  0  0  0
 77142  1  0  0  0
 77143  1  0  0  0
 77144  1  0  0  0
 78145  1  0  0  0
 78146  1  0  0  0
 79147  1  0  0  0
M  ISO  4   1 100  68 101  78 101  79 100
M  END
> <chiral flag>
0

> <version>
0

> <s_m_source_file>
/data/baiqing/PycharmProjects/Reinvent-master-3.2/result/LINK_invent/BTK/process_docking_weight1_custom_sum_contain_oxygen_bond_distance_aromatic_linkinvent_7_9_3/rearranged_h_0003.sdf

> <i_m_source_file_index>
94

> <r_mmod_Potential_Energy-OPLS-2005>
2803.99047851562

> <r_mmod_Stretch_Energy-OPLS-2005>
1262.70520019531

> <r_mmod_Bend_Energy-OPLS-2005>
639.468688964844

> <r_mmod_Torsional_Energy-OPLS-2005>
222.865051269531

> <r_mmod_Improper_Torsional_Energy-OPLS-2005>
4.0774302482605

> <r_mmod_Van_der_Waal_Energy-OPLS-2005>
122.919425964355

> <r_mmod_Electrostatic_Energy-OPLS-2005>
-359.475402832031

> <r_mmod_Solvation_Energy-OPLS-2005>
-212.859893798828

> <b_mmod_Minimization_Converged-OPLS-2005>
0

> <r_mmod_RMS_Derivative-OPLS-2005>
0.0613113008439541

$$$$
96
                    3D
 Structure written by MMmdl.
151159  0  0  1  0            999 V2000
  -30.6314  -14.6502   20.4927 C   0  0  0  0  0  0
  -30.4372  -12.3978   19.4583 C   0  0  0  0  0  0
  -29.5079  -12.5047   18.2283 C   0  0  0  0  0  0
  -28.0304  -12.3486   18.6391 C   0  0  0  0  0  0
  -27.6528  -13.2220   19.8654 C   0  0  2  0  0  0
  -28.6987  -13.0878   20.9957 C   0  0  0  0  0  0
  -25.2528  -13.8163   20.5654 C   0  0  0  0  0  0
  -24.1810  -13.0425   20.9178 C   0  0  0  0  0  0
  -24.6401  -11.6907   20.8750 C   0  0  0  0  0  0
  -23.9072  -10.4289   21.0410 C   0  0  0  0  0  0
  -24.3621   -9.4206   21.9188 C   0  0  0  0  0  0
  -23.6297   -8.2240   22.0753 C   0  0  0  0  0  0
  -22.4279   -8.0280   21.3544 C   0  0  0  0  0  0
  -21.9916   -9.0254   20.4646 C   0  0  0  0  0  0
  -22.7244  -10.2132   20.3059 C   0  0  0  0  0  0
  -21.6853   -6.0739   22.5279 C   0  0  0  0  0  0
  -21.4011   -6.5642   23.8213 C   0  0  0  0  0  0
  -21.3659   -5.6793   24.9175 C   0  0  0  0  0  0
  -21.6044   -4.3055   24.7223 C   0  0  0  0  0  0
  -21.8821   -3.8150   23.4343 C   0  0  0  0  0  0
  -21.9194   -4.6968   22.3401 C   0  0  0  0  0  0
  -22.7835  -13.5218   21.1851 C   0  0  0  0  0  0
  -22.1663   -4.2155   21.0978 F   0  0  0  0  0  0
  -21.5631   -3.4537   25.7735 F   0  0  0  0  0  0
  -30.0141  -13.4266   20.4301 N   0  0  0  0  0  0
  -26.2990  -12.9372   20.3345 N   0  0  0  0  0  0
  -25.9340  -11.6521   20.5791 N   0  0  0  0  0  0
  -22.0488  -12.8209   22.0416 N   0  0  0  0  0  0
  -25.4186  -15.1873   20.4014 N   0  0  0  0  0  0
  -31.7945  -14.7936   20.1072 O   0  0  0  0  0  0
  -21.6641   -6.8879   21.4239 O   0  0  0  0  0  0
  -22.3514  -14.5530   20.6714 O   0  0  0  0  0  0
  -24.6271  -31.8596   23.2035 C   0  0  0  0  0  0
  -25.9112  -32.4779   23.8362 C   0  0  1  0  0  0
  -27.2225  -27.3148   20.1097 C   0  0  0  0  0  0
  -25.5927  -33.8580   24.2287 N   0  0  0  0  0  0
  -23.4208  -30.4849   21.5464 C   0  0  2  0  0  0
  -24.8656  -28.9427   20.1109 C   0  0  0  0  0  0
  -22.7483  -29.4622   22.4933 C   0  0  0  0  0  0
  -18.0287  -28.1385   22.8499 C   0  0  0  0  0  0
  -24.1487  -36.7286   23.2636 C   0  0  0  0  0  0
  -25.9633  -30.7892   21.3754 C   0  0  0  0  0  0
  -26.0369  -29.4173   20.7145 C   0  0  0  0  0  0
  -27.2180  -28.6158   20.7041 C   0  0  0  0  0  0
  -26.0235  -26.8964   19.4838 C   0  0  0  0  0  0
  -24.8614  -27.6874   19.4874 C   0  0  0  0  0  0
  -23.6351  -29.8241   20.1605 C   0  0  0  0  0  0
  -25.4112  -36.3081   24.0331 C   0  0  1  0  0  0
  -20.5892  -28.3683   23.1285 C   0  0  2  0  0  0
  -20.6775  -26.9406   22.5409 C   0  0  0  0  0  0
  -19.5746  -26.6386   21.5214 C   0  0  0  0  0  0
  -18.1927  -26.7934   22.1629 C   0  0  0  0  0  0
  -19.1544  -28.8852   23.2889 C   0  0  0  0  0  0
  -18.9466  -30.1458   23.8897 C   0  0  0  0  0  0
  -17.6466  -30.6589   24.0568 C   0  0  0  0  0  0
  -25.9045  -34.9455   23.5106 C   0  0  0  0  0  0
  -16.5354  -29.9090   23.6336 C   0  0  0  0  0  0
  -16.7275  -28.6507   23.0358 C   0  0  0  0  0  0
  -26.4492  -31.6590   25.0732 C   0  0  0  0  0  0
  -25.3728  -31.3751   26.1462 C   0  0  0  0  0  0
  -27.0313  -30.3006   24.6188 C   0  0  0  0  0  0
  -27.6056  -32.4316   25.7500 C   0  0  0  0  0  0
  -27.5580  -37.1796   24.8468 C   0  0  0  0  0  0
  -21.4191  -29.3041   22.3683 N   0  0  0  0  0  0
  -26.4288  -37.3780   23.9414 N   0  0  0  0  0  0
  -24.6892  -31.0614   22.0982 N   0  0  0  0  0  0
  -23.4209  -28.8154   23.3006 O   0  0  0  0  0  0
  -28.3363  -26.4568   20.1560 O   0  0  0  0  0  0
  -26.5612  -34.8924   22.4673 O   0  0  0  0  0  0
  -23.5431  -32.1385   23.7365 O   0  0  0  0  0  0
  -28.9860  -19.4478   21.0346 C   0  0  0  0  0  0
  -31.0385  -17.8269   20.0154 C   0  0  0  0  0  0
  -30.0669  -20.1037   20.3927 C   0  0  0  0  0  0
  -29.9671  -17.1678   20.6745 C   0  0  0  0  0  0
  -31.0875  -19.2470   19.8855 C   0  0  0  0  0  0
  -28.9407  -18.0245   21.1733 C   0  0  0  0  0  0
  -29.2921  -24.0297   20.3052 C   0  0  0  0  0  0
  -30.2644  -21.6690   20.3447 C   0  0  0  0  0  0
  -28.0869  -24.9990   19.9937 C   0  0  0  0  0  0
  -29.8423  -15.7124   20.8519 N   0  0  0  0  0  0
  -29.1405  -22.6630   20.2335 N   0  0  0  0  0  0
  -30.3861  -24.5233   20.5906 O   0  0  0  0  0  0
  -32.1636  -19.7942   19.2718 F   0  0  0  0  0  0
  -27.5961  -17.3272   22.0030 Cl  0  0  0  0  0  0
  -31.4787  -12.5199   19.1552 H   0  0  0  0  0  0
  -30.3724  -11.4058   19.9076 H   0  0  0  0  0  0
  -29.7708  -11.7448   17.4911 H   0  0  0  0  0  0
  -29.6532  -13.4691   17.7392 H   0  0  0  0  0  0
  -27.8637  -11.2967   18.8714 H   0  0  0  0  0  0
  -27.3775  -12.5800   17.7966 H   0  0  0  0  0  0
  -27.6667  -14.2565   19.5220 H   0  0  0  0  0  0
  -28.7112  -12.0705   21.3897 H   0  0  0  0  0  0
  -28.4448  -13.7300   21.8406 H   0  0  0  0  0  0
  -25.2765   -9.5682   22.4764 H   0  0  0  0  0  0
  -24.0008   -7.4628   22.7470 H   0  0  0  0  0  0
  -21.0848   -8.8775   19.8948 H   0  0  0  0  0  0
  -22.3706  -10.9674   19.6170 H   0  0  0  0  0  0
  -21.1999   -7.6151   23.9717 H   0  0  0  0  0  0
  -21.1480   -6.0523   25.9077 H   0  0  0  0  0  0
  -22.0600   -2.7613   23.2841 H   0  0  0  0  0  0
  -22.4111  -11.9871   22.4798 H   0  0  0  0  0  0
  -21.1111  -13.1234   22.2633 H   0  0  0  0  0  0
  -24.6579  -15.8422   20.5418 H   0  0  0  0  0  0
  -26.2828  -15.6394   20.1338 H   0  0  0  0  0  0
  -26.7182  -32.5442   23.1111 H   0  0  0  0  0  0
  -25.0083  -33.9730   25.0439 H   0  0  0  0  0  0
  -22.7148  -31.3061   21.4064 H   0  0  0  0  0  0
  -23.3754  -35.9613   23.3290 H   0  0  0  0  0  0
  -24.3582  -36.8910   22.2052 H   0  0  0  0  0  0
  -23.7235  -37.6489   23.6660 H   0  0  0  0  0  0
  -26.0983  -31.5552   20.6108 H   0  0  0  0  0  0
  -26.8428  -30.8338   22.0061 H   0  0  0  0  0  0
  -28.1171  -28.9762   21.1854 H   0  0  0  0  0  0
  -25.9478  -25.9406   18.9888 H   0  0  0  0  0  0
  -23.9643  -27.3184   19.0092 H   0  0  0  0  0  0
  -23.7565  -30.6033   19.4068 H   0  0  0  0  0  0
  -22.7540  -29.2561   19.8562 H   0  0  0  0  0  0
  -25.1293  -36.1924   25.0824 H   0  0  0  0  0  0
  -20.9991  -28.3246   24.1402 H   0  0  0  0  0  0
  -20.5671  -26.2288   23.3605 H   0  0  0  0  0  0
  -21.6641  -26.7428   22.1200 H   0  0  0  0  0  0
  -19.6899  -25.6300   21.1232 H   0  0  0  0  0  0
  -19.6683  -27.3207   20.6755 H   0  0  0  0  0  0
  -17.4198  -26.6687   21.4030 H   0  0  0  0  0  0
  -18.0320  -26.0077   22.9023 H   0  0  0  0  0  0
  -19.7938  -30.7280   24.2258 H   0  0  0  0  0  0
  -17.5018  -31.6269   24.5166 H   0  0  0  0  0  0
  -15.5356  -30.2989   23.7663 H   0  0  0  0  0  0
  -15.8673  -28.0827   22.7068 H   0  0  0  0  0  0
  -24.5909  -30.7077   25.7814 H   0  0  0  0  0  0
  -24.8907  -32.2922   26.4852 H   0  0  0  0  0  0
  -25.8050  -30.8970   27.0256 H   0  0  0  0  0  0
  -26.2876  -29.6774   24.1201 H   0  0  0  0  0  0
  -27.3985  -29.7248   25.4694 H   0  0  0  0  0  0
  -27.8766  -30.4281   23.9423 H   0  0  0  0  0  0
  -27.2685  -33.3643   26.2032 H   0  0  0  0  0  0
  -28.3891  -32.6815   25.0334 H   0  0  0  0  0  0
  -28.0681  -31.8453   26.5450 H   0  0  0  0  0  0
  -28.2593  -38.0099   24.7516 H   0  0  0  0  0  0
  -28.1077  -36.2630   24.6282 H   0  0  0  0  0  0
  -27.2299  -37.1434   25.8871 H   0  0  0  0  0  0
  -20.9355  -29.8782   21.6916 H   0  0  0  0  0  0
  -26.0162  -38.2847   24.1429 H   0  0  0  0  0  0
  -28.1914  -20.0398   21.4639 H   0  0  0  0  0  0
  -31.8559  -17.2556   19.6039 H   0  0  0  0  0  0
  -30.9399  -21.8874   19.5159 H   0  0  0  0  0  0
  -30.8328  -21.9215   21.2418 H   0  0  0  0  0  0
  -27.2561  -24.6985   20.6338 H   0  0  0  0  0  0
  -27.7934  -24.7985   18.9632 H   0  0  0  0  0  0
  -28.9489  -15.4322   21.2289 H   0  0  0  0  0  0
  -28.2280  -22.3047   19.9855 H   0  0  0  0  0  0
  1 25  1  0  0  0
  1 30  2  0  0  0
  1 80  1  0  0  0
  2  3  1  0  0  0
  2 25  1  0  0  0
  2 85  1  0  0  0
  2 86  1  0  0  0
  3  4  1  0  0  0
  3 87  1  0  0  0
  3 88  1  0  0  0
  4  5  1  0  0  0
  4 89  1  0  0  0
  4 90  1  0  0  0
  5  6  1  0  0  0
  5 26  1  0  0  0
  5 91  1  0  0  0
  6 25  1  0  0  0
  6 92  1  0  0  0
  6 93  1  0  0  0
  7  8  2  0  0  0
  7 26  1  0  0  0
  7 29  1  0  0  0
  8  9  1  0  0  0
  8 22  1  0  0  0
  9 10  1  0  0  0
  9 27  2  0  0  0
 10 11  2  0  0  0
 10 15  1  0  0  0
 11 12  1  0  0  0
 11 94  1  0  0  0
 12 13  2  0  0  0
 12 95  1  0  0  0
 13 14  1  0  0  0
 13 31  1  0  0  0
 14 15  2  0  0  0
 14 96  1  0  0  0
 15 97  1  0  0  0
 16 17  2  0  0  0
 16 21  1  0  0  0
 16 31  1  0  0  0
 17 18  1  0  0  0
 17 98  1  0  0  0
 18 19  2  0  0  0
 18 99  1  0  0  0
 19 20  1  0  0  0
 19 24  1  0  0  0
 20 21  2  0  0  0
 20100  1  0  0  0
 21 23  1  0  0  0
 22 28  1  0  0  0
 22 32  2  0  0  0
 26 27  1  0  0  0
 28101  1  0  0  0
 28102  1  0  0  0
 29103  1  0  0  0
 29104  1  0  0  0
 33 34  1  0  0  0
 33 66  1  0  0  0
 33 70  2  0  0  0
 34 36  1  0  0  0
 34 59  1  0  0  0
 34105  1  0  0  0
 35 44  2  0  0  0
 35 45  1  0  0  0
 35 68  1  0  0  0
 36 56  1  0  0  0
 36106  1  0  0  0
 37 39  1  0  0  0
 37 47  1  0  0  0
 37 66  1  0  0  0
 37107  1  0  0  0
 38 43  2  0  0  0
 38 46  1  0  0  0
 38 47  1  0  0  0
 39 64  1  0  0  0
 39 67  2  0  0  0
 40 52  1  0  0  0
 40 53  2  0  0  0
 40 58  1  0  0  0
 41108  1  0  0  0
 41109  1  0  0  0
 41110  1  0  0  0
 41 48  1  0  0  0
 42 43  1  0  0  0
 42 66  1  0  0  0
 42111  1  0  0  0
 42112  1  0  0  0
 43 44  1  0  0  0
 44113  1  0  0  0
 45 46  2  0  0  0
 45114  1  0  0  0
 46115  1  0  0  0
 47116  1  0  0  0
 47117  1  0  0  0
 48 56  1  0  0  0
 48 65  1  0  0  0
 48118  1  0  0  0
 49 50  1  0  0  0
 49 53  1  0  0  0
 49 64  1  0  0  0
 49119  1  0  0  0
 50 51  1  0  0  0
 50120  1  0  0  0
 50121  1  0  0  0
 51 52  1  0  0  0
 51122  1  0  0  0
 51123  1  0  0  0
 52124  1  0  0  0
 52125  1  0  0  0
 53 54  1  0  0  0
 54 55  2  0  0  0
 54126  1  0  0  0
 55 57  1  0  0  0
 55127  1  0  0  0
 56 69  2  0  0  0
 57 58  2  0  0  0
 57128  1  0  0  0
 58129  1  0  0  0
 59 60  1  0  0  0
 59 61  1  0  0  0
 59 62  1  0  0  0
 60130  1  0  0  0
 60131  1  0  0  0
 60132  1  0  0  0
 61133  1  0  0  0
 61134  1  0  0  0
 61135  1  0  0  0
 62136  1  0  0  0
 62137  1  0  0  0
 62138  1  0  0  0
 63 65  1  0  0  0
 63139  1  0  0  0
 63140  1  0  0  0
 63141  1  0  0  0
 64142  1  0  0  0
 65143  1  0  0  0
 68 79  1  0  0  0
 71 73  2  0  0  0
 71 76  1  0  0  0
 71144  1  0  0  0
 72 74  1  0  0  0
 72 75  2  0  0  0
 72145  1  0  0  0
 73 75  1  0  0  0
 73 78  1  0  0  0
 74 76  2  0  0  0
 74 80  1  0  0  0
 75 83  1  0  0  0
 76 84  1  0  0  0
 77 79  1  0  0  0
 77 81  1  0  0  0
 77 82  2  0  0  0
 78 81  1  0  0  0
 78146  1  0  0  0
 78147  1  0  0  0
 79148  1  0  0  0
 79149  1  0  0  0
 80150  1  0  0  0
 81151  1  0  0  0
M  ISO  4   1 100  68 101  79 101  80 100
M  END
> <chiral flag>
0

> <version>
0

> <s_m_source_file>
/data/baiqing/PycharmProjects/Reinvent-master-3.2/result/LINK_invent/BTK/process_docking_weight1_custom_sum_contain_oxygen_bond_distance_aromatic_linkinvent_7_9_3/rearranged_h_0003.sdf

> <i_m_source_file_index>
95

> <r_mmod_Potential_Energy-OPLS-2005>
-42.405387878418

> <r_mmod_Stretch_Energy-OPLS-2005>
81.5512237548828

> <r_mmod_Bend_Energy-OPLS-2005>
139.640441894531

> <r_mmod_Torsional_Energy-OPLS-2005>
208.231216430664

> <r_mmod_Improper_Torsional_Energy-OPLS-2005>
4.19159603118896

> <r_mmod_Van_der_Waal_Energy-OPLS-2005>
144.93571472168

> <r_mmod_Electrostatic_Energy-OPLS-2005>
-428.82861328125

> <r_mmod_Solvation_Energy-OPLS-2005>
-243.363372802734

> <b_mmod_Minimization_Converged-OPLS-2005>
0

> <r_mmod_RMS_Derivative-OPLS-2005>
0.97740775346756

$$$$
97
                    3D
 Structure written by MMmdl.
168175  0  0  1  0            999 V2000
  -30.8552  -14.4319   20.6313 C   0  0  0  0  0  0
  -30.4181  -12.3199   19.4335 C   0  0  0  0  0  0
  -29.4961  -12.5193   18.2156 C   0  0  0  0  0  0
  -28.0191  -12.4081   18.6276 C   0  0  0  0  0  0
  -27.6794  -13.2339   19.8984 C   0  0  2  0  0  0
  -28.7374  -13.0468   21.0201 C   0  0  0  0  0  0
  -25.2564  -13.8161   20.5637 C   0  0  0  0  0  0
  -24.1886  -13.0438   20.9195 C   0  0  0  0  0  0
  -24.6501  -11.6896   20.8812 C   0  0  0  0  0  0
  -23.9148  -10.4293   21.0429 C   0  0  0  0  0  0
  -24.3646   -9.4197   21.9217 C   0  0  0  0  0  0
  -23.6301   -8.2226   22.0767 C   0  0  0  0  0  0
  -22.4287   -8.0293   21.3549 C   0  0  0  0  0  0
  -21.9941   -9.0285   20.4647 C   0  0  0  0  0  0
  -22.7297  -10.2151   20.3075 C   0  0  0  0  0  0
  -21.6852   -6.0758   22.5270 C   0  0  0  0  0  0
  -21.4015   -6.5651   23.8223 C   0  0  0  0  0  0
  -21.3673   -5.6794   24.9175 C   0  0  0  0  0  0
  -21.6045   -4.3060   24.7202 C   0  0  0  0  0  0
  -21.8817   -3.8162   23.4329 C   0  0  0  0  0  0
  -21.9178   -4.6987   22.3385 C   0  0  0  0  0  0
  -22.7885  -13.5196   21.1822 C   0  0  0  0  0  0
  -22.1649   -4.2163   21.0973 F   0  0  0  0  0  0
  -21.5630   -3.4551   25.7730 F   0  0  0  0  0  0
  -30.0759  -13.3194   20.4634 N   0  0  0  0  0  0
  -26.3169  -12.9443   20.3552 N   0  0  0  0  0  0
  -25.9481  -11.6587   20.5934 N   0  0  0  0  0  0
  -22.0522  -12.8218   22.0389 N   0  0  0  0  0  0
  -25.4066  -15.1858   20.3768 N   0  0  0  0  0  0
  -31.8849  -14.6039   19.9769 O   0  0  0  0  0  0
  -21.6642   -6.8897   21.4238 O   0  0  0  0  0  0
  -22.3564  -14.5519   20.6671 O   0  0  0  0  0  0
  -24.6144  -31.8634   23.2171 C   0  0  0  0  0  0
  -25.9023  -32.4862   23.8492 C   0  0  1  0  0  0
  -27.2352  -27.4302   20.0836 C   0  0  0  0  0  0
  -25.5917  -33.8696   24.2355 N   0  0  0  0  0  0
  -23.4060  -30.4869   21.5519 C   0  0  2  0  0  0
  -24.8535  -28.9614   20.1138 C   0  0  0  0  0  0
  -22.7445  -29.4536   22.4956 C   0  0  0  0  0  0
  -18.0273  -28.1418   22.8451 C   0  0  0  0  0  0
  -24.1446  -36.7345   23.2653 C   0  0  0  0  0  0
  -25.9305  -30.8404   21.3517 C   0  0  0  0  0  0
  -26.0122  -29.4684   20.7091 C   0  0  0  0  0  0
  -27.2040  -28.7077   20.6888 C   0  0  0  0  0  0
  -26.0408  -26.9275   19.5055 C   0  0  0  0  0  0
  -24.8627  -27.6941   19.5110 C   0  0  0  0  0  0
  -23.6168  -29.8265   20.1630 C   0  0  0  0  0  0
  -25.4085  -36.3153   24.0326 C   0  0  1  0  0  0
  -20.5850  -28.3609   23.1330 C   0  0  2  0  0  0
  -20.6707  -26.9314   22.5437 C   0  0  0  0  0  0
  -19.5693  -26.6369   21.5214 C   0  0  0  0  0  0
  -18.1888  -26.7982   22.1602 C   0  0  0  0  0  0
  -19.1521  -28.8826   23.2906 C   0  0  0  0  0  0
  -18.9433  -30.1435   23.8868 C   0  0  0  0  0  0
  -17.6414  -30.6554   24.0528 C   0  0  0  0  0  0
  -25.9040  -34.9515   23.5117 C   0  0  0  0  0  0
  -16.5324  -29.9037   23.6328 C   0  0  0  0  0  0
  -16.7273  -28.6499   23.0267 C   0  0  0  0  0  0
  -26.4492  -31.6744   25.0852 C   0  0  0  0  0  0
  -25.3847  -31.3824   26.1682 C   0  0  0  0  0  0
  -27.0300  -30.3242   24.6176 C   0  0  0  0  0  0
  -27.6078  -32.4533   25.7593 C   0  0  0  0  0  0
  -27.5555  -37.1812   24.8453 C   0  0  0  0  0  0
  -21.4149  -29.3013   22.3807 N   0  0  0  0  0  0
  -26.4225  -37.3880   23.9467 N   0  0  0  0  0  0
  -24.6709  -31.0762   22.1026 N   0  0  0  0  0  0
  -23.4228  -28.8029   23.2929 O   0  0  0  0  0  0
  -28.4379  -26.7512   20.0584 O   0  0  0  0  0  0
  -26.5493  -34.8925   22.4616 O   0  0  0  0  0  0
  -23.5319  -32.1290   23.7550 O   0  0  0  0  0  0
  -28.4239  -24.6289   21.2609 C   0  0  0  0  0  0
  -33.8752  -16.3753   23.4034 C   0  0  0  0  0  0
  -28.4827  -25.3225   19.8914 C   0  0  0  0  0  0
  -32.7084  -16.5013   22.3885 C   0  0  0  0  0  0
  -28.3946  -19.2992   21.8263 C   0  0  0  0  0  0
  -27.5264  -20.5708   21.8181 C   0  0  0  0  0  0
  -27.6289  -18.0286   21.4085 C   0  0  0  0  0  0
  -28.1112  -21.6825   22.7024 C   0  0  0  0  0  0
  -28.3840  -16.7051   21.6919 C   0  0  0  0  0  0
  -31.4257  -15.6509   22.6985 C   0  0  0  0  0  0
  -27.2675  -22.9715   22.7060 C   0  0  0  0  0  0
  -29.7817  -16.5586   21.0484 C   0  0  0  0  0  0
  -27.4379  -23.7439   21.4805 N   0  0  0  0  0  0
  -30.5033  -15.3653   21.5518 N   0  0  0  0  0  0
  -29.2796  -24.8798   22.1137 O   0  0  0  0  0  0
  -31.4650  -12.3713   19.1262 H   0  0  0  0  0  0
  -30.2924  -11.3183   19.8451 H   0  0  0  0  0  0
  -29.7227  -11.7713   17.4523 H   0  0  0  0  0  0
  -29.6878  -13.4911   17.7573 H   0  0  0  0  0  0
  -27.7988  -11.3526   18.7951 H   0  0  0  0  0  0
  -27.3791  -12.7259   17.8016 H   0  0  0  0  0  0
  -27.7100  -14.2821   19.5956 H   0  0  0  0  0  0
  -28.7156  -12.0215   21.3967 H   0  0  0  0  0  0
  -28.5183  -13.6868   21.8766 H   0  0  0  0  0  0
  -25.2787   -9.5644   22.4818 H   0  0  0  0  0  0
  -23.9996   -7.4603   22.7475 H   0  0  0  0  0  0
  -21.0879   -8.8821   19.8940 H   0  0  0  0  0  0
  -22.3781  -10.9704   19.6185 H   0  0  0  0  0  0
  -21.2028   -7.6167   23.9719 H   0  0  0  0  0  0
  -21.1505   -6.0542   25.9080 H   0  0  0  0  0  0
  -22.0584   -2.7621   23.2824 H   0  0  0  0  0  0
  -22.4128  -11.9879   22.4789 H   0  0  0  0  0  0
  -21.1155  -13.1260   22.2583 H   0  0  0  0  0  0
  -24.6202  -15.8221   20.4528 H   0  0  0  0  0  0
  -26.2466  -15.6310   20.0313 H   0  0  0  0  0  0
  -26.7052  -32.5557   23.1227 H   0  0  0  0  0  0
  -25.0313  -33.9972   25.0650 H   0  0  0  0  0  0
  -22.6970  -31.3051   21.4131 H   0  0  0  0  0  0
  -23.3722  -35.9655   23.3302 H   0  0  0  0  0  0
  -24.3524  -36.9010   22.2088 H   0  0  0  0  0  0
  -23.7186  -37.6529   23.6664 H   0  0  0  0  0  0
  -26.0010  -31.5848   20.5543 H   0  0  0  0  0  0
  -26.8357  -30.9299   21.9374 H   0  0  0  0  0  0
  -28.1069  -29.1020   21.1301 H   0  0  0  0  0  0
  -25.9869  -25.9579   19.0363 H   0  0  0  0  0  0
  -23.9639  -27.3078   19.0518 H   0  0  0  0  0  0
  -23.7359  -30.6033   19.4083 H   0  0  0  0  0  0
  -22.7454  -29.2484   19.8554 H   0  0  0  0  0  0
  -25.1260  -36.1995   25.0802 H   0  0  0  0  0  0
  -20.9879  -28.3055   24.1478 H   0  0  0  0  0  0
  -20.5491  -26.2164   23.3611 H   0  0  0  0  0  0
  -21.6581  -26.7274   22.1278 H   0  0  0  0  0  0
  -19.6744  -25.6271   21.1243 H   0  0  0  0  0  0
  -19.6679  -27.3147   20.6740 H   0  0  0  0  0  0
  -17.4175  -26.6760   21.4002 H   0  0  0  0  0  0
  -18.0169  -26.0172   22.9018 H   0  0  0  0  0  0
  -19.7887  -30.7292   24.2204 H   0  0  0  0  0  0
  -17.4973  -31.6226   24.5164 H   0  0  0  0  0  0
  -15.5310  -30.2875   23.7765 H   0  0  0  0  0  0
  -15.8711  -28.0870   22.6867 H   0  0  0  0  0  0
  -24.5885  -30.7285   25.8087 H   0  0  0  0  0  0
  -24.9166  -32.2976   26.5333 H   0  0  0  0  0  0
  -25.8293  -30.8887   27.0337 H   0  0  0  0  0  0
  -26.2738  -29.7028   24.1344 H   0  0  0  0  0  0
  -27.4257  -29.7533   25.4583 H   0  0  0  0  0  0
  -27.8500  -30.4719   23.9142 H   0  0  0  0  0  0
  -27.2673  -33.3848   26.2149 H   0  0  0  0  0  0
  -28.3857  -32.7150   25.0398 H   0  0  0  0  0  0
  -28.0751  -31.8732   26.5541 H   0  0  0  0  0  0
  -28.2548  -38.0144   24.7569 H   0  0  0  0  0  0
  -28.1052  -36.2691   24.6105 H   0  0  0  0  0  0
  -27.2289  -37.1303   25.8855 H   0  0  0  0  0  0
  -20.9214  -29.9028   21.7347 H   0  0  0  0  0  0
  -26.0073  -38.2888   24.1615 H   0  0  0  0  0  0
  -34.7495  -16.9339   23.0495 H   0  0  0  0  0  0
  -34.1997  -15.3405   23.5331 H   0  0  0  0  0  0
  -33.6386  -16.7740   24.3929 H   0  0  0  0  0  0
  -27.7642  -24.9123   19.1817 H   0  0  0  0  0  0
  -29.4570  -25.0774   19.4697 H   0  0  0  0  0  0
  -33.1112  -16.2504   21.4091 H   0  0  0  0  0  0
  -32.4461  -17.5585   22.3323 H   0  0  0  0  0  0
  -28.8173  -19.1469   22.8213 H   0  0  0  0  0  0
  -29.2438  -19.4674   21.1653 H   0  0  0  0  0  0
  -26.5232  -20.3396   22.1787 H   0  0  0  0  0  0
  -27.4132  -20.9260   20.7913 H   0  0  0  0  0  0
  -27.3117  -18.0958   20.3634 H   0  0  0  0  0  0
  -26.7061  -17.9947   21.9876 H   0  0  0  0  0  0
  -29.1363  -21.8994   22.3945 H   0  0  0  0  0  0
  -28.1749  -21.3151   23.7264 H   0  0  0  0  0  0
  -27.7617  -15.8802   21.3511 H   0  0  0  0  0  0
  -28.4622  -16.5705   22.7719 H   0  0  0  0  0  0
  -30.8630  -16.1531   23.4847 H   0  0  0  0  0  0
  -31.7347  -14.7020   23.1460 H   0  0  0  0  0  0
  -27.5142  -23.5837   23.5768 H   0  0  0  0  0  0
  -26.2106  -22.7270   22.8098 H   0  0  0  0  0  0
  -30.3881  -17.4455   21.2277 H   0  0  0  0  0  0
  -29.6657  -16.5191   19.9583 H   0  0  0  0  0  0
  -26.7649  -23.5774   20.7460 H   0  0  0  0  0  0
  1 25  1  0  0  0
  1 30  2  0  0  0
  1 84  1  0  0  0
  2  3  1  0  0  0
  2 25  1  0  0  0
  2 86  1  0  0  0
  2 87  1  0  0  0
  3  4  1  0  0  0
  3 88  1  0  0  0
  3 89  1  0  0  0
  4  5  1  0  0  0
  4 90  1  0  0  0
  4 91  1  0  0  0
  5  6  1  0  0  0
  5 26  1  0  0  0
  5 92  1  0  0  0
  6 25  1  0  0  0
  6 93  1  0  0  0
  6 94  1  0  0  0
  7  8  2  0  0  0
  7 26  1  0  0  0
  7 29  1  0  0  0
  8  9  1  0  0  0
  8 22  1  0  0  0
  9 10  1  0  0  0
  9 27  2  0  0  0
 10 11  2  0  0  0
 10 15  1  0  0  0
 11 12  1  0  0  0
 11 95  1  0  0  0
 12 13  2  0  0  0
 12 96  1  0  0  0
 13 14  1  0  0  0
 13 31  1  0  0  0
 14 15  2  0  0  0
 14 97  1  0  0  0
 15 98  1  0  0  0
 16 17  2  0  0  0
 16 21  1  0  0  0
 16 31  1  0  0  0
 17 18  1  0  0  0
 17 99  1  0  0  0
 18 19  2  0  0  0
 18100  1  0  0  0
 19 20  1  0  0  0
 19 24  1  0  0  0
 20 21  2  0  0  0
 20101  1  0  0  0
 21 23  1  0  0  0
 22 28  1  0  0  0
 22 32  2  0  0  0
 26 27  1  0  0  0
 28102  1  0  0  0
 28103  1  0  0  0
 29104  1  0  0  0
 29105  1  0  0  0
 33 34  1  0  0  0
 33 66  1  0  0  0
 33 70  2  0  0  0
 34 36  1  0  0  0
 34 59  1  0  0  0
 34106  1  0  0  0
 35 44  2  0  0  0
 35 45  1  0  0  0
 35 68  1  0  0  0
 36 56  1  0  0  0
 36107  1  0  0  0
 37 39  1  0  0  0
 37 47  1  0  0  0
 37 66  1  0  0  0
 37108  1  0  0  0
 38 43  2  0  0  0
 38 46  1  0  0  0
 38 47  1  0  0  0
 39 64  1  0  0  0
 39 67  2  0  0  0
 40 52  1  0  0  0
 40 53  2  0  0  0
 40 58  1  0  0  0
 41109  1  0  0  0
 41110  1  0  0  0
 41111  1  0  0  0
 41 48  1  0  0  0
 42 43  1  0  0  0
 42 66  1  0  0  0
 42112  1  0  0  0
 42113  1  0  0  0
 43 44  1  0  0  0
 44114  1  0  0  0
 45 46  2  0  0  0
 45115  1  0  0  0
 46116  1  0  0  0
 47117  1  0  0  0
 47118  1  0  0  0
 48 56  1  0  0  0
 48 65  1  0  0  0
 48119  1  0  0  0
 49 50  1  0  0  0
 49 53  1  0  0  0
 49 64  1  0  0  0
 49120  1  0  0  0
 50 51  1  0  0  0
 50121  1  0  0  0
 50122  1  0  0  0
 51 52  1  0  0  0
 51123  1  0  0  0
 51124  1  0  0  0
 52125  1  0  0  0
 52126  1  0  0  0
 53 54  1  0  0  0
 54 55  2  0  0  0
 54127  1  0  0  0
 55 57  1  0  0  0
 55128  1  0  0  0
 56 69  2  0  0  0
 57 58  2  0  0  0
 57129  1  0  0  0
 58130  1  0  0  0
 59 60  1  0  0  0
 59 61  1  0  0  0
 59 62  1  0  0  0
 60131  1  0  0  0
 60132  1  0  0  0
 60133  1  0  0  0
 61134  1  0  0  0
 61135  1  0  0  0
 61136  1  0  0  0
 62137  1  0  0  0
 62138  1  0  0  0
 62139  1  0  0  0
 63 65  1  0  0  0
 63140  1  0  0  0
 63141  1  0  0  0
 63142  1  0  0  0
 64143  1  0  0  0
 65144  1  0  0  0
 68 73  1  0  0  0
 71 73  1  0  0  0
 71 83  1  0  0  0
 71 85  2  0  0  0
 72 74  1  0  0  0
 72145  1  0  0  0
 72146  1  0  0  0
 72147  1  0  0  0
 73148  1  0  0  0
 73149  1  0  0  0
 74 80  1  0  0  0
 74150  1  0  0  0
 74151  1  0  0  0
 75 76  1  0  0  0
 75 77  1  0  0  0
 75152  1  0  0  0
 75153  1  0  0  0
 76 78  1  0  0  0
 76154  1  0  0  0
 76155  1  0  0  0
 77 79  1  0  0  0
 77156  1  0  0  0
 77157  1  0  0  0
 78 81  1  0  0  0
 78158  1  0  0  0
 78159  1  0  0  0
 79 82  1  0  0  0
 79160  1  0  0  0
 79161  1  0  0  0
 80 84  1  0  0  0
 80162  1  0  0  0
 80163  1  0  0  0
 81 83  1  0  0  0
 81164  1  0  0  0
 81165  1  0  0  0
 82 84  1  0  0  0
 82166  1  0  0  0
 82167  1  0  0  0
 83168  1  0  0  0
M  ISO  4   1 100  68 101  73 101  84 100
M  END
> <chiral flag>
0

> <version>
0

> <s_m_source_file>
/data/baiqing/PycharmProjects/Reinvent-master-3.2/result/LINK_invent/BTK/process_docking_weight1_custom_sum_contain_oxygen_bond_distance_aromatic_linkinvent_7_9_3/rearranged_h_0003.sdf

> <i_m_source_file_index>
96

> <r_mmod_Potential_Energy-OPLS-2005>
119.408508300781

> <r_mmod_Stretch_Energy-OPLS-2005>
45.0007247924805

> <r_mmod_Bend_Energy-OPLS-2005>
120.510108947754

> <r_mmod_Torsional_Energy-OPLS-2005>
299.084106445312

> <r_mmod_Improper_Torsional_Energy-OPLS-2005>
4.7636923789978

> <r_mmod_Van_der_Waal_Energy-OPLS-2005>
122.481689453125

> <r_mmod_Electrostatic_Energy-OPLS-2005>
-275.980407714844

> <r_mmod_Solvation_Energy-OPLS-2005>
-212.111633300781

> <b_mmod_Minimization_Converged-OPLS-2005>
0

> <r_mmod_RMS_Derivative-OPLS-2005>
8.43654727935791

$$$$
